data_PCOD8310428
_publ_section_title
;
Structure prediction by ZEFSAII (Michael W. Deem and Ramdas Pophale) SiO2 
 PCOD8310428
Probable space group: P -4 N 2
;
_chemical_formula_sum "Si O2"
_cell_formula_units_Z 56
_cell_length_a 19.280341
_cell_length_b 19.280341
_cell_length_c 9.359003
_cell_angle_alpha 90.000000
_cell_angle_beta 90.000000
_cell_angle_gamma 90.000000
_cell_volume 3479.036683
_symmetry_space_group_name_H-M "P -4 N 2"
_symmetry_group_IT_number 118
_symmetry_cell_setting 'tetragonal'
loop_
_space_group_symop_operation_xyz
x,y,z
y,-x,-z
-x,-y,z
-y,x,-z
1/2+y,1/2+x,1/2-z
1/2-y,1/2-x,1/2-z
1/2-x,1/2+y,1/2+z
1/2+x,1/2-y,1/2+z
loop_
_atom_site_type_symbol
_atom_site_label
_atom_site_fract_x
_atom_site_fract_y
_atom_site_fract_z
Si Si1 0.649651 0.735778 0.084613
Si Si2 0.649651 0.735778 0.415387
Si Si3 0.475724 0.210043 0.580236
Si Si4 0.944972 0.444972 0.080435
Si Si5 0.789957 0.475724 0.080236
Si Si6 0.629039 0.237685 0.580676
Si Si7 0.870961 0.737685 0.419324
O O1 0.628345 0.732367 0.250000
O O2 0.698005 0.801995 0.054965
O O3 0.690248 0.665995 0.037337
O O4 0.581038 0.739938 0.989559
O O5 0.581038 0.739938 0.510441
O O6 0.690248 0.665995 0.462663
O O7 0.464688 0.131503 0.526143
O O8 0.468785 0.215444 0.750000
O O9 0.550566 0.235543 0.523664
O O10 0.947697 0.447697 0.250000
O O11 0.868497 0.464688 0.026143
O O12 0.000000 0.500000 0.016429
O O13 0.764457 0.550566 0.023664
O O14 0.672777 0.172777 0.517236
O O15 0.629255 0.230425 0.750000
#
# Coordination Sequence:
#
# PCOD8310428 Si02
#       7
#     8   8   8   8   8   8   8
#     4   9  17  30  46  63  88 122 153 178 216 271
#     4   9  17  30  46  63  88 122 153 178 216 271
#     4  10  17  27  46  70  91 112 147 190 226 257
#     4   9  16  24  39  67  97 117 135 172 225 270
#     4  10  17  27  46  70  91 112 147 190 226 257
#     4   8  15  28  46  66  88 118 153 184 215 264
#     4   8  15  28  46  66  88 118 153 184 215 264
#
# _framework density 16.096411
#
# number of rings (size 3 to 8) (size 9 to 14) (size 15 to 20)
#    0.000    3.000    1.429    2.571    0.000    3.429 
#    0.000    1.429    0.000    6.857    0.000    6.000 
#    0.000    0.000    0.000    0.000    0.000    0.000 
#
# Total GULP energy -694196.260158 kJ/mol
# GULP energy per Si atom -12396.361789 kJ/mol
# Density = 1.605977 g / cm^3
# Si number density = 16.096411 Si / 1000 Ang^3
#
#
#
# Elastic Constant Matrix: (Units=GPa)
#
#
# Indices 1 2 3 4 5 6 
#
# 1 132.6205 84.4952 31.8814 0.0000 0.0000 0.0000
# 2 84.4952 132.6205 31.8814 0.0000 0.0000 0.0000
# 3 31.8814 31.8814 24.9979 0.0000 0.0000 0.0000
# 4 0.0000 0.0000 0.0000 21.5259 0.0000 0.0000
# 5 0.0000 0.0000 0.0000 0.0000 21.5259 0.0000
# 6 0.0000 0.0000 0.0000 0.0000 0.0000 26.9527
#
#
#
# Elastic Compliance Matrix: (Units=1/GPa)
#
#
# Indices 1 2 3 4 5 6 
#
# 1 0.014072 -0.006708 -0.009392 0.000000 0.000000 0.000000
# 2 -0.006708 0.014072 -0.009392 0.000000 0.000000 0.000000
# 3 -0.009392 -0.009392 0.063959 0.000000 0.000000 0.000000
# 4 0.000000 0.000000 0.000000 0.046456 0.000000 0.000000
# 5 0.000000 0.000000 0.000000 0.000000 0.046456 0.000000
# 6 0.000000 0.000000 0.000000 0.000000 0.000000 0.037102
#
#
# Mechanical properties :
#
#
# Convention : Reuss Voigt Hill
#
# Bulk Modulus (GPa) = 24.31902 65.19498 44.75700
# Shear Modulus (GPa) = 17.43347 23.46631 20.44989
#
# Velocity S-wave (km/s) = 3.29457 3.82234 3.56822
# Velocity P-wave (km/s) = 5.44182 7.75055 6.69643
#
# Compressibility (1/GPa) = 0.04112008
#
# Stress axis : x y z
#
# Youngs Moduli (GPa) = 71.06532 71.06532 15.63496
#
# Poissons Ratio (x) = 0.47667 0.14684
# Poissons Ratio (y) = 0.47667 0.14684
# Poissons Ratio (z) = 0.66743 0.66743
#
# Static dielectric constant tensor:
#      x y z
#    x 3.171920 0.000000 0.000000 
#    y 0.000000 3.171920 0.000000 
#    z 0.000000 0.000000 2.598730 
# 
# 
# High freq. dielectric constant tensor:
#      x y z
#    x 1.615760 0.000000 0.000000 
#    y 0.000000 1.615760 0.000000 
#    z 0.000000 0.000000 1.573850 
# 
# From -- ./inp_files/3476.got.cif
#   From: 2010.03.12/outbox.cif.g09.slc.cpg/sg118_2_cif.got.tgz:3476.got - 2010.04.14 02:21:17.
