data_PCOD8310111
_publ_section_title
;
Structure prediction by ZEFSAII (Michael W. Deem and Ramdas Pophale) SiO2 
 PCOD8310111
Probable space group: P -4 C 2
;
_chemical_formula_sum "Si O2"
_cell_formula_units_Z 48
_cell_length_a 11.633464
_cell_length_b 11.633464
_cell_length_c 18.238566
_cell_angle_alpha 90.000000
_cell_angle_beta 90.000000
_cell_angle_gamma 90.000000
_cell_volume 2468.361646
_symmetry_space_group_name_H-M "P -4 C 2"
_symmetry_group_IT_number 116
_symmetry_cell_setting 'tetragonal'
loop_
_space_group_symop_operation_xyz
x,y,z
y,-x,-z
-x,-y,z
-y,x,-z
y,x,1/2-z
-y,-x,1/2-z
-x,y,1/2+z
x,-y,1/2+z
loop_
_atom_site_type_symbol
_atom_site_label
_atom_site_fract_x
_atom_site_fract_y
_atom_site_fract_z
Si Si1 0.635511 0.020123 0.597151
Si Si2 0.937163 0.613553 0.677397
Si Si3 0.775614 0.382590 0.434845
Si Si4 0.325802 0.858750 0.749052
Si Si5 0.605074 0.815830 0.975114
Si Si6 0.737010 0.440039 0.270927
O O1 0.668184 0.064806 0.676183
O O2 0.673723 0.115264 0.537869
O O3 0.500000 0.000000 0.590544
O O4 0.688871 0.894954 0.576435
O O5 0.898732 0.596655 0.594560
O O6 0.829450 0.644344 0.730585
O O7 0.000000 0.500000 0.710165
O O8 0.047018 0.697807 0.685886
O O9 0.781842 0.477244 0.499066
O O10 0.673398 0.298275 0.455420
O O11 0.747824 0.445719 0.358238
O O12 0.210390 0.789611 0.750000
O O13 0.432375 0.768025 0.759813
O O14 0.609432 0.390569 0.250000
#
# Coordination Sequence:
#
# PCOD8310111 Si02
#       6
#     8   8   8   8   8   8
#     4  10  19  40  62  82 122 169 199 248 303 362
#     4  10  20  37  62  91 115 160 220 252 278 378
#     4  11  22  41  63  89 124 163 201 253 317 364
#     4  11  22  37  64  95 128 159 206 258 311 364
#     4  11  23  37  64  93 120 159 205 254 309 370
#     4  11  20  39  65  88 123 164 201 247 314 368
#
# _framework density 19.446096000000001
#
# number of rings (size 3 to 8) (size 9 to 14) (size 15 to 20)
#    0.000    1.333    6.667    2.000    0.000    4.667 
#    0.000    1.667    0.000    7.000    0.000    0.000 
#    0.000    0.000    0.000    0.000    0.000    0.000 
#
# Total GULP energy -594675.610645 kJ/mol
# GULP energy per Si atom -12389.075222 kJ/mol
# Density = 1.940184 g / cm^3
# Si number density = 19.446096 Si / 1000 Ang^3
#
#
#
# Elastic Constant Matrix: (Units=GPa)
#
#
# Indices 1 2 3 4 5 6 
#
# 1 72.1885 44.5759 34.3852 0.0000 0.0000 0.0000
# 2 44.5759 72.1819 34.3809 0.0000 0.0000 0.0000
# 3 34.3852 34.3809 111.7911 0.0000 0.0000 0.0000
# 4 0.0000 0.0000 0.0000 27.3596 0.0000 0.0000
# 5 0.0000 0.0000 0.0000 0.0000 27.3601 0.0000
# 6 0.0000 0.0000 0.0000 0.0000 0.0000 24.3209
#
#
#
# Elastic Compliance Matrix: (Units=1/GPa)
#
#
# Indices 1 2 3 4 5 6 
#
# 1 0.023339 -0.012880 -0.003217 0.000000 0.000000 0.000000
# 2 -0.012880 0.023340 -0.003216 0.000000 0.000000 0.000000
# 3 -0.003217 -0.003216 0.010924 0.000000 0.000000 0.000000
# 4 0.000000 0.000000 0.000000 0.036550 0.000000 0.000000
# 5 0.000000 0.000000 0.000000 0.000000 0.036550 0.000000
# 6 0.000000 0.000000 0.000000 0.000000 0.000000 0.041117
#
#
# Mechanical properties :
#
#
# Convention : Reuss Voigt Hill
#
# Bulk Modulus (GPa) = 52.70157 53.64950 53.17553
# Shear Modulus (GPa) = 23.06569 25.32944 24.19756
#
# Velocity S-wave (km/s) = 3.44777 3.61300 3.53135
# Velocity P-wave (km/s) = 6.55817 6.71221 6.63564
#
# Compressibility (1/GPa) = 0.01897477
#
# Stress axis : x y z
#
# Youngs Moduli (GPa) = 42.84748 42.84475 91.54132
#
# Poissons Ratio (x) = 0.55185 0.29452
# Poissons Ratio (y) = 0.55189 0.29443
# Poissons Ratio (z) = 0.13785 0.13780
#
# Static dielectric constant tensor:
#      x y z
#    x 3.694940 0.000000 0.000000 
#    y 0.000000 3.694950 0.000000 
#    z 0.000000 0.000000 3.833930 
# 
# 
# High freq. dielectric constant tensor:
#      x y z
#    x 1.737880 0.000000 0.000000 
#    y 0.000000 1.737880 0.000000 
#    z 0.000000 0.000000 1.770750 
# 
# From -- ./inp_files/3375.got.cif
#   From: 2010.03.12/outbox.cif.g09.slc.cpg/sg116_2_cif.got.tgz:3375.got - 2010.04.14 02:15:44.
