data_PCOD8310041
_publ_section_title
;
Structure prediction by ZEFSAII (Michael W. Deem and Ramdas Pophale) SiO2 
 PCOD8310041
Probable space group: P -4 M 2
;
_chemical_formula_sum "Si O2"
_cell_formula_units_Z 56
_cell_length_a 14.554820
_cell_length_b 14.554820
_cell_length_c 17.721929
_cell_angle_alpha 90.000000
_cell_angle_beta 90.000000
_cell_angle_gamma 90.000000
_cell_volume 3754.262799
_symmetry_space_group_name_H-M "P -4 M 2"
_symmetry_group_IT_number 115
_symmetry_cell_setting 'tetragonal'
loop_
_space_group_symop_operation_xyz
x,y,z
y,-x,-z
-x,-y,z
-y,x,-z
y,x,-z
-y,-x,-z
-x,y,z
x,-y,z
loop_
_atom_site_type_symbol
_atom_site_label
_atom_site_fract_x
_atom_site_fract_y
_atom_site_fract_z
Si Si1 0.605499 0.752837 0.297188
Si Si2 0.897980 0.609035 0.583985
Si Si3 0.605499 0.752837 0.702812
Si Si4 0.608428 0.897383 1.000000
Si Si5 0.390965 0.897980 0.583985
Si Si6 0.394087 0.243722 0.125349
Si Si7 0.243722 0.394087 0.125349
O O1 0.500000 0.732641 0.316719
O O2 0.648543 0.829065 0.353064
O O3 0.657536 0.657536 0.309824
O O4 0.617506 0.788530 0.211735
O O5 0.901245 0.500000 0.590259
O O6 0.865076 0.638326 0.500000
O O7 0.000000 0.648583 0.599514
O O8 0.500000 0.732640 0.683281
O O9 0.648543 0.829065 0.646936
O O10 0.617506 0.788530 0.788265
O O11 0.500000 0.908056 1.000000
O O12 0.639955 0.841283 0.925807
O O13 0.652901 0.000000 0.000000
O O14 0.639954 0.841283 0.074193
O O15 0.500000 0.901245 0.590260
O O16 0.351417 0.000000 0.599514
O O17 0.500000 0.269622 0.107527
O O18 0.333597 0.333597 0.107335
O O19 0.269622 0.500000 0.107527
#
# Coordination Sequence:
#
# PCOD8310041 Si02
#       7
#     8   8   8   8   8   8   8
#     4   9  17  27  39  57  81 109 138 165 193 227
#     4   8  14  25  40  56  74  99 133 171 206 236
#     4   9  17  27  39  57  81 109 138 165 193 227
#     4   9  17  28  41  57  77 101 129 163 203 240
#     4   8  14  25  40  56  74  99 133 171 206 236
#     4   9  17  28  41  58  81 108 137 166 193 226
#     4   9  17  28  41  58  81 108 137 166 193 226
#
# _framework density 14.916376
#
# number of rings (size 3 to 8) (size 9 to 14) (size 15 to 20)
#    0.000    3.286    0.000    1.286    0.000    2.286 
#    0.000    8.571    0.000    2.571    0.000    4.000 
#    0.000    5.143    0.000   15.714    0.000    8.286 
#
# Total GULP energy -694075.184167 kJ/mol
# GULP energy per Si atom -12394.199717 kJ/mol
# Density = 1.488243 g / cm^3
# Si number density = 14.916376 Si / 1000 Ang^3
#
#
#
# Elastic Constant Matrix: (Units=GPa)
#
#
# Indices 1 2 3 4 5 6 
#
# 1 69.6490 35.9810 53.4602 0.0000 0.0000 0.0000
# 2 35.9810 69.6490 53.4602 0.0000 0.0000 0.0000
# 3 53.4602 53.4602 111.2222 0.0000 0.0000 0.0000
# 4 0.0000 0.0000 0.0000 23.0760 0.0000 0.0000
# 5 0.0000 0.0000 0.0000 0.0000 23.0760 0.0000
# 6 0.0000 0.0000 0.0000 0.0000 0.0000 2.9186
#
#
#
# Elastic Compliance Matrix: (Units=1/GPa)
#
#
# Indices 1 2 3 4 5 6 
#
# 1 0.024070 -0.005632 -0.008862 0.000000 0.000000 0.000000
# 2 -0.005632 0.024070 -0.008862 0.000000 0.000000 0.000000
# 3 -0.008862 -0.008862 0.017510 0.000000 0.000000 0.000000
# 4 0.000000 0.000000 0.000000 0.043335 0.000000 0.000000
# 5 0.000000 0.000000 0.000000 0.000000 0.043335 0.000000
# 6 0.000000 0.000000 0.000000 0.000000 0.000000 0.342634
#
#
# Mechanical properties :
#
#
# Convention : Reuss Voigt Hill
#
# Bulk Modulus (GPa) = 52.80769 59.59143 56.19956
# Shear Modulus (GPa) = 9.12444 16.98871 13.05657
#
# Velocity S-wave (km/s) = 2.47595 3.37847 2.96179
# Velocity P-wave (km/s) = 6.60705 7.43342 7.03239
#
# Compressibility (1/GPa) = 0.01893664
#
# Stress axis : x y z
#
# Youngs Moduli (GPa) = 41.54618 41.54618 57.10887
#
# Poissons Ratio (x) = 0.23399 0.50611
# Poissons Ratio (y) = 0.23399 0.50611
# Poissons Ratio (z) = 0.36819 0.36819
#
# Static dielectric constant tensor:
#      x y z
#    x 2.779700 0.000000 0.000000 
#    y 0.000000 2.779700 0.000000 
#    z 0.000000 0.000000 3.153080 
# 
# 
# High freq. dielectric constant tensor:
#      x y z
#    x 1.539410 0.000000 0.000000 
#    y 0.000000 1.539410 0.000000 
#    z 0.000000 0.000000 1.587980 
# 
# From -- ./inp_files/3787.got.cif
#   From: 2010.03.12/outbox.cif.g09.slc.cpg/sg115_2_cif.got.tgz:3787.got - 2010.04.14 02:11:21.
