data_PCOD8310430
_publ_section_title
;
Structure prediction by ZEFSAII (Michael W. Deem and Ramdas Pophale) SiO2 
 PCOD8310430
Probable space group: P -4 N 2
;
_chemical_formula_sum "Si O2"
_cell_formula_units_Z 40
_cell_length_a 12.348763
_cell_length_b 12.348763
_cell_length_c 14.066384
_cell_angle_alpha 90.000000
_cell_angle_beta 90.000000
_cell_angle_gamma 90.000000
_cell_volume 2145.010292
_symmetry_space_group_name_H-M "P -4 N 2"
_symmetry_group_IT_number 118
_symmetry_cell_setting 'tetragonal'
loop_
_space_group_symop_operation_xyz
x,y,z
y,-x,-z
-x,-y,z
-y,x,-z
1/2+y,1/2+x,1/2-z
1/2-y,1/2-x,1/2-z
1/2-x,1/2+y,1/2+z
1/2+x,1/2-y,1/2+z
loop_
_atom_site_type_symbol
_atom_site_label
_atom_site_fract_x
_atom_site_fract_y
_atom_site_fract_z
Si Si1 0.969953 0.609580 0.852279
Si Si2 0.145700 0.103462 0.498575
Si Si3 0.718780 0.799032 0.144849
Si Si4 0.258212 0.766078 0.137872
Si Si5 0.382652 0.369690 0.502192
O O1 0.926278 0.573723 0.750000
O O2 0.870180 0.672896 0.899394
O O3 0.000000 0.500000 0.911197
O O4 0.077941 0.679192 0.843495
O O5 0.219728 0.132653 0.407053
O O6 0.193022 0.157048 0.594116
O O7 0.024442 0.147063 0.482662
O O8 0.745815 0.754186 0.250000
O O9 0.828937 0.805479 0.083746
O O10 0.251651 0.751651 0.250000
O O11 0.139796 0.793112 0.094365
O O12 0.354768 0.492984 0.526305
#
# Coordination Sequence:
#
# PCOD8310430 Si02
#       5
#     8   8   8   8   8
#     4  10  17  29  53  82 106 134 185 233 273 315
#     4  10  23  39  56  84 118 150 186 232 288 343
#     4  11  21  36  58  87 113 148 193 237 280 337
#     4  10  21  36  58  81 110 150 190 227 278 337
#     4  10  21  37  56  84 118 148 184 232 288 343
#
# _framework density 18.647929999999999
#
# number of rings (size 3 to 8) (size 9 to 14) (size 15 to 20)
#    0.000    1.800    4.000    1.200    2.800    1.600 
#    0.000    4.000    0.000    0.000    0.000    5.600 
#    0.000    0.000    0.000    0.000    0.000    0.000 
#
# Total GULP energy -495698.267849 kJ/mol
# GULP energy per Si atom -12392.456696 kJ/mol
# Density = 1.860549 g / cm^3
# Si number density = 18.647930 Si / 1000 Ang^3
#
#
#
# Elastic Constant Matrix: (Units=GPa)
#
#
# Indices 1 2 3 4 5 6 
#
# 1 64.9556 45.0749 39.0449 0.0000 0.0000 0.0000
# 2 45.0749 64.9558 39.0450 0.0000 0.0000 0.0000
# 3 39.0449 39.0450 130.7020 0.0000 0.0000 0.0000
# 4 0.0000 0.0000 0.0000 19.9205 0.0000 0.0000
# 5 0.0000 0.0000 0.0000 0.0000 19.9206 0.0000
# 6 0.0000 0.0000 0.0000 0.0000 0.0000 32.2528
#
#
#
# Elastic Compliance Matrix: (Units=1/GPa)
#
#
# Indices 1 2 3 4 5 6 
#
# 1 0.030917 -0.019383 -0.003445 0.000000 0.000000 0.000000
# 2 -0.019383 0.030917 -0.003446 0.000000 0.000000 0.000000
# 3 -0.003445 -0.003446 0.009710 0.000000 0.000000 0.000000
# 4 0.000000 0.000000 0.000000 0.050200 0.000000 0.000000
# 5 0.000000 0.000000 0.000000 0.000000 0.050199 0.000000
# 6 0.000000 0.000000 0.000000 0.000000 0.000000 0.031005
#
#
# Mechanical properties :
#
#
# Convention : Reuss Voigt Hill
#
# Bulk Modulus (GPa) = 52.64552 56.32699 54.48625
# Shear Modulus (GPa) = 19.09659 23.58200 21.33930
#
# Velocity S-wave (km/s) = 3.20356 3.55997 3.38646
# Velocity P-wave (km/s) = 6.47892 6.86796 6.67627
#
# Compressibility (1/GPa) = 0.01899497
#
# Stress axis : x y z
#
# Youngs Moduli (GPa) = 32.34491 32.34495 102.99134
#
# Poissons Ratio (x) = 0.62694 0.35485
# Poissons Ratio (y) = 0.62694 0.35486
# Poissons Ratio (z) = 0.11144 0.11144
#
# Static dielectric constant tensor:
#      x y z
#    x 3.775070 0.000000 0.000000 
#    y 0.000000 3.775060 0.000000 
#    z 0.000000 0.000000 3.380680 
# 
# 
# High freq. dielectric constant tensor:
#      x y z
#    x 1.728250 0.000000 0.000000 
#    y 0.000000 1.728250 0.000000 
#    z 0.000000 0.000000 1.705810 
# 
# From -- ./inp_files/4046.got.cif
#   From: 2010.03.12/outbox.cif.g09.slc.cpg/sg118_3_cif.got.tgz:4046.got - 2010.04.14 02:21:17.
