data_PCOD8310683
_publ_section_title
;
Structure prediction by ZEFSAII (Michael W. Deem and Ramdas Pophale) SiO2 
 PCOD8310683
Probable space group: I -4 M 2
;
_chemical_formula_sum "Si O2"
_cell_formula_units_Z 88
_cell_length_a 14.430680
_cell_length_b 14.430680
_cell_length_c 31.372379
_cell_angle_alpha 90.000000
_cell_angle_beta 90.000000
_cell_angle_gamma 90.000000
_cell_volume 6533.126171
_symmetry_space_group_name_H-M "I -4 M 2"
_symmetry_group_IT_number 119
_symmetry_cell_setting 'tetragonal'
loop_
_space_group_symop_operation_xyz
x,y,z
y,-x,-z
-x,-y,z
-y,x,-z
y,x,-z
-y,-x,-z
-x,y,z
x,-y,z
1/2+x,1/2+y,1/2+z
1/2+y,1/2-x,1/2-z
1/2-x,1/2-y,1/2+z
1/2-y,1/2+x,1/2-z
1/2+y,1/2+x,1/2-z
1/2-y,1/2-x,1/2-z
1/2-x,1/2+y,1/2+z
1/2+x,1/2-y,1/2+z
loop_
_atom_site_type_symbol
_atom_site_label
_atom_site_fract_x
_atom_site_fract_y
_atom_site_fract_z
Si Si1 0.707568 0.608862 0.038824
Si Si2 0.393665 0.106001 0.411793
Si Si3 0.895763 0.107568 0.375395
Si Si4 0.101146 0.609875 0.005667
Si Si5 0.108638 0.608638 0.750000
Si Si6 0.391646 0.786044 0.167314
O O1 0.694881 0.500000 0.032650
O O2 0.665243 0.639669 0.083823
O O3 0.816641 0.637901 0.037928
O O4 0.655909 0.655909 0.000000
O O5 0.500000 0.114671 0.398251
O O6 0.376774 0.151710 0.458418
O O7 0.333789 0.154704 0.374458
O O8 0.361445 0.000000 0.414693
O O9 0.824907 0.127298 0.336280
O O10 0.000000 0.136531 0.361406
O O11 0.892637 0.000000 0.388524
O O12 0.094533 0.500000 0.000858
O O13 0.000000 0.646813 0.021690
O O14 0.126357 0.500000 0.740616
O O15 0.169447 0.647975 0.789443
O O16 0.500000 0.809076 0.167706
#
# Coordination Sequence:
#
# PCOD8310683 Si02
#       6
#    16  16  16  16   8  16
#     4  10  17  23  33  50  73 100 127 152 176 203
#     4   8  12  18  29  44  63  89 116 137 161 196
#     4   9  17  26  34  47  69  97 125 146 165 196
#     4   8  14  23  33  46  66  94 126 153 174 198
#     4   9  16  24  36  56  76  90 106 131 168 214
#     4   9  15  23  34  48  69  93 113 135 164 200
#
# _framework density 13.469816
#
# number of rings (size 3 to 8) (size 9 to 14) (size 15 to 20)
#    0.000    3.182    0.000    3.273    0.000    6.000 
#    0.000    0.000    0.000    0.000    0.000    1.273 
#    0.000    0.364    0.000    0.000    0.000    0.000 
#
# Total GULP energy -545079.173386 kJ/mol
# GULP energy per Si atom -12388.163031 kJ/mol
# Density = 1.343916 g / cm^3
# Si number density = 13.469816 Si / 1000 Ang^3
#
#
#
# Elastic Constant Matrix: (Units=GPa)
#
#
# Indices 1 2 3 4 5 6 
#
# 1 42.9617 20.0220 35.2836 0.0000 0.0000 0.0000
# 2 20.0220 42.9617 35.2836 0.0000 0.0000 0.0000
# 3 35.2836 35.2836 68.1811 0.0000 0.0000 0.0000
# 4 0.0000 0.0000 0.0000 15.3156 0.0000 0.0000
# 5 0.0000 0.0000 0.0000 0.0000 15.3156 0.0000
# 6 0.0000 0.0000 0.0000 0.0000 0.0000 5.0998
#
#
#
# Elastic Compliance Matrix: (Units=1/GPa)
#
#
# Indices 1 2 3 4 5 6 
#
# 1 0.040689 -0.002904 -0.019554 0.000000 0.000000 0.000000
# 2 -0.002904 0.040689 -0.019554 0.000000 0.000000 0.000000
# 3 -0.019554 -0.019554 0.034905 0.000000 0.000000 0.000000
# 4 0.000000 0.000000 0.000000 0.065293 0.000000 0.000000
# 5 0.000000 0.000000 0.000000 0.000000 0.065293 0.000000
# 6 0.000000 0.000000 0.000000 0.000000 0.000000 0.196085
#
#
# Mechanical properties :
#
#
# Convention : Reuss Voigt Hill
#
# Bulk Modulus (GPa) = 30.99793 37.25368 34.12580
# Shear Modulus (GPa) = 9.29836 11.38057 10.33946
#
# Velocity S-wave (km/s) = 2.63023 2.90986 2.77357
# Velocity P-wave (km/s) = 5.68216 6.24555 5.97051
#
# Compressibility (1/GPa) = 0.03226022
#
# Stress axis : x y z
#
# Youngs Moduli (GPa) = 24.57673 24.57673 28.64926
#
# Poissons Ratio (x) = 0.07136 0.56020
# Poissons Ratio (y) = 0.07136 0.56020
# Poissons Ratio (z) = 0.48057 0.48057
#
# Static dielectric constant tensor:
#      x y z
#    x 2.605190 0.000000 0.000000 
#    y 0.000000 2.605190 0.000000 
#    z 0.000000 0.000000 2.686440 
# 
# 
# High freq. dielectric constant tensor:
#      x y z
#    x 1.483070 0.000000 0.000000 
#    y 0.000000 1.483070 0.000000 
#    z 0.000000 0.000000 1.495510 
# 
# From -- ./inp_files/9495.got.cif
#   From: 2010.03.12/outbox.cif.g09.slc.cpg/sg119_5_cif.got.tgz:9495.got - 2010.04.14 02:25:26.
