data_PCOD8310129
_publ_section_title
;
Structure prediction by ZEFSAII (Michael W. Deem and Ramdas Pophale) SiO2 
 PCOD8310129
Probable space group: P -4 C 2
;
_chemical_formula_sum "Si O2"
_cell_formula_units_Z 50
_cell_length_a 11.799342
_cell_length_b 11.799342
_cell_length_c 18.864613
_cell_angle_alpha 90.000000
_cell_angle_beta 90.000000
_cell_angle_gamma 90.000000
_cell_volume 2626.415777
_symmetry_space_group_name_H-M "P -4 C 2"
_symmetry_group_IT_number 116
_symmetry_cell_setting 'tetragonal'
loop_
_space_group_symop_operation_xyz
x,y,z
y,-x,-z
-x,-y,z
-y,x,-z
y,x,1/2-z
-y,-x,1/2-z
-x,y,1/2+z
x,-y,1/2+z
loop_
_atom_site_type_symbol
_atom_site_label
_atom_site_fract_x
_atom_site_fract_y
_atom_site_fract_z
Si Si1 0.979045 0.780236 0.817428
Si Si2 0.209992 0.396610 0.555530
Si Si3 0.118081 0.160856 0.106474
Si Si4 0.000000 0.000000 0.000000
Si Si5 0.004855 0.373295 0.449104
Si Si6 0.344968 0.773402 0.973381
Si Si7 0.255170 0.094169 0.834679
O O1 0.864950 0.844070 0.837885
O O2 0.954037 0.715670 0.743761
O O3 0.089030 0.864528 0.819514
O O4 0.024569 0.697554 0.878528
O O5 0.106307 0.363676 0.504966
O O6 0.237551 0.529980 0.560478
O O7 0.321620 0.332390 0.526090
O O8 0.177152 0.353204 0.635063
O O9 0.093905 0.067297 0.045583
O O10 0.222326 0.245313 0.086104
O O11 0.012870 0.245650 0.114176
O O12 0.000000 0.500000 0.421185
O O13 0.888180 0.332530 0.482877
#
# Coordination Sequence:
#
# PCOD8310129 Si02
#       7
#     8   8   8   2   8   8   8
#     4  11  21  36  56  83 122 159 192 236 302 371
#     4  11  22  39  60  88 117 158 208 262 310 359
#     4  12  20  33  53  87 120 156 191 240 297 374
#     4  12  20  28  58  88 116 152 194 236 300 360
#     4  10  20  36  57  84 110 149 197 248 300 361
#     4  11  22  36  62  85 121 152 207 257 303 361
#     4  11  22  35  56  88 124 157 193 242 305 370
#
# _framework density 19.037351999999998
#
# number of rings (size 3 to 8) (size 9 to 14) (size 15 to 20)
#    0.000    0.960    6.400    2.400    0.000    1.600 
#    2.880    0.000    0.000    0.000    0.000    0.000 
#    0.000    0.000    0.000    0.000    0.000    0.000 
#
# Total GULP energy -619582.619302 kJ/mol
# GULP energy per Si atom -12391.652386 kJ/mol
# Density = 1.899402 g / cm^3
# Si number density = 19.037352 Si / 1000 Ang^3
#
#
#
# Elastic Constant Matrix: (Units=GPa)
#
#
# Indices 1 2 3 4 5 6 
#
# 1 94.5735 28.3511 38.5534 0.0000 0.0000 0.0000
# 2 28.3511 94.5735 38.5534 0.0000 0.0000 0.0000
# 3 38.5534 38.5534 94.8355 0.0000 0.0000 0.0000
# 4 0.0000 0.0000 0.0000 17.8403 0.0000 0.0000
# 5 0.0000 0.0000 0.0000 0.0000 17.8403 0.0000
# 6 0.0000 0.0000 0.0000 0.0000 0.0000 19.1136
#
#
#
# Elastic Compliance Matrix: (Units=1/GPa)
#
#
# Indices 1 2 3 4 5 6 
#
# 1 0.013010 -0.002091 -0.004439 0.000000 0.000000 0.000000
# 2 -0.002091 0.013010 -0.004439 0.000000 0.000000 0.000000
# 3 -0.004439 -0.004439 0.014154 0.000000 0.000000 0.000000
# 4 0.000000 0.000000 0.000000 0.056053 0.000000 0.000000
# 5 0.000000 0.000000 0.000000 0.000000 0.056053 0.000000
# 6 0.000000 0.000000 0.000000 0.000000 0.000000 0.052319
#
#
# Mechanical properties :
#
#
# Convention : Reuss Voigt Hill
#
# Bulk Modulus (GPa) = 54.83503 54.98867 54.91185
# Shear Modulus (GPa) = 21.49473 22.86048 22.17760
#
# Velocity S-wave (km/s) = 3.36383 3.46905 3.41684
# Velocity P-wave (km/s) = 6.62975 6.70769 6.66883
#
# Compressibility (1/GPa) = 0.01823652
#
# Stress axis : x y z
#
# Youngs Moduli (GPa) = 76.86327 76.86327 70.65220
#
# Poissons Ratio (x) = 0.16068 0.31363
# Poissons Ratio (y) = 0.16068 0.31363
# Poissons Ratio (z) = 0.34121 0.34121
#
# Static dielectric constant tensor:
#      x y z
#    x 3.507970 0.000000 0.000000 
#    y 0.000000 3.507970 0.000000 
#    z 0.000000 0.000000 3.470230 
# 
# 
# High freq. dielectric constant tensor:
#      x y z
#    x 1.732120 0.000000 0.000000 
#    y 0.000000 1.732120 0.000000 
#    z 0.000000 0.000000 1.725750 
# 
# From -- ./inp_files/4091.got.cif
#   From: 2010.03.12/outbox.cif.g09.slc.cpg/sg116_3_cif.got.tgz:4091.got - 2010.04.14 02:15:44.
