data_PCOD8310120
_publ_section_title
;
Structure prediction by ZEFSAII (Michael W. Deem and Ramdas Pophale) SiO2 
 PCOD8310120
Probable space group: P -4 C 2
;
_chemical_formula_sum "Si O2"
_cell_formula_units_Z 36
_cell_length_a 14.132652
_cell_length_b 14.132652
_cell_length_c 9.136863
_cell_angle_alpha 90.000000
_cell_angle_beta 90.000000
_cell_angle_gamma 90.000000
_cell_volume 1824.922574
_symmetry_space_group_name_H-M "P -4 C 2"
_symmetry_group_IT_number 116
_symmetry_cell_setting 'tetragonal'
loop_
_space_group_symop_operation_xyz
x,y,z
y,-x,-z
-x,-y,z
-y,x,-z
y,x,1/2-z
-y,-x,1/2-z
-x,y,1/2+z
x,-y,1/2+z
loop_
_atom_site_type_symbol
_atom_site_label
_atom_site_fract_x
_atom_site_fract_y
_atom_site_fract_z
Si Si1 0.000000 0.000000 0.750000
Si Si2 0.691680 0.559855 0.116893
Si Si3 0.500000 0.500000 0.250000
Si Si4 0.249452 0.393967 0.433487
Si Si5 0.191680 0.059855 0.616893
Si Si6 0.749451 0.106033 0.433487
O O1 0.095755 0.001785 0.654766
O O2 0.595755 0.501785 0.154766
O O3 0.753966 0.587477 0.259259
O O4 0.664598 0.655381 0.030486
O O5 0.753354 0.496062 0.010273
O O6 0.160687 0.339313 0.500000
O O7 0.164598 0.155381 0.530486
O O8 0.253966 0.087476 0.759258
O O9 0.253354 0.996061 0.510273
#
# Coordination Sequence:
#
# PCOD8310120 Si02
#       6
#     2   8   2   8   8   8
#     4   8  16  30  52  82 104 130 168 226 288 318
#     4  10  20  33  57  83 112 142 179 233 282 337
#     4   8  16  30  52  82 104 130 168 226 288 318
#     4  10  21  36  56  83 110 145 183 227 283 331
#     4  10  20  33  57  83 112 142 179 233 282 337
#     4  10  21  36  56  83 110 145 183 227 283 331
#
# _framework density 19.726863000000002
#
# number of rings (size 3 to 8) (size 9 to 14) (size 15 to 20)
#    0.000    2.667    0.000    5.333    0.000   12.444 
#    0.000    0.000    0.000   10.667    0.000    0.000 
#    0.000    0.000    0.000    0.000    0.000    0.000 
#
# Total GULP energy -446165.254950 kJ/mol
# GULP energy per Si atom -12393.479304 kJ/mol
# Density = 1.968196 g / cm^3
# Si number density = 19.726863 Si / 1000 Ang^3
#
#
#
# Elastic Constant Matrix: (Units=GPa)
#
#
# Indices 1 2 3 4 5 6 
#
# 1 34.7991 22.1524 23.6216 0.0000 0.0000 0.0000
# 2 22.1524 34.7991 23.6216 0.0000 0.0000 0.0000
# 3 23.6216 23.6216 75.8575 0.0000 0.0000 0.0000
# 4 0.0000 0.0000 0.0000 23.7920 0.0000 0.0000
# 5 0.0000 0.0000 0.0000 0.0000 23.7920 0.0000
# 6 0.0000 0.0000 0.0000 0.0000 0.0000 44.3555
#
#
#
# Elastic Compliance Matrix: (Units=1/GPa)
#
#
# Indices 1 2 3 4 5 6 
#
# 1 0.051373 -0.027699 -0.007372 0.000000 0.000000 0.000000
# 2 -0.027699 0.051373 -0.007372 0.000000 0.000000 0.000000
# 3 -0.007372 -0.007372 0.017774 0.000000 0.000000 0.000000
# 4 0.000000 0.000000 0.000000 0.042031 0.000000 0.000000
# 5 0.000000 0.000000 0.000000 0.000000 0.042031 0.000000
# 6 0.000000 0.000000 0.000000 0.000000 0.000000 0.022545
#
#
# Mechanical properties :
#
#
# Convention : Reuss Voigt Hill
#
# Bulk Modulus (GPa) = 28.06304 31.58301 29.82302
# Shear Modulus (GPa) = 15.43732 23.45857 19.44795
#
# Velocity S-wave (km/s) = 2.80045 3.45217 3.14325
# Velocity P-wave (km/s) = 4.97125 5.65110 5.32204
#
# Compressibility (1/GPa) = 0.03563406
#
# Stress axis : x y z
#
# Youngs Moduli (GPa) = 19.46550 19.46550 56.26252
#
# Poissons Ratio (x) = 0.53917 0.41477
# Poissons Ratio (y) = 0.53917 0.41477
# Poissons Ratio (z) = 0.14350 0.14350
#
# Static dielectric constant tensor:
#      x y z
#    x 3.347570 0.000000 0.000000 
#    y 0.000000 3.347570 0.000000 
#    z 0.000000 0.000000 3.598170 
# 
# 
# High freq. dielectric constant tensor:
#      x y z
#    x 1.743170 0.000000 0.000000 
#    y 0.000000 1.743170 0.000000 
#    z 0.000000 0.000000 1.772420 
# 
# From -- ./inp_files/715.got.cif
#   From: 2010.03.12/outbox.cif.g09.slc.cpg/sg116_1_cif.got.tgz:715.got - 2010.04.14 02:15:44.
