data_PCOD8310209
_publ_section_title
;
Structure prediction by ZEFSAII (Michael W. Deem and Ramdas Pophale) SiO2 
 PCOD8310209
Probable space group: P -4 C 2
;
_chemical_formula_sum "Si O2"
_cell_formula_units_Z 32
_cell_length_a 8.468051
_cell_length_b 8.468051
_cell_length_c 20.889340
_cell_angle_alpha 90.000000
_cell_angle_beta 90.000000
_cell_angle_gamma 90.000000
_cell_volume 1497.930448
_symmetry_space_group_name_H-M "P -4 C 2"
_symmetry_group_IT_number 116
_symmetry_cell_setting 'tetragonal'
loop_
_space_group_symop_operation_xyz
x,y,z
y,-x,-z
-x,-y,z
-y,x,-z
y,x,1/2-z
-y,-x,1/2-z
-x,y,1/2+z
x,-y,1/2+z
loop_
_atom_site_type_symbol
_atom_site_label
_atom_site_fract_x
_atom_site_fract_y
_atom_site_fract_z
Si Si1 0.543743 0.181648 0.415948
Si Si2 0.000000 0.000000 0.911375
Si Si3 0.729765 0.792262 0.041960
Si Si4 0.500000 0.000000 0.125271
Si Si5 0.802995 0.766604 0.823531
O O1 0.382271 0.276253 0.427577
O O2 0.677722 0.222734 0.468469
O O3 0.621134 0.233889 0.348350
O O4 0.500000 0.000000 0.416343
O O5 0.873846 0.096987 0.955066
O O6 0.099650 0.110255 0.865133
O O7 0.609091 0.900123 0.079136
O O8 0.594660 0.119236 0.170432
O O9 0.813685 0.813685 0.750000
#
# Coordination Sequence:
#
# PCOD8310209 Si02
#       5
#     8   4   8   4   8
#     4  12  25  41  70 103 136 178 222 295 357 415
#     4  10  23  43  72  96 137 183 236 292 340 417
#     4  11  24  44  68 103 138 173 232 289 367 414
#     4  10  24  44  66  96 134 186 228 294 348 424
#     4  11  25  43  67  99 140 185 240 285 345 418
#
# _framework density 21.362805000000002
#
# number of rings (size 3 to 8) (size 9 to 14) (size 15 to 20)
#    0.000    1.000    3.750    1.875    5.250    4.500 
#    0.000    2.500    0.000    0.000    0.000    0.000 
#    0.000    0.000    0.000    0.000    0.000    0.000 
#
# Total GULP energy -396920.527095 kJ/mol
# GULP energy per Si atom -12403.766472 kJ/mol
# Density = 2.131418 g / cm^3
# Si number density = 21.362805 Si / 1000 Ang^3
#
#
#
# Elastic Constant Matrix: (Units=GPa)
#
#
# Indices 1 2 3 4 5 6 
#
# 1 113.9786 31.8283 24.9852 0.0000 0.0000 0.0000
# 2 31.8283 113.9786 24.9852 0.0000 0.0000 0.0000
# 3 24.9852 24.9852 70.2078 0.0000 0.0000 0.0000
# 4 0.0000 0.0000 0.0000 18.4182 0.0000 0.0000
# 5 0.0000 0.0000 0.0000 0.0000 18.4182 0.0000
# 6 0.0000 0.0000 0.0000 0.0000 0.0000 37.2997
#
#
#
# Elastic Compliance Matrix: (Units=1/GPa)
#
#
# Indices 1 2 3 4 5 6 
#
# 1 0.009992 -0.002181 -0.002780 0.000000 0.000000 0.000000
# 2 -0.002181 0.009992 -0.002780 0.000000 0.000000 0.000000
# 3 -0.002780 -0.002780 0.016222 0.000000 0.000000 0.000000
# 4 0.000000 0.000000 0.000000 0.054294 0.000000 0.000000
# 5 0.000000 0.000000 0.000000 0.000000 0.054294 0.000000
# 6 0.000000 0.000000 0.000000 0.000000 0.000000 0.026810
#
#
# Mechanical properties :
#
#
# Convention : Reuss Voigt Hill
#
# Bulk Modulus (GPa) = 48.25089 51.30691 49.77890
# Shear Modulus (GPa) = 25.77415 29.25166 27.51290
#
# Velocity S-wave (km/s) = 3.47723 3.70439 3.59261
# Velocity P-wave (km/s) = 6.22551 6.50890 6.36878
#
# Compressibility (1/GPa) = 0.02072501
#
# Stress axis : x y z
#
# Youngs Moduli (GPa) = 100.08082 100.08082 61.64503
#
# Poissons Ratio (x) = 0.21826 0.17136
# Poissons Ratio (y) = 0.21826 0.17136
# Poissons Ratio (z) = 0.27820 0.27820
#
# Static dielectric constant tensor:
#      x y z
#    x 4.387980 0.000000 0.000000 
#    y 0.000000 4.387980 0.000000 
#    z 0.000000 0.000000 3.692560 
# 
# 
# High freq. dielectric constant tensor:
#      x y z
#    x 1.852740 0.000000 0.000000 
#    y 0.000000 1.852740 0.000000 
#    z 0.000000 0.000000 1.823710 
# 
# From -- ./inp_files/4332.got.cif
#   From: 2010.03.12/outbox.cif.g09.slc.cpg/sg116_3_cif.got.tgz:4332.got - 2010.04.14 02:15:44.
