data_PCOD8310848
_publ_section_title
;
Structure prediction by ZEFSAII (Michael W. Deem and Ramdas Pophale) SiO2 
 PCOD8310848
Probable space group: I -4 M 2
;
_chemical_formula_sum "Si O2"
_cell_formula_units_Z 112
_cell_length_a 14.390814
_cell_length_b 14.390814
_cell_length_c 30.327623
_cell_angle_alpha 90.000000
_cell_angle_beta 90.000000
_cell_angle_gamma 90.000000
_cell_volume 6280.715086
_symmetry_space_group_name_H-M "I -4 M 2"
_symmetry_group_IT_number 119
_symmetry_cell_setting 'tetragonal'
loop_
_space_group_symop_operation_xyz
x,y,z
y,-x,-z
-x,-y,z
-y,x,-z
y,x,-z
-y,-x,-z
-x,y,z
x,-y,z
1/2+x,1/2+y,1/2+z
1/2+y,1/2-x,1/2-z
1/2-x,1/2-y,1/2+z
1/2-y,1/2+x,1/2-z
1/2+y,1/2+x,1/2-z
1/2-y,1/2-x,1/2-z
1/2-x,1/2+y,1/2+z
1/2+x,1/2-y,1/2+z
loop_
_atom_site_type_symbol
_atom_site_label
_atom_site_fract_x
_atom_site_fract_y
_atom_site_fract_z
Si Si1 0.787179 0.391614 0.371710
Si Si2 0.107265 0.783806 0.876744
Si Si3 0.602991 0.601531 0.760997
Si Si4 0.609390 0.897320 0.543058
Si Si5 0.214418 0.397384 0.713773
Si Si6 0.392130 0.200475 0.792251
Si Si7 0.246438 0.107516 0.023121
O O1 0.801191 0.500000 0.363682
O O2 0.677449 0.370031 0.371930
O O3 0.834142 0.355607 0.416644
O O4 0.840116 0.336723 0.334244
O O5 0.129389 0.705881 0.838263
O O6 0.124649 0.740147 0.924827
O O7 0.000000 0.817571 0.871771
O O8 0.500000 0.611394 0.740282
O O9 0.613498 0.500000 0.785163
O O10 0.674635 0.606070 0.720707
O O11 0.620132 0.687393 0.794038
O O12 0.500000 0.909019 0.546614
O O13 0.637532 0.844778 0.498121
O O14 0.655940 0.000000 0.543825
O O15 0.173046 0.500000 0.722169
O O16 0.168915 0.331086 0.750000
O O17 0.500000 0.171113 0.792692
O O18 0.342791 0.157210 0.750000
O O19 0.223902 0.000000 0.012909
O O20 0.163527 0.163527 0.000000
#
# Coordination Sequence:
#
# PCOD8310848 Si02
#       7
#    16  16  16  16  16  16  16
#     4  11  21  33  51  76 107 144 181 217 261 320
#     4  10  21  34  52  78 107 140 182 226 272 324
#     4   9  18  33  52  72  96 132 176 218 263 314
#     4   9  18  33  52  74 102 139 179 216 260 318
#     4  10  20  35  53  74 103 139 176 221 270 322
#     4  11  22  34  50  74 105 140 176 219 267 314
#     4  10  19  34  53  77 108 142 178 222 274 328
#
# _framework density 17.832364999999999
#
# number of rings (size 3 to 8) (size 9 to 14) (size 15 to 20)
#    0.000    2.000    1.429    3.000    0.000    3.857 
#    0.000    3.571    0.000    3.429    0.000    0.000 
#    0.000    0.286    0.000    0.000    0.000    0.571 
#
# Total GULP energy -693893.354815 kJ/mol
# GULP energy per Si atom -12390.952765 kJ/mol
# Density = 1.779178 g / cm^3
# Si number density = 17.832365 Si / 1000 Ang^3
#
#
#
# Elastic Constant Matrix: (Units=GPa)
#
#
# Indices 1 2 3 4 5 6 
#
# 1 104.8957 41.1899 59.0891 0.0000 0.0000 0.0000
# 2 41.1899 104.8976 59.0890 0.0000 0.0000 0.0000
# 3 59.0891 59.0890 143.9674 0.0000 0.0000 0.0000
# 4 0.0000 0.0000 0.0000 25.4055 0.0000 0.0000
# 5 0.0000 0.0000 0.0000 0.0000 25.4059 0.0000
# 6 0.0000 0.0000 0.0000 0.0000 0.0000 18.1547
#
#
#
# Elastic Compliance Matrix: (Units=1/GPa)
#
#
# Indices 1 2 3 4 5 6 
#
# 1 0.012973 -0.002725 -0.004206 0.000000 0.000000 0.000000
# 2 -0.002725 0.012972 -0.004206 0.000000 0.000000 0.000000
# 3 -0.004206 -0.004206 0.010399 0.000000 0.000000 0.000000
# 4 0.000000 0.000000 0.000000 0.039362 0.000000 0.000000
# 5 0.000000 0.000000 0.000000 0.000000 0.039361 0.000000
# 6 0.000000 0.000000 0.000000 0.000000 0.000000 0.055082
#
#
# Mechanical properties :
#
#
# Convention : Reuss Voigt Hill
#
# Bulk Modulus (GPa) = 71.07307 74.72185 72.89746
# Shear Modulus (GPa) = 25.36639 26.75272 26.05956
#
# Velocity S-wave (km/s) = 3.77568 3.87749 3.82692
# Velocity P-wave (km/s) = 7.67792 7.87654 7.77786
#
# Compressibility (1/GPa) = 0.01407003
#
# Stress axis : x y z
#
# Youngs Moduli (GPa) = 77.08607 77.08799 96.16675
#
# Poissons Ratio (x) = 0.21003 0.40449
# Poissons Ratio (y) = 0.21003 0.40447
# Poissons Ratio (z) = 0.32423 0.32423
#
# Static dielectric constant tensor:
#      x y z
#    x 3.428850 0.000000 0.000000 
#    y 0.000000 3.428850 0.000000 
#    z 0.000000 0.000000 3.682450 
# 
# 
# High freq. dielectric constant tensor:
#      x y z
#    x 1.682040 0.000000 0.000000 
#    y 0.000000 1.682040 0.000000 
#    z 0.000000 0.000000 1.687040 
# 
# From -- ./inp_files/10472.got.cif
#   From: 2010.03.12/outbox.cif.g09.slc.cpg/sg119_6_cif.got.tgz:10472.got - 2010.04.14 02:25:26.
