data_PCOD8310399
_publ_section_title
;
Structure prediction by ZEFSAII (Michael W. Deem and Ramdas Pophale) SiO2 
 PCOD8310399
Probable space group: P -4 B 2
;
_chemical_formula_sum "Si O2"
_cell_formula_units_Z 36
_cell_length_a 9.028470
_cell_length_b 9.028470
_cell_length_c 18.366281
_cell_angle_alpha 90.000000
_cell_angle_beta 90.000000
_cell_angle_gamma 90.000000
_cell_volume 1497.095632
_symmetry_space_group_name_H-M "P -4 B 2"
_symmetry_group_IT_number 117
_symmetry_cell_setting 'tetragonal'
loop_
_space_group_symop_operation_xyz
x,y,z
y,-x,-z
-x,-y,z
-y,x,-z
1/2+y,1/2+x,-z
1/2-y,1/2-x,-z
1/2-x,1/2+y,z
1/2+x,1/2-y,z
loop_
_atom_site_type_symbol
_atom_site_label
_atom_site_fract_x
_atom_site_fract_y
_atom_site_fract_z
Si Si1 0.215588 0.944538 0.026041
Si Si2 0.314552 0.814552 0.500000
Si Si3 0.828646 0.953586 0.592569
Si Si4 0.059799 0.785933 0.242646
Si Si5 0.560169 0.717592 0.812366
O O1 0.239639 0.012436 0.104992
O O2 0.366350 0.866350 0.000000
O O3 0.079635 0.826397 0.028464
O O4 0.215449 0.797114 0.427217
O O5 0.473472 0.780710 0.466664
O O6 0.774747 0.989509 0.673834
O O7 0.000000 0.000000 0.580995
O O8 0.130460 0.632093 0.216103
O O9 0.917029 0.821413 0.192643
O O10 0.180439 0.918043 0.236918
#
# Coordination Sequence:
#
# PCOD8310399 Si02
#       5
#     8   4   8   8   8
#     4  11  24  45  72 108 150 192 238 298 364 431
#     4  12  24  44  70  98 148 188 240 302 366 430
#     4  12  24  46  69 104 147 190 238 305 365 429
#     4  11  24  45  71 103 143 192 238 300 359 429
#     4  11  24  45  72 104 148 186 241 299 359 425
#
# _framework density 24.046557
#
# number of rings (size 3 to 8) (size 9 to 14) (size 15 to 20)
#    0.000    0.667    4.444    5.333    0.000    1.778 
#    0.000    6.667    0.000    0.000    0.000    0.000 
#    0.000    0.000    0.000    0.000    0.000    0.000 
#
# Total GULP energy -446371.745968 kJ/mol
# GULP energy per Si atom -12399.215166 kJ/mol
# Density = 2.399183 g / cm^3
# Si number density = 24.046557 Si / 1000 Ang^3
#
#
#
# Elastic Constant Matrix: (Units=GPa)
#
#
# Indices 1 2 3 4 5 6 
#
# 1 60.2510 46.6190 48.9773 0.0000 0.0000 0.0000
# 2 46.6190 60.2510 48.9773 0.0000 0.0000 0.0000
# 3 48.9773 48.9773 159.4815 0.0000 0.0000 0.0000
# 4 0.0000 0.0000 0.0000 32.1643 0.0000 0.0000
# 5 0.0000 0.0000 0.0000 0.0000 32.1643 0.0000
# 6 0.0000 0.0000 0.0000 0.0000 0.0000 58.3330
#
#
#
# Elastic Compliance Matrix: (Units=1/GPa)
#
#
# Indices 1 2 3 4 5 6 
#
# 1 0.043190 -0.030167 -0.003999 0.000000 0.000000 0.000000
# 2 -0.030167 0.043190 -0.003999 0.000000 0.000000 0.000000
# 3 -0.003999 -0.003999 0.008727 0.000000 0.000000 0.000000
# 4 0.000000 0.000000 0.000000 0.031090 0.000000 0.000000
# 5 0.000000 0.000000 0.000000 0.000000 0.031090 0.000000
# 6 0.000000 0.000000 0.000000 0.000000 0.000000 0.017143
#
#
# Mechanical properties :
#
#
# Convention : Reuss Voigt Hill
#
# Bulk Modulus (GPa) = 53.26212 63.23674 58.24943
# Shear Modulus (GPa) = 19.45373 33.55963 26.50668
#
# Velocity S-wave (km/s) = 2.84738 3.73984 3.32370
# Velocity P-wave (km/s) = 5.74524 6.70845 6.24544
#
# Compressibility (1/GPa) = 0.01877507
#
# Stress axis : x y z
#
# Youngs Moduli (GPa) = 23.15358 23.15358 114.58999
#
# Poissons Ratio (x) = 0.69847 0.45829
# Poissons Ratio (y) = 0.69847 0.45829
# Poissons Ratio (z) = 0.09260 0.09260
#
# Static dielectric constant tensor:
#      x y z
#    x 4.395340 0.000000 0.000000 
#    y 0.000000 4.395340 0.000000 
#    z 0.000000 0.000000 4.243640 
# 
# 
# High freq. dielectric constant tensor:
#      x y z
#    x 1.951150 0.000000 0.000000 
#    y 0.000000 1.951150 0.000000 
#    z 0.000000 0.000000 1.962170 
# 
# From -- ./inp_files/3414.got.cif
#   From: 2010.03.12/outbox.cif.g09.slc.cpg/sg117_2_cif.got.tgz:3414.got - 2010.04.14 02:19:01.
