data_PCOD8310559
_publ_section_title
;
Structure prediction by ZEFSAII (Michael W. Deem and Ramdas Pophale) SiO2 
 PCOD8310559
Probable space group: P -4 N 2
;
_chemical_formula_sum "Si O2"
_cell_formula_units_Z 60
_cell_length_a 11.708902
_cell_length_b 11.708902
_cell_length_c 20.405579
_cell_angle_alpha 90.000000
_cell_angle_beta 90.000000
_cell_angle_gamma 90.000000
_cell_volume 2797.571947
_symmetry_space_group_name_H-M "P -4 N 2"
_symmetry_group_IT_number 118
_symmetry_cell_setting 'tetragonal'
loop_
_space_group_symop_operation_xyz
x,y,z
y,-x,-z
-x,-y,z
-y,x,-z
1/2+y,1/2+x,1/2-z
1/2-y,1/2-x,1/2-z
1/2-x,1/2+y,1/2+z
1/2+x,1/2-y,1/2+z
loop_
_atom_site_type_symbol
_atom_site_label
_atom_site_fract_x
_atom_site_fract_y
_atom_site_fract_z
Si Si1 0.470699 0.878872 0.159273
Si Si2 0.293436 0.793436 0.250000
Si Si3 0.582489 0.102176 0.478809
Si Si4 0.336754 0.513959 0.476235
Si Si5 0.282296 0.667936 0.847065
Si Si6 0.143242 0.123581 0.200164
Si Si7 0.127247 0.109972 0.837836
Si Si8 0.932556 0.838738 0.473773
O O1 0.412211 0.791954 0.209842
O O2 0.386072 0.909657 0.099441
O O3 0.582233 0.817604 0.129803
O O4 0.500000 0.000000 0.193868
O O5 0.191226 0.782661 0.198479
O O6 0.517528 0.209546 0.507827
O O7 0.710746 0.091213 0.504293
O O8 0.500000 0.000000 0.501053
O O9 0.398191 0.587626 0.534693
O O10 0.342028 0.597759 0.413910
O O11 0.221998 0.792380 0.842337
O O12 0.323062 0.629594 0.775823
O O13 0.386744 0.657549 0.898661
O O14 0.009577 0.145606 0.197565
O O15 0.166580 0.997642 0.171073
O O16 0.068482 0.866514 0.479785
#
# Coordination Sequence:
#
# PCOD8310559 Si02
#       8
#     8   4   8   8   8   8   8   8
#     4  11  23  38  66 100 137 171 221 291 354 411
#     4  12  23  40  62 103 134 176 218 298 344 411
#     4  11  26  45  68 104 139 183 233 290 354 416
#     4  11  24  43  71 101 134 185 232 295 354 416
#     4  11  22  43  68  98 136 179 233 282 351 418
#     4  10  22  39  68  95 131 181 226 286 340 417
#     4  11  23  41  65  97 138 176 234 281 350 415
#     4  11  25  44  69  99 143 189 228 277 350 432
#
# _framework density 21.447171999999998
#
# number of rings (size 3 to 8) (size 9 to 14) (size 15 to 20)
#    0.000    1.067    2.667    4.200    3.733    6.400 
#    2.400    0.000    0.000    0.000    0.000    0.000 
#    0.000    0.000    0.000    0.000    0.000    0.000 
#
# Total GULP energy -743689.508409 kJ/mol
# GULP energy per Si atom -12394.825140 kJ/mol
# Density = 2.139836 g / cm^3
# Si number density = 21.447172 Si / 1000 Ang^3
#
#
#
# Elastic Constant Matrix: (Units=GPa)
#
#
# Indices 1 2 3 4 5 6 
#
# 1 109.5308 52.8767 51.5968 0.0000 0.0000 0.0000
# 2 52.8767 109.5308 51.5968 0.0000 0.0000 0.0000
# 3 51.5968 51.5968 112.0255 0.0000 0.0000 0.0000
# 4 0.0000 0.0000 0.0000 29.6862 0.0000 0.0000
# 5 0.0000 0.0000 0.0000 0.0000 29.6862 0.0000
# 6 0.0000 0.0000 0.0000 0.0000 0.0000 32.3113
#
#
#
# Elastic Compliance Matrix: (Units=1/GPa)
#
#
# Indices 1 2 3 4 5 6 
#
# 1 0.013178 -0.004473 -0.004009 0.000000 0.000000 0.000000
# 2 -0.004473 0.013178 -0.004009 0.000000 0.000000 0.000000
# 3 -0.004009 -0.004009 0.012620 0.000000 0.000000 0.000000
# 4 0.000000 0.000000 0.000000 0.033686 0.000000 0.000000
# 5 0.000000 0.000000 0.000000 0.000000 0.033686 0.000000
# 6 0.000000 0.000000 0.000000 0.000000 0.000000 0.030949
#
#
# Mechanical properties :
#
#
# Convention : Reuss Voigt Hill
#
# Bulk Modulus (GPa) = 71.46793 71.46975 71.46884
# Shear Modulus (GPa) = 29.95030 30.00453 29.97741
#
# Velocity S-wave (km/s) = 3.74099 3.74437 3.74268
# Velocity P-wave (km/s) = 7.21492 7.21732 7.21612
#
# Compressibility (1/GPa) = 0.01399229
#
# Stress axis : x y z
#
# Youngs Moduli (GPa) = 75.88453 75.88453 79.24093
#
# Poissons Ratio (x) = 0.33944 0.31770
# Poissons Ratio (y) = 0.33944 0.31770
# Poissons Ratio (z) = 0.30424 0.30424
#
# Static dielectric constant tensor:
#      x y z
#    x 3.973210 0.000000 0.000000 
#    y 0.000000 3.973210 0.000000 
#    z 0.000000 0.000000 3.863290 
# 
# 
# High freq. dielectric constant tensor:
#      x y z
#    x 1.842450 0.000000 0.000000 
#    y 0.000000 1.842450 0.000000 
#    z 0.000000 0.000000 1.844730 
# 
# From -- ./inp_files/5773.got.cif
#   From: 2010.03.12/outbox.cif.g09.slc.cpg/sg118_3_cif.got.tgz:5773.got - 2010.04.14 02:21:17.
