data_PCOD8310489
_publ_section_title
;
Structure prediction by ZEFSAII (Michael W. Deem and Ramdas Pophale) SiO2 
 PCOD8310489
Probable space group: P -4 N 2
;
_chemical_formula_sum "Si O2"
_cell_formula_units_Z 36
_cell_length_a 9.482829
_cell_length_b 9.482829
_cell_length_c 19.292039
_cell_angle_alpha 90.000000
_cell_angle_beta 90.000000
_cell_angle_gamma 90.000000
_cell_volume 1734.818199
_symmetry_space_group_name_H-M "P -4 N 2"
_symmetry_group_IT_number 118
_symmetry_cell_setting 'tetragonal'
loop_
_space_group_symop_operation_xyz
x,y,z
y,-x,-z
-x,-y,z
-y,x,-z
1/2+y,1/2+x,1/2-z
1/2-y,1/2-x,1/2-z
1/2-x,1/2+y,1/2+z
1/2+x,1/2-y,1/2+z
loop_
_atom_site_type_symbol
_atom_site_label
_atom_site_fract_x
_atom_site_fract_y
_atom_site_fract_z
Si Si1 0.000000 0.500000 0.046856
Si Si2 0.220684 0.595283 0.933286
Si Si3 0.293452 0.005454 0.283541
Si Si4 0.417760 0.713803 0.604015
Si Si5 0.000000 0.000000 0.781119
Si Si6 0.000000 0.000000 0.500000
Si Si7 0.500000 0.500000 0.500000
O O1 0.953125 0.621433 0.100356
O O2 0.871108 0.453762 0.998388
O O3 0.183774 0.500291 0.866349
O O4 0.185908 0.754094 0.910850
O O5 0.384744 0.578036 0.952275
O O6 0.346184 0.153817 0.250000
O O7 0.131240 0.974149 0.268688
O O8 0.380262 0.880262 0.250000
O O9 0.467252 0.641546 0.675243
O O10 0.511068 0.640984 0.544782
#
# Coordination Sequence:
#
# PCOD8310489 Si02
#       7
#     4   8   8   8   4   2   2
#     4  12  24  40  69 103 134 172 216 276 344 390
#     4  12  24  42  67 100 137 171 220 280 329 401
#     4  11  24  45  70  96 129 180 230 270 322 398
#     4  11  23  40  67  97 136 167 222 273 332 395
#     4  11  25  47  68  97 131 179 224 278 324 389
#     4  12  26  40  66 100 142 172 208 274 360 380
#     4  10  20  36  62  96 124 178 204 266 328 398
#
# _framework density 20.751456000000001
#
# number of rings (size 3 to 8) (size 9 to 14) (size 15 to 20)
#    0.000    0.667    6.667    2.000    0.000    1.778 
#    4.000    0.000    0.000    0.000    0.000    0.000 
#    0.000    0.000    0.000    0.000    0.000    0.000 
#
# Total GULP energy -446421.655942 kJ/mol
# GULP energy per Si atom -12400.601554 kJ/mol
# Density = 2.070422 g / cm^3
# Si number density = 20.751456 Si / 1000 Ang^3
#
#
#
# Elastic Constant Matrix: (Units=GPa)
#
#
# Indices 1 2 3 4 5 6 
#
# 1 117.4513 27.8292 22.7924 0.0000 0.0000 0.0000
# 2 27.8292 117.4503 22.7921 0.0000 0.0000 0.0000
# 3 22.7924 22.7921 74.4015 0.0000 0.0000 0.0000
# 4 0.0000 0.0000 0.0000 27.8774 0.0000 0.0000
# 5 0.0000 0.0000 0.0000 0.0000 27.8775 0.0000
# 6 0.0000 0.0000 0.0000 0.0000 0.0000 33.3087
#
#
#
# Elastic Compliance Matrix: (Units=1/GPa)
#
#
# Indices 1 2 3 4 5 6 
#
# 1 0.009387 -0.001771 -0.002333 0.000000 0.000000 0.000000
# 2 -0.001771 0.009387 -0.002333 0.000000 0.000000 0.000000
# 3 -0.002333 -0.002333 0.014870 0.000000 0.000000 0.000000
# 4 0.000000 0.000000 0.000000 0.035871 0.000000 0.000000
# 5 0.000000 0.000000 0.000000 0.000000 0.035871 0.000000
# 6 0.000000 0.000000 0.000000 0.000000 0.000000 0.030022
#
#
# Mechanical properties :
#
#
# Convention : Reuss Voigt Hill
#
# Bulk Modulus (GPa) = 48.14882 50.68114 49.41498
# Shear Modulus (GPa) = 32.21543 33.53868 32.87705
#
# Velocity S-wave (km/s) = 3.94438 4.02457 3.98468
# Velocity P-wave (km/s) = 6.63304 6.78765 6.71079
#
# Compressibility (1/GPa) = 0.02076894
#
# Stress axis : x y z
#
# Youngs Moduli (GPa) = 106.53490 106.53408 67.24995
#
# Poissons Ratio (x) = 0.18871 0.15689
# Poissons Ratio (y) = 0.18871 0.15688
# Poissons Ratio (z) = 0.24853 0.24853
#
# Static dielectric constant tensor:
#      x y z
#    x 3.825240 0.000000 0.000000 
#    y 0.000000 3.825240 0.000000 
#    z 0.000000 0.000000 3.666100 
# 
# 
# High freq. dielectric constant tensor:
#      x y z
#    x 1.816460 0.000000 0.000000 
#    y 0.000000 1.816460 0.000000 
#    z 0.000000 0.000000 1.807350 
# 
# From -- ./inp_files/5548.got.cif
#   From: 2010.03.12/outbox.cif.g09.slc.cpg/sg118_3_cif.got.tgz:5548.got - 2010.04.14 02:21:17.
