data_PCOD8310466
_publ_section_title
;
Structure prediction by ZEFSAII (Michael W. Deem and Ramdas Pophale) SiO2 
 PCOD8310466
Probable space group: P -4 N 2
;
_chemical_formula_sum "Si O2"
_cell_formula_units_Z 40
_cell_length_a 12.338208
_cell_length_b 12.338208
_cell_length_c 13.998288
_cell_angle_alpha 90.000000
_cell_angle_beta 90.000000
_cell_angle_gamma 90.000000
_cell_volume 2130.978653
_symmetry_space_group_name_H-M "P -4 N 2"
_symmetry_group_IT_number 118
_symmetry_cell_setting 'tetragonal'
loop_
_space_group_symop_operation_xyz
x,y,z
y,-x,-z
-x,-y,z
-y,x,-z
1/2+y,1/2+x,1/2-z
1/2-y,1/2-x,1/2-z
1/2-x,1/2+y,1/2+z
1/2+x,1/2-y,1/2+z
loop_
_atom_site_type_symbol
_atom_site_label
_atom_site_fract_x
_atom_site_fract_y
_atom_site_fract_z
Si Si1 0.234086 0.479996 0.707634
Si Si2 0.000000 0.000000 0.500000
Si Si3 0.649260 0.424467 0.531374
Si Si4 0.500000 0.000000 0.250000
Si Si5 0.760384 0.260384 0.250000
Si Si6 0.179116 0.739101 0.447888
Si Si7 0.277670 0.484975 0.925005
O O1 0.312826 0.550054 0.640077
O O2 0.270991 0.355852 0.697404
O O3 0.238292 0.513398 0.819005
O O4 0.106668 0.496358 0.680886
O O5 0.902807 0.981643 0.426943
O O6 0.534042 0.362262 0.531952
O O7 0.738282 0.349630 0.484290
O O8 0.846762 0.277665 0.334744
O O9 0.065056 0.718780 0.500460
O O10 0.233907 0.859287 0.457354
#
# Coordination Sequence:
#
# PCOD8310466 Si02
#       7
#     8   2   8   2   4   8   8
#     4  10  19  35  55  86 113 149 193 245 301 354
#     4   8  16  32  52  88 114 152 196 240 300 344
#     4  11  23  38  55  84 121 155 193 240 300 361
#     4  10  20  32  60  88 108 144 194 254 300 346
#     4   9  18  35  60  76 117 149 196 236 298 361
#     4  10  19  38  56  89 114 158 196 249 297 358
#     4   9  19  34  60  84 118 149 202 247 296 355
#
# _framework density 18.770719
#
# number of rings (size 3 to 8) (size 9 to 14) (size 15 to 20)
#    0.000    2.200    2.000    1.200    0.000    1.600 
#    7.200    0.000    0.000    0.000    0.000    1.400 
#    0.000    0.000    0.000    0.000    0.000    0.000 
#
# Total GULP energy -495615.031925 kJ/mol
# GULP energy per Si atom -12390.375798 kJ/mol
# Density = 1.872800 g / cm^3
# Si number density = 18.770719 Si / 1000 Ang^3
#
#
#
# Elastic Constant Matrix: (Units=GPa)
#
#
# Indices 1 2 3 4 5 6 
#
# 1 83.3164 32.8481 48.8501 0.0000 0.0000 0.0000
# 2 32.8481 83.3164 48.8501 0.0000 0.0000 0.0000
# 3 48.8501 48.8501 125.1512 0.0000 0.0000 0.0000
# 4 0.0000 0.0000 0.0000 27.6969 0.0000 0.0000
# 5 0.0000 0.0000 0.0000 0.0000 27.6969 0.0000
# 6 0.0000 0.0000 0.0000 0.0000 0.0000 27.8649
#
#
#
# Elastic Compliance Matrix: (Units=1/GPa)
#
#
# Indices 1 2 3 4 5 6 
#
# 1 0.016315 -0.003499 -0.005002 0.000000 0.000000 0.000000
# 2 -0.003499 0.016315 -0.005002 0.000000 0.000000 0.000000
# 3 -0.005002 -0.005002 0.011895 0.000000 0.000000 0.000000
# 4 0.000000 0.000000 0.000000 0.036105 0.000000 0.000000
# 5 0.000000 0.000000 0.000000 0.000000 0.036105 0.000000
# 6 0.000000 0.000000 0.000000 0.000000 0.000000 0.035887
#
#
# Mechanical properties :
#
#
# Convention : Reuss Voigt Hill
#
# Bulk Modulus (GPa) = 57.08575 61.43116 59.25845
# Shear Modulus (GPa) = 26.95850 27.40081 27.17965
#
# Velocity S-wave (km/s) = 3.79383 3.82483 3.80936
# Velocity P-wave (km/s) = 7.04763 7.23215 7.14048
#
# Compressibility (1/GPa) = 0.01751751
#
# Stress axis : x y z
#
# Youngs Moduli (GPa) = 61.29315 61.29315 84.06586
#
# Poissons Ratio (x) = 0.21449 0.42052
# Poissons Ratio (y) = 0.21449 0.42052
# Poissons Ratio (z) = 0.30661 0.30661
#
# Static dielectric constant tensor:
#      x y z
#    x 3.591820 0.000000 0.000000 
#    y 0.000000 3.591820 0.000000 
#    z 0.000000 0.000000 3.447690 
# 
# 
# High freq. dielectric constant tensor:
#      x y z
#    x 1.724620 0.000000 0.000000 
#    y 0.000000 1.724620 0.000000 
#    z 0.000000 0.000000 1.718790 
# 
# From -- ./inp_files/3213.got.cif
#   From: 2010.03.12/outbox.cif.g09.slc.cpg/sg118_2_cif.got.tgz:3213.got - 2010.04.14 02:21:17.
