data_PCOD8310805
_publ_section_title
;
Structure prediction by ZEFSAII (Michael W. Deem and Ramdas Pophale) SiO2 
 PCOD8310805
Probable space group: I -4 M 2
;
_chemical_formula_sum "Si O2"
_cell_formula_units_Z 104
_cell_length_a 17.436006
_cell_length_b 17.436006
_cell_length_c 19.081023
_cell_angle_alpha 90.000000
_cell_angle_beta 90.000000
_cell_angle_gamma 90.000000
_cell_volume 5800.903950
_symmetry_space_group_name_H-M "I -4 M 2"
_symmetry_group_IT_number 119
_symmetry_cell_setting 'tetragonal'
loop_
_space_group_symop_operation_xyz
x,y,z
y,-x,-z
-x,-y,z
-y,x,-z
y,x,-z
-y,-x,-z
-x,y,z
x,-y,z
1/2+x,1/2+y,1/2+z
1/2+y,1/2-x,1/2-z
1/2-x,1/2-y,1/2+z
1/2-y,1/2+x,1/2-z
1/2+y,1/2+x,1/2-z
1/2-y,1/2-x,1/2-z
1/2-x,1/2+y,1/2+z
1/2+x,1/2-y,1/2+z
loop_
_atom_site_type_symbol
_atom_site_label
_atom_site_fract_x
_atom_site_fract_y
_atom_site_fract_z
Si Si1 0.701131 0.322374 0.104794
Si Si2 0.411961 0.228757 0.012321
Si Si3 0.589704 0.854967 0.401528
Si Si4 0.415467 0.413320 0.361796
Si Si5 0.213237 0.180488 0.078585
Si Si6 0.088382 0.588382 0.750000
Si Si7 0.586152 0.587688 0.196935
O O1 0.632860 0.291708 0.056511
O O2 0.752454 0.248402 0.127885
O O3 0.656681 0.362233 0.168437
O O4 0.760182 0.381365 0.067197
O O5 0.500000 0.250917 0.013834
O O6 0.401461 0.142486 0.043112
O O7 0.500000 0.876444 0.412823
O O8 0.604350 0.765443 0.415576
O O9 0.616096 0.870124 0.321037
O O10 0.500000 0.382811 0.383949
O O11 0.406818 0.500000 0.386798
O O12 0.345510 0.370729 0.399588
O O13 0.406180 0.405529 0.279494
O O14 0.214261 0.214261 0.000000
O O15 0.105671 0.500000 0.763344
O O16 0.500000 0.615826 0.174398
O O17 0.596442 0.500000 0.172009
#
# Coordination Sequence:
#
# PCOD8310805 Si02
#       7
#    16  16  16  16  16   8  16
#     4  10  19  34  49  75 105 138 173 210 257 305
#     4  10  19  32  49  71 102 138 175 212 252 300
#     4  10  20  34  52  74 103 138 175 214 257 311
#     4   9  20  37  56  79 103 131 173 221 268 316
#     4  11  21  37  50  74 105 139 175 217 262 311
#     4   9  18  32  50  76 108 138 172 210 251 306
#     4   9  18  34  56  81 107 136 173 217 262 310
#
# _framework density 17.928241
#
# number of rings (size 3 to 8) (size 9 to 14) (size 15 to 20)
#    0.000    2.231    3.077    2.769    0.000    5.231 
#    0.000    3.846    0.000    3.692    0.000    0.000 
#    0.000    0.000    0.000    3.385    0.000    0.000 
#
# Total GULP energy -644331.995655 kJ/mol
# GULP energy per Si atom -12390.999916 kJ/mol
# Density = 1.788744 g / cm^3
# Si number density = 17.928241 Si / 1000 Ang^3
#
#
#
# Elastic Constant Matrix: (Units=GPa)
#
#
# Indices 1 2 3 4 5 6 
#
# 1 94.6622 52.0099 31.1390 0.0000 0.0000 0.0000
# 2 52.0099 94.6622 31.1390 0.0000 0.0000 0.0000
# 3 31.1390 31.1390 40.7466 0.0000 0.0000 0.0000
# 4 0.0000 0.0000 0.0000 27.0688 0.0000 0.0000
# 5 0.0000 0.0000 0.0000 0.0000 27.0688 0.0000
# 6 0.0000 0.0000 0.0000 0.0000 0.0000 37.3598
#
#
#
# Elastic Compliance Matrix: (Units=1/GPa)
#
#
# Indices 1 2 3 4 5 6 
#
# 1 0.016769 -0.006676 -0.007713 0.000000 0.000000 0.000000
# 2 -0.006676 0.016769 -0.007713 0.000000 0.000000 0.000000
# 3 -0.007713 -0.007713 0.036331 0.000000 0.000000 0.000000
# 4 0.000000 0.000000 0.000000 0.036943 0.000000 0.000000
# 5 0.000000 0.000000 0.000000 0.000000 0.036943 0.000000
# 6 0.000000 0.000000 0.000000 0.000000 0.000000 0.026767
#
#
# Mechanical properties :
#
#
# Convention : Reuss Voigt Hill
#
# Bulk Modulus (GPa) = 38.96483 50.96077 44.96280
# Shear Modulus (GPa) = 22.39325 26.01836 24.20580
#
# Velocity S-wave (km/s) = 3.53802 3.81366 3.67842
# Velocity P-wave (km/s) = 6.20251 6.91943 6.57076
#
# Compressibility (1/GPa) = 0.02566417
#
# Stress axis : x y z
#
# Youngs Moduli (GPa) = 59.63319 59.63318 27.52478
#
# Poissons Ratio (x) = 0.39812 0.21230
# Poissons Ratio (y) = 0.39812 0.21230
# Poissons Ratio (z) = 0.45996 0.45996
#
# Static dielectric constant tensor:
#      x y z
#    x 3.360660 0.000000 0.000000 
#    y 0.000000 3.360660 0.000000 
#    z 0.000000 0.000000 3.130940 
# 
# 
# High freq. dielectric constant tensor:
#      x y z
#    x 1.694870 0.000000 0.000000 
#    y 0.000000 1.694870 0.000000 
#    z 0.000000 0.000000 1.671630 
# 
# From -- ./inp_files/6710.got.cif
#   From: 2010.03.12/outbox.cif.g09.slc.cpg/sg119_4_cif.got.tgz:6710.got - 2010.04.14 02:25:26.
