data_PCOD8310176
_publ_section_title
;
Structure prediction by ZEFSAII (Michael W. Deem and Ramdas Pophale) SiO2 
 PCOD8310176
Probable space group: P -4 C 2
;
_chemical_formula_sum "Si O2"
_cell_formula_units_Z 34
_cell_length_a 10.544342
_cell_length_b 10.544342
_cell_length_c 13.888189
_cell_angle_alpha 90.000000
_cell_angle_beta 90.000000
_cell_angle_gamma 90.000000
_cell_volume 1544.132576
_symmetry_space_group_name_H-M "P -4 C 2"
_symmetry_group_IT_number 116
_symmetry_cell_setting 'tetragonal'
loop_
_space_group_symop_operation_xyz
x,y,z
y,-x,-z
-x,-y,z
-y,x,-z
y,x,1/2-z
-y,-x,1/2-z
-x,y,1/2+z
x,-y,1/2+z
loop_
_atom_site_type_symbol
_atom_site_label
_atom_site_fract_x
_atom_site_fract_y
_atom_site_fract_z
Si Si1 0.643983 0.114103 0.962665
Si Si2 0.305431 0.305431 0.750000
Si Si3 0.000000 0.000000 0.500000
Si Si4 0.222607 0.856207 0.430265
Si Si5 0.580636 0.208808 0.761769
Si Si6 0.500000 0.000000 0.628085
O O1 0.564464 0.167142 0.873292
O O2 0.675821 0.966367 0.944322
O O3 0.761570 0.211199 0.977425
O O4 0.567503 0.107432 0.062924
O O5 0.223897 0.254977 0.662258
O O6 0.454605 0.285207 0.732607
O O7 0.082429 0.917241 0.425110
O O8 0.704601 0.295400 0.750000
O O9 0.594970 0.081439 0.696678
#
# Coordination Sequence:
#
# PCOD8310176 Si02
#       6
#     8   4   2   8   8   4
#     4  11  23  43  71  99 140 179 237 289 353 412
#     4  12  23  45  66  98 144 186 231 290 341 428
#     4   8  20  38  64 108 140 178 232 292 362 432
#     4  10  21  41  67 101 138 180 229 297 355 412
#     4  12  27  45  70 104 139 187 238 288 353 428
#     4  12  22  44  70 100 136 190 232 290 348 414
#
# _framework density 22.018834999999999
#
# number of rings (size 3 to 8) (size 9 to 14) (size 15 to 20)
#    0.000    0.941    2.353    5.294    0.000    0.471 
#    0.000    0.000    5.176    0.000    0.000    0.000 
#    0.000    0.000    0.000    0.000    0.000    0.000 
#
# Total GULP energy -421360.842507 kJ/mol
# GULP energy per Si atom -12392.965956 kJ/mol
# Density = 2.196872 g / cm^3
# Si number density = 22.018835 Si / 1000 Ang^3
#
#
#
# Elastic Constant Matrix: (Units=GPa)
#
#
# Indices 1 2 3 4 5 6 
#
# 1 66.9260 46.0522 35.1817 0.0000 0.0000 0.0000
# 2 46.0522 66.9262 35.1818 0.0000 0.0000 0.0000
# 3 35.1817 35.1818 112.0753 0.0000 0.0000 0.0000
# 4 0.0000 0.0000 0.0000 38.0981 0.0000 0.0000
# 5 0.0000 0.0000 0.0000 0.0000 38.0981 0.0000
# 6 0.0000 0.0000 0.0000 0.0000 0.0000 41.6297
#
#
#
# Elastic Compliance Matrix: (Units=1/GPa)
#
#
# Indices 1 2 3 4 5 6 
#
# 1 0.029455 -0.018452 -0.003454 0.000000 0.000000 0.000000
# 2 -0.018452 0.029454 -0.003454 0.000000 0.000000 0.000000
# 3 -0.003454 -0.003454 0.011091 0.000000 0.000000 0.000000
# 4 0.000000 0.000000 0.000000 0.026248 0.000000 0.000000
# 5 0.000000 0.000000 0.000000 0.000000 0.026248 0.000000
# 6 0.000000 0.000000 0.000000 0.000000 0.000000 0.024021
#
#
# Mechanical properties :
#
#
# Convention : Reuss Voigt Hill
#
# Bulk Modulus (GPa) = 51.86591 53.19542 52.53066
# Shear Modulus (GPa) = 24.55029 32.19930 28.37480
#
# Velocity S-wave (km/s) = 3.34274 3.82822 3.59369
# Velocity P-wave (km/s) = 6.20523 6.61452 6.41314
#
# Compressibility (1/GPa) = 0.01928049
#
# Stress axis : x y z
#
# Youngs Moduli (GPa) = 33.95061 33.95070 90.16391
#
# Poissons Ratio (x) = 0.62647 0.31140
# Poissons Ratio (y) = 0.62646 0.31140
# Poissons Ratio (z) = 0.11726 0.11726
#
# Static dielectric constant tensor:
#      x y z
#    x 4.130300 0.000000 0.000000 
#    y 0.000000 4.130300 0.000000 
#    z 0.000000 0.000000 4.274140 
# 
# 
# High freq. dielectric constant tensor:
#      x y z
#    x 1.868810 0.000000 0.000000 
#    y 0.000000 1.868810 0.000000 
#    z 0.000000 0.000000 1.866400 
# 
# From -- ./inp_files/1648.got.cif
#   From: 2010.03.12/outbox.cif.g09.slc.cpg/sg116_1_cif.got.tgz:1648.got - 2010.04.14 02:15:44.
