data_PCOD8310810
_publ_section_title
;
Structure prediction by ZEFSAII (Michael W. Deem and Ramdas Pophale) SiO2 
 PCOD8310810
Probable space group: I -4 M 2
;
_chemical_formula_sum "Si O2"
_cell_formula_units_Z 104
_cell_length_a 17.339946
_cell_length_b 17.339946
_cell_length_c 19.705741
_cell_angle_alpha 90.000000
_cell_angle_beta 90.000000
_cell_angle_gamma 90.000000
_cell_volume 5924.998595
_symmetry_space_group_name_H-M "I -4 M 2"
_symmetry_group_IT_number 119
_symmetry_cell_setting 'tetragonal'
loop_
_space_group_symop_operation_xyz
x,y,z
y,-x,-z
-x,-y,z
-y,x,-z
y,x,-z
-y,-x,-z
-x,y,z
x,-y,z
1/2+x,1/2+y,1/2+z
1/2+y,1/2-x,1/2-z
1/2-x,1/2-y,1/2+z
1/2-y,1/2+x,1/2-z
1/2+y,1/2+x,1/2-z
1/2-y,1/2-x,1/2-z
1/2-x,1/2+y,1/2+z
1/2+x,1/2-y,1/2+z
loop_
_atom_site_type_symbol
_atom_site_label
_atom_site_fract_x
_atom_site_fract_y
_atom_site_fract_z
Si Si1 0.355099 0.412365 0.668796
Si Si2 0.089260 0.589260 0.750000
Si Si3 0.687374 0.814756 0.987359
Si Si4 0.316903 0.409521 0.055732
Si Si5 0.587832 0.589477 0.186105
Si Si6 0.183322 0.086881 0.945591
Si Si7 0.410570 0.818030 0.380032
O O1 0.383042 0.500000 0.658360
O O2 0.359087 0.391529 0.748184
O O3 0.412155 0.356615 0.627669
O O4 0.270526 0.399434 0.639255
O O5 0.107132 0.500000 0.761526
O O6 0.132243 0.619662 0.683266
O O7 0.615222 0.773657 0.949779
O O8 0.730262 0.878023 0.940370
O O9 0.745980 0.745980 0.000000
O O10 0.660340 0.856482 0.056602
O O11 0.322925 0.500000 0.044329
O O12 0.351670 0.385645 0.128571
O O13 0.369122 0.369122 0.000000
O O14 0.500000 0.605865 0.161678
O O15 0.597257 0.500000 0.205589
O O16 0.190215 0.000000 0.972441
O O17 0.133793 0.133793 0.000000
O O18 0.500000 0.836906 0.396877
#
# Coordination Sequence:
#
# PCOD8310810 Si02
#       7
#    16   8  16  16  16  16  16
#     4  10  19  32  51  79 109 140 173 211 266 324
#     4   9  20  36  54  76 100 136 184 222 261 324
#     4  10  20  34  50  73 107 142 176 219 261 311
#     4  10  21  36  56  78 102 136 181 224 271 324
#     4   9  18  33  52  77 110 139 169 217 270 321
#     4  11  20  32  51  76 107 143 181 217 259 314
#     4  10  19  34  53  74 108 145 177 219 267 312
#
# _framework density 17.552747
#
# number of rings (size 3 to 8) (size 9 to 14) (size 15 to 20)
#    0.000    2.077    3.077    1.846    0.000    5.538 
#    0.000    1.538    0.000    1.385    0.000    0.000 
#    0.000    0.000    0.000    7.692    0.000    0.000 
#
# Total GULP energy -644694.596309 kJ/mol
# GULP energy per Si atom -12397.973006 kJ/mol
# Density = 1.751280 g / cm^3
# Si number density = 17.552747 Si / 1000 Ang^3
#
#
#
# Elastic Constant Matrix: (Units=GPa)
#
#
# Indices 1 2 3 4 5 6 
#
# 1 64.4708 44.3481 47.9335 0.0000 0.0000 0.0000
# 2 44.3481 64.4708 47.9335 0.0000 0.0000 0.0000
# 3 47.9335 47.9335 119.0248 0.0000 0.0000 0.0000
# 4 0.0000 0.0000 0.0000 34.1670 0.0000 0.0000
# 5 0.0000 0.0000 0.0000 0.0000 34.1670 0.0000
# 6 0.0000 0.0000 0.0000 0.0000 0.0000 26.7655
#
#
#
# Elastic Compliance Matrix: (Units=1/GPa)
#
#
# Indices 1 2 3 4 5 6 
#
# 1 0.031969 -0.017726 -0.005736 0.000000 0.000000 0.000000
# 2 -0.017726 0.031969 -0.005736 0.000000 0.000000 0.000000
# 3 -0.005736 -0.005736 0.013021 0.000000 0.000000 0.000000
# 4 0.000000 0.000000 0.000000 0.029268 0.000000 0.000000
# 5 0.000000 0.000000 0.000000 0.000000 0.029268 0.000000
# 6 0.000000 0.000000 0.000000 0.000000 0.000000 0.037362
#
#
# Mechanical properties :
#
#
# Convention : Reuss Voigt Hill
#
# Bulk Modulus (GPa) = 53.86877 58.71072 56.28974
# Shear Modulus (GPa) = 21.05792 26.20331 23.63061
#
# Velocity S-wave (km/s) = 3.46742 3.86791 3.67313
# Velocity P-wave (km/s) = 6.84010 7.31221 7.08009
#
# Compressibility (1/GPa) = 0.01856363
#
# Stress axis : x y z
#
# Youngs Moduli (GPa) = 31.28040 31.28040 76.79642
#
# Poissons Ratio (x) = 0.55448 0.44049
# Poissons Ratio (y) = 0.55448 0.44049
# Poissons Ratio (z) = 0.17942 0.17942
#
# Static dielectric constant tensor:
#      x y z
#    x 3.458350 0.000000 0.000000 
#    y 0.000000 3.458350 0.000000 
#    z 0.000000 0.000000 3.348870 
# 
# 
# High freq. dielectric constant tensor:
#      x y z
#    x 1.669460 0.000000 0.000000 
#    y 0.000000 1.669460 0.000000 
#    z 0.000000 0.000000 1.674630 
# 
# From -- ./inp_files/6737.got.cif
#   From: 2010.03.12/outbox.cif.g09.slc.cpg/sg119_4_cif.got.tgz:6737.got - 2010.04.14 02:25:26.
