data_PCOD8310441
_publ_section_title
;
Structure prediction by ZEFSAII (Michael W. Deem and Ramdas Pophale) SiO2 
 PCOD8310441
Probable space group: P -4 N 2
;
_chemical_formula_sum "Si O2"
_cell_formula_units_Z 64
_cell_length_a 19.674508
_cell_length_b 19.674508
_cell_length_c 9.626659
_cell_angle_alpha 90.000000
_cell_angle_beta 90.000000
_cell_angle_gamma 90.000000
_cell_volume 3726.347477
_symmetry_space_group_name_H-M "P -4 N 2"
_symmetry_group_IT_number 118
_symmetry_cell_setting 'tetragonal'
loop_
_space_group_symop_operation_xyz
x,y,z
y,-x,-z
-x,-y,z
-y,x,-z
1/2+y,1/2+x,1/2-z
1/2-y,1/2-x,1/2-z
1/2-x,1/2+y,1/2+z
1/2+x,1/2-y,1/2+z
loop_
_atom_site_type_symbol
_atom_site_label
_atom_site_fract_x
_atom_site_fract_y
_atom_site_fract_z
Si Si1 0.673240 0.186075 0.595375
Si Si2 0.175509 0.824491 0.500000
Si Si3 0.663943 0.336057 0.500000
Si Si4 0.421852 0.842479 0.352458
Si Si5 0.193825 0.920747 0.250036
Si Si6 0.078149 0.657521 0.852458
Si Si7 0.173240 0.686075 0.095375
Si Si8 0.420747 0.306176 0.249964
O O1 0.658959 0.158959 0.750000
O O2 0.749507 0.165329 0.558666
O O3 0.662223 0.266951 0.589283
O O4 0.621153 0.149012 0.492674
O O5 0.163269 0.879917 0.379865
O O6 0.165330 0.749507 0.441334
O O7 0.120083 0.836731 0.620134
O O8 0.601892 0.343275 0.392234
O O9 0.733049 0.337777 0.410717
O O10 0.656725 0.398108 0.607767
O O11 0.404493 0.904493 0.250000
O O12 0.402838 0.773374 0.270550
O O13 0.500000 0.844456 0.395498
O O14 0.181045 0.000000 0.275561
O O15 0.095508 0.595508 0.750000
O O16 0.097162 0.726626 0.770551
O O17 0.121153 0.649012 0.992674
O O18 0.158959 0.658959 0.250000
#
# Coordination Sequence:
#
# PCOD8310441 Si02
#       8
#     8   8   8   8   8   8   8   8
#     4  10  18  30  54  83 105 139 186 225 269 318
#     4  11  18  32  56  81 108 142 180 229 276 316
#     4   9  18  30  52  79 106 142 176 221 274 324
#     4  10  20  35  53  80 115 148 181 219 264 321
#     4  10  20  34  54  83 111 137 181 230 272 322
#     4  10  20  35  53  80 115 148 181 219 264 321
#     4  10  18  30  54  83 105 139 186 225 269 318
#     4  10  20  34  54  83 111 137 181 230 272 322
#
# _framework density 17.174994000000002
#
# number of rings (size 3 to 8) (size 9 to 14) (size 15 to 20)
#    0.000    2.000    5.000    0.000    0.000    0.250 
#    0.000    3.750    0.000    2.250    0.000    0.000 
#    0.000    0.000    0.000    0.000    0.000    0.000 
#
# Total GULP energy -793688.269419 kJ/mol
# GULP energy per Si atom -12401.379210 kJ/mol
# Density = 1.713590 g / cm^3
# Si number density = 17.174994 Si / 1000 Ang^3
#
#
#
# Elastic Constant Matrix: (Units=GPa)
#
#
# Indices 1 2 3 4 5 6 
#
# 1 82.5396 27.9758 60.2100 0.0000 0.0000 0.0000
# 2 27.9758 82.5396 60.2100 0.0000 0.0000 0.0000
# 3 60.2100 60.2100 151.1652 0.0000 0.0000 0.0000
# 4 0.0000 0.0000 0.0000 27.2157 0.0000 0.0000
# 5 0.0000 0.0000 0.0000 0.0000 27.2157 0.0000
# 6 0.0000 0.0000 0.0000 0.0000 0.0000 15.3243
#
#
#
# Elastic Compliance Matrix: (Units=1/GPa)
#
#
# Indices 1 2 3 4 5 6 
#
# 1 0.017157 -0.001170 -0.006368 0.000000 0.000000 0.000000
# 2 -0.001170 0.017157 -0.006368 0.000000 0.000000 0.000000
# 3 -0.006368 -0.006368 0.011688 0.000000 0.000000 0.000000
# 4 0.000000 0.000000 0.000000 0.036743 0.000000 0.000000
# 5 0.000000 0.000000 0.000000 0.000000 0.036743 0.000000
# 6 0.000000 0.000000 0.000000 0.000000 0.000000 0.065256
#
#
# Mechanical properties :
#
#
# Convention : Reuss Voigt Hill
#
# Bulk Modulus (GPa) = 54.97255 68.11512 61.54384
# Shear Modulus (GPa) = 22.87083 25.14106 24.00595
#
# Velocity S-wave (km/s) = 3.65312 3.83014 3.74267
# Velocity P-wave (km/s) = 7.06190 7.70101 7.38837
#
# Compressibility (1/GPa) = 0.01819090
#
# Stress axis : x y z
#
# Youngs Moduli (GPa) = 58.28519 58.28519 85.55909
#
# Poissons Ratio (x) = 0.06820 0.54481
# Poissons Ratio (y) = 0.06820 0.54481
# Poissons Ratio (z) = 0.37114 0.37114
#
# Static dielectric constant tensor:
#      x y z
#    x 2.974340 0.000000 0.000000 
#    y 0.000000 2.974340 0.000000 
#    z 0.000000 0.000000 3.230490 
# 
# 
# High freq. dielectric constant tensor:
#      x y z
#    x 1.638680 0.000000 0.000000 
#    y 0.000000 1.638680 0.000000 
#    z 0.000000 0.000000 1.673140 
# 
# From -- ./inp_files/2347.got.cif
#   From: 2010.03.12/outbox.cif.g09.slc.cpg/sg118_2_cif.got.tgz:2347.got - 2010.04.14 02:21:17.
