data_PCOD8310275
_publ_section_title
;
Structure prediction by ZEFSAII (Michael W. Deem and Ramdas Pophale) SiO2 
 PCOD8310275
Probable space group: P -4 C 2
;
_chemical_formula_sum "Si O2"
_cell_formula_units_Z 36
_cell_length_a 11.634158
_cell_length_b 11.634158
_cell_length_c 12.053822
_cell_angle_alpha 90.000000
_cell_angle_beta 90.000000
_cell_angle_gamma 90.000000
_cell_volume 1631.528592
_symmetry_space_group_name_H-M "P -4 C 2"
_symmetry_group_IT_number 116
_symmetry_cell_setting 'tetragonal'
loop_
_space_group_symop_operation_xyz
x,y,z
y,-x,-z
-x,-y,z
-y,x,-z
y,x,1/2-z
-y,-x,1/2-z
-x,y,1/2+z
x,-y,1/2+z
loop_
_atom_site_type_symbol
_atom_site_label
_atom_site_fract_x
_atom_site_fract_y
_atom_site_fract_z
Si Si1 0.343152 0.205797 0.009265
Si Si2 0.067736 0.802561 0.154329
Si Si3 0.077094 0.612285 0.778002
Si Si4 0.277859 0.442910 0.120529
Si Si5 0.500000 0.500000 0.250000
Si Si6 0.000000 0.000000 0.000000
O O1 0.339667 0.103304 0.099441
O O2 0.302021 0.325909 0.057169
O O3 0.259268 0.171520 0.909486
O O4 0.473101 0.216139 0.965856
O O5 0.121142 0.878859 0.250000
O O6 0.994888 0.884980 0.073798
O O7 0.981488 0.709397 0.204012
O O8 0.198837 0.580087 0.726078
O O9 0.000000 0.500000 0.785857
O O10 0.391457 0.502510 0.168529
#
# Coordination Sequence:
#
# PCOD8310275 Si02
#       6
#     8   8   8   8   2   2
#     4  12  27  45  77 108 151 199 253 309 389 449
#     4  12  28  48  80 111 151 198 258 312 379 452
#     4  12  27  49  73 110 153 197 252 318 378 456
#     4  12  26  46  74 110 152 198 250 314 380 462
#     4  12  24  50  72 112 152 194 244 314 372 456
#     4  12  26  52  80 110 152 200 258 312 376 442
#
# _framework density 22.065197999999999
#
# number of rings (size 3 to 8) (size 9 to 14) (size 15 to 20)
#    0.000    0.000    4.444    4.333    7.778    1.778 
#    0.000    0.000    0.000    0.000    0.000    0.000 
#    0.000    0.000    0.000    0.000    0.000    0.000 
#
# Total GULP energy -446754.959425 kJ/mol
# GULP energy per Si atom -12409.859984 kJ/mol
# Density = 2.201498 g / cm^3
# Si number density = 22.065198 Si / 1000 Ang^3
#
#
#
# Elastic Constant Matrix: (Units=GPa)
#
#
# Indices 1 2 3 4 5 6 
#
# 1 95.1782 45.7332 40.5594 0.0000 0.0000 0.0000
# 2 45.7332 95.1769 40.5581 0.0000 0.0000 0.0000
# 3 40.5594 40.5581 113.7130 0.0000 0.0000 0.0000
# 4 0.0000 0.0000 0.0000 31.7228 0.0000 0.0000
# 5 0.0000 0.0000 0.0000 0.0000 31.7264 0.0000
# 6 0.0000 0.0000 0.0000 0.0000 0.0000 27.4713
#
#
#
# Elastic Compliance Matrix: (Units=1/GPa)
#
#
# Indices 1 2 3 4 5 6 
#
# 1 0.014578 -0.005647 -0.003185 0.000000 0.000000 0.000000
# 2 -0.005647 0.014578 -0.003185 0.000000 0.000000 0.000000
# 3 -0.003185 -0.003185 0.011066 0.000000 0.000000 0.000000
# 4 0.000000 0.000000 0.000000 0.031523 0.000000 0.000000
# 5 0.000000 0.000000 0.000000 0.000000 0.031519 0.000000
# 6 0.000000 0.000000 0.000000 0.000000 0.000000 0.036402
#
#
# Mechanical properties :
#
#
# Convention : Reuss Voigt Hill
#
# Bulk Modulus (GPa) = 61.78191 61.97439 61.87815
# Shear Modulus (GPa) = 29.56897 29.99860 29.78379
#
# Velocity S-wave (km/s) = 3.66467 3.69120 3.67796
# Velocity P-wave (km/s) = 6.77989 6.80548 6.79270
#
# Compressibility (1/GPa) = 0.01618597
#
# Stress axis : x y z
#
# Youngs Moduli (GPa) = 68.59885 68.59855 90.36470
#
# Poissons Ratio (x) = 0.38739 0.28784
# Poissons Ratio (y) = 0.38739 0.28782
# Poissons Ratio (z) = 0.21851 0.21850
#
# Static dielectric constant tensor:
#      x y z
#    x 3.798510 0.000000 0.000000 
#    y 0.000000 3.798530 0.000000 
#    z 0.000000 0.000000 4.271740 
# 
# 
# High freq. dielectric constant tensor:
#      x y z
#    x 1.880700 0.000000 0.000000 
#    y 0.000000 1.880700 0.000000 
#    z 0.000000 0.000000 1.888240 
# 
# From -- ./inp_files/1764.got.cif
#   From: 2010.03.12/outbox.cif.g09.slc.cpg/sg116_1_cif.got.tgz:1764.got - 2010.04.14 02:15:44.
