data_PCOD8310732
_publ_section_title
;
Structure prediction by ZEFSAII (Michael W. Deem and Ramdas Pophale) SiO2 
 PCOD8310732
Probable space group: I -4 M 2
;
_chemical_formula_sum "Si O2"
_cell_formula_units_Z 112
_cell_length_a 17.750607
_cell_length_b 17.750607
_cell_length_c 20.045173
_cell_angle_alpha 90.000000
_cell_angle_beta 90.000000
_cell_angle_gamma 90.000000
_cell_volume 6315.914269
_symmetry_space_group_name_H-M "I -4 M 2"
_symmetry_group_IT_number 119
_symmetry_cell_setting 'tetragonal'
loop_
_space_group_symop_operation_xyz
x,y,z
y,-x,-z
-x,-y,z
-y,x,-z
y,x,-z
-y,-x,-z
-x,y,z
x,-y,z
1/2+x,1/2+y,1/2+z
1/2+y,1/2-x,1/2-z
1/2-x,1/2-y,1/2+z
1/2-y,1/2+x,1/2-z
1/2+y,1/2+x,1/2-z
1/2-y,1/2-x,1/2-z
1/2-x,1/2+y,1/2+z
1/2+x,1/2-y,1/2+z
loop_
_atom_site_type_symbol
_atom_site_label
_atom_site_fract_x
_atom_site_fract_y
_atom_site_fract_z
Si Si1 0.083368 0.587105 0.932135
Si Si2 0.083546 0.916637 0.079434
Si Si3 0.413768 0.177651 0.806008
Si Si4 0.588665 0.142734 0.574592
Si Si5 0.283701 0.714953 0.184874
Si Si6 0.215626 0.815997 0.923780
Si Si7 0.681288 0.088335 0.303971
O O1 0.077036 0.500000 0.947927
O O2 0.141711 0.603574 0.874113
O O3 0.000000 0.618255 0.912820
O O4 0.113557 0.625493 0.999169
O O5 0.150097 0.862492 0.104990
O O6 0.000000 0.891935 0.104312
O O7 0.102083 0.000000 0.106484
O O8 0.084196 0.915805 0.000000
O O9 0.500000 0.192527 0.784378
O O10 0.370976 0.129025 0.750000
O O11 0.413237 0.130639 0.874617
O O12 0.373289 0.259563 0.818908
O O13 0.500000 0.134025 0.585182
O O14 0.614764 0.227574 0.587656
O O15 0.243622 0.743622 0.250000
O O16 0.254968 0.760038 0.120001
O O17 0.372778 0.735317 0.191974
O O18 0.210438 0.789563 0.000000
O O19 0.627770 0.127770 0.250000
O O20 0.690618 0.000000 0.287775
#
# Coordination Sequence:
#
# PCOD8310732 Si02
#       7
#    16  16  16  16  16  16  16
#     4   9  17  28  43  68 101 129 154 192 241 286
#     4   8  14  25  41  63  93 127 161 195 227 262
#     4  10  20  34  53  74  97 127 161 193 229 280
#     4  10  19  29  44  69  99 127 156 196 244 286
#     4   9  20  36  49  69  97 124 153 192 240 281
#     4  10  18  29  46  66  91 125 166 202 233 280
#     4  10  19  33  53  73  95 126 163 198 235 285
#
# _framework density 17.732982
#
# number of rings (size 3 to 8) (size 9 to 14) (size 15 to 20)
#    0.000    2.571    0.000    3.000    0.000    2.857 
#    0.000    4.286    0.000    0.429    0.000    0.000 
#    0.000    0.000    0.000    6.857    0.000    0.000 
#
# Total GULP energy -693912.037340 kJ/mol
# GULP energy per Si atom -12391.286381 kJ/mol
# Density = 1.769262 g / cm^3
# Si number density = 17.732982 Si / 1000 Ang^3
#
#
#
# Elastic Constant Matrix: (Units=GPa)
#
#
# Indices 1 2 3 4 5 6 
#
# 1 90.3711 62.2752 28.0159 0.0000 0.0000 0.0000
# 2 62.2752 90.3715 28.0161 0.0000 0.0000 0.0000
# 3 28.0159 28.0161 47.6500 0.0000 0.0000 0.0000
# 4 0.0000 0.0000 0.0000 16.5167 0.0000 0.0000
# 5 0.0000 0.0000 0.0000 0.0000 16.5169 0.0000
# 6 0.0000 0.0000 0.0000 0.0000 0.0000 21.1345
#
#
#
# Elastic Compliance Matrix: (Units=1/GPa)
#
#
# Indices 1 2 3 4 5 6 
#
# 1 0.021973 -0.013619 -0.004912 0.000000 0.000000 0.000000
# 2 -0.013619 0.021973 -0.004912 0.000000 0.000000 0.000000
# 3 -0.004912 -0.004912 0.026762 0.000000 0.000000 0.000000
# 4 0.000000 0.000000 0.000000 0.060545 0.000000 0.000000
# 5 0.000000 0.000000 0.000000 0.000000 0.060544 0.000000
# 6 0.000000 0.000000 0.000000 0.000000 0.000000 0.047316
#
#
# Mechanical properties :
#
#
# Convention : Reuss Voigt Hill
#
# Bulk Modulus (GPa) = 41.97605 51.66744 46.82174
# Shear Modulus (GPa) = 17.01030 18.17264 17.59147
#
# Velocity S-wave (km/s) = 3.10053 3.20471 3.15305
# Velocity P-wave (km/s) = 6.04486 6.54929 6.30212
#
# Compressibility (1/GPa) = 0.02382311
#
# Stress axis : x y z
#
# Youngs Moduli (GPa) = 45.51015 45.51020 37.36612
#
# Poissons Ratio (x) = 0.61981 0.18353
# Poissons Ratio (y) = 0.61980 0.18354
# Poissons Ratio (z) = 0.22353 0.22354
#
# Static dielectric constant tensor:
#      x y z
#    x 3.398490 0.000000 0.000000 
#    y 0.000000 3.398490 0.000000 
#    z 0.000000 0.000000 3.319200 
# 
# 
# High freq. dielectric constant tensor:
#      x y z
#    x 1.674560 0.000000 0.000000 
#    y 0.000000 1.674560 0.000000 
#    z 0.000000 0.000000 1.681490 
# 
# From -- ./inp_files/8024.got.cif
#   From: 2010.03.12/outbox.cif.g09.slc.cpg/sg119_5_cif.got.tgz:8024.got - 2010.04.14 02:25:26.
