data_PCOD8310115
_publ_section_title
;
Structure prediction by ZEFSAII (Michael W. Deem and Ramdas Pophale) SiO2 
 PCOD8310115
Probable space group: P -4 C 2
;
_chemical_formula_sum "Si O2"
_cell_formula_units_Z 64
_cell_length_a 10.977496
_cell_length_b 10.977496
_cell_length_c 24.595782
_cell_angle_alpha 90.000000
_cell_angle_beta 90.000000
_cell_angle_gamma 90.000000
_cell_volume 2963.925002
_symmetry_space_group_name_H-M "P -4 C 2"
_symmetry_group_IT_number 116
_symmetry_cell_setting 'tetragonal'
loop_
_space_group_symop_operation_xyz
x,y,z
y,-x,-z
-x,-y,z
-y,x,-z
y,x,1/2-z
-y,-x,1/2-z
-x,y,1/2+z
x,-y,1/2+z
loop_
_atom_site_type_symbol
_atom_site_label
_atom_site_fract_x
_atom_site_fract_y
_atom_site_fract_z
Si Si1 0.691865 0.440797 0.002495
Si Si2 0.889010 0.085107 0.692623
Si Si3 0.144253 0.497902 0.809480
Si Si4 0.348402 0.838923 0.590813
Si Si5 0.084565 0.719974 0.374683
Si Si6 0.507858 0.142332 0.311507
Si Si7 0.847901 0.317273 0.095924
Si Si8 0.114882 0.291990 0.113679
O O1 0.765906 0.395228 0.054810
O O2 0.578313 0.353072 0.988293
O O3 0.784979 0.444523 0.951835
O O4 0.851962 0.148039 0.750000
O O5 0.936861 0.190855 0.654169
O O6 0.779370 0.006094 0.669223
O O7 0.000000 0.000000 0.703912
O O8 0.192388 0.609906 0.846842
O O9 0.172912 0.375098 0.843651
O O10 0.204905 0.498497 0.748843
O O11 0.000000 0.500000 0.804555
O O12 0.219128 0.772670 0.577414
O O13 0.340177 0.986746 0.582958
O O14 0.174105 0.812357 0.406209
O O15 0.632960 0.175567 0.342721
O O16 0.399327 0.180195 0.352277
O O17 0.500000 0.000000 0.301296
O O18 0.992812 0.333457 0.080664
#
# Coordination Sequence:
#
# PCOD8310115 Si02
#       8
#     8   8   8   8   8   8   8   8
#     4  11  25  46  70  89 113 157 212 267 316 373
#     4  10  20  30  53  87 128 169 203 241 303 385
#     4   9  19  35  55  84 124 163 204 249 296 368
#     4  10  22  39  61  90 121 159 209 252 318 375
#     4  10  21  36  58  88 124 162 202 257 310 376
#     4   9  20  33  53  85 121 165 203 243 301 363
#     4  11  22  39  61  89 126 158 206 261 318 374
#     4  10  21  36  57  88 126 162 203 255 309 378
#
# _framework density 21.59299
#
# number of rings (size 3 to 8) (size 9 to 14) (size 15 to 20)
#    0.000    2.000    1.250    1.500    8.750    1.500 
#    0.000    6.875    0.000    1.500    0.000    1.750 
#    0.000    0.000    0.000    0.000    0.000    0.000 
#
# Total GULP energy -792932.185542 kJ/mol
# GULP energy per Si atom -12389.565399 kJ/mol
# Density = 2.154384 g / cm^3
# Si number density = 21.592990 Si / 1000 Ang^3
#
#
#
# Elastic Constant Matrix: (Units=GPa)
#
#
# Indices 1 2 3 4 5 6 
#
# 1 88.2137 26.3333 30.2595 0.0000 0.0000 0.0000
# 2 26.3333 88.2136 30.2596 0.0000 0.0000 0.0000
# 3 30.2595 30.2596 96.0832 0.0000 0.0000 0.0000
# 4 0.0000 0.0000 0.0000 24.4533 0.0000 0.0000
# 5 0.0000 0.0000 0.0000 0.0000 24.4533 0.0000
# 6 0.0000 0.0000 0.0000 0.0000 0.0000 27.0642
#
#
#
# Elastic Compliance Matrix: (Units=1/GPa)
#
#
# Indices 1 2 3 4 5 6 
#
# 1 0.013316 -0.002844 -0.003298 0.000000 0.000000 0.000000
# 2 -0.002844 0.013316 -0.003298 0.000000 0.000000 0.000000
# 3 -0.003298 -0.003298 0.012485 0.000000 0.000000 0.000000
# 4 0.000000 0.000000 0.000000 0.040894 0.000000 0.000000
# 5 0.000000 0.000000 0.000000 0.000000 0.040894 0.000000
# 6 0.000000 0.000000 0.000000 0.000000 0.000000 0.036949
#
#
# Mechanical properties :
#
#
# Convention : Reuss Voigt Hill
#
# Bulk Modulus (GPa) = 49.41294 49.57947 49.49621
# Shear Modulus (GPa) = 27.25070 27.57138 27.41104
#
# Velocity S-wave (km/s) = 3.55634 3.57720 3.56679
# Velocity P-wave (km/s) = 6.30848 6.33029 6.31939
#
# Compressibility (1/GPa) = 0.02023761
#
# Stress axis : x y z
#
# Youngs Moduli (GPa) = 75.09551 75.09534 80.09603
#
# Poissons Ratio (x) = 0.21356 0.26417
# Poissons Ratio (y) = 0.21356 0.26417
# Poissons Ratio (z) = 0.24767 0.24768
#
# Static dielectric constant tensor:
#      x y z
#    x 3.839810 0.000000 0.000000 
#    y 0.000000 3.839800 0.000000 
#    z 0.000000 0.000000 3.948200 
# 
# 
# High freq. dielectric constant tensor:
#      x y z
#    x 1.840750 0.000000 0.000000 
#    y 0.000000 1.840750 0.000000 
#    z 0.000000 0.000000 1.827980 
# 
# From -- ./inp_files/4661.got.cif
#   From: 2010.03.12/outbox.cif.g09.slc.cpg/sg116_3_cif.got.tgz:4661.got - 2010.04.14 02:15:44.
