data_PCOD8310468
_publ_section_title
;
Structure prediction by ZEFSAII (Michael W. Deem and Ramdas Pophale) SiO2 
 PCOD8310468
Probable space group: P -4 N 2
;
_chemical_formula_sum "Si O2"
_cell_formula_units_Z 54
_cell_length_a 13.302325
_cell_length_b 13.302325
_cell_length_c 14.422457
_cell_angle_alpha 90.000000
_cell_angle_beta 90.000000
_cell_angle_gamma 90.000000
_cell_volume 2552.080454
_symmetry_space_group_name_H-M "P -4 N 2"
_symmetry_group_IT_number 118
_symmetry_cell_setting 'tetragonal'
loop_
_space_group_symop_operation_xyz
x,y,z
y,-x,-z
-x,-y,z
-y,x,-z
1/2+y,1/2+x,1/2-z
1/2-y,1/2-x,1/2-z
1/2-x,1/2+y,1/2+z
1/2+x,1/2-y,1/2+z
loop_
_atom_site_type_symbol
_atom_site_label
_atom_site_fract_x
_atom_site_fract_y
_atom_site_fract_z
Si Si1 0.653641 0.158650 0.519782
Si Si2 0.151420 0.958118 0.474211
Si Si3 0.500000 0.000000 0.466699
Si Si4 0.995516 0.114924 0.725798
Si Si5 0.642393 0.356522 0.617677
Si Si6 0.000000 0.000000 0.000000
Si Si7 0.124603 0.261128 0.822501
Si Si8 0.082031 0.651151 0.842918
O O1 0.755220 0.093256 0.527200
O O2 0.635128 0.236380 0.604082
O O3 0.662385 0.229134 0.427984
O O4 0.557219 0.085097 0.525618
O O5 0.058636 0.879415 0.470348
O O6 0.179493 0.989951 0.368413
O O7 0.587980 0.949661 0.404145
O O8 0.886471 0.133803 0.772973
O O9 0.082319 0.148605 0.799865
O O10 0.000000 0.000000 0.697229
O O11 0.558561 0.418786 0.562043
O O12 0.756285 0.387577 0.589932
O O13 0.212784 0.287217 0.750000
O O14 0.033098 0.338572 0.808921
O O15 0.148562 0.648562 0.750000
#
# Coordination Sequence:
#
# PCOD8310468 Si02
#       8
#     8   8   4   8   8   2   8   8
#     4  11  24  41  62  98 133 176 224 277 339 415
#     4  11  24  43  69  95 130 168 226 282 342 405
#     4  10  21  38  60  86 133 168 208 270 331 396
#     4  11  21  41  64  91 131 173 218 278 342 400
#     4  11  25  37  63  94 131 173 221 273 338 411
#     4  12  20  44  60  88 134 176 216 276 328 416
#     4  10  19  36  61  90 125 172 214 272 336 405
#     4  10  20  34  58  92 121 159 210 272 336 386
#
# _framework density 21.159208
#
# number of rings (size 3 to 8) (size 9 to 14) (size 15 to 20)
#    0.000    1.333    3.704    4.667    4.148    0.000 
#    0.000    0.000    0.000    0.000    0.000    3.630 
#    0.000    0.000    0.000    0.000    0.000    0.000 
#
# Total GULP energy -669213.445393 kJ/mol
# GULP energy per Si atom -12392.841581 kJ/mol
# Density = 2.111105 g / cm^3
# Si number density = 21.159208 Si / 1000 Ang^3
#
#
#
# Elastic Constant Matrix: (Units=GPa)
#
#
# Indices 1 2 3 4 5 6 
#
# 1 112.2021 41.4348 30.0112 0.0000 0.0000 0.0000
# 2 41.4348 112.2024 30.0112 0.0000 0.0000 0.0000
# 3 30.0112 30.0112 69.3667 0.0000 0.0000 0.0000
# 4 0.0000 0.0000 0.0000 30.3700 0.0000 0.0000
# 5 0.0000 0.0000 0.0000 0.0000 30.3698 0.0000
# 6 0.0000 0.0000 0.0000 0.0000 0.0000 34.1788
#
#
#
# Elastic Compliance Matrix: (Units=1/GPa)
#
#
# Indices 1 2 3 4 5 6 
#
# 1 0.010982 -0.003149 -0.003389 0.000000 0.000000 0.000000
# 2 -0.003149 0.010982 -0.003389 0.000000 0.000000 0.000000
# 3 -0.003389 -0.003389 0.017348 0.000000 0.000000 0.000000
# 4 0.000000 0.000000 0.000000 0.032927 0.000000 0.000000
# 5 0.000000 0.000000 0.000000 0.000000 0.032927 0.000000
# 6 0.000000 0.000000 0.000000 0.000000 0.000000 0.029258
#
#
# Mechanical properties :
#
#
# Convention : Reuss Voigt Hill
#
# Bulk Modulus (GPa) = 51.39078 55.18728 53.28903
# Shear Modulus (GPa) = 31.10148 31.80467 31.45307
#
# Velocity S-wave (km/s) = 3.83806 3.88121 3.85969
# Velocity P-wave (km/s) = 6.63184 6.79879 6.71583
#
# Compressibility (1/GPa) = 0.01945874
#
# Stress axis : x y z
#
# Youngs Moduli (GPa) = 91.05983 91.06010 57.64207
#
# Poissons Ratio (x) = 0.28675 0.19534
# Poissons Ratio (y) = 0.28675 0.19534
# Poissons Ratio (z) = 0.30858 0.30858
#
# Static dielectric constant tensor:
#      x y z
#    x 3.815390 0.000000 0.000000 
#    y 0.000000 3.815390 0.000000 
#    z 0.000000 0.000000 3.707590 
# 
# 
# High freq. dielectric constant tensor:
#      x y z
#    x 1.825510 0.000000 0.000000 
#    y 0.000000 1.825510 0.000000 
#    z 0.000000 0.000000 1.802870 
# 
# From -- ./inp_files/4287.got.cif
#   From: 2010.03.12/outbox.cif.g09.slc.cpg/sg118_3_cif.got.tgz:4287.got - 2010.04.14 02:21:17.
