data_PCOD8310436
_publ_section_title
;
Structure prediction by ZEFSAII (Michael W. Deem and Ramdas Pophale) SiO2 
 PCOD8310436
Probable space group: P -4 N 2
;
_chemical_formula_sum "Si O2"
_cell_formula_units_Z 40
_cell_length_a 13.669232
_cell_length_b 13.669232
_cell_length_c 11.717894
_cell_angle_alpha 90.000000
_cell_angle_beta 90.000000
_cell_angle_gamma 90.000000
_cell_volume 2189.463927
_symmetry_space_group_name_H-M "P -4 N 2"
_symmetry_group_IT_number 118
_symmetry_cell_setting 'tetragonal'
loop_
_space_group_symop_operation_xyz
x,y,z
y,-x,-z
-x,-y,z
-y,x,-z
1/2+y,1/2+x,1/2-z
1/2-y,1/2-x,1/2-z
1/2-x,1/2+y,1/2+z
1/2+x,1/2-y,1/2+z
loop_
_atom_site_type_symbol
_atom_site_label
_atom_site_fract_x
_atom_site_fract_y
_atom_site_fract_z
Si Si1 0.111211 0.292608 0.354465
Si Si2 0.110017 0.888665 0.792709
Si Si3 0.706474 0.706470 0.500001
Si Si4 0.707397 0.888785 0.645534
Si Si5 0.110013 0.111338 0.792707
O O1 0.134353 0.365648 0.250000
O O2 0.129978 0.181122 0.314010
O O3 0.181726 0.312781 0.461557
O O4 0.999998 0.309567 0.394286
O O5 0.134154 0.815116 0.895361
O O6 0.000002 0.869028 0.750083
O O7 0.123136 0.000002 0.837441
O O8 0.687223 0.818270 0.538442
O O9 0.684890 0.634152 0.604645
O O10 0.634360 0.865641 0.750000
O O11 0.818885 0.870020 0.685985
#
# Coordination Sequence:
#
# PCOD8310436 Si02
#       5
#     8   8   8   8   8
#     4   9  19  33  47  67  95 125 154 184 224 273
#     4   9  17  31  51  72  92 115 149 195 238 270
#     4  10  18  29  48  73  94 118 152 190 230 270
#     4   9  19  33  47  67  95 125 154 184 224 273
#     4   9  17  31  51  72  92 115 149 195 238 270
#
# _framework density 18.269313
#
# number of rings (size 3 to 8) (size 9 to 14) (size 15 to 20)
#    0.000    2.800    0.000    1.200    0.000    5.200 
#    0.000    0.000    0.000    0.000    0.000    0.000 
#    0.000    0.000    0.000    0.000    0.000    0.000 
#
# Total GULP energy -496000.744142 kJ/mol
# GULP energy per Si atom -12400.018604 kJ/mol
# Density = 1.822773 g / cm^3
# Si number density = 18.269313 Si / 1000 Ang^3
#
#
#
# Elastic Constant Matrix: (Units=GPa)
#
#
# Indices 1 2 3 4 5 6 
#
# 1 104.0402 26.4435 23.7970 0.0000 0.0000 0.0000
# 2 26.4435 104.0376 23.7972 0.0000 0.0000 0.0000
# 3 23.7970 23.7972 45.9688 0.0000 0.0000 0.0000
# 4 0.0000 0.0000 0.0000 20.9630 0.0000 0.0000
# 5 0.0000 0.0000 0.0000 0.0000 20.9633 0.0000
# 6 0.0000 0.0000 0.0000 0.0000 0.0000 22.9976
#
#
#
# Elastic Compliance Matrix: (Units=1/GPa)
#
#
# Indices 1 2 3 4 5 6 
#
# 1 0.011167 -0.001720 -0.004891 0.000000 0.000000 0.000000
# 2 -0.001720 0.011168 -0.004891 0.000000 0.000000 0.000000
# 3 -0.004891 -0.004891 0.026818 0.000000 0.000000 0.000000
# 4 0.000000 0.000000 0.000000 0.047703 0.000000 0.000000
# 5 0.000000 0.000000 0.000000 0.000000 0.047702 0.000000
# 6 0.000000 0.000000 0.000000 0.000000 0.000000 0.043483
#
#
# Mechanical properties :
#
#
# Convention : Reuss Voigt Hill
#
# Bulk Modulus (GPa) = 38.24140 44.68022 41.46081
# Shear Modulus (GPa) = 22.75198 24.98539 23.86868
#
# Velocity S-wave (km/s) = 3.53280 3.70214 3.61846
# Velocity P-wave (km/s) = 6.13338 6.54095 6.34044
#
# Compressibility (1/GPa) = 0.02614967
#
# Stress axis : x y z
#
# Youngs Moduli (GPa) = 89.54598 89.54326 37.28868
#
# Poissons Ratio (x) = 0.15399 0.18237
# Poissons Ratio (y) = 0.15400 0.18238
# Poissons Ratio (z) = 0.43796 0.43796
#
# Static dielectric constant tensor:
#      x y z
#    x 3.454460 0.000000 0.000000 
#    y 0.000000 3.454460 0.000000 
#    z 0.000000 0.000000 3.050610 
# 
# 
# High freq. dielectric constant tensor:
#      x y z
#    x 1.707890 0.000000 0.000000 
#    y 0.000000 1.707890 0.000000 
#    z 0.000000 0.000000 1.679670 
# 
# From -- ./inp_files/3140.got.cif
#   From: 2010.03.12/outbox.cif.g09.slc.cpg/sg118_2_cif.got.tgz:3140.got - 2010.04.14 02:21:17.
