data_PCOD8310495
_publ_section_title
;
Structure prediction by ZEFSAII (Michael W. Deem and Ramdas Pophale) SiO2 
 PCOD8310495
Probable space group: P -4 N 2
;
_chemical_formula_sum "Si O2"
_cell_formula_units_Z 56
_cell_length_a 12.034188
_cell_length_b 12.034188
_cell_length_c 19.992173
_cell_angle_alpha 90.000000
_cell_angle_beta 90.000000
_cell_angle_gamma 90.000000
_cell_volume 2895.300097
_symmetry_space_group_name_H-M "P -4 N 2"
_symmetry_group_IT_number 118
_symmetry_cell_setting 'tetragonal'
loop_
_space_group_symop_operation_xyz
x,y,z
y,-x,-z
-x,-y,z
-y,x,-z
1/2+y,1/2+x,1/2-z
1/2-y,1/2-x,1/2-z
1/2-x,1/2+y,1/2+z
1/2+x,1/2-y,1/2+z
loop_
_atom_site_type_symbol
_atom_site_label
_atom_site_fract_x
_atom_site_fract_y
_atom_site_fract_z
Si Si1 0.506706 0.871584 0.963553
Si Si2 0.626762 0.038143 0.390521
Si Si3 0.886587 0.243766 0.703091
Si Si4 0.770598 0.059189 0.081220
Si Si5 0.308331 0.780903 0.601671
Si Si6 0.627755 0.752703 0.520614
Si Si7 0.585740 0.600440 0.324814
O O1 0.409983 0.838601 0.911872
O O2 0.500000 0.000000 0.975698
O O3 0.499582 0.820697 0.038404
O O4 0.633130 0.843159 0.939257
O O5 0.631606 0.170747 0.389805
O O6 0.500000 0.000000 0.378626
O O7 0.708271 0.996418 0.332108
O O8 0.840394 0.340394 0.750000
O O9 0.797956 0.209951 0.648177
O O10 0.911366 0.132870 0.746690
O O11 0.737285 0.995027 0.012275
O O12 0.796213 0.965834 0.135263
O O13 0.872245 0.145845 0.070002
O O14 0.275185 0.724062 0.532402
O O15 0.406971 0.710393 0.641226
O O16 0.500000 0.500000 0.335861
#
# Coordination Sequence:
#
# PCOD8310495 Si02
#       7
#     8   8   8   8   8   8   8
#     4  11  20  34  57  90 125 155 191 239 298 372
#     4  11  18  35  59  90 119 146 193 246 300 358
#     4  10  21  40  63  81 112 163 206 242 296 365
#     4  11  23  33  57  91 122 153 191 248 311 363
#     4  10  20  38  62  85 118 162 196 237 306 367
#     4  11  20  35  56  93 124 153 189 244 305 367
#     4  10  24  40  58  85 117 155 203 254 298 357
#
# _framework density 19.34169
#
# number of rings (size 3 to 8) (size 9 to 14) (size 15 to 20)
#    0.000    1.429    5.714    1.714    6.000    2.000 
#    2.571    0.000    0.000    3.857    0.000    0.000 
#    0.000    0.000    0.000    0.000    0.000    0.000 
#
# Total GULP energy -693837.188626 kJ/mol
# GULP energy per Si atom -12389.949797 kJ/mol
# Density = 1.929767 g / cm^3
# Si number density = 19.341690 Si / 1000 Ang^3
#
#
#
# Elastic Constant Matrix: (Units=GPa)
#
#
# Indices 1 2 3 4 5 6 
#
# 1 93.5511 26.3782 20.1677 0.0000 0.0000 0.0000
# 2 26.3782 93.5511 20.1677 0.0000 0.0000 0.0000
# 3 20.1677 20.1677 57.2357 0.0000 0.0000 0.0000
# 4 0.0000 0.0000 0.0000 23.6695 0.0000 0.0000
# 5 0.0000 0.0000 0.0000 0.0000 23.6695 0.0000
# 6 0.0000 0.0000 0.0000 0.0000 0.0000 23.4187
#
#
#
# Elastic Compliance Matrix: (Units=1/GPa)
#
#
# Indices 1 2 3 4 5 6 
#
# 1 0.012173 -0.002714 -0.003333 0.000000 0.000000 0.000000
# 2 -0.002714 0.012173 -0.003333 0.000000 0.000000 0.000000
# 3 -0.003333 -0.003333 0.019821 0.000000 0.000000 0.000000
# 4 0.000000 0.000000 0.000000 0.042248 0.000000 0.000000
# 5 0.000000 0.000000 0.000000 0.000000 0.042248 0.000000
# 6 0.000000 0.000000 0.000000 0.000000 0.000000 0.042701
#
#
# Mechanical properties :
#
#
# Convention : Reuss Voigt Hill
#
# Bulk Modulus (GPa) = 39.35971 41.97389 40.66680
# Shear Modulus (GPa) = 25.17706 25.99316 25.58511
#
# Velocity S-wave (km/s) = 3.61182 3.66989 3.64097
# Velocity P-wave (km/s) = 6.14716 6.30126 6.22468
#
# Compressibility (1/GPa) = 0.02540669
#
# Stress axis : x y z
#
# Youngs Moduli (GPa) = 82.14835 82.14835 50.45281
#
# Poissons Ratio (x) = 0.22294 0.16816
# Poissons Ratio (y) = 0.22294 0.16816
# Poissons Ratio (z) = 0.27381 0.27381
#
# Static dielectric constant tensor:
#      x y z
#    x 3.600320 0.000000 0.000000 
#    y 0.000000 3.600320 0.000000 
#    z 0.000000 0.000000 3.688900 
# 
# 
# High freq. dielectric constant tensor:
#      x y z
#    x 1.743320 0.000000 0.000000 
#    y 0.000000 1.743320 0.000000 
#    z 0.000000 0.000000 1.734710 
# 
# From -- ./inp_files/5681.got.cif
#   From: 2010.03.12/outbox.cif.g09.slc.cpg/sg118_3_cif.got.tgz:5681.got - 2010.04.14 02:21:17.
