data_PCOD8310982
_publ_section_title
;
Structure prediction by ZEFSAII (Michael W. Deem and Ramdas Pophale) SiO2 
 PCOD8310982
Probable space group: I -4 M 2
;
_chemical_formula_sum "Si O2"
_cell_formula_units_Z 112
_cell_length_a 14.083627
_cell_length_b 14.083627
_cell_length_c 26.615355
_cell_angle_alpha 90.000000
_cell_angle_beta 90.000000
_cell_angle_gamma 90.000000
_cell_volume 5279.117058
_symmetry_space_group_name_H-M "I -4 M 2"
_symmetry_group_IT_number 119
_symmetry_cell_setting 'tetragonal'
loop_
_space_group_symop_operation_xyz
x,y,z
y,-x,-z
-x,-y,z
-y,x,-z
y,x,-z
-y,-x,-z
-x,y,z
x,-y,z
1/2+x,1/2+y,1/2+z
1/2+y,1/2-x,1/2-z
1/2-x,1/2-y,1/2+z
1/2-y,1/2+x,1/2-z
1/2+y,1/2+x,1/2-z
1/2-y,1/2-x,1/2-z
1/2-x,1/2+y,1/2+z
1/2+x,1/2-y,1/2+z
loop_
_atom_site_type_symbol
_atom_site_label
_atom_site_fract_x
_atom_site_fract_y
_atom_site_fract_z
Si Si1 0.735614 0.112001 0.502911
Si Si2 0.214864 0.893373 0.143419
Si Si3 0.789652 0.700791 0.103465
Si Si4 0.612845 0.894808 0.695423
Si Si5 0.611446 0.610001 0.852719
Si Si6 0.104083 0.888079 0.240388
Si Si7 0.895441 0.393800 0.589760
O O1 0.838479 0.161522 0.500000
O O2 0.678838 0.151903 0.551588
O O3 0.675075 0.141933 0.454333
O O4 0.750050 0.000000 0.507679
O O5 0.186249 0.814011 0.101985
O O6 0.182046 0.859860 0.198717
O O7 0.329645 0.892136 0.139622
O O8 0.175199 0.000000 0.130710
O O9 0.851573 0.665964 0.149560
O O10 0.677058 0.676060 0.112020
O O11 0.500000 0.897584 0.695974
O O12 0.646805 0.853196 0.750000
O O13 0.654957 0.000000 0.688133
O O14 0.500000 0.622221 0.865561
O O15 0.641830 0.500000 0.861124
O O16 0.632061 0.647439 0.795953
O O17 0.000000 0.847034 0.224545
O O18 0.095219 0.000000 0.244850
O O19 0.896321 0.500000 0.566800
O O20 0.000000 0.362769 0.607529
#
# Coordination Sequence:
#
# PCOD8310982 Si02
#       7
#    16  16  16  16  16  16  16
#     4  11  23  40  59  86 118 148 189 241 296 354
#     4  10  21  36  57  83 112 147 193 241 287 342
#     4  12  23  35  59  87 116 151 199 240 291 348
#     4   9  20  38  57  84 125 165 200 242 292 346
#     4   9  19  35  55  83 119 156 192 232 282 344
#     4   8  16  33  55  81 116 153 188 227 273 333
#     4   9  19  39  64  84 110 151 194 239 291 347
#
# _framework density 21.215668000000001
#
# number of rings (size 3 to 8) (size 9 to 14) (size 15 to 20)
#    0.000    2.286    1.429    2.571    2.000    2.429 
#    0.000    1.429    0.000    1.714    0.000    2.000 
#    0.000    0.000    0.000    0.000    0.000    0.000 
#
# Total GULP energy -693835.571693 kJ/mol
# GULP energy per Si atom -12389.920923 kJ/mol
# Density = 2.116738 g / cm^3
# Si number density = 21.215668 Si / 1000 Ang^3
#
#
#
# Elastic Constant Matrix: (Units=GPa)
#
#
# Indices 1 2 3 4 5 6 
#
# 1 68.1739 15.8958 33.0934 0.0000 0.0000 0.0000
# 2 15.8958 68.1739 33.0931 0.0000 0.0000 0.0000
# 3 33.0934 33.0931 98.5534 0.0000 0.0000 0.0000
# 4 0.0000 0.0000 0.0000 29.0640 0.0000 0.0000
# 5 0.0000 0.0000 0.0000 0.0000 29.0638 0.0000
# 6 0.0000 0.0000 0.0000 0.0000 0.0000 22.7544
#
#
#
# Elastic Compliance Matrix: (Units=1/GPa)
#
#
# Indices 1 2 3 4 5 6 
#
# 1 0.017649 -0.001480 -0.005430 0.000000 0.000000 0.000000
# 2 -0.001480 0.017649 -0.005430 0.000000 0.000000 0.000000
# 3 -0.005430 -0.005430 0.013793 0.000000 0.000000 0.000000
# 4 0.000000 0.000000 0.000000 0.034407 0.000000 0.000000
# 5 0.000000 0.000000 0.000000 0.000000 0.034407 0.000000
# 6 0.000000 0.000000 0.000000 0.000000 0.000000 0.043948
#
#
# Mechanical properties :
#
#
# Convention : Reuss Voigt Hill
#
# Bulk Modulus (GPa) = 40.96026 44.34065 42.65046
# Shear Modulus (GPa) = 25.68479 26.36437 26.02458
#
# Velocity S-wave (km/s) = 3.48322 3.52900 3.50618
# Velocity P-wave (km/s) = 5.96033 6.12784 6.04467
#
# Compressibility (1/GPa) = 0.02441391
#
# Stress axis : x y z
#
# Youngs Moduli (GPa) = 56.66046 56.66062 72.49977
#
# Poissons Ratio (x) = 0.08383 0.39364
# Poissons Ratio (y) = 0.08383 0.39364
# Poissons Ratio (z) = 0.30764 0.30764
#
# Static dielectric constant tensor:
#      x y z
#    x 3.932860 0.000000 0.000000 
#    y 0.000000 3.932860 0.000000 
#    z 0.000000 0.000000 3.907080 
# 
# 
# High freq. dielectric constant tensor:
#      x y z
#    x 1.831130 0.000000 0.000000 
#    y 0.000000 1.831130 0.000000 
#    z 0.000000 0.000000 1.816830 
# 
# From -- ./inp_files/9647.got.cif
#   From: 2010.03.12/outbox.cif.g09.slc.cpg/sg119_5_cif.got.tgz:9647.got - 2010.04.14 02:25:26.
