data_PCOD8310211
_publ_section_title
;
Structure prediction by ZEFSAII (Michael W. Deem and Ramdas Pophale) SiO2 
 PCOD8310211
Probable space group: P -4 C 2
;
_chemical_formula_sum "Si O2"
_cell_formula_units_Z 30
_cell_length_a 10.964781
_cell_length_b 10.964781
_cell_length_c 12.201797
_cell_angle_alpha 90.000000
_cell_angle_beta 90.000000
_cell_angle_gamma 90.000000
_cell_volume 1466.978400
_symmetry_space_group_name_H-M "P -4 C 2"
_symmetry_group_IT_number 116
_symmetry_cell_setting 'tetragonal'
loop_
_space_group_symop_operation_xyz
x,y,z
y,-x,-z
-x,-y,z
-y,x,-z
y,x,1/2-z
-y,-x,1/2-z
-x,y,1/2+z
x,-y,1/2+z
loop_
_atom_site_type_symbol
_atom_site_label
_atom_site_fract_x
_atom_site_fract_y
_atom_site_fract_z
Si Si1 0.823798 0.823798 0.750000
Si Si2 0.500000 0.500000 0.750000
Si Si3 0.918137 0.390875 0.103636
Si Si4 0.181519 0.016478 0.538493
Si Si5 0.669913 0.518389 0.557190
O O1 0.693697 0.846161 0.808625
O O2 0.824942 0.932520 0.661635
O O3 0.624975 0.495797 0.680861
O O4 0.812338 0.462347 0.040528
O O5 0.000000 0.500000 0.157103
O O6 0.997182 0.315089 0.014545
O O7 0.112408 0.110747 0.457699
O O8 0.638244 0.401259 0.484197
#
# Coordination Sequence:
#
# PCOD8310211 Si02
#       5
#     4   2   8   8   8
#     4  10  23  45  63  93 128 170 214 274 316 395
#     4   8  16  40  62  86 116 176 206 250 324 376
#     4  11  24  39  64  98 127 167 218 265 321 381
#     4   9  21  41  66  87 127 167 211 268 326 382
#     4   9  20  39  64  86 124 165 203 261 317 376
#
# _framework density 20.450199999999999
#
# number of rings (size 3 to 8) (size 9 to 14) (size 15 to 20)
#    0.000    2.667    0.000    0.800    7.467    9.600 
#    9.600    0.000    0.000    0.000    0.000    0.000 
#    0.000    0.000    0.000    0.000    0.000    0.000 
#
# Total GULP energy -371657.046800 kJ/mol
# GULP energy per Si atom -12388.568227 kJ/mol
# Density = 2.040365 g / cm^3
# Si number density = 20.450200 Si / 1000 Ang^3
#
#
#
# Elastic Constant Matrix: (Units=GPa)
#
#
# Indices 1 2 3 4 5 6 
#
# 1 111.7234 68.1692 39.6150 0.0000 0.0000 0.0000
# 2 68.1692 111.7234 39.6150 0.0000 0.0000 0.0000
# 3 39.6150 39.6150 110.4048 0.0000 0.0000 0.0000
# 4 0.0000 0.0000 0.0000 18.1927 0.0000 0.0000
# 5 0.0000 0.0000 0.0000 0.0000 18.1927 0.0000
# 6 0.0000 0.0000 0.0000 0.0000 0.0000 35.5080
#
#
#
# Elastic Compliance Matrix: (Units=1/GPa)
#
#
# Indices 1 2 3 4 5 6 
#
# 1 0.014781 -0.008179 -0.002369 0.000000 0.000000 0.000000
# 2 -0.008179 0.014781 -0.002369 0.000000 0.000000 0.000000
# 3 -0.002369 -0.002369 0.010758 0.000000 0.000000 0.000000
# 4 0.000000 0.000000 0.000000 0.054967 0.000000 0.000000
# 5 0.000000 0.000000 0.000000 0.000000 0.054967 0.000000
# 6 0.000000 0.000000 0.000000 0.000000 0.000000 0.028163
#
#
# Mechanical properties :
#
#
# Convention : Reuss Voigt Hill
#
# Bulk Modulus (GPa) = 69.03135 69.84999 69.44067
# Shear Modulus (GPa) = 23.91443 26.80885 25.36164
#
# Velocity S-wave (km/s) = 3.42336 3.62461 3.52542
# Velocity P-wave (km/s) = 7.03242 7.19356 7.11345
#
# Compressibility (1/GPa) = 0.01448617
#
# Stress axis : x y z
#
# Youngs Moduli (GPa) = 67.65403 67.65403 92.95716
#
# Poissons Ratio (x) = 0.55333 0.22021
# Poissons Ratio (y) = 0.55333 0.22021
# Poissons Ratio (z) = 0.16027 0.16027
#
# Static dielectric constant tensor:
#      x y z
#    x 3.729980 0.000000 0.000000 
#    y 0.000000 3.729980 0.000000 
#    z 0.000000 0.000000 3.629080 
# 
# 
# High freq. dielectric constant tensor:
#      x y z
#    x 1.800610 0.000000 0.000000 
#    y 0.000000 1.800610 0.000000 
#    z 0.000000 0.000000 1.784240 
# 
# From -- ./inp_files/1487.got.cif
#   From: 2010.03.12/outbox.cif.g09.slc.cpg/sg116_1_cif.got.tgz:1487.got - 2010.04.14 02:15:44.
