data_PCOD8310850
_publ_section_title
;
Structure prediction by ZEFSAII (Michael W. Deem and Ramdas Pophale) SiO2 
 PCOD8310850
Probable space group: I -4 M 2
;
_chemical_formula_sum "Si O2"
_cell_formula_units_Z 80
_cell_length_a 12.020174
_cell_length_b 12.020174
_cell_length_c 30.767003
_cell_angle_alpha 90.000000
_cell_angle_beta 90.000000
_cell_angle_gamma 90.000000
_cell_volume 4445.357598
_symmetry_space_group_name_H-M "I -4 M 2"
_symmetry_group_IT_number 119
_symmetry_cell_setting 'tetragonal'
loop_
_space_group_symop_operation_xyz
x,y,z
y,-x,-z
-x,-y,z
-y,x,-z
y,x,-z
-y,-x,-z
-x,y,z
x,-y,z
1/2+x,1/2+y,1/2+z
1/2+y,1/2-x,1/2-z
1/2-x,1/2-y,1/2+z
1/2-y,1/2+x,1/2-z
1/2+y,1/2+x,1/2-z
1/2-y,1/2-x,1/2-z
1/2-x,1/2+y,1/2+z
1/2+x,1/2-y,1/2+z
loop_
_atom_site_type_symbol
_atom_site_label
_atom_site_fract_x
_atom_site_fract_y
_atom_site_fract_z
Si Si1 0.256379 0.777267 0.820708
Si Si2 0.132792 0.500000 0.356007
Si Si3 0.129238 0.300517 0.512703
Si Si4 0.500000 0.868157 0.544477
Si Si5 0.628059 0.625340 0.756067
Si Si6 0.129778 0.628509 0.889228
O O1 0.316806 0.890299 0.834496
O O2 0.348922 0.700447 0.798139
O O3 0.160167 0.801525 0.785974
O O4 0.203221 0.711704 0.860732
O O5 0.170236 0.500000 0.405959
O O6 0.000000 0.500000 0.350235
O O7 0.184782 0.184782 0.500000
O O8 0.179408 0.391931 0.479788
O O9 0.154373 0.339395 0.561328
O O10 0.000000 0.282120 0.504999
O O11 0.500000 0.000000 0.539681
O O12 0.500000 0.636181 0.743461
O O13 0.661836 0.500000 0.768056
O O14 0.156727 0.500000 0.877490
O O15 0.000000 0.653192 0.881595
#
# Coordination Sequence:
#
# PCOD8310850 Si02
#       6
#    16   8  16   8  16  16
#     4  11  21  36  57  85 108 152 191 243 289 347
#     4  11  22  36  55  85 119 149 200 245 287 351
#     4  10  19  34  56  81 112 151 189 233 288 343
#     4   9  18  34  54  76 108 152 188 226 282 342
#     4  10  21  38  56  78 112 149 188 233 297 352
#     4  10  20  36  58  85 114 147 194 243 293 347
#
# _framework density 17.996303000000001
#
# number of rings (size 3 to 8) (size 9 to 14) (size 15 to 20)
#    0.000    1.800    2.000    3.000    0.000    0.200 
#    0.000    1.000    0.000    7.500    0.000    0.000 
#    0.000    0.000    0.000    0.000    0.000    0.000 
#
# Total GULP energy -496039.355212 kJ/mol
# GULP energy per Si atom -12400.983880 kJ/mol
# Density = 1.795534 g / cm^3
# Si number density = 17.996303 Si / 1000 Ang^3
#
#
#
# Elastic Constant Matrix: (Units=GPa)
#
#
# Indices 1 2 3 4 5 6 
#
# 1 99.0071 54.1325 53.3410 0.0000 0.0000 0.0000
# 2 54.1325 99.0071 53.3410 0.0000 0.0000 0.0000
# 3 53.3410 53.3410 108.3265 0.0000 0.0000 0.0000
# 4 0.0000 0.0000 0.0000 31.8375 0.0000 0.0000
# 5 0.0000 0.0000 0.0000 0.0000 31.8375 0.0000
# 6 0.0000 0.0000 0.0000 0.0000 0.0000 25.6607
#
#
#
# Elastic Compliance Matrix: (Units=1/GPa)
#
#
# Indices 1 2 3 4 5 6 
#
# 1 0.016112 -0.006172 -0.004894 0.000000 0.000000 0.000000
# 2 -0.006172 0.016112 -0.004894 0.000000 0.000000 0.000000
# 3 -0.004894 -0.004894 0.014051 0.000000 0.000000 0.000000
# 4 0.000000 0.000000 0.000000 0.031409 0.000000 0.000000
# 5 0.000000 0.000000 0.000000 0.000000 0.031409 0.000000
# 6 0.000000 0.000000 0.000000 0.000000 0.000000 0.038970
#
#
# Mechanical properties :
#
#
# Convention : Reuss Voigt Hill
#
# Bulk Modulus (GPa) = 69.67111 69.77442 69.72277
# Shear Modulus (GPa) = 27.06056 27.56890 27.31473
#
# Velocity S-wave (km/s) = 3.88193 3.91822 3.90012
# Velocity P-wave (km/s) = 7.67403 7.70231 7.68818
#
# Compressibility (1/GPa) = 0.01435315
#
# Stress axis : x y z
#
# Youngs Moduli (GPa) = 62.06579 62.06579 71.16736
#
# Poissons Ratio (x) = 0.38309 0.34832
# Poissons Ratio (y) = 0.38309 0.34832
# Poissons Ratio (z) = 0.30377 0.30377
#
# Static dielectric constant tensor:
#      x y z
#    x 3.324640 0.000000 0.000000 
#    y 0.000000 3.324640 0.000000 
#    z 0.000000 0.000000 3.385860 
# 
# 
# High freq. dielectric constant tensor:
#      x y z
#    x 1.697420 0.000000 0.000000 
#    y 0.000000 1.697420 0.000000 
#    z 0.000000 0.000000 1.707690 
# 
# From -- ./inp_files/10151.got.cif
#   From: 2010.03.12/outbox.cif.g09.slc.cpg/sg119_6_cif.got.tgz:10151.got - 2010.04.14 02:25:26.
