data_PCOD8310166
_publ_section_title
;
Structure prediction by ZEFSAII (Michael W. Deem and Ramdas Pophale) SiO2 
 PCOD8310166
Probable space group: P -4 C 2
;
_chemical_formula_sum "Si O2"
_cell_formula_units_Z 40
_cell_length_a 14.291631
_cell_length_b 14.291631
_cell_length_c 9.181338
_cell_angle_alpha 90.000000
_cell_angle_beta 90.000000
_cell_angle_gamma 90.000000
_cell_volume 1875.294866
_symmetry_space_group_name_H-M "P -4 C 2"
_symmetry_group_IT_number 116
_symmetry_cell_setting 'tetragonal'
loop_
_space_group_symop_operation_xyz
x,y,z
y,-x,-z
-x,-y,z
-y,x,-z
y,x,1/2-z
-y,-x,1/2-z
-x,y,1/2+z
x,-y,1/2+z
loop_
_atom_site_type_symbol
_atom_site_label
_atom_site_fract_x
_atom_site_fract_y
_atom_site_fract_z
Si Si1 0.057069 0.591775 0.396105
Si Si2 0.484955 0.777981 0.464369
Si Si3 0.679433 0.904098 0.911076
Si Si4 0.501383 0.350079 0.214777
Si Si5 0.930932 0.890176 0.583927
O O1 0.148634 0.562767 0.486084
O O2 0.084329 0.652736 0.257386
O O3 0.000000 0.500000 0.344478
O O4 0.998892 0.656976 0.503879
O O5 0.380281 0.819507 0.480383
O O6 0.504397 0.749790 0.297386
O O7 0.494342 0.678706 0.546567
O O8 0.789219 0.880906 0.924785
O O9 0.414638 0.414638 0.250000
O O10 0.598907 0.401094 0.250000
O O11 0.928022 0.928022 0.750000
O O12 0.038672 0.880387 0.528607
#
# Coordination Sequence:
#
# PCOD8310166 Si02
#       5
#     8   8   8   8   8
#     4  10  21  39  65  95 135 172 212 271 346 386
#     4  11  22  42  67  98 132 174 220 271 328 381
#     4  11  23  41  67  97 129 170 223 273 324 396
#     4  11  24  44  65  92 134 180 217 261 326 388
#     4  11  24  46  69  94 134 179 217 269 343 402
#
# _framework density 21.329979000000002
#
# number of rings (size 3 to 8) (size 9 to 14) (size 15 to 20)
#    0.000    1.200    2.000    5.400    2.800    2.400 
#   10.800    0.000    0.000    0.000    0.000    0.000 
#    0.000    0.000    0.000    0.000    0.000    0.000 
#
# Total GULP energy -496054.389257 kJ/mol
# GULP energy per Si atom -12401.359731 kJ/mol
# Density = 2.128143 g / cm^3
# Si number density = 21.329979 Si / 1000 Ang^3
#
#
#
# Elastic Constant Matrix: (Units=GPa)
#
#
# Indices 1 2 3 4 5 6 
#
# 1 106.5042 27.9458 33.2229 0.0000 0.0000 0.0000
# 2 27.9458 106.5027 33.2222 0.0000 0.0000 0.0000
# 3 33.2229 33.2222 98.5942 0.0000 0.0000 0.0000
# 4 0.0000 0.0000 0.0000 29.4498 0.0000 0.0000
# 5 0.0000 0.0000 0.0000 0.0000 29.4510 0.0000
# 6 0.0000 0.0000 0.0000 0.0000 0.0000 20.6673
#
#
#
# Elastic Compliance Matrix: (Units=1/GPa)
#
#
# Indices 1 2 3 4 5 6 
#
# 1 0.010827 -0.001903 -0.003007 0.000000 0.000000 0.000000
# 2 -0.001903 0.010827 -0.003007 0.000000 0.000000 0.000000
# 3 -0.003007 -0.003007 0.012169 0.000000 0.000000 0.000000
# 4 0.000000 0.000000 0.000000 0.033956 0.000000 0.000000
# 5 0.000000 0.000000 0.000000 0.000000 0.033955 0.000000
# 6 0.000000 0.000000 0.000000 0.000000 0.000000 0.048386
#
#
# Mechanical properties :
#
#
# Convention : Reuss Voigt Hill
#
# Bulk Modulus (GPa) = 55.59035 55.59809 55.59422
# Shear Modulus (GPa) = 29.07842 30.39428 29.73635
#
# Velocity S-wave (km/s) = 3.69625 3.77895 3.73783
# Velocity P-wave (km/s) = 6.65845 6.72034 6.68947
#
# Compressibility (1/GPa) = 0.01798873
#
# Stress axis : x y z
#
# Youngs Moduli (GPa) = 92.36509 92.36410 82.17550
#
# Poissons Ratio (x) = 0.17575 0.24710
# Poissons Ratio (y) = 0.17576 0.24710
# Poissons Ratio (z) = 0.27774 0.27774
#
# Static dielectric constant tensor:
#      x y z
#    x 3.779260 0.000000 0.000000 
#    y 0.000000 3.779260 0.000000 
#    z 0.000000 0.000000 3.967710 
# 
# 
# High freq. dielectric constant tensor:
#      x y z
#    x 1.832340 0.000000 0.000000 
#    y 0.000000 1.832340 0.000000 
#    z 0.000000 0.000000 1.851520 
# 
# From -- ./inp_files/813.got.cif
#   From: 2010.03.12/outbox.cif.g09.slc.cpg/sg116_1_cif.got.tgz:813.got - 2010.04.14 02:15:44.
