data_PCOD8310443
_publ_section_title
;
Structure prediction by ZEFSAII (Michael W. Deem and Ramdas Pophale) SiO2 
 PCOD8310443
Probable space group: P -4 N 2
;
_chemical_formula_sum "Si O2"
_cell_formula_units_Z 56
_cell_length_a 13.456769
_cell_length_b 13.456769
_cell_length_c 17.935453
_cell_angle_alpha 90.000000
_cell_angle_beta 90.000000
_cell_angle_gamma 90.000000
_cell_volume 3247.834905
_symmetry_space_group_name_H-M "P -4 N 2"
_symmetry_group_IT_number 118
_symmetry_cell_setting 'tetragonal'
loop_
_space_group_symop_operation_xyz
x,y,z
y,-x,-z
-x,-y,z
-y,x,-z
1/2+y,1/2+x,1/2-z
1/2-y,1/2-x,1/2-z
1/2-x,1/2+y,1/2+z
1/2+x,1/2-y,1/2+z
loop_
_atom_site_type_symbol
_atom_site_label
_atom_site_fract_x
_atom_site_fract_y
_atom_site_fract_z
Si Si1 0.618191 0.582457 0.967711
Si Si2 0.256880 0.243121 0.166277
Si Si3 0.582457 0.381809 0.467711
Si Si4 0.418641 0.918640 0.400687
Si Si5 0.724524 0.488712 0.834759
Si Si6 0.195650 0.304350 0.015989
Si Si7 0.988711 0.224524 0.834759
O O1 0.638995 0.536227 0.886246
O O2 0.627175 0.493151 0.029081
O O3 0.694354 0.670212 0.986560
O O4 0.225643 0.274358 0.250000
O O5 0.371815 0.266060 0.151565
O O6 0.193496 0.306505 0.106223
O O7 0.233937 0.128186 0.151565
O O8 0.493151 0.372825 0.529081
O O9 0.670212 0.305646 0.486560
O O10 0.536227 0.361005 0.386246
O O11 0.382485 0.882484 0.482357
O O12 0.463156 0.830185 0.352462
O O13 0.500000 0.000000 0.418018
O O14 0.330185 0.963154 0.352462
O O15 0.695321 0.512744 0.750000
#
# Coordination Sequence:
#
# PCOD8310443 Si02
#       7
#     8   8   8   8   8   8   8
#     4  10  20  35  53  75 106 141 179 217 261 317
#     4  10  18  31  51  76 106 133 171 222 265 307
#     4  10  20  35  53  75 106 141 179 217 261 317
#     4  10  19  30  50  80 109 137 175 218 268 327
#     4  10  19  31  50  77 109 138 168 219 273 314
#     4  10  20  35  53  75 107 142 177 214 266 315
#     4  10  19  31  50  77 109 138 168 219 273 314
#
# _framework density 17.242256000000001
#
# number of rings (size 3 to 8) (size 9 to 14) (size 15 to 20)
#    0.000    2.000    4.286    0.429    0.000    0.571 
#    0.000    4.286    0.000    0.429    0.000    0.000 
#    0.000    0.000    0.000    0.000    0.000    0.000 
#
# Total GULP energy -694231.414776 kJ/mol
# GULP energy per Si atom -12396.989550 kJ/mol
# Density = 1.720301 g / cm^3
# Si number density = 17.242256 Si / 1000 Ang^3
#
#
#
# Elastic Constant Matrix: (Units=GPa)
#
#
# Indices 1 2 3 4 5 6 
#
# 1 67.9041 38.0791 39.4991 0.0000 0.0000 0.0000
# 2 38.0791 67.9039 39.4991 0.0000 0.0000 0.0000
# 3 39.4991 39.4991 148.6236 0.0000 0.0000 0.0000
# 4 0.0000 0.0000 0.0000 26.4384 0.0000 0.0000
# 5 0.0000 0.0000 0.0000 0.0000 26.4384 0.0000
# 6 0.0000 0.0000 0.0000 0.0000 0.0000 29.3974
#
#
#
# Elastic Compliance Matrix: (Units=1/GPa)
#
#
# Indices 1 2 3 4 5 6 
#
# 1 0.022648 -0.010881 -0.003127 0.000000 0.000000 0.000000
# 2 -0.010881 0.022648 -0.003127 0.000000 0.000000 0.000000
# 3 -0.003127 -0.003127 0.008391 0.000000 0.000000 0.000000
# 4 0.000000 0.000000 0.000000 0.037824 0.000000 0.000000
# 5 0.000000 0.000000 0.000000 0.000000 0.037824 0.000000
# 6 0.000000 0.000000 0.000000 0.000000 0.000000 0.034017
#
#
# Mechanical properties :
#
#
# Convention : Reuss Voigt Hill
#
# Bulk Modulus (GPa) = 51.50687 57.62068 54.56377
# Shear Modulus (GPa) = 24.49864 27.61178 26.05521
#
# Velocity S-wave (km/s) = 3.77350 4.00609 3.89154
# Velocity P-wave (km/s) = 6.99450 7.40873 7.20459
#
# Compressibility (1/GPa) = 0.01941489
#
# Stress axis : x y z
#
# Youngs Moduli (GPa) = 44.15464 44.15447 119.18157
#
# Poissons Ratio (x) = 0.48046 0.37269
# Poissons Ratio (y) = 0.48046 0.37269
# Poissons Ratio (z) = 0.13808 0.13808
#
# Static dielectric constant tensor:
#      x y z
#    x 3.220420 0.000000 0.000000 
#    y 0.000000 3.220420 0.000000 
#    z 0.000000 0.000000 3.321560 
# 
# 
# High freq. dielectric constant tensor:
#      x y z
#    x 1.659740 0.000000 0.000000 
#    y 0.000000 1.659740 0.000000 
#    z 0.000000 0.000000 1.663950 
# 
# From -- ./inp_files/4240.got.cif
#   From: 2010.03.12/outbox.cif.g09.slc.cpg/sg118_3_cif.got.tgz:4240.got - 2010.04.14 02:21:17.
