data_PCOD8310034
_publ_section_title
;
Structure prediction by ZEFSAII (Michael W. Deem and Ramdas Pophale) SiO2 
 PCOD8310034
Probable space group: P -4 M 2
;
_chemical_formula_sum "Si O2"
_cell_formula_units_Z 44
_cell_length_a 9.590985
_cell_length_b 9.590985
_cell_length_c 28.411887
_cell_angle_alpha 90.000000
_cell_angle_beta 90.000000
_cell_angle_gamma 90.000000
_cell_volume 2613.524058
_symmetry_space_group_name_H-M "P -4 M 2"
_symmetry_group_IT_number 115
_symmetry_cell_setting 'tetragonal'
loop_
_space_group_symop_operation_xyz
x,y,z
y,-x,-z
-x,-y,z
-y,x,-z
y,x,-z
-y,-x,-z
-x,y,z
x,-y,z
loop_
_atom_site_type_symbol
_atom_site_label
_atom_site_fract_x
_atom_site_fract_y
_atom_site_fract_z
Si Si1 0.334208 0.155075 0.914030
Si Si2 0.344138 0.165978 0.810525
Si Si3 0.654827 0.834363 0.641212
Si Si4 0.663667 0.840632 0.535865
Si Si5 0.833485 0.157290 0.274432
Si Si6 0.337643 0.337643 0.000000
O O1 0.500000 0.149384 0.914817
O O2 0.288573 0.210868 0.862351
O O3 0.278011 0.258458 0.954217
O O4 0.273761 0.000000 0.923354
O O5 0.500000 0.225335 0.800919
O O6 0.238308 0.224651 0.771357
O O7 0.350748 0.000000 0.808512
O O8 0.500000 0.775585 0.652725
O O9 0.701209 0.790031 0.588752
O O10 0.765013 0.775568 0.679034
O O11 0.648406 0.000000 0.643816
O O12 0.744101 0.744101 0.500000
O O13 0.500000 0.825136 0.526920
O O14 0.711036 0.000000 0.528359
O O15 0.000000 0.156863 0.274314
O O16 0.774965 0.000000 0.273985
O O17 0.307482 0.500000 0.992127
#
# Coordination Sequence:
#
# PCOD8310034 Si02
#       6
#     8   8   8   8   8   4
#     4   8  14  25  40  57  78 105 135 164 198 245
#     4   8  13  22  36  51  69  99 135 164 194 238
#     4   8  14  25  39  55  79 110 141 173 209 251
#     4   9  18  31  46  66  91 118 149 184 222 265
#     4   9  15  21  32  54  82 107 132 167 210 249
#     4   9  16  26  42  63  82 100 130 173 210 236
#
# _framework density 16.835505000000001
#
# number of rings (size 3 to 8) (size 9 to 14) (size 15 to 20)
#    0.000    3.545    0.000    2.727    0.000    3.273 
#    0.000    2.727    0.000    1.364    0.000    1.273 
#    0.000    7.273    0.000    0.000    0.000    0.000 
#
# Total GULP energy -545277.142153 kJ/mol
# GULP energy per Si atom -12392.662322 kJ/mol
# Density = 1.679719 g / cm^3
# Si number density = 16.835505 Si / 1000 Ang^3
#
#
#
# Elastic Constant Matrix: (Units=GPa)
#
#
# Indices 1 2 3 4 5 6 
#
# 1 54.1360 24.1592 60.4003 0.0000 0.0000 0.0000
# 2 24.1592 54.1360 60.4003 0.0000 0.0000 0.0000
# 3 60.4003 60.4003 178.5865 0.0000 0.0000 0.0000
# 4 0.0000 0.0000 0.0000 16.2973 0.0000 0.0000
# 5 0.0000 0.0000 0.0000 0.0000 16.2973 0.0000
# 6 0.0000 0.0000 0.0000 0.0000 0.0000 11.9432
#
#
#
# Elastic Compliance Matrix: (Units=1/GPa)
#
#
# Indices 1 2 3 4 5 6 
#
# 1 0.030035 -0.003324 -0.009034 0.000000 0.000000 0.000000
# 2 -0.003324 0.030035 -0.009034 0.000000 0.000000 0.000000
# 3 -0.009034 -0.009034 0.011710 0.000000 0.000000 0.000000
# 4 0.000000 0.000000 0.000000 0.061360 0.000000 0.000000
# 5 0.000000 0.000000 0.000000 0.000000 0.061360 0.000000
# 6 0.000000 0.000000 0.000000 0.000000 0.000000 0.083730
#
#
# Mechanical properties :
#
#
# Convention : Reuss Voigt Hill
#
# Bulk Modulus (GPa) = 34.48791 64.08642 49.28717
# Shear Modulus (GPa) = 15.12046 18.36749 16.74397
#
# Velocity S-wave (km/s) = 3.00013 3.30661 3.15709
# Velocity P-wave (km/s) = 5.70357 7.26134 6.52908
#
# Compressibility (1/GPa) = 0.02899567
#
# Stress axis : x y z
#
# Youngs Moduli (GPa) = 33.29486 33.29486 85.39568
#
# Poissons Ratio (x) = 0.11069 0.77144
# Poissons Ratio (y) = 0.11069 0.77144
# Poissons Ratio (z) = 0.30078 0.30078
#
# Static dielectric constant tensor:
#      x y z
#    x 2.928490 0.000000 0.000000 
#    y 0.000000 2.928490 0.000000 
#    z 0.000000 0.000000 3.587980 
# 
# 
# High freq. dielectric constant tensor:
#      x y z
#    x 1.605850 0.000000 0.000000 
#    y 0.000000 1.605850 0.000000 
#    z 0.000000 0.000000 1.667330 
# 
# From -- ./inp_files/5684.got.cif
#   From: 2010.03.12/outbox.cif.g09.slc.cpg/sg115_3_cif.got.tgz:5684.got - 2010.04.14 02:11:21.
