data_PCOD8310933
_publ_section_title
;
Structure prediction by ZEFSAII (Michael W. Deem and Ramdas Pophale) SiO2 
 PCOD8310933
Probable space group: I -4 M 2
;
_chemical_formula_sum "Si O2"
_cell_formula_units_Z 80
_cell_length_a 17.161981
_cell_length_b 17.161981
_cell_length_c 14.096623
_cell_angle_alpha 90.000000
_cell_angle_beta 90.000000
_cell_angle_gamma 90.000000
_cell_volume 4151.929005
_symmetry_space_group_name_H-M "I -4 M 2"
_symmetry_group_IT_number 119
_symmetry_cell_setting 'tetragonal'
loop_
_space_group_symop_operation_xyz
x,y,z
y,-x,-z
-x,-y,z
-y,x,-z
y,x,-z
-y,-x,-z
-x,y,z
x,-y,z
1/2+x,1/2+y,1/2+z
1/2+y,1/2-x,1/2-z
1/2-x,1/2-y,1/2+z
1/2-y,1/2+x,1/2-z
1/2+y,1/2+x,1/2-z
1/2-y,1/2-x,1/2-z
1/2-x,1/2+y,1/2+z
1/2+x,1/2-y,1/2+z
loop_
_atom_site_type_symbol
_atom_site_label
_atom_site_fract_x
_atom_site_fract_y
_atom_site_fract_z
Si Si1 0.413745 0.089019 0.564939
Si Si2 0.908600 0.818947 0.185972
Si Si3 0.832365 0.832365 0.000000
Si Si4 0.847484 0.347484 0.250000
Si Si5 0.341265 0.179592 0.391587
Si Si6 0.769808 0.089042 0.269244
O O1 0.500000 0.122814 0.585857
O O2 0.363920 0.097591 0.660203
O O3 0.379836 0.131302 0.474424
O O4 0.417353 0.000000 0.535724
O O5 0.865217 0.739972 0.217295
O O6 0.856890 0.886258 0.235760
O O7 0.000000 0.822396 0.217143
O O8 0.907499 0.829418 0.070162
O O9 0.819608 0.763949 0.926905
O O10 0.260616 0.139100 0.358846
O O11 0.402257 0.199817 0.307750
O O12 0.775915 0.000000 0.300433
#
# Coordination Sequence:
#
# PCOD8310933 Si02
#       6
#    16  16   8   8  16  16
#     4  11  22  34  55  88 123 157 193 243 307 363
#     4  11  23  39  62  90 123 162 202 250 304 359
#     4  10  20  36  60  87 114 151 206 242 296 356
#     4  12  22  39  58  86 120 161 198 250 298 366
#     4  10  20  37  61  84 114 155 196 248 293 354
#     4  10  22  39  60  88 119 156 202 249 297 354
#
# _framework density 19.268152000000001
#
# number of rings (size 3 to 8) (size 9 to 14) (size 15 to 20)
#    0.000    1.400    2.000    5.400    0.000    4.400 
#    0.000    0.000    0.000    4.800    0.000    0.000 
#    0.000    0.000    0.000    0.000    0.000    0.000 
#
# Total GULP energy -495656.462753 kJ/mol
# GULP energy per Si atom -12391.411569 kJ/mol
# Density = 1.922430 g / cm^3
# Si number density = 19.268152 Si / 1000 Ang^3
#
#
#
# Elastic Constant Matrix: (Units=GPa)
#
#
# Indices 1 2 3 4 5 6 
#
# 1 55.4999 56.7117 13.1326 0.0000 0.0000 0.0000
# 2 56.7117 55.4999 13.1326 0.0000 0.0000 0.0000
# 3 13.1326 13.1326 54.1222 0.0000 0.0000 0.0000
# 4 0.0000 0.0000 0.0000 42.7345 0.0000 0.0000
# 5 0.0000 0.0000 0.0000 0.0000 42.7345 0.0000
# 6 0.0000 0.0000 0.0000 0.0000 0.0000 25.7786
#
#
#
# Elastic Compliance Matrix: (Units=1/GPa)
#
#
# Indices 1 2 3 4 5 6 
#
# 1 -0.407866 0.417315 -0.002293 0.000000 0.000000 0.000000
# 2 0.417315 -0.407866 -0.002293 0.000000 0.000000 0.000000
# 3 -0.002293 -0.002293 0.019589 0.000000 0.000000 0.000000
# 4 0.000000 0.000000 0.000000 0.023400 0.000000 0.000000
# 5 0.000000 0.000000 0.000000 0.000000 0.023400 0.000000
# 6 0.000000 0.000000 0.000000 0.000000 0.000000 0.038792
#
#
# Mechanical properties :
#
#
# Convention : Reuss Voigt Hill
#
# Bulk Modulus (GPa) = 34.11159 36.78620 35.44889
# Shear Modulus (GPa) = -3.27603 27.72585 12.22491
#
# Velocity S-wave (km/s) = -1.30534 3.79746 2.52159
# Velocity P-wave (km/s) = 3.93321 6.19361 5.18801
#
# Compressibility (1/GPa) = 0.02931555
#
# Stress axis : x y z
#
# Youngs Moduli (GPa) = -2.45178 -2.45178 51.04830
#
# Poissons Ratio (x) = 1.02317 0.11703
# Poissons Ratio (y) = 1.02317 0.11703
# Poissons Ratio (z) = -0.00562 -0.00562
#
# Static dielectric constant tensor:
#      x y z
#    x 3.481700 0.000000 0.000000 
#    y 0.000000 3.481700 0.000000 
#    z 0.000000 0.000000 4.811860 
# 
# 
# High freq. dielectric constant tensor:
#      x y z
#    x 1.746030 0.000000 0.000000 
#    y 0.000000 1.746030 0.000000 
#    z 0.000000 0.000000 1.754380 
# 
# From -- ./inp_files/5314.got.cif
#   From: 2010.03.12/outbox.cif.g09.slc.cpg/sg119_3_cif.got.tgz:5314.got - 2010.04.14 02:25:26.
