data_PCOD8310529
_publ_section_title
;
Structure prediction by ZEFSAII (Michael W. Deem and Ramdas Pophale) SiO2 
 PCOD8310529
Probable space group: P -4 N 2
;
_chemical_formula_sum "Si O2"
_cell_formula_units_Z 48
_cell_length_a 14.423806
_cell_length_b 14.423806
_cell_length_c 10.917273
_cell_angle_alpha 90.000000
_cell_angle_beta 90.000000
_cell_angle_gamma 90.000000
_cell_volume 2271.296938
_symmetry_space_group_name_H-M "P -4 N 2"
_symmetry_group_IT_number 118
_symmetry_cell_setting 'tetragonal'
loop_
_space_group_symop_operation_xyz
x,y,z
y,-x,-z
-x,-y,z
-y,x,-z
1/2+y,1/2+x,1/2-z
1/2-y,1/2-x,1/2-z
1/2-x,1/2+y,1/2+z
1/2+x,1/2-y,1/2+z
loop_
_atom_site_type_symbol
_atom_site_label
_atom_site_fract_x
_atom_site_fract_y
_atom_site_fract_z
Si Si1 0.486395 0.370717 0.934516
Si Si2 0.500000 0.500000 0.286188
Si Si3 0.465444 0.681952 0.414614
Si Si4 0.921869 0.317171 0.379324
Si Si5 0.500000 0.000000 0.543868
Si Si6 0.872111 0.501234 0.679941
Si Si7 0.734629 0.393772 0.390724
O O1 0.482953 0.407009 0.793683
O O2 0.476441 0.261250 0.954704
O O3 0.400627 0.417250 0.005617
O O4 0.516420 0.588099 0.372945
O O5 0.496918 0.761309 0.319099
O O6 0.354016 0.673192 0.409566
O O7 0.506893 0.709627 0.547831
O O8 0.986623 0.408778 0.371191
O O9 0.824338 0.340981 0.448721
O O10 0.908346 0.270280 0.247178
O O11 0.492708 0.908809 0.459471
O O12 0.909631 0.409631 0.750000
O O13 0.908051 0.591950 0.750000
#
# Coordination Sequence:
#
# PCOD8310529 Si02
#       7
#     8   4   8   8   4   8   8
#     4   9  21  40  66 100 131 179 228 280 350 407
#     4  10  21  39  68  92 130 180 214 296 336 410
#     4  12  22  44  65  95 135 171 234 288 341 406
#     4  11  23  45  63 102 133 184 225 283 351 419
#     4  10  21  45  68  86 144 174 220 278 340 408
#     4   9  22  40  67 103 125 179 225 277 343 402
#     4  11  26  38  67  95 132 181 231 277 352 411
#
# _framework density 21.133300999999999
#
# number of rings (size 3 to 8) (size 9 to 14) (size 15 to 20)
#    0.000    2.000    3.333    1.000    2.333    8.000 
#    0.000    0.000    0.000    0.000    0.000    0.000 
#    0.000    0.000    0.000    0.000    0.000    0.000 
#
# Total GULP energy -594794.669393 kJ/mol
# GULP energy per Si atom -12391.555612 kJ/mol
# Density = 2.108520 g / cm^3
# Si number density = 21.133301 Si / 1000 Ang^3
#
#
#
# Elastic Constant Matrix: (Units=GPa)
#
#
# Indices 1 2 3 4 5 6 
#
# 1 173.3201 63.7387 38.0625 0.0000 0.0000 0.0000
# 2 63.7387 173.3199 38.0623 0.0000 0.0000 0.0000
# 3 38.0625 38.0623 74.6007 0.0000 0.0000 0.0000
# 4 0.0000 0.0000 0.0000 25.0243 0.0000 0.0000
# 5 0.0000 0.0000 0.0000 0.0000 25.0242 0.0000
# 6 0.0000 0.0000 0.0000 0.0000 0.0000 27.5894
#
#
#
# Elastic Compliance Matrix: (Units=1/GPa)
#
#
# Indices 1 2 3 4 5 6 
#
# 1 0.007085 -0.002040 -0.002574 0.000000 0.000000 0.000000
# 2 -0.002040 0.007085 -0.002574 0.000000 0.000000 0.000000
# 3 -0.002574 -0.002574 0.016031 0.000000 0.000000 0.000000
# 4 0.000000 0.000000 0.000000 0.039961 0.000000 0.000000
# 5 0.000000 0.000000 0.000000 0.000000 0.039961 0.000000
# 6 0.000000 0.000000 0.000000 0.000000 0.000000 0.036246
#
#
# Mechanical properties :
#
#
# Convention : Reuss Voigt Hill
#
# Bulk Modulus (GPa) = 63.19056 77.88530 70.53793
# Shear Modulus (GPa) = 30.11651 34.28606 32.20129
#
# Velocity S-wave (km/s) = 3.77911 4.03224 3.90772
# Velocity P-wave (km/s) = 7.00058 7.65591 7.33556
#
# Compressibility (1/GPa) = 0.01582515
#
# Stress axis : x y z
#
# Youngs Moduli (GPa) = 141.13757 141.13750 62.37807
#
# Poissons Ratio (x) = 0.28797 0.16056
# Poissons Ratio (y) = 0.28797 0.16056
# Poissons Ratio (z) = 0.36329 0.36329
#
# Static dielectric constant tensor:
#      x y z
#    x 4.190010 0.000000 0.000000 
#    y 0.000000 4.190010 0.000000 
#    z 0.000000 0.000000 3.813230 
# 
# 
# High freq. dielectric constant tensor:
#      x y z
#    x 1.826180 0.000000 0.000000 
#    y 0.000000 1.826180 0.000000 
#    z 0.000000 0.000000 1.824340 
# 
# From -- ./inp_files/3361.got.cif
#   From: 2010.03.12/outbox.cif.g09.slc.cpg/sg118_2_cif.got.tgz:3361.got - 2010.04.14 02:21:17.
