data_PCOD8310737
_publ_section_title
;
Structure prediction by ZEFSAII (Michael W. Deem and Ramdas Pophale) SiO2 
 PCOD8310737
Probable space group: I -4 M 2
;
_chemical_formula_sum "Si O2"
_cell_formula_units_Z 64
_cell_length_a 12.331095
_cell_length_b 12.331095
_cell_length_c 26.055719
_cell_angle_alpha 90.000000
_cell_angle_beta 90.000000
_cell_angle_gamma 90.000000
_cell_volume 3961.925904
_symmetry_space_group_name_H-M "I -4 M 2"
_symmetry_group_IT_number 119
_symmetry_cell_setting 'tetragonal'
loop_
_space_group_symop_operation_xyz
x,y,z
y,-x,-z
-x,-y,z
-y,x,-z
y,x,-z
-y,-x,-z
-x,y,z
x,-y,z
1/2+x,1/2+y,1/2+z
1/2+y,1/2-x,1/2-z
1/2-x,1/2-y,1/2+z
1/2-y,1/2+x,1/2-z
1/2+y,1/2+x,1/2-z
1/2-y,1/2-x,1/2-z
1/2-x,1/2+y,1/2+z
1/2+x,1/2-y,1/2+z
loop_
_atom_site_type_symbol
_atom_site_label
_atom_site_fract_x
_atom_site_fract_y
_atom_site_fract_z
Si Si1 0.883689 0.383689 0.250000
Si Si2 0.706988 0.628287 0.390198
Si Si3 0.876959 0.876959 0.000000
Si Si4 0.871979 0.000000 0.177005
Si Si5 0.870700 0.000000 0.294206
Si Si6 0.621920 0.722934 0.840408
O O1 0.877085 0.500000 0.279759
O O2 0.783335 0.377985 0.213227
O O3 0.731945 0.500000 0.382120
O O4 0.690000 0.654792 0.449894
O O5 0.606915 0.665594 0.354145
O O6 0.807256 0.706965 0.379161
O O7 0.000000 0.857207 0.983847
O O8 0.824396 0.000000 0.235378
O O9 0.000000 0.000000 0.178977
O O10 0.830443 0.103988 0.326968
O O11 0.000000 0.000000 0.290170
O O12 0.500000 0.714584 0.863046
#
# Coordination Sequence:
#
# PCOD8310737 Si02
#       6
#     8  16   8   8   8  16
#     4   9  16  26  42  68 100 125 148 190 248 297
#     4  10  18  29  50  75  99 122 153 199 248 297
#     4   9  16  30  50  76  99 118 150 198 253 294
#     4   9  16  28  46  75  99 125 155 190 235 293
#     4   9  18  30  44  63  97 135 169 192 219 273
#     4  10  19  30  45  68  97 132 163 197 234 284
#
# _framework density 16.153760999999999
#
# number of rings (size 3 to 8) (size 9 to 14) (size 15 to 20)
#    0.000    2.500    1.250    2.250    0.000    5.500 
#    0.000    0.000    2.750    0.750    0.000    1.750 
#    0.000    0.000    0.000    0.000    0.000    0.000 
#
# Total GULP energy -396456.862771 kJ/mol
# GULP energy per Si atom -12389.276962 kJ/mol
# Density = 1.611699 g / cm^3
# Si number density = 16.153761 Si / 1000 Ang^3
#
#
#
# Elastic Constant Matrix: (Units=GPa)
#
#
# Indices 1 2 3 4 5 6 
#
# 1 90.2021 45.0630 47.2295 0.0000 0.0000 0.0000
# 2 45.0630 90.2021 47.2295 0.0000 0.0000 0.0000
# 3 47.2295 47.2295 91.0788 0.0000 0.0000 0.0000
# 4 0.0000 0.0000 0.0000 22.4688 0.0000 0.0000
# 5 0.0000 0.0000 0.0000 0.0000 22.4688 0.0000
# 6 0.0000 0.0000 0.0000 0.0000 0.0000 17.8853
#
#
#
# Elastic Compliance Matrix: (Units=1/GPa)
#
#
# Indices 1 2 3 4 5 6 
#
# 1 0.016872 -0.005282 -0.006010 0.000000 0.000000 0.000000
# 2 -0.005282 0.016872 -0.006010 0.000000 0.000000 0.000000
# 3 -0.006010 -0.006010 0.017213 0.000000 0.000000 0.000000
# 4 0.000000 0.000000 0.000000 0.044506 0.000000 0.000000
# 5 0.000000 0.000000 0.000000 0.000000 0.044506 0.000000
# 6 0.000000 0.000000 0.000000 0.000000 0.000000 0.055912
#
#
# Mechanical properties :
#
#
# Convention : Reuss Voigt Hill
#
# Bulk Modulus (GPa) = 61.15366 61.16968 61.16167
# Shear Modulus (GPa) = 21.19230 21.36197 21.27713
#
# Velocity S-wave (km/s) = 3.62596 3.64045 3.63321
# Velocity P-wave (km/s) = 7.44779 7.45787 7.45283
#
# Compressibility (1/GPa) = 0.01635225
#
# Stress axis : x y z
#
# Youngs Moduli (GPa) = 59.27066 59.27066 58.09729
#
# Poissons Ratio (x) = 0.31307 0.34916
# Poissons Ratio (y) = 0.31307 0.34916
# Poissons Ratio (z) = 0.35621 0.35621
#
# Static dielectric constant tensor:
#      x y z
#    x 3.135230 0.000000 0.000000 
#    y 0.000000 3.135230 0.000000 
#    z 0.000000 0.000000 2.819100 
# 
# 
# High freq. dielectric constant tensor:
#      x y z
#    x 1.605760 0.000000 0.000000 
#    y 0.000000 1.605760 0.000000 
#    z 0.000000 0.000000 1.605020 
# 
# From -- ./inp_files/8565.got.cif
#   From: 2010.03.12/outbox.cif.g09.slc.cpg/sg119_5_cif.got.tgz:8565.got - 2010.04.14 02:25:26.
