data_PCOD8310379
_publ_section_title
;
Structure prediction by ZEFSAII (Michael W. Deem and Ramdas Pophale) SiO2 
 PCOD8310379
Probable space group: P -4 B 2
;
_chemical_formula_sum "Si O2"
_cell_formula_units_Z 58
_cell_length_a 17.968528
_cell_length_b 17.968528
_cell_length_c 9.360637
_cell_angle_alpha 90.000000
_cell_angle_beta 90.000000
_cell_angle_gamma 90.000000
_cell_volume 3022.250133
_symmetry_space_group_name_H-M "P -4 B 2"
_symmetry_group_IT_number 117
_symmetry_cell_setting 'tetragonal'
loop_
_space_group_symop_operation_xyz
x,y,z
y,-x,-z
-x,-y,z
-y,x,-z
1/2+y,1/2+x,-z
1/2-y,1/2-x,-z
1/2-x,1/2+y,z
1/2+x,1/2-y,z
loop_
_atom_site_type_symbol
_atom_site_label
_atom_site_fract_x
_atom_site_fract_y
_atom_site_fract_z
Si Si1 0.618992 0.465073 0.981996
Si Si2 0.546251 0.722025 0.755286
Si Si3 0.885256 0.493098 0.166920
Si Si4 0.936752 0.849716 0.550185
Si Si5 0.508217 0.120272 0.169875
Si Si6 0.000000 0.000000 0.500000
Si Si7 0.481030 0.278508 0.290337
Si Si8 0.850824 0.227533 0.494441
O O1 0.679125 0.437065 0.098124
O O2 0.549069 0.408742 0.985986
O O3 0.662042 0.459237 0.831678
O O4 0.521174 0.806033 0.767505
O O5 0.476337 0.684070 0.684295
O O6 0.617975 0.717074 0.654299
O O7 0.935830 0.424800 0.224563
O O8 0.919380 0.572475 0.217238
O O9 0.877473 0.497261 0.998381
O O10 0.852105 0.824676 0.562214
O O11 0.964317 0.821756 0.396395
O O12 0.946032 0.939622 0.576285
O O13 0.518506 0.204051 0.226689
O O14 0.411683 0.245385 0.379816
O O15 0.782119 0.282119 0.500000
#
# Coordination Sequence:
#
# PCOD8310379 Si02
#       8
#     8   8   8   8   8   2   8   8
#     4  11  24  36  58  89 122 150 202 254 298 364
#     4  11  21  39  60  88 117 157 195 248 310 354
#     4   9  18  35  60  86 115 154 194 237 293 362
#     4  11  24  37  66  83 117 165 202 249 302 360
#     4   9  18  35  60  86 115 154 194 237 293 362
#     4  12  20  44  64  82 112 164 228 226 288 376
#     4  11  21  39  60  88 117 157 195 248 310 354
#     4  11  24  41  59  86 120 158 202 247 305 364
#
# _framework density 19.190999999999999
#
# number of rings (size 3 to 8) (size 9 to 14) (size 15 to 20)
#    0.000    1.517    4.138    3.310    0.000    1.103 
#    0.000    2.069    0.000    9.103    0.000    0.000 
#    0.000    0.000    0.000    0.000    0.000    0.000 
#
# Total GULP energy -718725.399427 kJ/mol
# GULP energy per Si atom -12391.817231 kJ/mol
# Density = 1.914732 g / cm^3
# Si number density = 19.191000 Si / 1000 Ang^3
#
#
#
# Elastic Constant Matrix: (Units=GPa)
#
#
# Indices 1 2 3 4 5 6 
#
# 1 104.7502 16.1239 7.3865 0.0000 0.0000 0.0000
# 2 16.1239 104.7502 7.3865 0.0000 0.0000 0.0000
# 3 7.3865 7.3865 60.2977 0.0000 0.0000 0.0000
# 4 0.0000 0.0000 0.0000 -91.3281 0.0000 0.0000
# 5 0.0000 0.0000 0.0000 0.0000 -91.3281 0.0000
# 6 0.0000 0.0000 0.0000 0.0000 0.0000 33.7066
#
#
#
# Elastic Compliance Matrix: (Units=1/GPa)
#
#
# Indices 1 2 3 4 5 6 
#
# 1 0.009841 -0.001442 -0.001029 0.000000 0.000000 0.000000
# 2 -0.001442 0.009841 -0.001029 0.000000 0.000000 0.000000
# 3 -0.001029 -0.001029 0.016836 0.000000 0.000000 0.000000
# 4 0.000000 0.000000 0.000000 -0.010950 0.000000 0.000000
# 5 0.000000 0.000000 0.000000 0.000000 -0.010950 0.000000
# 6 0.000000 0.000000 0.000000 0.000000 0.000000 0.029668
#
#
# Mechanical properties :
#
#
# Convention : Reuss Voigt Hill
#
# Bulk Modulus (GPa) = 33.87688 36.84354 35.36021
# Shear Modulus (GPa) = 81.79715 -13.86319 33.96698
#
# Velocity S-wave (km/s) = 6.53569 -2.69063 4.21163
# Velocity P-wave (km/s) = 8.63970 3.09635 6.48968
#
# Compressibility (1/GPa) = 0.02951866
#
# Stress axis : x y z
#
# Youngs Moduli (GPa) = 101.61493 101.61493 59.39491
#
# Poissons Ratio (x) = 0.14656 0.06111
# Poissons Ratio (y) = 0.14656 0.06111
# Poissons Ratio (z) = 0.10455 0.10455
#
# Static dielectric constant tensor:
#      x y z
#    x 3.871260 0.000000 0.000000 
#    y 0.000000 3.871260 0.000000 
#    z 0.000000 0.000000 3.479130 
# 
# 
# High freq. dielectric constant tensor:
#      x y z
#    x 1.749660 0.000000 0.000000 
#    y 0.000000 1.749660 0.000000 
#    z 0.000000 0.000000 1.743460 
# 
# From -- ./inp_files/2070.got.cif
#   From: 2010.03.12/outbox.cif.g09.slc.cpg/sg117_2_cif.got.tgz:2070.got - 2010.04.14 02:19:01.
