data_PCOD8310218
_publ_section_title
;
Structure prediction by ZEFSAII (Michael W. Deem and Ramdas Pophale) SiO2 
 PCOD8310218
Probable space group: P -4 C 2
;
_chemical_formula_sum "Si O2"
_cell_formula_units_Z 24
_cell_length_a 9.942926
_cell_length_b 9.942926
_cell_length_c 10.036558
_cell_angle_alpha 90.000000
_cell_angle_beta 90.000000
_cell_angle_gamma 90.000000
_cell_volume 992.231963
_symmetry_space_group_name_H-M "P -4 C 2"
_symmetry_group_IT_number 116
_symmetry_cell_setting 'tetragonal'
loop_
_space_group_symop_operation_xyz
x,y,z
y,-x,-z
-x,-y,z
-y,x,-z
y,x,1/2-z
-y,-x,1/2-z
-x,y,1/2+z
x,-y,1/2+z
loop_
_atom_site_type_symbol
_atom_site_label
_atom_site_fract_x
_atom_site_fract_y
_atom_site_fract_z
Si Si1 0.000000 0.500000 0.761682
Si Si2 0.500000 0.500000 0.750000
Si Si3 0.857233 0.255624 0.879581
Si Si4 0.382595 0.251044 0.864248
Si Si5 0.000000 0.000000 0.500000
O O1 0.964785 0.373596 0.854934
O O2 0.883010 0.535240 0.659905
O O3 0.491287 0.372591 0.851066
O O4 0.765987 0.234014 0.750000
O O5 0.756001 0.305130 0.995413
O O6 0.934584 0.117207 0.911120
O O7 0.268868 0.268868 0.750000
#
# Coordination Sequence:
#
# PCOD8310218 Si02
#       5
#     4   2   8   8   2
#     4  12  26  48  80 120 156 216 262 344 410 490
#     4   8  24  52  84 102 162 202 266 332 400 488
#     4  12  27  48  83 119 161 214 275 338 406 493
#     4  10  24  51  78 116 156 214 264 336 404 489
#     4  12  26  52  80 130 166 216 268 350 414 484
#
# _framework density 24.187891
#
# number of rings (size 3 to 8) (size 9 to 14) (size 15 to 20)
#    1.000    0.000    0.000    5.500    2.333    2.667 
#    0.000    2.500    0.000    0.000    0.000    0.000 
#    0.000    0.000    0.000    0.000    0.000    0.000 
#
# Total GULP energy -297484.398652 kJ/mol
# GULP energy per Si atom -12395.183277 kJ/mol
# Density = 2.413284 g / cm^3
# Si number density = 24.187891 Si / 1000 Ang^3
#
#
#
# Elastic Constant Matrix: (Units=GPa)
#
#
# Indices 1 2 3 4 5 6 
#
# 1 161.0230 80.2389 86.7744 0.0000 0.0000 0.0000
# 2 80.2389 161.0227 86.7740 0.0000 0.0000 0.0000
# 3 86.7744 86.7740 188.6739 0.0000 0.0000 0.0000
# 4 0.0000 0.0000 0.0000 25.4936 0.0000 0.0000
# 5 0.0000 0.0000 0.0000 0.0000 25.4933 0.0000
# 6 0.0000 0.0000 0.0000 0.0000 0.0000 49.1414
#
#
#
# Elastic Compliance Matrix: (Units=1/GPa)
#
#
# Indices 1 2 3 4 5 6 
#
# 1 0.009286 -0.003092 -0.002849 0.000000 0.000000 0.000000
# 2 -0.003092 0.009286 -0.002849 0.000000 0.000000 0.000000
# 3 -0.002849 -0.002849 0.007921 0.000000 0.000000 0.000000
# 4 0.000000 0.000000 0.000000 0.039225 0.000000 0.000000
# 5 0.000000 0.000000 0.000000 0.000000 0.039226 0.000000
# 6 0.000000 0.000000 0.000000 0.000000 0.000000 0.020349
#
#
# Mechanical properties :
#
#
# Convention : Reuss Voigt Hill
#
# Bulk Modulus (GPa) = 112.18726 113.14380 112.66553
# Shear Modulus (GPa) = 34.28293 37.15449 35.71871
#
# Velocity S-wave (km/s) = 3.76887 3.92353 3.84698
# Velocity P-wave (km/s) = 8.08835 8.21000 8.14940
#
# Compressibility (1/GPa) = 0.00891367
#
# Stress axis : x y z
#
# Youngs Moduli (GPa) = 107.68441 107.68438 126.25411
#
# Poissons Ratio (x) = 0.33299 0.35967
# Poissons Ratio (y) = 0.33299 0.35967
# Poissons Ratio (z) = 0.30677 0.30677
#
# Static dielectric constant tensor:
#      x y z
#    x 4.421540 0.000000 0.000000 
#    y 0.000000 4.421550 0.000000 
#    z 0.000000 0.000000 4.161360 
# 
# 
# High freq. dielectric constant tensor:
#      x y z
#    x 1.968980 0.000000 0.000000 
#    y 0.000000 1.968980 0.000000 
#    z 0.000000 0.000000 1.958820 
# 
# From -- ./inp_files/554.got.cif
#   From: 2010.03.12/outbox.cif.g09.slc.cpg/sg116_1_cif.got.tgz:554.got - 2010.04.14 02:15:44.
