data_PCOD8310116
_publ_section_title
;
Structure prediction by ZEFSAII (Michael W. Deem and Ramdas Pophale) SiO2 
 PCOD8310116
Probable space group: P -4 C 2
;
_chemical_formula_sum "Si O2"
_cell_formula_units_Z 32
_cell_length_a 13.694687
_cell_length_b 13.694687
_cell_length_c 8.615242
_cell_angle_alpha 90.000000
_cell_angle_beta 90.000000
_cell_angle_gamma 90.000000
_cell_volume 1615.740840
_symmetry_space_group_name_H-M "P -4 C 2"
_symmetry_group_IT_number 116
_symmetry_cell_setting 'tetragonal'
loop_
_space_group_symop_operation_xyz
x,y,z
y,-x,-z
-x,-y,z
-y,x,-z
y,x,1/2-z
-y,-x,1/2-z
-x,y,1/2+z
x,-y,1/2+z
loop_
_atom_site_type_symbol
_atom_site_label
_atom_site_fract_x
_atom_site_fract_y
_atom_site_fract_z
Si Si1 0.889989 0.598354 0.574499
Si Si2 0.111342 0.927106 0.585429
Si Si3 0.385812 0.096425 0.557546
Si Si4 0.239389 0.745612 0.921651
O O1 0.877144 0.487052 0.524301
O O2 0.902584 0.604235 0.758209
O O3 0.787811 0.650119 0.522644
O O4 0.987581 0.645475 0.496862
O O5 0.060219 0.939782 0.750000
O O6 0.210395 0.868344 0.600388
O O7 0.035859 0.868100 0.475672
O O8 0.309576 0.179987 0.509740
O O9 0.281308 0.718693 0.750000
#
# Coordination Sequence:
#
# PCOD8310116 Si02
#       4
#     8   8   8   8
#     4  11  22  38  59  84 114 150 189 234 283 335
#     4  10  20  31  46  68 101 139 175 214 259 313
#     4  11  22  38  59  84 114 150 189 234 283 335
#     4  11  22  36  55  81 109 142 185 232 278 332
#
# _framework density 19.805156
#
# number of rings (size 3 to 8) (size 9 to 14) (size 15 to 20)
#    0.000    1.250    0.000    9.750    0.000    8.000 
#    0.000    0.000    0.000    0.750    0.000    5.250 
#    0.000    0.000    0.000    0.000    0.000    0.000 
#
# Total GULP energy -396587.709094 kJ/mol
# GULP energy per Si atom -12393.365909 kJ/mol
# Density = 1.976008 g / cm^3
# Si number density = 19.805156 Si / 1000 Ang^3
#
#
#
# Elastic Constant Matrix: (Units=GPa)
#
#
# Indices 1 2 3 4 5 6 
#
# 1 72.8081 46.1642 33.6447 0.0000 0.0000 0.0000
# 2 46.1642 72.8080 33.6446 0.0000 0.0000 0.0000
# 3 33.6447 33.6446 183.9619 0.0000 0.0000 0.0000
# 4 0.0000 0.0000 0.0000 22.5500 0.0000 0.0000
# 5 0.0000 0.0000 0.0000 0.0000 22.5511 0.0000
# 6 0.0000 0.0000 0.0000 0.0000 0.0000 44.1643
#
#
#
# Elastic Compliance Matrix: (Units=1/GPa)
#
#
# Indices 1 2 3 4 5 6 
#
# 1 0.023454 -0.014079 -0.001715 0.000000 0.000000 0.000000
# 2 -0.014079 0.023454 -0.001715 0.000000 0.000000 0.000000
# 3 -0.001715 -0.001715 0.006063 0.000000 0.000000 0.000000
# 4 0.000000 0.000000 0.000000 0.044346 0.000000 0.000000
# 5 0.000000 0.000000 0.000000 0.000000 0.044344 0.000000
# 6 0.000000 0.000000 0.000000 0.000000 0.000000 0.022643
#
#
# Mechanical properties :
#
#
# Convention : Reuss Voigt Hill
#
# Bulk Modulus (GPa) = 55.69532 61.83165 58.76349
# Shear Modulus (GPa) = 24.35424 32.26138 28.30781
#
# Velocity S-wave (km/s) = 3.51050 4.04039 3.78473
# Velocity P-wave (km/s) = 6.67938 7.28382 6.98814
#
# Compressibility (1/GPa) = 0.01795483
#
# Stress axis : x y z
#
# Youngs Moduli (GPa) = 42.63737 42.63741 164.93287
#
# Poissons Ratio (x) = 0.60027 0.28280
# Poissons Ratio (y) = 0.60027 0.28279
# Poissons Ratio (z) = 0.07311 0.07311
#
# Static dielectric constant tensor:
#      x y z
#    x 3.506910 0.000000 0.000000 
#    y 0.000000 3.506910 0.000000 
#    z 0.000000 0.000000 3.895270 
# 
# 
# High freq. dielectric constant tensor:
#      x y z
#    x 1.756390 0.000000 0.000000 
#    y 0.000000 1.756390 0.000000 
#    z 0.000000 0.000000 1.795260 
# 
# From -- ./inp_files/639.got.cif
#   From: 2010.03.12/outbox.cif.g09.slc.cpg/sg116_1_cif.got.tgz:639.got - 2010.04.14 02:15:44.
