data_PCOD8310143
_publ_section_title
;
Structure prediction by ZEFSAII (Michael W. Deem and Ramdas Pophale) SiO2 
 PCOD8310143
Probable space group: P -4 C 2
;
_chemical_formula_sum "Si O2"
_cell_formula_units_Z 54
_cell_length_a 15.338437
_cell_length_b 15.338437
_cell_length_c 10.582691
_cell_angle_alpha 90.000000
_cell_angle_beta 90.000000
_cell_angle_gamma 90.000000
_cell_volume 2489.764838
_symmetry_space_group_name_H-M "P -4 C 2"
_symmetry_group_IT_number 116
_symmetry_cell_setting 'tetragonal'
loop_
_space_group_symop_operation_xyz
x,y,z
y,-x,-z
-x,-y,z
-y,x,-z
y,x,1/2-z
-y,-x,1/2-z
-x,y,1/2+z
x,-y,1/2+z
loop_
_atom_site_type_symbol
_atom_site_label
_atom_site_fract_x
_atom_site_fract_y
_atom_site_fract_z
Si Si1 0.381960 0.437081 0.488307
Si Si2 0.333481 0.333481 0.250000
Si Si3 0.051402 0.734719 0.737977
Si Si4 0.000000 0.000000 0.500000
Si Si5 0.155605 0.575151 0.775898
Si Si6 0.868104 0.134027 0.929837
Si Si7 0.565811 0.808418 0.936493
Si Si8 0.142106 0.248381 0.662960
O O1 0.400907 0.534545 0.434382
O O2 0.378083 0.373108 0.371366
O O3 0.296186 0.434096 0.574464
O O4 0.353447 0.231131 0.248049
O O5 0.068011 0.630795 0.753037
O O6 0.096711 0.783894 0.853106
O O7 0.096514 0.773690 0.611484
O O8 0.947519 0.745773 0.740656
O O9 0.063629 0.055677 0.410588
O O10 0.155659 0.497794 0.672804
O O11 0.162390 0.537545 0.920267
O O12 0.862639 0.164591 0.072884
O O13 0.662780 0.842674 0.912818
O O14 0.225856 0.225856 0.750000
#
# Coordination Sequence:
#
# PCOD8310143 Si02
#       8
#     8   4   8   2   8   8   8   8
#     4  10  21  38  63  98 135 170 222 281 350 420
#     4  10  20  39  64  92 135 176 224 278 354 426
#     4  11  25  43  72  96 144 195 235 298 368 436
#     4  12  20  38  68 108 154 176 238 308 364 442
#     4  11  24  48  72 103 139 192 247 292 367 434
#     4  11  23  42  69 106 145 191 235 299 372 445
#     4  11  26  47  72 103 140 190 241 297 361 441
#     4  12  27  45  69 109 144 185 242 304 363 443
#
# _framework density 21.688794999999999
#
# number of rings (size 3 to 8) (size 9 to 14) (size 15 to 20)
#    0.000    1.037    4.444    1.778    2.074    5.926 
#    0.000    1.481    0.000    0.000    0.000    0.000 
#    0.000    0.000    0.000    0.000    0.000    0.000 
#
# Total GULP energy -669433.430562 kJ/mol
# GULP energy per Si atom -12396.915381 kJ/mol
# Density = 2.163943 g / cm^3
# Si number density = 21.688795 Si / 1000 Ang^3
#
#
#
# Elastic Constant Matrix: (Units=GPa)
#
#
# Indices 1 2 3 4 5 6 
#
# 1 92.9662 29.3835 36.2226 0.0000 0.0000 0.0000
# 2 29.3835 92.9662 36.2226 0.0000 0.0000 0.0000
# 3 36.2226 36.2226 103.6453 0.0000 0.0000 0.0000
# 4 0.0000 0.0000 0.0000 35.8607 0.0000 0.0000
# 5 0.0000 0.0000 0.0000 0.0000 35.8607 0.0000
# 6 0.0000 0.0000 0.0000 0.0000 0.0000 39.1127
#
#
#
# Elastic Compliance Matrix: (Units=1/GPa)
#
#
# Indices 1 2 3 4 5 6 
#
# 1 0.013017 -0.002711 -0.003602 0.000000 0.000000 0.000000
# 2 -0.002711 0.013017 -0.003602 0.000000 0.000000 0.000000
# 3 -0.003602 -0.003602 0.012166 0.000000 0.000000 0.000000
# 4 0.000000 0.000000 0.000000 0.027886 0.000000 0.000000
# 5 0.000000 0.000000 0.000000 0.000000 0.027886 0.000000
# 6 0.000000 0.000000 0.000000 0.000000 0.000000 0.025567
#
#
# Mechanical properties :
#
#
# Convention : Reuss Voigt Hill
#
# Bulk Modulus (GPa) = 54.43476 54.80389 54.61933
# Shear Modulus (GPa) = 34.36659 34.68342 34.52501
#
# Velocity S-wave (km/s) = 3.98494 4.00326 3.99411
# Velocity P-wave (km/s) = 6.80629 6.83310 6.81971
#
# Compressibility (1/GPa) = 0.01837061
#
# Stress axis : x y z
#
# Youngs Moduli (GPa) = 76.82405 76.82405 82.19738
#
# Poissons Ratio (x) = 0.20825 0.29606
# Poissons Ratio (y) = 0.20825 0.29606
# Poissons Ratio (z) = 0.27670 0.27670
#
# Static dielectric constant tensor:
#      x y z
#    x 3.790550 0.000000 0.000000 
#    y 0.000000 3.790550 0.000000 
#    z 0.000000 0.000000 3.796750 
# 
# 
# High freq. dielectric constant tensor:
#      x y z
#    x 1.855080 0.000000 0.000000 
#    y 0.000000 1.855080 0.000000 
#    z 0.000000 0.000000 1.842570 
# 
# From -- ./inp_files/2020.got.cif
#   From: 2010.03.12/outbox.cif.g09.slc.cpg/sg116_2_cif.got.tgz:2020.got - 2010.04.14 02:15:44.
