data_PCOD8310450
_publ_section_title
;
Structure prediction by ZEFSAII (Michael W. Deem and Ramdas Pophale) SiO2 
 PCOD8310450
Probable space group: P -4 N 2
;
_chemical_formula_sum "Si O2"
_cell_formula_units_Z 32
_cell_length_a 13.604294
_cell_length_b 13.604294
_cell_length_c 8.454724
_cell_angle_alpha 90.000000
_cell_angle_beta 90.000000
_cell_angle_gamma 90.000000
_cell_volume 1564.773392
_symmetry_space_group_name_H-M "P -4 N 2"
_symmetry_group_IT_number 118
_symmetry_cell_setting 'tetragonal'
loop_
_space_group_symop_operation_xyz
x,y,z
y,-x,-z
-x,-y,z
-y,x,-z
1/2+y,1/2+x,1/2-z
1/2-y,1/2-x,1/2-z
1/2-x,1/2+y,1/2+z
1/2+x,1/2-y,1/2+z
loop_
_atom_site_type_symbol
_atom_site_label
_atom_site_fract_x
_atom_site_fract_y
_atom_site_fract_z
Si Si1 0.413299 0.377730 0.055712
Si Si2 0.246632 0.112564 0.151047
Si Si3 0.223451 0.283164 0.936598
Si Si4 0.097614 0.455192 0.572917
O O1 0.432164 0.339185 0.235337
O O2 0.372149 0.488876 0.051701
O O3 0.334841 0.306244 0.978316
O O4 0.320033 0.179968 0.250000
O O5 0.308842 0.027030 0.068162
O O6 0.195995 0.177867 0.013533
O O7 0.216723 0.283278 0.750000
O O8 0.147376 0.365659 0.005300
O O9 0.065393 0.434608 0.750000
O O10 0.000000 0.500000 0.484823
#
# Coordination Sequence:
#
# PCOD8310450 Si02
#       4
#     8   8   8   8
#     4  10  21  37  59  82 117 160 202 247 307 378
#     4  10  20  37  59  85 118 156 200 253 310 371
#     4  10  22  35  57  89 121 157 202 256 311 378
#     4  10  18  34  63  87 112 160 211 257 308 380
#
# _framework density 20.450244999999999
#
# number of rings (size 3 to 8) (size 9 to 14) (size 15 to 20)
#    0.000    2.000    2.500    3.000    3.500    2.000 
#    0.000    0.000    0.000    3.000    0.000    0.000 
#    0.000    0.000    0.000    0.000    0.000    0.000 
#
# Total GULP energy -396551.816908 kJ/mol
# GULP energy per Si atom -12392.244278 kJ/mol
# Density = 2.040370 g / cm^3
# Si number density = 20.450245 Si / 1000 Ang^3
#
#
#
# Elastic Constant Matrix: (Units=GPa)
#
#
# Indices 1 2 3 4 5 6 
#
# 1 102.7531 45.1336 31.8769 0.0000 0.0000 0.0000
# 2 45.1336 102.7559 31.8772 0.0000 0.0000 0.0000
# 3 31.8769 31.8772 48.4887 0.0000 0.0000 0.0000
# 4 0.0000 0.0000 0.0000 14.0974 0.0000 0.0000
# 5 0.0000 0.0000 0.0000 0.0000 14.0985 0.0000
# 6 0.0000 0.0000 0.0000 0.0000 0.0000 50.4525
#
#
#
# Elastic Compliance Matrix: (Units=1/GPa)
#
#
# Indices 1 2 3 4 5 6 
#
# 1 0.013396 -0.003959 -0.006204 0.000000 0.000000 0.000000
# 2 -0.003959 0.013395 -0.006203 0.000000 0.000000 0.000000
# 3 -0.006204 -0.006203 0.028780 0.000000 0.000000 0.000000
# 4 0.000000 0.000000 0.000000 0.070935 0.000000 0.000000
# 5 0.000000 0.000000 0.000000 0.000000 0.070930 0.000000
# 6 0.000000 0.000000 0.000000 0.000000 0.000000 0.019821
#
#
# Mechanical properties :
#
#
# Convention : Reuss Voigt Hill
#
# Bulk Modulus (GPa) = 43.78601 52.41923 48.10262
# Shear Modulus (GPa) = 19.40983 25.40367 22.40675
#
# Velocity S-wave (km/s) = 3.08413 3.52834 3.31368
# Velocity P-wave (km/s) = 5.84294 6.50285 6.18171
#
# Compressibility (1/GPa) = 0.02283835
#
# Stress axis : x y z
#
# Youngs Moduli (GPa) = 74.65091 74.65316 34.74659
#
# Poissons Ratio (x) = 0.29558 0.21555
# Poissons Ratio (y) = 0.29557 0.21555
# Poissons Ratio (z) = 0.46310 0.46310
#
# Static dielectric constant tensor:
#      x y z
#    x 4.214090 0.000000 0.000000 
#    y 0.000000 4.214080 0.000000 
#    z 0.000000 0.000000 3.503120 
# 
# 
# High freq. dielectric constant tensor:
#      x y z
#    x 1.809010 0.000000 0.000000 
#    y 0.000000 1.809010 0.000000 
#    z 0.000000 0.000000 1.752360 
# 
# From -- ./inp_files/1614.got.cif
#   From: 2010.03.12/outbox.cif.g09.slc.cpg/sg118_1_cif.got.tgz:1614.got - 2010.04.14 02:21:17.
