data_PCOD8310708
_publ_section_title
;
Structure prediction by ZEFSAII (Michael W. Deem and Ramdas Pophale) SiO2 
 PCOD8310708
Probable space group: I -4 M 2
;
_chemical_formula_sum "Si O2"
_cell_formula_units_Z 112
_cell_length_a 17.403742
_cell_length_b 17.403742
_cell_length_c 21.174481
_cell_angle_alpha 90.000000
_cell_angle_beta 90.000000
_cell_angle_gamma 90.000000
_cell_volume 6413.543539
_symmetry_space_group_name_H-M "I -4 M 2"
_symmetry_group_IT_number 119
_symmetry_cell_setting 'tetragonal'
loop_
_space_group_symop_operation_xyz
x,y,z
y,-x,-z
-x,-y,z
-y,x,-z
y,x,-z
-y,-x,-z
-x,y,z
x,-y,z
1/2+x,1/2+y,1/2+z
1/2+y,1/2-x,1/2-z
1/2-x,1/2-y,1/2+z
1/2-y,1/2+x,1/2-z
1/2+y,1/2+x,1/2-z
1/2-y,1/2-x,1/2-z
1/2-x,1/2+y,1/2+z
1/2+x,1/2-y,1/2+z
loop_
_atom_site_type_symbol
_atom_site_label
_atom_site_fract_x
_atom_site_fract_y
_atom_site_fract_z
Si Si1 0.236926 0.086055 0.247125
Si Si2 0.720333 0.172030 0.681064
Si Si3 0.686654 0.184985 0.348792
Si Si4 0.589035 0.090131 0.447878
Si Si5 0.364988 0.586122 0.189622
Si Si6 0.846747 0.586033 0.080483
Si Si7 0.667747 0.415491 0.051688
O O1 0.293907 0.116516 0.300927
O O2 0.251345 0.131025 0.182071
O O3 0.147642 0.090032 0.267755
O O4 0.260959 0.000000 0.233498
O O5 0.705033 0.205033 0.750000
O O6 0.768888 0.233655 0.638222
O O7 0.773290 0.098071 0.695739
O O8 0.645192 0.143810 0.641245
O O9 0.645944 0.145840 0.408943
O O10 0.500000 0.105259 0.429661
O O11 0.600883 0.111779 0.521575
O O12 0.610202 0.000000 0.436874
O O13 0.386744 0.500000 0.212194
O O14 0.382837 0.597450 0.115118
O O15 0.870460 0.500000 0.100803
O O16 0.757931 0.591671 0.062596
O O17 0.649050 0.500000 0.024879
O O18 0.646974 0.353027 0.000000
#
# Coordination Sequence:
#
# PCOD8310708 Si02
#       7
#    16  16  16  16  16  16  16
#     4  10  19  31  48  71  99 131 173 213 246 299
#     4  10  17  33  54  78  99 129 169 211 252 295
#     4  10  19  33  50  75  98 133 172 215 255 298
#     4  10  21  36  52  73 104 137 170 212 261 308
#     4   9  18  32  46  67 101 133 162 204 255 303
#     4   9  20  34  52  76 102 133 165 202 251 306
#     4   9  18  29  43  66  96 130 164 198 236 286
#
# _framework density 17.463045999999999
#
# number of rings (size 3 to 8) (size 9 to 14) (size 15 to 20)
#    0.000    2.429    2.857    2.143    6.000    1.000 
#    0.000    2.857    0.000    3.429    0.000    0.000 
#    0.000    0.000    0.000    0.000    0.000    0.000 
#
# Total GULP energy -693751.873378 kJ/mol
# GULP energy per Si atom -12388.426310 kJ/mol
# Density = 1.742330 g / cm^3
# Si number density = 17.463046 Si / 1000 Ang^3
#
#
#
# Elastic Constant Matrix: (Units=GPa)
#
#
# Indices 1 2 3 4 5 6 
#
# 1 62.3378 24.2428 28.8699 0.0000 0.0000 0.0000
# 2 24.2428 62.3382 28.8702 0.0000 0.0000 0.0000
# 3 28.8699 28.8702 67.2730 0.0000 0.0000 0.0000
# 4 0.0000 0.0000 0.0000 22.5963 0.0000 0.0000
# 5 0.0000 0.0000 0.0000 0.0000 22.5960 0.0000
# 6 0.0000 0.0000 0.0000 0.0000 0.0000 16.2498
#
#
#
# Elastic Compliance Matrix: (Units=1/GPa)
#
#
# Indices 1 2 3 4 5 6 
#
# 1 0.021215 -0.005035 -0.006944 0.000000 0.000000 0.000000
# 2 -0.005035 0.021215 -0.006944 0.000000 0.000000 0.000000
# 3 -0.006944 -0.006944 0.020825 0.000000 0.000000 0.000000
# 4 0.000000 0.000000 0.000000 0.044255 0.000000 0.000000
# 5 0.000000 0.000000 0.000000 0.000000 0.044256 0.000000
# 6 0.000000 0.000000 0.000000 0.000000 0.000000 0.061539
#
#
# Mechanical properties :
#
#
# Convention : Reuss Voigt Hill
#
# Bulk Modulus (GPa) = 39.35374 39.54607 39.44990
# Shear Modulus (GPa) = 19.25886 19.61948 19.43917
#
# Velocity S-wave (km/s) = 3.32450 3.35548 3.34003
# Velocity P-wave (km/s) = 6.10907 6.14061 6.12486
#
# Compressibility (1/GPa) = 0.02541055
#
# Stress axis : x y z
#
# Youngs Moduli (GPa) = 47.13555 47.13566 48.01977
#
# Poissons Ratio (x) = 0.23731 0.33344
# Poissons Ratio (y) = 0.23731 0.33345
# Poissons Ratio (z) = 0.32730 0.32731
#
# Static dielectric constant tensor:
#      x y z
#    x 3.230440 0.000000 0.000000 
#    y 0.000000 3.230430 0.000000 
#    z 0.000000 0.000000 3.307660 
# 
# 
# High freq. dielectric constant tensor:
#      x y z
#    x 1.663220 0.000000 0.000000 
#    y 0.000000 1.663220 0.000000 
#    z 0.000000 0.000000 1.658110 
# 
# From -- ./inp_files/7995.got.cif
#   From: 2010.03.12/outbox.cif.g09.slc.cpg/sg119_4_cif.got.tgz:7995.got - 2010.04.14 02:25:26.
