data_PCOD8310544
_publ_section_title
;
Structure prediction by ZEFSAII (Michael W. Deem and Ramdas Pophale) SiO2 
 PCOD8310544
Probable space group: P -4 N 2
;
_chemical_formula_sum "Si O2"
_cell_formula_units_Z 44
_cell_length_a 8.542023
_cell_length_b 8.542023
_cell_length_c 30.139569
_cell_angle_alpha 90.000000
_cell_angle_beta 90.000000
_cell_angle_gamma 90.000000
_cell_volume 2199.168522
_symmetry_space_group_name_H-M "P -4 N 2"
_symmetry_group_IT_number 118
_symmetry_cell_setting 'tetragonal'
loop_
_space_group_symop_operation_xyz
x,y,z
y,-x,-z
-x,-y,z
-y,x,-z
1/2+y,1/2+x,1/2-z
1/2-y,1/2-x,1/2-z
1/2-x,1/2+y,1/2+z
1/2+x,1/2-y,1/2+z
loop_
_atom_site_type_symbol
_atom_site_label
_atom_site_fract_x
_atom_site_fract_y
_atom_site_fract_z
Si Si1 0.000000 0.000000 0.350360
Si Si2 0.711802 0.260162 0.097205
Si Si3 0.324839 0.547692 0.329481
Si Si4 0.664434 0.835567 0.750000
Si Si5 0.409163 0.265638 0.994037
Si Si6 0.500000 0.000000 0.442017
Si Si7 0.737128 0.148306 0.704739
O O1 0.879898 0.902328 0.319313
O O2 0.106642 0.895612 0.381593
O O3 0.857801 0.229315 0.128110
O O4 0.782502 0.326952 0.051672
O O5 0.615642 0.099861 0.089307
O O6 0.500000 0.500000 0.336225
O O7 0.310945 0.653029 0.284036
O O8 0.226307 0.387485 0.328130
O O9 0.517094 0.837128 0.782360
O O10 0.314670 0.411120 0.015298
O O11 0.399721 0.118970 0.027438
O O12 0.753594 0.253594 0.750000
#
# Coordination Sequence:
#
# PCOD8310544 Si02
#       7
#     4   8   8   4   8   4   8
#     4  12  24  40  69  96 124 174 232 268 321 378
#     4  11  24  41  65  98 127 172 214 272 324 391
#     4  11  24  40  63  96 133 167 211 274 322 379
#     4  10  21  44  64  85 130 175 228 246 311 380
#     4   9  19  42  67  89 118 170 213 259 317 401
#     4  10  22  42  64  93 134 159 210 280 336 386
#     4  10  23  40  64  89 125 179 221 266 308 388
#
# _framework density 20.007563999999999
#
# number of rings (size 3 to 8) (size 9 to 14) (size 15 to 20)
#    0.000    1.636    1.818    4.636    7.636    1.455 
#    6.545    0.000    0.000    1.091    0.000    0.000 
#    0.000    0.000    0.000    0.000    0.000    0.000 
#
# Total GULP energy -545423.916633 kJ/mol
# GULP energy per Si atom -12395.998105 kJ/mol
# Density = 1.996203 g / cm^3
# Si number density = 20.007564 Si / 1000 Ang^3
#
#
#
# Elastic Constant Matrix: (Units=GPa)
#
#
# Indices 1 2 3 4 5 6 
#
# 1 88.6362 44.8805 53.3876 0.0000 0.0000 0.0000
# 2 44.8805 88.6365 53.3874 0.0000 0.0000 0.0000
# 3 53.3876 53.3874 109.8844 0.0000 0.0000 0.0000
# 4 0.0000 0.0000 0.0000 14.2456 0.0000 0.0000
# 5 0.0000 0.0000 0.0000 0.0000 14.2469 0.0000
# 6 0.0000 0.0000 0.0000 0.0000 0.0000 30.8716
#
#
#
# Elastic Compliance Matrix: (Units=1/GPa)
#
#
# Indices 1 2 3 4 5 6 
#
# 1 0.017552 -0.005303 -0.005951 0.000000 0.000000 0.000000
# 2 -0.005303 0.017551 -0.005951 0.000000 0.000000 0.000000
# 3 -0.005951 -0.005951 0.014883 0.000000 0.000000 0.000000
# 4 0.000000 0.000000 0.000000 0.070197 0.000000 0.000000
# 5 0.000000 0.000000 0.000000 0.000000 0.070190 0.000000
# 6 0.000000 0.000000 0.000000 0.000000 0.000000 0.032392
#
#
# Mechanical properties :
#
#
# Convention : Reuss Voigt Hill
#
# Bulk Modulus (GPa) = 64.19960 65.60760 64.90360
# Shear Modulus (GPa) = 19.05721 20.90628 19.98174
#
# Velocity S-wave (km/s) = 3.08961 3.23603 3.16367
# Velocity P-wave (km/s) = 6.69962 6.84289 6.77163
#
# Compressibility (1/GPa) = 0.01557642
#
# Stress axis : x y z
#
# Youngs Moduli (GPa) = 56.97502 56.97545 67.18978
#
# Poissons Ratio (x) = 0.30212 0.39986
# Poissons Ratio (y) = 0.30212 0.39985
# Poissons Ratio (z) = 0.33907 0.33907
#
# Static dielectric constant tensor:
#      x y z
#    x 3.627750 0.000000 0.000000 
#    y 0.000000 3.627750 0.000000 
#    z 0.000000 0.000000 4.193880 
# 
# 
# High freq. dielectric constant tensor:
#      x y z
#    x 1.773820 0.000000 0.000000 
#    y 0.000000 1.773820 0.000000 
#    z 0.000000 0.000000 1.788130 
# 
# From -- ./inp_files/6786.got.cif
#   From: 2010.03.12/outbox.cif.g09.slc.cpg/sg118_4_cif.got.tgz:6786.got - 2010.04.14 02:21:17.
