data_PCOD8310290
_publ_section_title
;
Structure prediction by ZEFSAII (Michael W. Deem and Ramdas Pophale) SiO2 
 PCOD8310290
Probable space group: P -4 B 2
;
_chemical_formula_sum "Si O2"
_cell_formula_units_Z 48
_cell_length_a 14.544597
_cell_length_b 14.544597
_cell_length_c 10.876329
_cell_angle_alpha 90.000000
_cell_angle_beta 90.000000
_cell_angle_gamma 90.000000
_cell_volume 2300.836302
_symmetry_space_group_name_H-M "P -4 B 2"
_symmetry_group_IT_number 117
_symmetry_cell_setting 'tetragonal'
loop_
_space_group_symop_operation_xyz
x,y,z
y,-x,-z
-x,-y,z
-y,x,-z
1/2+y,1/2+x,-z
1/2-y,1/2-x,-z
1/2-x,1/2+y,z
1/2+x,1/2-y,z
loop_
_atom_site_type_symbol
_atom_site_label
_atom_site_fract_x
_atom_site_fract_y
_atom_site_fract_z
Si Si1 0.255337 0.304677 0.875243
Si Si2 0.253034 0.559214 0.555747
Si Si3 0.136733 0.948854 0.007753
Si Si4 0.129252 0.223665 0.539297
Si Si5 0.873665 0.323974 0.702430
Si Si6 0.440694 0.787297 0.793438
O O1 0.310004 0.398867 0.896678
O O2 0.299526 0.244491 0.766186
O O3 0.149262 0.335976 0.850404
O O4 0.256739 0.243262 0.000000
O O5 0.274656 0.450303 0.566029
O O6 0.344385 0.620030 0.577798
O O7 0.177397 0.582037 0.661807
O O8 0.223453 0.589946 0.420074
O O9 0.194373 0.960494 0.131884
O O10 0.047703 0.889917 0.045663
O O11 0.219933 0.280068 0.500000
O O12 0.081589 0.270418 0.653310
O O13 0.962072 0.344410 0.791746
#
# Coordination Sequence:
#
# PCOD8310290 Si02
#       6
#     8   8   8   8   8   8
#     4  10  19  34  59  87 123 167 206 259 328 383
#     4  10  21  37  65  89 125 165 208 265 324 388
#     4  10  20  36  58  95 128 164 221 272 326 402
#     4  11  21  41  62  91 127 164 213 266 331 393
#     4  10  18  39  60  86 124 162 203 263 312 385
#     4  10  20  36  61  87 118 172 208 260 324 392
#
# _framework density 20.861979000000002
#
# number of rings (size 3 to 8) (size 9 to 14) (size 15 to 20)
#    0.000    1.833    5.000    0.000    0.000    0.333 
#    6.000    6.667    0.000    0.000    0.000    0.000 
#    0.000    0.000    0.000    0.000    0.000    0.000 
#
# Total GULP energy -594713.718860 kJ/mol
# GULP energy per Si atom -12389.869143 kJ/mol
# Density = 2.081450 g / cm^3
# Si number density = 20.861979 Si / 1000 Ang^3
#
#
#
# Elastic Constant Matrix: (Units=GPa)
#
#
# Indices 1 2 3 4 5 6 
#
# 1 124.7585 60.5679 22.0492 0.0000 0.0000 0.0000
# 2 60.5679 124.7598 22.0491 0.0000 0.0000 0.0000
# 3 22.0492 22.0491 63.6716 0.0000 0.0000 0.0000
# 4 0.0000 0.0000 0.0000 26.5038 0.0000 0.0000
# 5 0.0000 0.0000 0.0000 0.0000 26.5043 0.0000
# 6 0.0000 0.0000 0.0000 0.0000 0.0000 21.9697
#
#
#
# Elastic Compliance Matrix: (Units=1/GPa)
#
#
# Indices 1 2 3 4 5 6 
#
# 1 0.010729 -0.004849 -0.002036 0.000000 0.000000 0.000000
# 2 -0.004849 0.010729 -0.002036 0.000000 0.000000 0.000000
# 3 -0.002036 -0.002036 0.017116 0.000000 0.000000 0.000000
# 4 0.000000 0.000000 0.000000 0.037730 0.000000 0.000000
# 5 0.000000 0.000000 0.000000 0.000000 0.037730 0.000000
# 6 0.000000 0.000000 0.000000 0.000000 0.000000 0.045517
#
#
# Mechanical properties :
#
#
# Convention : Reuss Voigt Hill
#
# Bulk Modulus (GPa) = 48.23612 58.05803 53.14708
# Shear Modulus (GPa) = 27.12878 28.89715 28.01297
#
# Velocity S-wave (km/s) = 3.61001 3.72581 3.66837
# Velocity P-wave (km/s) = 6.36773 6.81167 6.59344
#
# Compressibility (1/GPa) = 0.02073135
#
# Stress axis : x y z
#
# Youngs Moduli (GPa) = 93.20108 93.20218 58.42507
#
# Poissons Ratio (x) = 0.45194 0.11898
# Poissons Ratio (y) = 0.45193 0.11897
# Poissons Ratio (z) = 0.18979 0.18979
#
# Static dielectric constant tensor:
#      x y z
#    x 4.248710 0.000000 0.000000 
#    y 0.000000 4.248760 0.000000 
#    z 0.000000 0.000000 3.857570 
# 
# 
# High freq. dielectric constant tensor:
#      x y z
#    x 1.807470 0.000000 0.000000 
#    y 0.000000 1.807470 0.000000 
#    z 0.000000 0.000000 1.813780 
# 
# From -- ./inp_files/2755.got.cif
#   From: 2010.03.12/outbox.cif.g09.slc.cpg/sg117_2_cif.got.tgz:2755.got - 2010.04.14 02:19:01.
