data_PCOD8310343
_publ_section_title
;
Structure prediction by ZEFSAII (Michael W. Deem and Ramdas Pophale) SiO2 
 PCOD8310343
Probable space group: P -4 B 2
;
_chemical_formula_sum "Si O2"
_cell_formula_units_Z 34
_cell_length_a 9.859335
_cell_length_b 9.859335
_cell_length_c 18.015157
_cell_angle_alpha 90.000000
_cell_angle_beta 90.000000
_cell_angle_gamma 90.000000
_cell_volume 1751.190118
_symmetry_space_group_name_H-M "P -4 B 2"
_symmetry_group_IT_number 117
_symmetry_cell_setting 'tetragonal'
loop_
_space_group_symop_operation_xyz
x,y,z
y,-x,-z
-x,-y,z
-y,x,-z
1/2+y,1/2+x,-z
1/2-y,1/2-x,-z
1/2-x,1/2+y,z
1/2+x,1/2-y,z
loop_
_atom_site_type_symbol
_atom_site_label
_atom_site_fract_x
_atom_site_fract_y
_atom_site_fract_z
Si Si1 0.769144 0.755194 0.721595
Si Si2 0.518171 0.852183 0.642143
Si Si3 0.500000 0.000000 0.500000
Si Si4 0.838990 0.007138 0.810310
Si Si5 0.099984 0.181298 0.026640
O O1 0.668633 0.801488 0.657026
O O2 0.913315 0.749281 0.680739
O O3 0.777787 0.860063 0.790125
O O4 0.717888 0.611906 0.750846
O O5 0.497396 0.865979 0.552726
O O6 0.500000 0.000000 0.679831
O O7 0.785196 0.049295 0.890954
O O8 0.000000 0.000000 0.808461
O O9 0.199282 0.300719 0.000000
O O10 0.965450 0.175357 0.974535
#
# Coordination Sequence:
#
# PCOD8310343 Si02
#       5
#     8   8   2   8   8
#     4  12  23  40  67  94 127 164 210 267 318 373
#     4  10  22  41  61  95 128 163 209 258 315 377
#     4   8  20  44  60  92 132 172 202 264 304 392
#     4  12  23  39  66  94 124 165 212 262 322 373
#     4  11  24  44  61  89 126 164 209 261 313 385
#
# _framework density 19.415367
#
# number of rings (size 3 to 8) (size 9 to 14) (size 15 to 20)
#    0.706    0.235    7.059    1.412    0.000    1.412 
#    0.000    0.000    0.000    0.000    0.000    0.000 
#    0.000    0.000    0.000    0.000    0.000    0.000 
#
# Total GULP energy -421521.544346 kJ/mol
# GULP energy per Si atom -12397.692481 kJ/mol
# Density = 1.937118 g / cm^3
# Si number density = 19.415367 Si / 1000 Ang^3
#
#
#
# Elastic Constant Matrix: (Units=GPa)
#
#
# Indices 1 2 3 4 5 6 
#
# 1 98.1276 43.8311 40.9028 0.0000 0.0000 0.0000
# 2 43.8311 98.1265 40.9035 0.0000 0.0000 0.0000
# 3 40.9028 40.9035 117.4691 0.0000 0.0000 0.0000
# 4 0.0000 0.0000 0.0000 23.1444 0.0000 0.0000
# 5 0.0000 0.0000 0.0000 0.0000 23.1445 0.0000
# 6 0.0000 0.0000 0.0000 0.0000 0.0000 33.8263
#
#
#
# Elastic Compliance Matrix: (Units=1/GPa)
#
#
# Indices 1 2 3 4 5 6 
#
# 1 0.013615 -0.004802 -0.003068 0.000000 0.000000 0.000000
# 2 -0.004802 0.013615 -0.003069 0.000000 0.000000 0.000000
# 3 -0.003068 -0.003069 0.010650 0.000000 0.000000 0.000000
# 4 0.000000 0.000000 0.000000 0.043207 0.000000 0.000000
# 5 0.000000 0.000000 0.000000 0.000000 0.043207 0.000000
# 6 0.000000 0.000000 0.000000 0.000000 0.000000 0.029563
#
#
# Mechanical properties :
#
#
# Convention : Reuss Voigt Hill
#
# Bulk Modulus (GPa) = 62.49684 62.77755 62.63719
# Shear Modulus (GPa) = 27.61368 28.56209 28.08789
#
# Velocity S-wave (km/s) = 3.77538 3.83966 3.80766
# Velocity P-wave (km/s) = 7.15988 7.21537 7.18768
#
# Compressibility (1/GPa) = 0.01600081
#
# Stress axis : x y z
#
# Youngs Moduli (GPa) = 73.44849 73.44698 93.89782
#
# Poissons Ratio (x) = 0.35273 0.28813
# Poissons Ratio (y) = 0.35273 0.28815
# Poissons Ratio (z) = 0.22538 0.22539
#
# Static dielectric constant tensor:
#      x y z
#    x 3.551150 0.000000 0.000000 
#    y 0.000000 3.551150 0.000000 
#    z 0.000000 0.000000 3.442590 
# 
# 
# High freq. dielectric constant tensor:
#      x y z
#    x 1.756720 0.000000 0.000000 
#    y 0.000000 1.756720 0.000000 
#    z 0.000000 0.000000 1.750000 
# 
# From -- ./inp_files/3419.got.cif
#   From: 2010.03.12/outbox.cif.g09.slc.cpg/sg117_2_cif.got.tgz:3419.got - 2010.04.14 02:19:01.
