data_PCOD8310480
_publ_section_title
;
Structure prediction by ZEFSAII (Michael W. Deem and Ramdas Pophale) SiO2 
 PCOD8310480
Probable space group: P -4 N 2
;
_chemical_formula_sum "Si O2"
_cell_formula_units_Z 48
_cell_length_a 11.820489
_cell_length_b 11.820489
_cell_length_c 17.077124
_cell_angle_alpha 90.000000
_cell_angle_beta 90.000000
_cell_angle_gamma 90.000000
_cell_volume 2386.083394
_symmetry_space_group_name_H-M "P -4 N 2"
_symmetry_group_IT_number 118
_symmetry_cell_setting 'tetragonal'
loop_
_space_group_symop_operation_xyz
x,y,z
y,-x,-z
-x,-y,z
-y,x,-z
1/2+y,1/2+x,1/2-z
1/2-y,1/2-x,1/2-z
1/2-x,1/2+y,1/2+z
1/2+x,1/2-y,1/2+z
loop_
_atom_site_type_symbol
_atom_site_label
_atom_site_fract_x
_atom_site_fract_y
_atom_site_fract_z
Si Si1 0.185581 0.504654 0.750000
Si Si2 0.262176 0.053303 0.558180
Si Si3 0.946696 0.262176 0.058180
Si Si4 0.082074 0.232764 0.906525
Si Si5 0.095092 0.404909 0.337336
Si Si6 0.732763 0.582074 0.906525
O O1 0.128145 0.628145 0.750000
O O2 0.262654 0.490631 0.673024
O O3 0.262654 0.490631 0.826975
O O4 0.091765 0.408236 0.750000
O O5 0.371322 0.128678 0.537461
O O6 0.166146 0.126847 0.600367
O O7 0.295561 0.952649 0.617312
O O8 0.214057 0.003288 0.477868
O O9 0.873152 0.166145 0.100367
O O10 0.047349 0.295560 0.117313
O O11 0.996712 0.214058 0.977869
O O12 0.151147 0.348853 0.920417
O O13 0.132027 0.367974 0.250000
O O14 0.000000 0.500000 0.331988
#
# Coordination Sequence:
#
# PCOD8310480 Si02
#       6
#     8   8   8   8   8   8
#     4   9  18  32  56  86 117 151 196 248 287 337
#     4  10  20  34  57  81 114 152 191 238 285 347
#     4  10  20  34  57  81 114 152 191 238 285 347
#     4  10  20  34  55  83 114 150 196 237 291 344
#     4   9  18  32  56  85 111 148 193 235 285 338
#     4  10  20  34  55  83 114 150 196 237 291 344
#
# _framework density 20.116648999999999
#
# number of rings (size 3 to 8) (size 9 to 14) (size 15 to 20)
#    0.000    2.333    1.667    1.000    2.333    2.000 
#    0.000    0.000    3.667    2.000    0.000    0.000 
#    0.000    0.000    0.000    0.000    0.000    0.000 
#
# Total GULP energy -595367.860507 kJ/mol
# GULP energy per Si atom -12403.497094 kJ/mol
# Density = 2.007086 g / cm^3
# Si number density = 20.116649 Si / 1000 Ang^3
#
#
#
# Elastic Constant Matrix: (Units=GPa)
#
#
# Indices 1 2 3 4 5 6 
#
# 1 74.7839 41.8554 55.1742 0.0000 0.0000 0.0000
# 2 41.8554 74.7840 55.1742 0.0000 0.0000 0.0000
# 3 55.1742 55.1742 181.5587 0.0000 0.0000 0.0000
# 4 0.0000 0.0000 0.0000 19.4277 0.0000 0.0000
# 5 0.0000 0.0000 0.0000 0.0000 19.4278 0.0000
# 6 0.0000 0.0000 0.0000 0.0000 0.0000 28.6878
#
#
#
# Elastic Compliance Matrix: (Units=1/GPa)
#
#
# Indices 1 2 3 4 5 6 
#
# 1 0.021201 -0.009168 -0.003657 0.000000 0.000000 0.000000
# 2 -0.009168 0.021201 -0.003657 0.000000 0.000000 0.000000
# 3 -0.003657 -0.003657 0.007730 0.000000 0.000000 0.000000
# 4 0.000000 0.000000 0.000000 0.051473 0.000000 0.000000
# 5 0.000000 0.000000 0.000000 0.000000 0.051473 0.000000
# 6 0.000000 0.000000 0.000000 0.000000 0.000000 0.034858
#
#
# Mechanical properties :
#
#
# Convention : Reuss Voigt Hill
#
# Bulk Modulus (GPa) = 58.24329 70.61492 64.42911
# Shear Modulus (GPa) = 22.06324 25.43685 23.75005
#
# Velocity S-wave (km/s) = 3.31534 3.55979 3.43974
# Velocity P-wave (km/s) = 6.60840 7.21631 6.91903
#
# Compressibility (1/GPa) = 0.01716936
#
# Stress axis : x y z
#
# Youngs Moduli (GPa) = 47.16792 47.16803 129.36028
#
# Poissons Ratio (x) = 0.43243 0.47303
# Poissons Ratio (y) = 0.43243 0.47303
# Poissons Ratio (z) = 0.17248 0.17248
#
# Static dielectric constant tensor:
#      x y z
#    x 3.432740 0.000000 0.000000 
#    y 0.000000 3.432740 0.000000 
#    z 0.000000 0.000000 3.784320 
# 
# 
# High freq. dielectric constant tensor:
#      x y z
#    x 1.765300 0.000000 0.000000 
#    y 0.000000 1.765300 0.000000 
#    z 0.000000 0.000000 1.792070 
# 
# From -- ./inp_files/4917.got.cif
#   From: 2010.03.12/outbox.cif.g09.slc.cpg/sg118_3_cif.got.tgz:4917.got - 2010.04.14 02:21:17.
