data_PCOD8310235
_publ_section_title
;
Structure prediction by ZEFSAII (Michael W. Deem and Ramdas Pophale) SiO2 
 PCOD8310235
Probable space group: P -4 C 2
;
_chemical_formula_sum "Si O2"
_cell_formula_units_Z 48
_cell_length_a 17.676646
_cell_length_b 17.676646
_cell_length_c 8.611903
_cell_angle_alpha 90.000000
_cell_angle_beta 90.000000
_cell_angle_gamma 90.000000
_cell_volume 2690.908056
_symmetry_space_group_name_H-M "P -4 C 2"
_symmetry_group_IT_number 116
_symmetry_cell_setting 'tetragonal'
loop_
_space_group_symop_operation_xyz
x,y,z
y,-x,-z
-x,-y,z
-y,x,-z
y,x,1/2-z
-y,-x,1/2-z
-x,y,1/2+z
x,-y,1/2+z
loop_
_atom_site_type_symbol
_atom_site_label
_atom_site_fract_x
_atom_site_fract_y
_atom_site_fract_z
Si Si1 0.162428 0.081873 0.641089
Si Si2 0.174837 0.711458 0.192599
Si Si3 0.842453 0.085674 0.626386
Si Si4 0.416782 0.080158 0.307694
Si Si5 0.582822 0.079773 0.176562
Si Si6 0.290758 0.180108 0.175832
O O1 0.087270 0.087270 0.750000
O O2 0.232752 0.107628 0.747527
O O3 0.148188 0.142888 0.506161
O O4 0.170431 0.999266 0.565906
O O5 0.255945 0.744056 0.250000
O O6 0.152123 0.631804 0.269016
O O7 0.182059 0.699099 0.009211
O O8 0.911751 0.088250 0.750000
O O9 0.768201 0.113359 0.717358
O O10 0.499746 0.094277 0.241579
O O11 0.418483 0.074943 0.492096
O O12 0.368052 0.153235 0.256317
O O13 0.384738 0.000212 0.241857
O O14 0.259574 0.259574 0.250000
#
# Coordination Sequence:
#
# PCOD8310235 Si02
#       6
#     8   8   8   8   8   8
#     4  11  22  37  47  69  94 133 178 232 284 329
#     4  11  21  38  56  76 109 138 181 227 280 334
#     4  11  23  33  52  67  95 130 181 230 283 331
#     4  11  22  37  58  84 112 145 185 230 285 338
#     4  11  22  37  59  84 113 146 183 232 283 338
#     4  11  22  38  56  79 103 141 183 227 276 339
#
# _framework density 17.837845000000002
#
# number of rings (size 3 to 8) (size 9 to 14) (size 15 to 20)
#    0.000    1.000    3.333    7.000    2.333    2.000 
#    0.000    0.000    0.000    0.000    0.000    0.000 
#    0.000    0.667    0.000    6.667    0.000    4.000 
#
# Total GULP energy -594660.139708 kJ/mol
# GULP energy per Si atom -12388.752911 kJ/mol
# Density = 1.779724 g / cm^3
# Si number density = 17.837845 Si / 1000 Ang^3
#
#
#
# Elastic Constant Matrix: (Units=GPa)
#
#
# Indices 1 2 3 4 5 6 
#
# 1 82.6850 40.3988 40.9753 0.0000 0.0000 0.0000
# 2 40.3988 82.6858 40.9751 0.0000 0.0000 0.0000
# 3 40.9753 40.9751 154.7461 0.0000 0.0000 0.0000
# 4 0.0000 0.0000 0.0000 28.0773 0.0000 0.0000
# 5 0.0000 0.0000 0.0000 0.0000 28.0771 0.0000
# 6 0.0000 0.0000 0.0000 0.0000 0.0000 30.3039
#
#
#
# Elastic Compliance Matrix: (Units=1/GPa)
#
#
# Indices 1 2 3 4 5 6 
#
# 1 0.016756 -0.006892 -0.002612 0.000000 0.000000 0.000000
# 2 -0.006892 0.016756 -0.002612 0.000000 0.000000 0.000000
# 3 -0.002612 -0.002612 0.007845 0.000000 0.000000 0.000000
# 4 0.000000 0.000000 0.000000 0.035616 0.000000 0.000000
# 5 0.000000 0.000000 0.000000 0.000000 0.035616 0.000000
# 6 0.000000 0.000000 0.000000 0.000000 0.000000 0.032999
#
#
# Mechanical properties :
#
#
# Convention : Reuss Voigt Hill
#
# Bulk Modulus (GPa) = 58.39334 62.75726 60.57530
# Shear Modulus (GPa) = 28.48545 30.47618 29.48081
#
# Velocity S-wave (km/s) = 4.00047 4.13790 4.06977
# Velocity P-wave (km/s) = 7.35833 7.62155 7.49110
#
# Compressibility (1/GPa) = 0.01712524
#
# Stress axis : x y z
#
# Youngs Moduli (GPa) = 59.68044 59.68125 127.46449
#
# Poissons Ratio (x) = 0.41134 0.33291
# Poissons Ratio (y) = 0.41134 0.33290
# Poissons Ratio (z) = 0.15587 0.15587
#
# Static dielectric constant tensor:
#      x y z
#    x 3.231270 0.000000 0.000000 
#    y 0.000000 3.231270 0.000000 
#    z 0.000000 0.000000 3.533900 
# 
# 
# High freq. dielectric constant tensor:
#      x y z
#    x 1.661880 0.000000 0.000000 
#    y 0.000000 1.661880 0.000000 
#    z 0.000000 0.000000 1.720690 
# 
# From -- ./inp_files/953.got.cif
#   From: 2010.03.12/outbox.cif.g09.slc.cpg/sg116_1_cif.got.tgz:953.got - 2010.04.14 02:15:44.
