data_PCOD8310916
_publ_section_title
;
Structure prediction by ZEFSAII (Michael W. Deem and Ramdas Pophale) SiO2 
 PCOD8310916
Probable space group: I -4 M 2
;
_chemical_formula_sum "Si O2"
_cell_formula_units_Z 88
_cell_length_a 13.868987
_cell_length_b 13.868987
_cell_length_c 24.134179
_cell_angle_alpha 90.000000
_cell_angle_beta 90.000000
_cell_angle_gamma 90.000000
_cell_volume 4642.180379
_symmetry_space_group_name_H-M "I -4 M 2"
_symmetry_group_IT_number 119
_symmetry_cell_setting 'tetragonal'
loop_
_space_group_symop_operation_xyz
x,y,z
y,-x,-z
-x,-y,z
-y,x,-z
y,x,-z
-y,-x,-z
-x,y,z
x,-y,z
1/2+x,1/2+y,1/2+z
1/2+y,1/2-x,1/2-z
1/2-x,1/2-y,1/2+z
1/2-y,1/2+x,1/2-z
1/2+y,1/2+x,1/2-z
1/2-y,1/2-x,1/2-z
1/2-x,1/2+y,1/2+z
1/2+x,1/2-y,1/2+z
loop_
_atom_site_type_symbol
_atom_site_label
_atom_site_fract_x
_atom_site_fract_y
_atom_site_fract_z
Si Si1 0.390303 0.721068 0.667150
Si Si2 0.889953 0.389953 0.250000
Si Si3 0.740024 0.387919 0.462890
Si Si4 0.609872 0.612113 0.148331
Si Si5 0.734954 0.610928 0.745922
Si Si6 0.612094 0.274046 0.958694
O O1 0.500000 0.693349 0.680502
O O2 0.364630 0.823031 0.697053
O O3 0.373518 0.721487 0.601855
O O4 0.321849 0.637654 0.690234
O O5 0.873974 0.500000 0.230053
O O6 0.650689 0.349312 0.500000
O O7 0.758503 0.500000 0.477577
O O8 0.834625 0.324718 0.476182
O O9 0.500000 0.638440 0.130448
O O10 0.617092 0.500000 0.162411
O O11 0.641987 0.669036 0.202592
O O12 0.686681 0.641912 0.101690
O O13 0.760246 0.500000 0.745212
O O14 0.836352 0.663649 0.750000
O O15 0.500000 0.252108 0.962912
O O16 0.640054 0.359947 0.000000
#
# Coordination Sequence:
#
# PCOD8310916 Si02
#       6
#    16   8  16  16  16  16
#     4  10  20  36  60  87 115 146 184 228 284 351
#     4   9  18  32  56  94 133 156 170 208 283 370
#     4  10  23  41  58  80 111 152 200 245 287 331
#     4   9  18  33  55  83 113 142 172 216 281 353
#     4  11  22  36  53  76 107 143 187 236 283 331
#     4  10  20  34  56  84 114 146 182 225 275 338
#
# _framework density 18.956609
#
# number of rings (size 3 to 8) (size 9 to 14) (size 15 to 20)
#    0.000    2.091    0.909    2.182    0.000    4.182 
#    0.000    3.636    0.000    0.000    0.000    5.091 
#    0.000    0.000    0.000    0.000    0.000    0.000 
#
# Total GULP energy -545621.356262 kJ/mol
# GULP energy per Si atom -12400.485370 kJ/mol
# Density = 1.891346 g / cm^3
# Si number density = 18.956609 Si / 1000 Ang^3
#
#
#
# Elastic Constant Matrix: (Units=GPa)
#
#
# Indices 1 2 3 4 5 6 
#
# 1 72.9460 68.5408 42.3847 0.0000 0.0000 0.0000
# 2 68.5408 72.9277 42.3809 0.0000 0.0000 0.0000
# 3 42.3847 42.3809 96.7536 0.0000 0.0000 0.0000
# 4 0.0000 0.0000 0.0000 25.4879 0.0000 0.0000
# 5 0.0000 0.0000 0.0000 0.0000 25.4858 0.0000
# 6 0.0000 0.0000 0.0000 0.0000 0.0000 28.8796
#
#
#
# Elastic Compliance Matrix: (Units=1/GPa)
#
#
# Indices 1 2 3 4 5 6 
#
# 1 0.118514 -0.108947 -0.004196 0.000000 0.000000 0.000000
# 2 -0.108947 0.118547 -0.004201 0.000000 0.000000 0.000000
# 3 -0.004196 -0.004201 0.014013 0.000000 0.000000 0.000000
# 4 0.000000 0.000000 0.000000 0.039234 0.000000 0.000000
# 5 0.000000 0.000000 0.000000 0.000000 0.039238 0.000000
# 6 0.000000 0.000000 0.000000 0.000000 0.000000 0.034627
#
#
# Mechanical properties :
#
#
# Convention : Reuss Voigt Hill
#
# Bulk Modulus (GPa) = 61.01929 61.02666 61.02297
# Shear Modulus (GPa) = 8.27373 21.92537 15.09955
#
# Velocity S-wave (km/s) = 2.09142 3.40458 2.82535
# Velocity P-wave (km/s) = 6.17178 6.90779 6.55013
#
# Compressibility (1/GPa) = 0.01638826
#
# Stress axis : x y z
#
# Youngs Moduli (GPa) = 8.43779 8.43548 71.36011
#
# Poissons Ratio (x) = 0.91902 0.29939
# Poissons Ratio (y) = 0.91927 0.29975
# Poissons Ratio (z) = 0.03540 0.03543
#
# Static dielectric constant tensor:
#      x y z
#    x 3.449020 0.000000 0.000000 
#    y 0.000000 3.449020 0.000000 
#    z 0.000000 0.000000 3.500770 
# 
# 
# High freq. dielectric constant tensor:
#      x y z
#    x 1.735720 0.000000 0.000000 
#    y 0.000000 1.735720 0.000000 
#    z 0.000000 0.000000 1.735630 
# 
# From -- ./inp_files/7701.got.cif
#   From: 2010.03.12/outbox.cif.g09.slc.cpg/sg119_4_cif.got.tgz:7701.got - 2010.04.14 02:25:26.
