data_PCOD8310567
_publ_section_title
;
Structure prediction by ZEFSAII (Michael W. Deem and Ramdas Pophale) SiO2 
 PCOD8310567
Probable space group: P -4 N 2
;
_chemical_formula_sum "Si O2"
_cell_formula_units_Z 20
_cell_length_a 8.909663
_cell_length_b 8.909663
_cell_length_c 9.918293
_cell_angle_alpha 90.000000
_cell_angle_beta 90.000000
_cell_angle_gamma 90.000000
_cell_volume 787.334875
_symmetry_space_group_name_H-M "P -4 N 2"
_symmetry_group_IT_number 118
_symmetry_cell_setting 'tetragonal'
loop_
_space_group_symop_operation_xyz
x,y,z
y,-x,-z
-x,-y,z
-y,x,-z
1/2+y,1/2+x,1/2-z
1/2-y,1/2-x,1/2-z
1/2-x,1/2+y,1/2+z
1/2+x,1/2-y,1/2+z
loop_
_atom_site_type_symbol
_atom_site_label
_atom_site_fract_x
_atom_site_fract_y
_atom_site_fract_z
Si Si1 0.791579 0.470992 0.851520
Si Si2 0.761178 0.309285 0.394015
Si Si3 0.000000 0.000000 0.815373
O O1 0.919870 0.419870 0.750000
O O2 0.817044 0.645566 0.886682
O O3 0.629215 0.439890 0.785311
O O4 0.813558 0.380379 0.988663
O O5 0.841358 0.341358 0.250000
O O6 0.633243 0.437102 0.411607
#
# Coordination Sequence:
#
# PCOD8310567 Si02
#       3
#     8   8   4
#     4  11  24  44  74 106 143 188 233 290 353 414
#     4  10  22  43  72 106 143 185 235 290 350 414
#     4  10  24  44  72 108 142 184 236 292 348 418
#
# _framework density 25.402151
#
# number of rings (size 3 to 8) (size 9 to 14) (size 15 to 20)
#    0.000    1.600    0.000    4.800    0.000   16.800 
#    0.000    0.000    0.000   27.600    0.000    8.400 
#    0.000    0.000    0.000    0.000    0.000    0.000 
#
# Total GULP energy -247943.106528 kJ/mol
# GULP energy per Si atom -12397.155326 kJ/mol
# Density = 2.534433 g / cm^3
# Si number density = 25.402151 Si / 1000 Ang^3
#
#
#
# Elastic Constant Matrix: (Units=GPa)
#
#
# Indices 1 2 3 4 5 6 
#
# 1 142.7099 57.9432 43.4785 0.0000 0.0000 0.0000
# 2 57.9432 142.7099 43.4785 0.0000 0.0000 0.0000
# 3 43.4785 43.4785 140.0573 0.0000 0.0000 0.0000
# 4 0.0000 0.0000 0.0000 -57.2136 0.0000 0.0000
# 5 0.0000 0.0000 0.0000 0.0000 -57.2136 0.0000
# 6 0.0000 0.0000 0.0000 0.0000 0.0000 56.0651
#
#
#
# Elastic Compliance Matrix: (Units=1/GPa)
#
#
# Indices 1 2 3 4 5 6 
#
# 1 0.008778 -0.003019 -0.001788 0.000000 0.000000 0.000000
# 2 -0.003019 0.008778 -0.001788 0.000000 0.000000 0.000000
# 3 -0.001788 -0.001788 0.008250 0.000000 0.000000 0.000000
# 4 0.000000 0.000000 0.000000 -0.017478 0.000000 0.000000
# 5 0.000000 0.000000 0.000000 0.000000 -0.017478 0.000000
# 6 0.000000 0.000000 0.000000 0.000000 0.000000 0.017836
#
#
# Mechanical properties :
#
#
# Convention : Reuss Voigt Hill
#
# Bulk Modulus (GPa) = 79.26309 79.47528 79.36919
# Shear Modulus (GPa) = 191.72158 7.03271 99.37715
#
# Velocity S-wave (km/s) = 8.69703 1.66570 6.26151
# Velocity P-wave (km/s) = 11.49444 5.92066 9.14266
#
# Compressibility (1/GPa) = 0.01261621
#
# Stress axis : x y z
#
# Youngs Moduli (GPa) = 113.92436 113.92436 121.21494
#
# Poissons Ratio (x) = 0.34398 0.21669
# Poissons Ratio (y) = 0.34398 0.21669
# Poissons Ratio (z) = 0.20365 0.20365
#
# Static dielectric constant tensor:
#      x y z
#    x 4.829110 0.000000 0.000000 
#    y 0.000000 4.829110 0.000000 
#    z 0.000000 0.000000 5.309740 
# 
# 
# High freq. dielectric constant tensor:
#      x y z
#    x 2.020700 0.000000 0.000000 
#    y 0.000000 2.020700 0.000000 
#    z 0.000000 0.000000 2.037780 
# 
# From -- ./inp_files/2538.got.cif
#   From: 2010.03.12/outbox.cif.g09.slc.cpg/sg118_2_cif.got.tgz:2538.got - 2010.04.14 02:21:17.
