data_PCOD8310045
_publ_section_title
;
Structure prediction by ZEFSAII (Michael W. Deem and Ramdas Pophale) SiO2 
 PCOD8310045
Probable space group: P -4 M 2
;
_chemical_formula_sum "Si O2"
_cell_formula_units_Z 44
_cell_length_a 9.682112
_cell_length_b 9.682112
_cell_length_c 28.365023
_cell_angle_alpha 90.000000
_cell_angle_beta 90.000000
_cell_angle_gamma 90.000000
_cell_volume 2659.030656
_symmetry_space_group_name_H-M "P -4 M 2"
_symmetry_group_IT_number 115
_symmetry_cell_setting 'tetragonal'
loop_
_space_group_symop_operation_xyz
x,y,z
y,-x,-z
-x,-y,z
-y,x,-z
y,x,-z
-y,-x,-z
-x,y,z
x,-y,z
loop_
_atom_site_type_symbol
_atom_site_label
_atom_site_fract_x
_atom_site_fract_y
_atom_site_fract_z
Si Si1 0.835798 0.846169 0.948284
Si Si2 0.653890 0.664264 0.777461
Si Si3 0.346328 0.664198 0.325877
Si Si4 0.159929 0.339677 0.410995
Si Si5 0.839079 0.660880 0.862895
Si Si6 0.840456 0.840456 0.500000
O O1 0.781296 0.742111 0.908358
O O2 0.000000 0.852568 0.947739
O O3 0.775927 0.000000 0.938700
O O4 0.790232 0.790232 0.000000
O O5 0.500000 0.723738 0.787189
O O6 0.647851 0.500000 0.777734
O O7 0.709597 0.710482 0.725763
O O8 0.757937 0.718604 0.817412
O O9 0.500000 0.724460 0.335155
O O10 0.352592 0.500000 0.326374
O O11 0.244368 0.718674 0.366346
O O12 0.192698 0.500000 0.421079
O O13 0.206489 0.252402 0.456164
O O14 0.000000 0.316279 0.399424
O O15 0.809826 0.500000 0.871643
O O16 0.000000 0.689936 0.854171
O O17 0.000000 0.814063 0.512998
#
# Coordination Sequence:
#
# PCOD8310045 Si02
#       6
#     8   8   8   8   8   4
#     4   8  14  26  43  59  77 106 139 165 196 243
#     4   8  14  26  43  60  81 111 139 160 193 245
#     4   8  14  26  44  63  82 107 138 167 197 238
#     4   9  17  29  45  64  84 106 135 171 205 235
#     4   9  16  26  42  63  83 103 132 170 205 235
#     4   9  18  32  46  59  82 116 142 159 194 250
#
# _framework density 16.547381999999999
#
# number of rings (size 3 to 8) (size 9 to 14) (size 15 to 20)
#    0.000    3.545    0.000    1.636    0.000    0.727 
#    0.000    2.727    0.000    3.818    0.000    0.000 
#    0.000    0.000    0.000    0.000    0.000    0.000 
#
# Total GULP energy -545336.825779 kJ/mol
# GULP energy per Si atom -12394.018768 kJ/mol
# Density = 1.650972 g / cm^3
# Si number density = 16.547382 Si / 1000 Ang^3
#
#
#
# Elastic Constant Matrix: (Units=GPa)
#
#
# Indices 1 2 3 4 5 6 
#
# 1 49.5183 26.7922 64.8109 0.0000 0.0000 0.0000
# 2 26.7922 49.5183 64.8109 0.0000 0.0000 0.0000
# 3 64.8109 64.8109 190.5251 0.0000 0.0000 0.0000
# 4 0.0000 0.0000 0.0000 25.0175 0.0000 0.0000
# 5 0.0000 0.0000 0.0000 0.0000 25.0175 0.0000
# 6 0.0000 0.0000 0.0000 0.0000 0.0000 12.2091
#
#
#
# Elastic Compliance Matrix: (Units=1/GPa)
#
#
# Indices 1 2 3 4 5 6 
#
# 1 0.037521 -0.006481 -0.010559 0.000000 0.000000 0.000000
# 2 -0.006481 0.037521 -0.010559 0.000000 0.000000 0.000000
# 3 -0.010559 -0.010559 0.012432 0.000000 0.000000 0.000000
# 4 0.000000 0.000000 0.000000 0.039972 0.000000 0.000000
# 5 0.000000 0.000000 0.000000 0.000000 0.039972 0.000000
# 6 0.000000 0.000000 0.000000 0.000000 0.000000 0.081906
#
#
# Mechanical properties :
#
#
# Convention : Reuss Voigt Hill
#
# Bulk Modulus (GPa) = 30.98256 66.93220 48.95738
# Shear Modulus (GPa) = 15.85890 21.32532 18.59211
#
# Velocity S-wave (km/s) = 3.09915 3.59380 3.35560
# Velocity P-wave (km/s) = 5.61876 7.59981 6.68310
#
# Compressibility (1/GPa) = 0.03227622
#
# Stress axis : x y z
#
# Youngs Moduli (GPa) = 26.65187 26.65187 80.43679
#
# Poissons Ratio (x) = 0.17274 0.84930
# Poissons Ratio (y) = 0.17274 0.84930
# Poissons Ratio (z) = 0.28141 0.28141
#
# Static dielectric constant tensor:
#      x y z
#    x 2.967700 0.000000 0.000000 
#    y 0.000000 2.967700 0.000000 
#    z 0.000000 0.000000 3.546030 
# 
# 
# High freq. dielectric constant tensor:
#      x y z
#    x 1.607070 0.000000 0.000000 
#    y 0.000000 1.607070 0.000000 
#    z 0.000000 0.000000 1.650030 
# 
# From -- ./inp_files/5813.got.cif
#   From: 2010.03.12/outbox.cif.g09.slc.cpg/sg115_3_cif.got.tgz:5813.got - 2010.04.14 02:11:21.
