data_PCOD8310507
_publ_section_title
;
Structure prediction by ZEFSAII (Michael W. Deem and Ramdas Pophale) SiO2 
 PCOD8310507
Probable space group: P -4 N 2
;
_chemical_formula_sum "Si O2"
_cell_formula_units_Z 38
_cell_length_a 15.134074
_cell_length_b 15.134074
_cell_length_c 7.134854
_cell_angle_alpha 90.000000
_cell_angle_beta 90.000000
_cell_angle_gamma 90.000000
_cell_volume 1634.168357
_symmetry_space_group_name_H-M "P -4 N 2"
_symmetry_group_IT_number 118
_symmetry_cell_setting 'tetragonal'
loop_
_space_group_symop_operation_xyz
x,y,z
y,-x,-z
-x,-y,z
-y,x,-z
1/2+y,1/2+x,1/2-z
1/2-y,1/2-x,1/2-z
1/2-x,1/2+y,1/2+z
1/2+x,1/2-y,1/2+z
loop_
_atom_site_type_symbol
_atom_site_label
_atom_site_fract_x
_atom_site_fract_y
_atom_site_fract_z
Si Si1 0.049305 0.416285 0.533515
Si Si2 0.381982 0.401303 0.760500
Si Si3 0.000000 0.000000 0.000000
Si Si4 0.952562 0.232750 0.548780
Si Si5 0.276346 0.843336 0.051605
Si Si6 0.285426 0.214575 0.250000
O O1 0.059156 0.440845 0.750000
O O2 0.149153 0.404898 0.451107
O O3 0.000000 0.500000 0.435089
O O4 0.999947 0.323728 0.489708
O O5 0.469632 0.424490 0.645090
O O6 0.344500 0.478906 0.894418
O O7 0.312660 0.395033 0.590599
O O8 0.398310 0.310602 0.875480
O O9 0.888872 0.262561 0.721397
O O10 0.315055 0.815055 0.250000
O O11 0.255103 0.757682 0.933294
#
# Coordination Sequence:
#
# PCOD8310507 Si02
#       6
#     8   8   2   8   8   4
#     4  10  20  41  72 103 140 188 243 307 368 440
#     4  12  25  46  69 107 147 195 246 319 373 457
#     4  12  28  46  72 108 144 202 260 316 386 456
#     4  12  23  41  75 105 149 192 248 311 381 459
#     4  11  22  46  68  97 149 184 243 299 363 444
#     4  12  24  40  74 106 136 206 234 298 384 442
#
# _framework density 23.253419000000001
#
# number of rings (size 3 to 8) (size 9 to 14) (size 15 to 20)
#    0.000    0.632    6.316    3.789    0.000    1.684 
#    0.000    0.526    9.263    0.000    0.000    0.000 
#    0.000    0.000    0.000    0.000    0.000    0.000 
#
# Total GULP energy -470785.286699 kJ/mol
# GULP energy per Si atom -12389.086492 kJ/mol
# Density = 2.320049 g / cm^3
# Si number density = 23.253419 Si / 1000 Ang^3
#
#
#
# Elastic Constant Matrix: (Units=GPa)
#
#
# Indices 1 2 3 4 5 6 
#
# 1 122.1388 67.7424 37.0514 0.0000 0.0000 0.0000
# 2 67.7424 122.1376 37.0509 0.0000 0.0000 0.0000
# 3 37.0514 37.0509 59.8063 0.0000 0.0000 0.0000
# 4 0.0000 0.0000 0.0000 1141.6078 0.0000 0.0000
# 5 0.0000 0.0000 0.0000 0.0000 1108.4688 0.0000
# 6 0.0000 0.0000 0.0000 0.0000 0.0000 41.3231
#
#
#
# Elastic Compliance Matrix: (Units=1/GPa)
#
#
# Indices 1 2 3 4 5 6 
#
# 1 0.012665 -0.005719 -0.004303 0.000000 0.000000 0.000000
# 2 -0.005719 0.012665 -0.004303 0.000000 0.000000 0.000000
# 3 -0.004303 -0.004303 0.022052 0.000000 0.000000 0.000000
# 4 0.000000 0.000000 0.000000 0.000876 0.000000 0.000000
# 5 0.000000 0.000000 0.000000 0.000000 0.000902 0.000000
# 6 0.000000 0.000000 0.000000 0.000000 0.000000 0.024200
#
#
# Mechanical properties :
#
#
# Convention : Reuss Voigt Hill
#
# Bulk Modulus (GPa) = 53.38554 65.30799 59.34677
# Shear Modulus (GPa) = 46.18790 469.09579 257.64184
#
# Velocity S-wave (km/s) = 4.46161 14.21865 10.53745
# Velocity P-wave (km/s) = 7.03912 17.25416 13.17679
#
# Compressibility (1/GPa) = 0.01873166
#
# Stress axis : x y z
#
# Youngs Moduli (GPa) = 78.95946 78.95897 45.34684
#
# Poissons Ratio (x) = 0.45157 0.19513
# Poissons Ratio (y) = 0.45157 0.19513
# Poissons Ratio (z) = 0.33977 0.33976
#
# Static dielectric constant tensor:
#      x y z
#    x 0.000000 0.000000 0.000000 
#    y 0.000000 0.000000 0.000000 
#    z 0.000000 0.000000 0.000000 
# 
# 
# High freq. dielectric constant tensor:
#      x y z
#    x 1.930370 0.000000 0.000000 
#    y 0.000000 1.930370 0.000000 
#    z 0.000000 0.000000 1.897620 
# 
# From -- ./inp_files/1817.got.cif
#   From: 2010.03.12/outbox.cif.g09.slc.cpg/sg118_1_cif.got.tgz:1817.got - 2010.04.14 02:21:17.
