data_PCOD8310706
_publ_section_title
;
Structure prediction by ZEFSAII (Michael W. Deem and Ramdas Pophale) SiO2 
 PCOD8310706
Probable space group: I -4 M 2
;
_chemical_formula_sum "Si O2"
_cell_formula_units_Z 80
_cell_length_a 17.824551
_cell_length_b 17.824551
_cell_length_c 13.824177
_cell_angle_alpha 90.000000
_cell_angle_beta 90.000000
_cell_angle_gamma 90.000000
_cell_volume 4392.143120
_symmetry_space_group_name_H-M "I -4 M 2"
_symmetry_group_IT_number 119
_symmetry_cell_setting 'tetragonal'
loop_
_space_group_symop_operation_xyz
x,y,z
y,-x,-z
-x,-y,z
-y,x,-z
y,x,-z
-y,-x,-z
-x,y,z
x,-y,z
1/2+x,1/2+y,1/2+z
1/2+y,1/2-x,1/2-z
1/2-x,1/2-y,1/2+z
1/2-y,1/2+x,1/2-z
1/2+y,1/2+x,1/2-z
1/2-y,1/2-x,1/2-z
1/2-x,1/2+y,1/2+z
1/2+x,1/2-y,1/2+z
loop_
_atom_site_type_symbol
_atom_site_label
_atom_site_fract_x
_atom_site_fract_y
_atom_site_fract_z
Si Si1 0.297034 0.676234 0.896591
Si Si2 0.418677 0.776633 0.810058
Si Si3 0.084025 0.345597 0.106336
Si Si4 0.241596 0.146779 0.057113
Si Si5 0.712746 0.085787 0.250585
O O1 0.356613 0.714656 0.827209
O O2 0.229374 0.733645 0.910361
O O3 0.265080 0.601928 0.844449
O O4 0.338073 0.661928 0.000000
O O5 0.500000 0.745113 0.839901
O O6 0.408523 0.853501 0.871919
O O7 0.415356 0.789063 0.695868
O O8 0.000000 0.380727 0.094416
O O9 0.105173 0.302081 0.009280
O O10 0.235727 0.097665 0.154765
O O11 0.161973 0.161973 0.000000
O O12 0.639424 0.139424 0.250000
O O13 0.685398 0.000000 0.256708
#
# Coordination Sequence:
#
# PCOD8310706 Si02
#       5
#    16  16  16  16  16
#     4  10  19  34  55  77 103 148 198 240 265 320
#     4  10  20  33  52  78 110 145 187 232 279 329
#     4  10  19  31  50  78 113 144 176 221 278 340
#     4  10  17  32  56  79 105 147 188 233 272 330
#     4  10  22  36  56  86 119 153 188 232 285 345
#
# _framework density 18.214341999999998
#
# number of rings (size 3 to 8) (size 9 to 14) (size 15 to 20)
#    0.000    2.000    4.000    1.800    5.600    1.400 
#    0.000    2.000    0.000    3.000    0.000    1.400 
#    0.000    5.200    0.000    0.000    0.000    0.000 
#
# Total GULP energy -495612.039706 kJ/mol
# GULP energy per Si atom -12390.300993 kJ/mol
# Density = 1.817289 g / cm^3
# Si number density = 18.214342 Si / 1000 Ang^3
#
#
#
# Elastic Constant Matrix: (Units=GPa)
#
#
# Indices 1 2 3 4 5 6 
#
# 1 70.2581 46.0407 28.7349 0.0000 0.0000 0.0000
# 2 46.0407 70.2582 28.7348 0.0000 0.0000 0.0000
# 3 28.7349 28.7348 108.9419 0.0000 0.0000 0.0000
# 4 0.0000 0.0000 0.0000 18.1519 0.0000 0.0000
# 5 0.0000 0.0000 0.0000 0.0000 18.1517 0.0000
# 6 0.0000 0.0000 0.0000 0.0000 0.0000 17.4312
#
#
#
# Elastic Compliance Matrix: (Units=1/GPa)
#
#
# Indices 1 2 3 4 5 6 
#
# 1 0.025590 -0.015703 -0.002608 0.000000 0.000000 0.000000
# 2 -0.015703 0.025590 -0.002608 0.000000 0.000000 0.000000
# 3 -0.002608 -0.002608 0.010555 0.000000 0.000000 0.000000
# 4 0.000000 0.000000 0.000000 0.055091 0.000000 0.000000
# 5 0.000000 0.000000 0.000000 0.000000 0.055091 0.000000
# 6 0.000000 0.000000 0.000000 0.000000 0.000000 0.057368
#
#
# Mechanical properties :
#
#
# Convention : Reuss Voigt Hill
#
# Bulk Modulus (GPa) = 50.25666 50.71989 50.48828
# Shear Modulus (GPa) = 18.00150 20.47680 19.23915
#
# Velocity S-wave (km/s) = 3.14716 3.35657 3.25355
# Velocity P-wave (km/s) = 6.39201 6.55199 6.47250
#
# Compressibility (1/GPa) = 0.01989786
#
# Stress axis : x y z
#
# Youngs Moduli (GPa) = 39.07793 39.07801 94.74237
#
# Poissons Ratio (x) = 0.61363 0.24708
# Poissons Ratio (y) = 0.61363 0.24708
# Poissons Ratio (z) = 0.10191 0.10191
#
# Static dielectric constant tensor:
#      x y z
#    x 3.253210 0.000000 0.000000 
#    y 0.000000 3.253210 0.000000 
#    z 0.000000 0.000000 3.904930 
# 
# 
# High freq. dielectric constant tensor:
#      x y z
#    x 1.672880 0.000000 0.000000 
#    y 0.000000 1.672880 0.000000 
#    z 0.000000 0.000000 1.729640 
# 
# From -- ./inp_files/5257.got.cif
#   From: 2010.03.12/outbox.cif.g09.slc.cpg/sg119_3_cif.got.tgz:5257.got - 2010.04.14 02:25:26.
