data_PCOD8310262
_publ_section_title
;
Structure prediction by ZEFSAII (Michael W. Deem and Ramdas Pophale) SiO2 
 PCOD8310262
Probable space group: P -4 C 2
;
_chemical_formula_sum "Si O2"
_cell_formula_units_Z 30
_cell_length_a 8.146337
_cell_length_b 8.146337
_cell_length_c 22.146226
_cell_angle_alpha 90.000000
_cell_angle_beta 90.000000
_cell_angle_gamma 90.000000
_cell_volume 1469.685711
_symmetry_space_group_name_H-M "P -4 C 2"
_symmetry_group_IT_number 116
_symmetry_cell_setting 'tetragonal'
loop_
_space_group_symop_operation_xyz
x,y,z
y,-x,-z
-x,-y,z
-y,x,-z
y,x,1/2-z
-y,-x,1/2-z
-x,y,1/2+z
x,-y,1/2+z
loop_
_atom_site_type_symbol
_atom_site_label
_atom_site_fract_x
_atom_site_fract_y
_atom_site_fract_z
Si Si1 0.500000 0.500000 0.500000
Si Si2 0.000000 0.500000 0.368811
Si Si3 0.108901 0.835627 0.316551
Si Si4 0.964009 0.685760 0.579280
Si Si5 0.310773 0.221183 0.046758
O O1 0.413419 0.354718 0.462243
O O2 0.019698 0.662069 0.328090
O O3 0.151935 0.458972 0.412726
O O4 0.184483 0.815518 0.250000
O O5 0.247435 0.848686 0.367670
O O6 0.000000 0.000000 0.319267
O O7 0.876200 0.705836 0.515462
O O8 0.000000 0.500000 0.595471
O O9 0.134373 0.789044 0.579015
#
# Coordination Sequence:
#
# PCOD8310262 Si02
#       5
#     2   4   8   8   8
#     4  12  20  36  56 100 146 172 220 276 356 434
#     4  12  24  46  68 100 136 182 222 296 350 408
#     4  11  26  47  69  95 133 185 235 276 331 416
#     4  12  24  40  65  98 136 175 224 281 348 414
#     4  12  23  39  66 101 139 177 221 292 359 412
#
# _framework density 20.412527999999998
#
# number of rings (size 3 to 8) (size 9 to 14) (size 15 to 20)
#    0.000    0.267    6.667    3.200    1.867    0.000 
#    0.000    0.000    0.000    1.600    0.000    0.000 
#    0.000    0.000    0.000    0.000    0.000    0.000 
#
# Total GULP energy -371949.697099 kJ/mol
# GULP energy per Si atom -12398.323237 kJ/mol
# Density = 2.036607 g / cm^3
# Si number density = 20.412528 Si / 1000 Ang^3
#
#
#
# Elastic Constant Matrix: (Units=GPa)
#
#
# Indices 1 2 3 4 5 6 
#
# 1 110.9431 32.3372 40.9345 0.0000 0.0000 0.0000
# 2 32.3372 110.9433 40.9346 0.0000 0.0000 0.0000
# 3 40.9345 40.9346 124.6547 0.0000 0.0000 0.0000
# 4 0.0000 0.0000 0.0000 11.0360 0.0000 0.0000
# 5 0.0000 0.0000 0.0000 0.0000 11.0356 0.0000
# 6 0.0000 0.0000 0.0000 0.0000 0.0000 39.4906
#
#
#
# Elastic Compliance Matrix: (Units=1/GPa)
#
#
# Indices 1 2 3 4 5 6 
#
# 1 0.010657 -0.002065 -0.002821 0.000000 0.000000 0.000000
# 2 -0.002065 0.010657 -0.002821 0.000000 0.000000 0.000000
# 3 -0.002821 -0.002821 0.009875 0.000000 0.000000 0.000000
# 4 0.000000 0.000000 0.000000 0.090613 0.000000 0.000000
# 5 0.000000 0.000000 0.000000 0.000000 0.090616 0.000000
# 6 0.000000 0.000000 0.000000 0.000000 0.000000 0.025322
#
#
# Mechanical properties :
#
#
# Convention : Reuss Voigt Hill
#
# Bulk Modulus (GPa) = 63.40046 63.88373 63.64210
# Shear Modulus (GPa) = 19.34892 27.80142 23.57517
#
# Velocity S-wave (km/s) = 3.08213 3.69450 3.40212
# Velocity P-wave (km/s) = 6.61763 7.04013 6.83215
#
# Compressibility (1/GPa) = 0.01577276
#
# Stress axis : x y z
#
# Youngs Moduli (GPa) = 93.83917 93.83936 101.26507
#
# Poissons Ratio (x) = 0.19379 0.28570
# Poissons Ratio (y) = 0.19379 0.28570
# Poissons Ratio (z) = 0.26474 0.26475
#
# Static dielectric constant tensor:
#      x y z
#    x 3.781060 0.000000 0.000000 
#    y 0.000000 3.781060 0.000000 
#    z 0.000000 0.000000 3.740000 
# 
# 
# High freq. dielectric constant tensor:
#      x y z
#    x 1.807290 0.000000 0.000000 
#    y 0.000000 1.807290 0.000000 
#    z 0.000000 0.000000 1.785450 
# 
# From -- ./inp_files/3689.got.cif
#   From: 2010.03.12/outbox.cif.g09.slc.cpg/sg116_2_cif.got.tgz:3689.got - 2010.04.14 02:15:44.
