data_PCOD8310286
_publ_section_title
;
Structure prediction by ZEFSAII (Michael W. Deem and Ramdas Pophale) SiO2 
 PCOD8310286
Probable space group: P -4 B 2
;
_chemical_formula_sum "Si O2"
_cell_formula_units_Z 38
_cell_length_a 13.649583
_cell_length_b 13.649583
_cell_length_c 10.952733
_cell_angle_alpha 90.000000
_cell_angle_beta 90.000000
_cell_angle_gamma 90.000000
_cell_volume 2040.615909
_symmetry_space_group_name_H-M "P -4 B 2"
_symmetry_group_IT_number 117
_symmetry_cell_setting 'tetragonal'
loop_
_space_group_symop_operation_xyz
x,y,z
y,-x,-z
-x,-y,z
-y,x,-z
1/2+y,1/2+x,-z
1/2-y,1/2-x,-z
1/2-x,1/2+y,z
1/2+x,1/2-y,z
loop_
_atom_site_type_symbol
_atom_site_label
_atom_site_fract_x
_atom_site_fract_y
_atom_site_fract_z
Si Si1 0.769180 0.269180 0.500000
Si Si2 0.703740 0.855579 0.134560
Si Si3 0.895539 0.548912 0.131764
Si Si4 0.000000 0.500000 0.500000
Si Si5 0.308028 0.054988 0.647926
Si Si6 0.860705 0.743682 0.269836
O O1 0.882101 0.255750 0.457805
O O2 0.743642 0.197484 0.606496
O O3 0.623224 0.824841 0.234239
O O4 0.812354 0.820827 0.175522
O O5 0.694526 0.972624 0.127815
O O6 0.686773 0.813228 0.000000
O O7 0.861234 0.632594 0.222603
O O8 0.000000 0.500000 0.169866
O O9 0.903965 0.596035 0.000000
O O10 0.995951 0.405629 0.409660
O O11 0.231312 0.972997 0.695959
#
# Coordination Sequence:
#
# PCOD8310286 Si02
#       6
#     4   8   8   2   8   8
#     4   9  23  35  51  82 118 146 200 254 296 366
#     4  11  21  34  56  90 123 152 198 251 315 375
#     4  11  19  36  62  90 120 155 199 260 309 362
#     4  10  18  32  62  84 108 152 196 250 308 348
#     4  10  19  35  54  82 114 149 195 250 301 361
#     4  11  21  35  57  86 117 157 198 257 308 371
#
# _framework density 18.621829999999999
#
# number of rings (size 3 to 8) (size 9 to 14) (size 15 to 20)
#    0.000    1.474    4.211    2.526    0.000    3.368 
#    0.000    0.000    0.000   10.737    0.000    5.895 
#    0.000    0.000    0.000    0.000    0.000    0.000 
#
# Total GULP energy -470767.601483 kJ/mol
# GULP energy per Si atom -12388.621092 kJ/mol
# Density = 1.857945 g / cm^3
# Si number density = 18.621830 Si / 1000 Ang^3
#
#
#
# Elastic Constant Matrix: (Units=GPa)
#
#
# Indices 1 2 3 4 5 6 
#
# 1 100.9592 59.1077 57.1228 0.0000 0.0000 0.0000
# 2 59.1077 100.9592 57.1226 0.0000 0.0000 0.0000
# 3 57.1228 57.1226 133.2550 0.0000 0.0000 0.0000
# 4 0.0000 0.0000 0.0000 33.3102 0.0000 0.0000
# 5 0.0000 0.0000 0.0000 0.0000 33.3102 0.0000
# 6 0.0000 0.0000 0.0000 0.0000 0.0000 34.1107
#
#
#
# Elastic Compliance Matrix: (Units=1/GPa)
#
#
# Indices 1 2 3 4 5 6 
#
# 1 0.016448 -0.007446 -0.003859 0.000000 0.000000 0.000000
# 2 -0.007446 0.016448 -0.003859 0.000000 0.000000 0.000000
# 3 -0.003859 -0.003859 0.010813 0.000000 0.000000 0.000000
# 4 0.000000 0.000000 0.000000 0.030021 0.000000 0.000000
# 5 0.000000 0.000000 0.000000 0.000000 0.030021 0.000000
# 6 0.000000 0.000000 0.000000 0.000000 0.000000 0.029316
#
#
# Mechanical properties :
#
#
# Convention : Reuss Voigt Hill
#
# Bulk Modulus (GPa) = 74.73371 75.76440 75.24905
# Shear Modulus (GPa) = 29.78785 30.93422 30.36103
#
# Velocity S-wave (km/s) = 4.00386 4.08018 4.04220
# Velocity P-wave (km/s) = 7.84818 7.93544 7.89194
#
# Compressibility (1/GPa) = 0.01338084
#
# Stress axis : x y z
#
# Youngs Moduli (GPa) = 60.79852 60.79870 92.48445
#
# Poissons Ratio (x) = 0.45272 0.35687
# Poissons Ratio (y) = 0.45272 0.35686
# Poissons Ratio (z) = 0.23460 0.23460
#
# Static dielectric constant tensor:
#      x y z
#    x 3.622240 0.000000 0.000000 
#    y 0.000000 3.622240 0.000000 
#    z 0.000000 0.000000 3.826660 
# 
# 
# High freq. dielectric constant tensor:
#      x y z
#    x 1.700480 0.000000 0.000000 
#    y 0.000000 1.700480 0.000000 
#    z 0.000000 0.000000 1.758260 
# 
# From -- ./inp_files/2646.got.cif
#   From: 2010.03.12/outbox.cif.g09.slc.cpg/sg117_2_cif.got.tgz:2646.got - 2010.04.14 02:19:01.
