data_PCOD8310749
_publ_section_title
;
Structure prediction by ZEFSAII (Michael W. Deem and Ramdas Pophale) SiO2 
 PCOD8310749
Probable space group: I -4 M 2
;
_chemical_formula_sum "Si O2"
_cell_formula_units_Z 112
_cell_length_a 14.535242
_cell_length_b 14.535242
_cell_length_c 27.853427
_cell_angle_alpha 90.000000
_cell_angle_beta 90.000000
_cell_angle_gamma 90.000000
_cell_volume 5884.684324
_symmetry_space_group_name_H-M "I -4 M 2"
_symmetry_group_IT_number 119
_symmetry_cell_setting 'tetragonal'
loop_
_space_group_symop_operation_xyz
x,y,z
y,-x,-z
-x,-y,z
-y,x,-z
y,x,-z
-y,-x,-z
-x,y,z
x,-y,z
1/2+x,1/2+y,1/2+z
1/2+y,1/2-x,1/2-z
1/2-x,1/2-y,1/2+z
1/2-y,1/2+x,1/2-z
1/2+y,1/2+x,1/2-z
1/2-y,1/2-x,1/2-z
1/2-x,1/2+y,1/2+z
1/2+x,1/2-y,1/2+z
loop_
_atom_site_type_symbol
_atom_site_label
_atom_site_fract_x
_atom_site_fract_y
_atom_site_fract_z
Si Si1 0.168883 0.102924 0.393072
Si Si2 0.606221 0.603415 0.790046
Si Si3 0.109412 0.757257 0.111675
Si Si4 0.101382 0.659486 0.545436
Si Si5 0.603289 0.302222 0.455245
Si Si6 0.899136 0.280942 0.440537
Si Si7 0.236525 0.392408 0.278538
O O1 0.165757 0.128329 0.336849
O O2 0.274955 0.106852 0.408411
O O3 0.112008 0.176661 0.423176
O O4 0.127663 0.000000 0.401268
O O5 0.500000 0.618343 0.804067
O O6 0.624931 0.500000 0.772410
O O7 0.636327 0.668004 0.746336
O O8 0.156762 0.850847 0.092837
O O9 0.146899 0.672147 0.081257
O O10 0.139736 0.741981 0.166468
O O11 0.000000 0.764406 0.105053
O O12 0.190709 0.594162 0.547174
O O13 0.109845 0.721695 0.497889
O O14 0.000000 0.608555 0.545702
O O15 0.664901 0.335100 0.500000
O O16 0.500000 0.341190 0.460058
O O17 0.000000 0.315882 0.424866
O O18 0.218145 0.500000 0.275723
O O19 0.153379 0.346622 0.250000
#
# Coordination Sequence:
#
# PCOD8310749 Si02
#       7
#    16  16  16  16  16  16  16
#     4  10  18  31  54  83 115 150 188 228 281 346
#     4   9  18  33  54  80 109 144 188 236 284 340
#     4  11  24  41  59  84 117 153 199 252 299 345
#     4  10  21  37  59  86 119 156 190 234 289 348
#     4  12  24  41  64  88 119 156 201 251 296 346
#     4  11  21  35  56  81 117 157 192 232 286 352
#     4  10  22  38  58  84 115 151 191 239 295 352
#
# _framework density 19.032457000000001
#
# number of rings (size 3 to 8) (size 9 to 14) (size 15 to 20)
#    0.000    1.571    2.857    2.143    0.000    4.857 
#    0.000    5.000    0.000    5.143    0.000    0.000 
#    0.000    0.286    0.000    0.000    0.000    0.000 
#
# Total GULP energy -694241.219998 kJ/mol
# GULP energy per Si atom -12397.164643 kJ/mol
# Density = 1.898914 g / cm^3
# Si number density = 19.032457 Si / 1000 Ang^3
#
#
#
# Elastic Constant Matrix: (Units=GPa)
#
#
# Indices 1 2 3 4 5 6 
#
# 1 98.6075 28.9063 32.3805 0.0000 0.0000 0.0000
# 2 28.9063 98.6049 32.3802 0.0000 0.0000 0.0000
# 3 32.3805 32.3802 95.2309 0.0000 0.0000 0.0000
# 4 0.0000 0.0000 0.0000 24.4032 0.0000 0.0000
# 5 0.0000 0.0000 0.0000 0.0000 24.4035 0.0000
# 6 0.0000 0.0000 0.0000 0.0000 0.0000 17.8864
#
#
#
# Elastic Compliance Matrix: (Units=1/GPa)
#
#
# Indices 1 2 3 4 5 6 
#
# 1 0.011913 -0.002434 -0.003223 0.000000 0.000000 0.000000
# 2 -0.002434 0.011913 -0.003223 0.000000 0.000000 0.000000
# 3 -0.003223 -0.003223 0.012693 0.000000 0.000000 0.000000
# 4 0.000000 0.000000 0.000000 0.040978 0.000000 0.000000
# 5 0.000000 0.000000 0.000000 0.000000 0.040978 0.000000
# 6 0.000000 0.000000 0.000000 0.000000 0.000000 0.055908
#
#
# Mechanical properties :
#
#
# Convention : Reuss Voigt Hill
#
# Bulk Modulus (GPa) = 53.30859 53.30860 53.30860
# Shear Modulus (GPa) = 25.20200 26.59037 25.89619
#
# Velocity S-wave (km/s) = 3.64285 3.74184 3.69268
# Velocity P-wave (km/s) = 6.76490 6.83657 6.80083
#
# Compressibility (1/GPa) = 0.01875870
#
# Stress axis : x y z
#
# Youngs Moduli (GPa) = 83.94110 83.93878 78.78557
#
# Poissons Ratio (x) = 0.20430 0.25394
# Poissons Ratio (y) = 0.20431 0.25394
# Poissons Ratio (z) = 0.27055 0.27055
#
# Static dielectric constant tensor:
#      x y z
#    x 3.486790 0.000000 0.000000 
#    y 0.000000 3.486790 0.000000 
#    z 0.000000 0.000000 3.567270 
# 
# 
# High freq. dielectric constant tensor:
#      x y z
#    x 1.735800 0.000000 0.000000 
#    y 0.000000 1.735800 0.000000 
#    z 0.000000 0.000000 1.738410 
# 
# From -- ./inp_files/8832.got.cif
#   From: 2010.03.12/outbox.cif.g09.slc.cpg/sg119_5_cif.got.tgz:8832.got - 2010.04.14 02:25:26.
