data_PCOD8310287
_publ_section_title
;
Structure prediction by ZEFSAII (Michael W. Deem and Ramdas Pophale) SiO2 
 PCOD8310287
Probable space group: P -4 B 2
;
_chemical_formula_sum "Si O2"
_cell_formula_units_Z 48
_cell_length_a 15.158375
_cell_length_b 15.158375
_cell_length_c 11.050265
_cell_angle_alpha 90.000000
_cell_angle_beta 90.000000
_cell_angle_gamma 90.000000
_cell_volume 2539.089366
_symmetry_space_group_name_H-M "P -4 B 2"
_symmetry_group_IT_number 117
_symmetry_cell_setting 'tetragonal'
loop_
_space_group_symop_operation_xyz
x,y,z
y,-x,-z
-x,-y,z
-y,x,-z
1/2+y,1/2+x,-z
1/2-y,1/2-x,-z
1/2-x,1/2+y,z
1/2+x,1/2-y,z
loop_
_atom_site_type_symbol
_atom_site_label
_atom_site_fract_x
_atom_site_fract_y
_atom_site_fract_z
Si Si1 0.687629 0.075114 0.583916
Si Si2 0.918186 0.294368 0.576934
Si Si3 0.918437 0.452994 0.742568
Si Si4 0.912343 0.112011 0.984687
Si Si5 0.317431 0.320715 0.746595
Si Si6 0.352537 0.223154 0.120140
O O1 0.655628 0.155628 0.500000
O O2 0.747897 0.110720 0.692314
O O3 0.737377 0.000986 0.503678
O O4 0.604041 0.024791 0.639985
O O5 0.839374 0.339374 0.500000
O O6 0.950475 0.361940 0.681105
O O7 0.884387 0.204862 0.639464
O O8 0.832805 0.433601 0.824250
O O9 0.000000 0.500000 0.814950
O O10 0.867767 0.133021 0.856696
O O11 0.883953 0.178760 0.090387
O O12 0.017106 0.117796 0.967280
O O13 0.269140 0.230998 0.790527
O O14 0.328067 0.171934 0.000000
#
# Coordination Sequence:
#
# PCOD8310287 Si02
#       6
#     8   8   8   8   8   8
#     4  11  20  32  56  83 112 148 190 224 273 348
#     4   9  19  34  53  78 116 151 177 223 280 332
#     4  10  18  33  56  83 114 153 181 218 283 342
#     4  10  21  40  62  79 105 151 196 238 290 341
#     4  10  21  37  55  83 112 145 188 236 286 330
#     4   9  20  38  57  81 117 144 184 242 283 332
#
# _framework density 18.904416000000001
#
# number of rings (size 3 to 8) (size 9 to 14) (size 15 to 20)
#    0.000    2.167    1.667    1.500    0.000    1.667 
#    3.000    3.333    0.000    0.000    0.000    0.000 
#    0.000    0.000    0.000    0.000    0.000    0.000 
#
# Total GULP energy -595100.116018 kJ/mol
# GULP energy per Si atom -12397.919084 kJ/mol
# Density = 1.886139 g / cm^3
# Si number density = 18.904416 Si / 1000 Ang^3
#
#
#
# Elastic Constant Matrix: (Units=GPa)
#
#
# Indices 1 2 3 4 5 6 
#
# 1 90.1323 50.6177 38.3126 0.0000 0.0000 0.0000
# 2 50.6177 90.1327 38.3124 0.0000 0.0000 0.0000
# 3 38.3126 38.3124 81.0287 0.0000 0.0000 0.0000
# 4 0.0000 0.0000 0.0000 32.1400 0.0000 0.0000
# 5 0.0000 0.0000 0.0000 0.0000 32.1410 0.0000
# 6 0.0000 0.0000 0.0000 0.0000 0.0000 28.2254
#
#
#
# Elastic Compliance Matrix: (Units=1/GPa)
#
#
# Indices 1 2 3 4 5 6 
#
# 1 0.017437 -0.007870 -0.004524 0.000000 0.000000 0.000000
# 2 -0.007870 0.017437 -0.004524 0.000000 0.000000 0.000000
# 3 -0.004524 -0.004524 0.016619 0.000000 0.000000 0.000000
# 4 0.000000 0.000000 0.000000 0.031114 0.000000 0.000000
# 5 0.000000 0.000000 0.000000 0.000000 0.031113 0.000000
# 6 0.000000 0.000000 0.000000 0.000000 0.000000 0.035429
#
#
# Mechanical properties :
#
#
# Convention : Reuss Voigt Hill
#
# Bulk Modulus (GPa) = 56.62774 57.30878 56.96826
# Shear Modulus (GPa) = 26.47315 27.43802 26.95558
#
# Velocity S-wave (km/s) = 3.74621 3.81387 3.78019
# Velocity P-wave (km/s) = 6.98082 7.05514 7.01808
#
# Compressibility (1/GPa) = 0.01765919
#
# Stress axis : x y z
#
# Youngs Moduli (GPa) = 57.34821 57.34870 60.17123
#
# Poissons Ratio (x) = 0.45132 0.27221
# Poissons Ratio (y) = 0.45131 0.27220
# Poissons Ratio (z) = 0.25943 0.25943
#
# Static dielectric constant tensor:
#      x y z
#    x 3.403160 0.000000 0.000000 
#    y 0.000000 3.403160 0.000000 
#    z 0.000000 0.000000 3.491180 
# 
# 
# High freq. dielectric constant tensor:
#      x y z
#    x 1.727300 0.000000 0.000000 
#    y 0.000000 1.727300 0.000000 
#    z 0.000000 0.000000 1.733580 
# 
# From -- ./inp_files/2761.got.cif
#   From: 2010.03.12/outbox.cif.g09.slc.cpg/sg117_2_cif.got.tgz:2761.got - 2010.04.14 02:19:01.
