data_PCOD8310890
_publ_section_title
;
Structure prediction by ZEFSAII (Michael W. Deem and Ramdas Pophale) SiO2 
 PCOD8310890
Probable space group: I -4 M 2
;
_chemical_formula_sum "Si O2"
_cell_formula_units_Z 112
_cell_length_a 34.356558
_cell_length_b 34.356558
_cell_length_c 5.071682
_cell_angle_alpha 90.000000
_cell_angle_beta 90.000000
_cell_angle_gamma 90.000000
_cell_volume 5986.476891
_symmetry_space_group_name_H-M "I -4 M 2"
_symmetry_group_IT_number 119
_symmetry_cell_setting 'tetragonal'
loop_
_space_group_symop_operation_xyz
x,y,z
y,-x,-z
-x,-y,z
-y,x,-z
y,x,-z
-y,-x,-z
-x,y,z
x,-y,z
1/2+x,1/2+y,1/2+z
1/2+y,1/2-x,1/2-z
1/2-x,1/2-y,1/2+z
1/2-y,1/2+x,1/2-z
1/2+y,1/2+x,1/2-z
1/2-y,1/2-x,1/2-z
1/2-x,1/2+y,1/2+z
1/2+x,1/2-y,1/2+z
loop_
_atom_site_type_symbol
_atom_site_label
_atom_site_fract_x
_atom_site_fract_y
_atom_site_fract_z
Si Si1 0.618969 0.761070 0.664664
Si Si2 0.891347 0.954370 0.941869
Si Si3 0.590965 0.153937 0.666829
Si Si4 0.576682 0.742073 0.163626
Si Si5 0.326399 0.044552 0.340115
Si Si6 0.157987 0.044582 0.454375
Si Si7 0.765922 0.298810 0.497888
O O1 0.617668 0.807763 0.661379
O O2 0.587663 0.740482 0.472093
O O3 0.659028 0.747044 0.533357
O O4 0.613544 0.747487 0.966242
O O5 0.868599 0.936773 0.686959
O O6 0.902622 0.000000 0.911948
O O7 0.931099 0.931099 0.000000
O O8 0.862044 0.946978 0.179162
O O9 0.617118 0.117118 0.750000
O O10 0.571302 0.151932 0.377923
O O11 0.556304 0.156602 0.877282
O O12 0.548594 0.779478 0.139866
O O13 0.557706 0.702446 0.064557
O O14 0.336633 0.000000 0.280034
O O15 0.159641 0.000000 0.531269
O O16 0.730696 0.269305 0.500000
O O17 0.793559 0.293559 0.250000
O O18 0.793577 0.293577 0.750000
#
# Coordination Sequence:
#
# PCOD8310890 Si02
#       7
#    16  16  16  16  16  16  16
#     4  10  20  33  51  75 103 134 174 217 260 307
#     4  10  21  37  57  80 104 132 170 216 266 322
#     4  10  20  33  52  78 108 140 172 212 262 314
#     4  10  20  34  52  76 105 138 172 208 253 306
#     4  10  20  34  53  78 109 140 174 214 254 303
#     4  10  20  36  57  78 104 137 172 205 246 311
#     4  10  20  34  51  68  91 128 174 220 261 301
#
# _framework density 18.708834
#
# number of rings (size 3 to 8) (size 9 to 14) (size 15 to 20)
#    0.000    2.000    0.000    3.857    0.000    2.429 
#    0.000    8.571    0.000    2.571    0.000    0.000 
#    0.000   20.000    0.000    0.000    0.000    0.000 
#
# Total GULP energy -694056.842503 kJ/mol
# GULP energy per Si atom -12393.872188 kJ/mol
# Density = 1.866625 g / cm^3
# Si number density = 18.708834 Si / 1000 Ang^3
#
#
#
# Elastic Constant Matrix: (Units=GPa)
#
#
# Indices 1 2 3 4 5 6 
#
# 1 64.7013 33.5473 33.8862 0.0000 0.0000 0.0000
# 2 33.5473 64.7058 33.8850 0.0000 0.0000 0.0000
# 3 33.8862 33.8850 99.6201 0.0000 0.0000 0.0000
# 4 0.0000 0.0000 0.0000 24.1734 0.0000 0.0000
# 5 0.0000 0.0000 0.0000 0.0000 24.1759 0.0000
# 6 0.0000 0.0000 0.0000 0.0000 0.0000 12.2964
#
#
#
# Elastic Compliance Matrix: (Units=1/GPa)
#
#
# Indices 1 2 3 4 5 6 
#
# 1 0.022698 -0.009399 -0.004524 0.000000 0.000000 0.000000
# 2 -0.009399 0.022696 -0.004523 0.000000 0.000000 0.000000
# 3 -0.004524 -0.004523 0.013115 0.000000 0.000000 0.000000
# 4 0.000000 0.000000 0.000000 0.041368 0.000000 0.000000
# 5 0.000000 0.000000 0.000000 0.000000 0.041363 0.000000
# 6 0.000000 0.000000 0.000000 0.000000 0.000000 0.081325
#
#
# Mechanical properties :
#
#
# Convention : Reuss Voigt Hill
#
# Bulk Modulus (GPa) = 46.25723 47.96272 47.10998
# Shear Modulus (GPa) = 18.75022 20.64305 19.69663
#
# Velocity S-wave (km/s) = 3.16921 3.32533 3.24821
# Velocity P-wave (km/s) = 6.17821 6.35891 6.26922
#
# Compressibility (1/GPa) = 0.02161824
#
# Stress axis : x y z
#
# Youngs Moduli (GPa) = 44.05605 44.06047 76.24661
#
# Poissons Ratio (x) = 0.41413 0.34493
# Poissons Ratio (y) = 0.41409 0.34484
# Poissons Ratio (z) = 0.19931 0.19927
#
# Static dielectric constant tensor:
#      x y z
#    x 3.240620 0.000000 0.000000 
#    y 0.000000 3.240630 0.000000 
#    z 0.000000 0.000000 3.701070 
# 
# 
# High freq. dielectric constant tensor:
#      x y z
#    x 1.707020 0.000000 0.000000 
#    y 0.000000 1.707020 0.000000 
#    z 0.000000 0.000000 1.752790 
# 
# From -- ./inp_files/1243.got.cif
#   From: 2010.03.12/outbox.cif.g09.slc.cpg/sg119_1_cif.got.tgz:1243.got - 2010.04.14 02:25:26.
