data_PCOD8310229
_publ_section_title
;
Structure prediction by ZEFSAII (Michael W. Deem and Ramdas Pophale) SiO2 
 PCOD8310229
Probable space group: P -4 C 2
;
_chemical_formula_sum "Si O2"
_cell_formula_units_Z 48
_cell_length_a 11.121431
_cell_length_b 11.121431
_cell_length_c 20.579983
_cell_angle_alpha 90.000000
_cell_angle_beta 90.000000
_cell_angle_gamma 90.000000
_cell_volume 2545.460459
_symmetry_space_group_name_H-M "P -4 C 2"
_symmetry_group_IT_number 116
_symmetry_cell_setting 'tetragonal'
loop_
_space_group_symop_operation_xyz
x,y,z
y,-x,-z
-x,-y,z
-y,x,-z
y,x,1/2-z
-y,-x,1/2-z
-x,y,1/2+z
x,-y,1/2+z
loop_
_atom_site_type_symbol
_atom_site_label
_atom_site_fract_x
_atom_site_fract_y
_atom_site_fract_z
Si Si1 0.381147 0.439846 0.893921
Si Si2 0.731502 0.603425 0.493697
Si Si3 0.621610 0.057880 0.414346
Si Si4 0.238508 0.237800 0.826420
Si Si5 0.207104 0.854434 0.965193
Si Si6 0.136985 0.972199 0.096024
O O1 0.500000 0.500000 0.860008
O O2 0.289366 0.534199 0.926662
O O3 0.297088 0.366648 0.844252
O O4 0.441490 0.357784 0.949933
O O5 0.867701 0.590744 0.520104
O O6 0.703490 0.745109 0.482033
O O7 0.674528 0.136990 0.356070
O O8 0.500000 0.000000 0.387072
O O9 0.718859 0.958241 0.431309
O O10 0.229833 0.229833 0.750000
O O11 0.102101 0.216204 0.851953
O O12 0.103361 0.804493 0.916356
O O13 0.136749 0.893763 0.030238
O O14 0.000000 0.000000 0.118348
#
# Coordination Sequence:
#
# PCOD8310229 Si02
#       6
#     8   8   8   8   8   8
#     4  11  21  37  61  88 120 158 207 260 305 368
#     4  11  19  33  58  95 125 147 192 256 323 368
#     4  11  23  35  60  92 127 156 192 257 313 363
#     4  11  26  44  60  85 122 172 214 243 295 375
#     4  12  19  34  60 100 129 153 192 259 332 368
#     4  12  18  36  61  91 128 155 196 250 310 378
#
# _framework density 18.857101
#
# number of rings (size 3 to 8) (size 9 to 14) (size 15 to 20)
#    0.000    0.667   10.000    1.000    2.333    0.667 
#    0.000    1.667    0.000    0.000    0.000    0.000 
#    0.000    0.000    0.000    0.000    0.000    0.000 
#
# Total GULP energy -595011.196942 kJ/mol
# GULP energy per Si atom -12396.066603 kJ/mol
# Density = 1.881418 g / cm^3
# Si number density = 18.857101 Si / 1000 Ang^3
#
#
#
# Elastic Constant Matrix: (Units=GPa)
#
#
# Indices 1 2 3 4 5 6 
#
# 1 98.9784 48.6740 43.0689 0.0000 0.0000 0.0000
# 2 48.6740 98.9784 43.0689 0.0000 0.0000 0.0000
# 3 43.0689 43.0689 100.4840 0.0000 0.0000 0.0000
# 4 0.0000 0.0000 0.0000 17.4398 0.0000 0.0000
# 5 0.0000 0.0000 0.0000 0.0000 17.4398 0.0000
# 6 0.0000 0.0000 0.0000 0.0000 0.0000 44.0434
#
#
#
# Elastic Compliance Matrix: (Units=1/GPa)
#
#
# Indices 1 2 3 4 5 6 
#
# 1 0.014455 -0.005424 -0.003871 0.000000 0.000000 0.000000
# 2 -0.005424 0.014455 -0.003871 0.000000 0.000000 0.000000
# 3 -0.003871 -0.003871 0.013270 0.000000 0.000000 0.000000
# 4 0.000000 0.000000 0.000000 0.057340 0.000000 0.000000
# 5 0.000000 0.000000 0.000000 0.000000 0.057340 0.000000
# 6 0.000000 0.000000 0.000000 0.000000 0.000000 0.022705
#
#
# Mechanical properties :
#
#
# Convention : Reuss Voigt Hill
#
# Bulk Modulus (GPa) = 63.09708 63.11826 63.10767
# Shear Modulus (GPa) = 23.67660 26.69319 25.18490
#
# Velocity S-wave (km/s) = 3.54726 3.76646 3.65850
# Velocity P-wave (km/s) = 7.09300 7.24290 7.16834
#
# Compressibility (1/GPa) = 0.01584859
#
# Stress axis : x y z
#
# Youngs Moduli (GPa) = 69.18085 69.18085 75.35838
#
# Poissons Ratio (x) = 0.37524 0.29169
# Poissons Ratio (y) = 0.37524 0.29169
# Poissons Ratio (z) = 0.26778 0.26778
#
# Static dielectric constant tensor:
#      x y z
#    x 3.677580 0.000000 0.000000 
#    y 0.000000 3.677580 0.000000 
#    z 0.000000 0.000000 2.986470 
# 
# 
# High freq. dielectric constant tensor:
#      x y z
#    x 1.745560 0.000000 0.000000 
#    y 0.000000 1.745560 0.000000 
#    z 0.000000 0.000000 1.675490 
# 
# From -- ./inp_files/4062.got.cif
#   From: 2010.03.12/outbox.cif.g09.slc.cpg/sg116_3_cif.got.tgz:4062.got - 2010.04.14 02:15:44.
