data_PCOD8310508
_publ_section_title
;
Structure prediction by ZEFSAII (Michael W. Deem and Ramdas Pophale) SiO2 
 PCOD8310508
Probable space group: P -4 N 2
;
_chemical_formula_sum "Si O2"
_cell_formula_units_Z 24
_cell_length_a 11.829391
_cell_length_b 11.829391
_cell_length_c 7.844369
_cell_angle_alpha 90.000000
_cell_angle_beta 90.000000
_cell_angle_gamma 90.000000
_cell_volume 1097.697787
_symmetry_space_group_name_H-M "P -4 N 2"
_symmetry_group_IT_number 118
_symmetry_cell_setting 'tetragonal'
loop_
_space_group_symop_operation_xyz
x,y,z
y,-x,-z
-x,-y,z
-y,x,-z
1/2+y,1/2+x,1/2-z
1/2-y,1/2-x,1/2-z
1/2-x,1/2+y,1/2+z
1/2+x,1/2-y,1/2+z
loop_
_atom_site_type_symbol
_atom_site_label
_atom_site_fract_x
_atom_site_fract_y
_atom_site_fract_z
Si Si1 0.000000 0.000000 0.500000
Si Si2 0.230400 0.730400 0.250000
Si Si3 0.765723 0.012042 0.665011
Si Si4 0.593778 0.177621 0.484563
Si Si5 0.000000 0.500000 0.750000
O O1 0.895358 0.038138 0.618132
O O2 0.235351 0.618789 0.133492
O O3 0.340551 0.730627 0.371063
O O4 0.683049 0.084962 0.549344
O O5 0.745477 0.034900 0.864639
O O6 0.500624 0.112282 0.369320
#
# Coordination Sequence:
#
# PCOD8310508 Si02
#       5
#     2   4   8   8   2
#     4  12  24  44  70 100 144 176 226 276 352 386
#     4  11  22  40  66  97 132 176 224 277 336 404
#     4  11  23  44  66  97 135 181 222 281 330 410
#     4  10  23  42  67  97 132 179 230 272 339 399
#     4  10  20  42  68  98 132 172 228 284 324 406
#
# _framework density 21.863942999999999
#
# number of rings (size 3 to 8) (size 9 to 14) (size 15 to 20)
#    0.000    1.333    3.333    2.000    0.000    5.333 
#    6.000    0.000    0.000    0.000    0.000    0.000 
#    0.000    0.000    0.000    0.000    0.000    0.000 
#
# Total GULP energy -297666.860867 kJ/mol
# GULP energy per Si atom -12402.785869 kJ/mol
# Density = 2.181418 g / cm^3
# Si number density = 21.863943 Si / 1000 Ang^3
#
#
#
# Elastic Constant Matrix: (Units=GPa)
#
#
# Indices 1 2 3 4 5 6 
#
# 1 97.6236 50.4266 41.2587 0.0000 0.0000 0.0000
# 2 50.4266 97.6236 41.2587 0.0000 0.0000 0.0000
# 3 41.2587 41.2587 121.3905 0.0000 0.0000 0.0000
# 4 0.0000 0.0000 0.0000 23.9781 0.0000 0.0000
# 5 0.0000 0.0000 0.0000 0.0000 23.9781 0.0000
# 6 0.0000 0.0000 0.0000 0.0000 0.0000 37.7099
#
#
#
# Elastic Compliance Matrix: (Units=1/GPa)
#
#
# Indices 1 2 3 4 5 6 
#
# 1 0.014760 -0.006427 -0.002832 0.000000 0.000000 0.000000
# 2 -0.006427 0.014760 -0.002832 0.000000 0.000000 0.000000
# 3 -0.002832 -0.002832 0.010163 0.000000 0.000000 0.000000
# 4 0.000000 0.000000 0.000000 0.041705 0.000000 0.000000
# 5 0.000000 0.000000 0.000000 0.000000 0.041705 0.000000
# 6 0.000000 0.000000 0.000000 0.000000 0.000000 0.026518
#
#
# Mechanical properties :
#
#
# Convention : Reuss Voigt Hill
#
# Bulk Modulus (GPa) = 64.51535 64.72510 64.62022
# Shear Modulus (GPa) = 27.93888 29.37949 28.65918
#
# Velocity S-wave (km/s) = 3.57858 3.66968 3.62442
# Velocity P-wave (km/s) = 6.82984 6.90096 6.86549
#
# Compressibility (1/GPa) = 0.01550019
#
# Stress axis : x y z
#
# Youngs Moduli (GPa) = 67.74873 67.74873 98.39452
#
# Poissons Ratio (x) = 0.43545 0.27868
# Poissons Ratio (y) = 0.43545 0.27868
# Poissons Ratio (z) = 0.19188 0.19188
#
# Static dielectric constant tensor:
#      x y z
#    x 3.860750 0.000000 0.000000 
#    y 0.000000 3.860750 0.000000 
#    z 0.000000 0.000000 4.003320 
# 
# 
# High freq. dielectric constant tensor:
#      x y z
#    x 1.856800 0.000000 0.000000 
#    y 0.000000 1.856800 0.000000 
#    z 0.000000 0.000000 1.865610 
# 
# From -- ./inp_files/1433.got.cif
#   From: 2010.03.12/outbox.cif.g09.slc.cpg/sg118_1_cif.got.tgz:1433.got - 2010.04.14 02:21:17.
