data_PCOD8310279
_publ_section_title
;
Structure prediction by ZEFSAII (Michael W. Deem and Ramdas Pophale) SiO2 
 PCOD8310279
Probable space group: P -4 B 2
;
_chemical_formula_sum "Si O2"
_cell_formula_units_Z 64
_cell_length_a 21.517529
_cell_length_b 21.517529
_cell_length_c 8.831977
_cell_angle_alpha 90.000000
_cell_angle_beta 90.000000
_cell_angle_gamma 90.000000
_cell_volume 4089.241158
_symmetry_space_group_name_H-M "P -4 B 2"
_symmetry_group_IT_number 117
_symmetry_cell_setting 'tetragonal'
loop_
_space_group_symop_operation_xyz
x,y,z
y,-x,-z
-x,-y,z
-y,x,-z
1/2+y,1/2+x,-z
1/2-y,1/2-x,-z
1/2-x,1/2+y,z
1/2+x,1/2-y,z
loop_
_atom_site_type_symbol
_atom_site_label
_atom_site_fract_x
_atom_site_fract_y
_atom_site_fract_z
Si Si1 0.433064 0.329813 0.926414
Si Si2 0.062159 0.161576 0.076815
Si Si3 0.664575 0.246953 0.074483
Si Si4 0.338424 0.437841 0.576817
Si Si5 0.242756 0.655999 0.571672
Si Si6 0.170186 0.066936 0.426414
Si Si7 0.257246 0.155998 0.928330
Si Si8 0.335426 0.753048 0.425519
O O1 0.391621 0.389248 0.972347
O O2 0.426135 0.316656 0.750000
O O3 0.503814 0.344149 0.967491
O O4 0.410706 0.267238 0.012418
O O5 0.093504 0.230162 0.057314
O O6 0.040853 0.151839 0.249999
O O7 0.684546 0.248208 0.250002
O O8 0.678552 0.178552 0.000000
O O9 0.706532 0.294142 0.979816
O O10 0.391620 0.389249 0.527654
O O11 0.344149 0.496187 0.467493
O O12 0.269838 0.406498 0.557315
O O13 0.175969 0.675969 0.500000
O O14 0.267239 0.589296 0.512418
O O15 0.235658 0.653365 0.750001
O O16 0.293471 0.705860 0.520191
O O17 0.324033 0.175967 0.000000
O O18 0.321450 0.821450 0.500000
#
# Coordination Sequence:
#
# PCOD8310279 Si02
#       8
#     8   8   8   8   8   8   8   8
#     4  10  20  32  45  62  85 115 151 184 216 257
#     4   9  19  32  43  60  86 115 148 184 218 254
#     4   9  16  27  43  63  85 108 139 177 218 262
#     4   9  19  32  43  60  86 115 148 184 218 254
#     4  10  17  27  44  63  84 108 137 175 219 261
#     4  10  20  32  45  62  85 115 151 184 216 257
#     4  10  17  27  44  63  84 108 137 175 219 261
#     4   9  16  27  43  63  85 108 139 177 218 262
#
# _framework density 15.650824999999999
#
# number of rings (size 3 to 8) (size 9 to 14) (size 15 to 20)
#    0.000    2.500    0.000    6.750    0.000    6.500 
#    0.000    2.500    0.000    0.000    0.000    0.000 
#    0.000    1.000    0.000   10.500    0.000    6.250 
#
# Total GULP energy -793071.824655 kJ/mol
# GULP energy per Si atom -12391.747260 kJ/mol
# Density = 1.561520 g / cm^3
# Si number density = 15.650825 Si / 1000 Ang^3
#
#
#
# Elastic Constant Matrix: (Units=GPa)
#
#
# Indices 1 2 3 4 5 6 
#
# 1 57.2825 56.6656 40.6293 0.0000 0.0000 0.0000
# 2 56.6656 57.2829 40.6293 0.0000 0.0000 0.0000
# 3 40.6293 40.6293 104.8624 0.0000 0.0000 0.0000
# 4 0.0000 0.0000 0.0000 25.4829 0.0000 0.0000
# 5 0.0000 0.0000 0.0000 0.0000 25.4828 0.0000
# 6 0.0000 0.0000 0.0000 0.0000 0.0000 16.8439
#
#
#
# Elastic Compliance Matrix: (Units=1/GPa)
#
#
# Indices 1 2 3 4 5 6 
#
# 1 0.816285 -0.804154 -0.004700 0.000000 0.000000 0.000000
# 2 -0.804154 0.816276 -0.004696 0.000000 0.000000 0.000000
# 3 -0.004700 -0.004696 0.013177 0.000000 0.000000 0.000000
# 4 0.000000 0.000000 0.000000 0.039242 0.000000 0.000000
# 5 0.000000 0.000000 0.000000 0.000000 0.039242 0.000000
# 6 0.000000 0.000000 0.000000 0.000000 0.000000 0.059369
#
#
# Mechanical properties :
#
#
# Convention : Reuss Voigt Hill
#
# Bulk Modulus (GPa) = 53.65868 55.03070 54.34469
# Shear Modulus (GPa) = 1.46331 18.99548 10.22939
#
# Velocity S-wave (km/s) = 0.96799 3.48761 2.55934
# Velocity P-wave (km/s) = 5.96730 7.17326 6.59789
#
# Compressibility (1/GPa) = 0.01863631
#
# Stress axis : x y z
#
# Youngs Moduli (GPa) = 1.22506 1.22508 75.88884
#
# Poissons Ratio (x) = 0.98515 0.35671
# Poissons Ratio (y) = 0.98514 0.35641
# Poissons Ratio (z) = 0.00576 0.00575
#
# Static dielectric constant tensor:
#      x y z
#    x 3.147340 0.000000 0.000000 
#    y 0.000000 3.147340 0.000000 
#    z 0.000000 0.000000 3.080320 
# 
# 
# High freq. dielectric constant tensor:
#      x y z
#    x 1.572040 0.000000 0.000000 
#    y 0.000000 1.572040 0.000000 
#    z 0.000000 0.000000 1.618170 
# 
# From -- ./inp_files/2172.got.cif
#   From: 2010.03.12/outbox.cif.g09.slc.cpg/sg117_2_cif.got.tgz:2172.got - 2010.04.14 02:19:01.
