data_PCOD8310496
_publ_section_title
;
Structure prediction by ZEFSAII (Michael W. Deem and Ramdas Pophale) SiO2 
 PCOD8310496
Probable space group: P -4 N 2
;
_chemical_formula_sum "Si O2"
_cell_formula_units_Z 48
_cell_length_a 8.641696
_cell_length_b 8.641696
_cell_length_c 31.913465
_cell_angle_alpha 90.000000
_cell_angle_beta 90.000000
_cell_angle_gamma 90.000000
_cell_volume 2383.262773
_symmetry_space_group_name_H-M "P -4 N 2"
_symmetry_group_IT_number 118
_symmetry_cell_setting 'tetragonal'
loop_
_space_group_symop_operation_xyz
x,y,z
y,-x,-z
-x,-y,z
-y,x,-z
1/2+y,1/2+x,1/2-z
1/2-y,1/2-x,1/2-z
1/2-x,1/2+y,1/2+z
1/2+x,1/2-y,1/2+z
loop_
_atom_site_type_symbol
_atom_site_label
_atom_site_fract_x
_atom_site_fract_y
_atom_site_fract_z
Si Si1 0.739958 0.189376 0.123681
Si Si2 0.744022 0.282887 0.703748
Si Si3 0.000000 0.000000 0.162456
Si Si4 0.000000 0.500000 0.822548
Si Si5 0.714289 0.611209 0.048935
Si Si6 0.737352 0.603631 0.958937
Si Si7 0.324597 0.967570 0.636375
O O1 0.613425 0.099351 0.149422
O O2 0.702796 0.166245 0.074595
O O3 0.731925 0.370882 0.135795
O O4 0.907635 0.117279 0.132475
O O5 0.714028 0.214028 0.750000
O O6 0.606020 0.398490 0.692614
O O7 0.904317 0.378273 0.705226
O O8 0.754877 0.142815 0.670592
O O9 0.647316 0.441675 0.041746
O O10 0.578691 0.740100 0.053692
O O11 0.819987 0.616139 0.090666
O O12 0.808137 0.641669 0.005278
O O13 0.500000 0.000000 0.649316
#
# Coordination Sequence:
#
# PCOD8310496 Si02
#       7
#     8   8   4   4   8   8   8
#     4  10  20  38  62  88 122 160 202 245 310 367
#     4  11  24  42  64  89 120 158 207 250 317 371
#     4  10  22  42  60  85 132 162 186 261 322 372
#     4  10  23  40  62  90 120 158 196 260 313 368
#     4   8  15  28  53  86 120 142 200 251 297 334
#     4   8  14  29  54  86 113 153 194 254 286 349
#     4  11  21  37  61  88 119 164 199 249 305 368
#
# _framework density 20.140457000000001
#
# number of rings (size 3 to 8) (size 9 to 14) (size 15 to 20)
#    0.000    2.333    1.667    2.250    0.000    3.667 
#    1.500    1.667    3.667    1.000    0.000    0.000 
#    0.000    0.000    0.000    0.000    0.000    0.000 
#
# Total GULP energy -594971.662156 kJ/mol
# GULP energy per Si atom -12395.242962 kJ/mol
# Density = 2.009462 g / cm^3
# Si number density = 20.140457 Si / 1000 Ang^3
#
#
#
# Elastic Constant Matrix: (Units=GPa)
#
#
# Indices 1 2 3 4 5 6 
#
# 1 75.4136 24.7125 41.1764 0.0000 0.0000 0.0000
# 2 24.7125 75.4136 41.1764 0.0000 0.0000 0.0000
# 3 41.1764 41.1764 152.2719 0.0000 0.0000 0.0000
# 4 0.0000 0.0000 0.0000 17.7821 0.0000 0.0000
# 5 0.0000 0.0000 0.0000 0.0000 17.7821 0.0000
# 6 0.0000 0.0000 0.0000 0.0000 0.0000 21.7791
#
#
#
# Elastic Compliance Matrix: (Units=1/GPa)
#
#
# Indices 1 2 3 4 5 6 
#
# 1 0.016284 -0.003440 -0.003473 0.000000 0.000000 0.000000
# 2 -0.003440 0.016284 -0.003473 0.000000 0.000000 0.000000
# 3 -0.003473 -0.003473 0.008446 0.000000 0.000000 0.000000
# 4 0.000000 0.000000 0.000000 0.056236 0.000000 0.000000
# 5 0.000000 0.000000 0.000000 0.000000 0.056236 0.000000
# 6 0.000000 0.000000 0.000000 0.000000 0.000000 0.045916
#
#
# Mechanical properties :
#
#
# Convention : Reuss Voigt Hill
#
# Bulk Modulus (GPa) = 49.40481 57.46993 53.43737
# Shear Modulus (GPa) = 22.03412 24.53756 23.28584
#
# Velocity S-wave (km/s) = 3.31119 3.49423 3.40394
# Velocity P-wave (km/s) = 6.26115 6.69896 6.48375
#
# Compressibility (1/GPa) = 0.02024094
#
# Stress axis : x y z
#
# Youngs Moduli (GPa) = 61.41083 61.41083 118.40472
#
# Poissons Ratio (x) = 0.21123 0.41125
# Poissons Ratio (y) = 0.21123 0.41125
# Poissons Ratio (z) = 0.21329 0.21329
#
# Static dielectric constant tensor:
#      x y z
#    x 3.644360 0.000000 0.000000 
#    y 0.000000 3.644360 0.000000 
#    z 0.000000 0.000000 3.853900 
# 
# 
# High freq. dielectric constant tensor:
#      x y z
#    x 1.772770 0.000000 0.000000 
#    y 0.000000 1.772770 0.000000 
#    z 0.000000 0.000000 1.789890 
# 
# From -- ./inp_files/6927.got.cif
#   From: 2010.03.12/outbox.cif.g09.slc.cpg/sg118_4_cif.got.tgz:6927.got - 2010.04.14 02:21:17.
