data_PCOD8310611
_publ_section_title
;
Structure prediction by ZEFSAII (Michael W. Deem and Ramdas Pophale) SiO2 
 PCOD8310611
Probable space group: P -4 N 2
;
_chemical_formula_sum "Si O2"
_cell_formula_units_Z 58
_cell_length_a 17.961638
_cell_length_b 17.961638
_cell_length_c 8.370706
_cell_angle_alpha 90.000000
_cell_angle_beta 90.000000
_cell_angle_gamma 90.000000
_cell_volume 2700.560850
_symmetry_space_group_name_H-M "P -4 N 2"
_symmetry_group_IT_number 118
_symmetry_cell_setting 'tetragonal'
loop_
_space_group_symop_operation_xyz
x,y,z
y,-x,-z
-x,-y,z
-y,x,-z
1/2+y,1/2+x,1/2-z
1/2-y,1/2-x,1/2-z
1/2-x,1/2+y,1/2+z
1/2+x,1/2-y,1/2+z
loop_
_atom_site_type_symbol
_atom_site_label
_atom_site_fract_x
_atom_site_fract_y
_atom_site_fract_z
Si Si1 0.749023 0.451516 0.433235
Si Si2 0.188034 0.145542 0.659313
Si Si3 0.003585 0.378698 0.256906
Si Si4 0.022866 0.657629 0.599567
Si Si5 0.693308 0.806572 0.079237
Si Si6 0.297126 0.461111 0.716680
Si Si7 0.000000 0.500000 0.750000
Si Si8 0.901635 0.955630 0.446372
O O1 0.714994 0.422936 0.267553
O O2 0.826923 0.492210 0.396915
O O3 0.758457 0.379072 0.542514
O O4 0.701108 0.513132 0.530764
O O5 0.252776 0.197397 0.578674
O O6 0.127868 0.193312 0.760085
O O7 0.154575 0.107546 0.502242
O O8 0.939048 0.439048 0.250000
O O9 0.999279 0.328765 0.416085
O O10 0.084558 0.415443 0.250000
O O11 0.110008 0.668580 0.617893
O O12 0.980947 0.717442 0.708506
O O13 0.999214 0.573297 0.640468
O O14 0.725558 0.774443 0.250000
O O15 0.367564 0.503392 0.793384
O O16 0.981672 0.916148 0.414022
#
# Coordination Sequence:
#
# PCOD8310611 Si02
#       8
#     8   8   8   8   8   8   2   8
#     4  12  22  40  61  90 128 174 219 268 331 414
#     4  11  23  41  63  97 132 169 220 288 341 417
#     4  11  22  35  60  91 123 162 214 275 333 394
#     4  12  22  40  62  95 127 169 219 282 332 407
#     4  12  21  41  69  92 121 177 233 267 334 425
#     4  11  24  41  64  94 130 171 224 279 343 404
#     4  12  24  36  66  96 132 164 226 284 334 406
#     4   9  18  37  65  91 118 156 207 270 334 393
#
# _framework density 21.47702
#
# number of rings (size 3 to 8) (size 9 to 14) (size 15 to 20)
#    0.000    0.828    6.207    1.241    1.931    1.103 
#    2.483    2.069    0.000    0.000    0.000    0.000 
#    0.000    0.000    0.000    0.000    0.000    0.000 
#
# Total GULP energy -718847.939710 kJ/mol
# GULP energy per Si atom -12393.929995 kJ/mol
# Density = 2.142814 g / cm^3
# Si number density = 21.477020 Si / 1000 Ang^3
#
#
#
# Elastic Constant Matrix: (Units=GPa)
#
#
# Indices 1 2 3 4 5 6 
#
# 1 71.7424 28.6338 19.0367 0.0000 0.0000 0.0000
# 2 28.6338 71.7442 19.0379 0.0000 0.0000 0.0000
# 3 19.0367 19.0379 100.7571 0.0000 0.0000 0.0000
# 4 0.0000 0.0000 0.0000 27.5924 0.0000 0.0000
# 5 0.0000 0.0000 0.0000 0.0000 27.5921 0.0000
# 6 0.0000 0.0000 0.0000 0.0000 0.0000 28.4439
#
#
#
# Elastic Compliance Matrix: (Units=1/GPa)
#
#
# Indices 1 2 3 4 5 6 
#
# 1 0.016964 -0.006233 -0.002028 0.000000 0.000000 0.000000
# 2 -0.006233 0.016964 -0.002028 0.000000 0.000000 0.000000
# 3 -0.002028 -0.002028 0.010691 0.000000 0.000000 0.000000
# 4 0.000000 0.000000 0.000000 0.036242 0.000000 0.000000
# 5 0.000000 0.000000 0.000000 0.000000 0.036242 0.000000
# 6 0.000000 0.000000 0.000000 0.000000 0.000000 0.035157
#
#
# Mechanical properties :
#
#
# Convention : Reuss Voigt Hill
#
# Bulk Modulus (GPa) = 41.59114 41.96230 41.77672
# Shear Modulus (GPa) = 27.64710 28.56136 28.10423
#
# Velocity S-wave (km/s) = 3.59177 3.65068 3.62134
# Velocity P-wave (km/s) = 6.05050 6.11151 6.08108
#
# Compressibility (1/GPa) = 0.02404358
#
# Stress axis : x y z
#
# Youngs Moduli (GPa) = 58.94723 58.94841 93.53598
#
# Poissons Ratio (x) = 0.36740 0.18965
# Poissons Ratio (y) = 0.36739 0.18967
# Poissons Ratio (z) = 0.11952 0.11953
#
# Static dielectric constant tensor:
#      x y z
#    x 3.934240 0.000000 0.000000 
#    y 0.000000 3.934240 0.000000 
#    z 0.000000 0.000000 4.085210 
# 
# 
# High freq. dielectric constant tensor:
#      x y z
#    x 1.833050 0.000000 0.000000 
#    y 0.000000 1.833050 0.000000 
#    z 0.000000 0.000000 1.843120 
# 
# From -- ./inp_files/2217.got.cif
#   From: 2010.03.12/outbox.cif.g09.slc.cpg/sg118_2_cif.got.tgz:2217.got - 2010.04.14 02:21:17.
