data_PCOD8310075
_publ_section_title
;
Structure prediction by ZEFSAII (Michael W. Deem and Ramdas Pophale) SiO2 
 PCOD8310075
Probable space group: P -4 C 2
;
_chemical_formula_sum "Si O2"
_cell_formula_units_Z 36
_cell_length_a 14.006697
_cell_length_b 14.006697
_cell_length_c 9.741720
_cell_angle_alpha 90.000000
_cell_angle_beta 90.000000
_cell_angle_gamma 90.000000
_cell_volume 1911.204285
_symmetry_space_group_name_H-M "P -4 C 2"
_symmetry_group_IT_number 116
_symmetry_cell_setting 'tetragonal'
loop_
_space_group_symop_operation_xyz
x,y,z
y,-x,-z
-x,-y,z
-y,x,-z
y,x,1/2-z
-y,-x,1/2-z
-x,y,1/2+z
x,-y,1/2+z
loop_
_atom_site_type_symbol
_atom_site_label
_atom_site_fract_x
_atom_site_fract_y
_atom_site_fract_z
Si Si1 0.000000 0.000000 0.000000
Si Si2 0.808891 0.061528 0.398663
Si Si3 0.593868 0.247329 0.094926
Si Si4 0.443976 0.688219 0.386921
Si Si5 0.500000 0.500000 0.250000
Si Si6 0.253695 0.093911 0.593661
O O1 0.992888 0.089502 0.103161
O O2 0.831081 0.169847 0.447326
O O3 0.759634 0.061227 0.250718
O O4 0.742319 0.003236 0.504505
O O5 0.562359 0.245584 0.253132
O O6 0.662312 0.337527 0.062753
O O7 0.647526 0.148390 0.065998
O O8 0.498903 0.253116 0.003042
O O9 0.501299 0.591802 0.348451
#
# Coordination Sequence:
#
# PCOD8310075 Si02
#       6
#     2   8   8   8   2   8
#     4   8  16  26  52  82 108 130 168 226 276 306
#     4   9  18  33  53  80 107 135 171 215 265 308
#     4  10  20  35  55  78 106 137 171 215 262 310
#     4  10  18  31  53  80 107 136 170 215 264 308
#     4   8  16  30  52  82 108 126 164 222 272 306
#     4  10  20  35  55  78 106 137 171 215 262 310
#
# _framework density 18.836290999999999
#
# number of rings (size 3 to 8) (size 9 to 14) (size 15 to 20)
#    0.000    2.667    0.000    5.333    0.000   14.222 
#    0.000    8.889    0.000   10.667    0.000    0.000 
#    0.000    0.000    0.000    0.000    0.000    0.000 
#
# Total GULP energy -446185.380348 kJ/mol
# GULP energy per Si atom -12394.038343 kJ/mol
# Density = 1.879342 g / cm^3
# Si number density = 18.836291 Si / 1000 Ang^3
#
#
#
# Elastic Constant Matrix: (Units=GPa)
#
#
# Indices 1 2 3 4 5 6 
#
# 1 45.5522 25.6966 32.2784 0.0000 0.0000 0.0000
# 2 25.6966 45.5522 32.2784 0.0000 0.0000 0.0000
# 3 32.2784 32.2784 79.4657 0.0000 0.0000 0.0000
# 4 0.0000 0.0000 0.0000 7.6637 0.0000 0.0000
# 5 0.0000 0.0000 0.0000 0.0000 7.6637 0.0000
# 6 0.0000 0.0000 0.0000 0.0000 0.0000 32.6716
#
#
#
# Elastic Compliance Matrix: (Units=1/GPa)
#
#
# Indices 1 2 3 4 5 6 
#
# 1 0.036286 -0.014077 -0.009021 0.000000 0.000000 0.000000
# 2 -0.014077 0.036286 -0.009021 0.000000 0.000000 0.000000
# 3 -0.009021 -0.009021 0.019913 0.000000 0.000000 0.000000
# 4 0.000000 0.000000 0.000000 0.130485 0.000000 0.000000
# 5 0.000000 0.000000 0.000000 0.000000 0.130485 0.000000
# 6 0.000000 0.000000 0.000000 0.000000 0.000000 0.030608
#
#
# Mechanical properties :
#
#
# Convention : Reuss Voigt Hill
#
# Bulk Modulus (GPa) = 35.40288 39.00856 37.20572
# Shear Modulus (GPa) = 10.92376 14.95424 12.93900
#
# Velocity S-wave (km/s) = 2.41079 2.82069 2.62376
# Velocity P-wave (km/s) = 5.15607 5.60023 5.38273
#
# Compressibility (1/GPa) = 0.02824629
#
# Stress axis : x y z
#
# Youngs Moduli (GPa) = 27.55849 27.55849 50.21901
#
# Poissons Ratio (x) = 0.38795 0.45304
# Poissons Ratio (y) = 0.38795 0.45304
# Poissons Ratio (z) = 0.24861 0.24861
#
# Static dielectric constant tensor:
#      x y z
#    x 3.294330 0.000000 0.000000 
#    y 0.000000 3.294330 0.000000 
#    z 0.000000 0.000000 3.406460 
# 
# 
# High freq. dielectric constant tensor:
#      x y z
#    x 1.708570 0.000000 0.000000 
#    y 0.000000 1.708570 0.000000 
#    z 0.000000 0.000000 1.728830 
# 
# From -- ./inp_files/734.got.cif
#   From: 2010.03.12/outbox.cif.g09.slc.cpg/sg116_1_cif.got.tgz:734.got - 2010.04.14 02:15:44.
