data_PCOD8310581
_publ_section_title
;
Structure prediction by ZEFSAII (Michael W. Deem and Ramdas Pophale) SiO2 
 PCOD8310581
Probable space group: P -4 N 2
;
_chemical_formula_sum "Si O2"
_cell_formula_units_Z 36
_cell_length_a 8.909983
_cell_length_b 8.909983
_cell_length_c 22.477828
_cell_angle_alpha 90.000000
_cell_angle_beta 90.000000
_cell_angle_gamma 90.000000
_cell_volume 1784.465248
_symmetry_space_group_name_H-M "P -4 N 2"
_symmetry_group_IT_number 118
_symmetry_cell_setting 'tetragonal'
loop_
_space_group_symop_operation_xyz
x,y,z
y,-x,-z
-x,-y,z
-y,x,-z
1/2+y,1/2+x,1/2-z
1/2-y,1/2-x,1/2-z
1/2-x,1/2+y,1/2+z
1/2+x,1/2-y,1/2+z
loop_
_atom_site_type_symbol
_atom_site_label
_atom_site_fract_x
_atom_site_fract_y
_atom_site_fract_z
Si Si1 0.678955 0.314391 0.081349
Si Si2 0.478303 0.668041 0.387402
Si Si3 0.494976 0.758460 0.256241
Si Si4 0.000000 0.000000 0.663977
Si Si5 0.089841 0.641268 0.532550
O O1 0.794350 0.198259 0.110375
O O2 0.646016 0.459154 0.123024
O O3 0.518689 0.231377 0.076540
O O4 0.743847 0.361892 0.018103
O O5 0.500000 0.500000 0.410767
O O6 0.526604 0.680399 0.319160
O O7 0.581314 0.770121 0.429717
O O8 0.603900 0.896101 0.250000
O O9 0.536475 0.641989 0.204779
O O10 0.324685 0.824685 0.250000
O O11 0.000000 0.500000 0.504262
#
# Coordination Sequence:
#
# PCOD8310581 Si02
#       5
#     8   8   8   4   8
#     4  11  23  41  65  95 131 175 225 277 348 411
#     4  11  24  40  65  98 133 172 228 282 342 412
#     4  11  23  42  67  95 128 174 223 272 335 408
#     4  12  22  41  70  96 133 168 220 286 336 408
#     4  10  24  41  65  96 130 179 225 277 344 412
#
# _framework density 20.174109000000001
#
# number of rings (size 3 to 8) (size 9 to 14) (size 15 to 20)
#    0.000    1.111    3.333    2.667   12.444    0.000 
#    0.000    0.000    0.000    1.333    0.000    0.000 
#    0.000    0.000    0.000    0.000    0.000    0.000 
#
# Total GULP energy -446404.190596 kJ/mol
# GULP energy per Si atom -12400.116405 kJ/mol
# Density = 2.012819 g / cm^3
# Si number density = 20.174109 Si / 1000 Ang^3
#
#
#
# Elastic Constant Matrix: (Units=GPa)
#
#
# Indices 1 2 3 4 5 6 
#
# 1 122.6546 58.7000 51.1609 0.0000 0.0000 0.0000
# 2 58.7000 122.6532 51.1606 0.0000 0.0000 0.0000
# 3 51.1609 51.1606 121.0376 0.0000 0.0000 0.0000
# 4 0.0000 0.0000 0.0000 38.5340 0.0000 0.0000
# 5 0.0000 0.0000 0.0000 0.0000 38.5338 0.0000
# 6 0.0000 0.0000 0.0000 0.0000 0.0000 32.8345
#
#
#
# Elastic Compliance Matrix: (Units=1/GPa)
#
#
# Indices 1 2 3 4 5 6 
#
# 1 0.011439 -0.004198 -0.003061 0.000000 0.000000 0.000000
# 2 -0.004198 0.011439 -0.003061 0.000000 0.000000 0.000000
# 3 -0.003061 -0.003061 0.010849 0.000000 0.000000 0.000000
# 4 0.000000 0.000000 0.000000 0.025951 0.000000 0.000000
# 5 0.000000 0.000000 0.000000 0.000000 0.025951 0.000000
# 6 0.000000 0.000000 0.000000 0.000000 0.000000 0.030456
#
#
# Mechanical properties :
#
#
# Convention : Reuss Voigt Hill
#
# Bulk Modulus (GPa) = 76.40247 76.48761 76.44504
# Shear Modulus (GPa) = 35.43956 35.66871 35.55414
#
# Velocity S-wave (km/s) = 4.19583 4.20937 4.20261
# Velocity P-wave (km/s) = 7.83754 7.84991 7.84373
#
# Compressibility (1/GPa) = 0.01308858
#
# Stress axis : x y z
#
# Youngs Moduli (GPa) = 87.42393 87.42282 92.17226
#
# Poissons Ratio (x) = 0.36697 0.28210
# Poissons Ratio (y) = 0.36698 0.28211
# Poissons Ratio (z) = 0.26757 0.26757
#
# Static dielectric constant tensor:
#      x y z
#    x 3.807650 0.000000 0.000000 
#    y 0.000000 3.807650 0.000000 
#    z 0.000000 0.000000 3.695810 
# 
# 
# High freq. dielectric constant tensor:
#      x y z
#    x 1.786690 0.000000 0.000000 
#    y 0.000000 1.786690 0.000000 
#    z 0.000000 0.000000 1.797570 
# 
# From -- ./inp_files/5437.got.cif
#   From: 2010.03.12/outbox.cif.g09.slc.cpg/sg118_3_cif.got.tgz:5437.got - 2010.04.14 02:21:17.
