data_PCOD8310857
_publ_section_title
;
Structure prediction by ZEFSAII (Michael W. Deem and Ramdas Pophale) SiO2 
 PCOD8310857
Probable space group: I -4 M 2
;
_chemical_formula_sum "Si O2"
_cell_formula_units_Z 80
_cell_length_a 11.989799
_cell_length_b 11.989799
_cell_length_c 28.933528
_cell_angle_alpha 90.000000
_cell_angle_beta 90.000000
_cell_angle_gamma 90.000000
_cell_volume 4159.347421
_symmetry_space_group_name_H-M "I -4 M 2"
_symmetry_group_IT_number 119
_symmetry_cell_setting 'tetragonal'
loop_
_space_group_symop_operation_xyz
x,y,z
y,-x,-z
-x,-y,z
-y,x,-z
y,x,-z
-y,-x,-z
-x,y,z
x,-y,z
1/2+x,1/2+y,1/2+z
1/2+y,1/2-x,1/2-z
1/2-x,1/2-y,1/2+z
1/2-y,1/2+x,1/2-z
1/2+y,1/2+x,1/2-z
1/2-y,1/2-x,1/2-z
1/2-x,1/2+y,1/2+z
1/2+x,1/2-y,1/2+z
loop_
_atom_site_type_symbol
_atom_site_label
_atom_site_fract_x
_atom_site_fract_y
_atom_site_fract_z
Si Si1 0.374074 0.758590 0.639129
Si Si2 0.000000 0.127629 0.284037
Si Si3 0.718008 0.741293 0.051093
Si Si4 0.213936 0.869728 0.223656
Si Si5 0.500000 0.821236 0.851709
Si Si6 0.000000 0.368892 0.544358
Si Si7 0.500000 0.746558 0.951077
O O1 0.500000 0.712744 0.634112
O O2 0.315029 0.750321 0.589185
O O3 0.301848 0.681909 0.673066
O O4 0.381351 0.883779 0.661401
O O5 0.106068 0.159192 0.253696
O O6 0.000000 0.196999 0.331044
O O7 0.000000 0.000000 0.299627
O O8 0.613168 0.817256 0.066339
O O9 0.672999 0.612750 0.047464
O O10 0.769809 0.769809 0.000000
O O11 0.320622 0.820622 0.250000
O O12 0.233734 0.000000 0.217648
O O13 0.500000 0.821639 0.906274
O O14 0.000000 0.340295 0.490616
O O15 0.000000 0.500000 0.553545
#
# Coordination Sequence:
#
# PCOD8310857 Si02
#       7
#    16   8  16  16   8   8   8
#     4  11  22  38  61  91 121 152 196 245 300 354
#     4  10  20  37  60  83 115 155 191 233 296 353
#     4   9  20  37  58  86 121 160 199 242 296 348
#     4  11  23  41  62  84 118 157 195 239 293 353
#     4  10  19  35  58  90 115 147 194 244 293 349
#     4  10  20  37  59  82 120 164 199 244 293 352
#     4   8  18  35  54  84 115 150 197 244 295 337
#
# _framework density 19.233785000000001
#
# number of rings (size 3 to 8) (size 9 to 14) (size 15 to 20)
#    0.000    2.000    3.000    0.300    0.000    8.600 
#    9.000    2.000    0.000    0.000    0.000    4.200 
#    0.000    0.000    0.000    0.000    0.000    0.000 
#
# Total GULP energy -495719.689761 kJ/mol
# GULP energy per Si atom -12392.992244 kJ/mol
# Density = 1.919001 g / cm^3
# Si number density = 19.233785 Si / 1000 Ang^3
#
#
#
# Elastic Constant Matrix: (Units=GPa)
#
#
# Indices 1 2 3 4 5 6 
#
# 1 118.1380 47.7348 42.3004 0.0000 0.0000 0.0000
# 2 47.7348 118.1380 42.3004 0.0000 0.0000 0.0000
# 3 42.3004 42.3004 102.0293 0.0000 0.0000 0.0000
# 4 0.0000 0.0000 0.0000 23.7658 0.0000 0.0000
# 5 0.0000 0.0000 0.0000 0.0000 23.7658 0.0000
# 6 0.0000 0.0000 0.0000 0.0000 0.0000 25.8392
#
#
#
# Elastic Compliance Matrix: (Units=1/GPa)
#
#
# Indices 1 2 3 4 5 6 
#
# 1 0.010925 -0.003279 -0.003170 0.000000 0.000000 0.000000
# 2 -0.003279 0.010925 -0.003170 0.000000 0.000000 0.000000
# 3 -0.003170 -0.003170 0.012429 0.000000 0.000000 0.000000
# 4 0.000000 0.000000 0.000000 0.042077 0.000000 0.000000
# 5 0.000000 0.000000 0.000000 0.000000 0.042077 0.000000
# 6 0.000000 0.000000 0.000000 0.000000 0.000000 0.038701
#
#
# Mechanical properties :
#
#
# Convention : Reuss Voigt Hill
#
# Bulk Modulus (GPa) = 66.48357 66.99736 66.74047
# Shear Modulus (GPa) = 27.56563 28.40546 27.98554
#
# Velocity S-wave (km/s) = 3.78985 3.84715 3.81861
# Velocity P-wave (km/s) = 7.33428 7.39208 7.36324
#
# Compressibility (1/GPa) = 0.01504131
#
# Stress axis : x y z
#
# Youngs Moduli (GPa) = 91.53623 91.53623 80.45469
#
# Poissons Ratio (x) = 0.30017 0.25502
# Poissons Ratio (y) = 0.30017 0.25502
# Poissons Ratio (z) = 0.29014 0.29014
#
# Static dielectric constant tensor:
#      x y z
#    x 3.528160 0.000000 0.000000 
#    y 0.000000 3.528160 0.000000 
#    z 0.000000 0.000000 3.510700 
# 
# 
# High freq. dielectric constant tensor:
#      x y z
#    x 1.741210 0.000000 0.000000 
#    y 0.000000 1.741210 0.000000 
#    z 0.000000 0.000000 1.749210 
# 
# From -- ./inp_files/10220.got.cif
#   From: 2010.03.12/outbox.cif.g09.slc.cpg/sg119_6_cif.got.tgz:10220.got - 2010.04.14 02:25:26.
