data_PCOD8310830
_publ_section_title
;
Structure prediction by ZEFSAII (Michael W. Deem and Ramdas Pophale) SiO2 
 PCOD8310830
Probable space group: I -4 M 2
;
_chemical_formula_sum "Si O2"
_cell_formula_units_Z 98
_cell_length_a 15.725456
_cell_length_b 15.725456
_cell_length_c 23.036594
_cell_angle_alpha 90.000000
_cell_angle_beta 90.000000
_cell_angle_gamma 90.000000
_cell_volume 5696.718556
_symmetry_space_group_name_H-M "I -4 M 2"
_symmetry_group_IT_number 119
_symmetry_cell_setting 'tetragonal'
loop_
_space_group_symop_operation_xyz
x,y,z
y,-x,-z
-x,-y,z
-y,x,-z
y,x,-z
-y,-x,-z
-x,y,z
x,-y,z
1/2+x,1/2+y,1/2+z
1/2+y,1/2-x,1/2-z
1/2-x,1/2-y,1/2+z
1/2-y,1/2+x,1/2-z
1/2+y,1/2+x,1/2-z
1/2-y,1/2-x,1/2-z
1/2-x,1/2+y,1/2+z
1/2+x,1/2-y,1/2+z
loop_
_atom_site_type_symbol
_atom_site_label
_atom_site_fract_x
_atom_site_fract_y
_atom_site_fract_z
Si Si1 0.000000 0.500000 0.750000
Si Si2 0.195070 0.091055 0.460560
Si Si3 0.899209 0.500000 0.520881
Si Si4 0.747588 0.153385 0.203148
Si Si5 0.182846 0.774639 0.366732
Si Si6 0.151251 0.500000 0.655198
Si Si7 0.844429 0.407344 0.049700
Si Si8 0.901998 0.901387 0.280340
O O1 0.919756 0.500000 0.706080
O O2 0.113613 0.113613 0.500000
O O3 0.220935 0.163416 0.415361
O O4 0.271839 0.080885 0.503466
O O5 0.177909 0.000000 0.429417
O O6 0.881634 0.500000 0.589510
O O7 0.860174 0.579901 0.485363
O O8 0.000000 0.500000 0.515795
O O9 0.674147 0.174147 0.250000
O O10 0.764754 0.241569 0.170614
O O11 0.710036 0.082681 0.160813
O O12 0.836769 0.119890 0.228605
O O13 0.141593 0.690299 0.394031
O O14 0.116016 0.833854 0.331748
O O15 0.874689 0.500000 0.071918
O O16 0.000000 0.889179 0.260043
O O17 0.887572 0.000000 0.300038
#
# Coordination Sequence:
#
# PCOD8310830 Si02
#       8
#     2  16   8  16  16   8  16  16
#     4  12  24  32  56  84 120 152 180 216 254 336
#     4   9  17  29  45  69 101 135 166 204 247 304
#     4  10  20  32  52  77 109 142 179 219 269 320
#     4  10  21  34  52  76 107 137 175 224 271 326
#     4  10  19  33  52  75 101 136 174 217 266 311
#     4  12  20  36  51  82 113 150 176 217 265 321
#     4   9  18  33  49  72 102 136 174 214 258 315
#     4  10  20  35  54  76 103 135 175 220 271 329
#
# _framework density 17.202887
#
# number of rings (size 3 to 8) (size 9 to 14) (size 15 to 20)
#    0.000    2.122    2.041    1.959    0.000    0.816 
#    2.939    0.000    0.000    0.000    0.000    0.000 
#    0.000    0.000    0.000    0.000    0.000    0.000 
#
# Total GULP energy -607059.060721 kJ/mol
# GULP energy per Si atom -12388.960423 kJ/mol
# Density = 1.716373 g / cm^3
# Si number density = 17.202887 Si / 1000 Ang^3
#
#
#
# Elastic Constant Matrix: (Units=GPa)
#
#
# Indices 1 2 3 4 5 6 
#
# 1 71.6370 69.5103 44.2405 0.0000 0.0000 0.0000
# 2 69.5103 71.6370 44.2405 0.0000 0.0000 0.0000
# 3 44.2405 44.2405 85.3577 0.0000 0.0000 0.0000
# 4 0.0000 0.0000 0.0000 29.4152 0.0000 0.0000
# 5 0.0000 0.0000 0.0000 0.0000 29.4152 0.0000
# 6 0.0000 0.0000 0.0000 0.0000 0.0000 120.3915
#
#
#
# Elastic Compliance Matrix: (Units=1/GPa)
#
#
# Indices 1 2 3 4 5 6 
#
# 1 0.240347 -0.229853 -0.005439 0.000000 0.000000 0.000000
# 2 -0.229853 0.240347 -0.005439 0.000000 0.000000 0.000000
# 3 -0.005439 -0.005439 0.017354 0.000000 0.000000 0.000000
# 4 0.000000 0.000000 0.000000 0.033996 0.000000 0.000000
# 5 0.000000 0.000000 0.000000 0.000000 0.033996 0.000000
# 6 0.000000 0.000000 0.000000 0.000000 0.000000 0.008306
#
#
# Mechanical properties :
#
#
# Convention : Reuss Voigt Hill
#
# Bulk Modulus (GPa) = 60.29298 60.51270 60.40284
# Shear Modulus (GPa) = 4.71103 40.55376 22.63240
#
# Velocity S-wave (km/s) = 1.65664 4.86055 3.63108
# Velocity P-wave (km/s) = 6.22764 8.17020 7.26415
#
# Compressibility (1/GPa) = 0.01658568
#
# Stress axis : x y z
#
# Youngs Moduli (GPa) = 4.16064 4.16064 57.62471
#
# Poissons Ratio (x) = 0.95634 0.31343
# Poissons Ratio (y) = 0.95634 0.31343
# Poissons Ratio (z) = 0.02263 0.02263
#
# Static dielectric constant tensor:
#      x y z
#    x 3.035250 0.000000 0.000000 
#    y 0.000000 3.035250 0.000000 
#    z 0.000000 0.000000 3.193130 
# 
# 
# High freq. dielectric constant tensor:
#      x y z
#    x 1.659770 0.000000 0.000000 
#    y 0.000000 1.659770 0.000000 
#    z 0.000000 0.000000 1.653300 
# 
# From -- ./inp_files/9563.got.cif
#   From: 2010.03.12/outbox.cif.g09.slc.cpg/sg119_5_cif.got.tgz:9563.got - 2010.04.14 02:25:26.
