data_PCOD8310397
_publ_section_title
;
Structure prediction by ZEFSAII (Michael W. Deem and Ramdas Pophale) SiO2 
 PCOD8310397
Probable space group: P -4 B 2
;
_chemical_formula_sum "Si O2"
_cell_formula_units_Z 36
_cell_length_a 9.411439
_cell_length_b 9.411439
_cell_length_c 17.943612
_cell_angle_alpha 90.000000
_cell_angle_beta 90.000000
_cell_angle_gamma 90.000000
_cell_volume 1589.358735
_symmetry_space_group_name_H-M "P -4 B 2"
_symmetry_group_IT_number 117
_symmetry_cell_setting 'tetragonal'
loop_
_space_group_symop_operation_xyz
x,y,z
y,-x,-z
-x,-y,z
-y,x,-z
1/2+y,1/2+x,-z
1/2-y,1/2-x,-z
1/2-x,1/2+y,z
1/2+x,1/2-y,z
loop_
_atom_site_type_symbol
_atom_site_label
_atom_site_fract_x
_atom_site_fract_y
_atom_site_fract_z
Si Si1 0.081815 0.799580 0.971452
Si Si2 0.251846 0.751846 0.500000
Si Si3 0.661576 0.999416 0.587780
Si Si4 0.887922 0.610600 0.249278
Si Si5 0.573488 0.650202 0.803885
O O1 0.043269 0.782955 0.884784
O O2 0.158116 0.658116 0.000000
O O3 0.937190 0.817616 0.018210
O O4 0.237429 0.908152 0.534271
O O5 0.225389 0.655991 0.573274
O O6 0.666105 0.049558 0.672738
O O7 0.500000 0.000000 0.559744
O O8 0.746790 0.512261 0.256253
O O9 0.857040 0.755498 0.204549
O O10 0.000000 0.500000 0.211398
O O11 0.500000 0.500000 0.796811
#
# Coordination Sequence:
#
# PCOD8310397 Si02
#       5
#     8   4   8   8   8
#     4  11  24  45  69 102 143 183 241 296 356 437
#     4  12  22  48  72  96 142 178 222 294 340 424
#     4  11  26  47  68 107 142 178 237 287 354 425
#     4  11  28  46  72 105 145 186 242 300 358 444
#     4  12  25  47  73 104 143 192 240 302 370 432
#
# _framework density 22.650642999999999
#
# number of rings (size 3 to 8) (size 9 to 14) (size 15 to 20)
#    0.000    0.667    4.444    2.667   12.444    0.889 
#    0.000    0.000    0.000    0.000    0.000    0.000 
#    0.000    0.000    0.000    0.000    0.000    0.000 
#
# Total GULP energy -446123.996415 kJ/mol
# GULP energy per Si atom -12392.333234 kJ/mol
# Density = 2.259909 g / cm^3
# Si number density = 22.650643 Si / 1000 Ang^3
#
#
#
# Elastic Constant Matrix: (Units=GPa)
#
#
# Indices 1 2 3 4 5 6 
#
# 1 86.0601 63.4251 18.5839 0.0000 0.0000 0.0000
# 2 63.4251 86.0601 18.5839 0.0000 0.0000 0.0000
# 3 18.5839 18.5839 83.8453 0.0000 0.0000 0.0000
# 4 0.0000 0.0000 0.0000 -24.3643 0.0000 0.0000
# 5 0.0000 0.0000 0.0000 0.0000 -24.3643 0.0000
# 6 0.0000 0.0000 0.0000 0.0000 0.0000 54.8826
#
#
#
# Elastic Compliance Matrix: (Units=1/GPa)
#
#
# Indices 1 2 3 4 5 6 
#
# 1 0.025630 -0.018550 -0.001569 0.000000 0.000000 0.000000
# 2 -0.018550 0.025630 -0.001569 0.000000 0.000000 0.000000
# 3 -0.001569 -0.001569 0.012622 0.000000 0.000000 0.000000
# 4 0.000000 0.000000 0.000000 -0.041044 0.000000 0.000000
# 5 0.000000 0.000000 0.000000 0.000000 -0.041044 0.000000
# 6 0.000000 0.000000 0.000000 0.000000 0.000000 0.018221
#
#
# Mechanical properties :
#
#
# Convention : Reuss Voigt Hill
#
# Bulk Modulus (GPa) = 48.76830 50.79458 49.78144
# Shear Modulus (GPa) = 99.55022 11.58899 55.56961
#
# Velocity S-wave (km/s) = 6.63669 2.26440 4.95849
# Velocity P-wave (km/s) = 8.96130 5.41393 7.40323
#
# Compressibility (1/GPa) = 0.02050512
#
# Stress axis : x y z
#
# Youngs Moduli (GPa) = 39.01752 39.01752 79.22459
#
# Poissons Ratio (x) = 0.72376 0.12432
# Poissons Ratio (y) = 0.72376 0.12432
# Poissons Ratio (z) = 0.06123 0.06123
#
# Static dielectric constant tensor:
#      x y z
#    x 4.250450 0.000000 0.000000 
#    y 0.000000 4.250450 0.000000 
#    z 0.000000 0.000000 4.049160 
# 
# 
# High freq. dielectric constant tensor:
#      x y z
#    x 1.899420 0.000000 0.000000 
#    y 0.000000 1.899420 0.000000 
#    z 0.000000 0.000000 1.890980 
# 
# From -- ./inp_files/3413.got.cif
#   From: 2010.03.12/outbox.cif.g09.slc.cpg/sg117_2_cif.got.tgz:3413.got - 2010.04.14 02:19:01.
