data_PCOD8310021
_publ_section_title
;
Structure prediction by ZEFSAII (Michael W. Deem and Ramdas Pophale) SiO2 
 PCOD8310021
Probable space group: P -4 M 2
;
_chemical_formula_sum "Si O2"
_cell_formula_units_Z 44
_cell_length_a 9.599500
_cell_length_b 9.599500
_cell_length_c 28.697411
_cell_angle_alpha 90.000000
_cell_angle_beta 90.000000
_cell_angle_gamma 90.000000
_cell_volume 2644.477910
_symmetry_space_group_name_H-M "P -4 M 2"
_symmetry_group_IT_number 115
_symmetry_cell_setting 'tetragonal'
loop_
_space_group_symop_operation_xyz
x,y,z
y,-x,-z
-x,-y,z
-y,x,-z
y,x,-z
-y,-x,-z
-x,y,z
x,-y,z
loop_
_atom_site_type_symbol
_atom_site_label
_atom_site_fract_x
_atom_site_fract_y
_atom_site_fract_z
Si Si1 0.839110 0.161297 0.323342
Si Si2 0.337981 0.838466 0.234831
Si Si3 0.338981 0.838947 0.588215
Si Si4 0.665269 0.658685 0.049049
Si Si5 0.338881 0.338881 0.500000
Si Si6 0.657763 0.665935 0.850794
O O1 0.747112 0.210985 0.279857
O O2 0.789919 0.249709 0.367651
O O3 0.000000 0.190339 0.311290
O O4 0.812552 0.000000 0.334905
O O5 0.500000 0.806237 0.243887
O O6 0.277436 0.754127 0.190691
O O7 0.312307 0.000000 0.224250
O O8 0.500000 0.810185 0.599800
O O9 0.288805 0.749787 0.544169
O O10 0.311498 0.000000 0.576478
O O11 0.500000 0.668125 0.044577
O O12 0.713665 0.500000 0.052621
O O13 0.714695 0.723877 0.098775
O O14 0.725480 0.725480 0.000000
O O15 0.310565 0.500000 0.511441
O O16 0.500000 0.721742 0.843857
O O17 0.656292 0.500000 0.850122
#
# Coordination Sequence:
#
# PCOD8310021 Si02
#       6
#     8   8   8   8   4   8
#     4   9  18  32  47  62  82 109 140 171 202 239
#     4   9  17  28  41  59  83 107 132 166 206 243
#     4   9  18  32  48  66  88 112 138 169 203 237
#     4   7   9  14  26  46  72  99 126 158 195 233
#     4   9  18  32  48  67  92 118 140 163 196 240
#     4   8  13  21  34  54  79 104 131 164 200 239
#
# _framework density 16.638444
#
# number of rings (size 3 to 8) (size 9 to 14) (size 15 to 20)
#    0.000    3.545    0.000    1.636    0.000    2.182 
#    0.000    0.000    0.000    0.000    0.000    1.273 
#    0.000    4.364    0.000    0.000    0.000    0.000 
#
# Total GULP energy -545105.204547 kJ/mol
# GULP energy per Si atom -12388.754649 kJ/mol
# Density = 1.660057 g / cm^3
# Si number density = 16.638444 Si / 1000 Ang^3
#
#
#
# Elastic Constant Matrix: (Units=GPa)
#
#
# Indices 1 2 3 4 5 6 
#
# 1 42.3798 24.2060 66.0095 0.0000 0.0000 0.0000
# 2 24.2060 42.3798 66.0095 0.0000 0.0000 0.0000
# 3 66.0095 66.0095 210.8199 0.0000 0.0000 0.0000
# 4 0.0000 0.0000 0.0000 5.7134 0.0000 0.0000
# 5 0.0000 0.0000 0.0000 0.0000 5.7134 0.0000
# 6 0.0000 0.0000 0.0000 0.0000 0.0000 13.5218
#
#
#
# Elastic Compliance Matrix: (Units=1/GPa)
#
#
# Indices 1 2 3 4 5 6 
#
# 1 0.047314 -0.007710 -0.012401 0.000000 0.000000 0.000000
# 2 -0.007710 0.047314 -0.012401 0.000000 0.000000 0.000000
# 3 -0.012401 -0.012401 0.012509 0.000000 0.000000 0.000000
# 4 0.000000 0.000000 0.000000 0.175027 0.000000 0.000000
# 5 0.000000 0.000000 0.000000 0.000000 0.175027 0.000000
# 6 0.000000 0.000000 0.000000 0.000000 0.000000 0.073955
#
#
# Mechanical properties :
#
#
# Convention : Reuss Voigt Hill
#
# Bulk Modulus (GPa) = 23.74395 67.55884 45.65139
# Shear Modulus (GPa) = 8.19394 14.28002 11.23698
#
# Velocity S-wave (km/s) = 2.22157 2.93278 2.60159
# Velocity P-wave (km/s) = 4.56969 7.22222 6.04328
#
# Compressibility (1/GPa) = 0.04211599
#
# Stress axis : x y z
#
# Youngs Moduli (GPa) = 21.13520 21.13520 79.94350
#
# Poissons Ratio (x) = 0.16295 0.99135
# Poissons Ratio (y) = 0.16295 0.99135
# Poissons Ratio (z) = 0.26209 0.26209
#
# Static dielectric constant tensor:
#      x y z
#    x 2.873850 0.000000 0.000000 
#    y 0.000000 2.873850 0.000000 
#    z 0.000000 0.000000 3.571700 
# 
# 
# High freq. dielectric constant tensor:
#      x y z
#    x 1.604790 0.000000 0.000000 
#    y 0.000000 1.604790 0.000000 
#    z 0.000000 0.000000 1.662530 
# 
# From -- ./inp_files/5790.got.cif
#   From: 2010.03.12/outbox.cif.g09.slc.cpg/sg115_3_cif.got.tgz:5790.got - 2010.04.14 02:11:21.
