data_PCOD8310626
_publ_section_title
;
Structure prediction by ZEFSAII (Michael W. Deem and Ramdas Pophale) SiO2 
 PCOD8310626
Probable space group: P -4 N 2
;
_chemical_formula_sum "Si O2"
_cell_formula_units_Z 42
_cell_length_a 14.455517
_cell_length_b 14.455517
_cell_length_c 9.067294
_cell_angle_alpha 90.000000
_cell_angle_beta 90.000000
_cell_angle_gamma 90.000000
_cell_volume 1894.719633
_symmetry_space_group_name_H-M "P -4 N 2"
_symmetry_group_IT_number 118
_symmetry_cell_setting 'tetragonal'
loop_
_space_group_symop_operation_xyz
x,y,z
y,-x,-z
-x,-y,z
-y,x,-z
1/2+y,1/2+x,1/2-z
1/2-y,1/2-x,1/2-z
1/2-x,1/2+y,1/2+z
1/2+x,1/2-y,1/2+z
loop_
_atom_site_type_symbol
_atom_site_label
_atom_site_fract_x
_atom_site_fract_y
_atom_site_fract_z
Si Si1 0.675538 0.006663 0.120914
Si Si2 0.000000 0.000000 0.500000
Si Si3 0.875566 0.850127 0.342635
Si Si4 0.636405 0.546342 0.476053
Si Si5 0.575216 0.824964 0.083195
Si Si6 0.914772 0.649256 0.405269
O O1 0.657614 0.899321 0.074155
O O2 0.651961 0.005766 0.295129
O O3 0.780919 0.035448 0.091483
O O4 0.613301 0.078434 0.032632
O O5 0.045669 0.081173 0.403067
O O6 0.898440 0.832725 0.170184
O O7 0.775138 0.890252 0.369963
O O8 0.868217 0.750013 0.419958
O O9 0.600604 0.443498 0.434811
O O10 0.524306 0.829349 0.925198
O O11 0.898871 0.601129 0.250000
#
# Coordination Sequence:
#
# PCOD8310626 Si02
#       6
#     8   2   8   8   8   8
#     4  11  25  44  76 100 142 196 246 297 374 455
#     4  12  24  48  70 100 152 192 244 294 388 448
#     4  12  25  45  73 108 147 195 245 313 373 449
#     4  11  23  42  71 108 142 188 247 308 370 443
#     4  11  26  48  71 103 146 199 245 302 380 451
#     4  12  26  46  73 107 148 190 248 309 369 449
#
# _framework density 22.166865999999999
#
# number of rings (size 3 to 8) (size 9 to 14) (size 15 to 20)
#    0.000    0.571    5.714    2.286    5.333    3.048 
#    0.000    0.000    4.190    0.000    0.000    0.000 
#    0.000    0.000    0.000    0.000    0.000    0.000 
#
# Total GULP energy -520456.491244 kJ/mol
# GULP energy per Si atom -12391.821220 kJ/mol
# Density = 2.211641 g / cm^3
# Si number density = 22.166866 Si / 1000 Ang^3
#
#
#
# Elastic Constant Matrix: (Units=GPa)
#
#
# Indices 1 2 3 4 5 6 
#
# 1 110.8027 21.0592 40.1473 0.0000 0.0000 0.0000
# 2 21.0592 110.8027 40.1473 0.0000 0.0000 0.0000
# 3 40.1473 40.1473 62.7204 0.0000 0.0000 0.0000
# 4 0.0000 0.0000 0.0000 36.8355 0.0000 0.0000
# 5 0.0000 0.0000 0.0000 0.0000 36.8355 0.0000
# 6 0.0000 0.0000 0.0000 0.0000 0.0000 39.0861
#
#
#
# Elastic Compliance Matrix: (Units=1/GPa)
#
#
# Indices 1 2 3 4 5 6 
#
# 1 0.011785 0.000642 -0.007955 0.000000 0.000000 0.000000
# 2 0.000642 0.011785 -0.007955 0.000000 0.000000 0.000000
# 3 -0.007955 -0.007955 0.026128 0.000000 0.000000 0.000000
# 4 0.000000 0.000000 0.000000 0.027148 0.000000 0.000000
# 5 0.000000 0.000000 0.000000 0.000000 0.027148 0.000000
# 6 0.000000 0.000000 0.000000 0.000000 0.000000 0.025585
#
#
# Mechanical properties :
#
#
# Convention : Reuss Voigt Hill
#
# Bulk Modulus (GPa) = 52.18318 54.11480 53.14899
# Shear Modulus (GPa) = 30.02985 34.74958 32.38971
#
# Velocity S-wave (km/s) = 3.68464 3.96363 3.82668
# Velocity P-wave (km/s) = 6.45711 6.73889 6.59951
#
# Compressibility (1/GPa) = 0.01916326
#
# Stress axis : x y z
#
# Youngs Moduli (GPa) = 84.85152 84.85152 38.27351
#
# Poissons Ratio (x) = -0.05451 0.30446
# Poissons Ratio (y) = -0.05451 0.30446
# Poissons Ratio (z) = 0.67499 0.67499
#
# Static dielectric constant tensor:
#      x y z
#    x 4.184620 0.000000 0.000000 
#    y 0.000000 4.184620 0.000000 
#    z 0.000000 0.000000 4.069990 
# 
# 
# High freq. dielectric constant tensor:
#      x y z
#    x 1.885090 0.000000 0.000000 
#    y 0.000000 1.885090 0.000000 
#    z 0.000000 0.000000 1.859640 
# 
# From -- ./inp_files/1947.got.cif
#   From: 2010.03.12/outbox.cif.g09.slc.cpg/sg118_1_cif.got.tgz:1947.got - 2010.04.14 02:21:17.
