data_PCOD8310993
_publ_section_title
;
Structure prediction by ZEFSAII (Michael W. Deem and Ramdas Pophale) SiO2 
 PCOD8310993
Probable space group: I -4 M 2
;
_chemical_formula_sum "Si O2"
_cell_formula_units_Z 64
_cell_length_a 19.389881
_cell_length_b 19.389881
_cell_length_c 9.435982
_cell_angle_alpha 90.000000
_cell_angle_beta 90.000000
_cell_angle_gamma 90.000000
_cell_volume 3547.622423
_symmetry_space_group_name_H-M "I -4 M 2"
_symmetry_group_IT_number 119
_symmetry_cell_setting 'tetragonal'
loop_
_space_group_symop_operation_xyz
x,y,z
y,-x,-z
-x,-y,z
-y,x,-z
y,x,-z
-y,-x,-z
-x,y,z
x,-y,z
1/2+x,1/2+y,1/2+z
1/2+y,1/2-x,1/2-z
1/2-x,1/2-y,1/2+z
1/2-y,1/2+x,1/2-z
1/2+y,1/2+x,1/2-z
1/2-y,1/2-x,1/2-z
1/2-x,1/2+y,1/2+z
1/2+x,1/2-y,1/2+z
loop_
_atom_site_type_symbol
_atom_site_label
_atom_site_fract_x
_atom_site_fract_y
_atom_site_fract_z
Si Si1 0.208386 0.000000 0.039791
Si Si2 0.000000 0.205673 0.483267
Si Si3 0.257802 0.355534 0.915789
Si Si4 0.000000 0.883156 0.223351
Si Si5 0.853190 0.244727 0.916031
Si Si6 0.000000 0.893669 0.719093
O O1 0.254401 0.930962 0.024103
O O2 0.177668 0.000000 0.196923
O O3 0.142466 0.000000 0.937141
O O4 0.066769 0.250408 0.527002
O O5 0.000000 0.129762 0.555820
O O6 0.000000 0.186547 0.317314
O O7 0.186154 0.316189 0.946558
O O8 0.275053 0.352967 0.749468
O O9 0.320205 0.320205 0.000000
O O10 0.066582 0.929881 0.248685
O O11 0.817729 0.182272 0.000000
#
# Coordination Sequence:
#
# PCOD8310993 Si02
#       6
#     8   8  16   8  16   8
#     4  12  22  35  54  79 107 148 183 223 273 322
#     4  12  22  35  54  79 107 148 183 223 273 322
#     4  10  21  37  57  80 108 143 185 230 273 322
#     4  11  24  32  50  78 112 147 180 214 262 331
#     4  10  21  37  57  80 108 143 185 230 273 322
#     4  11  20  36  50  74 112 145 180 216 258 329
#
# _framework density 18.040251999999999
#
# number of rings (size 3 to 8) (size 9 to 14) (size 15 to 20)
#    0.000    1.250    2.500    4.500    3.500    2.000 
#    0.000    0.000    0.000    0.750    0.000    3.500 
#    0.000    2.000    0.000    0.000    0.000    0.000 
#
# Total GULP energy -396847.367444 kJ/mol
# GULP energy per Si atom -12401.480233 kJ/mol
# Density = 1.799919 g / cm^3
# Si number density = 18.040252 Si / 1000 Ang^3
#
#
#
# Elastic Constant Matrix: (Units=GPa)
#
#
# Indices 1 2 3 4 5 6 
#
# 1 124.1510 63.3983 28.4732 0.0000 0.0000 0.0000
# 2 63.3983 124.1518 28.4735 0.0000 0.0000 0.0000
# 3 28.4732 28.4735 57.0249 0.0000 0.0000 0.0000
# 4 0.0000 0.0000 0.0000 21.6508 0.0000 0.0000
# 5 0.0000 0.0000 0.0000 0.0000 21.6507 0.0000
# 6 0.0000 0.0000 0.0000 0.0000 0.0000 27.1576
#
#
#
# Elastic Compliance Matrix: (Units=1/GPa)
#
#
# Indices 1 2 3 4 5 6 
#
# 1 0.011372 -0.005088 -0.003138 0.000000 0.000000 0.000000
# 2 -0.005088 0.011372 -0.003138 0.000000 0.000000 0.000000
# 3 -0.003138 -0.003138 0.020670 0.000000 0.000000 0.000000
# 4 0.000000 0.000000 0.000000 0.046188 0.000000 0.000000
# 5 0.000000 0.000000 0.000000 0.000000 0.046188 0.000000
# 6 0.000000 0.000000 0.000000 0.000000 0.000000 0.036822
#
#
# Mechanical properties :
#
#
# Convention : Reuss Voigt Hill
#
# Bulk Modulus (GPa) = 48.33909 60.66864 54.50387
# Shear Modulus (GPa) = 24.72361 26.42399 25.57380
#
# Velocity S-wave (km/s) = 3.70600 3.83132 3.76918
# Velocity P-wave (km/s) = 6.72056 7.29895 7.01572
#
# Compressibility (1/GPa) = 0.02068719
#
# Stress axis : x y z
#
# Youngs Moduli (GPa) = 87.93195 87.93237 48.37937
#
# Poissons Ratio (x) = 0.44737 0.15182
# Poissons Ratio (y) = 0.44737 0.15182
# Poissons Ratio (z) = 0.27593 0.27594
#
# Static dielectric constant tensor:
#      x y z
#    x 3.328180 0.000000 0.000000 
#    y 0.000000 3.328170 0.000000 
#    z 0.000000 0.000000 3.456690 
# 
# 
# High freq. dielectric constant tensor:
#      x y z
#    x 1.683070 0.000000 0.000000 
#    y 0.000000 1.683070 0.000000 
#    z 0.000000 0.000000 1.714310 
# 
# From -- ./inp_files/2358.got.cif
#   From: 2010.03.12/outbox.cif.g09.slc.cpg/sg119_2_cif.got.tgz:2358.got - 2010.04.14 02:25:26.
