data_PCOD8310821
_publ_section_title
;
Structure prediction by ZEFSAII (Michael W. Deem and Ramdas Pophale) SiO2 
 PCOD8310821
Probable space group: I -4 M 2
;
_chemical_formula_sum "Si O2"
_cell_formula_units_Z 104
_cell_length_a 17.373498
_cell_length_b 17.373498
_cell_length_c 19.785943
_cell_angle_alpha 90.000000
_cell_angle_beta 90.000000
_cell_angle_gamma 90.000000
_cell_volume 5972.158026
_symmetry_space_group_name_H-M "I -4 M 2"
_symmetry_group_IT_number 119
_symmetry_cell_setting 'tetragonal'
loop_
_space_group_symop_operation_xyz
x,y,z
y,-x,-z
-x,-y,z
-y,x,-z
y,x,-z
-y,-x,-z
-x,y,z
x,-y,z
1/2+x,1/2+y,1/2+z
1/2+y,1/2-x,1/2-z
1/2-x,1/2-y,1/2+z
1/2-y,1/2+x,1/2-z
1/2+y,1/2+x,1/2-z
1/2-y,1/2-x,1/2-z
1/2-x,1/2+y,1/2+z
1/2+x,1/2-y,1/2+z
loop_
_atom_site_type_symbol
_atom_site_label
_atom_site_fract_x
_atom_site_fract_y
_atom_site_fract_z
Si Si1 0.291913 0.167951 0.519332
Si Si2 0.086339 0.586339 0.250000
Si Si3 0.307665 0.909177 0.379389
Si Si4 0.208967 0.167873 0.274705
Si Si5 0.288799 0.588502 0.508148
Si Si6 0.911519 0.729996 0.339405
Si Si7 0.725452 0.085826 0.156231
O O1 0.220925 0.220925 0.500000
O O2 0.306550 0.106630 0.459600
O O3 0.366606 0.222011 0.533253
O O4 0.269091 0.123535 0.586357
O O5 0.097557 0.500000 0.279087
O O6 0.101504 0.644369 0.311215
O O7 0.230210 0.879718 0.342714
O O8 0.371835 0.857052 0.342238
O O9 0.322352 0.000000 0.367401
O O10 0.265763 0.234237 0.250000
O O11 0.127077 0.206977 0.290021
O O12 0.210327 0.110327 0.211298
O O13 0.372246 0.627755 0.500000
O O14 0.292611 0.500000 0.483755
O O15 0.267745 0.596753 0.585973
O O16 0.000000 0.753255 0.343596
O O17 0.701406 0.000000 0.171983
#
# Coordination Sequence:
#
# PCOD8310821 Si02
#       7
#    16   8  16  16  16  16  16
#     4  10  19  34  53  77 107 140 180 221 261 320
#     4   9  20  36  52  76 110 140 169 216 274 318
#     4  10  19  32  54  80 106 138 171 215 270 318
#     4  10  19  33  53  76 103 136 177 217 257 311
#     4   9  19  33  53  78 108 142 177 219 265 318
#     4  11  21  34  55  79 105 140 182 223 262 314
#     4   9  19  35  53  77 107 138 174 218 266 319
#
# _framework density 17.41414
#
# number of rings (size 3 to 8) (size 9 to 14) (size 15 to 20)
#    0.000    2.231    2.308    0.923    2.154    1.077 
#    0.000    2.308    0.000    8.308    0.000    1.077 
#    0.000    0.000    0.000    0.000    0.000    0.000 
#
# Total GULP energy -644456.424762 kJ/mol
# GULP energy per Si atom -12393.392784 kJ/mol
# Density = 1.737450 g / cm^3
# Si number density = 17.414140 Si / 1000 Ang^3
#
#
#
# Elastic Constant Matrix: (Units=GPa)
#
#
# Indices 1 2 3 4 5 6 
#
# 1 132.2730 45.5671 40.6047 0.0000 0.0000 0.0000
# 2 45.5671 132.2770 40.6132 0.0000 0.0000 0.0000
# 3 40.6047 40.6132 65.9890 0.0000 0.0000 0.0000
# 4 0.0000 0.0000 0.0000 21.9345 0.0000 0.0000
# 5 0.0000 0.0000 0.0000 0.0000 21.9344 0.0000
# 6 0.0000 0.0000 0.0000 0.0000 0.0000 20.5323
#
#
#
# Elastic Compliance Matrix: (Units=1/GPa)
#
#
# Indices 1 2 3 4 5 6 
#
# 1 0.009677 -0.001856 -0.004812 0.000000 0.000000 0.000000
# 2 -0.001856 0.009677 -0.004814 0.000000 0.000000 0.000000
# 3 -0.004812 -0.004814 0.021078 0.000000 0.000000 0.000000
# 4 0.000000 0.000000 0.000000 0.045590 0.000000 0.000000
# 5 0.000000 0.000000 0.000000 0.000000 0.045590 0.000000
# 6 0.000000 0.000000 0.000000 0.000000 0.000000 0.048704
#
#
# Mechanical properties :
#
#
# Convention : Reuss Voigt Hill
#
# Bulk Modulus (GPa) = 57.24797 64.90101 61.07449
# Shear Modulus (GPa) = 23.91172 26.46384 25.18778
#
# Velocity S-wave (km/s) = 3.70958 3.90253 3.80728
# Velocity P-wave (km/s) = 7.16197 7.59318 7.38072
#
# Compressibility (1/GPa) = 0.01746787
#
# Stress axis : x y z
#
# Youngs Moduli (GPa) = 103.34130 103.33495 47.44352
#
# Poissons Ratio (x) = 0.19179 0.22830
# Poissons Ratio (y) = 0.19180 0.22839
# Poissons Ratio (z) = 0.49728 0.49744
#
# Static dielectric constant tensor:
#      x y z
#    x 3.288580 0.000000 0.000000 
#    y 0.000000 3.288570 0.000000 
#    z 0.000000 0.000000 2.925440 
# 
# 
# High freq. dielectric constant tensor:
#      x y z
#    x 1.664380 0.000000 0.000000 
#    y 0.000000 1.664380 0.000000 
#    z 0.000000 0.000000 1.677170 
# 
# From -- ./inp_files/6706.got.cif
#   From: 2010.03.12/outbox.cif.g09.slc.cpg/sg119_4_cif.got.tgz:6706.got - 2010.04.14 02:25:26.
