data_PCOD8310537
_publ_section_title
;
Structure prediction by ZEFSAII (Michael W. Deem and Ramdas Pophale) SiO2 
 PCOD8310537
Probable space group: P -4 N 2
;
_chemical_formula_sum "Si O2"
_cell_formula_units_Z 48
_cell_length_a 9.248122
_cell_length_b 9.248122
_cell_length_c 27.401168
_cell_angle_alpha 90.000000
_cell_angle_beta 90.000000
_cell_angle_gamma 90.000000
_cell_volume 2343.560535
_symmetry_space_group_name_H-M "P -4 N 2"
_symmetry_group_IT_number 118
_symmetry_cell_setting 'tetragonal'
loop_
_space_group_symop_operation_xyz
x,y,z
y,-x,-z
-x,-y,z
-y,x,-z
1/2+y,1/2+x,1/2-z
1/2-y,1/2-x,1/2-z
1/2-x,1/2+y,1/2+z
1/2+x,1/2-y,1/2+z
loop_
_atom_site_type_symbol
_atom_site_label
_atom_site_fract_x
_atom_site_fract_y
_atom_site_fract_z
Si Si1 0.178686 0.743765 0.198953
Si Si2 0.342752 0.040815 0.199740
Si Si3 0.425568 0.352071 0.882291
Si Si4 0.116139 0.377431 0.432738
Si Si5 0.200645 0.907856 0.481625
Si Si6 0.851230 0.080813 0.858296
O O1 0.160854 0.660854 0.250000
O O2 0.277176 0.649710 0.163124
O O3 0.016265 0.759612 0.179226
O O4 0.252086 0.897245 0.210634
O O5 0.371412 0.128589 0.250000
O O6 0.244358 0.134739 0.162745
O O7 0.500000 0.000000 0.176365
O O8 0.500000 0.500000 0.864516
O O9 0.556567 0.262845 0.905110
O O10 0.301488 0.373755 0.924010
O O11 0.138610 0.348883 0.490966
O O12 0.269968 0.417640 0.409930
O O13 0.000000 0.500000 0.423826
O O14 0.077642 0.820341 0.510549
O O15 0.000000 0.000000 0.869051
#
# Coordination Sequence:
#
# PCOD8310537 Si02
#       6
#     8   8   8   8   8   8
#     4  11  23  41  62  97 139 173 219 277 332 397
#     4  10  21  41  64  88 126 168 231 280 318 390
#     4  11  22  39  69  99 132 172 230 274 336 400
#     4  11  21  40  67  96 133 169 215 277 336 401
#     4   9  17  37  64  95 126 159 216 283 321 387
#     4  10  24  42  62  91 137 177 211 279 341 392
#
# _framework density 20.481653999999999
#
# number of rings (size 3 to 8) (size 9 to 14) (size 15 to 20)
#    0.000    1.667    6.667    0.000    2.333    3.333 
#    0.000    8.333    0.000    0.000    0.000    0.000 
#    0.000    0.000    0.000    0.000    0.000    0.000 
#
# Total GULP energy -594965.571644 kJ/mol
# GULP energy per Si atom -12395.116076 kJ/mol
# Density = 2.043504 g / cm^3
# Si number density = 20.481654 Si / 1000 Ang^3
#
#
#
# Elastic Constant Matrix: (Units=GPa)
#
#
# Indices 1 2 3 4 5 6 
#
# 1 99.9769 34.0323 46.4682 0.0000 0.0000 0.0000
# 2 34.0323 99.9768 46.4682 0.0000 0.0000 0.0000
# 3 46.4682 46.4682 123.3960 0.0000 0.0000 0.0000
# 4 0.0000 0.0000 0.0000 17.9880 0.0000 0.0000
# 5 0.0000 0.0000 0.0000 0.0000 17.9877 0.0000
# 6 0.0000 0.0000 0.0000 0.0000 0.0000 8.1822
#
#
#
# Elastic Compliance Matrix: (Units=1/GPa)
#
#
# Indices 1 2 3 4 5 6 
#
# 1 0.012632 -0.002532 -0.003803 0.000000 0.000000 0.000000
# 2 -0.002532 0.012632 -0.003803 0.000000 0.000000 0.000000
# 3 -0.003803 -0.003803 0.010969 0.000000 0.000000 0.000000
# 4 0.000000 0.000000 0.000000 0.055593 0.000000 0.000000
# 5 0.000000 0.000000 0.000000 0.000000 0.055593 0.000000
# 6 0.000000 0.000000 0.000000 0.000000 0.000000 0.122217
#
#
# Mechanical properties :
#
#
# Convention : Reuss Voigt Hill
#
# Bulk Modulus (GPa) = 62.67744 64.14304 63.41024
# Shear Modulus (GPa) = 16.93582 21.92363 19.42973
#
# Velocity S-wave (km/s) = 2.87867 3.27525 3.08334
# Velocity P-wave (km/s) = 6.45888 6.75931 6.61080
#
# Compressibility (1/GPa) = 0.01595470
#
# Stress axis : x y z
#
# Youngs Moduli (GPa) = 79.16370 79.16366 91.16989
#
# Poissons Ratio (x) = 0.20046 0.34675
# Poissons Ratio (y) = 0.20046 0.34675
# Poissons Ratio (z) = 0.30109 0.30109
#
# Static dielectric constant tensor:
#      x y z
#    x 3.799830 0.000000 0.000000 
#    y 0.000000 3.799830 0.000000 
#    z 0.000000 0.000000 4.730340 
# 
# 
# High freq. dielectric constant tensor:
#      x y z
#    x 1.796330 0.000000 0.000000 
#    y 0.000000 1.796330 0.000000 
#    z 0.000000 0.000000 1.792530 
# 
# From -- ./inp_files/6842.got.cif
#   From: 2010.03.12/outbox.cif.g09.slc.cpg/sg118_4_cif.got.tgz:6842.got - 2010.04.14 02:21:17.
