data_PCOD8310874
_publ_section_title
;
Structure prediction by ZEFSAII (Michael W. Deem and Ramdas Pophale) SiO2 
 PCOD8310874
Probable space group: I -4 M 2
;
_chemical_formula_sum "Si O2"
_cell_formula_units_Z 112
_cell_length_a 22.508536
_cell_length_b 22.508536
_cell_length_c 12.897674
_cell_angle_alpha 90.000000
_cell_angle_beta 90.000000
_cell_angle_gamma 90.000000
_cell_volume 6534.402657
_symmetry_space_group_name_H-M "I -4 M 2"
_symmetry_group_IT_number 119
_symmetry_cell_setting 'tetragonal'
loop_
_space_group_symop_operation_xyz
x,y,z
y,-x,-z
-x,-y,z
-y,x,-z
y,x,-z
-y,-x,-z
-x,y,z
x,-y,z
1/2+x,1/2+y,1/2+z
1/2+y,1/2-x,1/2-z
1/2-x,1/2-y,1/2+z
1/2-y,1/2+x,1/2-z
1/2+y,1/2+x,1/2-z
1/2-y,1/2-x,1/2-z
1/2-x,1/2+y,1/2+z
1/2+x,1/2-y,1/2+z
loop_
_atom_site_type_symbol
_atom_site_label
_atom_site_fract_x
_atom_site_fract_y
_atom_site_fract_z
Si Si1 0.727925 0.567363 0.351180
Si Si2 0.789925 0.671050 0.853822
Si Si3 0.646379 0.567643 0.937280
Si Si4 0.068485 0.723701 0.498929
Si Si5 0.829597 0.150082 0.255117
Si Si6 0.772375 0.860662 0.049013
Si Si7 0.839585 0.433435 0.211721
O O1 0.700282 0.500000 0.344934
O O2 0.689696 0.615894 0.287248
O O3 0.739559 0.584534 0.471557
O O4 0.792527 0.566469 0.302925
O O5 0.829419 0.670582 0.750000
O O6 0.720926 0.686609 0.821678
O O7 0.814983 0.717585 0.937869
O O8 0.798716 0.606227 0.903377
O O9 0.637118 0.500000 0.911018
O O10 0.645416 0.598720 0.826305
O O11 0.590065 0.590065 0.000000
O O12 0.705116 0.579031 0.007861
O O13 0.090198 0.692198 0.393327
O O14 0.000000 0.709214 0.521946
O O15 0.794406 0.117331 0.161573
O O16 0.826333 0.826333 0.000000
O O17 0.863961 0.500000 0.192621
O O18 0.893412 0.393412 0.250000
#
# Coordination Sequence:
#
# PCOD8310874 Si02
#       7
#    16  16  16  16  16  16  16
#     4  10  20  33  50  73 101 131 164 203 245 294
#     4   9  17  30  49  73  99 124 158 202 246 292
#     4  10  20  33  49  69  94 124 159 198 239 284
#     4   9  18  32  49  70  97 127 157 192 240 295
#     4   9  19  33  49  71  97 128 161 196 246 295
#     4   9  18  31  48  73  99 125 161 201 243 290
#     4  10  20  32  48  70  95 126 161 195 237 289
#
# _framework density 17.140051
#
# number of rings (size 3 to 8) (size 9 to 14) (size 15 to 20)
#    0.000    2.571    0.000    1.714    0.000    8.857 
#    0.000    2.143    0.000    0.857    0.000    0.000 
#    0.000    0.000    0.000    0.000    0.000    0.000 
#
# Total GULP energy -693880.667204 kJ/mol
# GULP energy per Si atom -12390.726200 kJ/mol
# Density = 1.710104 g / cm^3
# Si number density = 17.140051 Si / 1000 Ang^3
#
#
#
# Elastic Constant Matrix: (Units=GPa)
#
#
# Indices 1 2 3 4 5 6 
#
# 1 82.9551 46.1906 47.2983 0.0000 0.0000 0.0000
# 2 46.1906 82.9556 47.2982 0.0000 0.0000 0.0000
# 3 47.2983 47.2982 92.5729 0.0000 0.0000 0.0000
# 4 0.0000 0.0000 0.0000 26.3370 0.0000 0.0000
# 5 0.0000 0.0000 0.0000 0.0000 26.3370 0.0000
# 6 0.0000 0.0000 0.0000 0.0000 0.0000 23.8166
#
#
#
# Elastic Compliance Matrix: (Units=1/GPa)
#
#
# Indices 1 2 3 4 5 6 
#
# 1 0.019787 -0.007413 -0.006322 0.000000 0.000000 0.000000
# 2 -0.007413 0.019787 -0.006322 0.000000 0.000000 0.000000
# 3 -0.006322 -0.006322 0.017263 0.000000 0.000000 0.000000
# 4 0.000000 0.000000 0.000000 0.037969 0.000000 0.000000
# 5 0.000000 0.000000 0.000000 0.000000 0.037969 0.000000
# 6 0.000000 0.000000 0.000000 0.000000 0.000000 0.041987
#
#
# Mechanical properties :
#
#
# Convention : Reuss Voigt Hill
#
# Bulk Modulus (GPa) = 59.80209 60.00643 59.90426
# Shear Modulus (GPa) = 22.68065 23.14455 22.91260
#
# Velocity S-wave (km/s) = 3.64160 3.67866 3.66018
# Velocity P-wave (km/s) = 7.25587 7.28895 7.27243
#
# Compressibility (1/GPa) = 0.01672182
#
# Stress axis : x y z
#
# Youngs Moduli (GPa) = 50.53786 50.53836 57.92799
#
# Poissons Ratio (x) = 0.37464 0.36624
# Poissons Ratio (y) = 0.37463 0.36623
# Poissons Ratio (z) = 0.31952 0.31952
#
# Static dielectric constant tensor:
#      x y z
#    x 3.172390 0.000000 0.000000 
#    y 0.000000 3.172390 0.000000 
#    z 0.000000 0.000000 3.567980 
# 
# 
# High freq. dielectric constant tensor:
#      x y z
#    x 1.645950 0.000000 0.000000 
#    y 0.000000 1.645950 0.000000 
#    z 0.000000 0.000000 1.676830 
# 
# From -- ./inp_files/4391.got.cif
#   From: 2010.03.12/outbox.cif.g09.slc.cpg/sg119_3_cif.got.tgz:4391.got - 2010.04.14 02:25:26.
