data_PCOD8310663
_publ_section_title
;
Structure prediction by ZEFSAII (Michael W. Deem and Ramdas Pophale) SiO2 
 PCOD8310663
Probable space group: P -4 N 2
;
_chemical_formula_sum "Si O2"
_cell_formula_units_Z 20
_cell_length_a 5.033830
_cell_length_b 5.033830
_cell_length_c 31.633022
_cell_angle_alpha 90.000000
_cell_angle_beta 90.000000
_cell_angle_gamma 90.000000
_cell_volume 801.563204
_symmetry_space_group_name_H-M "P -4 N 2"
_symmetry_group_IT_number 118
_symmetry_cell_setting 'tetragonal'
loop_
_space_group_symop_operation_xyz
x,y,z
y,-x,-z
-x,-y,z
-y,x,-z
1/2+y,1/2+x,1/2-z
1/2-y,1/2-x,1/2-z
1/2-x,1/2+y,1/2+z
1/2+x,1/2-y,1/2+z
loop_
_atom_site_type_symbol
_atom_site_label
_atom_site_fract_x
_atom_site_fract_y
_atom_site_fract_z
Si Si1 0.500000 0.500000 0.690370
Si Si2 0.000000 0.500000 0.250000
Si Si3 0.000000 0.500000 0.945671
Si Si4 0.500000 0.500000 0.500000
Si Si5 0.270339 0.672203 0.127782
O O1 0.464987 0.751008 0.719907
O O2 0.261442 0.429895 0.657991
O O3 0.238133 0.378056 0.917812
O O4 0.105834 0.748213 0.973090
O O5 0.500000 0.500000 0.150023
O O6 0.000000 0.500000 0.123302
#
# Coordination Sequence:
#
# PCOD8310663 Si02
#       5
#     4   2   4   2   8
#     4  12  29  56  76 127 158 218 270 333 412 476
#     4  12  32  48  86 112 178 202 264 346 414 474
#     4  12  30  50  81 121 166 212 278 327 419 470
#     4  12  30  52  80 120 172 216 256 356 404 484
#     4  12  27  52  87 117 157 220 274 334 392 502
#
# _framework density 24.951242000000001
#
# number of rings (size 3 to 8) (size 9 to 14) (size 15 to 20)
#    0.000    0.000    2.000    6.000   11.200    4.000 
#    0.000    0.000    0.000    0.000    0.000    0.000 
#    0.000    0.000    0.000    0.000    0.000    0.000 
#
# Total GULP energy -247847.153791 kJ/mol
# GULP energy per Si atom -12392.357690 kJ/mol
# Density = 2.489445 g / cm^3
# Si number density = 24.951242 Si / 1000 Ang^3
#
#
#
# Elastic Constant Matrix: (Units=GPa)
#
#
# Indices 1 2 3 4 5 6 
#
# 1 199.5509 79.5627 85.7055 0.0000 0.0000 0.0000
# 2 79.5627 199.5509 85.7055 0.0000 0.0000 0.0000
# 3 85.7055 85.7055 170.0220 0.0000 0.0000 0.0000
# 4 0.0000 0.0000 0.0000 -615.7754 0.0000 0.0000
# 5 0.0000 0.0000 0.0000 0.0000 -615.7754 0.0000
# 6 0.0000 0.0000 0.0000 0.0000 0.0000 52.9783
#
#
#
# Elastic Compliance Matrix: (Units=1/GPa)
#
#
# Indices 1 2 3 4 5 6 
#
# 1 0.006762 -0.001572 -0.002616 0.000000 0.000000 0.000000
# 2 -0.001572 0.006762 -0.002616 0.000000 0.000000 0.000000
# 3 -0.002616 -0.002616 0.008519 0.000000 0.000000 0.000000
# 4 0.000000 0.000000 0.000000 -0.001624 0.000000 0.000000
# 5 0.000000 0.000000 0.000000 0.000000 -0.001624 0.000000
# 6 0.000000 0.000000 0.000000 0.000000 0.000000 0.018876
#
#
# Mechanical properties :
#
#
# Convention : Reuss Voigt Hill
#
# Bulk Modulus (GPa) = 118.56811 119.00792 118.78801
# Shear Modulus (GPa) = 92.43971 -214.50450 -61.03239
#
# Velocity S-wave (km/s) = 6.09332 -9.28203 -4.95114
# Velocity P-wave (km/s) = 9.85535 8.18994 3.87639
#
# Compressibility (1/GPa) = 0.00843397
#
# Stress axis : x y z
#
# Youngs Moduli (GPa) = 147.89231 147.89231 117.38794
#
# Poissons Ratio (x) = 0.23256 0.30706
# Poissons Ratio (y) = 0.23256 0.30706
# Poissons Ratio (z) = 0.38686 0.38686
#
# Static dielectric constant tensor:
#      x y z
#    x 4.841200 0.000000 0.000000 
#    y 0.000000 4.841200 0.000000 
#    z 0.000000 0.000000 4.909110 
# 
# 
# High freq. dielectric constant tensor:
#      x y z
#    x 2.007330 0.000000 0.000000 
#    y 0.000000 2.007330 0.000000 
#    z 0.000000 0.000000 2.006300 
# 
# From -- ./inp_files/6665.got.cif
#   From: 2010.03.12/outbox.cif.g09.slc.cpg/sg118_4_cif.got.tgz:6665.got - 2010.04.14 02:21:17.
