data_PCOD8310908
_publ_section_title
;
Structure prediction by ZEFSAII (Michael W. Deem and Ramdas Pophale) SiO2 
 PCOD8310908
Probable space group: I -4 M 2
;
_chemical_formula_sum "Si O2"
_cell_formula_units_Z 104
_cell_length_a 18.308139
_cell_length_b 18.308139
_cell_length_c 16.869885
_cell_angle_alpha 90.000000
_cell_angle_beta 90.000000
_cell_angle_gamma 90.000000
_cell_volume 5654.582231
_symmetry_space_group_name_H-M "I -4 M 2"
_symmetry_group_IT_number 119
_symmetry_cell_setting 'tetragonal'
loop_
_space_group_symop_operation_xyz
x,y,z
y,-x,-z
-x,-y,z
-y,x,-z
y,x,-z
-y,-x,-z
-x,y,z
x,-y,z
1/2+x,1/2+y,1/2+z
1/2+y,1/2-x,1/2-z
1/2-x,1/2-y,1/2+z
1/2-y,1/2+x,1/2-z
1/2+y,1/2+x,1/2-z
1/2-y,1/2-x,1/2-z
1/2-x,1/2+y,1/2+z
1/2+x,1/2-y,1/2+z
loop_
_atom_site_type_symbol
_atom_site_label
_atom_site_fract_x
_atom_site_fract_y
_atom_site_fract_z
Si Si1 0.788662 0.920405 0.587793
Si Si2 0.222063 0.777938 0.500000
Si Si3 0.852637 0.582152 0.173786
Si Si4 0.418708 0.583161 0.801463
Si Si5 0.414414 0.739177 0.249278
Si Si6 0.414949 0.084974 0.993067
Si Si7 0.327392 0.175926 0.378657
O O1 0.765664 0.862193 0.522714
O O2 0.734675 0.915140 0.663399
O O3 0.870301 0.908255 0.618797
O O4 0.779949 0.000000 0.547400
O O5 0.234294 0.722384 0.572554
O O6 0.881024 0.500000 0.189688
O O7 0.869436 0.630565 0.250000
O O8 0.890187 0.613606 0.093734
O O9 0.500000 0.599879 0.763026
O O10 0.415730 0.500000 0.829961
O O11 0.348986 0.598942 0.744685
O O12 0.500000 0.757477 0.243326
O O13 0.382505 0.775531 0.327808
O O14 0.374264 0.773656 0.173327
O O15 0.500000 0.104766 0.000321
O O16 0.399767 0.000000 0.003298
O O17 0.373305 0.125407 0.063012
#
# Coordination Sequence:
#
# PCOD8310908 Si02
#       7
#    16   8  16  16  16  16  16
#     4  10  21  35  53  80 111 145 182 225 276 333
#     4  12  22  36  54  81 114 155 180 230 288 342
#     4  10  20  34  54  80 113 149 188 229 273 334
#     4   9  18  35  57  81 108 140 183 231 280 335
#     4  10  21  37  60  83 111 150 192 237 282 334
#     4  10  20  35  55  78 110 151 190 232 280 330
#     4  11  22  36  55  85 115 149 191 234 285 340
#
# _framework density 18.392163
#
# number of rings (size 3 to 8) (size 9 to 14) (size 15 to 20)
#    0.000    1.846    3.077    1.385    0.000    3.231 
#    0.000    0.000    0.000    4.615    0.000    0.000 
#    0.000    0.000    0.000    0.000    0.000    0.000 
#
# Total GULP energy -644552.539458 kJ/mol
# GULP energy per Si atom -12395.241143 kJ/mol
# Density = 1.835030 g / cm^3
# Si number density = 18.392163 Si / 1000 Ang^3
#
#
#
# Elastic Constant Matrix: (Units=GPa)
#
#
# Indices 1 2 3 4 5 6 
#
# 1 90.0421 37.1593 42.6859 0.0000 0.0000 0.0000
# 2 37.1593 90.0429 42.6853 0.0000 0.0000 0.0000
# 3 42.6859 42.6853 105.3371 0.0000 0.0000 0.0000
# 4 0.0000 0.0000 0.0000 24.4334 0.0000 0.0000
# 5 0.0000 0.0000 0.0000 0.0000 24.4339 0.0000
# 6 0.0000 0.0000 0.0000 0.0000 0.0000 23.7417
#
#
#
# Elastic Compliance Matrix: (Units=1/GPa)
#
#
# Indices 1 2 3 4 5 6 
#
# 1 0.014854 -0.004056 -0.004376 0.000000 0.000000 0.000000
# 2 -0.004056 0.014854 -0.004376 0.000000 0.000000 0.000000
# 3 -0.004376 -0.004376 0.013040 0.000000 0.000000 0.000000
# 4 0.000000 0.000000 0.000000 0.040928 0.000000 0.000000
# 5 0.000000 0.000000 0.000000 0.000000 0.040927 0.000000
# 6 0.000000 0.000000 0.000000 0.000000 0.000000 0.042120
#
#
# Mechanical properties :
#
#
# Convention : Reuss Voigt Hill
#
# Bulk Modulus (GPa) = 58.36616 58.94256 58.65436
# Shear Modulus (GPa) = 25.24648 25.38125 25.31386
#
# Velocity S-wave (km/s) = 3.70898 3.71887 3.71393
# Velocity P-wave (km/s) = 7.08133 7.11036 7.09586
#
# Compressibility (1/GPa) = 0.01713321
#
# Stress axis : x y z
#
# Youngs Moduli (GPa) = 67.32155 67.32268 76.68884
#
# Poissons Ratio (x) = 0.27304 0.33558
# Poissons Ratio (y) = 0.27303 0.33557
# Poissons Ratio (z) = 0.29459 0.29458
#
# Static dielectric constant tensor:
#      x y z
#    x 3.562470 0.000000 0.000000 
#    y 0.000000 3.562460 0.000000 
#    z 0.000000 0.000000 3.179120 
# 
# 
# High freq. dielectric constant tensor:
#      x y z
#    x 1.721670 0.000000 0.000000 
#    y 0.000000 1.721670 0.000000 
#    z 0.000000 0.000000 1.688830 
# 
# From -- ./inp_files/6752.got.cif
#   From: 2010.03.12/outbox.cif.g09.slc.cpg/sg119_4_cif.got.tgz:6752.got - 2010.04.14 02:25:26.
