data_PCOD8310606
_publ_section_title
;
Structure prediction by ZEFSAII (Michael W. Deem and Ramdas Pophale) SiO2 
 PCOD8310606
Probable space group: P -4 N 2
;
_chemical_formula_sum "Si O2"
_cell_formula_units_Z 52
_cell_length_a 15.735700
_cell_length_b 15.735700
_cell_length_c 9.431988
_cell_angle_alpha 90.000000
_cell_angle_beta 90.000000
_cell_angle_gamma 90.000000
_cell_volume 2335.475813
_symmetry_space_group_name_H-M "P -4 N 2"
_symmetry_group_IT_number 118
_symmetry_cell_setting 'tetragonal'
loop_
_space_group_symop_operation_xyz
x,y,z
y,-x,-z
-x,-y,z
-y,x,-z
1/2+y,1/2+x,1/2-z
1/2-y,1/2-x,1/2-z
1/2-x,1/2+y,1/2+z
1/2+x,1/2-y,1/2+z
loop_
_atom_site_type_symbol
_atom_site_label
_atom_site_fract_x
_atom_site_fract_y
_atom_site_fract_z
Si Si1 0.167183 0.095586 0.678972
Si Si2 0.450131 0.127410 0.493421
Si Si3 0.622432 0.740741 0.289035
Si Si4 0.390206 0.947882 0.404248
Si Si5 0.664024 0.835977 0.750000
Si Si6 0.982274 0.794470 0.566046
Si Si7 0.078055 0.887251 0.010080
O O1 0.248126 0.158896 0.660948
O O2 0.078631 0.132880 0.624465
O O3 0.164290 0.077281 0.844867
O O4 0.184251 0.007544 0.595639
O O5 0.442258 0.199461 0.374692
O O6 0.549852 0.103951 0.513832
O O7 0.415153 0.157984 0.643472
O O8 0.397512 0.048025 0.432387
O O9 0.711303 0.788698 0.250000
O O10 0.572065 0.710309 0.149650
O O11 0.637733 0.659256 0.392333
O O12 0.424396 0.924396 0.250000
O O13 0.291643 0.926116 0.426270
O O14 0.981113 0.887964 0.955515
#
# Coordination Sequence:
#
# PCOD8310606 Si02
#       7
#     8   8   8   8   4   8   8
#     4  12  28  47  70 106 147 186 248 309 365 429
#     4  11  21  38  69  99 145 184 230 290 366 443
#     4  12  21  43  74 105 138 187 236 297 372 436
#     4  11  21  38  66 105 137 184 239 281 359 458
#     4  12  24  45  66 106 149 188 236 312 374 424
#     4  12  27  46  72 106 142 195 243 305 366 435
#     4  11  26  48  74 101 138 194 249 293 357 441
#
# _framework density 22.265269
#
# number of rings (size 3 to 8) (size 9 to 14) (size 15 to 20)
#    0.000    0.462    7.692    0.923    3.231    1.538 
#    0.000    0.000    0.000    0.000    0.000    0.000 
#    0.000    0.000    0.000    0.000    0.000    0.000 
#
# Total GULP energy -644797.973079 kJ/mol
# GULP energy per Si atom -12399.961021 kJ/mol
# Density = 2.221459 g / cm^3
# Si number density = 22.265269 Si / 1000 Ang^3
#
#
#
# Elastic Constant Matrix: (Units=GPa)
#
#
# Indices 1 2 3 4 5 6 
#
# 1 84.2962 33.4708 32.2198 0.0000 0.0000 0.0000
# 2 33.4708 84.2967 32.2196 0.0000 0.0000 0.0000
# 3 32.2198 32.2196 109.2822 0.0000 0.0000 0.0000
# 4 0.0000 0.0000 0.0000 32.0002 0.0000 0.0000
# 5 0.0000 0.0000 0.0000 0.0000 31.9999 0.0000
# 6 0.0000 0.0000 0.0000 0.0000 0.0000 30.6623
#
#
#
# Elastic Compliance Matrix: (Units=1/GPa)
#
#
# Indices 1 2 3 4 5 6 
#
# 1 0.014900 -0.004775 -0.002985 0.000000 0.000000 0.000000
# 2 -0.004775 0.014900 -0.002985 0.000000 0.000000 0.000000
# 3 -0.002985 -0.002985 0.010911 0.000000 0.000000 0.000000
# 4 0.000000 0.000000 0.000000 0.031250 0.000000 0.000000
# 5 0.000000 0.000000 0.000000 0.000000 0.031250 0.000000
# 6 0.000000 0.000000 0.000000 0.000000 0.000000 0.032613
#
#
# Mechanical properties :
#
#
# Convention : Reuss Voigt Hill
#
# Bulk Modulus (GPa) = 52.02940 52.63284 52.33112
# Shear Modulus (GPa) = 30.53972 30.93013 30.73493
#
# Velocity S-wave (km/s) = 3.70757 3.73119 3.71940
# Velocity P-wave (km/s) = 6.46118 6.50021 6.48072
#
# Compressibility (1/GPa) = 0.01921990
#
# Stress axis : x y z
#
# Youngs Moduli (GPa) = 67.11422 67.11479 91.65232
#
# Poissons Ratio (x) = 0.32049 0.27359
# Poissons Ratio (y) = 0.32049 0.27358
# Poissons Ratio (z) = 0.20034 0.20034
#
# Static dielectric constant tensor:
#      x y z
#    x 4.026850 0.000000 0.000000 
#    y 0.000000 4.026850 0.000000 
#    z 0.000000 0.000000 4.019120 
# 
# 
# High freq. dielectric constant tensor:
#      x y z
#    x 1.868810 0.000000 0.000000 
#    y 0.000000 1.868810 0.000000 
#    z 0.000000 0.000000 1.879320 
# 
# From -- ./inp_files/2177.got.cif
#   From: 2010.03.12/outbox.cif.g09.slc.cpg/sg118_2_cif.got.tgz:2177.got - 2010.04.14 02:21:17.
