data_PCOD8310743
_publ_section_title
;
Structure prediction by ZEFSAII (Michael W. Deem and Ramdas Pophale) SiO2 
 PCOD8310743
Probable space group: I -4 M 2
;
_chemical_formula_sum "Si O2"
_cell_formula_units_Z 128
_cell_length_a 19.054926
_cell_length_b 19.054926
_cell_length_c 20.763801
_cell_angle_alpha 90.000000
_cell_angle_beta 90.000000
_cell_angle_gamma 90.000000
_cell_volume 7539.132759
_symmetry_space_group_name_H-M "I -4 M 2"
_symmetry_group_IT_number 119
_symmetry_cell_setting 'tetragonal'
loop_
_space_group_symop_operation_xyz
x,y,z
y,-x,-z
-x,-y,z
-y,x,-z
y,x,-z
-y,-x,-z
-x,y,z
x,-y,z
1/2+x,1/2+y,1/2+z
1/2+y,1/2-x,1/2-z
1/2-x,1/2-y,1/2+z
1/2-y,1/2+x,1/2-z
1/2+y,1/2+x,1/2-z
1/2-y,1/2-x,1/2-z
1/2-x,1/2+y,1/2+z
1/2+x,1/2-y,1/2+z
loop_
_atom_site_type_symbol
_atom_site_label
_atom_site_fract_x
_atom_site_fract_y
_atom_site_fract_z
Si Si1 0.225391 0.662075 0.011887
Si Si2 0.701376 0.918477 0.381936
Si Si3 0.419557 0.652718 0.179501
Si Si4 0.922477 0.137550 0.064073
Si Si5 0.332298 0.581868 0.677881
Si Si6 0.152865 0.082595 0.561879
Si Si7 0.423387 0.206544 0.515843
Si Si8 0.683137 0.078633 0.132719
O O1 0.270722 0.618617 0.063159
O O2 0.145857 0.665108 0.040008
O O3 0.260540 0.739461 0.000000
O O4 0.227683 0.617678 0.946753
O O5 0.764461 0.908965 0.332002
O O6 0.632005 0.880570 0.354218
O O7 0.683334 0.000000 0.394366
O O8 0.500000 0.632370 0.171509
O O9 0.394498 0.637646 0.252600
O O10 0.380369 0.602621 0.129879
O O11 0.869605 0.125479 0.122355
O O12 0.920704 0.218930 0.048571
O O13 0.000000 0.114387 0.086421
O O14 0.904814 0.095187 0.000000
O O15 0.346051 0.500000 0.664710
O O16 0.248860 0.597189 0.678122
O O17 0.109488 0.109488 0.500000
O O18 0.160005 0.000000 0.556223
O O19 0.500000 0.170770 0.532030
O O20 0.415325 0.213501 0.439341
O O21 0.654972 0.000000 0.146615
#
# Coordination Sequence:
#
# PCOD8310743 Si02
#       8
#    16  16  16  16  16  16  16  16
#     4  10  18  30  53  78 104 136 172 215 261 307
#     4  10  19  33  52  76 105 135 172 217 260 304
#     4  10  21  36  50  70 103 140 173 212 261 312
#     4  11  20  31  50  75 101 131 172 218 253 298
#     4  10  21  35  49  68 102 142 176 209 258 312
#     4  11  21  34  54  79 102 131 175 221 265 313
#     4   9  18  31  50  76 103 133 169 211 259 304
#     4   9  18  33  52  74 102 137 174 213 258 308
#
# _framework density 16.978081
#
# number of rings (size 3 to 8) (size 9 to 14) (size 15 to 20)
#    0.000    2.000    3.750    1.500    1.750    3.000 
#    0.000    1.250    0.000    1.125    0.000    3.500 
#    0.000    0.000    0.000    0.000    0.000   27.875 
#
# Total GULP energy -793270.543088 kJ/mol
# GULP energy per Si atom -12394.852236 kJ/mol
# Density = 1.693944 g / cm^3
# Si number density = 16.978081 Si / 1000 Ang^3
#
#
#
# Elastic Constant Matrix: (Units=GPa)
#
#
# Indices 1 2 3 4 5 6 
#
# 1 98.7665 42.5526 29.1889 0.0000 0.0000 0.0000
# 2 42.5526 98.7654 29.1900 0.0000 0.0000 0.0000
# 3 29.1889 29.1900 63.3616 0.0000 0.0000 0.0000
# 4 0.0000 0.0000 0.0000 16.4044 0.0000 0.0000
# 5 0.0000 0.0000 0.0000 0.0000 16.4046 0.0000
# 6 0.0000 0.0000 0.0000 0.0000 0.0000 21.9863
#
#
#
# Elastic Compliance Matrix: (Units=1/GPa)
#
#
# Indices 1 2 3 4 5 6 
#
# 1 0.013264 -0.004525 -0.004026 0.000000 0.000000 0.000000
# 2 -0.004525 0.013265 -0.004026 0.000000 0.000000 0.000000
# 3 -0.004026 -0.004026 0.019492 0.000000 0.000000 0.000000
# 4 0.000000 0.000000 0.000000 0.060959 0.000000 0.000000
# 5 0.000000 0.000000 0.000000 0.000000 0.060958 0.000000
# 6 0.000000 0.000000 0.000000 0.000000 0.000000 0.045483
#
#
# Mechanical properties :
#
#
# Convention : Reuss Voigt Hill
#
# Bulk Modulus (GPa) = 47.92395 51.41741 49.67068
# Shear Modulus (GPa) = 20.36401 21.62318 20.99360
#
# Velocity S-wave (km/s) = 3.46704 3.57262 3.52022
# Velocity P-wave (km/s) = 6.65698 6.88247 6.77066
#
# Compressibility (1/GPa) = 0.02086639
#
# Stress axis : x y z
#
# Youngs Moduli (GPa) = 75.39082 75.38895 51.30341
#
# Poissons Ratio (x) = 0.34113 0.20654
# Poissons Ratio (y) = 0.34114 0.20656
# Poissons Ratio (z) = 0.30351 0.30354
#
# Static dielectric constant tensor:
#      x y z
#    x 3.309100 0.000000 0.000000 
#    y 0.000000 3.309110 0.000000 
#    z 0.000000 0.000000 3.061410 
# 
# 
# High freq. dielectric constant tensor:
#      x y z
#    x 1.652880 0.000000 0.000000 
#    y 0.000000 1.652880 0.000000 
#    z 0.000000 0.000000 1.634630 
# 
# From -- ./inp_files/6901.got.cif
#   From: 2010.03.12/outbox.cif.g09.slc.cpg/sg119_4_cif.got.tgz:6901.got - 2010.04.14 02:25:26.
