data_PCOD8310552
_publ_section_title
;
Structure prediction by ZEFSAII (Michael W. Deem and Ramdas Pophale) SiO2 
 PCOD8310552
Probable space group: P -4 N 2
;
_chemical_formula_sum "Si O2"
_cell_formula_units_Z 40
_cell_length_a 11.204189
_cell_length_b 11.204189
_cell_length_c 15.217268
_cell_angle_alpha 90.000000
_cell_angle_beta 90.000000
_cell_angle_gamma 90.000000
_cell_volume 1910.282256
_symmetry_space_group_name_H-M "P -4 N 2"
_symmetry_group_IT_number 118
_symmetry_cell_setting 'tetragonal'
loop_
_space_group_symop_operation_xyz
x,y,z
y,-x,-z
-x,-y,z
-y,x,-z
1/2+y,1/2+x,1/2-z
1/2-y,1/2-x,1/2-z
1/2-x,1/2+y,1/2+z
1/2+x,1/2-y,1/2+z
loop_
_atom_site_type_symbol
_atom_site_label
_atom_site_fract_x
_atom_site_fract_y
_atom_site_fract_z
Si Si1 0.585325 0.331606 0.473491
Si Si2 0.118624 0.264378 0.455608
Si Si3 0.820677 0.509524 0.215396
Si Si4 0.833380 0.136632 0.228572
Si Si5 0.016668 0.859883 0.610814
O O1 0.447472 0.340481 0.498797
O O2 0.637109 0.217384 0.523419
O O3 0.592444 0.317652 0.369455
O O4 0.015764 0.318733 0.391431
O O5 0.064109 0.217104 0.545492
O O6 0.177006 0.154331 0.401493
O O7 0.858154 0.641847 0.250000
O O8 0.693087 0.465447 0.252943
O O9 0.917269 0.417269 0.250000
O O10 0.733011 0.233011 0.250000
O O11 0.823078 0.021935 0.291238
O O12 0.000000 0.000000 0.590082
#
# Coordination Sequence:
#
# PCOD8310552 Si02
#       5
#     8   8   8   8   8
#     4  11  27  46  67  98 138 183 225 281 358 423
#     4  12  22  42  67 100 137 173 231 286 336 409
#     4  10  22  37  61  99 134 174 227 281 340 400
#     4  11  22  42  66  93 133 180 225 277 344 412
#     4  12  22  38  69 102 130 174 228 284 338 405
#
# _framework density 20.939312000000001
#
# number of rings (size 3 to 8) (size 9 to 14) (size 15 to 20)
#    0.000    0.800    6.000    1.200    5.600    1.600 
#    0.000    0.000    0.000    1.200    0.000    0.000 
#    0.000    0.000    0.000    0.000    0.000    0.000 
#
# Total GULP energy -495952.379486 kJ/mol
# GULP energy per Si atom -12398.809487 kJ/mol
# Density = 2.089165 g / cm^3
# Si number density = 20.939312 Si / 1000 Ang^3
#
#
#
# Elastic Constant Matrix: (Units=GPa)
#
#
# Indices 1 2 3 4 5 6 
#
# 1 79.4532 15.5235 41.7872 0.0000 0.0000 0.0000
# 2 15.5235 79.4531 41.7880 0.0000 0.0000 0.0000
# 3 41.7872 41.7880 146.9072 0.0000 0.0000 0.0000
# 4 0.0000 0.0000 0.0000 35.6103 0.0000 0.0000
# 5 0.0000 0.0000 0.0000 0.0000 35.6114 0.0000
# 6 0.0000 0.0000 0.0000 0.0000 0.0000 30.8090
#
#
#
# Elastic Compliance Matrix: (Units=1/GPa)
#
#
# Indices 1 2 3 4 5 6 
#
# 1 0.014843 -0.000799 -0.003995 0.000000 0.000000 0.000000
# 2 -0.000799 0.014843 -0.003995 0.000000 0.000000 0.000000
# 3 -0.003995 -0.003995 0.009080 0.000000 0.000000 0.000000
# 4 0.000000 0.000000 0.000000 0.028082 0.000000 0.000000
# 5 0.000000 0.000000 0.000000 0.000000 0.028081 0.000000
# 6 0.000000 0.000000 0.000000 0.000000 0.000000 0.032458
#
#
# Mechanical properties :
#
#
# Convention : Reuss Voigt Hill
#
# Bulk Modulus (GPa) = 47.19509 56.00123 51.59816
# Shear Modulus (GPa) = 32.88886 34.18712 33.53799
#
# Velocity S-wave (km/s) = 3.96747 4.04502 4.00644
# Velocity P-wave (km/s) = 6.60119 6.97272 6.78950
#
# Compressibility (1/GPa) = 0.02118865
#
# Stress axis : x y z
#
# Youngs Moduli (GPa) = 67.37116 67.37067 110.13598
#
# Poissons Ratio (x) = 0.05383 0.43997
# Poissons Ratio (y) = 0.05383 0.43998
# Poissons Ratio (z) = 0.26913 0.26914
#
# Static dielectric constant tensor:
#      x y z
#    x 3.603450 0.000000 0.000000 
#    y 0.000000 3.603580 0.000000 
#    z 0.000000 0.000000 3.841780 
# 
# 
# High freq. dielectric constant tensor:
#      x y z
#    x 1.811030 0.000000 0.000000 
#    y 0.000000 1.811030 0.000000 
#    z 0.000000 0.000000 1.837510 
# 
# From -- ./inp_files/4044.got.cif
#   From: 2010.03.12/outbox.cif.g09.slc.cpg/sg118_3_cif.got.tgz:4044.got - 2010.04.14 02:21:17.
