data_PCOD8310817
_publ_section_title
;
Structure prediction by ZEFSAII (Michael W. Deem and Ramdas Pophale) SiO2 
 PCOD8310817
Probable space group: I -4 M 2
;
_chemical_formula_sum "Si O2"
_cell_formula_units_Z 104
_cell_length_a 18.025970
_cell_length_b 18.025970
_cell_length_c 16.825547
_cell_angle_alpha 90.000000
_cell_angle_beta 90.000000
_cell_angle_gamma 90.000000
_cell_volume 5467.219116
_symmetry_space_group_name_H-M "I -4 M 2"
_symmetry_group_IT_number 119
_symmetry_cell_setting 'tetragonal'
loop_
_space_group_symop_operation_xyz
x,y,z
y,-x,-z
-x,-y,z
-y,x,-z
y,x,-z
-y,-x,-z
-x,y,z
x,-y,z
1/2+x,1/2+y,1/2+z
1/2+y,1/2-x,1/2-z
1/2-x,1/2-y,1/2+z
1/2-y,1/2+x,1/2-z
1/2+y,1/2+x,1/2-z
1/2-y,1/2-x,1/2-z
1/2-x,1/2+y,1/2+z
1/2+x,1/2-y,1/2+z
loop_
_atom_site_type_symbol
_atom_site_label
_atom_site_fract_x
_atom_site_fract_y
_atom_site_fract_z
Si Si1 0.914993 0.280413 0.095336
Si Si2 0.713838 0.713838 0.500000
Si Si3 0.914381 0.797444 0.728349
Si Si4 0.310630 0.914887 0.591632
Si Si5 0.149829 0.416792 0.678354
Si Si6 0.583931 0.292628 0.763640
Si Si7 0.363046 0.218741 0.075966
O O1 0.867506 0.224697 0.038718
O O2 0.883686 0.363802 0.090024
O O3 0.909432 0.257967 0.186498
O O4 0.000000 0.278430 0.065165
O O5 0.774564 0.730044 0.568386
O O6 0.893094 0.730385 0.787316
O O7 0.865832 0.868069 0.750917
O O8 0.897642 0.776176 0.637502
O O9 0.000000 0.819235 0.737372
O O10 0.254873 0.888275 0.660896
O O11 0.269049 0.905144 0.507354
O O12 0.334865 0.000000 0.605171
O O13 0.150220 0.500000 0.645848
O O14 0.091015 0.408986 0.750000
O O15 0.124922 0.365612 0.605563
O O16 0.500000 0.319352 0.777888
#
# Coordination Sequence:
#
# PCOD8310817 Si02
#       7
#    16   8  16  16  16  16  16
#     4  10  21  37  57  81 109 141 179 222 267 320
#     4  10  20  34  56  81 106 139 178 218 264 320
#     4  10  19  33  54  78 105 135 173 222 269 317
#     4  10  21  36  55  80 108 139 177 221 270 322
#     4   9  19  33  50  75 104 136 171 208 257 318
#     4  10  21  37  55  75 103 140 179 218 263 316
#     4  10  19  32  53  78 105 137 175 216 261 315
#
# _framework density 19.022466000000001
#
# number of rings (size 3 to 8) (size 9 to 14) (size 15 to 20)
#    0.000    2.154    0.000    3.692    0.000    6.308 
#    0.000    0.769    0.000    3.923    0.000    2.154 
#    0.000    0.000    0.000    0.000    0.000    0.000 
#
# Total GULP energy -644798.336124 kJ/mol
# GULP energy per Si atom -12399.968002 kJ/mol
# Density = 1.897917 g / cm^3
# Si number density = 19.022466 Si / 1000 Ang^3
#
#
#
# Elastic Constant Matrix: (Units=GPa)
#
#
# Indices 1 2 3 4 5 6 
#
# 1 80.3157 33.7767 9.1838 0.0000 0.0000 0.0000
# 2 33.7767 80.3146 9.1847 0.0000 0.0000 0.0000
# 3 9.1838 9.1847 58.9687 0.0000 0.0000 0.0000
# 4 0.0000 0.0000 0.0000 22.4959 0.0000 0.0000
# 5 0.0000 0.0000 0.0000 0.0000 22.4960 0.0000
# 6 0.0000 0.0000 0.0000 0.0000 0.0000 27.4200
#
#
#
# Elastic Compliance Matrix: (Units=1/GPa)
#
#
# Indices 1 2 3 4 5 6 
#
# 1 0.015239 -0.006249 -0.001400 0.000000 0.000000 0.000000
# 2 -0.006249 0.015239 -0.001400 0.000000 0.000000 0.000000
# 3 -0.001400 -0.001400 0.017394 0.000000 0.000000 0.000000
# 4 0.000000 0.000000 0.000000 0.044453 0.000000 0.000000
# 5 0.000000 0.000000 0.000000 0.000000 0.044452 0.000000
# 6 0.000000 0.000000 0.000000 0.000000 0.000000 0.036470
#
#
# Mechanical properties :
#
#
# Convention : Reuss Voigt Hill
#
# Bulk Modulus (GPa) = 33.58632 35.98771 34.78702
# Shear Modulus (GPa) = 24.84229 25.64597 25.24413
#
# Velocity S-wave (km/s) = 3.61771 3.67576 3.64685
# Velocity P-wave (km/s) = 5.92831 6.08067 6.00497
#
# Compressibility (1/GPa) = 0.02977403
#
# Stress axis : x y z
#
# Youngs Moduli (GPa) = 65.62180 65.62067 57.49007
#
# Poissons Ratio (x) = 0.41004 0.08049
# Poissons Ratio (y) = 0.41005 0.08051
# Poissons Ratio (z) = 0.09187 0.09189
#
# Static dielectric constant tensor:
#      x y z
#    x 3.422950 0.000000 0.000000 
#    y 0.000000 3.422950 0.000000 
#    z 0.000000 0.000000 3.615840 
# 
# 
# High freq. dielectric constant tensor:
#      x y z
#    x 1.729700 0.000000 0.000000 
#    y 0.000000 1.729700 0.000000 
#    z 0.000000 0.000000 1.749630 
# 
# From -- ./inp_files/6726.got.cif
#   From: 2010.03.12/outbox.cif.g09.slc.cpg/sg119_4_cif.got.tgz:6726.got - 2010.04.14 02:25:26.
