data_PCOD8310234
_publ_section_title
;
Structure prediction by ZEFSAII (Michael W. Deem and Ramdas Pophale) SiO2 
 PCOD8310234
Probable space group: P -4 C 2
;
_chemical_formula_sum "Si O2"
_cell_formula_units_Z 40
_cell_length_a 11.563070
_cell_length_b 11.563070
_cell_length_c 13.718204
_cell_angle_alpha 90.000000
_cell_angle_beta 90.000000
_cell_angle_gamma 90.000000
_cell_volume 1834.186812
_symmetry_space_group_name_H-M "P -4 C 2"
_symmetry_group_IT_number 116
_symmetry_cell_setting 'tetragonal'
loop_
_space_group_symop_operation_xyz
x,y,z
y,-x,-z
-x,-y,z
-y,x,-z
y,x,1/2-z
-y,-x,1/2-z
-x,y,1/2+z
x,-y,1/2+z
loop_
_atom_site_type_symbol
_atom_site_label
_atom_site_fract_x
_atom_site_fract_y
_atom_site_fract_z
Si Si1 0.086663 0.169486 0.501860
Si Si2 0.151036 0.587870 0.562380
Si Si3 0.453765 0.873837 0.154765
Si Si4 0.773445 0.300363 0.852160
Si Si5 0.903175 0.643064 0.644439
O O1 0.115113 0.249550 0.408723
O O2 0.128467 0.231600 0.601280
O O3 0.949528 0.154592 0.505965
O O4 0.131260 0.612367 0.447861
O O5 0.267322 0.656473 0.589619
O O6 0.166997 0.451150 0.579586
O O7 0.041758 0.625765 0.629445
O O8 0.560983 0.783075 0.160054
O O9 0.364666 0.856462 0.244688
O O10 0.500000 0.000000 0.173368
O O11 0.765617 0.234384 0.750000
#
# Coordination Sequence:
#
# PCOD8310234 Si02
#       5
#     8   8   8   8   8
#     4  11  24  43  63  96 150 195 228 282 358 441
#     4  11  21  38  64  99 134 176 232 296 350 399
#     4  12  22  38  71 100 131 182 242 298 344 427
#     4  12  23  40  68 102 139 178 238 300 357 411
#     4  11  20  40  66  93 135 185 243 283 345 411
#
# _framework density 21.808029999999999
#
# number of rings (size 3 to 8) (size 9 to 14) (size 15 to 20)
#    0.000    0.600   10.000    0.000    0.000    0.000 
#    0.000    5.000    0.000    0.600    0.000    1.400 
#    0.000    0.000    0.000    0.000    0.000    0.000 
#
# Total GULP energy -495873.891355 kJ/mol
# GULP energy per Si atom -12396.847284 kJ/mol
# Density = 2.175839 g / cm^3
# Si number density = 21.808030 Si / 1000 Ang^3
#
#
#
# Elastic Constant Matrix: (Units=GPa)
#
#
# Indices 1 2 3 4 5 6 
#
# 1 68.1068 31.4413 28.1407 0.0000 0.0000 0.0000
# 2 31.4413 68.1069 28.1407 0.0000 0.0000 0.0000
# 3 28.1407 28.1407 173.2996 0.0000 0.0000 0.0000
# 4 0.0000 0.0000 0.0000 28.0070 0.0000 0.0000
# 5 0.0000 0.0000 0.0000 0.0000 28.0072 0.0000
# 6 0.0000 0.0000 0.0000 0.0000 0.0000 31.7250
#
#
#
# Elastic Compliance Matrix: (Units=1/GPa)
#
#
# Indices 1 2 3 4 5 6 
#
# 1 0.019167 -0.008106 -0.001796 0.000000 0.000000 0.000000
# 2 -0.008106 0.019167 -0.001796 0.000000 0.000000 0.000000
# 3 -0.001796 -0.001796 0.006354 0.000000 0.000000 0.000000
# 4 0.000000 0.000000 0.000000 0.035705 0.000000 0.000000
# 5 0.000000 0.000000 0.000000 0.000000 0.035705 0.000000
# 6 0.000000 0.000000 0.000000 0.000000 0.000000 0.031521
#
#
# Mechanical properties :
#
#
# Convention : Reuss Voigt Hill
#
# Bulk Modulus (GPa) = 46.96818 53.88431 50.42625
# Shear Modulus (GPa) = 28.07199 32.33387 30.20293
#
# Velocity S-wave (km/s) = 3.59169 3.85471 3.72552
# Velocity P-wave (km/s) = 6.22770 6.67636 6.45593
#
# Compressibility (1/GPa) = 0.02129101
#
# Stress axis : x y z
#
# Youngs Moduli (GPa) = 52.17248 52.17251 157.38979
#
# Poissons Ratio (x) = 0.42293 0.28268
# Poissons Ratio (y) = 0.42293 0.28268
# Poissons Ratio (z) = 0.09371 0.09371
#
# Static dielectric constant tensor:
#      x y z
#    x 3.893570 0.000000 0.000000 
#    y 0.000000 3.893580 0.000000 
#    z 0.000000 0.000000 4.378460 
# 
# 
# High freq. dielectric constant tensor:
#      x y z
#    x 1.837830 0.000000 0.000000 
#    y 0.000000 1.837830 0.000000 
#    z 0.000000 0.000000 1.873600 
# 
# From -- ./inp_files/2537.got.cif
#   From: 2010.03.12/outbox.cif.g09.slc.cpg/sg116_2_cif.got.tgz:2537.got - 2010.04.14 02:15:44.
