data_PCOD8310426
_publ_section_title
;
Structure prediction by ZEFSAII (Michael W. Deem and Ramdas Pophale) SiO2 
 PCOD8310426
Probable space group: P -4 N 2
;
_chemical_formula_sum "Si O2"
_cell_formula_units_Z 34
_cell_length_a 14.347995
_cell_length_b 14.347995
_cell_length_c 8.558573
_cell_angle_alpha 90.000000
_cell_angle_beta 90.000000
_cell_angle_gamma 90.000000
_cell_volume 1761.910293
_symmetry_space_group_name_H-M "P -4 N 2"
_symmetry_group_IT_number 118
_symmetry_cell_setting 'tetragonal'
loop_
_space_group_symop_operation_xyz
x,y,z
y,-x,-z
-x,-y,z
-y,x,-z
1/2+y,1/2+x,1/2-z
1/2-y,1/2-x,1/2-z
1/2-x,1/2+y,1/2+z
1/2+x,1/2-y,1/2+z
loop_
_atom_site_type_symbol
_atom_site_label
_atom_site_fract_x
_atom_site_fract_y
_atom_site_fract_z
Si Si1 0.500000 0.500000 0.000000
Si Si2 0.971879 0.675963 0.218654
Si Si3 0.111432 0.581542 0.997329
Si Si4 0.797405 0.297405 0.750000
Si Si5 0.000000 0.000000 0.000000
Si Si6 0.626463 0.589652 0.260595
Si Si7 0.000000 0.500000 0.750000
O O1 0.551636 0.420241 0.898587
O O2 0.870588 0.629413 0.250000
O O3 0.970221 0.785065 0.181596
O O4 0.015853 0.618142 0.075981
O O5 0.036271 0.675286 0.372358
O O6 0.159629 0.667901 0.912894
O O7 0.089986 0.503643 0.863511
O O8 0.690566 0.328235 0.762677
O O9 0.048854 0.919910 0.895591
#
# Coordination Sequence:
#
# PCOD8310426 Si02
#       7
#     2   8   8   4   2   8   2
#     4  10  24  42  64  82 116 166 196 238 304 362
#     4  11  19  36  59  83 115 153 190 234 288 359
#     4  10  20  33  55  84 115 149 183 231 301 344
#     4  11  22  35  58  89 116 145 194 252 278 339
#     4  10  24  42  64  82 116 166 196 238 304 362
#     4  11  22  41  61  85 115 154 204 243 290 348
#     4  10  16  30  48  76 116 144 176 214 284 362
#
# _framework density 19.297238
#
# number of rings (size 3 to 8) (size 9 to 14) (size 15 to 20)
#    0.000    1.412    3.529    3.529    0.000    0.000 
#    0.000    0.000    0.000    5.647    0.000    0.000 
#    0.000    0.000    0.000    0.000    0.000    0.000 
#
# Total GULP energy -421203.457680 kJ/mol
# GULP energy per Si atom -12388.336991 kJ/mol
# Density = 1.925332 g / cm^3
# Si number density = 19.297238 Si / 1000 Ang^3
#
#
#
# Elastic Constant Matrix: (Units=GPa)
#
#
# Indices 1 2 3 4 5 6 
#
# 1 96.9642 35.2057 37.7447 0.0000 0.0000 0.0000
# 2 35.2057 96.9631 37.7445 0.0000 0.0000 0.0000
# 3 37.7447 37.7445 106.7608 0.0000 0.0000 0.0000
# 4 0.0000 0.0000 0.0000 24.9630 0.0000 0.0000
# 5 0.0000 0.0000 0.0000 0.0000 24.9631 0.0000
# 6 0.0000 0.0000 0.0000 0.0000 0.0000 31.8427
#
#
#
# Elastic Compliance Matrix: (Units=1/GPa)
#
#
# Indices 1 2 3 4 5 6 
#
# 1 0.012836 -0.003356 -0.003352 0.000000 0.000000 0.000000
# 2 -0.003356 0.012836 -0.003352 0.000000 0.000000 0.000000
# 3 -0.003352 -0.003352 0.011737 0.000000 0.000000 0.000000
# 4 0.000000 0.000000 0.000000 0.040059 0.000000 0.000000
# 5 0.000000 0.000000 0.000000 0.000000 0.040059 0.000000
# 6 0.000000 0.000000 0.000000 0.000000 0.000000 0.031404
#
#
# Mechanical properties :
#
#
# Convention : Reuss Voigt Hill
#
# Bulk Modulus (GPa) = 57.83497 58.00865 57.92181
# Shear Modulus (GPa) = 28.60174 29.01997 28.81086
#
# Velocity S-wave (km/s) = 3.85407 3.88215 3.86813
# Velocity P-wave (km/s) = 7.05980 7.08665 7.07324
#
# Compressibility (1/GPa) = 0.01729058
#
# Stress axis : x y z
#
# Youngs Moduli (GPa) = 77.90428 77.90347 85.20276
#
# Poissons Ratio (x) = 0.26144 0.28558
# Poissons Ratio (y) = 0.26144 0.28558
# Poissons Ratio (z) = 0.26111 0.26111
#
# Static dielectric constant tensor:
#      x y z
#    x 3.460000 0.000000 0.000000 
#    y 0.000000 3.460000 0.000000 
#    z 0.000000 0.000000 3.663510 
# 
# 
# High freq. dielectric constant tensor:
#      x y z
#    x 1.744780 0.000000 0.000000 
#    y 0.000000 1.744780 0.000000 
#    z 0.000000 0.000000 1.763790 
# 
# From -- ./inp_files/1722.got.cif
#   From: 2010.03.12/outbox.cif.g09.slc.cpg/sg118_1_cif.got.tgz:1722.got - 2010.04.14 02:21:17.
