data_PCOD8310904
_publ_section_title
;
Structure prediction by ZEFSAII (Michael W. Deem and Ramdas Pophale) SiO2 
 PCOD8310904
Probable space group: I -4 M 2
;
_chemical_formula_sum "Si O2"
_cell_formula_units_Z 112
_cell_length_a 13.821694
_cell_length_b 13.821694
_cell_length_c 31.491725
_cell_angle_alpha 90.000000
_cell_angle_beta 90.000000
_cell_angle_gamma 90.000000
_cell_volume 6016.154739
_symmetry_space_group_name_H-M "I -4 M 2"
_symmetry_group_IT_number 119
_symmetry_cell_setting 'tetragonal'
loop_
_space_group_symop_operation_xyz
x,y,z
y,-x,-z
-x,-y,z
-y,x,-z
y,x,-z
-y,-x,-z
-x,y,z
x,-y,z
1/2+x,1/2+y,1/2+z
1/2+y,1/2-x,1/2-z
1/2-x,1/2-y,1/2+z
1/2-y,1/2+x,1/2-z
1/2+y,1/2+x,1/2-z
1/2-y,1/2-x,1/2-z
1/2-x,1/2+y,1/2+z
1/2+x,1/2-y,1/2+z
loop_
_atom_site_type_symbol
_atom_site_label
_atom_site_fract_x
_atom_site_fract_y
_atom_site_fract_z
Si Si1 0.292903 0.891408 0.124725
Si Si2 0.769740 0.616062 0.716913
Si Si3 0.223705 0.614900 0.285347
Si Si4 0.885136 0.608999 0.131163
Si Si5 0.612707 0.197443 0.543589
Si Si6 0.610224 0.885233 0.042022
Si Si7 0.607373 0.605417 0.578435
O O1 0.314478 0.850299 0.171337
O O2 0.342647 0.837532 0.084497
O O3 0.176795 0.887742 0.118996
O O4 0.333273 0.000000 0.123819
O O5 0.750798 0.500000 0.719185
O O6 0.851754 0.648247 0.750000
O O7 0.669506 0.674384 0.723894
O O8 0.241608 0.500000 0.283083
O O9 0.145250 0.645250 0.250000
O O10 0.179328 0.648065 0.330749
O O11 0.845076 0.500000 0.138102
O O12 0.842866 0.650261 0.086527
O O13 0.000000 0.607080 0.129633
O O14 0.500000 0.170892 0.542791
O O15 0.661077 0.156699 0.500552
O O16 0.630876 0.313011 0.543751
O O17 0.500000 0.855498 0.042115
O O18 0.627993 0.000000 0.041983
O O19 0.500000 0.620159 0.597240
O O20 0.619355 0.500000 0.555897
#
# Coordination Sequence:
#
# PCOD8310904 Si02
#       7
#    16  16  16  16  16  16  16
#     4   9  18  32  48  67  91 121 160 203 249 304
#     4  10  22  38  55  76 100 128 168 218 271 326
#     4  10  20  34  53  78 108 140 173 210 255 312
#     4   9  16  26  43  68  98 133 171 208 245 287
#     4   9  16  26  41  63  92 127 166 203 239 283
#     4   9  17  29  44  61  83 114 156 206 252 292
#     4   9  17  29  45  67  99 137 171 202 240 294
#
# _framework density 18.616543
#
# number of rings (size 3 to 8) (size 9 to 14) (size 15 to 20)
#    0.000    2.714    0.000    1.714    0.000    5.714 
#    0.000    5.000    0.000    6.000    0.000    0.000 
#    0.000    0.000    0.000    0.000    0.000   13.286 
#
# Total GULP energy -693836.152212 kJ/mol
# GULP energy per Si atom -12389.931289 kJ/mol
# Density = 1.857417 g / cm^3
# Si number density = 18.616543 Si / 1000 Ang^3
#
#
#
# Elastic Constant Matrix: (Units=GPa)
#
#
# Indices 1 2 3 4 5 6 
#
# 1 86.1023 24.7257 49.4342 0.0000 0.0000 0.0000
# 2 24.7257 86.1024 49.4348 0.0000 0.0000 0.0000
# 3 49.4342 49.4348 161.9677 0.0000 0.0000 0.0000
# 4 0.0000 0.0000 0.0000 17.6165 0.0000 0.0000
# 5 0.0000 0.0000 0.0000 0.0000 17.6165 0.0000
# 6 0.0000 0.0000 0.0000 0.0000 0.0000 11.2726
#
#
#
# Elastic Compliance Matrix: (Units=1/GPa)
#
#
# Indices 1 2 3 4 5 6 
#
# 1 0.014346 -0.001947 -0.003784 0.000000 0.000000 0.000000
# 2 -0.001947 0.014346 -0.003784 0.000000 0.000000 0.000000
# 3 -0.003784 -0.003784 0.008484 0.000000 0.000000 0.000000
# 4 0.000000 0.000000 0.000000 0.056765 0.000000 0.000000
# 5 0.000000 0.000000 0.000000 0.000000 0.056765 0.000000
# 6 0.000000 0.000000 0.000000 0.000000 0.000000 0.088711
#
#
# Mechanical properties :
#
#
# Convention : Reuss Voigt Hill
#
# Bulk Modulus (GPa) = 55.11233 64.59576 59.85405
# Shear Modulus (GPa) = 18.90388 23.33963 21.12175
#
# Velocity S-wave (km/s) = 3.19004 3.54461 3.37199
# Velocity P-wave (km/s) = 6.57546 7.17814 6.88340
#
# Compressibility (1/GPa) = 0.01814476
#
# Stress axis : x y z
#
# Youngs Moduli (GPa) = 69.70649 69.70622 117.86755
#
# Poissons Ratio (x) = 0.13571 0.44604
# Poissons Ratio (y) = 0.13572 0.44605
# Poissons Ratio (z) = 0.26379 0.26379
#
# Static dielectric constant tensor:
#      x y z
#    x 3.236700 0.000000 0.000000 
#    y 0.000000 3.236700 0.000000 
#    z 0.000000 0.000000 3.705560 
# 
# 
# High freq. dielectric constant tensor:
#      x y z
#    x 1.689380 0.000000 0.000000 
#    y 0.000000 1.689380 0.000000 
#    z 0.000000 0.000000 1.734800 
# 
# From -- ./inp_files/10461.got.cif
#   From: 2010.03.12/outbox.cif.g09.slc.cpg/sg119_6_cif.got.tgz:10461.got - 2010.04.14 02:25:26.
