data_PCOD8310883
_publ_section_title
;
Structure prediction by ZEFSAII (Michael W. Deem and Ramdas Pophale) SiO2 
 PCOD8310883
Probable space group: I -4 M 2
;
_chemical_formula_sum "Si O2"
_cell_formula_units_Z 112
_cell_length_a 14.637383
_cell_length_b 14.637383
_cell_length_c 25.552551
_cell_angle_alpha 90.000000
_cell_angle_beta 90.000000
_cell_angle_gamma 90.000000
_cell_volume 5474.710226
_symmetry_space_group_name_H-M "I -4 M 2"
_symmetry_group_IT_number 119
_symmetry_cell_setting 'tetragonal'
loop_
_space_group_symop_operation_xyz
x,y,z
y,-x,-z
-x,-y,z
-y,x,-z
y,x,-z
-y,-x,-z
-x,y,z
x,-y,z
1/2+x,1/2+y,1/2+z
1/2+y,1/2-x,1/2-z
1/2-x,1/2-y,1/2+z
1/2-y,1/2+x,1/2-z
1/2+y,1/2+x,1/2-z
1/2-y,1/2-x,1/2-z
1/2-x,1/2+y,1/2+z
1/2+x,1/2-y,1/2+z
loop_
_atom_site_type_symbol
_atom_site_label
_atom_site_fract_x
_atom_site_fract_y
_atom_site_fract_z
Si Si1 0.137372 0.400476 0.969781
Si Si2 0.394447 0.602926 0.835592
Si Si3 0.800697 0.899147 0.047162
Si Si4 0.899533 0.835796 0.554050
Si Si5 0.400695 0.106327 0.914458
Si Si6 0.213325 0.895517 0.866428
Si Si7 0.243778 0.894059 0.749586
O O1 0.086626 0.500000 0.960887
O O2 0.084817 0.309041 0.952586
O O3 0.228459 0.403313 0.935408
O O4 0.161846 0.391801 0.031472
O O5 0.500000 0.595053 0.822458
O O6 0.350790 0.500000 0.831891
O O7 0.380331 0.645376 0.894007
O O8 0.352543 0.673213 0.793280
O O9 0.830920 0.854892 0.101796
O O10 0.844600 0.000000 0.041572
O O11 0.834381 0.834381 0.000000
O O12 0.846842 0.846842 0.500000
O O13 0.000000 0.879174 0.547383
O O14 0.500000 0.127045 0.887841
O O15 0.319151 0.134443 0.875680
O O16 0.393368 0.000000 0.929906
O O17 0.192643 0.884593 0.805276
O O18 0.198543 0.000000 0.885187
O O19 0.337239 0.837239 0.750000
O O20 0.269472 0.000000 0.738859
#
# Coordination Sequence:
#
# PCOD8310883 Si02
#       7
#    16  16  16  16  16  16  16
#     4  10  21  35  54  83 117 155 193 234 289 354
#     4   9  19  37  59  82 111 150 194 240 296 357
#     4  12  24  38  59  87 122 161 201 248 297 349
#     4  10  20  32  52  84 118 150 185 230 285 350
#     4   9  17  32  54  79 111 152 191 230 283 343
#     4  10  22  39  57  84 118 154 201 251 296 349
#     4  10  23  40  61  86 115 155 200 249 300 353
#
# _framework density 20.457705000000001
#
# number of rings (size 3 to 8) (size 9 to 14) (size 15 to 20)
#    0.000    2.000    1.429    1.714    2.000    3.857 
#    0.000    5.714    0.000    0.000    0.000    0.000 
#    0.000    0.286    0.000    0.000    0.000    0.000 
#
# Total GULP energy -693946.268292 kJ/mol
# GULP energy per Si atom -12391.897648 kJ/mol
# Density = 2.041114 g / cm^3
# Si number density = 20.457705 Si / 1000 Ang^3
#
#
#
# Elastic Constant Matrix: (Units=GPa)
#
#
# Indices 1 2 3 4 5 6 
#
# 1 91.3824 37.4541 44.0920 0.0000 0.0000 0.0000
# 2 37.4541 91.3824 44.0920 0.0000 0.0000 0.0000
# 3 44.0920 44.0920 116.5786 0.0000 0.0000 0.0000
# 4 0.0000 0.0000 0.0000 27.3326 0.0000 0.0000
# 5 0.0000 0.0000 0.0000 0.0000 27.3326 0.0000
# 6 0.0000 0.0000 0.0000 0.0000 0.0000 17.4381
#
#
#
# Elastic Compliance Matrix: (Units=1/GPa)
#
#
# Indices 1 2 3 4 5 6 
#
# 1 0.014508 -0.004035 -0.003961 0.000000 0.000000 0.000000
# 2 -0.004035 0.014508 -0.003961 0.000000 0.000000 0.000000
# 3 -0.003961 -0.003961 0.011574 0.000000 0.000000 0.000000
# 4 0.000000 0.000000 0.000000 0.036586 0.000000 0.000000
# 5 0.000000 0.000000 0.000000 0.000000 0.036586 0.000000
# 6 0.000000 0.000000 0.000000 0.000000 0.000000 0.057346
#
#
# Mechanical properties :
#
#
# Convention : Reuss Voigt Hill
#
# Bulk Modulus (GPa) = 59.96675 61.17996 60.57335
# Shear Modulus (GPa) = 24.92749 26.00101 25.46425
#
# Velocity S-wave (km/s) = 3.49447 3.56893 3.53190
# Velocity P-wave (km/s) = 6.75707 6.85226 6.80483
#
# Compressibility (1/GPa) = 0.01667591
#
# Stress axis : x y z
#
# Youngs Moduli (GPa) = 68.92722 68.92722 86.39919
#
# Poissons Ratio (x) = 0.27813 0.34223
# Poissons Ratio (y) = 0.27813 0.34223
# Poissons Ratio (z) = 0.27302 0.27302
#
# Static dielectric constant tensor:
#      x y z
#    x 3.705590 0.000000 0.000000 
#    y 0.000000 3.705590 0.000000 
#    z 0.000000 0.000000 3.584280 
# 
# 
# High freq. dielectric constant tensor:
#      x y z
#    x 1.792170 0.000000 0.000000 
#    y 0.000000 1.792170 0.000000 
#    z 0.000000 0.000000 1.781140 
# 
# From -- ./inp_files/8830.got.cif
#   From: 2010.03.12/outbox.cif.g09.slc.cpg/sg119_5_cif.got.tgz:8830.got - 2010.04.14 02:25:26.
