data_PCOD8310806
_publ_section_title
;
Structure prediction by ZEFSAII (Michael W. Deem and Ramdas Pophale) SiO2 
 PCOD8310806
Probable space group: I -4 M 2
;
_chemical_formula_sum "Si O2"
_cell_formula_units_Z 112
_cell_length_a 17.630583
_cell_length_b 17.630583
_cell_length_c 21.408404
_cell_angle_alpha 90.000000
_cell_angle_beta 90.000000
_cell_angle_gamma 90.000000
_cell_volume 6654.533856
_symmetry_space_group_name_H-M "I -4 M 2"
_symmetry_group_IT_number 119
_symmetry_cell_setting 'tetragonal'
loop_
_space_group_symop_operation_xyz
x,y,z
y,-x,-z
-x,-y,z
-y,x,-z
y,x,-z
-y,-x,-z
-x,y,z
x,-y,z
1/2+x,1/2+y,1/2+z
1/2+y,1/2-x,1/2-z
1/2-x,1/2-y,1/2+z
1/2-y,1/2+x,1/2-z
1/2+y,1/2+x,1/2-z
1/2-y,1/2-x,1/2-z
1/2-x,1/2+y,1/2+z
1/2+x,1/2-y,1/2+z
loop_
_atom_site_type_symbol
_atom_site_label
_atom_site_fract_x
_atom_site_fract_y
_atom_site_fract_z
Si Si1 0.210526 0.212069 0.309896
Si Si2 0.082631 0.588326 0.554467
Si Si3 0.735728 0.084877 0.112913
Si Si4 0.208051 0.229356 0.069001
Si Si5 0.085464 0.289956 0.745804
Si Si6 0.674625 0.912921 0.696562
Si Si7 0.647068 0.088604 0.919718
O O1 0.253585 0.246416 0.250000
O O2 0.242955 0.235418 0.376986
O O3 0.227019 0.122315 0.301428
O O4 0.123635 0.240795 0.307438
O O5 0.075217 0.500000 0.567029
O O6 0.151024 0.618704 0.597905
O O7 0.101651 0.604364 0.482595
O O8 0.000000 0.626036 0.570008
O O9 0.798625 0.138201 0.079419
O O10 0.748996 0.084809 0.186393
O O11 0.744105 0.000000 0.084624
O O12 0.126644 0.269527 0.076538
O O13 0.243559 0.243559 0.000000
O O14 0.130637 0.369364 0.750000
O O15 0.000000 0.307505 0.723232
O O16 0.626650 0.873351 0.750000
O O17 0.628041 0.903309 0.633084
O O18 0.686273 0.000000 0.713136
O O19 0.658271 0.000000 0.905342
#
# Coordination Sequence:
#
# PCOD8310806 Si02
#       7
#    16  16  16  16  16  16  16
#     4   9  18  35  51  69 101 135 173 208 253 305
#     4   9  17  29  44  66 100 131 155 195 249 302
#     4  10  19  32  49  72  98 132 174 211 252 302
#     4  11  19  31  52  72  96 135 178 214 248 309
#     4  10  19  33  53  74 103 138 172 213 259 303
#     4  10  20  32  49  72  98 129 163 206 252 306
#     4  10  20  31  47  71  98 132 168 201 255 315
#
# _framework density 16.830628999999998
#
# number of rings (size 3 to 8) (size 9 to 14) (size 15 to 20)
#    0.000    2.143    4.286    0.857    0.000    2.286 
#    0.000    1.429    0.000    0.857    0.000    3.000 
#    0.000    0.000    0.000    2.571    0.000    0.000 
#
# Total GULP energy -693811.539449 kJ/mol
# GULP energy per Si atom -12389.491776 kJ/mol
# Density = 1.679232 g / cm^3
# Si number density = 16.830629 Si / 1000 Ang^3
#
#
#
# Elastic Constant Matrix: (Units=GPa)
#
#
# Indices 1 2 3 4 5 6 
#
# 1 43.3116 102.9396 15.4183 0.0000 0.0000 0.0000
# 2 102.9396 43.2986 15.3994 0.0000 0.0000 0.0000
# 3 15.4183 15.3994 73.7330 0.0000 0.0000 0.0000
# 4 0.0000 0.0000 0.0000 23.0797 0.0000 0.0000
# 5 0.0000 0.0000 0.0000 0.0000 23.0799 0.0000
# 6 0.0000 0.0000 0.0000 0.0000 0.0000 19.6973
#
#
#
# Elastic Compliance Matrix: (Units=1/GPa)
#
#
# Indices 1 2 3 4 5 6 
#
# 1 -0.004808 0.011961 -0.001493 0.000000 0.000000 0.000000
# 2 0.011961 -0.004808 -0.001497 0.000000 0.000000 0.000000
# 3 -0.001493 -0.001497 0.014187 0.000000 0.000000 0.000000
# 4 0.000000 0.000000 0.000000 0.043328 0.000000 0.000000
# 5 0.000000 0.000000 0.000000 0.000000 0.043328 0.000000
# 6 0.000000 0.000000 0.000000 0.000000 0.000000 0.050768
#
#
# Mechanical properties :
#
#
# Convention : Reuss Voigt Hill
#
# Bulk Modulus (GPa) = 44.41745 47.53973 45.97859
# Shear Modulus (GPa) = 38.00616 14.94378 26.47497
#
# Velocity S-wave (km/s) = 4.75716 2.98298 3.97044
# Velocity P-wave (km/s) = 7.52477 6.33810 6.95679
#
# Compressibility (1/GPa) = 0.02251368
#
# Stress axis : x y z
#
# Youngs Moduli (GPa) = -208.00085 -207.97417 70.48598
#
# Poissons Ratio (x) = 2.48754 0.10522
# Poissons Ratio (y) = 2.48786 0.10551
# Poissons Ratio (z) = -0.31049 -0.31132
#
# Static dielectric constant tensor:
#      x y z
#    x 3.234910 0.000000 0.000000 
#    y 0.000000 3.234920 0.000000 
#    z 0.000000 0.000000 3.437960 
# 
# 
# High freq. dielectric constant tensor:
#      x y z
#    x 1.625940 0.000000 0.000000 
#    y 0.000000 1.625940 0.000000 
#    z 0.000000 0.000000 1.665860 
# 
# From -- ./inp_files/7997.got.cif
#   From: 2010.03.12/outbox.cif.g09.slc.cpg/sg119_4_cif.got.tgz:7997.got - 2010.04.14 02:25:26.
