data_PCOD8310724
_publ_section_title
;
Structure prediction by ZEFSAII (Michael W. Deem and Ramdas Pophale) SiO2 
 PCOD8310724
Probable space group: I -4 M 2
;
_chemical_formula_sum "Si O2"
_cell_formula_units_Z 96
_cell_length_a 18.981001
_cell_length_b 18.981001
_cell_length_c 16.198398
_cell_angle_alpha 90.000000
_cell_angle_beta 90.000000
_cell_angle_gamma 90.000000
_cell_volume 5835.932897
_symmetry_space_group_name_H-M "I -4 M 2"
_symmetry_group_IT_number 119
_symmetry_cell_setting 'tetragonal'
loop_
_space_group_symop_operation_xyz
x,y,z
y,-x,-z
-x,-y,z
-y,x,-z
y,x,-z
-y,-x,-z
-x,y,z
x,-y,z
1/2+x,1/2+y,1/2+z
1/2+y,1/2-x,1/2-z
1/2-x,1/2-y,1/2+z
1/2-y,1/2+x,1/2-z
1/2+y,1/2+x,1/2-z
1/2-y,1/2-x,1/2-z
1/2-x,1/2+y,1/2+z
1/2+x,1/2-y,1/2+z
loop_
_atom_site_type_symbol
_atom_site_label
_atom_site_fract_x
_atom_site_fract_y
_atom_site_fract_z
Si Si1 0.582121 0.917880 0.750000
Si Si2 0.654537 0.081445 0.319542
Si Si3 0.418575 0.190399 0.617382
Si Si4 0.578855 0.421146 0.500000
Si Si5 0.685788 0.082857 0.067071
Si Si6 0.418770 0.713167 0.285511
Si Si7 0.919635 0.843120 0.167367
O O1 0.500000 0.902802 0.766626
O O2 0.610709 0.875830 0.669643
O O3 0.595428 0.095428 0.250000
O O4 0.632716 0.123069 0.401101
O O5 0.730430 0.106792 0.283234
O O6 0.656518 0.000000 0.342288
O O7 0.500000 0.177831 0.602504
O O8 0.387317 0.198020 0.525220
O O9 0.405117 0.260120 0.670923
O O10 0.500000 0.411050 0.463948
O O11 0.632785 0.407842 0.426569
O O12 0.755459 0.094904 0.122657
O O13 0.664688 0.000000 0.071460
O O14 0.500000 0.696533 0.272096
O O15 0.378648 0.638776 0.273833
O O16 0.000000 0.861356 0.196062
#
# Coordination Sequence:
#
# PCOD8310724 Si02
#       7
#     8  16  16   8  16  16  16
#     4   9  18  34  50  62  84 114 146 190 239 274
#     4   9  17  28  42  63  92 124 153 184 220 261
#     4   9  18  31  46  66  87 112 149 189 229 269
#     4   9  16  24  38  64  92 118 148 180 220 266
#     4   9  17  29  45  65  92 122 152 186 222 268
#     4   9  17  29  43  62  93 126 151 181 222 266
#     4  10  18  28  44  63  87 119 153 189 223 266
#
# _framework density 16.449812999999999
#
# number of rings (size 3 to 8) (size 9 to 14) (size 15 to 20)
#    0.000    2.833    0.000    3.000    0.000    5.500 
#    4.500    1.667    0.000    0.000    0.000    0.000 
#    0.000    0.000    0.000    1.500    0.000   35.333 
#
# Total GULP energy -594886.941104 kJ/mol
# GULP energy per Si atom -12393.477940 kJ/mol
# Density = 1.641237 g / cm^3
# Si number density = 16.449813 Si / 1000 Ang^3
#
#
#
# Elastic Constant Matrix: (Units=GPa)
#
#
# Indices 1 2 3 4 5 6 
#
# 1 78.7585 45.3174 28.6134 0.0000 0.0000 0.0000
# 2 45.3174 78.7601 28.6131 0.0000 0.0000 0.0000
# 3 28.6134 28.6131 50.9720 0.0000 0.0000 0.0000
# 4 0.0000 0.0000 0.0000 17.3872 0.0000 0.0000
# 5 0.0000 0.0000 0.0000 0.0000 17.3875 0.0000
# 6 0.0000 0.0000 0.0000 0.0000 0.0000 23.2167
#
#
#
# Elastic Compliance Matrix: (Units=1/GPa)
#
#
# Indices 1 2 3 4 5 6 
#
# 1 0.020389 -0.009514 -0.006105 0.000000 0.000000 0.000000
# 2 -0.009514 0.020389 -0.006105 0.000000 0.000000 0.000000
# 3 -0.006105 -0.006105 0.026472 0.000000 0.000000 0.000000
# 4 0.000000 0.000000 0.000000 0.057514 0.000000 0.000000
# 5 0.000000 0.000000 0.000000 0.000000 0.057513 0.000000
# 6 0.000000 0.000000 0.000000 0.000000 0.000000 0.043072
#
#
# Mechanical properties :
#
#
# Convention : Reuss Voigt Hill
#
# Bulk Modulus (GPa) = 42.01037 45.95313 43.98175
# Shear Modulus (GPa) = 18.06814 18.66139 18.36477
#
# Velocity S-wave (km/s) = 3.31778 3.37180 3.34490
# Velocity P-wave (km/s) = 6.34593 6.56923 6.45854
#
# Compressibility (1/GPa) = 0.02380365
#
# Stress axis : x y z
#
# Youngs Moduli (GPa) = 49.04556 49.04705 37.77506
#
# Poissons Ratio (x) = 0.46662 0.23062
# Poissons Ratio (y) = 0.46661 0.23060
# Poissons Ratio (z) = 0.29943 0.29941
#
# Static dielectric constant tensor:
#      x y z
#    x 3.113540 0.000000 0.000000 
#    y 0.000000 3.113520 0.000000 
#    z 0.000000 0.000000 3.010540 
# 
# 
# High freq. dielectric constant tensor:
#      x y z
#    x 1.625370 0.000000 0.000000 
#    y 0.000000 1.625370 0.000000 
#    z 0.000000 0.000000 1.597070 
# 
# From -- ./inp_files/6678.got.cif
#   From: 2010.03.12/outbox.cif.g09.slc.cpg/sg119_4_cif.got.tgz:6678.got - 2010.04.14 02:25:26.
