data_PCOD8310006
_publ_section_title
;
Structure prediction by ZEFSAII (Michael W. Deem and Ramdas Pophale) SiO2 
 PCOD8310006
Probable space group: P -4 M 2
;
_chemical_formula_sum "Si O2"
_cell_formula_units_Z 44
_cell_length_a 9.350307
_cell_length_b 9.350307
_cell_length_c 28.066111
_cell_angle_alpha 90.000000
_cell_angle_beta 90.000000
_cell_angle_gamma 90.000000
_cell_volume 2453.770716
_symmetry_space_group_name_H-M "P -4 M 2"
_symmetry_group_IT_number 115
_symmetry_cell_setting 'tetragonal'
loop_
_space_group_symop_operation_xyz
x,y,z
y,-x,-z
-x,-y,z
-y,x,-z
y,x,-z
-y,-x,-z
-x,y,z
x,-y,z
loop_
_atom_site_type_symbol
_atom_site_label
_atom_site_fract_x
_atom_site_fract_y
_atom_site_fract_z
Si Si1 0.667628 0.841060 0.962558
Si Si2 0.332176 0.167633 0.224782
Si Si3 0.342006 0.169789 0.588486
Si Si4 0.166247 0.166247 0.500000
Si Si5 0.165542 0.331735 0.305081
Si Si6 0.833017 0.334864 0.145651
O O1 0.500000 0.839919 0.970660
O O2 0.702976 0.793377 0.908740
O O3 0.728436 0.000000 0.971514
O O4 0.734309 0.734309 0.000000
O O5 0.500000 0.199524 0.223891
O O6 0.265279 0.240919 0.270938
O O7 0.262533 0.232382 0.177566
O O8 0.299011 0.000000 0.226477
O O9 0.500000 0.232581 0.579409
O O10 0.238935 0.231271 0.547441
O O11 0.288818 0.212773 0.641238
O O12 0.346985 0.000000 0.586030
O O13 0.000000 0.199139 0.505282
O O14 0.189268 0.500000 0.296314
O O15 0.000000 0.292527 0.295641
O O16 0.797160 0.500000 0.157116
O O17 0.000000 0.306250 0.155655
#
# Coordination Sequence:
#
# PCOD8310006 Si02
#       6
#     8   8   8   4   8   8
#     4   9  19  35  54  78 107 136 168 208 250 293
#     4  11  24  37  49  73 107 135 162 203 255 305
#     4   8  15  29  48  70  96 125 158 197 241 288
#     4   9  16  26  44  71  98 124 158 197 234 278
#     4   9  18  34  56  77  96 126 170 212 248 294
#     4   9  19  37  58  77  99 132 174 212 246 292
#
# _framework density 17.931585999999999
#
# number of rings (size 3 to 8) (size 9 to 14) (size 15 to 20)
#    0.000    2.818    0.000    3.273    0.000    6.909 
#    0.000    8.182    0.000    3.545    0.000    0.000 
#    0.000    0.000    0.000    0.000    0.000    0.000 
#
# Total GULP energy -545487.955650 kJ/mol
# GULP energy per Si atom -12397.453537 kJ/mol
# Density = 1.789077 g / cm^3
# Si number density = 17.931586 Si / 1000 Ang^3
#
#
#
# Elastic Constant Matrix: (Units=GPa)
#
#
# Indices 1 2 3 4 5 6 
#
# 1 76.5590 55.3246 74.0910 0.0000 0.0000 0.0000
# 2 55.3246 76.5590 74.0910 0.0000 0.0000 0.0000
# 3 74.0910 74.0910 163.4509 0.0000 0.0000 0.0000
# 4 0.0000 0.0000 0.0000 70.2481 0.0000 0.0000
# 5 0.0000 0.0000 0.0000 0.0000 70.2481 0.0000
# 6 0.0000 0.0000 0.0000 0.0000 0.0000 27.6217
#
#
#
# Elastic Compliance Matrix: (Units=1/GPa)
#
#
# Indices 1 2 3 4 5 6 
#
# 1 0.031273 -0.015820 -0.007005 0.000000 0.000000 0.000000
# 2 -0.015820 0.031273 -0.007005 0.000000 0.000000 0.000000
# 3 -0.007005 -0.007005 0.012468 0.000000 0.000000 0.000000
# 4 0.000000 0.000000 0.000000 0.014235 0.000000 0.000000
# 5 0.000000 0.000000 0.000000 0.000000 0.014235 0.000000
# 6 0.000000 0.000000 0.000000 0.000000 0.000000 0.036203
#
#
# Mechanical properties :
#
#
# Convention : Reuss Voigt Hill
#
# Bulk Modulus (GPa) = 65.12410 80.39801 72.76105
# Shear Modulus (GPa) = 24.45401 41.16107 32.80754
#
# Velocity S-wave (km/s) = 3.69689 4.79628 4.28202
# Velocity P-wave (km/s) = 7.39051 8.69516 8.06924
#
# Compressibility (1/GPa) = 0.01535530
#
# Stress axis : x y z
#
# Youngs Moduli (GPa) = 31.97649 31.97649 80.20375
#
# Poissons Ratio (x) = 0.50588 0.56179
# Poissons Ratio (y) = 0.50588 0.56179
# Poissons Ratio (z) = 0.22398 0.22398
#
# Static dielectric constant tensor:
#      x y z
#    x 3.060130 0.000000 0.000000 
#    y 0.000000 3.060130 0.000000 
#    z 0.000000 0.000000 3.582510 
# 
# 
# High freq. dielectric constant tensor:
#      x y z
#    x 1.679460 0.000000 0.000000 
#    y 0.000000 1.679460 0.000000 
#    z 0.000000 0.000000 1.711150 
# 
# From -- ./inp_files/5769.got.cif
#   From: 2010.03.12/outbox.cif.g09.slc.cpg/sg115_3_cif.got.tgz:5769.got - 2010.04.14 02:11:21.
