data_PCOD8310512
_publ_section_title
;
Structure prediction by ZEFSAII (Michael W. Deem and Ramdas Pophale) SiO2 
 PCOD8310512
Probable space group: P -4 N 2
;
_chemical_formula_sum "Si O2"
_cell_formula_units_Z 64
_cell_length_a 12.402702
_cell_length_b 12.402702
_cell_length_c 22.670841
_cell_angle_alpha 90.000000
_cell_angle_beta 90.000000
_cell_angle_gamma 90.000000
_cell_volume 3487.387842
_symmetry_space_group_name_H-M "P -4 N 2"
_symmetry_group_IT_number 118
_symmetry_cell_setting 'tetragonal'
loop_
_space_group_symop_operation_xyz
x,y,z
y,-x,-z
-x,-y,z
-y,x,-z
1/2+y,1/2+x,1/2-z
1/2-y,1/2-x,1/2-z
1/2-x,1/2+y,1/2+z
1/2+x,1/2-y,1/2+z
loop_
_atom_site_type_symbol
_atom_site_label
_atom_site_fract_x
_atom_site_fract_y
_atom_site_fract_z
Si Si1 0.773994 0.094240 0.982327
Si Si2 0.020969 0.124107 0.579674
Si Si3 0.249483 0.911015 0.176889
Si Si4 0.437479 0.099465 0.483701
Si Si5 0.212347 0.168100 0.491744
Si Si6 0.563450 0.606810 0.585260
Si Si7 0.751513 0.058228 0.309521
Si Si8 0.918531 0.411838 0.849240
O O1 0.800185 0.028988 0.921465
O O2 0.723584 0.210534 0.966310
O O3 0.882030 0.105926 0.020777
O O4 0.693496 0.024783 0.022311
O O5 0.911334 0.184890 0.562007
O O6 0.121198 0.165244 0.541064
O O7 0.051400 0.145424 0.647582
O O8 0.000000 0.000000 0.568005
O O9 0.151008 0.871131 0.136118
O O10 0.207394 0.915555 0.244066
O O11 0.346372 0.826758 0.167639
O O12 0.292420 0.032089 0.161401
O O13 0.329048 0.132737 0.519424
O O14 0.397792 0.068255 0.418370
O O15 0.500000 0.000000 0.514780
O O16 0.500000 0.500000 0.602136
O O17 0.691058 0.941239 0.313689
O O18 0.000000 0.500000 0.823245
#
# Coordination Sequence:
#
# PCOD8310512 Si02
#       8
#     8   8   8   8   8   8   8   8
#     4  12  22  36  53  83 123 154 188 237 294 362
#     4  12  24  40  61  85 117 159 193 245 308 357
#     4  10  21  36  56  83 115 151 194 250 291 355
#     4  11  21  32  57  87 117 152 195 240 291 353
#     4  12  22  39  58  86 121 155 197 246 294 362
#     4  12  21  35  52  80 114 153 185 222 297 355
#     4  10  21  37  57  81 113 151 201 243 298 347
#     4   9  17  30  53  82 109 143 183 237 288 342
#
# _framework density 18.351842999999999
#
# number of rings (size 3 to 8) (size 9 to 14) (size 15 to 20)
#    0.000    1.000    6.250    1.875    1.750    2.000 
#    0.000    0.000    0.000    0.000    0.000    0.000 
#    0.000    3.000    0.000    0.000    0.000    0.000 
#
# Total GULP energy -793201.442627 kJ/mol
# GULP energy per Si atom -12393.772541 kJ/mol
# Density = 1.831007 g / cm^3
# Si number density = 18.351843 Si / 1000 Ang^3
#
#
#
# Elastic Constant Matrix: (Units=GPa)
#
#
# Indices 1 2 3 4 5 6 
#
# 1 111.0347 43.6560 34.9620 0.0000 0.0000 0.0000
# 2 43.6560 111.0347 34.9620 0.0000 0.0000 0.0000
# 3 34.9620 34.9620 80.1511 0.0000 0.0000 0.0000
# 4 0.0000 0.0000 0.0000 21.8086 0.0000 0.0000
# 5 0.0000 0.0000 0.0000 0.0000 21.8086 0.0000
# 6 0.0000 0.0000 0.0000 0.0000 0.0000 32.6926
#
#
#
# Elastic Compliance Matrix: (Units=1/GPa)
#
#
# Indices 1 2 3 4 5 6 
#
# 1 0.011447 -0.003395 -0.003512 0.000000 0.000000 0.000000
# 2 -0.003395 0.011447 -0.003512 0.000000 0.000000 0.000000
# 3 -0.003512 -0.003512 0.015541 0.000000 0.000000 0.000000
# 4 0.000000 0.000000 0.000000 0.045853 0.000000 0.000000
# 5 0.000000 0.000000 0.000000 0.000000 0.045853 0.000000
# 6 0.000000 0.000000 0.000000 0.000000 0.000000 0.030588
#
#
# Mechanical properties :
#
#
# Convention : Reuss Voigt Hill
#
# Bulk Modulus (GPa) = 56.83265 58.82007 57.82636
# Shear Modulus (GPa) = 26.67619 27.83800 27.25709
#
# Velocity S-wave (km/s) = 3.81674 3.89897 3.85808
# Velocity P-wave (km/s) = 7.10345 7.23811 7.17109
#
# Compressibility (1/GPa) = 0.01759552
#
# Stress axis : x y z
#
# Youngs Moduli (GPa) = 87.36032 87.36032 64.34733
#
# Poissons Ratio (x) = 0.29656 0.22601
# Poissons Ratio (y) = 0.29656 0.22601
# Poissons Ratio (z) = 0.30684 0.30684
#
# Static dielectric constant tensor:
#      x y z
#    x 3.522260 0.000000 0.000000 
#    y 0.000000 3.522260 0.000000 
#    z 0.000000 0.000000 3.079210 
# 
# 
# High freq. dielectric constant tensor:
#      x y z
#    x 1.711320 0.000000 0.000000 
#    y 0.000000 1.711320 0.000000 
#    z 0.000000 0.000000 1.674350 
# 
# From -- ./inp_files/6267.got.cif
#   From: 2010.03.12/outbox.cif.g09.slc.cpg/sg118_4_cif.got.tgz:6267.got - 2010.04.14 02:21:17.
