data_PCOD8310384
_publ_section_title
;
Structure prediction by ZEFSAII (Michael W. Deem and Ramdas Pophale) SiO2 
 PCOD8310384
Probable space group: P -4 B 2
;
_chemical_formula_sum "Si O2"
_cell_formula_units_Z 56
_cell_length_a 13.616395
_cell_length_b 13.616395
_cell_length_c 13.298151
_cell_angle_alpha 90.000000
_cell_angle_beta 90.000000
_cell_angle_gamma 90.000000
_cell_volume 2465.559814
_symmetry_space_group_name_H-M "P -4 B 2"
_symmetry_group_IT_number 117
_symmetry_cell_setting 'tetragonal'
loop_
_space_group_symop_operation_xyz
x,y,z
y,-x,-z
-x,-y,z
-y,x,-z
1/2+y,1/2+x,-z
1/2-y,1/2-x,-z
1/2-x,1/2+y,z
1/2+x,1/2-y,z
loop_
_atom_site_type_symbol
_atom_site_label
_atom_site_fract_x
_atom_site_fract_y
_atom_site_fract_z
Si Si1 0.215780 0.389730 0.809073
Si Si2 0.643123 0.754908 0.697978
Si Si3 0.500692 0.118375 0.831906
Si Si4 0.514145 0.257344 0.995822
Si Si5 0.085914 0.078849 0.866559
Si Si6 0.848413 0.963058 0.488742
Si Si7 0.775345 0.930712 0.692183
O O1 0.309376 0.332051 0.764041
O O2 0.108597 0.342839 0.796039
O O3 0.234355 0.396520 0.928717
O O4 0.208432 0.499135 0.761424
O O5 0.574414 0.830015 0.757110
O O6 0.585356 0.707880 0.604555
O O7 0.733649 0.823115 0.666238
O O8 0.500000 0.000000 0.829417
O O9 0.475081 0.155596 0.946153
O O10 0.436292 0.321408 0.058710
O O11 0.545321 0.315410 0.895183
O O12 0.120052 0.079390 0.750530
O O13 0.000000 0.000000 0.883927
O O14 0.779135 0.983343 0.584023
O O15 0.931411 0.892658 0.538607
#
# Coordination Sequence:
#
# PCOD8310384 Si02
#       7
#     8   8   8   8   8   8   8
#     4  11  25  47  69 105 149 194 256 292 369 458
#     4  12  26  50  78 101 152 195 243 317 382 449
#     4  12  27  48  73 107 147 200 250 308 376 450
#     4  11  22  40  68 104 149 195 244 300 360 442
#     4  11  22  40  71 112 153 189 251 311 374 444
#     4  11  26  45  76 112 141 187 251 312 385 443
#     4  11  25  45  70 106 145 190 239 308 366 457
#
# _framework density 22.712893999999999
#
# number of rings (size 3 to 8) (size 9 to 14) (size 15 to 20)
#    0.000    0.714    4.286    2.571    8.000    1.143 
#    0.000    2.143    0.000    0.000    0.000    0.000 
#    0.000    0.000    0.000    0.000    0.000    0.000 
#
# Total GULP energy -693857.968689 kJ/mol
# GULP energy per Si atom -12390.320869 kJ/mol
# Density = 2.266120 g / cm^3
# Si number density = 22.712894 Si / 1000 Ang^3
#
#
#
# Elastic Constant Matrix: (Units=GPa)
#
#
# Indices 1 2 3 4 5 6 
#
# 1 97.8476 35.5885 41.5703 0.0000 0.0000 0.0000
# 2 35.5885 97.8476 41.5703 0.0000 0.0000 0.0000
# 3 41.5703 41.5703 122.3165 0.0000 0.0000 0.0000
# 4 0.0000 0.0000 0.0000 32.5258 0.0000 0.0000
# 5 0.0000 0.0000 0.0000 0.0000 32.5258 0.0000
# 6 0.0000 0.0000 0.0000 0.0000 0.0000 32.7641
#
#
#
# Elastic Compliance Matrix: (Units=1/GPa)
#
#
# Indices 1 2 3 4 5 6 
#
# 1 0.012785 -0.003277 -0.003231 0.000000 0.000000 0.000000
# 2 -0.003277 0.012785 -0.003231 0.000000 0.000000 0.000000
# 3 -0.003231 -0.003231 0.010372 0.000000 0.000000 0.000000
# 4 0.000000 0.000000 0.000000 0.030745 0.000000 0.000000
# 5 0.000000 0.000000 0.000000 0.000000 0.030745 0.000000
# 6 0.000000 0.000000 0.000000 0.000000 0.000000 0.030521
#
#
# Mechanical properties :
#
#
# Convention : Reuss Voigt Hill
#
# Bulk Modulus (GPa) = 60.74594 61.71887 61.23241
# Shear Modulus (GPa) = 32.69711 32.84864 32.77287
#
# Velocity S-wave (km/s) = 3.79830 3.80709 3.80270
# Velocity P-wave (km/s) = 6.78523 6.82332 6.80430
#
# Compressibility (1/GPa) = 0.01646200
#
# Stress axis : x y z
#
# Youngs Moduli (GPa) = 78.21841 78.21841 96.41506
#
# Poissons Ratio (x) = 0.25634 0.31154
# Poissons Ratio (y) = 0.25634 0.31154
# Poissons Ratio (z) = 0.25274 0.25274
#
# Static dielectric constant tensor:
#      x y z
#    x 4.248530 0.000000 0.000000 
#    y 0.000000 4.248530 0.000000 
#    z 0.000000 0.000000 3.938120 
# 
# 
# High freq. dielectric constant tensor:
#      x y z
#    x 1.899370 0.000000 0.000000 
#    y 0.000000 1.899370 0.000000 
#    z 0.000000 0.000000 1.894900 
# 
# From -- ./inp_files/2862.got.cif
#   From: 2010.03.12/outbox.cif.g09.slc.cpg/sg117_2_cif.got.tgz:2862.got - 2010.04.14 02:19:01.
