data_PCOD8310326
_publ_section_title
;
Structure prediction by ZEFSAII (Michael W. Deem and Ramdas Pophale) SiO2 
 PCOD8310326
Probable space group: P -4 B 2
;
_chemical_formula_sum "Si O2"
_cell_formula_units_Z 38
_cell_length_a 19.645631
_cell_length_b 19.645631
_cell_length_c 4.869105
_cell_angle_alpha 90.000000
_cell_angle_beta 90.000000
_cell_angle_gamma 90.000000
_cell_volume 1879.235055
_symmetry_space_group_name_H-M "P -4 B 2"
_symmetry_group_IT_number 117
_symmetry_cell_setting 'tetragonal'
loop_
_space_group_symop_operation_xyz
x,y,z
y,-x,-z
-x,-y,z
-y,x,-z
1/2+y,1/2+x,-z
1/2-y,1/2-x,-z
1/2-x,1/2+y,z
1/2+x,1/2-y,z
loop_
_atom_site_type_symbol
_atom_site_label
_atom_site_fract_x
_atom_site_fract_y
_atom_site_fract_z
Si Si1 0.564860 0.064860 0.000000
Si Si2 0.000000 0.500000 0.500000
Si Si3 0.037970 0.199492 0.500012
Si Si4 0.017556 0.288845 0.994407
Si Si5 0.132572 0.743691 0.050898
Si Si6 0.831910 0.887628 0.442891
O O1 0.641777 0.052928 0.901977
O O2 0.558749 0.012364 0.266085
O O3 0.044381 0.265246 0.697560
O O4 0.099274 0.147383 0.542127
O O5 0.968963 0.157496 0.558193
O O6 0.038485 0.227474 0.192845
O O7 0.936011 0.299097 0.989844
O O8 0.136925 0.810552 0.859587
O O9 0.196923 0.696923 0.000000
O O10 0.133099 0.768975 0.362852
#
# Coordination Sequence:
#
# PCOD8310326 Si02
#       6
#     4   2   8   8   8   8
#     4  11  22  42  54  92 114 162 194 250 282 345
#     4  10  24  34  60  82 112 142 216 238 268 350
#     4  10  21  40  60  87 116 157 186 253 287 358
#     4  10  22  39  60  82 124 152 195 242 299 326
#     4  10  21  38  57  86 112 157 192 237 282 347
#     4  10  21  39  61  85 119 145 199 236 299 339
#
# _framework density 20.220991999999999
#
# number of rings (size 3 to 8) (size 9 to 14) (size 15 to 20)
#    0.000    1.895    0.000    3.158    2.947    0.421 
#   11.368    0.000    0.000    7.579    0.000    0.000 
#    0.000    0.000    0.000    0.000    0.000    0.000 
#
# Total GULP energy -470890.564442 kJ/mol
# GULP energy per Si atom -12391.856959 kJ/mol
# Density = 2.017497 g / cm^3
# Si number density = 20.220992 Si / 1000 Ang^3
#
#
#
# Elastic Constant Matrix: (Units=GPa)
#
#
# Indices 1 2 3 4 5 6 
#
# 1 88.3018 70.6914 10.4760 0.0000 0.0000 0.0000
# 2 70.6914 88.3018 10.4760 0.0000 0.0000 0.0000
# 3 10.4760 10.4760 83.5339 0.0000 0.0000 0.0000
# 4 0.0000 0.0000 0.0000 18.3710 0.0000 0.0000
# 5 0.0000 0.0000 0.0000 0.0000 18.3710 0.0000
# 6 0.0000 0.0000 0.0000 0.0000 0.0000 27.2899
#
#
#
# Elastic Compliance Matrix: (Units=1/GPa)
#
#
# Indices 1 2 3 4 5 6 
#
# 1 0.031590 -0.025195 -0.000802 0.000000 0.000000 0.000000
# 2 -0.025195 0.031590 -0.000802 0.000000 0.000000 0.000000
# 3 -0.000802 -0.000802 0.012172 0.000000 0.000000 0.000000
# 4 0.000000 0.000000 0.000000 0.054434 0.000000 0.000000
# 5 0.000000 0.000000 0.000000 0.000000 0.054434 0.000000
# 6 0.000000 0.000000 0.000000 0.000000 0.000000 0.036644
#
#
# Mechanical properties :
#
#
# Convention : Reuss Voigt Hill
#
# Bulk Modulus (GPa) = 45.96695 49.26937 47.61816
# Shear Modulus (GPa) = 17.74859 24.03932 20.89395
#
# Velocity S-wave (km/s) = 2.96587 3.45168 3.21796
# Velocity P-wave (km/s) = 5.87453 6.34853 6.11612
#
# Compressibility (1/GPa) = 0.02175476
#
# Stress axis : x y z
#
# Youngs Moduli (GPa) = 31.65553 31.65553 82.15342
#
# Poissons Ratio (x) = 0.79755 0.06589
# Poissons Ratio (y) = 0.79755 0.06589
# Poissons Ratio (z) = 0.02539 0.02539
#
# Static dielectric constant tensor:
#      x y z
#    x 3.409490 0.000000 0.000000 
#    y 0.000000 3.409490 0.000000 
#    z 0.000000 0.000000 3.877940 
# 
# 
# High freq. dielectric constant tensor:
#      x y z
#    x 1.773920 0.000000 0.000000 
#    y 0.000000 1.773920 0.000000 
#    z 0.000000 0.000000 1.811590 
# 
# From -- ./inp_files/598.got.cif
#   From: 2010.03.12/outbox.cif.g09.slc.cpg/sg117_1_cif.got.tgz:598.got - 2010.04.14 02:19:01.
