data_PCOD8310945
_publ_section_title
;
Structure prediction by ZEFSAII (Michael W. Deem and Ramdas Pophale) SiO2 
 PCOD8310945
Probable space group: I -4 M 2
;
_chemical_formula_sum "Si O2"
_cell_formula_units_Z 112
_cell_length_a 14.653918
_cell_length_b 14.653918
_cell_length_c 26.618325
_cell_angle_alpha 90.000000
_cell_angle_beta 90.000000
_cell_angle_gamma 90.000000
_cell_volume 5715.947580
_symmetry_space_group_name_H-M "I -4 M 2"
_symmetry_group_IT_number 119
_symmetry_cell_setting 'tetragonal'
loop_
_space_group_symop_operation_xyz
x,y,z
y,-x,-z
-x,-y,z
-y,x,-z
y,x,-z
-y,-x,-z
-x,y,z
x,-y,z
1/2+x,1/2+y,1/2+z
1/2+y,1/2-x,1/2-z
1/2-x,1/2-y,1/2+z
1/2-y,1/2+x,1/2-z
1/2+y,1/2+x,1/2-z
1/2-y,1/2-x,1/2-z
1/2-x,1/2+y,1/2+z
1/2+x,1/2-y,1/2+z
loop_
_atom_site_type_symbol
_atom_site_label
_atom_site_fract_x
_atom_site_fract_y
_atom_site_fract_z
Si Si1 0.897428 0.397405 0.470492
Si Si2 0.786848 0.602054 0.857822
Si Si3 0.102304 0.218048 0.846859
Si Si4 0.695524 0.655611 0.761443
Si Si5 0.821379 0.599534 0.203966
Si Si6 0.267401 0.107536 0.878807
Si Si7 0.896652 0.227604 0.534723
O O1 0.882120 0.500000 0.489970
O O2 0.821744 0.371927 0.429508
O O3 0.883961 0.332422 0.517976
O O4 0.000000 0.386512 0.447578
O O5 0.828556 0.500000 0.866749
O O6 0.866098 0.676258 0.849250
O O7 0.720563 0.594100 0.809541
O O8 0.725635 0.630840 0.906441
O O9 0.098393 0.179762 0.789439
O O10 0.167232 0.153135 0.880800
O O11 0.000000 0.211849 0.868772
O O12 0.778755 0.721246 0.750000
O O13 0.608161 0.717830 0.775372
O O14 0.834337 0.500000 0.179135
O O15 0.891737 0.608264 0.250000
O O16 0.840539 0.679775 0.165106
O O17 0.260560 0.000000 0.867942
O O18 0.835884 0.164117 0.500000
O O19 0.000000 0.193923 0.527203
#
# Coordination Sequence:
#
# PCOD8310945 Si02
#       7
#    16  16  16  16  16  16  16
#     4   9  19  36  58  83 111 142 178 226 283 336
#     4  10  20  37  60  83 109 141 185 239 283 322
#     4  11  22  37  57  81 111 150 188 226 278 332
#     4   9  18  36  53  77 110 148 180 225 275 330
#     4  11  20  32  54  80 111 147 184 228 277 326
#     4  11  21  36  55  81 114 148 186 226 272 331
#     4  10  21  36  57  83 113 148 184 225 277 331
#
# _framework density 19.594301999999999
#
# number of rings (size 3 to 8) (size 9 to 14) (size 15 to 20)
#    0.000    1.857    4.286    2.143    0.000    2.857 
#    0.000    1.429    0.000    4.714    0.000    0.000 
#    0.000    3.429    0.000    0.000    0.000    0.000 
#
# Total GULP energy -694126.193012 kJ/mol
# GULP energy per Si atom -12395.110590 kJ/mol
# Density = 1.954970 g / cm^3
# Si number density = 19.594302 Si / 1000 Ang^3
#
#
#
# Elastic Constant Matrix: (Units=GPa)
#
#
# Indices 1 2 3 4 5 6 
#
# 1 86.0407 43.4521 24.8998 0.0000 0.0000 0.0000
# 2 43.4521 86.0407 24.9001 0.0000 0.0000 0.0000
# 3 24.8998 24.9001 88.4091 0.0000 0.0000 0.0000
# 4 0.0000 0.0000 0.0000 22.0292 0.0000 0.0000
# 5 0.0000 0.0000 0.0000 0.0000 22.0291 0.0000
# 6 0.0000 0.0000 0.0000 0.0000 0.0000 21.2907
#
#
#
# Elastic Compliance Matrix: (Units=1/GPa)
#
#
# Indices 1 2 3 4 5 6 
#
# 1 0.016070 -0.007410 -0.002439 0.000000 0.000000 0.000000
# 2 -0.007410 0.016071 -0.002439 0.000000 0.000000 0.000000
# 3 -0.002439 -0.002439 0.012685 0.000000 0.000000 0.000000
# 4 0.000000 0.000000 0.000000 0.045394 0.000000 0.000000
# 5 0.000000 0.000000 0.000000 0.000000 0.045394 0.000000
# 6 0.000000 0.000000 0.000000 0.000000 0.000000 0.046969
#
#
# Mechanical properties :
#
#
# Convention : Reuss Voigt Hill
#
# Bulk Modulus (GPa) = 49.38450 49.66607 49.52528
# Shear Modulus (GPa) = 23.37430 24.21902 23.79666
#
# Velocity S-wave (km/s) = 3.45760 3.51953 3.48870
# Velocity P-wave (km/s) = 6.41859 6.47444 6.44657
#
# Compressibility (1/GPa) = 0.02024927
#
# Stress axis : x y z
#
# Youngs Moduli (GPa) = 62.22592 62.22581 78.83309
#
# Poissons Ratio (x) = 0.46109 0.19229
# Poissons Ratio (y) = 0.46109 0.19229
# Poissons Ratio (z) = 0.15178 0.15178
#
# Static dielectric constant tensor:
#      x y z
#    x 3.558940 0.000000 0.000000 
#    y 0.000000 3.558960 0.000000 
#    z 0.000000 0.000000 3.698790 
# 
# 
# High freq. dielectric constant tensor:
#      x y z
#    x 1.751530 0.000000 0.000000 
#    y 0.000000 1.751530 0.000000 
#    z 0.000000 0.000000 1.760810 
# 
# From -- ./inp_files/9639.got.cif
#   From: 2010.03.12/outbox.cif.g09.slc.cpg/sg119_5_cif.got.tgz:9639.got - 2010.04.14 02:25:26.
