data_PCOD8310641
_publ_section_title
;
Structure prediction by ZEFSAII (Michael W. Deem and Ramdas Pophale) SiO2 
 PCOD8310641
Probable space group: P -4 N 2
;
_chemical_formula_sum "Si O2"
_cell_formula_units_Z 26
_cell_length_a 8.206169
_cell_length_b 8.206169
_cell_length_c 16.275046
_cell_angle_alpha 90.000000
_cell_angle_beta 90.000000
_cell_angle_gamma 90.000000
_cell_volume 1095.981285
_symmetry_space_group_name_H-M "P -4 N 2"
_symmetry_group_IT_number 118
_symmetry_cell_setting 'tetragonal'
loop_
_space_group_symop_operation_xyz
x,y,z
y,-x,-z
-x,-y,z
-y,x,-z
1/2+y,1/2+x,1/2-z
1/2-y,1/2-x,1/2-z
1/2-x,1/2+y,1/2+z
1/2+x,1/2-y,1/2+z
loop_
_atom_site_type_symbol
_atom_site_label
_atom_site_fract_x
_atom_site_fract_y
_atom_site_fract_z
Si Si1 0.233675 0.732128 0.548329
Si Si2 0.197440 0.302561 0.750000
Si Si3 0.061404 0.821840 0.389306
Si Si4 0.500000 0.500000 0.500000
Si Si5 0.500000 0.000000 0.367390
O O1 0.203913 0.767393 0.451660
O O2 0.387494 0.612830 0.557702
O O3 0.064583 0.652910 0.580527
O O4 0.283567 0.895100 0.599324
O O5 0.186041 0.127441 0.704496
O O6 0.160776 0.444540 0.683549
O O7 0.000000 0.000000 0.414328
#
# Coordination Sequence:
#
# PCOD8310641 Si02
#       5
#     8   4   8   2   4
#     4  12  23  48  80 111 150 209 267 325 383 483
#     4  11  24  44  72 117 156 205 248 323 412 470
#     4  12  22  46  84 111 148 203 266 323 395 472
#     4  12  28  40  76 124 152 192 276 342 380 452
#     4  11  24  46  78 113 164 198 254 333 406 468
#
# _framework density 23.723030000000001
#
# number of rings (size 3 to 8) (size 9 to 14) (size 15 to 20)
#    0.000    0.308    6.154    3.692    0.000    0.000 
#   11.077    0.000    6.769    3.692    0.000    0.000 
#    0.000    0.000    0.000    0.000    0.000    0.000 
#
# Total GULP energy -322262.277440 kJ/mol
# GULP energy per Si atom -12394.702978 kJ/mol
# Density = 2.366904 g / cm^3
# Si number density = 23.723030 Si / 1000 Ang^3
#
#
#
# Elastic Constant Matrix: (Units=GPa)
#
#
# Indices 1 2 3 4 5 6 
#
# 1 134.1673 56.9985 59.9436 0.0000 0.0000 0.0000
# 2 56.9985 134.1675 59.9431 0.0000 0.0000 0.0000
# 3 59.9436 59.9431 121.9903 0.0000 0.0000 0.0000
# 4 0.0000 0.0000 0.0000 41.6803 0.0000 0.0000
# 5 0.0000 0.0000 0.0000 0.0000 41.6805 0.0000
# 6 0.0000 0.0000 0.0000 0.0000 0.0000 55.8280
#
#
#
# Elastic Compliance Matrix: (Units=1/GPa)
#
#
# Indices 1 2 3 4 5 6 
#
# 1 0.010260 -0.002699 -0.003715 0.000000 0.000000 0.000000
# 2 -0.002699 0.010260 -0.003715 0.000000 0.000000 0.000000
# 3 -0.003715 -0.003715 0.011849 0.000000 0.000000 0.000000
# 4 0.000000 0.000000 0.000000 0.023992 0.000000 0.000000
# 5 0.000000 0.000000 0.000000 0.000000 0.023992 0.000000
# 6 0.000000 0.000000 0.000000 0.000000 0.000000 0.017912
#
#
# Mechanical properties :
#
#
# Convention : Reuss Voigt Hill
#
# Bulk Modulus (GPa) = 82.58034 82.67729 82.62881
# Shear Modulus (GPa) = 40.79634 42.06710 41.43172
#
# Velocity S-wave (km/s) = 4.15142 4.21558 4.18362
# Velocity P-wave (km/s) = 7.60689 7.65647 7.63172
#
# Compressibility (1/GPa) = 0.01210942
#
# Stress axis : x y z
#
# Youngs Moduli (GPa) = 97.46717 97.46784 84.39775
#
# Poissons Ratio (x) = 0.26304 0.31357
# Poissons Ratio (y) = 0.26304 0.31356
# Poissons Ratio (z) = 0.36213 0.36212
#
# Static dielectric constant tensor:
#      x y z
#    x 4.346770 0.000000 0.000000 
#    y 0.000000 4.346780 0.000000 
#    z 0.000000 0.000000 4.055210 
# 
# 
# High freq. dielectric constant tensor:
#      x y z
#    x 1.940790 0.000000 0.000000 
#    y 0.000000 1.940790 0.000000 
#    z 0.000000 0.000000 1.919960 
# 
# From -- ./inp_files/4549.got.cif
#   From: 2010.03.12/outbox.cif.g09.slc.cpg/sg118_3_cif.got.tgz:4549.got - 2010.04.14 02:21:17.
