data_PCOD8310671
_publ_section_title
;
Structure prediction by ZEFSAII (Michael W. Deem and Ramdas Pophale) SiO2 
 PCOD8310671
Probable space group: I -4 M 2
;
_chemical_formula_sum "Si O2"
_cell_formula_units_Z 64
_cell_length_a 18.771742
_cell_length_b 18.771742
_cell_length_c 11.771449
_cell_angle_alpha 90.000000
_cell_angle_beta 90.000000
_cell_angle_gamma 90.000000
_cell_volume 4148.003160
_symmetry_space_group_name_H-M "I -4 M 2"
_symmetry_group_IT_number 119
_symmetry_cell_setting 'tetragonal'
loop_
_space_group_symop_operation_xyz
x,y,z
y,-x,-z
-x,-y,z
-y,x,-z
y,x,-z
-y,-x,-z
-x,y,z
x,-y,z
1/2+x,1/2+y,1/2+z
1/2+y,1/2-x,1/2-z
1/2-x,1/2-y,1/2+z
1/2-y,1/2+x,1/2-z
1/2+y,1/2+x,1/2-z
1/2-y,1/2-x,1/2-z
1/2-x,1/2+y,1/2+z
1/2+x,1/2-y,1/2+z
loop_
_atom_site_type_symbol
_atom_site_label
_atom_site_fract_x
_atom_site_fract_y
_atom_site_fract_z
Si Si1 0.296000 0.816698 0.506702
Si Si2 0.290429 0.209572 0.750000
Si Si3 0.582464 0.417537 0.500000
Si Si4 0.579765 0.814585 0.189358
Si Si5 0.135562 0.205840 0.851001
O O1 0.216484 0.783517 0.500000
O O2 0.313355 0.835684 0.638727
O O3 0.298986 0.888563 0.434942
O O4 0.351230 0.756765 0.460485
O O5 0.207912 0.196932 0.779876
O O6 0.500000 0.404323 0.532494
O O7 0.630549 0.396237 0.608615
O O8 0.500000 0.841714 0.172279
O O9 0.623805 0.876196 0.250000
O O10 0.579922 0.743531 0.266297
#
# Coordination Sequence:
#
# PCOD8310671 Si02
#       5
#    16   8   8  16  16
#     4   9  15  28  51  70  93 124 159 198 244 279
#     4  10  14  28  56  70  95 123 162 204 248 276
#     4  11  22  32  44  70 106 136 164 199 242 296
#     4  10  19  31  50  75  98 126 162 202 248 293
#     4  10  16  31  51  72  94 128 160 207 245 283
#
# _framework density 15.429111000000001
#
# number of rings (size 3 to 8) (size 9 to 14) (size 15 to 20)
#    0.000    2.125   10.000    0.750    0.000    0.250 
#    0.000    1.250    0.000    0.000    0.000    0.000 
#    0.000    0.000    0.000    0.000    0.000    0.000 
#
# Total GULP energy -396579.349910 kJ/mol
# GULP energy per Si atom -12393.104685 kJ/mol
# Density = 1.539399 g / cm^3
# Si number density = 15.429111 Si / 1000 Ang^3
#
#
#
# Elastic Constant Matrix: (Units=GPa)
#
#
# Indices 1 2 3 4 5 6 
#
# 1 89.1965 37.7181 41.0701 0.0000 0.0000 0.0000
# 2 37.7181 89.1986 41.0702 0.0000 0.0000 0.0000
# 3 41.0701 41.0702 144.1771 0.0000 0.0000 0.0000
# 4 0.0000 0.0000 0.0000 14.1800 0.0000 0.0000
# 5 0.0000 0.0000 0.0000 0.0000 14.1807 0.0000
# 6 0.0000 0.0000 0.0000 0.0000 0.0000 14.4148
#
#
#
# Elastic Compliance Matrix: (Units=1/GPa)
#
#
# Indices 1 2 3 4 5 6 
#
# 1 0.014543 -0.004882 -0.002752 0.000000 0.000000 0.000000
# 2 -0.004882 0.014543 -0.002752 0.000000 0.000000 0.000000
# 3 -0.002752 -0.002752 0.008504 0.000000 0.000000 0.000000
# 4 0.000000 0.000000 0.000000 0.070522 0.000000 0.000000
# 5 0.000000 0.000000 0.000000 0.000000 0.070519 0.000000
# 6 0.000000 0.000000 0.000000 0.000000 0.000000 0.069373
#
#
# Mechanical properties :
#
#
# Convention : Reuss Voigt Hill
#
# Bulk Modulus (GPa) = 59.46398 62.47658 60.97028
# Shear Modulus (GPa) = 18.22287 22.06935 20.14611
#
# Velocity S-wave (km/s) = 3.44040 3.78613 3.61740
# Velocity P-wave (km/s) = 7.37601 7.72616 7.55312
#
# Compressibility (1/GPa) = 0.01681690
#
# Stress axis : x y z
#
# Youngs Moduli (GPa) = 68.76199 68.76381 117.59633
#
# Poissons Ratio (x) = 0.33574 0.32361
# Poissons Ratio (y) = 0.33573 0.32360
# Poissons Ratio (z) = 0.18922 0.18922
#
# Static dielectric constant tensor:
#      x y z
#    x 2.755040 0.000000 0.000000 
#    y 0.000000 2.755010 0.000000 
#    z 0.000000 0.000000 3.302960 
# 
# 
# High freq. dielectric constant tensor:
#      x y z
#    x 1.566450 0.000000 0.000000 
#    y 0.000000 1.566450 0.000000 
#    z 0.000000 0.000000 1.599240 
# 
# From -- ./inp_files/3796.got.cif
#   From: 2010.03.12/outbox.cif.g09.slc.cpg/sg119_2_cif.got.tgz:3796.got - 2010.04.14 02:25:26.
