data_PCOD8310590
_publ_section_title
;
Structure prediction by ZEFSAII (Michael W. Deem and Ramdas Pophale) SiO2 
 PCOD8310590
Probable space group: P -4 N 2
;
_chemical_formula_sum "Si O2"
_cell_formula_units_Z 48
_cell_length_a 19.082686
_cell_length_b 19.082686
_cell_length_c 6.346577
_cell_angle_alpha 90.000000
_cell_angle_beta 90.000000
_cell_angle_gamma 90.000000
_cell_volume 2311.099065
_symmetry_space_group_name_H-M "P -4 N 2"
_symmetry_group_IT_number 118
_symmetry_cell_setting 'tetragonal'
loop_
_space_group_symop_operation_xyz
x,y,z
y,-x,-z
-x,-y,z
-y,x,-z
1/2+y,1/2+x,1/2-z
1/2-y,1/2-x,1/2-z
1/2-x,1/2+y,1/2+z
1/2+x,1/2-y,1/2+z
loop_
_atom_site_type_symbol
_atom_site_label
_atom_site_fract_x
_atom_site_fract_y
_atom_site_fract_z
Si Si1 0.764296 0.165188 0.105475
Si Si2 0.977584 0.863550 0.272689
Si Si3 0.115510 0.457178 0.945397
Si Si4 0.333783 0.591023 0.561541
Si Si5 0.838232 0.661769 0.250000
Si Si6 0.763048 0.017314 0.341060
Si Si7 0.500000 0.500000 0.000000
Si Si8 0.000000 0.500000 0.250000
O O1 0.717827 0.217827 0.250000
O O2 0.769699 0.086953 0.198527
O O3 0.841453 0.198105 0.061744
O O4 0.735536 0.156209 0.867946
O O5 0.908075 0.888001 0.155846
O O6 0.963253 0.804477 0.446772
O O7 0.016828 0.931546 0.364394
O O8 0.029273 0.832570 0.104215
O O9 0.069199 0.430802 0.750000
O O10 0.181149 0.502679 0.870013
O O11 0.152356 0.393450 0.064337
O O12 0.068555 0.502576 0.104141
O O13 0.289634 0.556935 0.750700
#
# Coordination Sequence:
#
# PCOD8310590 Si02
#       8
#     8   8   8   8   4   8   2   2
#     4  12  25  44  71 101 132 183 242 296 344 429
#     4  12  24  42  65  99 146 186 236 283 336 413
#     4  11  22  44  74 106 128 177 233 301 355 437
#     4  12  26  40  68 102 141 187 236 283 352 409
#     4  11  20  41  78  98 128 172 245 292 347 414
#     4  12  24  43  72 100 139 184 241 287 349 434
#     4  12  20  38  60  96 142 188 224 278 324 388
#     4  10  26  40  80 102 136 168 230 308 378 422
#
# _framework density 20.769338999999999
#
# number of rings (size 3 to 8) (size 9 to 14) (size 15 to 20)
#    0.000    0.333    6.667    3.250    0.000    0.000 
#    0.000    0.000   18.333    0.000    0.000    0.000 
#    0.000    0.000    0.000    0.000    0.000    0.000 
#
# Total GULP energy -594983.259353 kJ/mol
# GULP energy per Si atom -12395.484570 kJ/mol
# Density = 2.072207 g / cm^3
# Si number density = 20.769339 Si / 1000 Ang^3
#
#
#
# Elastic Constant Matrix: (Units=GPa)
#
#
# Indices 1 2 3 4 5 6 
#
# 1 95.3938 57.9350 47.1682 0.0000 0.0000 0.0000
# 2 57.9350 95.3946 47.1690 0.0000 0.0000 0.0000
# 3 47.1682 47.1690 122.7113 0.0000 0.0000 0.0000
# 4 0.0000 0.0000 0.0000 47.0955 0.0000 0.0000
# 5 0.0000 0.0000 0.0000 0.0000 47.0938 0.0000
# 6 0.0000 0.0000 0.0000 0.0000 0.0000 23.9703
#
#
#
# Elastic Compliance Matrix: (Units=1/GPa)
#
#
# Indices 1 2 3 4 5 6 
#
# 1 0.017619 -0.009077 -0.003283 0.000000 0.000000 0.000000
# 2 -0.009077 0.017619 -0.003284 0.000000 0.000000 0.000000
# 3 -0.003283 -0.003284 0.010673 0.000000 0.000000 0.000000
# 4 0.000000 0.000000 0.000000 0.021233 0.000000 0.000000
# 5 0.000000 0.000000 0.000000 0.000000 0.021234 0.000000
# 6 0.000000 0.000000 0.000000 0.000000 0.000000 0.041718
#
#
# Mechanical properties :
#
#
# Convention : Reuss Voigt Hill
#
# Bulk Modulus (GPa) = 68.38183 68.67159 68.52671
# Shear Modulus (GPa) = 30.07348 34.38041 32.22694
#
# Velocity S-wave (km/s) = 3.80935 4.07301 3.94338
# Velocity P-wave (km/s) = 7.23492 7.43336 7.33481
#
# Compressibility (1/GPa) = 0.01462377
#
# Stress axis : x y z
#
# Youngs Moduli (GPa) = 56.75709 56.75725 93.69042
#
# Poissons Ratio (x) = 0.51518 0.30762
# Poissons Ratio (y) = 0.51517 0.30764
# Poissons Ratio (z) = 0.18636 0.18637
#
# Static dielectric constant tensor:
#      x y z
#    x 3.413340 0.000000 0.000000 
#    y 0.000000 3.413320 0.000000 
#    z 0.000000 0.000000 4.123630 
# 
# 
# High freq. dielectric constant tensor:
#      x y z
#    x 1.805850 0.000000 0.000000 
#    y 0.000000 1.805840 0.000000 
#    z 0.000000 0.000000 1.837180 
# 
# From -- ./inp_files/855.got.cif
#   From: 2010.03.12/outbox.cif.g09.slc.cpg/sg118_1_cif.got.tgz:855.got - 2010.04.14 02:21:17.
