data_PCOD8310622
_publ_section_title
;
Structure prediction by ZEFSAII (Michael W. Deem and Ramdas Pophale) SiO2 
 PCOD8310622
Probable space group: P -4 N 2
;
_chemical_formula_sum "Si O2"
_cell_formula_units_Z 48
_cell_length_a 8.791107
_cell_length_b 8.791107
_cell_length_c 29.022556
_cell_angle_alpha 90.000000
_cell_angle_beta 90.000000
_cell_angle_gamma 90.000000
_cell_volume 2242.966514
_symmetry_space_group_name_H-M "P -4 N 2"
_symmetry_group_IT_number 118
_symmetry_cell_setting 'tetragonal'
loop_
_space_group_symop_operation_xyz
x,y,z
y,-x,-z
-x,-y,z
-y,x,-z
1/2+y,1/2+x,1/2-z
1/2-y,1/2-x,1/2-z
1/2-x,1/2+y,1/2+z
1/2+x,1/2-y,1/2+z
loop_
_atom_site_type_symbol
_atom_site_label
_atom_site_fract_x
_atom_site_fract_y
_atom_site_fract_z
Si Si1 0.897851 0.864143 0.138715
Si Si2 0.102513 0.218363 0.987385
Si Si3 0.090469 0.346862 0.430254
Si Si4 0.094279 0.646396 0.201426
Si Si5 0.353528 0.591190 0.132156
Si Si6 0.654018 0.071278 0.110734
O O1 0.856827 0.742654 0.100181
O O2 0.987533 0.786429 0.182178
O O3 0.739060 0.958590 0.147922
O O4 0.000000 0.000000 0.117812
O O5 0.106786 0.242465 0.933153
O O6 0.173992 0.358943 0.016516
O O7 0.930304 0.202427 0.004427
O O8 0.000000 0.500000 0.421388
O O9 0.985976 0.202214 0.416039
O O10 0.183204 0.683204 0.250000
O O11 0.212508 0.577531 0.165741
O O12 0.000000 0.500000 0.212905
O O13 0.500000 0.500000 0.150575
O O14 0.392624 0.768520 0.132368
O O15 0.500000 0.000000 0.092299
#
# Coordination Sequence:
#
# PCOD8310622 Si02
#       6
#     8   8   8   8   8   8
#     4  12  20  41  71  95 130 177 224 275 340 416
#     4  11  23  37  64  99 132 175 238 288 328 399
#     4  12  21  40  65  93 131 183 228 277 339 405
#     4  11  24  44  74 105 129 171 229 283 344 427
#     4  12  25  45  67  95 141 179 222 283 358 417
#     4  12  26  42  66 100 135 181 231 287 346 413
#
# _framework density 21.400229
#
# number of rings (size 3 to 8) (size 9 to 14) (size 15 to 20)
#    0.000    0.333    6.667    3.500    0.000    0.667 
#    0.000    0.000    0.000    0.500    0.000    0.000 
#    0.000    0.000    0.000    0.000    0.000    0.000 
#
# Total GULP energy -594641.025487 kJ/mol
# GULP energy per Si atom -12388.354698 kJ/mol
# Density = 2.135152 g / cm^3
# Si number density = 21.400229 Si / 1000 Ang^3
#
#
#
# Elastic Constant Matrix: (Units=GPa)
#
#
# Indices 1 2 3 4 5 6 
#
# 1 102.3630 35.8343 26.5769 0.0000 0.0000 0.0000
# 2 35.8343 102.3630 26.5769 0.0000 0.0000 0.0000
# 3 26.5769 26.5769 87.5975 0.0000 0.0000 0.0000
# 4 0.0000 0.0000 0.0000 12.9901 0.0000 0.0000
# 5 0.0000 0.0000 0.0000 0.0000 12.9901 0.0000
# 6 0.0000 0.0000 0.0000 0.0000 0.0000 42.7044
#
#
#
# Elastic Compliance Matrix: (Units=1/GPa)
#
#
# Indices 1 2 3 4 5 6 
#
# 1 0.011612 -0.003420 -0.002485 0.000000 0.000000 0.000000
# 2 -0.003420 0.011612 -0.002485 0.000000 0.000000 0.000000
# 3 -0.002485 -0.002485 0.012924 0.000000 0.000000 0.000000
# 4 0.000000 0.000000 0.000000 0.076982 0.000000 0.000000
# 5 0.000000 0.000000 0.000000 0.000000 0.076982 0.000000
# 6 0.000000 0.000000 0.000000 0.000000 0.000000 0.023417
#
#
# Mechanical properties :
#
#
# Convention : Reuss Voigt Hill
#
# Bulk Modulus (GPa) = 51.63622 52.25551 51.94586
# Shear Modulus (GPa) = 21.11807 27.29260 24.20533
#
# Velocity S-wave (km/s) = 3.14477 3.57507 3.36680
# Velocity P-wave (km/s) = 6.11288 6.44303 6.28013
#
# Compressibility (1/GPa) = 0.01936625
#
# Stress axis : x y z
#
# Youngs Moduli (GPa) = 86.12118 86.12118 77.37546
#
# Poissons Ratio (x) = 0.29450 0.19231
# Poissons Ratio (y) = 0.29450 0.19231
# Poissons Ratio (z) = 0.21405 0.21405
#
# Static dielectric constant tensor:
#      x y z
#    x 4.102760 0.000000 0.000000 
#    y 0.000000 4.102760 0.000000 
#    z 0.000000 0.000000 3.821310 
# 
# 
# High freq. dielectric constant tensor:
#      x y z
#    x 1.848590 0.000000 0.000000 
#    y 0.000000 1.848590 0.000000 
#    z 0.000000 0.000000 1.807270 
# 
# From -- ./inp_files/6850.got.cif
#   From: 2010.03.12/outbox.cif.g09.slc.cpg/sg118_4_cif.got.tgz:6850.got - 2010.04.14 02:21:17.
