data_PCOD8310841
_publ_section_title
;
Structure prediction by ZEFSAII (Michael W. Deem and Ramdas Pophale) SiO2 
 PCOD8310841
Probable space group: I -4 M 2
;
_chemical_formula_sum "Si O2"
_cell_formula_units_Z 96
_cell_length_a 21.922904
_cell_length_b 21.922904
_cell_length_c 9.939716
_cell_angle_alpha 90.000000
_cell_angle_beta 90.000000
_cell_angle_gamma 90.000000
_cell_volume 4777.163880
_symmetry_space_group_name_H-M "I -4 M 2"
_symmetry_group_IT_number 119
_symmetry_cell_setting 'tetragonal'
loop_
_space_group_symop_operation_xyz
x,y,z
y,-x,-z
-x,-y,z
-y,x,-z
y,x,-z
-y,-x,-z
-x,y,z
x,-y,z
1/2+x,1/2+y,1/2+z
1/2+y,1/2-x,1/2-z
1/2-x,1/2-y,1/2+z
1/2-y,1/2+x,1/2-z
1/2+y,1/2+x,1/2-z
1/2-y,1/2-x,1/2-z
1/2-x,1/2+y,1/2+z
1/2+x,1/2-y,1/2+z
loop_
_atom_site_type_symbol
_atom_site_label
_atom_site_fract_x
_atom_site_fract_y
_atom_site_fract_z
Si Si1 0.568606 0.247736 0.502724
Si Si2 0.752264 0.431394 0.997276
Si Si3 0.429412 0.373118 0.118445
Si Si4 0.930644 0.331234 0.761958
Si Si5 0.930644 0.331234 0.261958
Si Si6 0.626882 0.570588 0.381555
O O1 0.500000 0.266158 0.462583
O O2 0.598614 0.217091 0.369486
O O3 0.570860 0.197339 0.616221
O O4 0.599015 0.310268 0.556660
O O5 0.733842 0.500000 0.037417
O O6 0.782909 0.401386 0.130514
O O7 0.689732 0.400985 0.943340
O O8 0.802662 0.429140 0.883779
O O9 0.500000 0.366417 0.161698
O O10 0.391131 0.391131 0.250000
O O11 0.423237 0.423237 0.000000
O O12 0.893277 0.393277 0.750000
O O13 0.000000 0.347424 0.806050
O O14 0.893278 0.393278 0.250000
O O15 0.000000 0.347424 0.306050
O O16 0.576763 0.576763 0.500000
O O17 0.633583 0.500000 0.338302
#
# Coordination Sequence:
#
# PCOD8310841 Si02
#       6
#    16  16  16  16  16  16
#     4   9  19  35  53  75 105 145 185 214 257 327
#     4   9  19  35  53  75 105 145 185 214 257 327
#     4  11  22  36  56  81 110 143 180 227 279 331
#     4  10  19  33  55  81 109 141 179 225 272 320
#     4  10  19  33  55  81 109 141 179 225 272 320
#     4  11  22  36  56  81 110 143 180 227 279 331
#
# _framework density 20.095604000000002
#
# number of rings (size 3 to 8) (size 9 to 14) (size 15 to 20)
#    0.000    2.000    0.000    4.000    0.000    7.667 
#    0.000    0.000    0.000   21.000    0.000    0.000 
#    0.000    0.000    0.000    0.000    0.000    0.000 
#
# Total GULP energy -594931.348276 kJ/mol
# GULP energy per Si atom -12394.403089 kJ/mol
# Density = 2.004987 g / cm^3
# Si number density = 20.095604 Si / 1000 Ang^3
#
#
#
# Elastic Constant Matrix: (Units=GPa)
#
#
# Indices 1 2 3 4 5 6 
#
# 1 71.7859 41.7809 18.9880 0.0000 0.0000 0.0000
# 2 41.7809 71.7859 18.9880 0.0000 0.0000 0.0000
# 3 18.9880 18.9880 104.4045 0.0000 0.0000 0.0000
# 4 0.0000 0.0000 0.0000 32.4331 0.0000 0.0000
# 5 0.0000 0.0000 0.0000 0.0000 32.4331 0.0000
# 6 0.0000 0.0000 0.0000 0.0000 0.0000 16.6732
#
#
#
# Elastic Compliance Matrix: (Units=1/GPa)
#
#
# Indices 1 2 3 4 5 6 
#
# 1 0.021352 -0.011976 -0.001705 0.000000 0.000000 0.000000
# 2 -0.011976 0.021352 -0.001705 0.000000 0.000000 0.000000
# 3 -0.001705 -0.001705 0.010198 0.000000 0.000000 0.000000
# 4 0.000000 0.000000 0.000000 0.030833 0.000000 0.000000
# 5 0.000000 0.000000 0.000000 0.000000 0.030833 0.000000
# 6 0.000000 0.000000 0.000000 0.000000 0.000000 0.059977
#
#
# Mechanical properties :
#
#
# Convention : Reuss Voigt Hill
#
# Bulk Modulus (GPa) = 45.18960 45.27666 45.23313
# Shear Modulus (GPa) = 23.50809 27.52249 25.51529
#
# Velocity S-wave (km/s) = 3.42396 3.70480 3.56714
# Velocity P-wave (km/s) = 6.17798 6.39376 6.28680
#
# Compressibility (1/GPa) = 0.02212899
#
# Stress axis : x y z
#
# Youngs Moduli (GPa) = 46.83476 46.83476 98.05508
#
# Poissons Ratio (x) = 0.56090 0.16720
# Poissons Ratio (y) = 0.56090 0.16720
# Poissons Ratio (z) = 0.07986 0.07986
#
# Static dielectric constant tensor:
#      x y z
#    x 3.570370 0.000000 0.000000 
#    y 0.000000 3.570370 0.000000 
#    z 0.000000 0.000000 3.866530 
# 
# 
# High freq. dielectric constant tensor:
#      x y z
#    x 1.759760 0.000000 0.000000 
#    y 0.000000 1.759760 0.000000 
#    z 0.000000 0.000000 1.809990 
# 
# From -- ./inp_files/2718.got.cif
#   From: 2010.03.12/outbox.cif.g09.slc.cpg/sg119_2_cif.got.tgz:2718.got - 2010.04.14 02:25:26.
