data_PCOD8310948
_publ_section_title
;
Structure prediction by ZEFSAII (Michael W. Deem and Ramdas Pophale) SiO2 
 PCOD8310948
Probable space group: I -4 M 2
;
_chemical_formula_sum "Si O2"
_cell_formula_units_Z 96
_cell_length_a 22.672656
_cell_length_b 22.672656
_cell_length_c 10.068127
_cell_angle_alpha 90.000000
_cell_angle_beta 90.000000
_cell_angle_gamma 90.000000
_cell_volume 5175.513940
_symmetry_space_group_name_H-M "I -4 M 2"
_symmetry_group_IT_number 119
_symmetry_cell_setting 'tetragonal'
loop_
_space_group_symop_operation_xyz
x,y,z
y,-x,-z
-x,-y,z
-y,x,-z
y,x,-z
-y,-x,-z
-x,y,z
x,-y,z
1/2+x,1/2+y,1/2+z
1/2+y,1/2-x,1/2-z
1/2-x,1/2-y,1/2+z
1/2-y,1/2+x,1/2-z
1/2+y,1/2+x,1/2-z
1/2-y,1/2-x,1/2-z
1/2-x,1/2+y,1/2+z
1/2+x,1/2-y,1/2+z
loop_
_atom_site_type_symbol
_atom_site_label
_atom_site_fract_x
_atom_site_fract_y
_atom_site_fract_z
Si Si1 0.224756 0.126979 0.008499
Si Si2 0.564809 0.934801 0.407886
Si Si3 0.229142 0.067184 0.485689
Si Si4 0.349502 0.164401 0.093011
Si Si5 0.827342 0.931329 0.765364
Si Si6 0.844181 0.933172 0.229344
O O1 0.288013 0.158124 0.017432
O O2 0.210540 0.086029 0.135640
O O3 0.179626 0.179626 0.000000
O O4 0.220123 0.087265 0.876595
O O5 0.500000 0.916746 0.459586
O O6 0.565658 0.934343 0.250000
O O7 0.610768 0.888233 0.463685
O O8 0.581389 0.000000 0.459840
O O9 0.276622 0.116189 0.445779
O O10 0.201362 0.085891 0.625438
O O11 0.176455 0.069653 0.380682
O O12 0.255481 0.000000 0.489483
O O13 0.338535 0.161466 0.250000
O O14 0.889819 0.899356 0.790143
O O15 0.841206 0.000000 0.774558
O O16 0.863457 0.000000 0.192201
#
# Coordination Sequence:
#
# PCOD8310948 Si02
#       6
#    16  16  16  16  16  16
#     4  10  22  38  54  80 112 146 185 234 279 330
#     4   8  15  27  45  74 109 135 164 219 276 316
#     4  10  21  37  57  83 116 149 185 234 284 333
#     4  11  20  34  56  83 104 147 195 230 274 336
#     4  10  22  39  57  82 117 151 182 227 289 345
#     4  10  20  37  61  85 110 144 189 237 279 327
#
# _framework density 18.548883
#
# number of rings (size 3 to 8) (size 9 to 14) (size 15 to 20)
#    0.000    2.167    1.667    2.000    0.000    4.333 
#    0.000    0.000    0.000    6.000    0.000    0.000 
#    0.000    4.000    0.000    0.000    0.000    0.000 
#
# Total GULP energy -595114.201696 kJ/mol
# GULP energy per Si atom -12398.212535 kJ/mol
# Density = 1.850667 g / cm^3
# Si number density = 18.548883 Si / 1000 Ang^3
#
#
#
# Elastic Constant Matrix: (Units=GPa)
#
#
# Indices 1 2 3 4 5 6 
#
# 1 100.9539 49.2724 29.1920 0.0000 0.0000 0.0000
# 2 49.2724 100.9537 29.1921 0.0000 0.0000 0.0000
# 3 29.1920 29.1921 88.6517 0.0000 0.0000 0.0000
# 4 0.0000 0.0000 0.0000 23.5700 0.0000 0.0000
# 5 0.0000 0.0000 0.0000 0.0000 23.5700 0.0000
# 6 0.0000 0.0000 0.0000 0.0000 0.0000 28.1462
#
#
#
# Elastic Compliance Matrix: (Units=1/GPa)
#
#
# Indices 1 2 3 4 5 6 
#
# 1 0.013491 -0.005858 -0.002514 0.000000 0.000000 0.000000
# 2 -0.005858 0.013491 -0.002514 0.000000 0.000000 0.000000
# 3 -0.002514 -0.002514 0.012936 0.000000 0.000000 0.000000
# 4 0.000000 0.000000 0.000000 0.042427 0.000000 0.000000
# 5 0.000000 0.000000 0.000000 0.000000 0.042427 0.000000
# 6 0.000000 0.000000 0.000000 0.000000 0.000000 0.035529
#
#
# Mechanical properties :
#
#
# Convention : Reuss Voigt Hill
#
# Bulk Modulus (GPa) = 55.10241 56.20804 55.65523
# Shear Modulus (GPa) = 26.57873 27.25077 26.91475
#
# Velocity S-wave (km/s) = 3.78948 3.83709 3.81335
# Velocity P-wave (km/s) = 6.99413 7.07103 7.03269
#
# Compressibility (1/GPa) = 0.01814803
#
# Stress axis : x y z
#
# Youngs Moduli (GPa) = 74.12120 74.12098 77.30646
#
# Poissons Ratio (x) = 0.43419 0.19432
# Poissons Ratio (y) = 0.43419 0.19432
# Poissons Ratio (z) = 0.18631 0.18632
#
# Static dielectric constant tensor:
#      x y z
#    x 3.472690 0.000000 0.000000 
#    y 0.000000 3.472710 0.000000 
#    z 0.000000 0.000000 3.484270 
# 
# 
# High freq. dielectric constant tensor:
#      x y z
#    x 1.722490 0.000000 0.000000 
#    y 0.000000 1.722490 0.000000 
#    z 0.000000 0.000000 1.705840 
# 
# From -- ./inp_files/2660.got.cif
#   From: 2010.03.12/outbox.cif.g09.slc.cpg/sg119_2_cif.got.tgz:2660.got - 2010.04.14 02:25:26.
