data_PCOD8310965
_publ_section_title
;
Structure prediction by ZEFSAII (Michael W. Deem and Ramdas Pophale) SiO2 
 PCOD8310965
Probable space group: I -4 M 2
;
_chemical_formula_sum "Si O2"
_cell_formula_units_Z 64
_cell_length_a 14.367716
_cell_length_b 14.367716
_cell_length_c 16.412623
_cell_angle_alpha 90.000000
_cell_angle_beta 90.000000
_cell_angle_gamma 90.000000
_cell_volume 3388.078496
_symmetry_space_group_name_H-M "I -4 M 2"
_symmetry_group_IT_number 119
_symmetry_cell_setting 'tetragonal'
loop_
_space_group_symop_operation_xyz
x,y,z
y,-x,-z
-x,-y,z
-y,x,-z
y,x,-z
-y,-x,-z
-x,y,z
x,-y,z
1/2+x,1/2+y,1/2+z
1/2+y,1/2-x,1/2-z
1/2-x,1/2-y,1/2+z
1/2-y,1/2+x,1/2-z
1/2+y,1/2+x,1/2-z
1/2-y,1/2-x,1/2-z
1/2-x,1/2+y,1/2+z
1/2+x,1/2-y,1/2+z
loop_
_atom_site_type_symbol
_atom_site_label
_atom_site_fract_x
_atom_site_fract_y
_atom_site_fract_z
Si Si1 0.719290 0.391353 0.839874
Si Si2 0.606702 0.606702 0.000000
Si Si3 0.394394 0.109770 0.888058
Si Si4 0.287908 0.212093 0.750000
Si Si5 0.609334 0.899091 0.068385
O O1 0.703752 0.500000 0.815911
O O2 0.661579 0.362791 0.919776
O O3 0.692173 0.322433 0.766125
O O4 0.826621 0.367280 0.860715
O O5 0.627062 0.500000 0.020168
O O6 0.500000 0.147188 0.872251
O O7 0.319595 0.154793 0.828230
O O8 0.393471 0.000000 0.874147
O O9 0.357921 0.134973 0.978894
O O10 0.500000 0.910748 0.059468
O O11 0.653368 0.000000 0.091393
#
# Coordination Sequence:
#
# PCOD8310965 Si02
#       5
#    16   8  16   8  16
#     4  10  21  34  47  69 100 131 165 198 228 276
#     4   9  18  34  54  70  88 122 164 203 240 276
#     4   9  18  33  54  79 100 117 148 200 256 299
#     4  12  22  29  46  73 104 136 156 182 240 298
#     4   8  15  31  54  73  90 119 160 205 247 281
#
# _framework density 18.889764
#
# number of rings (size 3 to 8) (size 9 to 14) (size 15 to 20)
#    0.000    2.625    0.000    3.750    0.000    6.000 
#    0.000    0.000    0.000    0.000    0.000    0.000 
#    0.000    4.000    0.000    0.000    0.000    0.000 
#
# Total GULP energy -396576.141456 kJ/mol
# GULP energy per Si atom -12393.004421 kJ/mol
# Density = 1.884677 g / cm^3
# Si number density = 18.889764 Si / 1000 Ang^3
#
#
#
# Elastic Constant Matrix: (Units=GPa)
#
#
# Indices 1 2 3 4 5 6 
#
# 1 64.0337 31.9326 33.1438 0.0000 0.0000 0.0000
# 2 31.9326 64.0346 33.1446 0.0000 0.0000 0.0000
# 3 33.1438 33.1446 44.6058 0.0000 0.0000 0.0000
# 4 0.0000 0.0000 0.0000 19.4421 0.0000 0.0000
# 5 0.0000 0.0000 0.0000 0.0000 19.4412 0.0000
# 6 0.0000 0.0000 0.0000 0.0000 0.0000 20.0127
#
#
#
# Elastic Compliance Matrix: (Units=1/GPa)
#
#
# Indices 1 2 3 4 5 6 
#
# 1 0.026280 -0.004872 -0.015907 0.000000 0.000000 0.000000
# 2 -0.004872 0.026280 -0.015908 0.000000 0.000000 0.000000
# 3 -0.015907 -0.015908 0.046058 0.000000 0.000000 0.000000
# 4 0.000000 0.000000 0.000000 0.051435 0.000000 0.000000
# 5 0.000000 0.000000 0.000000 0.000000 0.051437 0.000000
# 6 0.000000 0.000000 0.000000 0.000000 0.000000 0.049968
#
#
# Mechanical properties :
#
#
# Convention : Reuss Voigt Hill
#
# Bulk Modulus (GPa) = 39.61097 41.01290 40.31193
# Shear Modulus (GPa) = 15.00399 16.74274 15.87336
#
# Velocity S-wave (km/s) = 2.82138 2.98037 2.90196
# Velocity P-wave (km/s) = 5.62393 5.79675 5.71100
#
# Compressibility (1/GPa) = 0.02524553
#
# Stress axis : x y z
#
# Youngs Moduli (GPa) = 38.05242 38.05217 21.71166
#
# Poissons Ratio (x) = 0.18537 0.34536
# Poissons Ratio (y) = 0.18537 0.34538
# Poissons Ratio (z) = 0.60529 0.60532
#
# Static dielectric constant tensor:
#      x y z
#    x 3.785230 0.000000 0.000000 
#    y 0.000000 3.785200 0.000000 
#    z 0.000000 0.000000 3.511940 
# 
# 
# High freq. dielectric constant tensor:
#      x y z
#    x 1.722330 0.000000 0.000000 
#    y 0.000000 1.722330 0.000000 
#    z 0.000000 0.000000 1.722120 
# 
# From -- ./inp_files/6267.got.cif
#   From: 2010.03.12/outbox.cif.g09.slc.cpg/sg119_4_cif.got.tgz:6267.got - 2010.04.14 02:25:26.
