data_PCOD8310835
_publ_section_title
;
Structure prediction by ZEFSAII (Michael W. Deem and Ramdas Pophale) SiO2 
 PCOD8310835
Probable space group: I -4 M 2
;
_chemical_formula_sum "Si O2"
_cell_formula_units_Z 88
_cell_length_a 11.936169
_cell_length_b 11.936169
_cell_length_c 33.405592
_cell_angle_alpha 90.000000
_cell_angle_beta 90.000000
_cell_angle_gamma 90.000000
_cell_volume 4759.365859
_symmetry_space_group_name_H-M "I -4 M 2"
_symmetry_group_IT_number 119
_symmetry_cell_setting 'tetragonal'
loop_
_space_group_symop_operation_xyz
x,y,z
y,-x,-z
-x,-y,z
-y,x,-z
y,x,-z
-y,-x,-z
-x,y,z
x,-y,z
1/2+x,1/2+y,1/2+z
1/2+y,1/2-x,1/2-z
1/2-x,1/2-y,1/2+z
1/2-y,1/2+x,1/2-z
1/2+y,1/2+x,1/2-z
1/2-y,1/2-x,1/2-z
1/2-x,1/2+y,1/2+z
1/2+x,1/2-y,1/2+z
loop_
_atom_site_type_symbol
_atom_site_label
_atom_site_fract_x
_atom_site_fract_y
_atom_site_fract_z
Si Si1 0.871134 0.624799 0.987210
Si Si2 0.229221 0.127377 0.218983
Si Si3 0.712104 0.235611 0.935819
Si Si4 0.866490 0.000000 0.591800
Si Si5 0.129485 0.262715 0.149045
Si Si6 0.000000 0.285685 0.334046
Si Si7 0.621246 0.500000 0.235615
O O1 0.820642 0.500000 0.987867
O O2 0.815449 0.692689 0.951381
O O3 0.000000 0.623289 0.976717
O O4 0.854781 0.679037 0.030782
O O5 0.314993 0.185008 0.250000
O O6 0.216620 0.193164 0.176845
O O7 0.106741 0.128242 0.236718
O O8 0.270954 0.000000 0.211077
O O9 0.609998 0.321095 0.929950
O O10 0.751285 0.169951 0.896449
O O11 0.820561 0.000000 0.636726
O O12 0.000000 0.000000 0.591829
O O13 0.135097 0.393115 0.160684
O O14 0.000000 0.222677 0.153133
O O15 0.000000 0.231395 0.290749
O O16 0.500000 0.500000 0.212757
#
# Coordination Sequence:
#
# PCOD8310835 Si02
#       7
#    16  16  16   8  16   8   8
#     4  10  20  37  58  81 114 153 193 235 286 347
#     4  11  23  40  61  85 117 156 200 246 296 350
#     4  10  21  36  56  86 115 152 190 238 294 347
#     4  10  19  33  53  84 119 147 186 238 294 352
#     4  11  22  37  58  87 119 150 193 241 296 354
#     4  10  20  34  56  86 118 154 184 234 294 351
#     4  10  19  35  59  84 111 151 190 235 293 344
#
# _framework density 18.489857000000001
#
# number of rings (size 3 to 8) (size 9 to 14) (size 15 to 20)
#    0.000    1.636    3.636    1.636    0.000    0.909 
#    0.000    0.909    0.000    8.727    0.000    0.000 
#    0.000    0.000    0.000    0.000    0.000    0.000 
#
# Total GULP energy -545528.752622 kJ/mol
# GULP energy per Si atom -12398.380741 kJ/mol
# Density = 1.844777 g / cm^3
# Si number density = 18.489857 Si / 1000 Ang^3
#
#
#
# Elastic Constant Matrix: (Units=GPa)
#
#
# Indices 1 2 3 4 5 6 
#
# 1 102.6295 29.8762 41.6862 0.0000 0.0000 0.0000
# 2 29.8762 102.6295 41.6860 0.0000 0.0000 0.0000
# 3 41.6862 41.6860 106.4516 0.0000 0.0000 0.0000
# 4 0.0000 0.0000 0.0000 7.3336 0.0000 0.0000
# 5 0.0000 0.0000 0.0000 0.0000 7.3340 0.0000
# 6 0.0000 0.0000 0.0000 0.0000 0.0000 42.3599
#
#
#
# Elastic Compliance Matrix: (Units=1/GPa)
#
#
# Indices 1 2 3 4 5 6 
#
# 1 0.011880 -0.001865 -0.003922 0.000000 0.000000 0.000000
# 2 -0.001865 0.011880 -0.003922 0.000000 0.000000 0.000000
# 3 -0.003922 -0.003922 0.012465 0.000000 0.000000 0.000000
# 4 0.000000 0.000000 0.000000 0.136358 0.000000 0.000000
# 5 0.000000 0.000000 0.000000 0.000000 0.136351 0.000000
# 6 0.000000 0.000000 0.000000 0.000000 0.000000 0.023607
#
#
# Mechanical properties :
#
#
# Convention : Reuss Voigt Hill
#
# Bulk Modulus (GPa) = 59.49687 59.80080 59.64884
# Shear Modulus (GPa) = 13.98367 24.63633 19.31000
#
# Velocity S-wave (km/s) = 2.75305 3.65420 3.23516
# Velocity P-wave (km/s) = 6.50797 7.08639 6.80333
#
# Compressibility (1/GPa) = 0.01680761
#
# Stress axis : x y z
#
# Youngs Moduli (GPa) = 84.17725 84.17743 80.22287
#
# Poissons Ratio (x) = 0.15702 0.31460
# Poissons Ratio (y) = 0.15702 0.31460
# Poissons Ratio (z) = 0.33011 0.33010
#
# Static dielectric constant tensor:
#      x y z
#    x 3.482960 0.000000 0.000000 
#    y 0.000000 3.482960 0.000000 
#    z 0.000000 0.000000 3.388080 
# 
# 
# High freq. dielectric constant tensor:
#      x y z
#    x 1.717470 0.000000 0.000000 
#    y 0.000000 1.717470 0.000000 
#    z 0.000000 0.000000 1.720770 
# 
# From -- ./inp_files/10299.got.cif
#   From: 2010.03.12/outbox.cif.g09.slc.cpg/sg119_6_cif.got.tgz:10299.got - 2010.04.14 02:25:26.
