data_PCOD8310261
_publ_section_title
;
Structure prediction by ZEFSAII (Michael W. Deem and Ramdas Pophale) SiO2 
 PCOD8310261
Probable space group: P -4 C 2
;
_chemical_formula_sum "Si O2"
_cell_formula_units_Z 40
_cell_length_a 14.033340
_cell_length_b 14.033340
_cell_length_c 9.012748
_cell_angle_alpha 90.000000
_cell_angle_beta 90.000000
_cell_angle_gamma 90.000000
_cell_volume 1774.922207
_symmetry_space_group_name_H-M "P -4 C 2"
_symmetry_group_IT_number 116
_symmetry_cell_setting 'tetragonal'
loop_
_space_group_symop_operation_xyz
x,y,z
y,-x,-z
-x,-y,z
-y,x,-z
y,x,1/2-z
-y,-x,1/2-z
-x,y,1/2+z
x,-y,1/2+z
loop_
_atom_site_type_symbol
_atom_site_label
_atom_site_fract_x
_atom_site_fract_y
_atom_site_fract_z
Si Si1 0.537278 0.260964 0.165764
Si Si2 0.721395 0.016853 0.464828
Si Si3 0.193930 0.190679 0.421911
Si Si4 0.301006 0.629963 0.026726
Si Si5 0.051735 0.592214 0.300826
O O1 0.592073 0.336665 0.061185
O O2 0.559446 0.269641 0.340238
O O3 0.563991 0.152681 0.126233
O O4 0.426880 0.285574 0.128174
O O5 0.805141 0.082585 0.533274
O O6 0.681611 0.059246 0.311160
O O7 0.764285 0.911655 0.458835
O O8 0.628224 0.016757 0.568261
O O9 0.211618 0.211618 0.250000
O O10 0.240695 0.273198 0.521896
O O11 0.000000 0.500000 0.228484
#
# Coordination Sequence:
#
# PCOD8310261 Si02
#       5
#     8   8   8   8   8
#     4  11  26  45  72 108 148 196 246 312 375 449
#     4  12  26  46  74 106 150 199 252 317 378 455
#     4  12  26  48  73 110 150 199 251 320 385 453
#     4  11  26  46  74 107 150 195 246 309 380 448
#     4  12  25  43  72 111 147 193 256 318 376 443
#
# _framework density 22.536200999999998
#
# number of rings (size 3 to 8) (size 9 to 14) (size 15 to 20)
#    0.000    0.400    6.000    1.800    5.600    1.600 
#    0.000    3.000    0.000    0.000    0.000    0.000 
#    0.000    0.000    0.000    0.000    0.000    0.000 
#
# Total GULP energy -495926.272582 kJ/mol
# GULP energy per Si atom -12398.156815 kJ/mol
# Density = 2.248491 g / cm^3
# Si number density = 22.536201 Si / 1000 Ang^3
#
#
#
# Elastic Constant Matrix: (Units=GPa)
#
#
# Indices 1 2 3 4 5 6 
#
# 1 120.7095 56.6641 34.9526 0.0000 0.0000 0.0000
# 2 56.6641 120.7095 34.9526 0.0000 0.0000 0.0000
# 3 34.9526 34.9526 83.7418 0.0000 0.0000 0.0000
# 4 0.0000 0.0000 0.0000 37.3746 0.0000 0.0000
# 5 0.0000 0.0000 0.0000 0.0000 37.3746 0.0000
# 6 0.0000 0.0000 0.0000 0.0000 0.0000 34.9579
#
#
#
# Elastic Compliance Matrix: (Units=1/GPa)
#
#
# Indices 1 2 3 4 5 6 
#
# 1 0.011181 -0.004433 -0.002816 0.000000 0.000000 0.000000
# 2 -0.004433 0.011181 -0.002816 0.000000 0.000000 0.000000
# 3 -0.002816 -0.002816 0.014293 0.000000 0.000000 0.000000
# 4 0.000000 0.000000 0.000000 0.026756 0.000000 0.000000
# 5 0.000000 0.000000 0.000000 0.000000 0.026756 0.000000
# 6 0.000000 0.000000 0.000000 0.000000 0.000000 0.028606
#
#
# Mechanical properties :
#
#
# Convention : Reuss Voigt Hill
#
# Bulk Modulus (GPa) = 60.52378 64.25545 62.38961
# Shear Modulus (GPa) = 34.62321 35.18084 34.90202
#
# Velocity S-wave (km/s) = 3.92387 3.95534 3.93963
# Velocity P-wave (km/s) = 6.88793 7.03090 6.95978
#
# Compressibility (1/GPa) = 0.01652243
#
# Stress axis : x y z
#
# Youngs Moduli (GPa) = 89.43851 89.43851 69.96652
#
# Poissons Ratio (x) = 0.39649 0.19706
# Poissons Ratio (y) = 0.39649 0.19706
# Poissons Ratio (z) = 0.25190 0.25190
#
# Static dielectric constant tensor:
#      x y z
#    x 4.068010 0.000000 0.000000 
#    y 0.000000 4.068010 0.000000 
#    z 0.000000 0.000000 3.973440 
# 
# 
# High freq. dielectric constant tensor:
#      x y z
#    x 1.889510 0.000000 0.000000 
#    y 0.000000 1.889510 0.000000 
#    z 0.000000 0.000000 1.890290 
# 
# From -- ./inp_files/783.got.cif
#   From: 2010.03.12/outbox.cif.g09.slc.cpg/sg116_1_cif.got.tgz:783.got - 2010.04.14 02:15:44.
