data_PCOD8310001
_publ_section_title
;
Structure prediction by ZEFSAII (Michael W. Deem and Ramdas Pophale) SiO2 
 PCOD8310001
Probable space group: P -4 M 2
;
_chemical_formula_sum "Si O2"
_cell_formula_units_Z 29
_cell_length_a 8.084148
_cell_length_b 8.084148
_cell_length_c 20.376579
_cell_angle_alpha 90.000000
_cell_angle_beta 90.000000
_cell_angle_gamma 90.000000
_cell_volume 1331.679714
_symmetry_space_group_name_H-M "P -4 M 2"
_symmetry_group_IT_number 115
_symmetry_cell_setting 'tetragonal'
loop_
_space_group_symop_operation_xyz
x,y,z
y,-x,-z
-x,-y,z
-y,x,-z
y,x,-z
-y,-x,-z
-x,y,z
x,-y,z
loop_
_atom_site_type_symbol
_atom_site_label
_atom_site_fract_x
_atom_site_fract_y
_atom_site_fract_z
Si Si1 0.305781 0.185209 0.069741
Si Si2 0.189373 0.685799 0.669327
Si Si3 0.312598 0.000000 0.594532
Si Si4 0.000000 0.000000 0.500000
Si Si5 0.310703 0.814357 0.796754
O O1 0.500000 0.195228 0.072502
O O2 0.234037 0.297156 0.127377
O O3 0.240468 0.000000 0.080446
O O4 0.248340 0.248340 0.000000
O O5 0.246787 0.500000 0.647732
O O6 0.205137 0.697500 0.748418
O O7 0.000000 0.712559 0.648327
O O8 0.297134 0.831835 0.637051
O O9 0.171165 0.000000 0.539786
O O10 0.500000 0.000000 0.564828
O O11 0.500000 0.798341 0.775547
O O12 0.245403 0.000000 0.787324
#
# Coordination Sequence:
#
# PCOD8310001 Si02
#       5
#     8   8   4   1   8
#     4  11  24  40  57  81 115 160 216 277 344 417
#     4  11  23  42  71 106 144 187 236 291 351 413
#     4  12  26  48  78 110 148 193 237 286 345 408
#     4  12  28  52  76 112 156 192 234 284 340 404
#     4  11  23  38  60  93 130 171 222 281 344 412
#
# _framework density 21.777011000000002
#
# number of rings (size 3 to 8) (size 9 to 14) (size 15 to 20)
#    0.000    0.828    2.759    4.138    0.000   13.793 
#    0.000    0.000    0.000    0.000    0.000    0.000 
#    0.000    0.000    0.000    0.000    0.000    0.000 
#
# Total GULP energy -359611.223612 kJ/mol
# GULP energy per Si atom -12400.387021 kJ/mol
# Density = 2.172745 g / cm^3
# Si number density = 21.777011 Si / 1000 Ang^3
#
#
#
# Elastic Constant Matrix: (Units=GPa)
#
#
# Indices 1 2 3 4 5 6 
#
# 1 118.6077 55.9528 38.4044 0.0000 0.0000 0.0000
# 2 55.9528 118.6077 38.4044 0.0000 0.0000 0.0000
# 3 38.4044 38.4044 99.5232 0.0000 0.0000 0.0000
# 4 0.0000 0.0000 0.0000 28.8478 0.0000 0.0000
# 5 0.0000 0.0000 0.0000 0.0000 28.8478 0.0000
# 6 0.0000 0.0000 0.0000 0.0000 0.0000 19.9706
#
#
#
# Elastic Compliance Matrix: (Units=1/GPa)
#
#
# Indices 1 2 3 4 5 6 
#
# 1 0.011430 -0.004530 -0.002663 0.000000 0.000000 0.000000
# 2 -0.004530 0.011430 -0.002663 0.000000 0.000000 0.000000
# 3 -0.002663 -0.002663 0.012103 0.000000 0.000000 0.000000
# 4 0.000000 0.000000 0.000000 0.034665 0.000000 0.000000
# 5 0.000000 0.000000 0.000000 0.000000 0.034665 0.000000
# 6 0.000000 0.000000 0.000000 0.000000 0.000000 0.050073
#
#
# Mechanical properties :
#
#
# Convention : Reuss Voigt Hill
#
# Bulk Modulus (GPa) = 65.56238 66.91798 66.24018
# Shear Modulus (GPa) = 27.90776 29.13174 28.51975
#
# Velocity S-wave (km/s) = 3.58372 3.66147 3.62280
# Velocity P-wave (km/s) = 6.87718 6.97643 6.92698
#
# Compressibility (1/GPa) = 0.01525265
#
# Stress axis : x y z
#
# Youngs Moduli (GPa) = 87.48627 87.48627 82.62479
#
# Poissons Ratio (x) = 0.39632 0.22001
# Poissons Ratio (y) = 0.39632 0.22001
# Poissons Ratio (z) = 0.23295 0.23295
#
# Static dielectric constant tensor:
#      x y z
#    x 4.058800 0.000000 0.000000 
#    y 0.000000 4.058800 0.000000 
#    z 0.000000 0.000000 3.374450 
# 
# 
# High freq. dielectric constant tensor:
#      x y z
#    x 1.865520 0.000000 0.000000 
#    y 0.000000 1.865520 0.000000 
#    z 0.000000 0.000000 1.846910 
# 
# From -- ./inp_files/4545.got.cif
#   From: 2010.03.12/outbox.cif.g09.slc.cpg/sg115_3_cif.got.tgz:4545.got - 2010.04.14 02:11:21.
