data_PCOD8310865
_publ_section_title
;
Structure prediction by ZEFSAII (Michael W. Deem and Ramdas Pophale) SiO2 
 PCOD8310865
Probable space group: I -4 M 2
;
_chemical_formula_sum "Si O2"
_cell_formula_units_Z 112
_cell_length_a 23.715199
_cell_length_b 23.715199
_cell_length_c 12.352496
_cell_angle_alpha 90.000000
_cell_angle_beta 90.000000
_cell_angle_gamma 90.000000
_cell_volume 6947.175473
_symmetry_space_group_name_H-M "I -4 M 2"
_symmetry_group_IT_number 119
_symmetry_cell_setting 'tetragonal'
loop_
_space_group_symop_operation_xyz
x,y,z
y,-x,-z
-x,-y,z
-y,x,-z
y,x,-z
-y,-x,-z
-x,y,z
x,-y,z
1/2+x,1/2+y,1/2+z
1/2+y,1/2-x,1/2-z
1/2-x,1/2-y,1/2+z
1/2-y,1/2+x,1/2-z
1/2+y,1/2+x,1/2-z
1/2-y,1/2-x,1/2-z
1/2-x,1/2+y,1/2+z
1/2+x,1/2-y,1/2+z
loop_
_atom_site_type_symbol
_atom_site_label
_atom_site_fract_x
_atom_site_fract_y
_atom_site_fract_z
Si Si1 0.563442 0.759832 0.104454
Si Si2 0.629790 0.276414 0.520307
Si Si3 0.268765 0.290115 0.163463
Si Si4 0.347836 0.563206 0.044569
Si Si5 0.201174 0.325253 0.971366
Si Si6 0.064387 0.810589 0.817124
Si Si7 0.618045 0.662577 0.734907
O O1 0.500000 0.785289 0.093560
O O2 0.610437 0.808006 0.073073
O O3 0.573622 0.736684 0.225090
O O4 0.572564 0.708883 0.021732
O O5 0.685658 0.314343 0.500000
O O6 0.646881 0.209696 0.515113
O O7 0.581916 0.283807 0.431192
O O8 0.602858 0.294877 0.636025
O O9 0.218976 0.281025 0.250000
O O10 0.288609 0.228563 0.124743
O O11 0.321104 0.321391 0.216135
O O12 0.246009 0.329924 0.068486
O O13 0.370452 0.500000 0.026782
O O14 0.335631 0.570555 0.172932
O O15 0.394488 0.605513 0.000000
O O16 0.098549 0.869384 0.802132
O O17 0.000000 0.829782 0.821113
#
# Coordination Sequence:
#
# PCOD8310865 Si02
#       7
#    16  16  16  16  16  16  16
#     4  10  20  31  46  67  94 129 160 185 238 296
#     4  10  20  31  46  73  94 120 162 197 242 295
#     4  11  17  26  42  69  98 119 146 189 236 290
#     4  11  21  33  48  67  90 122 162 208 253 287
#     4  11  18  27  45  69  98 124 148 190 240 283
#     4  10  20  33  47  62  91 128 157 195 237 291
#     4  11  19  32  48  68  91 121 160 200 240 299
#
# _framework density 16.121659000000001
#
# number of rings (size 3 to 8) (size 9 to 14) (size 15 to 20)
#    0.000    1.429    7.143    0.857    0.000    0.714 
#    0.000    0.000    0.000    0.000    0.000    0.000 
#    0.000    0.571    0.000    3.143    0.000    2.429 
#
# Total GULP energy -693955.584131 kJ/mol
# GULP energy per Si atom -12392.064002 kJ/mol
# Density = 1.608497 g / cm^3
# Si number density = 16.121659 Si / 1000 Ang^3
#
#
#
# Elastic Constant Matrix: (Units=GPa)
#
#
# Indices 1 2 3 4 5 6 
#
# 1 56.3501 13.0981 28.6362 0.0000 0.0000 0.0000
# 2 13.0981 56.3501 28.6359 0.0000 0.0000 0.0000
# 3 28.6362 28.6359 110.8576 0.0000 0.0000 0.0000
# 4 0.0000 0.0000 0.0000 16.1650 0.0000 0.0000
# 5 0.0000 0.0000 0.0000 0.0000 16.1651 0.0000
# 6 0.0000 0.0000 0.0000 0.0000 0.0000 12.7282
#
#
#
# Elastic Compliance Matrix: (Units=1/GPa)
#
#
# Indices 1 2 3 4 5 6 
#
# 1 0.020709 -0.002412 -0.004726 0.000000 0.000000 0.000000
# 2 -0.002412 0.020709 -0.004726 0.000000 0.000000 0.000000
# 3 -0.004726 -0.004726 0.011462 0.000000 0.000000 0.000000
# 4 0.000000 0.000000 0.000000 0.061862 0.000000 0.000000
# 5 0.000000 0.000000 0.000000 0.000000 0.061862 0.000000
# 6 0.000000 0.000000 0.000000 0.000000 0.000000 0.078566
#
#
# Mechanical properties :
#
#
# Convention : Reuss Voigt Hill
#
# Bulk Modulus (GPa) = 34.30439 40.47757 37.39098
# Shear Modulus (GPa) = 17.32416 19.22419 18.27417
#
# Velocity S-wave (km/s) = 3.28165 3.45693 3.37043
# Velocity P-wave (km/s) = 5.97358 6.41060 6.19594
#
# Compressibility (1/GPa) = 0.02915079
#
# Stress axis : x y z
#
# Youngs Moduli (GPa) = 48.28905 48.28922 87.24219
#
# Poissons Ratio (x) = 0.11646 0.41234
# Poissons Ratio (y) = 0.11646 0.41233
# Poissons Ratio (z) = 0.22823 0.22823
#
# Static dielectric constant tensor:
#      x y z
#    x 2.844800 0.000000 0.000000 
#    y 0.000000 2.844800 0.000000 
#    z 0.000000 0.000000 3.392770 
# 
# 
# High freq. dielectric constant tensor:
#      x y z
#    x 1.582230 0.000000 0.000000 
#    y 0.000000 1.582230 0.000000 
#    z 0.000000 0.000000 1.643740 
# 
# From -- ./inp_files/4364.got.cif
#   From: 2010.03.12/outbox.cif.g09.slc.cpg/sg119_3_cif.got.tgz:4364.got - 2010.04.14 02:25:26.
