data_PCOD8310832
_publ_section_title
;
Structure prediction by ZEFSAII (Michael W. Deem and Ramdas Pophale) SiO2 
 PCOD8310832
Probable space group: I -4 M 2
;
_chemical_formula_sum "Si O2"
_cell_formula_units_Z 120
_cell_length_a 17.703892
_cell_length_b 17.703892
_cell_length_c 20.918169
_cell_angle_alpha 90.000000
_cell_angle_beta 90.000000
_cell_angle_gamma 90.000000
_cell_volume 6556.335521
_symmetry_space_group_name_H-M "I -4 M 2"
_symmetry_group_IT_number 119
_symmetry_cell_setting 'tetragonal'
loop_
_space_group_symop_operation_xyz
x,y,z
y,-x,-z
-x,-y,z
-y,x,-z
y,x,-z
-y,-x,-z
-x,y,z
x,-y,z
1/2+x,1/2+y,1/2+z
1/2+y,1/2-x,1/2-z
1/2-x,1/2-y,1/2+z
1/2-y,1/2+x,1/2-z
1/2+y,1/2+x,1/2-z
1/2-y,1/2-x,1/2-z
1/2-x,1/2+y,1/2+z
1/2+x,1/2-y,1/2+z
loop_
_atom_site_type_symbol
_atom_site_label
_atom_site_fract_x
_atom_site_fract_y
_atom_site_fract_z
Si Si1 0.181625 0.822173 0.893659
Si Si2 0.090196 0.090196 0.000000
Si Si3 0.303122 0.916958 0.827136
Si Si4 0.728115 0.677153 0.078090
Si Si5 0.415029 0.769843 0.295772
Si Si6 0.290885 0.084339 0.682030
Si Si7 0.913858 0.753003 0.539889
Si Si8 0.159242 0.415473 0.834267
O O1 0.238555 0.887549 0.873418
O O2 0.235738 0.758225 0.925684
O O3 0.141095 0.787828 0.831091
O O4 0.119446 0.859771 0.940111
O O5 0.000000 0.104672 0.009337
O O6 0.269513 0.914470 0.755981
O O7 0.382287 0.873646 0.831490
O O8 0.323853 0.000000 0.849730
O O9 0.732875 0.640768 0.147852
O O10 0.638748 0.677612 0.063098
O O11 0.773588 0.623501 0.027686
O O12 0.500000 0.742031 0.308632
O O13 0.398650 0.774778 0.219076
O O14 0.406374 0.854048 0.325473
O O15 0.287240 0.000000 0.653881
O O16 0.909855 0.688369 0.593370
O O17 0.000000 0.780052 0.529517
O O18 0.127358 0.500000 0.821802
#
# Coordination Sequence:
#
# PCOD8310832 Si02
#       8
#    16   8  16  16  16  16  16  16
#     4  11  21  35  56  78 106 134 178 224 262 313
#     4  11  24  40  56  74 100 136 174 217 270 320
#     4   9  19  33  52  78 106 140 176 216 264 311
#     4  10  20  33  55  81 106 138 177 217 265 311
#     4  10  20  33  53  80 109 142 178 220 268 315
#     4   9  18  32  53  80 108 138 173 214 264 316
#     4  10  19  33  52  77 107 137 174 216 261 312
#     4   9  19  33  52  78 110 143 175 215 265 320
#
# _framework density 18.302906
#
# number of rings (size 3 to 8) (size 9 to 14) (size 15 to 20)
#    0.000    2.200    1.333    2.000    1.867    1.600 
#    0.000    2.667    0.000    6.800    0.000    3.733 
#    0.000    0.000    0.000    0.000    0.000    0.000 
#
# Total GULP energy -743364.076762 kJ/mol
# GULP energy per Si atom -12389.401279 kJ/mol
# Density = 1.826125 g / cm^3
# Si number density = 18.302906 Si / 1000 Ang^3
#
#
#
# Elastic Constant Matrix: (Units=GPa)
#
#
# Indices 1 2 3 4 5 6 
#
# 1 75.5509 15.4253 9.3907 0.0000 0.0000 0.0000
# 2 15.4253 75.5510 9.3907 0.0000 0.0000 0.0000
# 3 9.3907 9.3907 37.0114 0.0000 0.0000 0.0000
# 4 0.0000 0.0000 0.0000 27.5822 0.0000 0.0000
# 5 0.0000 0.0000 0.0000 0.0000 27.5822 0.0000
# 6 0.0000 0.0000 0.0000 0.0000 0.0000 17.0935
#
#
#
# Elastic Compliance Matrix: (Units=1/GPa)
#
#
# Indices 1 2 3 4 5 6 
#
# 1 0.014116 -0.002516 -0.002943 0.000000 0.000000 0.000000
# 2 -0.002516 0.014116 -0.002943 0.000000 0.000000 0.000000
# 3 -0.002943 -0.002943 0.028512 0.000000 0.000000 0.000000
# 4 0.000000 0.000000 0.000000 0.036255 0.000000 0.000000
# 5 0.000000 0.000000 0.000000 0.000000 0.036255 0.000000
# 6 0.000000 0.000000 0.000000 0.000000 0.000000 0.058502
#
#
# Mechanical properties :
#
#
# Convention : Reuss Voigt Hill
#
# Bulk Modulus (GPa) = 25.03832 28.50297 26.77065
# Shear Modulus (GPa) = 22.94912 24.71202 23.83057
#
# Velocity S-wave (km/s) = 3.54482 3.67845 3.61225
# Velocity P-wave (km/s) = 5.51942 5.80070 5.66180
#
# Compressibility (1/GPa) = 0.03993878
#
# Stress axis : x y z
#
# Youngs Moduli (GPa) = 70.84337 70.84338 35.07278
#
# Poissons Ratio (x) = 0.17826 0.10322
# Poissons Ratio (y) = 0.17826 0.10322
# Poissons Ratio (z) = 0.20850 0.20850
#
# Static dielectric constant tensor:
#      x y z
#    x 3.349130 0.000000 0.000000 
#    y 0.000000 3.349130 0.000000 
#    z 0.000000 0.000000 3.587160 
# 
# 
# High freq. dielectric constant tensor:
#      x y z
#    x 1.696140 0.000000 0.000000 
#    y 0.000000 1.696140 0.000000 
#    z 0.000000 0.000000 1.720840 
# 
# From -- ./inp_files/8091.got.cif
#   From: 2010.03.12/outbox.cif.g09.slc.cpg/sg119_5_cif.got.tgz:8091.got - 2010.04.14 02:25:26.
