data_PCOD8310190
_publ_section_title
;
Structure prediction by ZEFSAII (Michael W. Deem and Ramdas Pophale) SiO2 
 PCOD8310190
Probable space group: P -4 C 2
;
_chemical_formula_sum "Si O2"
_cell_formula_units_Z 56
_cell_length_a 14.774154
_cell_length_b 14.774154
_cell_length_c 12.031927
_cell_angle_alpha 90.000000
_cell_angle_beta 90.000000
_cell_angle_gamma 90.000000
_cell_volume 2626.276403
_symmetry_space_group_name_H-M "P -4 C 2"
_symmetry_group_IT_number 116
_symmetry_cell_setting 'tetragonal'
loop_
_space_group_symop_operation_xyz
x,y,z
y,-x,-z
-x,-y,z
-y,x,-z
y,x,1/2-z
-y,-x,1/2-z
-x,y,1/2+z
x,-y,1/2+z
loop_
_atom_site_type_symbol
_atom_site_label
_atom_site_fract_x
_atom_site_fract_y
_atom_site_fract_z
Si Si1 0.057227 0.584475 0.571437
Si Si2 0.629544 0.553319 0.524886
Si Si3 0.244978 0.064695 0.574354
Si Si4 0.776674 0.867108 0.023812
Si Si5 0.354725 0.744814 0.652257
Si Si6 0.905197 0.326296 0.198520
Si Si7 0.783159 0.506397 0.690512
O O1 0.062962 0.652761 0.469485
O O2 0.157466 0.552164 0.603610
O O3 0.000000 0.500000 0.526189
O O4 0.004452 0.629818 0.676543
O O5 0.605278 0.465053 0.448892
O O6 0.688037 0.625995 0.457853
O O7 0.683995 0.525387 0.636785
O O8 0.188138 0.132187 0.497642
O O9 0.251865 0.091558 0.703723
O O10 0.196994 0.967317 0.564503
O O11 0.716647 0.822538 0.121076
O O12 0.720949 0.869599 0.911335
O O13 0.316080 0.683921 0.750000
O O14 0.450595 0.781283 0.695231
O O15 0.831374 0.401746 0.227267
#
# Coordination Sequence:
#
# PCOD8310190 Si02
#       7
#     8   8   8   8   8   8   8
#     4   9  21  38  61  96 136 165 220 279 345 412
#     4  11  25  44  61  92 140 177 236 288 329 420
#     4  11  24  42  69  96 136 181 221 289 358 422
#     4  11  25  45  68 101 137 169 235 288 345 441
#     4  12  24  42  69  96 132 184 233 285 353 415
#     4  10  22  41  65  99 132 172 225 291 347 419
#     4  11  22  39  64  96 132 179 229 284 353 409
#
# _framework density 21.322963999999999
#
# number of rings (size 3 to 8) (size 9 to 14) (size 15 to 20)
#    0.000    1.286    2.857    2.143    2.000    3.714 
#    2.571    0.000    0.000    3.429    0.000    0.000 
#    0.000    0.000    0.000    0.000    0.000    0.000 
#
# Total GULP energy -694482.198365 kJ/mol
# GULP energy per Si atom -12401.467828 kJ/mol
# Density = 2.127443 g / cm^3
# Si number density = 21.322964 Si / 1000 Ang^3
#
#
#
# Elastic Constant Matrix: (Units=GPa)
#
#
# Indices 1 2 3 4 5 6 
#
# 1 101.3980 37.5195 22.7459 0.0000 0.0000 0.0000
# 2 37.5195 101.3989 22.7467 0.0000 0.0000 0.0000
# 3 22.7459 22.7467 65.5799 0.0000 0.0000 0.0000
# 4 0.0000 0.0000 0.0000 27.2999 0.0000 0.0000
# 5 0.0000 0.0000 0.0000 0.0000 27.2997 0.0000
# 6 0.0000 0.0000 0.0000 0.0000 0.0000 32.4623
#
#
#
# Elastic Compliance Matrix: (Units=1/GPa)
#
#
# Indices 1 2 3 4 5 6 
#
# 1 0.011888 -0.003767 -0.002817 0.000000 0.000000 0.000000
# 2 -0.003767 0.011888 -0.002817 0.000000 0.000000 0.000000
# 3 -0.002817 -0.002817 0.017203 0.000000 0.000000 0.000000
# 4 0.000000 0.000000 0.000000 0.036630 0.000000 0.000000
# 5 0.000000 0.000000 0.000000 0.000000 0.036630 0.000000
# 6 0.000000 0.000000 0.000000 0.000000 0.000000 0.030805
#
#
# Mechanical properties :
#
#
# Convention : Reuss Voigt Hill
#
# Bulk Modulus (GPa) = 45.09085 48.26677 46.67881
# Shear Modulus (GPa) = 29.19937 29.77005 29.48471
#
# Velocity S-wave (km/s) = 3.70454 3.74056 3.72259
# Velocity P-wave (km/s) = 6.28416 6.42969 6.35734
#
# Compressibility (1/GPa) = 0.02217745
#
# Stress axis : x y z
#
# Youngs Moduli (GPa) = 84.12001 84.12031 58.13099
#
# Poissons Ratio (x) = 0.31687 0.16373
# Poissons Ratio (y) = 0.31687 0.16374
# Poissons Ratio (z) = 0.23694 0.23695
#
# Static dielectric constant tensor:
#      x y z
#    x 3.992910 0.000000 0.000000 
#    y 0.000000 3.992900 0.000000 
#    z 0.000000 0.000000 3.618600 
# 
# 
# High freq. dielectric constant tensor:
#      x y z
#    x 1.840600 0.000000 0.000000 
#    y 0.000000 1.840600 0.000000 
#    z 0.000000 0.000000 1.822230 
# 
# From -- ./inp_files/1989.got.cif
#   From: 2010.03.12/outbox.cif.g09.slc.cpg/sg116_1_cif.got.tgz:1989.got - 2010.04.14 02:15:44.
