data_PCOD8310582
_publ_section_title
;
Structure prediction by ZEFSAII (Michael W. Deem and Ramdas Pophale) SiO2 
 PCOD8310582
Probable space group: P -4 N 2
;
_chemical_formula_sum "Si O2"
_cell_formula_units_Z 34
_cell_length_a 10.811203
_cell_length_b 10.811203
_cell_length_c 13.528909
_cell_angle_alpha 90.000000
_cell_angle_beta 90.000000
_cell_angle_gamma 90.000000
_cell_volume 1581.287434
_symmetry_space_group_name_H-M "P -4 N 2"
_symmetry_group_IT_number 118
_symmetry_cell_setting 'tetragonal'
loop_
_space_group_symop_operation_xyz
x,y,z
y,-x,-z
-x,-y,z
-y,x,-z
1/2+y,1/2+x,1/2-z
1/2-y,1/2-x,1/2-z
1/2-x,1/2+y,1/2+z
1/2+x,1/2-y,1/2+z
loop_
_atom_site_type_symbol
_atom_site_label
_atom_site_fract_x
_atom_site_fract_y
_atom_site_fract_z
Si Si1 0.704570 0.214905 0.358050
Si Si2 0.386976 0.906459 0.543682
Si Si3 0.860616 0.979780 0.623704
Si Si4 0.992510 0.804513 0.156226
Si Si5 0.000000 0.000000 0.000000
O O1 0.664034 0.164034 0.250000
O O2 0.608699 0.170603 0.441189
O O3 0.835614 0.157935 0.382344
O O4 0.716493 0.362110 0.357038
O O5 0.418353 0.822015 0.638521
O O6 0.500000 0.000000 0.534390
O O7 0.249274 0.961201 0.557890
O O8 0.853562 0.036519 0.734310
O O9 0.000000 0.000000 0.582115
O O10 0.941684 0.897976 0.072915
#
# Coordination Sequence:
#
# PCOD8310582 Si02
#       5
#     8   8   8   8   2
#     4  10  24  43  65  94 135 177 219 283 349 400
#     4  12  25  41  71 101 134 182 233 279 343 423
#     4  11  25  41  66 100 137 177 224 286 344 408
#     4  11  22  43  67  96 131 176 228 283 342 409
#     4  12  20  40  72  88 126 176 228 276 336 404
#
# _framework density 21.501465
#
# number of rings (size 3 to 8) (size 9 to 14) (size 15 to 20)
#    0.000    0.941    5.882    0.706    3.294    1.412 
#    0.000    0.000    5.176    0.000    0.000    0.000 
#    0.000    0.000    0.000    0.000    0.000    0.000 
#
# Total GULP energy -421442.397835 kJ/mol
# GULP energy per Si atom -12395.364642 kJ/mol
# Density = 2.145253 g / cm^3
# Si number density = 21.501465 Si / 1000 Ang^3
#
#
#
# Elastic Constant Matrix: (Units=GPa)
#
#
# Indices 1 2 3 4 5 6 
#
# 1 325.5141 -192.6819 28.5822 0.0000 0.0000 0.0000
# 2 -192.6819 325.5141 28.5822 0.0000 0.0000 0.0000
# 3 28.5822 28.5822 122.2280 0.0000 0.0000 0.0000
# 4 0.0000 0.0000 0.0000 26.2160 0.0000 0.0000
# 5 0.0000 0.0000 0.0000 0.0000 26.2160 0.0000
# 6 0.0000 0.0000 0.0000 0.0000 0.0000 25.5076
#
#
#
# Elastic Compliance Matrix: (Units=1/GPa)
#
#
# Indices 1 2 3 4 5 6 
#
# 1 0.005150 0.003220 -0.001957 0.000000 0.000000 0.000000
# 2 0.003220 0.005150 -0.001957 0.000000 0.000000 0.000000
# 3 -0.001957 -0.001957 0.009097 0.000000 0.000000 0.000000
# 4 0.000000 0.000000 0.000000 0.038145 0.000000 0.000000
# 5 0.000000 0.000000 0.000000 0.000000 0.038145 0.000000
# 6 0.000000 0.000000 0.000000 0.000000 0.000000 0.039204
#
#
# Mechanical properties :
#
#
# Convention : Reuss Voigt Hill
#
# Bulk Modulus (GPa) = 55.52920 55.80235 55.66578
# Shear Modulus (GPa) = 35.14141 76.17283 55.65712
#
# Velocity S-wave (km/s) = 4.04712 5.95850 5.09328
# Velocity P-wave (km/s) = 6.90802 8.56431 7.78037
#
# Compressibility (1/GPa) = 0.01800854
#
# Stress axis : x y z
#
# Youngs Moduli (GPa) = 194.16618 194.16618 109.92758
#
# Poissons Ratio (x) = -0.62530 0.21518
# Poissons Ratio (y) = -0.62530 0.21518
# Poissons Ratio (z) = 0.38007 0.38007
#
# Static dielectric constant tensor:
#      x y z
#    x 3.826730 0.000000 0.000000 
#    y 0.000000 3.826730 0.000000 
#    z 0.000000 0.000000 3.117280 
# 
# 
# High freq. dielectric constant tensor:
#      x y z
#    x 1.837020 0.000000 0.000000 
#    y 0.000000 1.837020 0.000000 
#    z 0.000000 0.000000 1.865110 
# 
# From -- ./inp_files/2917.got.cif
#   From: 2010.03.12/outbox.cif.g09.slc.cpg/sg118_2_cif.got.tgz:2917.got - 2010.04.14 02:21:17.
