data_PCOD8310983
_publ_section_title
;
Structure prediction by ZEFSAII (Michael W. Deem and Ramdas Pophale) SiO2 
 PCOD8310983
Probable space group: I -4 M 2
;
_chemical_formula_sum "Si O2"
_cell_formula_units_Z 96
_cell_length_a 23.341625
_cell_length_b 23.341625
_cell_length_c 9.178113
_cell_angle_alpha 90.000000
_cell_angle_beta 90.000000
_cell_angle_gamma 90.000000
_cell_volume 5000.524684
_symmetry_space_group_name_H-M "I -4 M 2"
_symmetry_group_IT_number 119
_symmetry_cell_setting 'tetragonal'
loop_
_space_group_symop_operation_xyz
x,y,z
y,-x,-z
-x,-y,z
-y,x,-z
y,x,-z
-y,-x,-z
-x,y,z
x,-y,z
1/2+x,1/2+y,1/2+z
1/2+y,1/2-x,1/2-z
1/2-x,1/2-y,1/2+z
1/2-y,1/2+x,1/2-z
1/2+y,1/2+x,1/2-z
1/2-y,1/2-x,1/2-z
1/2-x,1/2+y,1/2+z
1/2+x,1/2-y,1/2+z
loop_
_atom_site_type_symbol
_atom_site_label
_atom_site_fract_x
_atom_site_fract_y
_atom_site_fract_z
Si Si1 0.372965 0.565890 0.626323
Si Si2 0.353594 0.067396 0.157011
Si Si3 0.567647 0.263159 0.194397
Si Si4 0.433819 0.743815 0.868373
Si Si5 0.650653 0.931984 0.822596
Si Si6 0.883103 0.064448 0.633943
O O1 0.389780 0.610221 0.500000
O O2 0.366467 0.500000 0.570761
O O3 0.316562 0.590124 0.709022
O O4 0.424693 0.569649 0.742276
O O5 0.403821 0.096179 0.250000
O O6 0.293561 0.086470 0.223379
O O7 0.363955 0.000000 0.169123
O O8 0.350813 0.087877 0.990136
O O9 0.500000 0.271221 0.182647
O O10 0.593890 0.258584 0.031044
O O11 0.500000 0.759930 0.885794
O O12 0.407664 0.792251 0.760287
O O13 0.425405 0.680676 0.799282
O O14 0.594332 0.905669 0.750000
O O15 0.646854 0.000000 0.810909
O O16 0.892800 0.107201 0.500000
O O17 0.889142 0.000000 0.574378
#
# Coordination Sequence:
#
# PCOD8310983 Si02
#       6
#    16  16  16  16  16  16
#     4  11  23  36  52  79 114 153 192 238 295 349
#     4  10  21  36  58  87 117 151 186 225 276 336
#     4   9  18  35  55  77 108 147 191 230 272 333
#     4   9  18  34  55  79 108 145 190 233 274 330
#     4  10  21  36  58  88 117 148 185 229 280 332
#     4  11  21  34  54  81 112 149 191 237 290 346
#
# _framework density 19.197986
#
# number of rings (size 3 to 8) (size 9 to 14) (size 15 to 20)
#    0.000    2.000    1.667    2.000    2.333    4.333 
#    0.000    1.667    0.000    1.000    0.000    0.000 
#    0.000    0.000    0.000    0.000    0.000    0.000 
#
# Total GULP energy -594890.328892 kJ/mol
# GULP energy per Si atom -12393.548519 kJ/mol
# Density = 1.915429 g / cm^3
# Si number density = 19.197986 Si / 1000 Ang^3
#
#
#
# Elastic Constant Matrix: (Units=GPa)
#
#
# Indices 1 2 3 4 5 6 
#
# 1 59.2069 39.7834 43.3791 0.0000 0.0000 0.0000
# 2 39.7834 59.2058 43.3835 0.0000 0.0000 0.0000
# 3 43.3791 43.3835 133.0155 0.0000 0.0000 0.0000
# 4 0.0000 0.0000 0.0000 35.4451 0.0000 0.0000
# 5 0.0000 0.0000 0.0000 0.0000 35.4458 0.0000
# 6 0.0000 0.0000 0.0000 0.0000 0.0000 10.5521
#
#
#
# Elastic Compliance Matrix: (Units=1/GPa)
#
#
# Indices 1 2 3 4 5 6 
#
# 1 0.032814 -0.018670 -0.004612 0.000000 0.000000 0.000000
# 2 -0.018670 0.032817 -0.004615 0.000000 0.000000 0.000000
# 3 -0.004612 -0.004615 0.010527 0.000000 0.000000 0.000000
# 4 0.000000 0.000000 0.000000 0.028213 0.000000 0.000000
# 5 0.000000 0.000000 0.000000 0.000000 0.028212 0.000000
# 6 0.000000 0.000000 0.000000 0.000000 0.000000 0.094768
#
#
# Mechanical properties :
#
#
# Convention : Reuss Voigt Hill
#
# Bulk Modulus (GPa) = 49.10453 56.05780 52.58116
# Shear Modulus (GPa) = 17.24538 24.61406 20.92972
#
# Velocity S-wave (km/s) = 3.00040 3.58455 3.30541
# Velocity P-wave (km/s) = 6.13488 6.81140 6.48197
#
# Compressibility (1/GPa) = 0.02036472
#
# Stress axis : x y z
#
# Youngs Moduli (GPa) = 30.47469 30.47204 94.99264
#
# Poissons Ratio (x) = 0.56891 0.43812
# Poissons Ratio (y) = 0.56896 0.43837
# Poissons Ratio (z) = 0.14055 0.14062
#
# Static dielectric constant tensor:
#      x y z
#    x 3.352920 0.000000 0.000000 
#    y 0.000000 3.352920 0.000000 
#    z 0.000000 0.000000 3.807050 
# 
# 
# High freq. dielectric constant tensor:
#      x y z
#    x 1.724080 0.000000 0.000000 
#    y 0.000000 1.724080 0.000000 
#    z 0.000000 0.000000 1.763130 
# 
# From -- ./inp_files/2706.got.cif
#   From: 2010.03.12/outbox.cif.g09.slc.cpg/sg119_2_cif.got.tgz:2706.got - 2010.04.14 02:25:26.
