data_PCOD8310110
_publ_section_title
;
Structure prediction by ZEFSAII (Michael W. Deem and Ramdas Pophale) SiO2 
 PCOD8310110
Probable space group: P -4 C 2
;
_chemical_formula_sum "Si O2"
_cell_formula_units_Z 42
_cell_length_a 11.945221
_cell_length_b 11.945221
_cell_length_c 15.107884
_cell_angle_alpha 90.000000
_cell_angle_beta 90.000000
_cell_angle_gamma 90.000000
_cell_volume 2155.718356
_symmetry_space_group_name_H-M "P -4 C 2"
_symmetry_group_IT_number 116
_symmetry_cell_setting 'tetragonal'
loop_
_space_group_symop_operation_xyz
x,y,z
y,-x,-z
-x,-y,z
-y,x,-z
y,x,1/2-z
-y,-x,1/2-z
-x,y,1/2+z
x,-y,1/2+z
loop_
_atom_site_type_symbol
_atom_site_label
_atom_site_fract_x
_atom_site_fract_y
_atom_site_fract_z
Si Si1 0.000000 0.000000 0.250000
Si Si2 0.056651 0.196743 0.116924
Si Si3 0.626744 0.978140 0.250341
Si Si4 0.751388 0.844337 0.986023
Si Si5 0.125272 0.456286 0.410598
Si Si6 0.674601 0.789384 0.672386
O O1 0.006628 0.105848 0.184821
O O2 0.077674 0.311603 0.168282
O O3 0.970968 0.219919 0.038299
O O4 0.175467 0.172460 0.073563
O O5 0.629466 0.889312 0.170850
O O6 0.500000 0.000000 0.280332
O O7 0.689222 0.092446 0.221724
O O8 0.778302 0.765676 0.904000
O O9 0.618846 0.827307 0.008989
O O10 0.211458 0.554183 0.379001
O O11 0.000000 0.500000 0.433966
O O12 0.694318 0.694318 0.750000
#
# Coordination Sequence:
#
# PCOD8310110 Si02
#       6
#     2   8   8   8   8   8
#     4  12  24  34  52  80 134 180 190 234 310 380
#     4  12  22  36  55  87 128 160 201 241 300 371
#     4   9  19  37  62  85 118 156 204 243 294 357
#     4  12  23  36  61  91 122 158 199 252 304 354
#     4   9  21  40  59  89 120 150 208 256 289 356
#     4  10  19  40  61  89 118 159 199 252 304 364
#
# _framework density 19.483063000000001
#
# number of rings (size 3 to 8) (size 9 to 14) (size 15 to 20)
#    0.000    1.905    1.905    5.714    0.000    2.286 
#    0.000    0.000    0.000    0.571    4.952    0.000 
#    0.000    0.000    0.000    0.000    0.000    0.000 
#
# Total GULP energy -520343.917036 kJ/mol
# GULP energy per Si atom -12389.140882 kJ/mol
# Density = 1.943872 g / cm^3
# Si number density = 19.483063 Si / 1000 Ang^3
#
#
#
# Elastic Constant Matrix: (Units=GPa)
#
#
# Indices 1 2 3 4 5 6 
#
# 1 80.7598 46.4180 46.2027 0.0000 0.0000 0.0000
# 2 46.4180 80.7598 46.2027 0.0000 0.0000 0.0000
# 3 46.2027 46.2027 87.2471 0.0000 0.0000 0.0000
# 4 0.0000 0.0000 0.0000 16.7433 0.0000 0.0000
# 5 0.0000 0.0000 0.0000 0.0000 16.7433 0.0000
# 6 0.0000 0.0000 0.0000 0.0000 0.0000 12.4296
#
#
#
# Elastic Compliance Matrix: (Units=1/GPa)
#
#
# Indices 1 2 3 4 5 6 
#
# 1 0.020950 -0.008169 -0.006768 0.000000 0.000000 0.000000
# 2 -0.008169 0.020950 -0.006768 0.000000 0.000000 0.000000
# 3 -0.006768 -0.006768 0.018630 0.000000 0.000000 0.000000
# 4 0.000000 0.000000 0.000000 0.059725 0.000000 0.000000
# 5 0.000000 0.000000 0.000000 0.000000 0.059725 0.000000
# 6 0.000000 0.000000 0.000000 0.000000 0.000000 0.080453
#
#
# Mechanical properties :
#
#
# Convention : Reuss Voigt Hill
#
# Bulk Modulus (GPa) = 58.41559 58.49039 58.45299
# Shear Modulus (GPa) = 16.15243 16.51278 16.33261
#
# Velocity S-wave (km/s) = 2.88245 2.91442 2.89848
# Velocity P-wave (km/s) = 6.41294 6.43517 6.42407
#
# Compressibility (1/GPa) = 0.01711872
#
# Stress axis : x y z
#
# Youngs Moduli (GPa) = 47.73315 47.73315 53.67695
#
# Poissons Ratio (x) = 0.38994 0.36329
# Poissons Ratio (y) = 0.38994 0.36329
# Poissons Ratio (z) = 0.32306 0.32306
#
# Static dielectric constant tensor:
#      x y z
#    x 3.517740 0.000000 0.000000 
#    y 0.000000 3.517740 0.000000 
#    z 0.000000 0.000000 3.727610 
# 
# 
# High freq. dielectric constant tensor:
#      x y z
#    x 1.741670 0.000000 0.000000 
#    y 0.000000 1.741670 0.000000 
#    z 0.000000 0.000000 1.776570 
# 
# From -- ./inp_files/3325.got.cif
#   From: 2010.03.12/outbox.cif.g09.slc.cpg/sg116_2_cif.got.tgz:3325.got - 2010.04.14 02:15:44.
