data_PCOD8310702
_publ_section_title
;
Structure prediction by ZEFSAII (Michael W. Deem and Ramdas Pophale) SiO2 
 PCOD8310702
Probable space group: I -4 M 2
;
_chemical_formula_sum "Si O2"
_cell_formula_units_Z 96
_cell_length_a 24.088605
_cell_length_b 24.088605
_cell_length_c 10.259729
_cell_angle_alpha 90.000000
_cell_angle_beta 90.000000
_cell_angle_gamma 90.000000
_cell_volume 5953.319489
_symmetry_space_group_name_H-M "I -4 M 2"
_symmetry_group_IT_number 119
_symmetry_cell_setting 'tetragonal'
loop_
_space_group_symop_operation_xyz
x,y,z
y,-x,-z
-x,-y,z
-y,x,-z
y,x,-z
-y,-x,-z
-x,y,z
x,-y,z
1/2+x,1/2+y,1/2+z
1/2+y,1/2-x,1/2-z
1/2-x,1/2-y,1/2+z
1/2-y,1/2+x,1/2-z
1/2+y,1/2+x,1/2-z
1/2-y,1/2-x,1/2-z
1/2-x,1/2+y,1/2+z
1/2+x,1/2-y,1/2+z
loop_
_atom_site_type_symbol
_atom_site_label
_atom_site_fract_x
_atom_site_fract_y
_atom_site_fract_z
Si Si1 0.500000 0.726643 0.773234
Si Si2 0.500000 0.181740 0.968217
Si Si3 0.734681 0.327079 0.757113
Si Si4 0.273126 0.619600 0.242496
Si Si5 0.000000 0.408330 0.241690
Si Si6 0.285450 0.882166 0.016418
Si Si7 0.702760 0.117634 0.483455
Si Si8 0.314655 0.000000 0.954015
O O1 0.500000 0.755520 0.913116
O O2 0.559248 0.694129 0.756683
O O3 0.500000 0.775384 0.669555
O O4 0.500000 0.134052 0.860591
O O5 0.443449 0.178594 0.052544
O O6 0.769556 0.269556 0.750000
O O7 0.669511 0.315843 0.776754
O O8 0.742241 0.362421 0.625984
O O9 0.750881 0.364253 0.880380
O O10 0.241337 0.629276 0.377003
O O11 0.227095 0.619180 0.129219
O O12 0.055166 0.444835 0.250000
O O13 0.000000 0.377298 0.101977
O O14 0.341932 0.848805 0.028931
O O15 0.301655 0.946116 0.041003
#
# Coordination Sequence:
#
# PCOD8310702 Si02
#       8
#     8   8  16  16   8  16  16   8
#     4   7  16  27  42  65  84 111 142 173 218 269
#     4   9  17  29  43  60  89 123 153 190 235 277
#     4  10  20  30  43  67  93 119 154 191 229 281
#     4  10  17  30  48  66  90 117 148 186 228 277
#     4  10  18  27  44  70  92 118 168 222 252 271
#     4  10  19  30  45  65  90 122 156 190 234 280
#     4  10  19  30  45  65  90 122 156 190 234 280
#     4   9  17  29  43  60  89 123 153 190 235 277
#
# _framework density 16.125457000000001
#
# number of rings (size 3 to 8) (size 9 to 14) (size 15 to 20)
#    0.000    2.417    0.000    4.500    0.000    3.333 
#    0.000    0.000    0.000    0.000    0.000    0.000 
#    0.000   13.333    0.000   24.667    0.000   32.833 
#
# Total GULP energy -594866.841911 kJ/mol
# GULP energy per Si atom -12393.059206 kJ/mol
# Density = 1.608875 g / cm^3
# Si number density = 16.125457 Si / 1000 Ang^3
#
#
#
# Elastic Constant Matrix: (Units=GPa)
#
#
# Indices 1 2 3 4 5 6 
#
# 1 103.4111 43.0494 22.1702 0.0000 0.0000 0.0000
# 2 43.0494 103.4115 22.1702 0.0000 0.0000 0.0000
# 3 22.1702 22.1702 62.5579 0.0000 0.0000 0.0000
# 4 0.0000 0.0000 0.0000 14.6454 0.0000 0.0000
# 5 0.0000 0.0000 0.0000 0.0000 14.6451 0.0000
# 6 0.0000 0.0000 0.0000 0.0000 0.0000 18.5001
#
#
#
# Elastic Compliance Matrix: (Units=1/GPa)
#
#
# Indices 1 2 3 4 5 6 
#
# 1 0.012108 -0.004459 -0.002711 0.000000 0.000000 0.000000
# 2 -0.004459 0.012108 -0.002711 0.000000 0.000000 0.000000
# 3 -0.002711 -0.002711 0.017906 0.000000 0.000000 0.000000
# 4 0.000000 0.000000 0.000000 0.068281 0.000000 0.000000
# 5 0.000000 0.000000 0.000000 0.000000 0.068282 0.000000
# 6 0.000000 0.000000 0.000000 0.000000 0.000000 0.054054
#
#
# Mechanical properties :
#
#
# Convention : Reuss Voigt Hill
#
# Bulk Modulus (GPa) = 44.72078 49.35113 47.03596
# Shear Modulus (GPa) = 19.23428 21.69083 20.46256
#
# Velocity S-wave (km/s) = 3.45743 3.67158 3.56611
# Velocity P-wave (km/s) = 6.61299 6.97459 6.79620
#
# Compressibility (1/GPa) = 0.02236097
#
# Stress axis : x y z
#
# Youngs Moduli (GPa) = 82.59288 82.59317 55.84595
#
# Poissons Ratio (x) = 0.36830 0.15137
# Poissons Ratio (y) = 0.36830 0.15137
# Poissons Ratio (z) = 0.22387 0.22387
#
# Static dielectric constant tensor:
#      x y z
#    x 3.174070 0.000000 0.000000 
#    y 0.000000 3.174070 0.000000 
#    z 0.000000 0.000000 3.125060 
# 
# 
# High freq. dielectric constant tensor:
#      x y z
#    x 1.606880 0.000000 0.000000 
#    y 0.000000 1.606880 0.000000 
#    z 0.000000 0.000000 1.614400 
# 
# From -- ./inp_files/2778.got.cif
#   From: 2010.03.12/outbox.cif.g09.slc.cpg/sg119_2_cif.got.tgz:2778.got - 2010.04.14 02:25:26.
