data_PCOD8310653
_publ_section_title
;
Structure prediction by ZEFSAII (Michael W. Deem and Ramdas Pophale) SiO2 
 PCOD8310653
Probable space group: P -4 N 2
;
_chemical_formula_sum "Si O2"
_cell_formula_units_Z 10
_cell_length_a 5.239046
_cell_length_b 5.239046
_cell_length_c 13.870752
_cell_angle_alpha 90.000000
_cell_angle_beta 90.000000
_cell_angle_gamma 90.000000
_cell_volume 380.718894
_symmetry_space_group_name_H-M "P -4 N 2"
_symmetry_group_IT_number 118
_symmetry_cell_setting 'tetragonal'
loop_
_space_group_symop_operation_xyz
x,y,z
y,-x,-z
-x,-y,z
-y,x,-z
1/2+y,1/2+x,1/2-z
1/2-y,1/2-x,1/2-z
1/2-x,1/2+y,1/2+z
1/2+x,1/2-y,1/2+z
loop_
_atom_site_type_symbol
_atom_site_label
_atom_site_fract_x
_atom_site_fract_y
_atom_site_fract_z
Si Si1 0.165250 0.244901 0.355838
Si Si2 0.000000 0.000000 0.000000
O O1 0.289488 0.210513 0.250000
O O2 0.392503 0.271290 0.433238
O O3 0.000000 0.500000 0.359081
O O4 0.000000 0.000000 0.383953
#
# Coordination Sequence:
#
# PCOD8310653 Si02
#       2
#     8   2
#     4  11  27  52  81 121 171 224 290 357 426 511
#     4  12  28  48  88 120 178 224 292 352 440 506
#
# _framework density 26.266099000000001
#
# number of rings (size 3 to 8) (size 9 to 14) (size 15 to 20)
#    0.000    0.800    4.000    0.000   11.200    0.000 
#    0.000    0.000    0.000    0.000    0.000    0.000 
#    0.000    0.000    0.000    0.000    0.000    0.000 
#
# Total GULP energy -124092.674286 kJ/mol
# GULP energy per Si atom -12409.267429 kJ/mol
# Density = 2.620632 g / cm^3
# Si number density = 26.266099 Si / 1000 Ang^3
#
#
#
# Elastic Constant Matrix: (Units=GPa)
#
#
# Indices 1 2 3 4 5 6 
#
# 1 157.7944 66.4131 68.0556 0.0000 0.0000 0.0000
# 2 66.4131 157.7949 68.0557 0.0000 0.0000 0.0000
# 3 68.0556 68.0557 228.3083 0.0000 0.0000 0.0000
# 4 0.0000 0.0000 0.0000 5.7968 0.0000 0.0000
# 5 0.0000 0.0000 0.0000 0.0000 5.7934 0.0000
# 6 0.0000 0.0000 0.0000 0.0000 0.0000 68.2250
#
#
#
# Elastic Compliance Matrix: (Units=1/GPa)
#
#
# Indices 1 2 3 4 5 6 
#
# 1 0.008194 -0.002749 -0.001623 0.000000 0.000000 0.000000
# 2 -0.002749 0.008194 -0.001623 0.000000 0.000000 0.000000
# 3 -0.001623 -0.001623 0.005348 0.000000 0.000000 0.000000
# 4 0.000000 0.000000 0.000000 0.172509 0.000000 0.000000
# 5 0.000000 0.000000 0.000000 0.000000 0.172611 0.000000
# 6 0.000000 0.000000 0.000000 0.000000 0.000000 0.014657
#
#
# Mechanical properties :
#
#
# Convention : Reuss Voigt Hill
#
# Bulk Modulus (GPa) = 102.60688 105.43850 104.02269
# Shear Modulus (GPa) = 12.60231 38.72124 25.66177
#
# Velocity S-wave (km/s) = 2.19280 3.84368 3.12908
# Velocity P-wave (km/s) = 6.74984 7.74133 7.26252
#
# Compressibility (1/GPa) = 0.00974594
#
# Stress axis : x y z
#
# Youngs Moduli (GPa) = 122.03491 122.03531 186.99331
#
# Poissons Ratio (x) = 0.33545 0.30354
# Poissons Ratio (y) = 0.33545 0.30354
# Poissons Ratio (z) = 0.19809 0.19809
#
# Static dielectric constant tensor:
#      x y z
#    x 4.700590 0.000000 0.000000 
#    y 0.000000 4.700630 0.000000 
#    z 0.000000 0.000000 5.493200 
# 
# 
# High freq. dielectric constant tensor:
#      x y z
#    x 2.048220 0.000000 0.000000 
#    y 0.000000 2.048220 0.000000 
#    z 0.000000 0.000000 2.080750 
# 
# From -- ./inp_files/4327.got.cif
#   From: 2010.03.12/outbox.cif.g09.slc.cpg/sg118_3_cif.got.tgz:4327.got - 2010.04.14 02:21:17.
