data_PCOD8310715
_publ_section_title
;
Structure prediction by ZEFSAII (Michael W. Deem and Ramdas Pophale) SiO2 
 PCOD8310715
Probable space group: I -4 M 2
;
_chemical_formula_sum "Si O2"
_cell_formula_units_Z 88
_cell_length_a 13.749268
_cell_length_b 13.749268
_cell_length_c 31.864570
_cell_angle_alpha 90.000000
_cell_angle_beta 90.000000
_cell_angle_gamma 90.000000
_cell_volume 6023.753849
_symmetry_space_group_name_H-M "I -4 M 2"
_symmetry_group_IT_number 119
_symmetry_cell_setting 'tetragonal'
loop_
_space_group_symop_operation_xyz
x,y,z
y,-x,-z
-x,-y,z
-y,x,-z
y,x,-z
-y,-x,-z
-x,y,z
x,-y,z
1/2+x,1/2+y,1/2+z
1/2+y,1/2-x,1/2-z
1/2-x,1/2-y,1/2+z
1/2-y,1/2+x,1/2-z
1/2+y,1/2+x,1/2-z
1/2-y,1/2-x,1/2-z
1/2-x,1/2+y,1/2+z
1/2+x,1/2-y,1/2+z
loop_
_atom_site_type_symbol
_atom_site_label
_atom_site_fract_x
_atom_site_fract_y
_atom_site_fract_z
Si Si1 0.723585 0.385139 0.036683
Si Si2 0.112192 0.891937 0.620353
Si Si3 0.614755 0.768981 0.500250
Si Si4 0.887210 0.706731 0.666025
Si Si5 0.613740 0.886261 0.250000
Si Si6 0.109241 0.386360 0.581665
O O1 0.734782 0.500000 0.031792
O O2 0.675529 0.357001 0.080947
O O3 0.655277 0.344724 0.000000
O O4 0.830449 0.334929 0.035046
O O5 0.130904 0.822135 0.660324
O O6 0.000000 0.886654 0.606152
O O7 0.141347 0.000000 0.634834
O O8 0.659977 0.659977 0.500000
O O9 0.500000 0.764132 0.509810
O O10 0.640933 0.819006 0.455986
O O11 0.840846 0.668879 0.709452
O O12 0.844270 0.654658 0.624649
O O13 0.000000 0.678672 0.668364
O O14 0.500000 0.865271 0.256248
O O15 0.101206 0.500000 0.586567
O O16 0.000000 0.343375 0.573399
#
# Coordination Sequence:
#
# PCOD8310715 Si02
#       6
#    16  16  16  16   8  16
#     4  10  18  27  41  62  87 112 137 166 200 240
#     4   9  17  27  39  58  84 112 137 157 185 234
#     4  10  20  31  42  57  77 106 145 182 211 238
#     4   9  15  24  38  56  81 108 128 152 190 234
#     4   9  16  24  36  58  82 100 124 159 198 238
#     4   9  16  26  41  60  81 104 128 156 196 247
#
# _framework density 14.608829999999999
#
# number of rings (size 3 to 8) (size 9 to 14) (size 15 to 20)
#    0.000    2.636    0.000    3.818    0.000    5.818 
#    0.000    0.000    0.000    0.000    0.000    5.091 
#    0.000   11.636    0.000    0.000    0.000    0.000 
#
# Total GULP energy -545332.744672 kJ/mol
# GULP energy per Si atom -12393.926015 kJ/mol
# Density = 1.457558 g / cm^3
# Si number density = 14.608830 Si / 1000 Ang^3
#
#
#
# Elastic Constant Matrix: (Units=GPa)
#
#
# Indices 1 2 3 4 5 6 
#
# 1 62.9573 36.0536 44.1291 0.0000 0.0000 0.0000
# 2 36.0536 62.9561 44.1294 0.0000 0.0000 0.0000
# 3 44.1291 44.1294 95.5791 0.0000 0.0000 0.0000
# 4 0.0000 0.0000 0.0000 17.9943 0.0000 0.0000
# 5 0.0000 0.0000 0.0000 0.0000 17.9943 0.0000
# 6 0.0000 0.0000 0.0000 0.0000 0.0000 18.0036
#
#
#
# Elastic Compliance Matrix: (Units=1/GPa)
#
#
# Indices 1 2 3 4 5 6 
#
# 1 0.027167 -0.010003 -0.007924 0.000000 0.000000 0.000000
# 2 -0.010003 0.027168 -0.007925 0.000000 0.000000 0.000000
# 3 -0.007924 -0.007925 0.017780 0.000000 0.000000 0.000000
# 4 0.000000 0.000000 0.000000 0.055573 0.000000 0.000000
# 5 0.000000 0.000000 0.000000 0.000000 0.055573 0.000000
# 6 0.000000 0.000000 0.000000 0.000000 0.000000 0.055544
#
#
# Mechanical properties :
#
#
# Convention : Reuss Voigt Hill
#
# Bulk Modulus (GPa) = 48.99659 52.23521 50.61590
# Shear Modulus (GPa) = 16.81721 17.27712 17.04717
#
# Velocity S-wave (km/s) = 3.39657 3.44270 3.41971
# Velocity P-wave (km/s) = 6.99958 7.18585 7.09332
#
# Compressibility (1/GPa) = 0.02040959
#
# Stress axis : x y z
#
# Youngs Moduli (GPa) = 36.80957 36.80830 56.24198
#
# Poissons Ratio (x) = 0.36820 0.44569
# Poissons Ratio (y) = 0.36821 0.44572
# Poissons Ratio (z) = 0.29170 0.29171
#
# Static dielectric constant tensor:
#      x y z
#    x 2.844830 0.000000 0.000000 
#    y 0.000000 2.844820 0.000000 
#    z 0.000000 0.000000 2.847040 
# 
# 
# High freq. dielectric constant tensor:
#      x y z
#    x 1.545440 0.000000 0.000000 
#    y 0.000000 1.545440 0.000000 
#    z 0.000000 0.000000 1.540630 
# 
# From -- ./inp_files/9467.got.cif
#   From: 2010.03.12/outbox.cif.g09.slc.cpg/sg119_5_cif.got.tgz:9467.got - 2010.04.14 02:25:26.
