data_PCOD8310216
_publ_section_title
;
Structure prediction by ZEFSAII (Michael W. Deem and Ramdas Pophale) SiO2 
 PCOD8310216
Probable space group: P -4 C 2
;
_chemical_formula_sum "Si O2"
_cell_formula_units_Z 54
_cell_length_a 17.640834
_cell_length_b 17.640834
_cell_length_c 8.680115
_cell_angle_alpha 90.000000
_cell_angle_beta 90.000000
_cell_angle_gamma 90.000000
_cell_volume 2701.243318
_symmetry_space_group_name_H-M "P -4 C 2"
_symmetry_group_IT_number 116
_symmetry_cell_setting 'tetragonal'
loop_
_space_group_symop_operation_xyz
x,y,z
y,-x,-z
-x,-y,z
-y,x,-z
y,x,1/2-z
-y,-x,1/2-z
-x,y,1/2+z
x,-y,1/2+z
loop_
_atom_site_type_symbol
_atom_site_label
_atom_site_fract_x
_atom_site_fract_y
_atom_site_fract_z
Si Si1 0.333450 0.783256 0.822729
Si Si2 0.000000 0.000000 0.000000
Si Si3 0.181825 0.507588 0.784497
Si Si4 0.462619 0.075669 0.956733
Si Si5 0.912063 0.087938 0.750000
Si Si6 0.773711 0.339753 0.314189
Si Si7 0.930077 0.745077 0.309370
Si Si8 0.923027 0.298011 0.139446
O O1 0.283782 0.716219 0.750000
O O2 0.422062 0.769293 0.781326
O O3 0.310421 0.864478 0.752686
O O4 0.322855 0.783121 0.005634
O O5 0.041403 0.937101 0.898896
O O6 0.098256 0.498225 0.707521
O O7 0.229730 0.429574 0.777389
O O8 0.155812 0.523829 0.957672
O O9 0.374727 0.057677 0.950071
O O10 0.500000 0.000000 0.025582
O O11 0.823777 0.075976 0.780382
O O12 0.695976 0.304025 0.250000
O O13 0.842905 0.299136 0.225812
O O14 0.922216 0.760233 0.494429
O O15 0.013095 0.714263 0.267675
#
# Coordination Sequence:
#
# PCOD8310216 Si02
#       8
#     8   2   8   8   4   8   8   8
#     4  12  24  42  68  95 133 171 220 269 334 402
#     4  10  24  46  64  86 108 174 240 290 340 382
#     4  11  23  41  64  91 133 172 218 263 333 401
#     4  11  22  36  59  92 131 175 210 260 319 403
#     4  11  24  44  66  84 124 166 231 288 336 390
#     4  11  26  44  65  97 130 174 219 273 326 397
#     4  12  23  41  62  94 128 173 218 280 338 396
#     4  11  25  39  61  93 133 167 221 269 328 398
#
# _framework density 19.990794000000001
#
# number of rings (size 3 to 8) (size 9 to 14) (size 15 to 20)
#    0.000    0.741    3.704    4.000    6.222    0.000 
#    2.667    0.000    0.000    0.444    0.000    2.074 
#    0.000    0.000    0.000    0.000    0.000    0.000 
#
# Total GULP energy -669550.920067 kJ/mol
# GULP energy per Si atom -12399.091112 kJ/mol
# Density = 1.994529 g / cm^3
# Si number density = 19.990794 Si / 1000 Ang^3
#
#
#
# Elastic Constant Matrix: (Units=GPa)
#
#
# Indices 1 2 3 4 5 6 
#
# 1 110.7535 45.4912 29.6211 0.0000 0.0000 0.0000
# 2 45.4912 110.7508 29.6201 0.0000 0.0000 0.0000
# 3 29.6211 29.6201 111.7598 0.0000 0.0000 0.0000
# 4 0.0000 0.0000 0.0000 23.2057 0.0000 0.0000
# 5 0.0000 0.0000 0.0000 0.0000 23.2066 0.0000
# 6 0.0000 0.0000 0.0000 0.0000 0.0000 30.0744
#
#
#
# Elastic Compliance Matrix: (Units=1/GPa)
#
#
# Indices 1 2 3 4 5 6 
#
# 1 0.011219 -0.004104 -0.001886 0.000000 0.000000 0.000000
# 2 -0.004104 0.011219 -0.001886 0.000000 0.000000 0.000000
# 3 -0.001886 -0.001886 0.009947 0.000000 0.000000 0.000000
# 4 0.000000 0.000000 0.000000 0.043093 0.000000 0.000000
# 5 0.000000 0.000000 0.000000 0.000000 0.043091 0.000000
# 6 0.000000 0.000000 0.000000 0.000000 0.000000 0.033251
#
#
# Mechanical properties :
#
#
# Convention : Reuss Voigt Hill
#
# Bulk Modulus (GPa) = 60.11534 60.30322 60.20928
# Shear Modulus (GPa) = 28.88224 30.53278 29.70751
#
# Velocity S-wave (km/s) = 3.80515 3.91236 3.85913
# Velocity P-wave (km/s) = 7.03152 7.11616 7.07397
#
# Compressibility (1/GPa) = 0.01663469
#
# Stress axis : x y z
#
# Youngs Moduli (GPa) = 89.13381 89.13201 100.52887
#
# Poissons Ratio (x) = 0.36579 0.18958
# Poissons Ratio (y) = 0.36580 0.18958
# Poissons Ratio (z) = 0.16809 0.16808
#
# Static dielectric constant tensor:
#      x y z
#    x 3.586700 0.000000 0.000000 
#    y 0.000000 3.586670 0.000000 
#    z 0.000000 0.000000 3.822710 
# 
# 
# High freq. dielectric constant tensor:
#      x y z
#    x 1.768370 0.000000 0.000000 
#    y 0.000000 1.768370 0.000000 
#    z 0.000000 0.000000 1.803130 
# 
# From -- ./inp_files/1035.got.cif
#   From: 2010.03.12/outbox.cif.g09.slc.cpg/sg116_1_cif.got.tgz:1035.got - 2010.04.14 02:15:44.
