data_PCOD8310691
_publ_section_title
;
Structure prediction by ZEFSAII (Michael W. Deem and Ramdas Pophale) SiO2 
 PCOD8310691
Probable space group: I -4 M 2
;
_chemical_formula_sum "Si O2"
_cell_formula_units_Z 96
_cell_length_a 13.994727
_cell_length_b 13.994727
_cell_length_c 31.956941
_cell_angle_alpha 90.000000
_cell_angle_beta 90.000000
_cell_angle_gamma 90.000000
_cell_volume 6258.843074
_symmetry_space_group_name_H-M "I -4 M 2"
_symmetry_group_IT_number 119
_symmetry_cell_setting 'tetragonal'
loop_
_space_group_symop_operation_xyz
x,y,z
y,-x,-z
-x,-y,z
-y,x,-z
y,x,-z
-y,-x,-z
-x,y,z
x,-y,z
1/2+x,1/2+y,1/2+z
1/2+y,1/2-x,1/2-z
1/2-x,1/2-y,1/2+z
1/2-y,1/2+x,1/2-z
1/2+y,1/2+x,1/2-z
1/2-y,1/2-x,1/2-z
1/2-x,1/2+y,1/2+z
1/2+x,1/2-y,1/2+z
loop_
_atom_site_type_symbol
_atom_site_label
_atom_site_fract_x
_atom_site_fract_y
_atom_site_fract_z
Si Si1 0.208338 0.610424 0.212034
Si Si2 0.392538 0.391350 0.165373
Si Si3 0.217232 0.613403 0.046409
Si Si4 0.393794 0.886647 0.627572
Si Si5 0.888641 0.605742 0.534401
Si Si6 0.109865 0.211925 0.580510
O O1 0.183944 0.500000 0.222340
O O2 0.176712 0.676712 0.250000
O O3 0.321544 0.625616 0.204264
O O4 0.154701 0.646290 0.170556
O O5 0.500000 0.375241 0.181915
O O6 0.378466 0.500000 0.148246
O O7 0.367698 0.318929 0.127937
O O8 0.224170 0.500000 0.044913
O O9 0.164623 0.652346 0.088010
O O10 0.324529 0.655009 0.047530
O O11 0.158413 0.653694 0.006716
O O12 0.500000 0.843345 0.625965
O O13 0.396698 0.000000 0.625376
O O14 0.841824 0.500000 0.540918
O O15 0.870481 0.674066 0.574714
O O16 0.000000 0.591088 0.526800
O O17 0.000000 0.187893 0.568912
#
# Coordination Sequence:
#
# PCOD8310691 Si02
#       6
#    16  16  16  16  16  16
#     4  10  18  28  43  66  93 120 148 183 224 269
#     4   9  17  30  47  67  93 125 154 179 219 277
#     4  10  17  27  42  63  92 123 150 178 216 263
#     4   9  16  25  38  59  89 124 154 177 210 259
#     4   9  18  30  42  58  84 119 154 186 218 253
#     4  10  18  28  44  65  89 118 152 188 219 259
#
# _framework density 15.338298
#
# number of rings (size 3 to 8) (size 9 to 14) (size 15 to 20)
#    0.000    2.500    1.667    2.000    0.000    3.833 
#    0.000    0.833    0.000    7.000    0.000    0.000 
#    0.000   11.333    0.000    0.000    0.000    0.000 
#
# Total GULP energy -594929.014777 kJ/mol
# GULP energy per Si atom -12394.354475 kJ/mol
# Density = 1.530339 g / cm^3
# Si number density = 15.338298 Si / 1000 Ang^3
#
#
#
# Elastic Constant Matrix: (Units=GPa)
#
#
# Indices 1 2 3 4 5 6 
#
# 1 82.8457 29.3765 39.8446 0.0000 0.0000 0.0000
# 2 29.3765 82.8457 39.8446 0.0000 0.0000 0.0000
# 3 39.8446 39.8446 87.3784 0.0000 0.0000 0.0000
# 4 0.0000 0.0000 0.0000 22.6574 0.0000 0.0000
# 5 0.0000 0.0000 0.0000 0.0000 22.6574 0.0000
# 6 0.0000 0.0000 0.0000 0.0000 0.0000 10.8674
#
#
#
# Elastic Compliance Matrix: (Units=1/GPa)
#
#
# Indices 1 2 3 4 5 6 
#
# 1 0.015940 -0.002762 -0.006009 0.000000 0.000000 0.000000
# 2 -0.002762 0.015940 -0.006009 0.000000 0.000000 0.000000
# 3 -0.006009 -0.006009 0.016925 0.000000 0.000000 0.000000
# 4 0.000000 0.000000 0.000000 0.044136 0.000000 0.000000
# 5 0.000000 0.000000 0.000000 0.000000 0.044136 0.000000
# 6 0.000000 0.000000 0.000000 0.000000 0.000000 0.092019
#
#
# Mechanical properties :
#
#
# Convention : Reuss Voigt Hill
#
# Bulk Modulus (GPa) = 51.96377 52.35566 52.15971
# Shear Modulus (GPa) = 18.86288 20.83672 19.84980
#
# Velocity S-wave (km/s) = 3.51064 3.68975 3.60131
# Velocity P-wave (km/s) = 7.09822 7.23605 7.16747
#
# Compressibility (1/GPa) = 0.01924418
#
# Stress axis : x y z
#
# Youngs Moduli (GPa) = 62.73449 62.73449 59.08467
#
# Poissons Ratio (x) = 0.17328 0.35505
# Poissons Ratio (y) = 0.17328 0.35505
# Poissons Ratio (z) = 0.37698 0.37698
#
# Static dielectric constant tensor:
#      x y z
#    x 2.947840 0.000000 0.000000 
#    y 0.000000 2.947840 0.000000 
#    z 0.000000 0.000000 2.831270 
# 
# 
# High freq. dielectric constant tensor:
#      x y z
#    x 1.566790 0.000000 0.000000 
#    y 0.000000 1.566790 0.000000 
#    z 0.000000 0.000000 1.574360 
# 
# From -- ./inp_files/10343.got.cif
#   From: 2010.03.12/outbox.cif.g09.slc.cpg/sg119_6_cif.got.tgz:10343.got - 2010.04.14 02:25:26.
