data_PCOD8310837
_publ_section_title
;
Structure prediction by ZEFSAII (Michael W. Deem and Ramdas Pophale) SiO2 
 PCOD8310837
Probable space group: I -4 M 2
;
_chemical_formula_sum "Si O2"
_cell_formula_units_Z 80
_cell_length_a 13.790857
_cell_length_b 13.790857
_cell_length_c 22.014999
_cell_angle_alpha 90.000000
_cell_angle_beta 90.000000
_cell_angle_gamma 90.000000
_cell_volume 4186.982835
_symmetry_space_group_name_H-M "I -4 M 2"
_symmetry_group_IT_number 119
_symmetry_cell_setting 'tetragonal'
loop_
_space_group_symop_operation_xyz
x,y,z
y,-x,-z
-x,-y,z
-y,x,-z
y,x,-z
-y,-x,-z
-x,y,z
x,-y,z
1/2+x,1/2+y,1/2+z
1/2+y,1/2-x,1/2-z
1/2-x,1/2-y,1/2+z
1/2-y,1/2+x,1/2-z
1/2+y,1/2+x,1/2-z
1/2-y,1/2-x,1/2-z
1/2-x,1/2+y,1/2+z
1/2+x,1/2-y,1/2+z
loop_
_atom_site_type_symbol
_atom_site_label
_atom_site_fract_x
_atom_site_fract_y
_atom_site_fract_z
Si Si1 0.886115 0.607174 0.453749
Si Si2 0.886780 0.293262 0.576491
Si Si3 0.888789 0.297422 0.807579
Si Si4 0.705190 0.388928 0.113102
Si Si5 0.889311 0.108286 0.739765
O O1 0.839991 0.500000 0.441844
O O2 0.847167 0.651380 0.517216
O O3 0.861257 0.681710 0.399228
O O4 0.000000 0.595532 0.459870
O O5 0.826239 0.327131 0.634490
O O6 0.864143 0.178389 0.571501
O O7 0.000000 0.312115 0.586934
O O8 0.863391 0.363391 0.750000
O O9 0.866287 0.184698 0.792706
O O10 0.000000 0.314518 0.824099
O O11 0.684835 0.500000 0.093375
O O12 0.683418 0.372897 0.184050
O O13 0.000000 0.122536 0.716163
O O14 0.874605 0.000000 0.766104
#
# Coordination Sequence:
#
# PCOD8310837 Si02
#       5
#    16  16  16  16  16
#     4   9  19  35  53  75 105 140 174 213 267 324
#     4  11  21  34  53  80 113 144 176 221 273 328
#     4  11  21  33  51  77 109 145 181 218 266 327
#     4  10  19  33  54  76 101 139 182 221 265 322
#     4   9  18  34  55  79 110 145 179 225 280 324
#
# _framework density 19.106836999999999
#
# number of rings (size 3 to 8) (size 9 to 14) (size 15 to 20)
#    0.000    2.000    2.000    2.400    0.000    3.400 
#    0.000    2.000    0.000    8.400    0.000    0.000 
#    0.000    1.600    0.000    0.000    0.000    0.000 
#
# Total GULP energy -495866.454055 kJ/mol
# GULP energy per Si atom -12396.661351 kJ/mol
# Density = 1.906335 g / cm^3
# Si number density = 19.106837 Si / 1000 Ang^3
#
#
#
# Elastic Constant Matrix: (Units=GPa)
#
#
# Indices 1 2 3 4 5 6 
#
# 1 103.8344 44.0536 44.4314 0.0000 0.0000 0.0000
# 2 44.0536 103.8344 44.4314 0.0000 0.0000 0.0000
# 3 44.4314 44.4314 79.1513 0.0000 0.0000 0.0000
# 4 0.0000 0.0000 0.0000 27.1951 0.0000 0.0000
# 5 0.0000 0.0000 0.0000 0.0000 27.1951 0.0000
# 6 0.0000 0.0000 0.0000 0.0000 0.0000 24.1220
#
#
#
# Elastic Compliance Matrix: (Units=1/GPa)
#
#
# Indices 1 2 3 4 5 6 
#
# 1 0.013466 -0.003262 -0.005728 0.000000 0.000000 0.000000
# 2 -0.003262 0.013466 -0.005728 0.000000 0.000000 0.000000
# 3 -0.005728 -0.005728 0.019065 0.000000 0.000000 0.000000
# 4 0.000000 0.000000 0.000000 0.036771 0.000000 0.000000
# 5 0.000000 0.000000 0.000000 0.000000 0.036771 0.000000
# 6 0.000000 0.000000 0.000000 0.000000 0.000000 0.041456
#
#
# Mechanical properties :
#
#
# Convention : Reuss Voigt Hill
#
# Bulk Modulus (GPa) = 60.38397 61.40587 60.89492
# Shear Modulus (GPa) = 25.51673 25.96269 25.73971
#
# Velocity S-wave (km/s) = 3.65838 3.69021 3.67433
# Velocity P-wave (km/s) = 7.03683 7.09682 7.06689
#
# Compressibility (1/GPa) = 0.01656069
#
# Stress axis : x y z
#
# Youngs Moduli (GPa) = 74.26299 74.26299 52.45339
#
# Poissons Ratio (x) = 0.24225 0.30044
# Poissons Ratio (y) = 0.24225 0.30044
# Poissons Ratio (z) = 0.42536 0.42536
#
# Static dielectric constant tensor:
#      x y z
#    x 3.727130 0.000000 0.000000 
#    y 0.000000 3.727130 0.000000 
#    z 0.000000 0.000000 3.241720 
# 
# 
# High freq. dielectric constant tensor:
#      x y z
#    x 1.740230 0.000000 0.000000 
#    y 0.000000 1.740230 0.000000 
#    z 0.000000 0.000000 1.721490 
# 
# From -- ./inp_files/7574.got.cif
#   From: 2010.03.12/outbox.cif.g09.slc.cpg/sg119_4_cif.got.tgz:7574.got - 2010.04.14 02:25:26.
