data_PCOD8310600
_publ_section_title
;
Structure prediction by ZEFSAII (Michael W. Deem and Ramdas Pophale) SiO2 
 PCOD8310600
Probable space group: P -4 N 2
;
_chemical_formula_sum "Si O2"
_cell_formula_units_Z 48
_cell_length_a 11.439861
_cell_length_b 11.439861
_cell_length_c 19.730412
_cell_angle_alpha 90.000000
_cell_angle_beta 90.000000
_cell_angle_gamma 90.000000
_cell_volume 2582.127299
_symmetry_space_group_name_H-M "P -4 N 2"
_symmetry_group_IT_number 118
_symmetry_cell_setting 'tetragonal'
loop_
_space_group_symop_operation_xyz
x,y,z
y,-x,-z
-x,-y,z
-y,x,-z
1/2+y,1/2+x,1/2-z
1/2-y,1/2-x,1/2-z
1/2-x,1/2+y,1/2+z
1/2+x,1/2-y,1/2+z
loop_
_atom_site_type_symbol
_atom_site_label
_atom_site_fract_x
_atom_site_fract_y
_atom_site_fract_z
Si Si1 0.863032 0.755809 0.431889
Si Si2 0.000000 0.637800 0.048360
Si Si3 1.000000 0.361953 0.899617
Si Si4 0.861941 0.276182 0.682004
Si Si5 0.755809 0.863032 0.568111
Si Si6 0.723818 0.138059 0.317996
O O1 0.824785 0.621057 0.415170
O O2 0.835322 0.831426 0.364617
O O3 0.799722 0.799722 0.500000
O O4 0.000000 0.766151 0.446778
O O5 0.000000 0.500000 0.040354
O O6 0.121057 0.675215 0.084830
O O7 1.000000 0.695183 0.973695
O O8 0.113906 0.319080 0.861132
O O9 0.000000 0.500000 0.904062
O O10 0.886094 0.319080 0.861132
O O11 0.783777 0.283777 0.750000
O O12 1.000000 0.278476 0.699680
O O13 0.831426 0.835322 0.635383
O O14 0.716222 0.216222 0.250000
#
# Coordination Sequence:
#
# PCOD8310600 Si02
#       6
#     8   8   8   8   8   8
#     4  11  22  37  60  87 115 149 190 239 286 335
#     4   9  18  36  58  80 110 147 190 229 275 341
#     4   9  16  30  56  86 108 139 188 233 275 331
#     4  11  21  35  58  85 115 148 187 238 286 334
#     4  11  22  37  60  87 115 149 190 239 286 335
#     4  11  21  35  58  85 115 148 187 238 286 334
#
# _framework density 18.589323
#
# number of rings (size 3 to 8) (size 9 to 14) (size 15 to 20)
#    0.000    1.667    5.000    1.000    0.000    2.333 
#    3.000    0.000    0.000    3.500    0.000    0.000 
#    0.000    0.000    0.000    0.000    0.000    0.000 
#
# Total GULP energy -594800.142570 kJ/mol
# GULP energy per Si atom -12391.669637 kJ/mol
# Density = 1.854701 g / cm^3
# Si number density = 18.589323 Si / 1000 Ang^3
#
#
#
# Elastic Constant Matrix: (Units=GPa)
#
#
# Indices 1 2 3 4 5 6 
#
# 1 70.8690 30.9348 23.7350 0.0000 0.0000 0.0000
# 2 30.9348 70.8690 23.7350 0.0000 0.0000 0.0000
# 3 23.7350 23.7350 100.8104 0.0000 0.0000 0.0000
# 4 0.0000 0.0000 0.0000 2.9097 0.0000 0.0000
# 5 0.0000 0.0000 0.0000 0.0000 2.9097 0.0000
# 6 0.0000 0.0000 0.0000 0.0000 0.0000 21.1535
#
#
#
# Elastic Compliance Matrix: (Units=1/GPa)
#
#
# Indices 1 2 3 4 5 6 
#
# 1 0.018038 -0.007003 -0.002598 0.000000 0.000000 0.000000
# 2 -0.007003 0.018038 -0.002598 0.000000 0.000000 0.000000
# 3 -0.002598 -0.002598 0.011143 0.000000 0.000000 0.000000
# 4 0.000000 0.000000 0.000000 0.343678 0.000000 0.000000
# 5 0.000000 0.000000 0.000000 0.000000 0.343678 0.000000
# 6 0.000000 0.000000 0.000000 0.000000 0.000000 0.047274
#
#
# Mechanical properties :
#
#
# Convention : Reuss Voigt Hill
#
# Bulk Modulus (GPa) = 43.82184 44.37310 44.09747
# Shear Modulus (GPa) = 6.14362 16.33749 11.24055
#
# Velocity S-wave (km/s) = 1.81992 2.96778 2.46169
# Velocity P-wave (km/s) = 5.29537 5.97207 5.64387
#
# Compressibility (1/GPa) = 0.02281967
#
# Stress axis : x y z
#
# Youngs Moduli (GPa) = 55.43953 55.43953 89.74301
#
# Poissons Ratio (x) = 0.38827 0.23314
# Poissons Ratio (y) = 0.38827 0.23314
# Poissons Ratio (z) = 0.14403 0.14403
#
# Static dielectric constant tensor:
#      x y z
#    x 3.468410 0.000000 0.000000 
#    y 0.000000 3.468410 0.000000 
#    z 0.000000 0.000000 3.404590 
# 
# 
# High freq. dielectric constant tensor:
#      x y z
#    x 1.705680 0.000000 0.000000 
#    y 0.000000 1.705680 0.000000 
#    z 0.000000 0.000000 1.715850 
# 
# From -- ./inp_files/4947.got.cif
#   From: 2010.03.12/outbox.cif.g09.slc.cpg/sg118_3_cif.got.tgz:4947.got - 2010.04.14 02:21:17.
