data_PCOD8310304
_publ_section_title
;
Structure prediction by ZEFSAII (Michael W. Deem and Ramdas Pophale) SiO2 
 PCOD8310304
Probable space group: P -4 B 2
;
_chemical_formula_sum "Si O2"
_cell_formula_units_Z 60
_cell_length_a 14.107281
_cell_length_b 14.107281
_cell_length_c 15.483493
_cell_angle_alpha 90.000000
_cell_angle_beta 90.000000
_cell_angle_gamma 90.000000
_cell_volume 3081.453200
_symmetry_space_group_name_H-M "P -4 B 2"
_symmetry_group_IT_number 117
_symmetry_cell_setting 'tetragonal'
loop_
_space_group_symop_operation_xyz
x,y,z
y,-x,-z
-x,-y,z
-y,x,-z
1/2+y,1/2+x,-z
1/2-y,1/2-x,-z
1/2-x,1/2+y,z
1/2+x,1/2-y,z
loop_
_atom_site_type_symbol
_atom_site_label
_atom_site_fract_x
_atom_site_fract_y
_atom_site_fract_z
Si Si1 0.225370 0.515979 0.472420
Si Si2 0.241118 0.231653 0.286202
Si Si3 0.194105 0.830210 0.538236
Si Si4 0.130516 0.590818 0.636991
Si Si5 0.254728 0.245273 0.000000
Si Si6 0.802417 0.623420 0.150553
Si Si7 0.714707 0.897501 0.137545
Si Si8 0.395305 0.010297 0.816507
O O1 0.320422 0.580688 0.469683
O O2 0.262965 0.408976 0.474415
O O3 0.163308 0.527117 0.558152
O O4 0.158643 0.540986 0.390097
O O5 0.159573 0.224794 0.360656
O O6 0.343098 0.217351 0.331352
O O7 0.241364 0.333921 0.238968
O O8 0.224558 0.147160 0.216199
O O9 0.229959 0.729959 0.500000
O O10 0.100332 0.519457 0.712621
O O11 0.169419 0.251870 0.931802
O O12 0.357199 0.255428 0.952580
O O13 0.784331 0.510940 0.146006
O O14 0.913695 0.655869 0.152640
O O15 0.607269 0.853909 0.143169
O O16 0.500000 0.000000 0.853873
#
# Coordination Sequence:
#
# PCOD8310304 Si02
#       8
#     8   8   8   8   4   8   8   8
#     4  10  20  34  53  78 114 154 194 243 288 337
#     4   9  18  35  54  81 111 147 190 226 286 343
#     4  11  21  36  56  82 112 157 198 243 290 343
#     4   9  17  35  51  78 117 145 186 246 289 332
#     4  10  22  36  56  90 110 150 184 220 292 350
#     4  10  20  35  59  89 109 148 189 227 295 361
#     4   9  20  36  56  83 115 143 175 237 285 338
#     4   9  18  32  53  86 112 139 178 235 292 347
#
# _framework density 19.471333000000001
#
# number of rings (size 3 to 8) (size 9 to 14) (size 15 to 20)
#    0.000    2.400    2.667    0.800    1.867    5.600 
#    0.000    1.333    0.000    0.400    0.000    0.000 
#    0.000    0.000    0.000    0.000    0.000    0.000 
#
# Total GULP energy -743388.021266 kJ/mol
# GULP energy per Si atom -12389.800354 kJ/mol
# Density = 1.942702 g / cm^3
# Si number density = 19.471333 Si / 1000 Ang^3
#
#
#
# Elastic Constant Matrix: (Units=GPa)
#
#
# Indices 1 2 3 4 5 6 
#
# 1 78.7881 25.7870 31.9308 0.0000 0.0000 0.0000
# 2 25.7870 78.7880 31.9307 0.0000 0.0000 0.0000
# 3 31.9308 31.9307 104.7774 0.0000 0.0000 0.0000
# 4 0.0000 0.0000 0.0000 28.9386 0.0000 0.0000
# 5 0.0000 0.0000 0.0000 0.0000 28.9386 0.0000
# 6 0.0000 0.0000 0.0000 0.0000 0.0000 18.8045
#
#
#
# Elastic Compliance Matrix: (Units=1/GPa)
#
#
# Indices 1 2 3 4 5 6 
#
# 1 0.015308 -0.003559 -0.003580 0.000000 0.000000 0.000000
# 2 -0.003559 0.015308 -0.003580 0.000000 0.000000 0.000000
# 3 -0.003580 -0.003580 0.011726 0.000000 0.000000 0.000000
# 4 0.000000 0.000000 0.000000 0.034556 0.000000 0.000000
# 5 0.000000 0.000000 0.000000 0.000000 0.034556 0.000000
# 6 0.000000 0.000000 0.000000 0.000000 0.000000 0.053179
#
#
# Mechanical properties :
#
#
# Convention : Reuss Voigt Hill
#
# Bulk Modulus (GPa) = 47.84135 49.07227 48.45681
# Shear Modulus (GPa) = 25.90118 26.85002 26.37560
#
# Velocity S-wave (km/s) = 3.65118 3.71745 3.68446
# Velocity P-wave (km/s) = 6.51140 6.60931 6.56053
#
# Compressibility (1/GPa) = 0.02090242
#
# Stress axis : x y z
#
# Youngs Moduli (GPa) = 65.32409 65.32404 85.27811
#
# Poissons Ratio (x) = 0.23251 0.30534
# Poissons Ratio (y) = 0.23251 0.30534
# Poissons Ratio (z) = 0.23389 0.23389
#
# Static dielectric constant tensor:
#      x y z
#    x 3.421450 0.000000 0.000000 
#    y 0.000000 3.421450 0.000000 
#    z 0.000000 0.000000 3.762740 
# 
# 
# High freq. dielectric constant tensor:
#      x y z
#    x 1.736590 0.000000 0.000000 
#    y 0.000000 1.736590 0.000000 
#    z 0.000000 0.000000 1.771320 
# 
# From -- ./inp_files/3284.got.cif
#   From: 2010.03.12/outbox.cif.g09.slc.cpg/sg117_2_cif.got.tgz:3284.got - 2010.04.14 02:19:01.
