data_PCOD8310796
_publ_section_title
;
Structure prediction by ZEFSAII (Michael W. Deem and Ramdas Pophale) SiO2 
 PCOD8310796
Probable space group: I -4 M 2
;
_chemical_formula_sum "Si O2"
_cell_formula_units_Z 128
_cell_length_a 21.031300
_cell_length_b 21.031300
_cell_length_c 16.773256
_cell_angle_alpha 90.000000
_cell_angle_beta 90.000000
_cell_angle_gamma 90.000000
_cell_volume 7419.072451
_symmetry_space_group_name_H-M "I -4 M 2"
_symmetry_group_IT_number 119
_symmetry_cell_setting 'tetragonal'
loop_
_space_group_symop_operation_xyz
x,y,z
y,-x,-z
-x,-y,z
-y,x,-z
y,x,-z
-y,-x,-z
-x,y,z
x,-y,z
1/2+x,1/2+y,1/2+z
1/2+y,1/2-x,1/2-z
1/2-x,1/2-y,1/2+z
1/2-y,1/2+x,1/2-z
1/2+y,1/2+x,1/2-z
1/2-y,1/2-x,1/2-z
1/2-x,1/2+y,1/2+z
1/2+x,1/2-y,1/2+z
loop_
_atom_site_type_symbol
_atom_site_label
_atom_site_fract_x
_atom_site_fract_y
_atom_site_fract_z
Si Si1 0.680981 0.071304 0.080748
Si Si2 0.124259 0.770323 0.492873
Si Si3 0.110386 0.251712 0.764548
Si Si4 0.627852 0.926100 0.324255
Si Si5 0.230884 0.329439 0.467072
Si Si6 0.336408 0.430092 0.863424
Si Si7 0.173412 0.765929 0.212284
Si Si8 0.317099 0.426421 0.162936
O O1 0.724135 0.071653 0.159725
O O2 0.611442 0.101721 0.098433
O O3 0.669294 0.000000 0.052149
O O4 0.721950 0.104465 0.012095
O O5 0.171174 0.828827 0.500000
O O6 0.164823 0.706527 0.484428
O O7 0.083931 0.778377 0.574085
O O8 0.079718 0.772120 0.414533
O O9 0.112451 0.308587 0.700164
O O10 0.072986 0.193211 0.724925
O O11 0.180812 0.228609 0.788495
O O12 0.578345 0.921656 0.250000
O O13 0.640248 0.000000 0.345587
O O14 0.290321 0.290321 0.500000
O O15 0.246078 0.346737 0.376160
O O16 0.363332 0.500000 0.880647
O O17 0.397070 0.384017 0.865788
O O18 0.202454 0.702454 0.250000
O O19 0.111972 0.788221 0.262202
O O20 0.324880 0.500000 0.187533
#
# Coordination Sequence:
#
# PCOD8310796 Si02
#       8
#    16  16  16  16  16  16  16  16
#     4  11  22  34  50  76 108 140 178 216 252 311
#     4   9  18  32  51  77 104 133 174 215 262 312
#     4  10  19  31  51  81 109 138 174 213 256 311
#     4  10  19  31  50  76 112 150 177 203 246 308
#     4  11  21  35  56  80 104 134 173 222 281 322
#     4  10  19  31  51  77 112 149 174 205 253 311
#     4  11  20  35  58  79 101 134 175 223 282 323
#     4  10  21  35  52  76 106 138 179 221 257 312
#
# _framework density 17.252831
#
# number of rings (size 3 to 8) (size 9 to 14) (size 15 to 20)
#    0.000    1.750    2.500    4.500    1.750    1.625 
#    0.000    0.625    0.000    2.250    0.000    0.000 
#    0.000    0.500    0.000    0.000    0.000    0.000 
#
# Total GULP energy -793205.850278 kJ/mol
# GULP energy per Si atom -12393.841411 kJ/mol
# Density = 1.721356 g / cm^3
# Si number density = 17.252831 Si / 1000 Ang^3
#
#
#
# Elastic Constant Matrix: (Units=GPa)
#
#
# Indices 1 2 3 4 5 6 
#
# 1 92.9922 40.0441 39.2280 0.0000 0.0000 0.0000
# 2 40.0441 92.9919 39.2279 0.0000 0.0000 0.0000
# 3 39.2280 39.2279 97.6485 0.0000 0.0000 0.0000
# 4 0.0000 0.0000 0.0000 19.5820 0.0000 0.0000
# 5 0.0000 0.0000 0.0000 0.0000 19.5822 0.0000
# 6 0.0000 0.0000 0.0000 0.0000 0.0000 12.6490
#
#
#
# Elastic Compliance Matrix: (Units=1/GPa)
#
#
# Indices 1 2 3 4 5 6 
#
# 1 0.014368 -0.004518 -0.003957 0.000000 0.000000 0.000000
# 2 -0.004518 0.014368 -0.003957 0.000000 0.000000 0.000000
# 3 -0.003957 -0.003957 0.013420 0.000000 0.000000 0.000000
# 4 0.000000 0.000000 0.000000 0.051067 0.000000 0.000000
# 5 0.000000 0.000000 0.000000 0.000000 0.051067 0.000000
# 6 0.000000 0.000000 0.000000 0.000000 0.000000 0.079058
#
#
# Mechanical properties :
#
#
# Convention : Reuss Voigt Hill
#
# Bulk Modulus (GPa) = 57.82894 57.84806 57.83850
# Shear Modulus (GPa) = 19.68677 21.37149 20.52913
#
# Velocity S-wave (km/s) = 3.38164 3.52337 3.45323
# Velocity P-wave (km/s) = 6.98847 7.08199 7.03538
#
# Compressibility (1/GPa) = 0.01729238
#
# Stress axis : x y z
#
# Youngs Moduli (GPa) = 69.59704 69.59689 74.51440
#
# Poissons Ratio (x) = 0.31444 0.29487
# Poissons Ratio (y) = 0.31444 0.29487
# Poissons Ratio (z) = 0.27541 0.27541
#
# Static dielectric constant tensor:
#      x y z
#    x 3.074340 0.000000 0.000000 
#    y 0.000000 3.074340 0.000000 
#    z 0.000000 0.000000 3.286960 
# 
# 
# High freq. dielectric constant tensor:
#      x y z
#    x 1.652000 0.000000 0.000000 
#    y 0.000000 1.652000 0.000000 
#    z 0.000000 0.000000 1.659460 
# 
# From -- ./inp_files/6914.got.cif
#   From: 2010.03.12/outbox.cif.g09.slc.cpg/sg119_4_cif.got.tgz:6914.got - 2010.04.14 02:25:26.
