data_PCOD8310779
_publ_section_title
;
Structure prediction by ZEFSAII (Michael W. Deem and Ramdas Pophale) SiO2 
 PCOD8310779
Probable space group: I -4 M 2
;
_chemical_formula_sum "Si O2"
_cell_formula_units_Z 88
_cell_length_a 14.994403
_cell_length_b 14.994403
_cell_length_c 22.708659
_cell_angle_alpha 90.000000
_cell_angle_beta 90.000000
_cell_angle_gamma 90.000000
_cell_volume 5105.635975
_symmetry_space_group_name_H-M "I -4 M 2"
_symmetry_group_IT_number 119
_symmetry_cell_setting 'tetragonal'
loop_
_space_group_symop_operation_xyz
x,y,z
y,-x,-z
-x,-y,z
-y,x,-z
y,x,-z
-y,-x,-z
-x,y,z
x,-y,z
1/2+x,1/2+y,1/2+z
1/2+y,1/2-x,1/2-z
1/2-x,1/2-y,1/2+z
1/2-y,1/2+x,1/2-z
1/2+y,1/2+x,1/2-z
1/2-y,1/2-x,1/2-z
1/2-x,1/2+y,1/2+z
1/2+x,1/2-y,1/2+z
loop_
_atom_site_type_symbol
_atom_site_label
_atom_site_fract_x
_atom_site_fract_y
_atom_site_fract_z
Si Si1 0.899450 0.899450 0.000000
Si Si2 0.600931 0.654539 0.918922
Si Si3 0.096077 0.726719 0.520505
Si Si4 0.733009 0.104697 0.215745
Si Si5 0.603207 0.400379 0.208601
Si Si6 0.738086 0.896838 0.080750
O O1 0.879026 0.836729 0.944251
O O2 0.000000 0.884735 0.023059
O O3 0.500000 0.616219 0.929412
O O4 0.677831 0.592491 0.946077
O O5 0.617191 0.663699 0.849026
O O6 0.610553 0.751450 0.950926
O O7 0.170672 0.660102 0.542141
O O8 0.000000 0.680764 0.530676
O O9 0.654861 0.154861 0.250000
O O10 0.829491 0.130430 0.241805
O O11 0.733729 0.135187 0.148005
O O12 0.713929 0.000000 0.222041
O O13 0.500000 0.388855 0.189953
O O14 0.620061 0.500000 0.233833
O O15 0.711104 0.000000 0.075222
#
# Coordination Sequence:
#
# PCOD8310779 Si02
#       6
#     8  16  16  16  16  16
#     4   9  18  34  56  76  92 115 152 204 260 297
#     4   9  17  28  45  70  95 120 152 188 232 286
#     4  10  19  30  46  68  97 131 160 190 230 277
#     4  10  21  34  48  69  97 130 166 199 231 273
#     4   9  17  30  48  70  97 126 155 192 239 288
#     4  10  21  35  50  70  95 125 165 205 237 277
#
# _framework density 17.235854
#
# number of rings (size 3 to 8) (size 9 to 14) (size 15 to 20)
#    0.000    2.455    0.000    2.727    0.000    5.273 
#    0.000    9.091    0.000    0.000    0.000    0.000 
#    0.000    0.364    0.000    0.000    0.000    9.273 
#
# Total GULP energy -545326.763336 kJ/mol
# GULP energy per Si atom -12393.790076 kJ/mol
# Density = 1.719662 g / cm^3
# Si number density = 17.235854 Si / 1000 Ang^3
#
#
#
# Elastic Constant Matrix: (Units=GPa)
#
#
# Indices 1 2 3 4 5 6 
#
# 1 80.1406 49.3168 48.2819 0.0000 0.0000 0.0000
# 2 49.3168 80.1406 48.2819 0.0000 0.0000 0.0000
# 3 48.2819 48.2819 98.0454 0.0000 0.0000 0.0000
# 4 0.0000 0.0000 0.0000 25.1260 0.0000 0.0000
# 5 0.0000 0.0000 0.0000 0.0000 25.1260 0.0000
# 6 0.0000 0.0000 0.0000 0.0000 0.0000 24.4894
#
#
#
# Elastic Compliance Matrix: (Units=1/GPa)
#
#
# Indices 1 2 3 4 5 6 
#
# 1 0.022326 -0.010117 -0.006012 0.000000 0.000000 0.000000
# 2 -0.010117 0.022326 -0.006012 0.000000 0.000000 0.000000
# 3 -0.006012 -0.006012 0.016121 0.000000 0.000000 0.000000
# 4 0.000000 0.000000 0.000000 0.039799 0.000000 0.000000
# 5 0.000000 0.000000 0.000000 0.000000 0.039799 0.000000
# 6 0.000000 0.000000 0.000000 0.000000 0.000000 0.040834
#
#
# Mechanical properties :
#
#
# Convention : Reuss Voigt Hill
#
# Bulk Modulus (GPa) = 60.64326 61.12086 60.88206
# Shear Modulus (GPa) = 21.64646 22.44470 22.04558
#
# Velocity S-wave (km/s) = 3.54771 3.61253 3.58027
# Velocity P-wave (km/s) = 7.21404 7.27591 7.24504
#
# Compressibility (1/GPa) = 0.01648988
#
# Stress axis : x y z
#
# Youngs Moduli (GPa) = 44.79108 44.79108 62.03135
#
# Poissons Ratio (x) = 0.45313 0.37296
# Poissons Ratio (y) = 0.45313 0.37296
# Poissons Ratio (z) = 0.26930 0.26930
#
# Static dielectric constant tensor:
#      x y z
#    x 3.146060 0.000000 0.000000 
#    y 0.000000 3.146060 0.000000 
#    z 0.000000 0.000000 3.277030 
# 
# 
# High freq. dielectric constant tensor:
#      x y z
#    x 1.654380 0.000000 0.000000 
#    y 0.000000 1.654380 0.000000 
#    z 0.000000 0.000000 1.662860 
# 
# From -- ./inp_files/8680.got.cif
#   From: 2010.03.12/outbox.cif.g09.slc.cpg/sg119_5_cif.got.tgz:8680.got - 2010.04.14 02:25:26.
