data_PCOD8310604
_publ_section_title
;
Structure prediction by ZEFSAII (Michael W. Deem and Ramdas Pophale) SiO2 
 PCOD8310604
Probable space group: P -4 N 2
;
_chemical_formula_sum "Si O2"
_cell_formula_units_Z 40
_cell_length_a 19.695261
_cell_length_b 19.695261
_cell_length_c 4.815924
_cell_angle_alpha 90.000000
_cell_angle_beta 90.000000
_cell_angle_gamma 90.000000
_cell_volume 1868.112840
_symmetry_space_group_name_H-M "P -4 N 2"
_symmetry_group_IT_number 118
_symmetry_cell_setting 'tetragonal'
loop_
_space_group_symop_operation_xyz
x,y,z
y,-x,-z
-x,-y,z
-y,x,-z
1/2+y,1/2+x,1/2-z
1/2-y,1/2-x,1/2-z
1/2-x,1/2+y,1/2+z
1/2+x,1/2-y,1/2+z
loop_
_atom_site_type_symbol
_atom_site_label
_atom_site_fract_x
_atom_site_fract_y
_atom_site_fract_z
Si Si1 0.863106 0.907718 0.328528
Si Si2 0.503675 0.108825 0.210213
Si Si3 0.767398 0.331029 0.016135
Si Si4 0.498190 0.341156 0.686303
Si Si5 0.193591 0.529065 0.278895
O O1 0.808057 0.849291 0.405037
O O2 0.882511 0.947727 0.609455
O O3 0.928717 0.875853 0.182434
O O4 0.834792 0.963832 0.115643
O O5 0.579417 0.079417 0.250000
O O6 0.482510 0.172696 0.401820
O O7 0.449878 0.050123 0.250000
O O8 0.504802 0.133795 0.895287
O O9 0.769808 0.269808 0.250000
O O10 0.799636 0.392625 0.191662
O O11 0.812960 0.312960 0.750000
O O12 0.508390 0.264266 0.789420
#
# Coordination Sequence:
#
# PCOD8310604 Si02
#       5
#     8   8   8   8   8
#     4  11  24  41  62  92 121 157 200 248 306 362
#     4  11  22  35  55  84 116 151 195 239 284 349
#     4  11  21  37  62  90 118 153 202 251 296 353
#     4  11  24  41  63  88 121 155 199 252 303 368
#     4  11  21  37  58  82 114 152 191 239 295 344
#
# _framework density 21.411985000000001
#
# number of rings (size 3 to 8) (size 9 to 14) (size 15 to 20)
#    0.000    1.000    0.000   10.200    0.000    4.000 
#    0.000    3.000    0.000    0.000    0.000    0.000 
#    0.000    0.000    0.000    0.000    0.000    0.000 
#
# Total GULP energy -495886.614139 kJ/mol
# GULP energy per Si atom -12397.165353 kJ/mol
# Density = 2.136325 g / cm^3
# Si number density = 21.411985 Si / 1000 Ang^3
#
#
#
# Elastic Constant Matrix: (Units=GPa)
#
#
# Indices 1 2 3 4 5 6 
#
# 1 83.9239 58.9153 24.1380 0.0000 0.0000 0.0000
# 2 58.9153 83.9215 24.1358 0.0000 0.0000 0.0000
# 3 24.1380 24.1358 102.1598 0.0000 0.0000 0.0000
# 4 0.0000 0.0000 0.0000 6.4464 0.0000 0.0000
# 5 0.0000 0.0000 0.0000 0.0000 6.4463 0.0000
# 6 0.0000 0.0000 0.0000 0.0000 0.0000 31.7357
#
#
#
# Elastic Compliance Matrix: (Units=1/GPa)
#
#
# Indices 1 2 3 4 5 6 
#
# 1 0.023798 -0.016190 -0.001798 0.000000 0.000000 0.000000
# 2 -0.016190 0.023799 -0.001797 0.000000 0.000000 0.000000
# 3 -0.001798 -0.001797 0.010638 0.000000 0.000000 0.000000
# 4 0.000000 0.000000 0.000000 0.155126 0.000000 0.000000
# 5 0.000000 0.000000 0.000000 0.000000 0.155128 0.000000
# 6 0.000000 0.000000 0.000000 0.000000 0.000000 0.031510
#
#
# Mechanical properties :
#
#
# Convention : Reuss Voigt Hill
#
# Bulk Modulus (GPa) = 53.57774 53.82036 53.69905
# Shear Modulus (GPa) = 11.21602 19.78006 15.49804
#
# Velocity S-wave (km/s) = 2.29119 3.04268 2.69328
# Velocity P-wave (km/s) = 5.66357 6.12650 5.89958
#
# Compressibility (1/GPa) = 0.01866447
#
# Stress axis : x y z
#
# Youngs Moduli (GPa) = 42.02015 42.01939 94.00240
#
# Poissons Ratio (x) = 0.68029 0.16902
# Poissons Ratio (y) = 0.68030 0.16895
# Poissons Ratio (z) = 0.07555 0.07552
#
# Static dielectric constant tensor:
#      x y z
#    x 3.772190 0.000000 0.000000 
#    y 0.000000 3.772200 0.000000 
#    z 0.000000 0.000000 4.107320 
# 
# 
# High freq. dielectric constant tensor:
#      x y z
#    x 1.823670 0.000000 0.000000 
#    y 0.000000 1.823670 0.000000 
#    z 0.000000 0.000000 1.864470 
# 
# From -- ./inp_files/622.got.cif
#   From: 2010.03.12/outbox.cif.g09.slc.cpg/sg118_1_cif.got.tgz:622.got - 2010.04.14 02:21:17.
