data_PCOD8310602
_publ_section_title
;
Structure prediction by ZEFSAII (Michael W. Deem and Ramdas Pophale) SiO2 
 PCOD8310602
Probable space group: P -4 N 2
;
_chemical_formula_sum "Si O2"
_cell_formula_units_Z 42
_cell_length_a 13.787397
_cell_length_b 13.787397
_cell_length_c 9.980447
_cell_angle_alpha 90.000000
_cell_angle_beta 90.000000
_cell_angle_gamma 90.000000
_cell_volume 1897.206285
_symmetry_space_group_name_H-M "P -4 N 2"
_symmetry_group_IT_number 118
_symmetry_cell_setting 'tetragonal'
loop_
_space_group_symop_operation_xyz
x,y,z
y,-x,-z
-x,-y,z
-y,x,-z
1/2+y,1/2+x,1/2-z
1/2-y,1/2-x,1/2-z
1/2-x,1/2+y,1/2+z
1/2+x,1/2-y,1/2+z
loop_
_atom_site_type_symbol
_atom_site_label
_atom_site_fract_x
_atom_site_fract_y
_atom_site_fract_z
Si Si1 0.927779 0.135067 0.516581
Si Si2 0.831889 0.917739 0.184661
Si Si3 0.605990 0.219944 0.642777
Si Si4 0.500000 0.500000 0.500000
Si Si5 0.897354 0.724043 0.845762
Si Si6 0.759309 0.894188 0.747807
O O1 0.884243 0.147567 0.662999
O O2 0.906882 0.219130 0.410134
O O3 0.041042 0.121920 0.546899
O O4 0.819044 0.810288 0.125085
O O5 0.914793 0.972494 0.101521
O O6 0.739231 0.987936 0.181927
O O7 0.640020 0.140020 0.750000
O O8 0.609836 0.177102 0.493673
O O9 0.497937 0.259639 0.677653
O O10 0.860101 0.639900 0.750000
O O11 0.836997 0.824019 0.821676
O O12 0.652471 0.847530 0.750000
#
# Coordination Sequence:
#
# PCOD8310602 Si02
#       6
#     8   8   8   2   8   8
#     4  11  21  36  65 105 132 170 217 286 342 403
#     4  12  22  39  68  96 141 169 226 285 341 397
#     4  12  27  44  68 101 131 184 236 277 336 418
#     4  12  20  40  66 108 136 184 218 288 368 412
#     4  11  25  44  67 101 139 177 216 289 351 406
#     4  11  25  44  68  97 140 180 220 281 351 412
#
# _framework density 22.137816999999998
#
# number of rings (size 3 to 8) (size 9 to 14) (size 15 to 20)
#    0.000    0.571    5.714    3.429    8.000    0.381 
#    0.000    0.000    0.000    0.571    0.000    0.000 
#    0.000    0.000    0.000    0.000    0.000    0.000 
#
# Total GULP energy -520501.640630 kJ/mol
# GULP energy per Si atom -12392.896205 kJ/mol
# Density = 2.208743 g / cm^3
# Si number density = 22.137817 Si / 1000 Ang^3
#
#
#
# Elastic Constant Matrix: (Units=GPa)
#
#
# Indices 1 2 3 4 5 6 
#
# 1 65.4341 28.0020 24.1351 0.0000 0.0000 0.0000
# 2 28.0020 65.4331 24.1350 0.0000 0.0000 0.0000
# 3 24.1351 24.1350 166.5438 0.0000 0.0000 0.0000
# 4 0.0000 0.0000 0.0000 28.3013 0.0000 0.0000
# 5 0.0000 0.0000 0.0000 0.0000 28.3023 0.0000
# 6 0.0000 0.0000 0.0000 0.0000 0.0000 -21.4923
#
#
#
# Elastic Compliance Matrix: (Units=1/GPa)
#
#
# Indices 1 2 3 4 5 6 
#
# 1 0.019142 -0.007573 -0.001676 0.000000 0.000000 0.000000
# 2 -0.007573 0.019142 -0.001677 0.000000 0.000000 0.000000
# 3 -0.001676 -0.001677 0.006490 0.000000 0.000000 0.000000
# 4 0.000000 0.000000 0.000000 0.035334 0.000000 0.000000
# 5 0.000000 0.000000 0.000000 0.000000 0.035333 0.000000
# 6 0.000000 0.000000 0.000000 0.000000 0.000000 -0.046528
#
#
# Mechanical properties :
#
#
# Convention : Reuss Voigt Hill
#
# Bulk Modulus (GPa) = 43.62683 49.99500 46.81091
# Shear Modulus (GPa) = 50.80984 21.76486 36.28735
#
# Velocity S-wave (km/s) = 4.79598 3.13893 4.05304
# Velocity P-wave (km/s) = 7.10058 5.98078 6.56460
#
# Compressibility (1/GPa) = 0.02292167
#
# Stress axis : x y z
#
# Youngs Moduli (GPa) = 52.24154 52.24074 154.07530
#
# Poissons Ratio (x) = 0.39564 0.25830
# Poissons Ratio (y) = 0.39564 0.25831
# Poissons Ratio (z) = 0.08758 0.08758
#
# Static dielectric constant tensor:
#      x y z
#    x 3.839930 0.000000 0.000000 
#    y 0.000000 3.839930 0.000000 
#    z 0.000000 0.000000 4.079460 
# 
# 
# High freq. dielectric constant tensor:
#      x y z
#    x 1.845670 0.000000 0.000000 
#    y 0.000000 1.845670 0.000000 
#    z 0.000000 0.000000 1.901560 
# 
# From -- ./inp_files/1931.got.cif
#   From: 2010.03.12/outbox.cif.g09.slc.cpg/sg118_1_cif.got.tgz:1931.got - 2010.04.14 02:21:17.
