data_PCOD8310144
_publ_section_title
;
Structure prediction by ZEFSAII (Michael W. Deem and Ramdas Pophale) SiO2 
 PCOD8310144
Probable space group: P -4 C 2
;
_chemical_formula_sum "Si O2"
_cell_formula_units_Z 46
_cell_length_a 8.522297
_cell_length_b 8.522297
_cell_length_c 32.182551
_cell_angle_alpha 90.000000
_cell_angle_beta 90.000000
_cell_angle_gamma 90.000000
_cell_volume 2337.404073
_symmetry_space_group_name_H-M "P -4 C 2"
_symmetry_group_IT_number 116
_symmetry_cell_setting 'tetragonal'
loop_
_space_group_symop_operation_xyz
x,y,z
y,-x,-z
-x,-y,z
-y,x,-z
y,x,1/2-z
-y,-x,1/2-z
-x,y,1/2+z
x,-y,1/2+z
loop_
_atom_site_type_symbol
_atom_site_label
_atom_site_fract_x
_atom_site_fract_y
_atom_site_fract_z
Si Si1 0.500000 0.000000 0.950299
Si Si2 0.454635 0.257375 0.510508
Si Si3 0.172720 0.542799 0.394701
Si Si4 0.597402 0.357119 0.836526
Si Si5 0.000000 0.000000 0.250000
Si Si6 0.051689 0.324588 0.201494
Si Si7 0.665144 0.154675 0.377764
O O1 0.634733 0.923729 0.922087
O O2 0.404144 0.883891 0.980613
O O3 0.320309 0.386293 0.510322
O O4 0.488460 0.205359 0.557210
O O5 0.278008 0.429376 0.367420
O O6 0.191314 0.725392 0.382623
O O7 0.000000 0.500000 0.382016
O O8 0.500000 0.500000 0.814697
O O9 0.675816 0.242554 0.802030
O O10 0.487505 0.251783 0.865178
O O11 0.997383 0.168979 0.226455
O O12 0.000000 0.500000 0.219407
O O13 0.977550 0.299068 0.156110
#
# Coordination Sequence:
#
# PCOD8310144 Si02
#       7
#     4   8   8   8   2   8   8
#     4  12  18  36  58  80 116 166 210 260 314 370
#     4  11  23  33  52  80 121 162 211 270 317 357
#     4  11  22  35  54  95 122 161 223 266 314 382
#     4   9  19  38  66  91 120 161 218 260 311 383
#     4  12  28  48  74 106 136 170 216 262 352 414
#     4  10  23  48  68  98 132 169 211 264 330 408
#     4  10  20  39  65  84 117 166 210 260 314 380
#
# _framework density 19.679950999999999
#
# number of rings (size 3 to 8) (size 9 to 14) (size 15 to 20)
#    0.000    1.565    5.217    1.043    7.304    0.000 
#    9.391    0.000    0.000    2.609    0.000    0.000 
#    0.000    0.000    0.000    0.000    0.000    0.000 
#
# Total GULP energy -570021.785387 kJ/mol
# GULP energy per Si atom -12391.777943 kJ/mol
# Density = 1.963516 g / cm^3
# Si number density = 19.679951 Si / 1000 Ang^3
#
#
#
# Elastic Constant Matrix: (Units=GPa)
#
#
# Indices 1 2 3 4 5 6 
#
# 1 111.7268 52.0618 46.3919 0.0000 0.0000 0.0000
# 2 52.0618 111.7268 46.3919 0.0000 0.0000 0.0000
# 3 46.3919 46.3919 64.6433 0.0000 0.0000 0.0000
# 4 0.0000 0.0000 0.0000 13.1065 0.0000 0.0000
# 5 0.0000 0.0000 0.0000 0.0000 13.1065 0.0000
# 6 0.0000 0.0000 0.0000 0.0000 0.0000 28.4552
#
#
#
# Elastic Compliance Matrix: (Units=1/GPa)
#
#
# Indices 1 2 3 4 5 6 
#
# 1 0.013524 -0.003236 -0.007383 0.000000 0.000000 0.000000
# 2 -0.003236 0.013524 -0.007383 0.000000 0.000000 0.000000
# 3 -0.007383 -0.007383 0.026067 0.000000 0.000000 0.000000
# 4 0.000000 0.000000 0.000000 0.076298 0.000000 0.000000
# 5 0.000000 0.000000 0.000000 0.000000 0.076298 0.000000
# 6 0.000000 0.000000 0.000000 0.000000 0.000000 0.035143
#
#
# Mechanical properties :
#
#
# Convention : Reuss Voigt Hill
#
# Bulk Modulus (GPa) = 58.44628 64.19868 61.32248
# Shear Modulus (GPa) = 17.69524 20.48375 19.08949
#
# Velocity S-wave (km/s) = 3.00184 3.22971 3.11786
# Velocity P-wave (km/s) = 6.46356 6.82644 6.64747
#
# Compressibility (1/GPa) = 0.01710973
#
# Stress axis : x y z
#
# Youngs Moduli (GPa) = 73.94220 73.94220 38.36299
#
# Poissons Ratio (x) = 0.23929 0.28324
# Poissons Ratio (y) = 0.23929 0.28324
# Poissons Ratio (z) = 0.54593 0.54593
#
# Static dielectric constant tensor:
#      x y z
#    x 3.954270 0.000000 0.000000 
#    y 0.000000 3.954270 0.000000 
#    z 0.000000 0.000000 3.458400 
# 
# 
# High freq. dielectric constant tensor:
#      x y z
#    x 1.770470 0.000000 0.000000 
#    y 0.000000 1.770470 0.000000 
#    z 0.000000 0.000000 1.754700 
# 
# From -- ./inp_files/5194.got.cif
#   From: 2010.03.12/outbox.cif.g09.slc.cpg/sg116_3_cif.got.tgz:5194.got - 2010.04.14 02:15:44.
