data_PCOD8310672
_publ_section_title
;
Structure prediction by ZEFSAII (Michael W. Deem and Ramdas Pophale) SiO2 
 PCOD8310672
Probable space group: I -4 M 2
;
_chemical_formula_sum "Si O2"
_cell_formula_units_Z 84
_cell_length_a 21.566770
_cell_length_b 21.566770
_cell_length_c 9.388530
_cell_angle_alpha 90.000000
_cell_angle_beta 90.000000
_cell_angle_gamma 90.000000
_cell_volume 4366.845351
_symmetry_space_group_name_H-M "I -4 M 2"
_symmetry_group_IT_number 119
_symmetry_cell_setting 'tetragonal'
loop_
_space_group_symop_operation_xyz
x,y,z
y,-x,-z
-x,-y,z
-y,x,-z
y,x,-z
-y,-x,-z
-x,y,z
x,-y,z
1/2+x,1/2+y,1/2+z
1/2+y,1/2-x,1/2-z
1/2-x,1/2-y,1/2+z
1/2-y,1/2+x,1/2-z
1/2+y,1/2+x,1/2-z
1/2-y,1/2-x,1/2-z
1/2-x,1/2+y,1/2+z
1/2+x,1/2-y,1/2+z
loop_
_atom_site_type_symbol
_atom_site_label
_atom_site_fract_x
_atom_site_fract_y
_atom_site_fract_z
Si Si1 0.000000 0.637429 0.022166
Si Si2 0.788340 0.615375 0.435673
Si Si3 0.633030 0.000000 0.640703
Si Si4 0.658312 0.427676 0.086379
Si Si5 0.000000 0.500000 0.038032
Si Si6 0.842697 0.927543 0.919013
Si Si7 0.208731 0.386335 0.097259
O O1 0.937575 0.673814 0.977304
O O2 0.000000 0.643936 0.192229
O O3 0.000000 0.567075 0.955406
O O4 0.716410 0.610776 0.481585
O O5 0.789032 0.607786 0.266659
O O6 0.821331 0.681970 0.465646
O O7 0.559762 0.000000 0.635245
O O8 0.661107 0.058922 0.556331
O O9 0.660376 0.500000 0.050771
O O10 0.647314 0.415675 0.252501
O O11 0.722942 0.397063 0.033828
O O12 0.602203 0.397798 0.000000
O O13 0.832431 0.000000 0.950150
O O14 0.903636 0.903636 0.000000
#
# Coordination Sequence:
#
# PCOD8310672 Si02
#       7
#     8  16   8  16   4  16  16
#     4  10  15  20  34  62 100 138 170 203 246 296
#     4   9  16  27  45  69 101 139 172 204 250 307
#     4  10  15  20  34  62 100 138 170 203 246 296
#     4  10  21  37  56  78 105 137 173 216 267 317
#     4  12  17  16  32  72 108 136 177 218 249 296
#     4  10  21  37  56  78 105 137 173 216 267 317
#     4   9  16  27  45  69 101 139 172 204 250 307
#
# _framework density 19.235854
#
# number of rings (size 3 to 8) (size 9 to 14) (size 15 to 20)
#    0.000    2.286    3.810    0.857    0.000    1.905 
#    0.000    1.905    0.000    0.000    0.000    0.000 
#    0.000    0.000    0.000    1.714    0.000    2.095 
#
# Total GULP energy -520327.348556 kJ/mol
# GULP energy per Si atom -12388.746394 kJ/mol
# Density = 1.919207 g / cm^3
# Si number density = 19.235854 Si / 1000 Ang^3
#
#
#
# Elastic Constant Matrix: (Units=GPa)
#
#
# Indices 1 2 3 4 5 6 
#
# 1 99.1854 70.8948 31.5688 0.0000 0.0000 0.0000
# 2 70.8948 99.1740 31.5703 0.0000 0.0000 0.0000
# 3 31.5688 31.5703 19.4749 0.0000 0.0000 0.0000
# 4 0.0000 0.0000 0.0000 16.2892 0.0000 0.0000
# 5 0.0000 0.0000 0.0000 0.0000 16.2895 0.0000
# 6 0.0000 0.0000 0.0000 0.0000 0.0000 37.9759
#
#
#
# Elastic Compliance Matrix: (Units=1/GPa)
#
#
# Indices 1 2 3 4 5 6 
#
# 1 0.025056 -0.010294 -0.023928 0.000000 0.000000 0.000000
# 2 -0.010294 0.025064 -0.023944 0.000000 0.000000 0.000000
# 3 -0.023928 -0.023944 0.128951 0.000000 0.000000 0.000000
# 4 0.000000 0.000000 0.000000 0.061390 0.000000 0.000000
# 5 0.000000 0.000000 0.000000 0.000000 0.061389 0.000000
# 6 0.000000 0.000000 0.000000 0.000000 0.000000 0.026332
#
#
# Mechanical properties :
#
#
# Convention : Reuss Voigt Hill
#
# Bulk Modulus (GPa) = 15.93923 53.98913 34.96418
# Shear Modulus (GPa) = 10.74276 19.69761 15.22019
#
# Velocity S-wave (km/s) = 2.36577 3.20348 2.81595
# Velocity P-wave (km/s) = 3.97073 6.46613 5.36552
#
# Compressibility (1/GPa) = 0.06273829
#
# Stress axis : x y z
#
# Youngs Moduli (GPa) = 39.91049 39.89711 7.75489
#
# Poissons Ratio (x) = 0.41072 0.18556
# Poissons Ratio (y) = 0.41085 0.18568
# Poissons Ratio (z) = 0.95498 0.95531
#
# Static dielectric constant tensor:
#      x y z
#    x 3.694700 0.000000 0.000000 
#    y 0.000000 3.694700 0.000000 
#    z 0.000000 0.000000 2.715870 
# 
# 
# High freq. dielectric constant tensor:
#      x y z
#    x 1.758650 0.000000 0.000000 
#    y 0.000000 1.758650 0.000000 
#    z 0.000000 0.000000 1.662080 
# 
# From -- ./inp_files/4147.got.cif
#   From: 2010.03.12/outbox.cif.g09.slc.cpg/sg119_3_cif.got.tgz:4147.got - 2010.04.14 02:25:26.
