data_PCOD8310680
_publ_section_title
;
Structure prediction by ZEFSAII (Michael W. Deem and Ramdas Pophale) SiO2 
 PCOD8310680
Probable space group: I -4 M 2
;
_chemical_formula_sum "Si O2"
_cell_formula_units_Z 72
_cell_length_a 12.285411
_cell_length_b 12.285411
_cell_length_c 28.369898
_cell_angle_alpha 90.000000
_cell_angle_beta 90.000000
_cell_angle_gamma 90.000000
_cell_volume 4281.906251
_symmetry_space_group_name_H-M "I -4 M 2"
_symmetry_group_IT_number 119
_symmetry_cell_setting 'tetragonal'
loop_
_space_group_symop_operation_xyz
x,y,z
y,-x,-z
-x,-y,z
-y,x,-z
y,x,-z
-y,-x,-z
-x,y,z
x,-y,z
1/2+x,1/2+y,1/2+z
1/2+y,1/2-x,1/2-z
1/2-x,1/2-y,1/2+z
1/2-y,1/2+x,1/2-z
1/2+y,1/2+x,1/2-z
1/2-y,1/2-x,1/2-z
1/2-x,1/2+y,1/2+z
1/2+x,1/2-y,1/2+z
loop_
_atom_site_type_symbol
_atom_site_label
_atom_site_fract_x
_atom_site_fract_y
_atom_site_fract_z
Si Si1 0.875315 0.500000 0.969048
Si Si2 0.235984 0.876313 0.606719
Si Si3 0.376548 0.500000 0.797599
Si Si4 0.765333 0.123575 0.715827
Si Si5 0.500000 0.693666 0.103059
Si Si6 0.371417 0.783572 0.526728
O O1 0.811943 0.500000 0.920070
O O2 0.000000 0.500000 0.954521
O O3 0.844456 0.393484 0.998611
O O4 0.245152 0.840397 0.661371
O O5 0.111048 0.868622 0.588202
O O6 0.315708 0.796428 0.577924
O O7 0.275812 0.000000 0.600338
O O8 0.500000 0.500000 0.819717
O O9 0.361282 0.390889 0.767052
O O10 0.291420 0.500000 0.840603
O O11 0.694477 0.194477 0.750000
O O12 0.726738 0.000000 0.721791
O O13 0.319845 0.680156 0.500000
O O14 0.500000 0.763680 0.532697
#
# Coordination Sequence:
#
# PCOD8310680 Si02
#       6
#     8  16   8  16   8  16
#     4  10  20  32  50  74 102 132 170 206 253 305
#     4  10  19  32  53  81 105 129 163 213 264 307
#     4   8  16  32  54  76 100 136 164 200 255 305
#     4   9  18  32  53  78 104 133 167 205 253 305
#     4  10  16  30  54  76 100 128 166 208 256 308
#     4  11  22  36  52  73 103 141 176 207 251 302
#
# _framework density 16.81494
#
# number of rings (size 3 to 8) (size 9 to 14) (size 15 to 20)
#    0.000    2.222    3.333    2.333    0.000    1.333 
#    0.000    2.222   12.222    0.000    0.000    0.000 
#    0.000    0.000    0.000    0.000    0.000    0.000 
#
# Total GULP energy -446223.978089 kJ/mol
# GULP energy per Si atom -12395.110502 kJ/mol
# Density = 1.677667 g / cm^3
# Si number density = 16.814940 Si / 1000 Ang^3
#
#
#
# Elastic Constant Matrix: (Units=GPa)
#
#
# Indices 1 2 3 4 5 6 
#
# 1 106.0413 50.8232 58.2272 0.0000 0.0000 0.0000
# 2 50.8232 106.0425 58.2275 0.0000 0.0000 0.0000
# 3 58.2272 58.2275 86.6216 0.0000 0.0000 0.0000
# 4 0.0000 0.0000 0.0000 29.5619 0.0000 0.0000
# 5 0.0000 0.0000 0.0000 0.0000 29.5618 0.0000
# 6 0.0000 0.0000 0.0000 0.0000 0.0000 27.0875
#
#
#
# Elastic Compliance Matrix: (Units=1/GPa)
#
#
# Indices 1 2 3 4 5 6 
#
# 1 0.015418 -0.002692 -0.008554 0.000000 0.000000 0.000000
# 2 -0.002692 0.015417 -0.008554 0.000000 0.000000 0.000000
# 3 -0.008554 -0.008554 0.023045 0.000000 0.000000 0.000000
# 4 0.000000 0.000000 0.000000 0.033827 0.000000 0.000000
# 5 0.000000 0.000000 0.000000 0.000000 0.033827 0.000000
# 6 0.000000 0.000000 0.000000 0.000000 0.000000 0.036917
#
#
# Mechanical properties :
#
#
# Convention : Reuss Voigt Hill
#
# Bulk Modulus (GPa) = 70.03225 70.36236 70.19731
# Shear Modulus (GPa) = 24.65338 26.00407 25.32872
#
# Velocity S-wave (km/s) = 3.83320 3.93680 3.88535
# Velocity P-wave (km/s) = 7.83138 7.91205 7.87182
#
# Compressibility (1/GPa) = 0.01427914
#
# Stress axis : x y z
#
# Youngs Moduli (GPa) = 64.86072 64.86153 43.39428
#
# Poissons Ratio (x) = 0.17463 0.37120
# Poissons Ratio (y) = 0.17462 0.37119
# Poissons Ratio (z) = 0.55482 0.55482
#
# Static dielectric constant tensor:
#      x y z
#    x 3.131500 0.000000 0.000000 
#    y 0.000000 3.131500 0.000000 
#    z 0.000000 0.000000 2.948090 
# 
# 
# High freq. dielectric constant tensor:
#      x y z
#    x 1.643200 0.000000 0.000000 
#    y 0.000000 1.643200 0.000000 
#    z 0.000000 0.000000 1.628730 
# 
# From -- ./inp_files/9411.got.cif
#   From: 2010.03.12/outbox.cif.g09.slc.cpg/sg119_5_cif.got.tgz:9411.got - 2010.04.14 02:25:26.
