data_PCOD8310689
_publ_section_title
;
Structure prediction by ZEFSAII (Michael W. Deem and Ramdas Pophale) SiO2 
 PCOD8310689
Probable space group: I -4 M 2
;
_chemical_formula_sum "Si O2"
_cell_formula_units_Z 64
_cell_length_a 18.801929
_cell_length_b 18.801929
_cell_length_c 12.039223
_cell_angle_alpha 90.000000
_cell_angle_beta 90.000000
_cell_angle_gamma 90.000000
_cell_volume 4256.016232
_symmetry_space_group_name_H-M "I -4 M 2"
_symmetry_group_IT_number 119
_symmetry_cell_setting 'tetragonal'
loop_
_space_group_symop_operation_xyz
x,y,z
y,-x,-z
-x,-y,z
-y,x,-z
y,x,-z
-y,-x,-z
-x,y,z
x,-y,z
1/2+x,1/2+y,1/2+z
1/2+y,1/2-x,1/2-z
1/2-x,1/2-y,1/2+z
1/2-y,1/2+x,1/2-z
1/2+y,1/2+x,1/2-z
1/2-y,1/2-x,1/2-z
1/2-x,1/2+y,1/2+z
1/2+x,1/2-y,1/2+z
loop_
_atom_site_type_symbol
_atom_site_label
_atom_site_fract_x
_atom_site_fract_y
_atom_site_fract_z
Si Si1 0.731208 0.153843 0.475972
Si Si2 0.259903 0.500000 0.315815
Si Si3 0.271166 0.651854 0.405631
Si Si4 0.000000 0.614200 0.266429
Si Si5 0.721990 0.778011 0.250000
Si Si6 0.500000 0.230290 0.928321
O O1 0.804683 0.195318 0.500000
O O2 0.669466 0.190405 0.552025
O O3 0.710086 0.163585 0.346584
O O4 0.743510 0.070736 0.499718
O O5 0.287349 0.570113 0.377669
O O6 0.174622 0.500000 0.327493
O O7 0.279873 0.500000 0.183454
O O8 0.327299 0.672702 0.500000
O O9 0.286558 0.697916 0.295880
O O10 0.929423 0.570578 0.250000
O O11 0.000000 0.647802 0.390017
#
# Coordination Sequence:
#
# PCOD8310689 Si02
#       6
#    16   8  16   8   8   8
#     4   9  17  30  47  69  93 122 159 197 238 286
#     4  10  17  26  47  68  95 119 151 197 243 273
#     4   9  17  29  47  69  93 122 158 196 241 288
#     4   9  18  26  40  69 101 123 142 186 240 293
#     4   8  16  30  46  62  97 125 154 200 236 276
#     4  10  19  26  49  71  92 121 159 193 243 283
#
# _framework density 15.037535999999999
#
# number of rings (size 3 to 8) (size 9 to 14) (size 15 to 20)
#    0.750    2.625    0.000    4.500    1.750    0.000 
#    0.000    5.000    0.000    0.750    0.000    1.750 
#    0.000    0.000    0.000    0.000    0.000    0.000 
#
# Total GULP energy -396418.696540 kJ/mol
# GULP energy per Si atom -12388.084267 kJ/mol
# Density = 1.500331 g / cm^3
# Si number density = 15.037536 Si / 1000 Ang^3
#
#
#
# Elastic Constant Matrix: (Units=GPa)
#
#
# Indices 1 2 3 4 5 6 
#
# 1 105.1391 14.4789 38.9775 0.0000 0.0000 0.0000
# 2 14.4789 105.1352 38.9764 0.0000 0.0000 0.0000
# 3 38.9775 38.9764 98.0308 0.0000 0.0000 0.0000
# 4 0.0000 0.0000 0.0000 18.5906 0.0000 0.0000
# 5 0.0000 0.0000 0.0000 0.0000 18.5872 0.0000
# 6 0.0000 0.0000 0.0000 0.0000 0.0000 20.4941
#
#
#
# Elastic Compliance Matrix: (Units=1/GPa)
#
#
# Indices 1 2 3 4 5 6 
#
# 1 0.011157 0.000127 -0.004486 0.000000 0.000000 0.000000
# 2 0.000127 0.011157 -0.004486 0.000000 0.000000 0.000000
# 3 -0.004486 -0.004486 0.013769 0.000000 0.000000 0.000000
# 4 0.000000 0.000000 0.000000 0.053791 0.000000 0.000000
# 5 0.000000 0.000000 0.000000 0.000000 0.053800 0.000000
# 6 0.000000 0.000000 0.000000 0.000000 0.000000 0.048795
#
#
# Mechanical properties :
#
#
# Convention : Reuss Voigt Hill
#
# Bulk Modulus (GPa) = 54.37605 54.79675 54.58640
# Shear Modulus (GPa) = 23.11698 25.92585 24.52141
#
# Velocity S-wave (km/s) = 3.92508 4.15670 4.04255
# Velocity P-wave (km/s) = 7.53527 7.71730 7.62683
#
# Compressibility (1/GPa) = 0.01839045
#
# Stress axis : x y z
#
# Youngs Moduli (GPa) = 89.62989 89.62683 72.62944
#
# Poissons Ratio (x) = -0.01136 0.32585
# Poissons Ratio (y) = -0.01136 0.32585
# Poissons Ratio (z) = 0.40212 0.40211
#
# Static dielectric constant tensor:
#      x y z
#    x 2.676890 0.000000 0.000000 
#    y 0.000000 2.676670 0.000000 
#    z 0.000000 0.000000 3.003510 
# 
# 
# High freq. dielectric constant tensor:
#      x y z
#    x 1.553760 0.000000 0.000000 
#    y 0.000000 1.553760 0.000000 
#    z 0.000000 0.000000 1.578910 
# 
# From -- ./inp_files/4041.got.cif
#   From: 2010.03.12/outbox.cif.g09.slc.cpg/sg119_3_cif.got.tgz:4041.got - 2010.04.14 02:25:26.
