data_PCOD8310570
_publ_section_title
;
Structure prediction by ZEFSAII (Michael W. Deem and Ramdas Pophale) SiO2 
 PCOD8310570
Probable space group: P -4 N 2
;
_chemical_formula_sum "Si O2"
_cell_formula_units_Z 54
_cell_length_a 14.491651
_cell_length_b 14.491651
_cell_length_c 11.659436
_cell_angle_alpha 90.000000
_cell_angle_beta 90.000000
_cell_angle_gamma 90.000000
_cell_volume 2448.574237
_symmetry_space_group_name_H-M "P -4 N 2"
_symmetry_group_IT_number 118
_symmetry_cell_setting 'tetragonal'
loop_
_space_group_symop_operation_xyz
x,y,z
y,-x,-z
-x,-y,z
-y,x,-z
1/2+y,1/2+x,1/2-z
1/2-y,1/2-x,1/2-z
1/2-x,1/2+y,1/2+z
1/2+x,1/2-y,1/2+z
loop_
_atom_site_type_symbol
_atom_site_label
_atom_site_fract_x
_atom_site_fract_y
_atom_site_fract_z
Si Si1 0.844321 0.045677 0.645448
Si Si2 0.500000 0.500000 0.000000
Si Si3 0.067325 0.419438 0.614723
Si Si4 0.926427 0.174946 0.145521
Si Si5 0.642056 0.857945 0.750000
Si Si6 0.754439 0.769450 0.375397
Si Si7 0.803797 0.436735 0.027033
Si Si8 0.915479 0.769010 0.988105
O O1 0.781016 0.136071 0.643062
O O2 0.867843 0.004857 0.771089
O O3 0.794743 0.963828 0.576669
O O4 0.939764 0.066950 0.580973
O O5 0.077501 0.422499 0.750000
O O6 0.170188 0.424561 0.569824
O O7 0.000000 0.500000 0.570079
O O8 0.016406 0.329969 0.563580
O O9 0.868333 0.253544 0.208629
O O10 0.851085 0.100533 0.103680
O O11 0.983601 0.214805 0.039128
O O12 0.574994 0.873575 0.861488
O O13 0.711157 0.788844 0.250000
O O14 0.706791 0.838697 0.464150
O O15 0.733770 0.665866 0.417572
#
# Coordination Sequence:
#
# PCOD8310570 Si02
#       8
#     8   2   8   8   4   8   8   8
#     4  11  24  43  67 101 139 184 239 302 361 449
#     4  12  24  40  64  98 136 176 244 292 360 430
#     4  11  27  45  69 107 142 189 249 309 379 441
#     4  11  26  45  71 105 143 196 246 303 384 452
#     4  10  22  44  75 106 143 184 246 310 378 452
#     4  12  24  44  73 103 145 191 247 307 380 438
#     4  11  23  43  71 103 141 187 242 302 368 453
#     4  12  26  46  73 104 150 196 247 312 379 462
#
# _framework density 22.053652
#
# number of rings (size 3 to 8) (size 9 to 14) (size 15 to 20)
#    0.000    0.741    5.926    0.889    3.111    2.667 
#    0.000    2.593    0.000    0.000    0.000    0.000 
#    0.000    0.000    0.000    0.000    0.000    0.000 
#
# Total GULP energy -669289.787426 kJ/mol
# GULP energy per Si atom -12394.255323 kJ/mol
# Density = 2.200346 g / cm^3
# Si number density = 22.053652 Si / 1000 Ang^3
#
#
#
# Elastic Constant Matrix: (Units=GPa)
#
#
# Indices 1 2 3 4 5 6 
#
# 1 88.7230 41.9734 44.7267 0.0000 0.0000 0.0000
# 2 41.9734 88.7232 44.7277 0.0000 0.0000 0.0000
# 3 44.7267 44.7277 130.3088 0.0000 0.0000 0.0000
# 4 0.0000 0.0000 0.0000 32.5766 0.0000 0.0000
# 5 0.0000 0.0000 0.0000 0.0000 32.5773 0.0000
# 6 0.0000 0.0000 0.0000 0.0000 0.0000 35.5130
#
#
#
# Elastic Compliance Matrix: (Units=1/GPa)
#
#
# Indices 1 2 3 4 5 6 
#
# 1 0.015696 -0.005695 -0.003433 0.000000 0.000000 0.000000
# 2 -0.005695 0.015696 -0.003433 0.000000 0.000000 0.000000
# 3 -0.003433 -0.003433 0.010031 0.000000 0.000000 0.000000
# 4 0.000000 0.000000 0.000000 0.030697 0.000000 0.000000
# 5 0.000000 0.000000 0.000000 0.000000 0.030696 0.000000
# 6 0.000000 0.000000 0.000000 0.000000 0.000000 0.028159
#
#
# Mechanical properties :
#
#
# Convention : Reuss Voigt Hill
#
# Bulk Modulus (GPa) = 61.34433 63.40118 62.37275
# Shear Modulus (GPa) = 30.95441 31.88852 31.42146
#
# Velocity S-wave (km/s) = 3.75052 3.80669 3.77871
# Velocity P-wave (km/s) = 6.82873 6.93774 6.88345
#
# Compressibility (1/GPa) = 0.01630143
#
# Stress axis : x y z
#
# Youngs Moduli (GPa) = 63.71213 63.71176 99.69556
#
# Poissons Ratio (x) = 0.36283 0.34221
# Poissons Ratio (y) = 0.36283 0.34223
# Poissons Ratio (z) = 0.21870 0.21871
#
# Static dielectric constant tensor:
#      x y z
#    x 3.853570 0.000000 0.000000 
#    y 0.000000 3.853570 0.000000 
#    z 0.000000 0.000000 4.345540 
# 
# 
# High freq. dielectric constant tensor:
#      x y z
#    x 1.861200 0.000000 0.000000 
#    y 0.000000 1.861200 0.000000 
#    z 0.000000 0.000000 1.885970 
# 
# From -- ./inp_files/3450.got.cif
#   From: 2010.03.12/outbox.cif.g09.slc.cpg/sg118_2_cif.got.tgz:3450.got - 2010.04.14 02:21:17.
