data_PCOD8310199
_publ_section_title
;
Structure prediction by ZEFSAII (Michael W. Deem and Ramdas Pophale) SiO2 
 PCOD8310199
Probable space group: P -4 C 2
;
_chemical_formula_sum "Si O2"
_cell_formula_units_Z 36
_cell_length_a 11.606532
_cell_length_b 11.606532
_cell_length_c 12.201363
_cell_angle_alpha 90.000000
_cell_angle_beta 90.000000
_cell_angle_gamma 90.000000
_cell_volume 1643.664950
_symmetry_space_group_name_H-M "P -4 C 2"
_symmetry_group_IT_number 116
_symmetry_cell_setting 'tetragonal'
loop_
_space_group_symop_operation_xyz
x,y,z
y,-x,-z
-x,-y,z
-y,x,-z
y,x,1/2-z
-y,-x,1/2-z
-x,y,1/2+z
x,-y,1/2+z
loop_
_atom_site_type_symbol
_atom_site_label
_atom_site_fract_x
_atom_site_fract_y
_atom_site_fract_z
Si Si1 0.352658 0.187528 0.013117
Si Si2 0.062937 0.799127 0.157213
Si Si3 0.914849 0.607894 0.262761
Si Si4 0.271492 0.428553 0.091211
Si Si5 0.500000 0.500000 0.000000
Si Si6 0.000000 0.000000 0.000000
O O1 0.352349 0.097686 0.112282
O O2 0.282510 0.301775 0.043109
O O3 0.287496 0.145246 0.906238
O O4 0.488890 0.197903 0.988205
O O5 0.135018 0.864983 0.250000
O O6 0.961089 0.722166 0.205141
O O7 0.002480 0.887735 0.075386
O O8 0.789449 0.575550 0.210801
O O9 0.000000 0.500000 0.250302
O O10 0.397898 0.485713 0.088810
#
# Coordination Sequence:
#
# PCOD8310199 Si02
#       6
#     8   8   8   8   2   2
#     4  11  25  43  73 102 147 185 249 306 370 447
#     4  12  27  47  73 107 142 198 247 306 371 442
#     4  12  26  44  72 108 147 192 247 307 379 444
#     4  10  22  45  69 105 140 193 237 303 374 444
#     4   8  20  44  74 104 148 190 246 300 372 446
#     4  12  26  48  76 102 156 192 254 300 368 442
#
# _framework density 21.902274999999999
#
# number of rings (size 3 to 8) (size 9 to 14) (size 15 to 20)
#    0.000    0.889    2.222    3.667    6.222    1.778 
#    0.000   15.556    0.000    0.000    0.000    0.000 
#    0.000    0.000    0.000    0.000    0.000    0.000 
#
# Total GULP energy -446292.905688 kJ/mol
# GULP energy per Si atom -12397.025158 kJ/mol
# Density = 2.185242 g / cm^3
# Si number density = 21.902275 Si / 1000 Ang^3
#
#
#
# Elastic Constant Matrix: (Units=GPa)
#
#
# Indices 1 2 3 4 5 6 
#
# 1 104.6450 48.1439 47.3435 0.0000 0.0000 0.0000
# 2 48.1439 104.6449 47.3433 0.0000 0.0000 0.0000
# 3 47.3435 47.3433 118.9206 0.0000 0.0000 0.0000
# 4 0.0000 0.0000 0.0000 30.9295 0.0000 0.0000
# 5 0.0000 0.0000 0.0000 0.0000 30.9293 0.0000
# 6 0.0000 0.0000 0.0000 0.0000 0.0000 31.9298
#
#
#
# Elastic Compliance Matrix: (Units=1/GPa)
#
#
# Indices 1 2 3 4 5 6 
#
# 1 0.013194 -0.004505 -0.003459 0.000000 0.000000 0.000000
# 2 -0.004505 0.013194 -0.003459 0.000000 0.000000 0.000000
# 3 -0.003459 -0.003459 0.011163 0.000000 0.000000 0.000000
# 4 0.000000 0.000000 0.000000 0.032332 0.000000 0.000000
# 5 0.000000 0.000000 0.000000 0.000000 0.032332 0.000000
# 6 0.000000 0.000000 0.000000 0.000000 0.000000 0.031319
#
#
# Mechanical properties :
#
#
# Convention : Reuss Voigt Hill
#
# Bulk Modulus (GPa) = 68.00749 68.20799 68.10774
# Shear Modulus (GPa) = 31.00192 31.11637 31.05915
#
# Velocity S-wave (km/s) = 3.76635 3.77329 3.76982
# Velocity P-wave (km/s) = 7.07331 7.08472 7.07902
#
# Compressibility (1/GPa) = 0.01470426
#
# Stress axis : x y z
#
# Youngs Moduli (GPa) = 75.79374 75.79371 89.58083
#
# Poissons Ratio (x) = 0.34146 0.30986
# Poissons Ratio (y) = 0.34146 0.30986
# Poissons Ratio (z) = 0.26217 0.26217
#
# Static dielectric constant tensor:
#      x y z
#    x 4.134110 0.000000 0.000000 
#    y 0.000000 4.134110 0.000000 
#    z 0.000000 0.000000 3.945510 
# 
# 
# High freq. dielectric constant tensor:
#      x y z
#    x 1.875700 0.000000 0.000000 
#    y 0.000000 1.875700 0.000000 
#    z 0.000000 0.000000 1.858480 
# 
# From -- ./inp_files/1752.got.cif
#   From: 2010.03.12/outbox.cif.g09.slc.cpg/sg116_1_cif.got.tgz:1752.got - 2010.04.14 02:15:44.
