data_PCOD8310011
_publ_section_title
;
Structure prediction by ZEFSAII (Michael W. Deem and Ramdas Pophale) SiO2 
 PCOD8310011
Probable space group: P -4 M 2
;
_chemical_formula_sum "Si O2"
_cell_formula_units_Z 44
_cell_length_a 9.192872
_cell_length_b 9.192872
_cell_length_c 28.474386
_cell_angle_alpha 90.000000
_cell_angle_beta 90.000000
_cell_angle_gamma 90.000000
_cell_volume 2406.338914
_symmetry_space_group_name_H-M "P -4 M 2"
_symmetry_group_IT_number 115
_symmetry_cell_setting 'tetragonal'
loop_
_space_group_symop_operation_xyz
x,y,z
y,-x,-z
-x,-y,z
-y,x,-z
y,x,-z
-y,-x,-z
-x,y,z
x,-y,z
loop_
_atom_site_type_symbol
_atom_site_label
_atom_site_fract_x
_atom_site_fract_y
_atom_site_fract_z
Si Si1 0.839584 0.672565 0.228659
Si Si2 0.170378 0.329195 0.957720
Si Si3 0.670782 0.667532 0.317990
Si Si4 0.835794 0.326781 0.591585
Si Si5 0.171329 0.668497 0.123889
Si Si6 0.330534 0.669467 0.500000
O O1 0.845988 0.500000 0.230621
O O2 0.735682 0.732667 0.269687
O O3 0.784443 0.716430 0.176786
O O4 0.000000 0.737476 0.237330
O O5 0.202646 0.500000 0.959319
O O6 0.228409 0.264652 0.909187
O O7 0.000000 0.296128 0.962329
O O8 0.253275 0.253275 0.000000
O O9 0.500000 0.687042 0.314193
O O10 0.714925 0.500000 0.325346
O O11 0.734781 0.756281 0.362099
O O12 0.830001 0.500000 0.592285
O O13 0.753999 0.269609 0.545287
O O14 0.000000 0.268078 0.590982
O O15 0.210922 0.500000 0.114351
O O16 0.000000 0.692614 0.115327
O O17 0.500000 0.699732 0.508545
#
# Coordination Sequence:
#
# PCOD8310011 Si02
#       6
#     8   8   8   8   8   4
#     4   8  15  29  49  73 100 128 159 197 238 280
#     4  11  24  39  55  78 106 135 170 210 251 298
#     4   9  16  27  46  71  95 121 157 196 231 273
#     4   9  17  29  45  66  92 120 150 188 236 283
#     4   9  18  34  56  80 105 134 169 208 250 296
#     4   9  16  28  48  69  86 110 150 195 232 274
#
# _framework density 18.285039999999999
#
# number of rings (size 3 to 8) (size 9 to 14) (size 15 to 20)
#    0.000    2.818    0.000    2.727    0.000    6.909 
#    0.000    3.636    0.000    9.545    0.000    0.000 
#    0.000    0.000    0.000    0.000    0.000    0.000 
#
# Total GULP energy -545495.982763 kJ/mol
# GULP energy per Si atom -12397.635972 kJ/mol
# Density = 1.824342 g / cm^3
# Si number density = 18.285040 Si / 1000 Ang^3
#
#
#
# Elastic Constant Matrix: (Units=GPa)
#
#
# Indices 1 2 3 4 5 6 
#
# 1 71.8173 46.8987 70.4172 0.0000 0.0000 0.0000
# 2 46.8987 71.8167 70.4172 0.0000 0.0000 0.0000
# 3 70.4172 70.4172 193.2427 0.0000 0.0000 0.0000
# 4 0.0000 0.0000 0.0000 5.4292 0.0000 0.0000
# 5 0.0000 0.0000 0.0000 0.0000 5.4286 0.0000
# 6 0.0000 0.0000 0.0000 0.0000 0.0000 17.9345
#
#
#
# Elastic Compliance Matrix: (Units=1/GPa)
#
#
# Indices 1 2 3 4 5 6 
#
# 1 0.027484 -0.012647 -0.005407 0.000000 0.000000 0.000000
# 2 -0.012647 0.027485 -0.005407 0.000000 0.000000 0.000000
# 3 -0.005407 -0.005407 0.009115 0.000000 0.000000 0.000000
# 4 0.000000 0.000000 0.000000 0.184188 0.000000 0.000000
# 5 0.000000 0.000000 0.000000 0.000000 0.184209 0.000000
# 6 0.000000 0.000000 0.000000 0.000000 0.000000 0.055759
#
#
# Mechanical properties :
#
#
# Convention : Reuss Voigt Hill
#
# Bulk Modulus (GPa) = 58.26351 79.14919 68.70635
# Shear Modulus (GPa) = 9.24418 15.70138 12.47278
#
# Velocity S-wave (km/s) = 2.25090 2.93354 2.61460
# Velocity P-wave (km/s) = 6.22002 7.40638 6.83897
#
# Compressibility (1/GPa) = 0.01716340
#
# Stress axis : x y z
#
# Youngs Moduli (GPa) = 36.38453 36.38411 109.70562
#
# Poissons Ratio (x) = 0.46014 0.59315
# Poissons Ratio (y) = 0.46014 0.59316
# Poissons Ratio (z) = 0.19672 0.19672
#
# Static dielectric constant tensor:
#      x y z
#    x 3.218820 0.000000 0.000000 
#    y 0.000000 3.218820 0.000000 
#    z 0.000000 0.000000 3.758070 
# 
# 
# High freq. dielectric constant tensor:
#      x y z
#    x 1.684800 0.000000 0.000000 
#    y 0.000000 1.684800 0.000000 
#    z 0.000000 0.000000 1.729090 
# 
# From -- ./inp_files/5716.got.cif
#   From: 2010.03.12/outbox.cif.g09.slc.cpg/sg115_3_cif.got.tgz:5716.got - 2010.04.14 02:11:21.
