data_PCOD8310839
_publ_section_title
;
Structure prediction by ZEFSAII (Michael W. Deem and Ramdas Pophale) SiO2 
 PCOD8310839
Probable space group: I -4 M 2
;
_chemical_formula_sum "Si O2"
_cell_formula_units_Z 40
_cell_length_a 13.713930
_cell_length_b 13.713930
_cell_length_c 12.277291
_cell_angle_alpha 90.000000
_cell_angle_beta 90.000000
_cell_angle_gamma 90.000000
_cell_volume 2309.013151
_symmetry_space_group_name_H-M "I -4 M 2"
_symmetry_group_IT_number 119
_symmetry_cell_setting 'tetragonal'
loop_
_space_group_symop_operation_xyz
x,y,z
y,-x,-z
-x,-y,z
-y,x,-z
y,x,-z
-y,-x,-z
-x,y,z
x,-y,z
1/2+x,1/2+y,1/2+z
1/2+y,1/2-x,1/2-z
1/2-x,1/2-y,1/2+z
1/2-y,1/2+x,1/2-z
1/2+y,1/2+x,1/2-z
1/2-y,1/2-x,1/2-z
1/2-x,1/2+y,1/2+z
1/2+x,1/2-y,1/2+z
loop_
_atom_site_type_symbol
_atom_site_label
_atom_site_fract_x
_atom_site_fract_y
_atom_site_fract_z
Si Si1 0.719569 0.389629 0.581697
Si Si2 0.110340 0.111549 0.300835
Si Si3 0.203895 0.796106 0.500000
O O1 0.627977 0.372024 0.500000
O O2 0.757769 0.500000 0.572594
O O3 0.683918 0.364631 0.703141
O O4 0.806984 0.315453 0.546164
O O5 0.130229 0.183602 0.401530
O O6 0.000000 0.129060 0.260902
O O7 0.124847 0.000000 0.339935
#
# Coordination Sequence:
#
# PCOD8310839 Si02
#       3
#    16  16   8
#     4   9  19  32  50  74 102 132 164 204 250 295
#     4  10  19  33  54  78 102 129 165 211 257 295
#     4  10  20  31  49  78 106 132 162 208 252 300
#
# _framework density 17.323419000000001
#
# number of rings (size 3 to 8) (size 9 to 14) (size 15 to 20)
#    1.200    1.200    0.000    3.600    0.000    3.600 
#    0.000    0.000    0.000    4.800    0.000   11.200 
#    0.000    0.000    0.000    0.000    0.000    0.000 
#
# Total GULP energy -247775.224808 kJ/mol
# GULP energy per Si atom -12388.761240 kJ/mol
# Density = 1.728399 g / cm^3
# Si number density = 17.323419 Si / 1000 Ang^3
#
#
#
# Elastic Constant Matrix: (Units=GPa)
#
#
# Indices 1 2 3 4 5 6 
#
# 1 61.8924 34.9590 35.9554 0.0000 0.0000 0.0000
# 2 34.9590 61.8912 35.9546 0.0000 0.0000 0.0000
# 3 35.9554 35.9546 106.9294 0.0000 0.0000 0.0000
# 4 0.0000 0.0000 0.0000 31.6513 0.0000 0.0000
# 5 0.0000 0.0000 0.0000 0.0000 31.6514 0.0000
# 6 0.0000 0.0000 0.0000 0.0000 0.0000 28.5244
#
#
#
# Elastic Compliance Matrix: (Units=1/GPa)
#
#
# Indices 1 2 3 4 5 6 
#
# 1 0.025445 -0.011684 -0.004627 0.000000 0.000000 0.000000
# 2 -0.011684 0.025445 -0.004627 0.000000 0.000000 0.000000
# 3 -0.004627 -0.004627 0.012464 0.000000 0.000000 0.000000
# 4 0.000000 0.000000 0.000000 0.031594 0.000000 0.000000
# 5 0.000000 0.000000 0.000000 0.000000 0.031594 0.000000
# 6 0.000000 0.000000 0.000000 0.000000 0.000000 0.035058
#
#
# Mechanical properties :
#
#
# Convention : Reuss Voigt Hill
#
# Bulk Modulus (GPa) = 46.56176 49.38345 47.97260
# Shear Modulus (GPa) = 23.73769 26.62172 25.17970
#
# Velocity S-wave (km/s) = 3.70573 3.92439 3.81662
# Velocity P-wave (km/s) = 6.72653 7.00736 6.86838
#
# Compressibility (1/GPa) = 0.02147685
#
# Stress axis : x y z
#
# Youngs Moduli (GPa) = 39.30066 39.30016 80.23349
#
# Poissons Ratio (x) = 0.45920 0.37125
# Poissons Ratio (y) = 0.45920 0.37123
# Poissons Ratio (z) = 0.18185 0.18184
#
# Static dielectric constant tensor:
#      x y z
#    x 2.983900 0.000000 0.000000 
#    y 0.000000 2.983910 0.000000 
#    z 0.000000 0.000000 3.309430 
# 
# 
# High freq. dielectric constant tensor:
#      x y z
#    x 1.642610 0.000000 0.000000 
#    y 0.000000 1.642610 0.000000 
#    z 0.000000 0.000000 1.688000 
# 
# From -- ./inp_files/3225.got.cif
#   From: 2010.03.12/outbox.cif.g09.slc.cpg/sg119_2_cif.got.tgz:3225.got - 2010.04.14 02:25:26.
