data_PCOD8310138
_publ_section_title
;
Structure prediction by ZEFSAII (Michael W. Deem and Ramdas Pophale) SiO2 
 PCOD8310138
Probable space group: P -4 C 2
;
_chemical_formula_sum "Si O2"
_cell_formula_units_Z 40
_cell_length_a 15.190931
_cell_length_b 15.190931
_cell_length_c 8.914014
_cell_angle_alpha 90.000000
_cell_angle_beta 90.000000
_cell_angle_gamma 90.000000
_cell_volume 2057.036955
_symmetry_space_group_name_H-M "P -4 C 2"
_symmetry_group_IT_number 116
_symmetry_cell_setting 'tetragonal'
loop_
_space_group_symop_operation_xyz
x,y,z
y,-x,-z
-x,-y,z
-y,x,-z
y,x,1/2-z
-y,-x,1/2-z
-x,y,1/2+z
x,-y,1/2+z
loop_
_atom_site_type_symbol
_atom_site_label
_atom_site_fract_x
_atom_site_fract_y
_atom_site_fract_z
Si Si1 0.592955 0.295365 0.669389
Si Si2 0.228456 0.794993 0.587087
Si Si3 0.795930 0.511024 0.053011
Si Si4 0.333740 0.897022 0.070201
Si Si5 0.922070 0.655671 0.587572
O O1 0.608630 0.391371 0.750000
O O2 0.689559 0.270932 0.607825
O O3 0.554656 0.224317 0.787261
O O4 0.527522 0.293573 0.526296
O O5 0.185356 0.814645 0.750000
O O6 0.153087 0.753315 0.484076
O O7 0.263302 0.883193 0.508354
O O8 0.866714 0.433234 0.066727
O O9 0.831768 0.583787 0.939029
O O10 0.317178 0.926145 0.239548
O O11 0.359028 0.978971 0.965804
#
# Coordination Sequence:
#
# PCOD8310138 Si02
#       5
#     8   8   8   8   8
#     4  10  20  38  60  87 117 162 210 255 321 375
#     4  10  20  39  61  84 126 167 209 251 311 382
#     4  11  21  36  60  90 119 159 204 262 316 379
#     4  12  22  38  58  91 129 162 208 258 321 381
#     4  11  25  35  60  94 128 163 206 263 319 374
#
# _framework density 19.445447000000001
#
# number of rings (size 3 to 8) (size 9 to 14) (size 15 to 20)
#    0.000    1.200    6.000    2.400    2.800    1.600 
#    0.000    1.000    0.000    2.400    0.000    4.200 
#    0.000    0.000    0.000    0.000    0.000    0.000 
#
# Total GULP energy -495786.284015 kJ/mol
# GULP energy per Si atom -12394.657100 kJ/mol
# Density = 1.940119 g / cm^3
# Si number density = 19.445447 Si / 1000 Ang^3
#
#
#
# Elastic Constant Matrix: (Units=GPa)
#
#
# Indices 1 2 3 4 5 6 
#
# 1 46.3706 33.8198 14.9210 0.0000 0.0000 0.0000
# 2 33.8198 46.3699 14.9210 0.0000 0.0000 0.0000
# 3 14.9210 14.9210 113.0670 0.0000 0.0000 0.0000
# 4 0.0000 0.0000 0.0000 31.5049 0.0000 0.0000
# 5 0.0000 0.0000 0.0000 0.0000 31.5056 0.0000
# 6 0.0000 0.0000 0.0000 0.0000 0.0000 25.7997
#
#
#
# Elastic Compliance Matrix: (Units=1/GPa)
#
#
# Indices 1 2 3 4 5 6 
#
# 1 0.046396 -0.033282 -0.001731 0.000000 0.000000 0.000000
# 2 -0.033282 0.046397 -0.001731 0.000000 0.000000 0.000000
# 3 -0.001731 -0.001731 0.009301 0.000000 0.000000 0.000000
# 4 0.000000 0.000000 0.000000 0.031741 0.000000 0.000000
# 5 0.000000 0.000000 0.000000 0.000000 0.031740 0.000000
# 6 0.000000 0.000000 0.000000 0.000000 0.000000 0.038760
#
#
# Mechanical properties :
#
#
# Convention : Reuss Voigt Hill
#
# Bulk Modulus (GPa) = 34.95611 37.01457 35.98534
# Shear Modulus (GPa) = 17.39992 27.23844 22.31918
#
# Velocity S-wave (km/s) = 2.99458 3.74674 3.39157
# Velocity P-wave (km/s) = 5.47469 6.14766 5.82091
#
# Compressibility (1/GPa) = 0.02860731
#
# Stress axis : x y z
#
# Youngs Moduli (GPa) = 21.55360 21.55323 107.51432
#
# Poissons Ratio (x) = 0.71733 0.18606
# Poissons Ratio (y) = 0.71735 0.18608
# Poissons Ratio (z) = 0.03730 0.03730
#
# Static dielectric constant tensor:
#      x y z
#    x 3.465780 0.000000 0.000000 
#    y 0.000000 3.465780 0.000000 
#    z 0.000000 0.000000 3.812670 
# 
# 
# High freq. dielectric constant tensor:
#      x y z
#    x 1.734260 0.000000 0.000000 
#    y 0.000000 1.734260 0.000000 
#    z 0.000000 0.000000 1.779260 
# 
# From -- ./inp_files/769.got.cif
#   From: 2010.03.12/outbox.cif.g09.slc.cpg/sg116_1_cif.got.tgz:769.got - 2010.04.14 02:15:44.
