data_PCOD8310484
_publ_section_title
;
Structure prediction by ZEFSAII (Michael W. Deem and Ramdas Pophale) SiO2 
 PCOD8310484
Probable space group: P -4 N 2
;
_chemical_formula_sum "Si O2"
_cell_formula_units_Z 56
_cell_length_a 12.021132
_cell_length_b 12.021132
_cell_length_c 18.907882
_cell_angle_alpha 90.000000
_cell_angle_beta 90.000000
_cell_angle_gamma 90.000000
_cell_volume 2732.332924
_symmetry_space_group_name_H-M "P -4 N 2"
_symmetry_group_IT_number 118
_symmetry_cell_setting 'tetragonal'
loop_
_space_group_symop_operation_xyz
x,y,z
y,-x,-z
-x,-y,z
-y,x,-z
1/2+y,1/2+x,1/2-z
1/2-y,1/2-x,1/2-z
1/2-x,1/2+y,1/2+z
1/2+x,1/2-y,1/2+z
loop_
_atom_site_type_symbol
_atom_site_label
_atom_site_fract_x
_atom_site_fract_y
_atom_site_fract_z
Si Si1 0.320602 0.318981 0.566299
Si Si2 0.374667 0.488092 0.797372
Si Si3 0.784887 0.338395 0.824598
Si Si4 0.252960 0.440030 0.436029
Si Si5 0.168700 0.053859 0.139816
Si Si6 0.859345 0.263854 0.318739
Si Si7 0.598722 0.152657 0.825775
O O1 0.242054 0.349795 0.499531
O O2 0.434891 0.267547 0.534733
O O3 0.336850 0.431812 0.609395
O O4 0.268147 0.228134 0.617580
O O5 0.500000 0.500000 0.828398
O O6 0.276998 0.545674 0.846547
O O7 0.363272 0.550868 0.722576
O O8 0.350386 0.359704 0.789122
O O9 0.848292 0.348292 0.750000
O O10 0.882932 0.288676 0.874864
O O11 0.684342 0.252146 0.821159
O O12 0.367813 0.425033 0.393371
O O13 0.144308 0.433166 0.385510
O O14 0.838152 0.338152 0.250000
O O15 0.979356 0.299208 0.348891
O O16 0.590806 0.090806 0.750000
#
# Coordination Sequence:
#
# PCOD8310484 Si02
#       7
#     8   8   8   8   8   8   8
#     4  12  23  39  61  96 127 165 207 269 324 389
#     4  11  19  36  64  93 126 165 212 266 314 377
#     4   8  17  33  59  89 118 160 207 251 306 370
#     4  11  23  39  65  93 127 167 214 261 328 385
#     4  10  20  35  62  94 125 161 210 260 319 378
#     4  12  25  38  62 101 132 163 216 268 331 385
#     4  10  21  40  63  93 126 167 210 266 326 380
#
# _framework density 20.495307
#
# number of rings (size 3 to 8) (size 9 to 14) (size 15 to 20)
#    0.000    1.429    4.286    3.000    0.000    2.000 
#    0.000    3.571    3.143    0.000    0.000    0.000 
#    0.000    0.000    0.000    0.000    0.000    0.000 
#
# Total GULP energy -693791.742606 kJ/mol
# GULP energy per Si atom -12389.138261 kJ/mol
# Density = 2.044866 g / cm^3
# Si number density = 20.495307 Si / 1000 Ang^3
#
#
#
# Elastic Constant Matrix: (Units=GPa)
#
#
# Indices 1 2 3 4 5 6 
#
# 1 81.2362 42.8535 18.2881 0.0000 0.0000 0.0000
# 2 42.8535 81.2362 18.2881 0.0000 0.0000 0.0000
# 3 18.2881 18.2881 78.2977 0.0000 0.0000 0.0000
# 4 0.0000 0.0000 0.0000 24.1964 0.0000 0.0000
# 5 0.0000 0.0000 0.0000 0.0000 24.1964 0.0000
# 6 0.0000 0.0000 0.0000 0.0000 0.0000 30.9478
#
#
#
# Elastic Compliance Matrix: (Units=1/GPa)
#
#
# Indices 1 2 3 4 5 6 
#
# 1 0.017354 -0.008699 -0.002021 0.000000 0.000000 0.000000
# 2 -0.008699 0.017354 -0.002021 0.000000 0.000000 0.000000
# 3 -0.002021 -0.002021 0.013716 0.000000 0.000000 0.000000
# 4 0.000000 0.000000 0.000000 0.041328 0.000000 0.000000
# 5 0.000000 0.000000 0.000000 0.000000 0.041328 0.000000
# 6 0.000000 0.000000 0.000000 0.000000 0.000000 0.032313
#
#
# Mechanical properties :
#
#
# Convention : Reuss Voigt Hill
#
# Bulk Modulus (GPa) = 43.59326 44.40326 43.99826
# Shear Modulus (GPa) = 25.44212 26.62415 26.03314
#
# Velocity S-wave (km/s) = 3.52712 3.60812 3.56785
# Velocity P-wave (km/s) = 6.15658 6.25062 6.20378
#
# Compressibility (1/GPa) = 0.02293933
#
# Stress axis : x y z
#
# Youngs Moduli (GPa) = 57.62380 57.62380 72.90723
#
# Poissons Ratio (x) = 0.50129 0.14738
# Poissons Ratio (y) = 0.50129 0.14738
# Poissons Ratio (z) = 0.11648 0.11648
#
# Static dielectric constant tensor:
#      x y z
#    x 3.834870 0.000000 0.000000 
#    y 0.000000 3.834870 0.000000 
#    z 0.000000 0.000000 3.635910 
# 
# 
# High freq. dielectric constant tensor:
#      x y z
#    x 1.798830 0.000000 0.000000 
#    y 0.000000 1.798830 0.000000 
#    z 0.000000 0.000000 1.772000 
# 
# From -- ./inp_files/5706.got.cif
#   From: 2010.03.12/outbox.cif.g09.slc.cpg/sg118_3_cif.got.tgz:5706.got - 2010.04.14 02:21:17.
