data_PCOD8310404
_publ_section_title
;
Structure prediction by ZEFSAII (Michael W. Deem and Ramdas Pophale) SiO2 
 PCOD8310404
Probable space group: P -4 B 2
;
_chemical_formula_sum "Si O2"
_cell_formula_units_Z 26
_cell_length_a 12.056372
_cell_length_b 12.056372
_cell_length_c 7.723604
_cell_angle_alpha 90.000000
_cell_angle_beta 90.000000
_cell_angle_gamma 90.000000
_cell_volume 1122.673000
_symmetry_space_group_name_H-M "P -4 B 2"
_symmetry_group_IT_number 117
_symmetry_cell_setting 'tetragonal'
loop_
_space_group_symop_operation_xyz
x,y,z
y,-x,-z
-x,-y,z
-y,x,-z
1/2+y,1/2+x,-z
1/2-y,1/2-x,-z
1/2-x,1/2+y,z
1/2+x,1/2-y,z
loop_
_atom_site_type_symbol
_atom_site_label
_atom_site_fract_x
_atom_site_fract_y
_atom_site_fract_z
Si Si1 0.500000 0.500000 0.500000
Si Si2 0.758796 0.430860 0.917674
Si Si3 0.053135 0.174296 0.782495
Si Si4 0.586612 0.096671 0.309346
O O1 0.609517 0.499055 0.379348
O O2 0.683289 0.355233 0.792949
O O3 0.804488 0.533091 0.802564
O O4 0.857815 0.357815 0.000000
O O5 0.662305 0.475889 0.048029
O O6 0.045341 0.307389 0.781586
O O7 0.631357 0.131357 0.500000
O O8 0.500000 0.000000 0.328596
#
# Coordination Sequence:
#
# PCOD8310404 Si02
#       4
#     2   8   8   8
#     4  12  28  50  72 116 156 210 268 332 412 466
#     4  12  24  44  75 108 146 202 260 320 401 474
#     4  12  26  46  73 105 151 196 259 326 389 473
#     4  11  24  46  72 105 147 193 246 317 391 469
#
# _framework density 23.159013000000002
#
# number of rings (size 3 to 8) (size 9 to 14) (size 15 to 20)
#    0.000    0.308    3.077    6.462    0.000    2.462 
#    5.538    0.000    0.000    0.000    0.000    0.000 
#    0.000    0.000    0.000    0.000    0.000    0.000 
#
# Total GULP energy -322211.466267 kJ/mol
# GULP energy per Si atom -12392.748703 kJ/mol
# Density = 2.310630 g / cm^3
# Si number density = 23.159013 Si / 1000 Ang^3
#
#
#
# Elastic Constant Matrix: (Units=GPa)
#
#
# Indices 1 2 3 4 5 6 
#
# 1 110.1717 43.6891 48.8252 0.0000 0.0000 0.0000
# 2 43.6891 110.1717 48.8252 0.0000 0.0000 0.0000
# 3 48.8252 48.8252 140.5618 0.0000 0.0000 0.0000
# 4 0.0000 0.0000 0.0000 45.5122 0.0000 0.0000
# 5 0.0000 0.0000 0.0000 0.0000 45.5122 0.0000
# 6 0.0000 0.0000 0.0000 0.0000 0.0000 52.0643
#
#
#
# Elastic Compliance Matrix: (Units=1/GPa)
#
#
# Indices 1 2 3 4 5 6 
#
# 1 0.011689 -0.003352 -0.002896 0.000000 0.000000 0.000000
# 2 -0.003352 0.011689 -0.002896 0.000000 0.000000 0.000000
# 3 -0.002896 -0.002896 0.009126 0.000000 0.000000 0.000000
# 4 0.000000 0.000000 0.000000 0.021972 0.000000 0.000000
# 5 0.000000 0.000000 0.000000 0.000000 0.021972 0.000000
# 6 0.000000 0.000000 0.000000 0.000000 0.000000 0.019207
#
#
# Mechanical properties :
#
#
# Convention : Reuss Voigt Hill
#
# Bulk Modulus (GPa) = 70.33920 71.50936 70.92428
# Shear Modulus (GPa) = 42.12874 43.25545 42.69210
#
# Velocity S-wave (km/s) = 4.26973 4.32645 4.29818
# Velocity P-wave (km/s) = 7.39903 7.47677 7.43800
#
# Compressibility (1/GPa) = 0.01421682
#
# Stress axis : x y z
#
# Youngs Moduli (GPa) = 85.54699 85.54699 109.57403
#
# Poissons Ratio (x) = 0.28676 0.31733
# Poissons Ratio (y) = 0.28676 0.31733
# Poissons Ratio (z) = 0.24775 0.24775
#
# Static dielectric constant tensor:
#      x y z
#    x 4.056270 0.000000 0.000000 
#    y 0.000000 4.056270 0.000000 
#    z 0.000000 0.000000 4.647430 
# 
# 
# High freq. dielectric constant tensor:
#      x y z
#    x 1.918810 0.000000 0.000000 
#    y 0.000000 1.918810 0.000000 
#    z 0.000000 0.000000 1.928610 
# 
# From -- ./inp_files/1247.got.cif
#   From: 2010.03.12/outbox.cif.g09.slc.cpg/sg117_1_cif.got.tgz:1247.got - 2010.04.14 02:19:01.
