data_PCOD8310661
_publ_section_title
;
Structure prediction by ZEFSAII (Michael W. Deem and Ramdas Pophale) SiO2 
 PCOD8310661
Probable space group: P -4 N 2
;
_chemical_formula_sum "Si O2"
_cell_formula_units_Z 22
_cell_length_a 13.348852
_cell_length_b 13.348852
_cell_length_c 4.989315
_cell_angle_alpha 90.000000
_cell_angle_beta 90.000000
_cell_angle_gamma 90.000000
_cell_volume 889.055269
_symmetry_space_group_name_H-M "P -4 N 2"
_symmetry_group_IT_number 118
_symmetry_cell_setting 'tetragonal'
loop_
_space_group_symop_operation_xyz
x,y,z
y,-x,-z
-x,-y,z
-y,x,-z
1/2+y,1/2+x,1/2-z
1/2-y,1/2-x,1/2-z
1/2-x,1/2+y,1/2+z
1/2+x,1/2-y,1/2+z
loop_
_atom_site_type_symbol
_atom_site_label
_atom_site_fract_x
_atom_site_fract_y
_atom_site_fract_z
Si Si1 0.674434 0.174434 0.250000
Si Si2 0.000000 0.000000 0.500000
Si Si3 0.456991 0.193286 0.373359
Si Si4 0.106599 0.811807 0.379074
O O1 0.574344 0.173100 0.432703
O O2 0.774630 0.172402 0.431272
O O3 0.915693 0.949497 0.693351
O O4 0.405884 0.094117 0.250000
O O5 0.406903 0.228085 0.649786
O O6 0.442621 0.280556 0.158218
#
# Coordination Sequence:
#
# PCOD8310661 Si02
#       4
#     4   2   8   8
#     4  12  27  48  80 107 152 202 246 322 372 465
#     4  12  28  50  76 122 144 214 244 334 372 454
#     4  12  27  49  73 111 147 198 249 311 374 458
#     4  12  28  46  78 109 153 190 260 303 381 447
#
# _framework density 24.745370000000001
#
# number of rings (size 3 to 8) (size 9 to 14) (size 15 to 20)
#    0.000    0.000    7.273    0.545    5.091    5.818 
#    0.000    3.636    0.000    0.000    0.000    0.000 
#    0.000    0.000    0.000    0.000    0.000    0.000 
#
# Total GULP energy -272752.004465 kJ/mol
# GULP energy per Si atom -12397.818385 kJ/mol
# Density = 2.468905 g / cm^3
# Si number density = 24.745370 Si / 1000 Ang^3
#
#
#
# Elastic Constant Matrix: (Units=GPa)
#
#
# Indices 1 2 3 4 5 6 
#
# 1 179.2505 66.7355 26.6231 0.0000 0.0000 0.0000
# 2 66.7355 179.2493 26.6215 0.0000 0.0000 0.0000
# 3 26.6231 26.6215 81.3436 0.0000 0.0000 0.0000
# 4 0.0000 0.0000 0.0000 23.5951 0.0000 0.0000
# 5 0.0000 0.0000 0.0000 0.0000 23.5948 0.0000
# 6 0.0000 0.0000 0.0000 0.0000 0.0000 52.7498
#
#
#
# Elastic Compliance Matrix: (Units=1/GPa)
#
#
# Indices 1 2 3 4 5 6 
#
# 1 0.006631 -0.002256 -0.001432 0.000000 0.000000 0.000000
# 2 -0.002256 0.006631 -0.001432 0.000000 0.000000 0.000000
# 3 -0.001432 -0.001432 0.013231 0.000000 0.000000 0.000000
# 4 0.000000 0.000000 0.000000 0.042382 0.000000 0.000000
# 5 0.000000 0.000000 0.000000 0.000000 0.042382 0.000000
# 6 0.000000 0.000000 0.000000 0.000000 0.000000 0.018957
#
#
# Mechanical properties :
#
#
# Convention : Reuss Voigt Hill
#
# Bulk Modulus (GPa) = 61.52504 75.53374 68.52939
# Shear Modulus (GPa) = 34.27632 41.31215 37.79423
#
# Velocity S-wave (km/s) = 3.72581 4.09037 3.91234
# Velocity P-wave (km/s) = 6.58985 7.27316 6.93992
#
# Compressibility (1/GPa) = 0.01625355
#
# Stress axis : x y z
#
# Youngs Moduli (GPa) = 150.79573 150.79564 75.58108
#
# Poissons Ratio (x) = 0.34023 0.10823
# Poissons Ratio (y) = 0.34023 0.10822
# Poissons Ratio (z) = 0.21594 0.21592
#
# Static dielectric constant tensor:
#      x y z
#    x 4.811530 0.000000 0.000000 
#    y 0.000000 4.811530 0.000000 
#    z 0.000000 0.000000 3.901240 
# 
# 
# High freq. dielectric constant tensor:
#      x y z
#    x 2.010010 0.000000 0.000000 
#    y 0.000000 2.010010 0.000000 
#    z 0.000000 0.000000 1.932490 
# 
# From -- ./inp_files/246.got.cif
#   From: 2010.03.12/outbox.cif.g09.slc.cpg/sg118_1_cif.got.tgz:246.got - 2010.04.14 02:21:17.
