data_PCOD8310250
_publ_section_title
;
Structure prediction by ZEFSAII (Michael W. Deem and Ramdas Pophale) SiO2 
 PCOD8310250
Probable space group: P -4 C 2
;
_chemical_formula_sum "Si O2"
_cell_formula_units_Z 32
_cell_length_a 9.048017
_cell_length_b 9.048017
_cell_length_c 18.012815
_cell_angle_alpha 90.000000
_cell_angle_beta 90.000000
_cell_angle_gamma 90.000000
_cell_volume 1474.648130
_symmetry_space_group_name_H-M "P -4 C 2"
_symmetry_group_IT_number 116
_symmetry_cell_setting 'tetragonal'
loop_
_space_group_symop_operation_xyz
x,y,z
y,-x,-z
-x,-y,z
-y,x,-z
y,x,1/2-z
-y,-x,1/2-z
-x,y,1/2+z
x,-y,1/2+z
loop_
_atom_site_type_symbol
_atom_site_label
_atom_site_fract_x
_atom_site_fract_y
_atom_site_fract_z
Si Si1 0.399661 0.296489 0.026384
Si Si2 0.828301 0.111353 0.464444
Si Si3 0.220715 0.600307 0.808198
Si Si4 0.102583 0.726902 0.310946
O O1 0.367361 0.293723 0.112965
O O2 0.307376 0.428656 0.989871
O O3 0.339472 0.150466 0.985896
O O4 0.877697 0.191603 0.389421
O O5 0.933120 0.162533 0.534887
O O6 0.342410 0.657591 0.750000
O O7 0.195642 0.424197 0.802669
O O8 0.068809 0.689821 0.797893
O O9 0.156889 0.843112 0.250000
#
# Coordination Sequence:
#
# PCOD8310250 Si02
#       4
#     8   8   8   8
#     4  11  24  43  70 101 136 181 227 282 338 402
#     4  11  24  43  70 101 136 181 227 282 338 402
#     4  11  26  46  69 102 141 181 226 285 346 411
#     4  11  26  46  69 102 141 181 226 285 346 411
#
# _framework density 21.700092000000001
#
# number of rings (size 3 to 8) (size 9 to 14) (size 15 to 20)
#    0.000    1.000    5.000    0.000    7.000    2.000 
#    0.000    0.000    0.000    0.000    0.000    0.000 
#    0.000    0.000    0.000    0.000    0.000    0.000 
#
# Total GULP energy -396656.538410 kJ/mol
# GULP energy per Si atom -12395.516825 kJ/mol
# Density = 2.165070 g / cm^3
# Si number density = 21.700092 Si / 1000 Ang^3
#
#
#
# Elastic Constant Matrix: (Units=GPa)
#
#
# Indices 1 2 3 4 5 6 
#
# 1 45.3708 52.2497 45.2519 0.0000 0.0000 0.0000
# 2 52.2497 45.3694 45.2534 0.0000 0.0000 0.0000
# 3 45.2519 45.2534 130.2365 0.0000 0.0000 0.0000
# 4 0.0000 0.0000 0.0000 35.0017 0.0000 0.0000
# 5 0.0000 0.0000 0.0000 0.0000 35.0014 0.0000
# 6 0.0000 0.0000 0.0000 0.0000 0.0000 40.5975
#
#
#
# Elastic Compliance Matrix: (Units=1/GPa)
#
#
# Indices 1 2 3 4 5 6 
#
# 1 -0.065120 0.080235 -0.005253 0.000000 0.000000 0.000000
# 2 0.080235 -0.065125 -0.005249 0.000000 0.000000 0.000000
# 3 -0.005253 -0.005249 0.011327 0.000000 0.000000 0.000000
# 4 0.000000 0.000000 0.000000 0.028570 0.000000 0.000000
# 5 0.000000 0.000000 0.000000 0.000000 0.028570 0.000000
# 6 0.000000 0.000000 0.000000 0.000000 0.000000 0.024632
#
#
# Mechanical properties :
#
#
# Convention : Reuss Voigt Hill
#
# Bulk Modulus (GPa) = 48.66699 56.27632 52.47165
# Shear Modulus (GPa) = -29.45305 27.33491 -1.05907
#
# Velocity S-wave (km/s) = -3.68812 3.55303 -0.69936
# Velocity P-wave (km/s) = 2.08314 6.54385 4.85600
#
# Compressibility (1/GPa) = 0.02054781
#
# Stress axis : x y z
#
# Youngs Moduli (GPa) = -15.35629 -15.35503 88.28180
#
# Poissons Ratio (x) = 1.23200 0.46372
# Poissons Ratio (y) = 1.23211 0.46340
# Poissons Ratio (z) = -0.08066 -0.08060
#
# Static dielectric constant tensor:
#      x y z
#    x 4.002700 0.000000 0.000000 
#    y 0.000000 4.002700 0.000000 
#    z 0.000000 0.000000 3.856270 
# 
# 
# High freq. dielectric constant tensor:
#      x y z
#    x 1.861110 0.000000 0.000000 
#    y 0.000000 1.861110 0.000000 
#    z 0.000000 0.000000 1.850910 
# 
# From -- ./inp_files/3774.got.cif
#   From: 2010.03.12/outbox.cif.g09.slc.cpg/sg116_2_cif.got.tgz:3774.got - 2010.04.14 02:15:44.
