data_PCOD8310926
_publ_section_title
;
Structure prediction by ZEFSAII (Michael W. Deem and Ramdas Pophale) SiO2 
 PCOD8310926
Probable space group: I -4 M 2
;
_chemical_formula_sum "Si O2"
_cell_formula_units_Z 72
_cell_length_a 22.752321
_cell_length_b 22.752321
_cell_length_c 7.457098
_cell_angle_alpha 90.000000
_cell_angle_beta 90.000000
_cell_angle_gamma 90.000000
_cell_volume 3860.301834
_symmetry_space_group_name_H-M "I -4 M 2"
_symmetry_group_IT_number 119
_symmetry_cell_setting 'tetragonal'
loop_
_space_group_symop_operation_xyz
x,y,z
y,-x,-z
-x,-y,z
-y,x,-z
y,x,-z
-y,-x,-z
-x,y,z
x,-y,z
1/2+x,1/2+y,1/2+z
1/2+y,1/2-x,1/2-z
1/2-x,1/2-y,1/2+z
1/2-y,1/2+x,1/2-z
1/2+y,1/2+x,1/2-z
1/2-y,1/2-x,1/2-z
1/2-x,1/2+y,1/2+z
1/2+x,1/2-y,1/2+z
loop_
_atom_site_type_symbol
_atom_site_label
_atom_site_fract_x
_atom_site_fract_y
_atom_site_fract_z
Si Si1 0.566510 0.877769 0.900000
Si Si2 0.663170 0.568207 0.978353
Si Si3 0.243215 0.430634 0.263180
Si Si4 0.129314 0.629314 0.750000
Si Si5 0.431185 0.246961 0.327835
O O1 0.500000 0.868252 0.961847
O O2 0.571447 0.928554 0.750000
O O3 0.594020 0.818758 0.810058
O O4 0.603026 0.899752 0.071322
O O5 0.648307 0.500000 0.006202
O O6 0.693291 0.578484 0.784161
O O7 0.602445 0.602445 0.000000
O O8 0.705666 0.592861 0.134171
O O9 0.240049 0.500000 0.249892
O O10 0.256972 0.411400 0.466913
O O11 0.198085 0.612142 0.757093
O O12 0.500000 0.227263 0.313239
#
# Coordination Sequence:
#
# PCOD8310926 Si02
#       5
#    16  16  16   8  16
#     4  11  22  35  54  80 114 154 199 245 295 345
#     4  10  21  38  62  90 118 147 186 234 288 356
#     4   9  18  35  57  79 107 150 195 230 273 341
#     4  12  20  32  60  83 110 150 200 248 284 336
#     4  10  20  35  58  84 110 153 202 237 281 342
#
# _framework density 18.651391
#
# number of rings (size 3 to 8) (size 9 to 14) (size 15 to 20)
#    0.000    1.778    4.444    0.667    0.000    2.222 
#    0.000    0.000    7.333    3.000    0.000    6.222 
#    0.000    0.000    0.000    0.000    0.000    0.000 
#
# Total GULP energy -446303.480930 kJ/mol
# GULP energy per Si atom -12397.318915 kJ/mol
# Density = 1.860894 g / cm^3
# Si number density = 18.651391 Si / 1000 Ang^3
#
#
#
# Elastic Constant Matrix: (Units=GPa)
#
#
# Indices 1 2 3 4 5 6 
#
# 1 64.8982 42.1722 29.5562 0.0000 0.0000 0.0000
# 2 42.1722 64.8955 29.5555 0.0000 0.0000 0.0000
# 3 29.5562 29.5555 143.5866 0.0000 0.0000 0.0000
# 4 0.0000 0.0000 0.0000 23.4246 0.0000 0.0000
# 5 0.0000 0.0000 0.0000 0.0000 23.4248 0.0000
# 6 0.0000 0.0000 0.0000 0.0000 0.0000 31.4004
#
#
#
# Elastic Compliance Matrix: (Units=1/GPa)
#
#
# Indices 1 2 3 4 5 6 
#
# 1 0.027271 -0.016734 -0.002169 0.000000 0.000000 0.000000
# 2 -0.016734 0.027272 -0.002169 0.000000 0.000000 0.000000
# 3 -0.002169 -0.002169 0.007857 0.000000 0.000000 0.000000
# 4 0.000000 0.000000 0.000000 0.042690 0.000000 0.000000
# 5 0.000000 0.000000 0.000000 0.000000 0.042690 0.000000
# 6 0.000000 0.000000 0.000000 0.000000 0.000000 0.031847
#
#
# Mechanical properties :
#
#
# Convention : Reuss Voigt Hill
#
# Bulk Modulus (GPa) = 49.36830 52.88310 51.12570
# Shear Modulus (GPa) = 21.87971 27.12304 24.50137
#
# Velocity S-wave (km/s) = 3.42875 3.81755 3.62836
# Velocity P-wave (km/s) = 6.49627 6.91712 6.71000
#
# Compressibility (1/GPa) = 0.02025592
#
# Stress axis : x y z
#
# Youngs Moduli (GPa) = 36.66949 36.66802 127.26914
#
# Poissons Ratio (x) = 0.61360 0.27604
# Poissons Ratio (y) = 0.61362 0.27604
# Poissons Ratio (z) = 0.07954 0.07953
#
# Static dielectric constant tensor:
#      x y z
#    x 3.128390 0.000000 0.000000 
#    y 0.000000 3.128390 0.000000 
#    z 0.000000 0.000000 3.820700 
# 
# 
# High freq. dielectric constant tensor:
#      x y z
#    x 1.694080 0.000000 0.000000 
#    y 0.000000 1.694080 0.000000 
#    z 0.000000 0.000000 1.749630 
# 
# From -- ./inp_files/2435.got.cif
#   From: 2010.03.12/outbox.cif.g09.slc.cpg/sg119_2_cif.got.tgz:2435.got - 2010.04.14 02:25:26.
