data_PCOD8310991
_publ_section_title
;
Structure prediction by ZEFSAII (Michael W. Deem and Ramdas Pophale) SiO2 
 PCOD8310991
Probable space group: I -4 M 2
;
_chemical_formula_sum "Si O2"
_cell_formula_units_Z 96
_cell_length_a 13.558669
_cell_length_b 13.558669
_cell_length_c 29.142762
_cell_angle_alpha 90.000000
_cell_angle_beta 90.000000
_cell_angle_gamma 90.000000
_cell_volume 5357.532656
_symmetry_space_group_name_H-M "I -4 M 2"
_symmetry_group_IT_number 119
_symmetry_cell_setting 'tetragonal'
loop_
_space_group_symop_operation_xyz
x,y,z
y,-x,-z
-x,-y,z
-y,x,-z
y,x,-z
-y,-x,-z
-x,y,z
x,-y,z
1/2+x,1/2+y,1/2+z
1/2+y,1/2-x,1/2-z
1/2-x,1/2-y,1/2+z
1/2-y,1/2+x,1/2-z
1/2+y,1/2+x,1/2-z
1/2-y,1/2-x,1/2-z
1/2-x,1/2+y,1/2+z
1/2+x,1/2-y,1/2+z
loop_
_atom_site_type_symbol
_atom_site_label
_atom_site_fract_x
_atom_site_fract_y
_atom_site_fract_z
Si Si1 0.892833 0.111031 0.576973
Si Si2 0.885763 0.613026 0.109700
Si Si3 0.210263 0.612975 0.792178
Si Si4 0.751061 0.243362 0.949716
Si Si5 0.714387 0.609250 0.173252
Si Si6 0.113521 0.615308 0.609882
O O1 0.822425 0.164935 0.541395
O O2 0.852089 0.122815 0.628182
O O3 0.000000 0.161170 0.577006
O O4 0.899148 0.000000 0.560337
O O5 0.866750 0.500000 0.090759
O O6 0.850137 0.699644 0.075211
O O7 0.828095 0.624447 0.157955
O O8 0.000000 0.630543 0.119627
O O9 0.242846 0.500000 0.787306
O O10 0.141054 0.641054 0.750000
O O11 0.308963 0.680370 0.790404
O O12 0.149094 0.631695 0.838257
O O13 0.834696 0.301464 0.921161
O O14 0.790541 0.209460 0.000000
O O15 0.699241 0.500000 0.194526
O O16 0.132910 0.500000 0.606319
O O17 0.000000 0.639620 0.594666
#
# Coordination Sequence:
#
# PCOD8310991 Si02
#       6
#    16  16  16  16  16  16
#     4   9  16  27  45  70 102 138 171 209 265 328
#     4   9  18  34  56  80 106 139 181 229 280 333
#     4  11  21  35  57  85 116 150 187 227 273 328
#     4  11  21  32  49  75 106 142 185 228 274 332
#     4   9  17  32  55  81 106 140 180 219 269 327
#     4  10  21  37  56  79 111 149 186 229 283 337
#
# _framework density 17.918697000000002
#
# number of rings (size 3 to 8) (size 9 to 14) (size 15 to 20)
#    0.000    2.167    3.333    3.000    0.000    5.167 
#    0.000    3.333    0.000    0.500    0.000    1.167 
#    0.000    0.000    0.000    0.000    0.000    0.000 
#
# Total GULP energy -594710.021815 kJ/mol
# GULP energy per Si atom -12389.792121 kJ/mol
# Density = 1.787791 g / cm^3
# Si number density = 17.918697 Si / 1000 Ang^3
#
#
#
# Elastic Constant Matrix: (Units=GPa)
#
#
# Indices 1 2 3 4 5 6 
#
# 1 112.4081 43.3845 36.6701 0.0000 0.0000 0.0000
# 2 43.3845 112.4083 36.6701 0.0000 0.0000 0.0000
# 3 36.6701 36.6701 72.0853 0.0000 0.0000 0.0000
# 4 0.0000 0.0000 0.0000 14.5213 0.0000 0.0000
# 5 0.0000 0.0000 0.0000 0.0000 14.5214 0.0000
# 6 0.0000 0.0000 0.0000 0.0000 0.0000 25.3288
#
#
#
# Elastic Compliance Matrix: (Units=1/GPa)
#
#
# Indices 1 2 3 4 5 6 
#
# 1 0.011464 -0.003024 -0.004293 0.000000 0.000000 0.000000
# 2 -0.003024 0.011464 -0.004293 0.000000 0.000000 0.000000
# 3 -0.004293 -0.004293 0.018241 0.000000 0.000000 0.000000
# 4 0.000000 0.000000 0.000000 0.068864 0.000000 0.000000
# 5 0.000000 0.000000 0.000000 0.000000 0.068864 0.000000
# 6 0.000000 0.000000 0.000000 0.000000 0.000000 0.039481
#
#
# Mechanical properties :
#
#
# Convention : Reuss Voigt Hill
#
# Bulk Modulus (GPa) = 55.72028 58.92787 57.32408
# Shear Modulus (GPa) = 20.19542 22.88612 21.54077
#
# Velocity S-wave (km/s) = 3.36081 3.57770 3.47095
# Velocity P-wave (km/s) = 6.79880 7.07278 6.93714
#
# Compressibility (1/GPa) = 0.01794679
#
# Stress axis : x y z
#
# Youngs Moduli (GPa) = 87.23057 87.23076 54.82264
#
# Poissons Ratio (x) = 0.26378 0.23538
# Poissons Ratio (y) = 0.26378 0.23538
# Poissons Ratio (z) = 0.37452 0.37452
#
# Static dielectric constant tensor:
#      x y z
#    x 3.435810 0.000000 0.000000 
#    y 0.000000 3.435810 0.000000 
#    z 0.000000 0.000000 3.001220 
# 
# 
# High freq. dielectric constant tensor:
#      x y z
#    x 1.692080 0.000000 0.000000 
#    y 0.000000 1.692080 0.000000 
#    z 0.000000 0.000000 1.659610 
# 
# From -- ./inp_files/10370.got.cif
#   From: 2010.03.12/outbox.cif.g09.slc.cpg/sg119_6_cif.got.tgz:10370.got - 2010.04.14 02:25:26.
