data_PCOD8310882
_publ_section_title
;
Structure prediction by ZEFSAII (Michael W. Deem and Ramdas Pophale) SiO2 
 PCOD8310882
Probable space group: I -4 M 2
;
_chemical_formula_sum "Si O2"
_cell_formula_units_Z 40
_cell_length_a 7.727334
_cell_length_b 7.727334
_cell_length_c 32.679266
_cell_angle_alpha 90.000000
_cell_angle_beta 90.000000
_cell_angle_gamma 90.000000
_cell_volume 1951.334225
_symmetry_space_group_name_H-M "I -4 M 2"
_symmetry_group_IT_number 119
_symmetry_cell_setting 'tetragonal'
loop_
_space_group_symop_operation_xyz
x,y,z
y,-x,-z
-x,-y,z
-y,x,-z
y,x,-z
-y,-x,-z
-x,y,z
x,-y,z
1/2+x,1/2+y,1/2+z
1/2+y,1/2-x,1/2-z
1/2-x,1/2-y,1/2+z
1/2-y,1/2+x,1/2-z
1/2+y,1/2+x,1/2-z
1/2-y,1/2-x,1/2-z
1/2-x,1/2+y,1/2+z
1/2+x,1/2-y,1/2+z
loop_
_atom_site_type_symbol
_atom_site_label
_atom_site_fract_x
_atom_site_fract_y
_atom_site_fract_z
Si Si1 0.199390 0.000000 0.688203
Si Si2 0.690137 0.294805 0.454301
Si Si3 0.803306 0.500000 0.097427
Si Si4 0.699236 0.800764 0.250000
O O1 0.302854 0.000000 0.646264
O O2 0.248121 0.173706 0.712924
O O3 0.000000 0.000000 0.676565
O O4 0.753660 0.246341 0.500000
O O5 0.500000 0.213922 0.445239
O O6 0.675288 0.500000 0.450557
O O7 0.826924 0.216050 0.421555
O O8 0.000000 0.500000 0.082237
O O9 0.500000 0.770922 0.263969
#
# Coordination Sequence:
#
# PCOD8310882 Si02
#       4
#     8  16   8   8
#     4  10  22  38  56  82 114 144 188 229 287 346
#     4   8  15  31  52  73 105 147 185 224 274 328
#     4  10  20  32  52  84 110 138 186 240 274 335
#     4   9  20  39  60  80 108 149 186 227 280 344
#
# _framework density 20.498795999999999
#
# number of rings (size 3 to 8) (size 9 to 14) (size 15 to 20)
#    0.000    3.000    0.000    1.200    2.800    1.600 
#    3.600    0.000    0.000    0.000    0.000    0.000 
#    0.000    0.000    0.000    0.000    0.000    0.000 
#
# Total GULP energy -247873.249775 kJ/mol
# GULP energy per Si atom -12393.662489 kJ/mol
# Density = 2.045214 g / cm^3
# Si number density = 20.498796 Si / 1000 Ang^3
#
#
#
# Elastic Constant Matrix: (Units=GPa)
#
#
# Indices 1 2 3 4 5 6 
#
# 1 92.9885 32.1407 62.0047 0.0000 0.0000 0.0000
# 2 32.1407 92.9898 62.0044 -0.0001 0.0000 0.0000
# 3 62.0047 62.0044 153.0676 0.0000 0.0000 0.0000
# 4 0.0000 -0.0001 0.0000 22.6842 0.0000 0.0000
# 5 0.0000 0.0000 0.0000 0.0000 22.6850 0.0000
# 6 0.0000 0.0000 0.0000 0.0000 0.0000 11.3956
#
#
#
# Elastic Compliance Matrix: (Units=1/GPa)
#
#
# Indices 1 2 3 4 5 6 
#
# 1 0.014893 -0.001541 -0.005409 0.000000 0.000000 0.000000
# 2 -0.001541 0.014893 -0.005408 0.000000 0.000000 0.000000
# 3 -0.005409 -0.005408 0.010915 0.000000 0.000000 0.000000
# 4 0.000000 0.000000 0.000000 0.044084 0.000000 0.000000
# 5 0.000000 0.000000 0.000000 0.000000 0.044082 0.000000
# 6 0.000000 0.000000 0.000000 0.000000 0.000000 0.087753
#
#
# Mechanical properties :
#
#
# Convention : Reuss Voigt Hill
#
# Bulk Modulus (GPa) = 62.56148 72.37172 67.46660
# Shear Modulus (GPa) = 20.27044 23.54602 21.90823
#
# Velocity S-wave (km/s) = 3.14803 3.39286 3.27273
# Velocity P-wave (km/s) = 6.61810 7.12254 6.87495
#
# Compressibility (1/GPa) = 0.01598428
#
# Stress axis : x y z
#
# Youngs Moduli (GPa) = 67.14475 67.14627 91.61841
#
# Poissons Ratio (x) = 0.10349 0.49553
# Poissons Ratio (y) = 0.10349 0.49551
# Poissons Ratio (z) = 0.36316 0.36316
#
# Static dielectric constant tensor:
#      x y z
#    x 3.872040 0.000000 0.000000 
#    y 0.000000 3.872020 0.000000 
#    z 0.000000 0.000000 3.457630 
# 
# 
# High freq. dielectric constant tensor:
#      x y z
#    x 1.794520 0.000000 0.000000 
#    y 0.000000 1.794520 0.000000 
#    z 0.000000 0.000000 1.782330 
# 
# From -- ./inp_files/8243.got.cif
#   From: 2010.03.12/outbox.cif.g09.slc.cpg/sg119_5_cif.got.tgz:8243.got - 2010.04.14 02:25:26.
