data_PCOD8310613
_publ_section_title
;
Structure prediction by ZEFSAII (Michael W. Deem and Ramdas Pophale) SiO2 
 PCOD8310613
Probable space group: P -4 N 2
;
_chemical_formula_sum "Si O2"
_cell_formula_units_Z 60
_cell_length_a 11.845308
_cell_length_b 11.845308
_cell_length_c 21.389679
_cell_angle_alpha 90.000000
_cell_angle_beta 90.000000
_cell_angle_gamma 90.000000
_cell_volume 3001.214129
_symmetry_space_group_name_H-M "P -4 N 2"
_symmetry_group_IT_number 118
_symmetry_cell_setting 'tetragonal'
loop_
_space_group_symop_operation_xyz
x,y,z
y,-x,-z
-x,-y,z
-y,x,-z
1/2+y,1/2+x,1/2-z
1/2-y,1/2-x,1/2-z
1/2-x,1/2+y,1/2+z
1/2+x,1/2-y,1/2+z
loop_
_atom_site_type_symbol
_atom_site_label
_atom_site_fract_x
_atom_site_fract_y
_atom_site_fract_z
Si Si1 0.324808 0.665127 0.420622
Si Si2 0.500000 0.500000 0.747360
Si Si3 0.224674 0.883364 0.574705
Si Si4 0.510905 0.659329 0.145921
Si Si5 0.280275 0.415615 0.447092
Si Si6 0.131336 0.817471 0.444659
Si Si7 0.833908 0.952683 0.145845
Si Si8 0.403361 0.078728 0.323145
O O1 0.262333 0.547493 0.434734
O O2 0.394455 0.713462 0.479326
O O3 0.224281 0.750653 0.404039
O O4 0.411114 0.661516 0.362041
O O5 0.593803 0.549565 0.795858
O O6 0.579326 0.420426 0.702895
O O7 0.142084 0.876308 0.634997
O O8 0.344315 0.820678 0.585999
O O9 0.163504 0.820364 0.517260
O O10 0.248917 0.013514 0.559669
O O11 0.443259 0.625125 0.083456
O O12 0.511485 0.791505 0.158625
O O13 0.399706 0.381541 0.417335
O O14 0.707427 0.906539 0.153527
O O15 0.417750 0.082251 0.250000
O O16 0.500000 0.000000 0.353732
#
# Coordination Sequence:
#
# PCOD8310613 Si02
#       8
#     8   4   8   8   8   8   8   8
#     4  11  23  39  60  89 121 156 196 247 305 358
#     4  12  24  34  66  88 114 162 214 236 294 344
#     4  11  22  38  64  88 116 158 198 244 298 361
#     4  12  22  40  61  90 118 157 203 249 289 360
#     4  11  22  38  64  88 116 158 198 244 298 361
#     4  11  23  39  60  89 121 156 196 247 305 358
#     4  12  22  40  61  90 118 157 203 249 289 360
#     4  11  24  40  60  90 125 157 193 248 308 353
#
# _framework density 19.991909
#
# number of rings (size 3 to 8) (size 9 to 14) (size 15 to 20)
#    0.000    0.667    8.000    0.800    0.000    0.533 
#    0.000    0.000    0.000    0.000    0.000    1.867 
#    0.000    0.000    0.000    0.000    0.000    0.000 
#
# Total GULP energy -743667.428749 kJ/mol
# GULP energy per Si atom -12394.457146 kJ/mol
# Density = 1.994641 g / cm^3
# Si number density = 19.991909 Si / 1000 Ang^3
#
#
#
# Elastic Constant Matrix: (Units=GPa)
#
#
# Indices 1 2 3 4 5 6 
#
# 1 110.3487 22.8647 9.2698 0.0000 0.0000 0.0000
# 2 22.8647 110.3485 9.2699 0.0000 0.0000 0.0000
# 3 9.2698 9.2699 50.9090 0.0000 0.0000 0.0000
# 4 0.0000 0.0000 0.0000 26.5970 0.0000 0.0000
# 5 0.0000 0.0000 0.0000 0.0000 26.5970 0.0000
# 6 0.0000 0.0000 0.0000 0.0000 0.0000 26.2503
#
#
#
# Elastic Compliance Matrix: (Units=1/GPa)
#
#
# Indices 1 2 3 4 5 6 
#
# 1 0.009566 -0.001864 -0.001402 0.000000 0.000000 0.000000
# 2 -0.001864 0.009566 -0.001402 0.000000 0.000000 0.000000
# 3 -0.001402 -0.001402 0.020154 0.000000 0.000000 0.000000
# 4 0.000000 0.000000 0.000000 0.037598 0.000000 0.000000
# 5 0.000000 0.000000 0.000000 0.000000 0.037598 0.000000
# 6 0.000000 0.000000 0.000000 0.000000 0.000000 0.038095
#
#
# Mechanical properties :
#
#
# Convention : Reuss Voigt Hill
#
# Bulk Modulus (GPa) = 33.39142 39.37944 36.38543
# Shear Modulus (GPa) = 29.08690 31.23562 30.16126
#
# Velocity S-wave (km/s) = 3.81850 3.95703 3.88838
# Velocity P-wave (km/s) = 6.01498 6.37321 6.19668
#
# Compressibility (1/GPa) = 0.02994781
#
# Stress axis : x y z
#
# Youngs Moduli (GPa) = 104.53363 104.53348 49.61885
#
# Poissons Ratio (x) = 0.19489 0.06959
# Poissons Ratio (y) = 0.19489 0.06959
# Poissons Ratio (z) = 0.14660 0.14660
#
# Static dielectric constant tensor:
#      x y z
#    x 3.678340 0.000000 0.000000 
#    y 0.000000 3.678340 0.000000 
#    z 0.000000 0.000000 3.518670 
# 
# 
# High freq. dielectric constant tensor:
#      x y z
#    x 1.777620 0.000000 0.000000 
#    y 0.000000 1.777620 0.000000 
#    z 0.000000 0.000000 1.767700 
# 
# From -- ./inp_files/5761.got.cif
#   From: 2010.03.12/outbox.cif.g09.slc.cpg/sg118_3_cif.got.tgz:5761.got - 2010.04.14 02:21:17.
