data_PCOD8310380
_publ_section_title
;
Structure prediction by ZEFSAII (Michael W. Deem and Ramdas Pophale) SiO2 
 PCOD8310380
Probable space group: P -4 B 2
;
_chemical_formula_sum "Si O2"
_cell_formula_units_Z 58
_cell_length_a 17.729380
_cell_length_b 17.729380
_cell_length_c 8.997781
_cell_angle_alpha 90.000000
_cell_angle_beta 90.000000
_cell_angle_gamma 90.000000
_cell_volume 2828.280736
_symmetry_space_group_name_H-M "P -4 B 2"
_symmetry_group_IT_number 117
_symmetry_cell_setting 'tetragonal'
loop_
_space_group_symop_operation_xyz
x,y,z
y,-x,-z
-x,-y,z
-y,x,-z
1/2+y,1/2+x,-z
1/2-y,1/2-x,-z
1/2-x,1/2+y,z
1/2+x,1/2-y,z
loop_
_atom_site_type_symbol
_atom_site_label
_atom_site_fract_x
_atom_site_fract_y
_atom_site_fract_z
Si Si1 0.882308 0.140948 0.665470
Si Si2 0.500000 0.000000 0.500000
Si Si3 0.819940 0.296831 0.661314
Si Si4 0.847101 0.485196 0.344442
Si Si5 0.058599 0.897840 0.971682
Si Si6 0.568722 0.746477 0.174573
Si Si7 0.502493 0.123999 0.985814
Si Si8 0.208630 0.986614 0.524125
O O1 0.835552 0.213526 0.724292
O O2 0.901281 0.095309 0.812847
O O3 0.834332 0.091487 0.550006
O O4 0.959927 0.162506 0.585947
O O5 0.506500 0.068893 0.612146
O O6 0.782315 0.282315 0.500000
O O7 0.773238 0.346656 0.779841
O O8 0.897255 0.339114 0.625104
O O9 0.833304 0.502227 0.171542
O O10 0.788550 0.531961 0.446261
O O11 0.078101 0.820604 0.056416
O O12 0.969254 0.907309 0.940219
O O13 0.528368 0.717893 0.320768
O O14 0.516029 0.813244 0.109763
O O15 0.438238 0.061763 0.000000
O O16 0.584837 0.084837 0.000000
#
# Coordination Sequence:
#
# PCOD8310380 Si02
#       8
#     8   2   8   8   8   8   8   8
#     4  11  25  44  69 104 130 176 230 282 349 404
#     4  12  20  36  70  92 132 184 238 268 340 392
#     4  11  21  41  67  97 131 175 223 271 337 414
#     4  11  22  39  63  98 132 179 225 284 329 402
#     4  11  26  45  70  98 135 175 229 286 340 405
#     4  12  22  44  67  97 135 183 219 275 346 413
#     4  11  24  38  64 100 138 180 230 274 333 414
#     4  11  25  44  70  97 134 173 233 289 338 413
#
# _framework density 20.507158
#
# number of rings (size 3 to 8) (size 9 to 14) (size 15 to 20)
#    0.000    0.828    6.207    2.483    3.862    0.276 
#    1.241    1.379    0.000    0.000    0.000    0.000 
#    0.000    0.000    0.000    0.000    0.000    0.000 
#
# Total GULP energy -719166.592221 kJ/mol
# GULP energy per Si atom -12399.424004 kJ/mol
# Density = 2.046048 g / cm^3
# Si number density = 20.507158 Si / 1000 Ang^3
#
#
#
# Elastic Constant Matrix: (Units=GPa)
#
#
# Indices 1 2 3 4 5 6 
#
# 1 97.5885 56.4462 24.0698 0.0000 0.0000 0.0000
# 2 56.4462 97.5879 24.0691 0.0000 0.0000 0.0000
# 3 24.0698 24.0691 94.8290 0.0000 0.0000 0.0000
# 4 0.0000 0.0000 0.0000 26.5554 0.0000 0.0000
# 5 0.0000 0.0000 0.0000 0.0000 26.5552 0.0000
# 6 0.0000 0.0000 0.0000 0.0000 0.0000 27.4587
#
#
#
# Elastic Compliance Matrix: (Units=1/GPa)
#
#
# Indices 1 2 3 4 5 6 
#
# 1 0.015679 -0.008627 -0.001790 0.000000 0.000000 0.000000
# 2 -0.008627 0.015679 -0.001790 0.000000 0.000000 0.000000
# 3 -0.001790 -0.001790 0.011454 0.000000 0.000000 0.000000
# 4 0.000000 0.000000 0.000000 0.037657 0.000000 0.000000
# 5 0.000000 0.000000 0.000000 0.000000 0.037657 0.000000
# 6 0.000000 0.000000 0.000000 0.000000 0.000000 0.036418
#
#
# Mechanical properties :
#
#
# Convention : Reuss Voigt Hill
#
# Bulk Modulus (GPa) = 54.35512 55.46395 54.90954
# Shear Modulus (GPa) = 27.01380 28.47520 27.74450
#
# Velocity S-wave (km/s) = 3.63338 3.73037 3.68219
# Velocity P-wave (km/s) = 6.64567 6.75715 6.70164
#
# Compressibility (1/GPa) = 0.01839753
#
# Stress axis : x y z
#
# Youngs Moduli (GPa) = 63.78072 63.78054 87.30679
#
# Poissons Ratio (x) = 0.55026 0.15627
# Poissons Ratio (y) = 0.55026 0.15625
# Poissons Ratio (z) = 0.11416 0.11415
#
# Static dielectric constant tensor:
#      x y z
#    x 3.805380 0.000000 0.000000 
#    y 0.000000 3.805380 0.000000 
#    z 0.000000 0.000000 3.882240 
# 
# 
# High freq. dielectric constant tensor:
#      x y z
#    x 1.796390 0.000000 0.000000 
#    y 0.000000 1.796390 0.000000 
#    z 0.000000 0.000000 1.814790 
# 
# From -- ./inp_files/2078.got.cif
#   From: 2010.03.12/outbox.cif.g09.slc.cpg/sg117_2_cif.got.tgz:2078.got - 2010.04.14 02:19:01.
