data_PCOD8310688
_publ_section_title
;
Structure prediction by ZEFSAII (Michael W. Deem and Ramdas Pophale) SiO2 
 PCOD8310688
Probable space group: I -4 M 2
;
_chemical_formula_sum "Si O2"
_cell_formula_units_Z 128
_cell_length_a 24.509453
_cell_length_b 24.509453
_cell_length_c 12.453890
_cell_angle_alpha 90.000000
_cell_angle_beta 90.000000
_cell_angle_gamma 90.000000
_cell_volume 7481.217190
_symmetry_space_group_name_H-M "I -4 M 2"
_symmetry_group_IT_number 119
_symmetry_cell_setting 'tetragonal'
loop_
_space_group_symop_operation_xyz
x,y,z
y,-x,-z
-x,-y,z
-y,x,-z
y,x,-z
-y,-x,-z
-x,y,z
x,-y,z
1/2+x,1/2+y,1/2+z
1/2+y,1/2-x,1/2-z
1/2-x,1/2-y,1/2+z
1/2-y,1/2+x,1/2-z
1/2+y,1/2+x,1/2-z
1/2-y,1/2-x,1/2-z
1/2-x,1/2+y,1/2+z
1/2+x,1/2-y,1/2+z
loop_
_atom_site_type_symbol
_atom_site_label
_atom_site_fract_x
_atom_site_fract_y
_atom_site_fract_z
Si Si1 0.807497 0.880510 0.444697
Si Si2 0.317096 0.879596 0.989400
Si Si3 0.934756 0.349169 0.796434
Si Si4 0.213134 0.206347 0.716259
Si Si5 0.063204 0.347903 0.224270
Si Si6 0.359783 0.299529 0.417597
Si Si7 0.283249 0.120063 0.606463
Si Si8 0.938140 0.229070 0.751327
O O1 0.866507 0.866507 0.500000
O O2 0.786817 0.824608 0.388690
O O3 0.766877 0.901954 0.536053
O O4 0.809007 0.926007 0.351925
O O5 0.316127 0.914925 0.880415
O O6 0.356684 0.828274 0.974480
O O7 0.342025 0.919676 0.078960
O O8 0.258046 0.854216 0.019868
O O9 0.900136 0.400136 0.750000
O O10 0.916311 0.291868 0.738159
O O11 0.000000 0.360802 0.783555
O O12 0.234585 0.265416 0.750000
O O13 0.181192 0.187237 0.820585
O O14 0.263179 0.166284 0.689829
O O15 0.097207 0.402794 0.250000
O O16 0.069971 0.306984 0.324938
O O17 0.000000 0.363602 0.210789
O O18 0.349269 0.349269 0.500000
O O19 0.418287 0.300282 0.360490
O O20 0.000000 0.234687 0.772554
#
# Coordination Sequence:
#
# PCOD8310688 Si02
#       8
#    16  16  16  16  16  16  16  16
#     4   9  18  29  45  68  95 123 154 188 225 277
#     4  10  19  32  48  66  92 124 154 192 248 306
#     4  10  20  34  51  69  92 127 172 218 258 293
#     4  10  17  26  41  67  99 126 151 184 228 281
#     4  10  21  35  49  64  84 115 160 211 256 293
#     4  10  18  28  46  71  97 126 157 188 224 281
#     4  10  18  29  45  67  92 121 154 193 240 290
#     4   9  19  33  48  69 100 134 161 192 241 295
#
# _framework density 17.109515999999999
#
# number of rings (size 3 to 8) (size 9 to 14) (size 15 to 20)
#    0.000    2.250    0.000    4.500    0.000    5.750 
#    0.000    3.750    0.000    3.000    0.000    0.000 
#    0.000    1.500    0.000    0.000    0.000    0.000 
#
# Total GULP energy -792868.681837 kJ/mol
# GULP energy per Si atom -12388.573154 kJ/mol
# Density = 1.707057 g / cm^3
# Si number density = 17.109516 Si / 1000 Ang^3
#
#
#
# Elastic Constant Matrix: (Units=GPa)
#
#
# Indices 1 2 3 4 5 6 
#
# 1 41.4458 35.7138 27.4165 0.0000 0.0000 0.0000
# 2 35.7138 41.4469 27.4177 0.0000 0.0000 0.0000
# 3 27.4165 27.4177 94.8975 0.0000 0.0000 0.0000
# 4 0.0000 0.0000 0.0000 16.7992 0.0000 0.0000
# 5 0.0000 0.0000 0.0000 0.0000 16.8004 0.0000
# 6 0.0000 0.0000 0.0000 0.0000 0.0000 18.9088
#
#
#
# Elastic Compliance Matrix: (Units=1/GPa)
#
#
# Indices 1 2 3 4 5 6 
#
# 1 0.095377 -0.079068 -0.004711 0.000000 0.000000 0.000000
# 2 -0.079068 0.095376 -0.004713 0.000000 0.000000 0.000000
# 3 -0.004711 -0.004713 0.013260 0.000000 0.000000 0.000000
# 4 0.000000 0.000000 0.000000 0.059527 0.000000 0.000000
# 5 0.000000 0.000000 0.000000 0.000000 0.059523 0.000000
# 6 0.000000 0.000000 0.000000 0.000000 0.000000 0.052885
#
#
# Mechanical properties :
#
#
# Convention : Reuss Voigt Hill
#
# Bulk Modulus (GPa) = 36.99557 39.87625 38.43591
# Shear Modulus (GPa) = 8.89775 16.31781 12.60778
#
# Velocity S-wave (km/s) = 2.28293 3.09160 2.71751
# Velocity P-wave (km/s) = 5.34965 6.00841 5.68858
#
# Compressibility (1/GPa) = 0.02703026
#
# Stress axis : x y z
#
# Youngs Moduli (GPa) = 10.48473 10.48486 75.41341
#
# Poissons Ratio (x) = 0.82901 0.35526
# Poissons Ratio (y) = 0.82900 0.35540
# Poissons Ratio (z) = 0.04939 0.04941
#
# Static dielectric constant tensor:
#      x y z
#    x 3.044020 0.000000 0.000000 
#    y 0.000000 3.044020 0.000000 
#    z 0.000000 0.000000 4.015940 
# 
# 
# High freq. dielectric constant tensor:
#      x y z
#    x 1.630570 0.000000 0.000000 
#    y 0.000000 1.630580 0.000000 
#    z 0.000000 0.000000 1.682810 
# 
# From -- ./inp_files/4468.got.cif
#   From: 2010.03.12/outbox.cif.g09.slc.cpg/sg119_3_cif.got.tgz:4468.got - 2010.04.14 02:25:26.
