data_PCOD8310130
_publ_section_title
;
Structure prediction by ZEFSAII (Michael W. Deem and Ramdas Pophale) SiO2 
 PCOD8310130
Probable space group: P -4 C 2
;
_chemical_formula_sum "Si O2"
_cell_formula_units_Z 42
_cell_length_a 10.887510
_cell_length_b 10.887510
_cell_length_c 17.755915
_cell_angle_alpha 90.000000
_cell_angle_beta 90.000000
_cell_angle_gamma 90.000000
_cell_volume 2104.748415
_symmetry_space_group_name_H-M "P -4 C 2"
_symmetry_group_IT_number 116
_symmetry_cell_setting 'tetragonal'
loop_
_space_group_symop_operation_xyz
x,y,z
y,-x,-z
-x,-y,z
-y,x,-z
y,x,1/2-z
-y,-x,1/2-z
-x,y,1/2+z
x,-y,1/2+z
loop_
_atom_site_type_symbol
_atom_site_label
_atom_site_fract_x
_atom_site_fract_y
_atom_site_fract_z
Si Si1 0.512784 0.774197 0.282762
Si Si2 0.870448 0.759579 0.405173
Si Si3 0.500000 0.500000 0.250000
Si Si4 0.311697 0.903363 0.005617
Si Si5 0.208363 0.208363 0.250000
Si Si6 0.000000 0.500000 0.110827
Si Si7 0.508523 0.854089 0.624869
O O1 0.500470 0.626551 0.301268
O O2 0.652785 0.815116 0.274837
O O3 0.463958 0.874616 0.343237
O O4 0.443405 0.793682 0.202592
O O5 0.792213 0.824220 0.468547
O O6 0.873091 0.827161 0.323344
O O7 0.804890 0.627512 0.393572
O O8 0.008086 0.753823 0.434590
O O9 0.383006 0.979026 0.942019
O O10 0.403339 0.818112 0.055182
O O11 0.500000 0.000000 0.634532
#
# Coordination Sequence:
#
# PCOD8310130 Si02
#       7
#     8   8   2   8   4   4   8
#     4  10  20  36  62  87 125 165 210 260 317 389
#     4  10  20  36  58  88 116 156 204 259 310 378
#     4  10  24  40  56  98 134 160 208 280 332 368
#     4  11  22  36  60  90 123 159 214 263 321 381
#     4   9  18  35  62  83 109 162 210 243 318 379
#     4  12  20  36  64  92 120 172 222 250 316 406
#     4   9  18  37  58  86 113 160 210 257 306 386
#
# _framework density 19.954878999999998
#
# number of rings (size 3 to 8) (size 9 to 14) (size 15 to 20)
#    0.000    1.905    5.714    0.000    0.000    1.905 
#    0.000    0.000    0.000    3.429    0.000    0.000 
#    0.000    0.000    0.000    0.000    0.000    0.000 
#
# Total GULP energy -520349.728178 kJ/mol
# GULP energy per Si atom -12389.279242 kJ/mol
# Density = 1.990946 g / cm^3
# Si number density = 19.954879 Si / 1000 Ang^3
#
#
#
# Elastic Constant Matrix: (Units=GPa)
#
#
# Indices 1 2 3 4 5 6 
#
# 1 63.8097 15.9022 44.0609 0.0000 0.0000 0.0000
# 2 15.9022 63.8097 44.0609 0.0000 0.0000 0.0000
# 3 44.0609 44.0609 156.5460 0.0000 0.0000 0.0000
# 4 0.0000 0.0000 0.0000 21.6158 0.0000 0.0000
# 5 0.0000 0.0000 0.0000 0.0000 21.6158 0.0000
# 6 0.0000 0.0000 0.0000 0.0000 0.0000 23.4248
#
#
#
# Elastic Compliance Matrix: (Units=1/GPa)
#
#
# Indices 1 2 3 4 5 6 
#
# 1 0.019543 -0.001331 -0.005126 0.000000 0.000000 0.000000
# 2 -0.001331 0.019543 -0.005126 0.000000 0.000000 0.000000
# 3 -0.005126 -0.005126 0.009273 0.000000 0.000000 0.000000
# 4 0.000000 0.000000 0.000000 0.046262 0.000000 0.000000
# 5 0.000000 0.000000 0.000000 0.000000 0.046262 0.000000
# 6 0.000000 0.000000 0.000000 0.000000 0.000000 0.042690
#
#
# Mechanical properties :
#
#
# Convention : Reuss Voigt Hill
#
# Bulk Modulus (GPa) = 39.69270 54.69041 47.19155
# Shear Modulus (GPa) = 23.24109 25.34071 24.29090
#
# Velocity S-wave (km/s) = 3.41645 3.56743 3.49276
# Velocity P-wave (km/s) = 5.95795 6.66598 6.32189
#
# Compressibility (1/GPa) = 0.02519355
#
# Stress axis : x y z
#
# Youngs Moduli (GPa) = 51.17006 51.17006 107.83645
#
# Poissons Ratio (x) = 0.06810 0.55275
# Poissons Ratio (y) = 0.06810 0.55275
# Poissons Ratio (z) = 0.26229 0.26229
#
# Static dielectric constant tensor:
#      x y z
#    x 3.686280 0.000000 0.000000 
#    y 0.000000 3.686280 0.000000 
#    z 0.000000 0.000000 4.017150 
# 
# 
# High freq. dielectric constant tensor:
#      x y z
#    x 1.756160 0.000000 0.000000 
#    y 0.000000 1.756160 0.000000 
#    z 0.000000 0.000000 1.789060 
# 
# From -- ./inp_files/3343.got.cif
#   From: 2010.03.12/outbox.cif.g09.slc.cpg/sg116_2_cif.got.tgz:3343.got - 2010.04.14 02:15:44.
