data_PCOD8310824
_publ_section_title
;
Structure prediction by ZEFSAII (Michael W. Deem and Ramdas Pophale) SiO2 
 PCOD8310824
Probable space group: I -4 M 2
;
_chemical_formula_sum "Si O2"
_cell_formula_units_Z 80
_cell_length_a 17.183965
_cell_length_b 17.183965
_cell_length_c 15.238413
_cell_angle_alpha 90.000000
_cell_angle_beta 90.000000
_cell_angle_gamma 90.000000
_cell_volume 4499.730450
_symmetry_space_group_name_H-M "I -4 M 2"
_symmetry_group_IT_number 119
_symmetry_cell_setting 'tetragonal'
loop_
_space_group_symop_operation_xyz
x,y,z
y,-x,-z
-x,-y,z
-y,x,-z
y,x,-z
-y,-x,-z
-x,y,z
x,-y,z
1/2+x,1/2+y,1/2+z
1/2+y,1/2-x,1/2-z
1/2-x,1/2-y,1/2+z
1/2-y,1/2+x,1/2-z
1/2+y,1/2+x,1/2-z
1/2-y,1/2-x,1/2-z
1/2-x,1/2+y,1/2+z
1/2+x,1/2-y,1/2+z
loop_
_atom_site_type_symbol
_atom_site_label
_atom_site_fract_x
_atom_site_fract_y
_atom_site_fract_z
Si Si1 0.344371 0.677382 0.352280
Si Si2 0.911124 0.588877 0.250000
Si Si3 0.085765 0.085765 0.000000
Si Si4 0.786293 0.409139 0.785962
Si Si5 0.700335 0.909293 0.901121
Si Si6 0.283482 0.818785 0.450617
O O1 0.407581 0.652018 0.425279
O O2 0.385402 0.704031 0.261577
O O3 0.282404 0.606280 0.350821
O O4 0.293360 0.750293 0.380893
O O5 0.893416 0.500000 0.229206
O O6 0.882768 0.633431 0.164604
O O7 0.000000 0.095399 0.042016
O O8 0.802769 0.500000 0.768725
O O9 0.860347 0.360347 0.750000
O O10 0.776353 0.396521 0.891502
O O11 0.695843 0.000000 0.926967
O O12 0.683237 0.859360 0.988013
O O13 0.201974 0.798027 0.500000
#
# Coordination Sequence:
#
# PCOD8310824 Si02
#       6
#    16   8   8  16  16  16
#     4  10  19  33  53  75 107 137 175 220 266 319
#     4   9  20  34  48  76 114 144 175 224 276 322
#     4  11  20  30  50  80 110 136 168 216 277 336
#     4  10  22  37  55  78 107 143 179 222 270 321
#     4  10  19  32  55  79 106 143 181 219 269 324
#     4   9  19  33  52  76 101 138 176 222 256 311
#
# _framework density 17.778842999999998
#
# number of rings (size 3 to 8) (size 9 to 14) (size 15 to 20)
#    0.000    2.200    3.000    1.200    7.000    4.200 
#    0.000    0.000    0.000    0.000    0.000    0.000 
#    0.000    0.000    0.000    0.000    0.000    0.000 
#
# Total GULP energy -495543.601775 kJ/mol
# GULP energy per Si atom -12388.590044 kJ/mol
# Density = 1.773838 g / cm^3
# Si number density = 17.778843 Si / 1000 Ang^3
#
#
#
# Elastic Constant Matrix: (Units=GPa)
#
#
# Indices 1 2 3 4 5 6 
#
# 1 46.5726 48.3812 51.2032 0.0000 0.0000 0.0000
# 2 48.3812 46.5792 51.2035 0.0000 0.0000 0.0000
# 3 51.2032 51.2035 99.0839 0.0000 0.0000 0.0000
# 4 0.0000 0.0000 0.0000 21.9981 0.0000 0.0000
# 5 0.0000 0.0000 0.0000 0.0000 21.9985 0.0000
# 6 0.0000 0.0000 0.0000 0.0000 0.0000 23.0088
#
#
#
# Elastic Compliance Matrix: (Units=1/GPa)
#
#
# Indices 1 2 3 4 5 6 
#
# 1 -0.265117 0.288865 -0.012273 0.000000 0.000000 0.000000
# 2 0.288865 -0.265034 -0.012314 0.000000 0.000000 0.000000
# 3 -0.012273 -0.012314 0.022798 0.000000 0.000000 0.000000
# 4 0.000000 0.000000 0.000000 0.045458 0.000000 0.000000
# 5 0.000000 0.000000 0.000000 0.000000 0.045458 0.000000
# 6 0.000000 0.000000 0.000000 0.000000 0.000000 0.043462
#
#
# Mechanical properties :
#
#
# Convention : Reuss Voigt Hill
#
# Bulk Modulus (GPa) = 47.16433 54.86793 51.01613
# Shear Modulus (GPa) = -5.58993 16.16427 5.28717
#
# Velocity S-wave (km/s) = -1.77510 3.01854 1.72636
# Velocity P-wave (km/s) = 4.73124 6.56332 5.72109
#
# Compressibility (1/GPa) = 0.02120246
#
# Stress axis : x y z
#
# Youngs Moduli (GPa) = -3.77191 -3.77310 43.86354
#
# Poissons Ratio (x) = 1.08991 0.53832
# Poissons Ratio (y) = 1.08957 0.54014
# Poissons Ratio (z) = -0.04629 -0.04646
#
# Static dielectric constant tensor:
#      x y z
#    x 3.381960 0.000000 0.000000 
#    y 0.000000 3.382020 0.000000 
#    z 0.000000 0.000000 3.675280 
# 
# 
# High freq. dielectric constant tensor:
#      x y z
#    x 1.678620 0.000000 0.000000 
#    y 0.000000 1.678630 0.000000 
#    z 0.000000 0.000000 1.677520 
# 
# From -- ./inp_files/5333.got.cif
#   From: 2010.03.12/outbox.cif.g09.slc.cpg/sg119_3_cif.got.tgz:5333.got - 2010.04.14 02:25:26.
