data_PCOD8310226
_publ_section_title
;
Structure prediction by ZEFSAII (Michael W. Deem and Ramdas Pophale) SiO2 
 PCOD8310226
Probable space group: P -4 C 2
;
_chemical_formula_sum "Si O2"
_cell_formula_units_Z 20
_cell_length_a 5.035479
_cell_length_b 5.035479
_cell_length_c 32.478478
_cell_angle_alpha 90.000000
_cell_angle_beta 90.000000
_cell_angle_gamma 90.000000
_cell_volume 823.525872
_symmetry_space_group_name_H-M "P -4 C 2"
_symmetry_group_IT_number 116
_symmetry_cell_setting 'tetragonal'
loop_
_space_group_symop_operation_xyz
x,y,z
y,-x,-z
-x,-y,z
-y,x,-z
y,x,1/2-z
-y,-x,1/2-z
-x,y,1/2+z
x,-y,1/2+z
loop_
_atom_site_type_symbol
_atom_site_label
_atom_site_fract_x
_atom_site_fract_y
_atom_site_fract_z
Si Si1 0.000000 0.000000 0.363813
Si Si2 0.312663 0.247150 0.929849
Si Si3 0.000000 0.000000 0.500000
Si Si4 0.500000 0.500000 0.750000
Si Si5 0.000000 0.500000 0.192234
O O1 0.246923 0.075198 0.335366
O O2 0.909231 0.247244 0.393394
O O3 0.500000 0.500000 0.930290
O O4 0.500000 0.000000 0.921007
O O5 0.156917 0.217626 0.972941
O O6 0.531791 0.750546 0.778892
#
# Coordination Sequence:
#
# PCOD8310226 Si02
#       5
#     4   8   2   2   4
#     4  11  26  50  80 113 152 202 254 317 378 458
#     4  11  27  48  77 113 152 206 258 322 387 457
#     4  10  28  44  76 114 160 206 268 326 396 468
#     4  12  28  48  76 116 150 200 244 306 388 458
#     4  12  26  48  78 112 156 194 252 310 378 464
#
# _framework density 24.285819
#
# number of rings (size 3 to 8) (size 9 to 14) (size 15 to 20)
#    0.000    0.800    2.000    2.400    8.400    8.000 
#    0.000    0.000    4.400    0.000    0.000    0.000 
#    0.000    0.000    0.000    0.000    0.000    0.000 
#
# Total GULP energy -247927.007937 kJ/mol
# GULP energy per Si atom -12396.350397 kJ/mol
# Density = 2.423054 g / cm^3
# Si number density = 24.285819 Si / 1000 Ang^3
#
#
#
# Elastic Constant Matrix: (Units=GPa)
#
#
# Indices 1 2 3 4 5 6 
#
# 1 195.2759 81.7499 98.8433 0.0000 0.0000 0.0000
# 2 81.7499 195.2759 98.8433 0.0000 0.0000 0.0000
# 3 98.8433 98.8433 209.8323 0.0000 0.0000 0.0000
# 4 0.0000 0.0000 0.0000 4.4830 0.0000 0.0000
# 5 0.0000 0.0000 0.0000 0.0000 4.4830 0.0000
# 6 0.0000 0.0000 0.0000 0.0000 0.0000 54.9791
#
#
#
# Elastic Compliance Matrix: (Units=1/GPa)
#
#
# Indices 1 2 3 4 5 6 
#
# 1 0.007123 -0.001685 -0.002561 0.000000 0.000000 0.000000
# 2 -0.001685 0.007123 -0.002561 0.000000 0.000000 0.000000
# 3 -0.002561 -0.002561 0.007179 0.000000 0.000000 0.000000
# 4 0.000000 0.000000 0.000000 0.223064 0.000000 0.000000
# 5 0.000000 0.000000 0.000000 0.000000 0.223064 0.000000
# 6 0.000000 0.000000 0.000000 0.000000 0.000000 0.018189
#
#
# Mechanical properties :
#
#
# Convention : Reuss Voigt Hill
#
# Bulk Modulus (GPa) = 128.06760 128.80636 128.43698
# Shear Modulus (GPa) = 9.96092 34.18553 22.07322
#
# Velocity S-wave (km/s) = 2.02742 3.75591 3.01806
# Velocity P-wave (km/s) = 7.63731 8.48304 8.07126
#
# Compressibility (1/GPa) = 0.00780838
#
# Stress axis : x y z
#
# Youngs Moduli (GPa) = 140.38853 140.38853 139.29732
#
# Poissons Ratio (x) = 0.23662 0.35680
# Poissons Ratio (y) = 0.23662 0.35680
# Poissons Ratio (z) = 0.35960 0.35960
#
# Static dielectric constant tensor:
#      x y z
#    x 4.550570 0.000000 0.000000 
#    y 0.000000 4.550570 0.000000 
#    z 0.000000 0.000000 4.909580 
# 
# 
# High freq. dielectric constant tensor:
#      x y z
#    x 1.973510 0.000000 0.000000 
#    y 0.000000 1.973510 0.000000 
#    z 0.000000 0.000000 1.990110 
# 
# From -- ./inp_files/4742.got.cif
#   From: 2010.03.12/outbox.cif.g09.slc.cpg/sg116_3_cif.got.tgz:4742.got - 2010.04.14 02:15:44.
