data_PCOD8310415
_publ_section_title
;
Structure prediction by ZEFSAII (Michael W. Deem and Ramdas Pophale) SiO2 
 PCOD8310415
Probable space group: P -4 B 2
;
_chemical_formula_sum "Si O2"
_cell_formula_units_Z 18
_cell_length_a 10.023908
_cell_length_b 10.023908
_cell_length_c 8.001592
_cell_angle_alpha 90.000000
_cell_angle_beta 90.000000
_cell_angle_gamma 90.000000
_cell_volume 803.989815
_symmetry_space_group_name_H-M "P -4 B 2"
_symmetry_group_IT_number 117
_symmetry_cell_setting 'tetragonal'
loop_
_space_group_symop_operation_xyz
x,y,z
y,-x,-z
-x,-y,z
-y,x,-z
1/2+y,1/2+x,-z
1/2-y,1/2-x,-z
1/2-x,1/2+y,z
1/2+x,1/2-y,z
loop_
_atom_site_type_symbol
_atom_site_label
_atom_site_fract_x
_atom_site_fract_y
_atom_site_fract_z
Si Si1 0.134211 0.554151 0.313834
Si Si2 0.500000 0.500000 0.000000
Si Si3 0.713063 0.671926 0.156388
O O1 0.100869 0.600869 0.500000
O O2 0.234367 0.427951 0.301062
O O3 0.198422 0.677685 0.219442
O O4 0.000000 0.500000 0.226298
O O5 0.566941 0.617539 0.107922
O O6 0.815767 0.684234 0.000000
#
# Coordination Sequence:
#
# PCOD8310415 Si02
#       3
#     8   2   8
#     4  11  28  46  73 107 152 199 250 318 392 460
#     4  12  24  40  74 112 136 192 246 316 372 444
#     4  12  25  46  75 109 148 195 260 313 381 465
#
# _framework density 22.388342999999999
#
# number of rings (size 3 to 8) (size 9 to 14) (size 15 to 20)
#    0.000    0.444    4.444    2.667    6.222    0.000 
#    0.000    0.000    0.000    0.000    0.000    0.000 
#    0.000    0.000    0.000    0.000    0.000    0.000 
#
# Total GULP energy -223115.032695 kJ/mol
# GULP energy per Si atom -12395.279594 kJ/mol
# Density = 2.233739 g / cm^3
# Si number density = 22.388343 Si / 1000 Ang^3
#
#
#
# Elastic Constant Matrix: (Units=GPa)
#
#
# Indices 1 2 3 4 5 6 
#
# 1 136.9006 60.2261 43.2777 0.0000 0.0000 0.0000
# 2 60.2261 136.9019 43.2779 0.0000 0.0000 0.0000
# 3 43.2777 43.2779 99.4298 0.0000 0.0000 0.0000
# 4 0.0000 0.0000 0.0000 30.5307 0.0000 0.0000
# 5 0.0000 0.0000 0.0000 0.0000 30.5304 0.0000
# 6 0.0000 0.0000 0.0000 0.0000 0.0000 66.1089
#
#
#
# Elastic Compliance Matrix: (Units=1/GPa)
#
#
# Indices 1 2 3 4 5 6 
#
# 1 0.009657 -0.003385 -0.002730 0.000000 0.000000 0.000000
# 2 -0.003385 0.009657 -0.002730 0.000000 0.000000 0.000000
# 3 -0.002730 -0.002730 0.012434 0.000000 0.000000 0.000000
# 4 0.000000 0.000000 0.000000 0.032754 0.000000 0.000000
# 5 0.000000 0.000000 0.000000 0.000000 0.032754 0.000000
# 6 0.000000 0.000000 0.000000 0.000000 0.000000 0.015127
#
#
# Mechanical properties :
#
#
# Convention : Reuss Voigt Hill
#
# Bulk Modulus (GPa) = 71.13558 74.08841 72.61200
# Shear Modulus (GPa) = 37.10379 40.53070 38.81725
#
# Velocity S-wave (km/s) = 4.07539 4.25943 4.16843
# Velocity P-wave (km/s) = 7.34762 7.57328 7.46131
#
# Compressibility (1/GPa) = 0.01405766
#
# Stress axis : x y z
#
# Youngs Moduli (GPa) = 103.55416 103.55517 80.42713
#
# Poissons Ratio (x) = 0.35057 0.21954
# Poissons Ratio (y) = 0.35056 0.21954
# Poissons Ratio (z) = 0.28267 0.28267
#
# Static dielectric constant tensor:
#      x y z
#    x 4.258430 0.000000 0.000000 
#    y 0.000000 4.258430 0.000000 
#    z 0.000000 0.000000 3.836270 
# 
# 
# High freq. dielectric constant tensor:
#      x y z
#    x 1.900700 0.000000 0.000000 
#    y 0.000000 1.900700 0.000000 
#    z 0.000000 0.000000 1.858700 
# 
# From -- ./inp_files/122.got.cif
#   From: 2010.03.12/outbox.cif.g09.slc.cpg/sg117_1_cif.got.tgz:122.got - 2010.04.14 02:19:01.
