data_PCOD8310329
_publ_section_title
;
Structure prediction by ZEFSAII (Michael W. Deem and Ramdas Pophale) SiO2 
 PCOD8310329
Probable space group: P -4 B 2
;
_chemical_formula_sum "Si O2"
_cell_formula_units_Z 56
_cell_length_a 14.770489
_cell_length_b 14.770489
_cell_length_c 11.203426
_cell_angle_alpha 90.000000
_cell_angle_beta 90.000000
_cell_angle_gamma 90.000000
_cell_volume 2444.221709
_symmetry_space_group_name_H-M "P -4 B 2"
_symmetry_group_IT_number 117
_symmetry_cell_setting 'tetragonal'
loop_
_space_group_symop_operation_xyz
x,y,z
y,-x,-z
-x,-y,z
-y,x,-z
1/2+y,1/2+x,-z
1/2-y,1/2-x,-z
1/2-x,1/2+y,z
1/2+x,1/2-y,z
loop_
_atom_site_type_symbol
_atom_site_label
_atom_site_fract_x
_atom_site_fract_y
_atom_site_fract_z
Si Si1 0.822782 0.916716 0.645193
Si Si2 0.150819 0.225155 0.075308
Si Si3 0.255458 0.596622 0.247352
Si Si4 0.409713 0.696416 0.829673
Si Si5 0.842719 0.612728 0.723481
Si Si6 0.110078 0.570734 0.634001
Si Si7 0.114631 0.180054 0.426638
O O1 0.846451 0.882897 0.777506
O O2 0.716481 0.912409 0.622408
O O3 0.876566 0.842136 0.565849
O O4 0.857721 0.018107 0.620455
O O5 0.231942 0.169802 0.140870
O O6 0.083670 0.266019 0.177492
O O7 0.195144 0.304857 0.000000
O O8 0.093610 0.176426 0.972142
O O9 0.315309 0.513000 0.204503
O O10 0.150795 0.572117 0.279715
O O11 0.301066 0.628589 0.368763
O O12 0.385010 0.796327 0.776736
O O13 0.910906 0.527885 0.697275
O O14 0.787558 0.626445 0.599115
O O15 0.069271 0.569271 0.500000
#
# Coordination Sequence:
#
# PCOD8310329 Si02
#       7
#     8   8   8   8   8   8   8
#     4  11  22  37  63  88 128 169 223 267 336 390
#     4   9  20  42  64  86 119 166 219 267 320 392
#     4  11  23  39  62  92 131 163 220 271 331 406
#     4  11  24  39  63  97 127 175 217 269 345 397
#     4   9  22  41  63  88 128 165 215 272 329 393
#     4  11  22  40  65  97 130 172 224 271 336 404
#     4  10  21  39  58  87 123 169 210 282 318 394
#
# _framework density 22.911178
#
# number of rings (size 3 to 8) (size 9 to 14) (size 15 to 20)
#    0.000    1.714    1.429    3.429    2.000    7.143 
#    0.000    0.714    0.000    2.571    0.000    0.000 
#    0.000    0.000    0.000    0.000    0.000    0.000 
#
# Total GULP energy -693779.489253 kJ/mol
# GULP energy per Si atom -12388.919451 kJ/mol
# Density = 2.285903 g / cm^3
# Si number density = 22.911178 Si / 1000 Ang^3
#
#
#
# Elastic Constant Matrix: (Units=GPa)
#
#
# Indices 1 2 3 4 5 6 
#
# 1 51.2598 -20.8568 6.4035 0.0000 0.0000 0.0000
# 2 -20.8568 51.2604 6.4032 0.0000 0.0000 0.0000
# 3 6.4035 6.4032 81.1184 0.0000 0.0000 0.0000
# 4 0.0000 0.0000 0.0000 19.7415 0.0000 0.0000
# 5 0.0000 0.0000 0.0000 0.0000 19.7419 0.0000
# 6 0.0000 0.0000 0.0000 0.0000 0.0000 31.4585
#
#
#
# Elastic Compliance Matrix: (Units=1/GPa)
#
#
# Indices 1 2 3 4 5 6 
#
# 1 0.023945 0.010078 -0.002686 0.000000 0.000000 0.000000
# 2 0.010078 0.023944 -0.002686 0.000000 0.000000 0.000000
# 3 -0.002686 -0.002686 0.012752 0.000000 0.000000 0.000000
# 4 0.000000 0.000000 0.000000 0.050655 0.000000 0.000000
# 5 0.000000 0.000000 0.000000 0.000000 0.050654 0.000000
# 6 0.000000 0.000000 0.000000 0.000000 0.000000 0.031788
#
#
# Mechanical properties :
#
#
# Convention : Reuss Voigt Hill
#
# Bulk Modulus (GPa) = 14.27471 18.61537 16.44504
# Shear Modulus (GPa) = 24.07609 26.96761 25.52185
#
# Velocity S-wave (km/s) = 3.24519 3.43454 3.34121
# Velocity P-wave (km/s) = 4.50396 4.88577 4.69874
#
# Compressibility (1/GPa) = 0.07005394
#
# Stress axis : x y z
#
# Youngs Moduli (GPa) = 41.76308 41.76363 78.42112
#
# Poissons Ratio (x) = -0.42090 0.21062
# Poissons Ratio (y) = -0.42089 0.21061
# Poissons Ratio (z) = 0.11216 0.11216
#
# Static dielectric constant tensor:
#      x y z
#    x 4.107910 0.000000 0.000000 
#    y 0.000000 4.107910 0.000000 
#    z 0.000000 0.000000 5.164320 
# 
# 
# High freq. dielectric constant tensor:
#      x y z
#    x 1.896560 0.000000 0.000000 
#    y 0.000000 1.896560 0.000000 
#    z 0.000000 0.000000 1.908780 
# 
# From -- ./inp_files/2844.got.cif
#   From: 2010.03.12/outbox.cif.g09.slc.cpg/sg117_2_cif.got.tgz:2844.got - 2010.04.14 02:19:01.
