data_PCOD8310189
_publ_section_title
;
Structure prediction by ZEFSAII (Michael W. Deem and Ramdas Pophale) SiO2 
 PCOD8310189
Probable space group: P -4 C 2
;
_chemical_formula_sum "Si O2"
_cell_formula_units_Z 34
_cell_length_a 11.161646
_cell_length_b 11.161646
_cell_length_c 14.532096
_cell_angle_alpha 90.000000
_cell_angle_beta 90.000000
_cell_angle_gamma 90.000000
_cell_volume 1810.442546
_symmetry_space_group_name_H-M "P -4 C 2"
_symmetry_group_IT_number 116
_symmetry_cell_setting 'tetragonal'
loop_
_space_group_symop_operation_xyz
x,y,z
y,-x,-z
-x,-y,z
-y,x,-z
y,x,1/2-z
-y,-x,1/2-z
-x,y,1/2+z
x,-y,1/2+z
loop_
_atom_site_type_symbol
_atom_site_label
_atom_site_fract_x
_atom_site_fract_y
_atom_site_fract_z
Si Si1 0.847177 0.847177 0.643211
Si Si2 0.119940 0.432555 0.855975
Si Si3 0.000000 0.000000 0.000000
Si Si4 0.500000 0.695177 0.500000
Si Si5 0.880060 0.432555 0.144025
O O1 0.879393 0.879393 0.750000
O O2 0.709090 0.880420 0.623905
O O3 0.880420 0.709090 0.623905
O O4 0.920869 0.920869 0.568514
O O5 0.227119 0.495847 0.908461
O O6 0.144071 0.458322 0.750000
O O7 0.000000 0.500000 0.889113
O O8 0.618337 0.618337 0.490417
O O9 0.495847 0.772881 0.408461
O O10 0.000000 0.500000 0.110887
#
# Coordination Sequence:
#
# PCOD8310189 Si02
#       5
#     8   8   2   8   8
#     4  10  23  43  62  90 126 160 203 251 305 362
#     4  10  22  41  63  85 119 161 199 249 304 358
#     4  12  26  36  64  94 116 168 198 256 296 354
#     4  11  23  36  60  92 121 153 196 246 298 369
#     4  10  22  41  63  85 119 161 199 249 304 358
#
# _framework density 18.77994
#
# number of rings (size 3 to 8) (size 9 to 14) (size 15 to 20)
#    0.000    1.647    2.353    1.059    6.588    0.941 
#    0.000    2.353    0.000    0.000    0.000    0.000 
#    0.000    0.000    0.000    0.000    0.000    0.000 
#
# Total GULP energy -421577.264032 kJ/mol
# GULP energy per Si atom -12399.331295 kJ/mol
# Density = 1.873720 g / cm^3
# Si number density = 18.779940 Si / 1000 Ang^3
#
#
#
# Elastic Constant Matrix: (Units=GPa)
#
#
# Indices 1 2 3 4 5 6 
#
# 1 147.5988 91.8392 74.6796 0.0000 0.0000 0.0000
# 2 91.8392 147.5988 74.6796 0.0000 0.0000 0.0000
# 3 74.6796 74.6796 103.8301 0.0000 0.0000 0.0000
# 4 0.0000 0.0000 0.0000 33.4321 0.0000 0.0000
# 5 0.0000 0.0000 0.0000 0.0000 33.4321 0.0000
# 6 0.0000 0.0000 0.0000 0.0000 0.0000 59.9498
#
#
#
# Elastic Compliance Matrix: (Units=1/GPa)
#
#
# Indices 1 2 3 4 5 6 
#
# 1 0.012755 -0.005180 -0.005448 0.000000 0.000000 0.000000
# 2 -0.005180 0.012755 -0.005448 0.000000 0.000000 0.000000
# 3 -0.005448 -0.005448 0.017469 0.000000 0.000000 0.000000
# 4 0.000000 0.000000 0.000000 0.029911 0.000000 0.000000
# 5 0.000000 0.000000 0.000000 0.000000 0.029911 0.000000
# 6 0.000000 0.000000 0.000000 0.000000 0.000000 0.016681
#
#
# Mechanical properties :
#
#
# Convention : Reuss Voigt Hill
#
# Bulk Modulus (GPa) = 92.37635 97.93603 95.15619
# Shear Modulus (GPa) = 32.20776 35.88476 34.04626
#
# Velocity S-wave (km/s) = 4.14576 4.37602 4.26244
# Velocity P-wave (km/s) = 8.49777 8.82016 8.66046
#
# Compressibility (1/GPa) = 0.01082528
#
# Stress axis : x y z
#
# Youngs Moduli (GPa) = 78.40301 78.40301 57.24565
#
# Poissons Ratio (x) = 0.40609 0.31190
# Poissons Ratio (y) = 0.40609 0.31190
# Poissons Ratio (z) = 0.42717 0.42717
#
# Static dielectric constant tensor:
#      x y z
#    x 1.473060 0.000000 0.000000 
#    y 0.000000 1.473060 0.000000 
#    z 0.000000 0.000000 3.549680 
# 
# 
# High freq. dielectric constant tensor:
#      x y z
#    x 1.736280 0.000000 0.000000 
#    y 0.000000 1.736280 0.000000 
#    z 0.000000 0.000000 1.744840 
# 
# From -- ./inp_files/1601.got.cif
#   From: 2010.03.12/outbox.cif.g09.slc.cpg/sg116_1_cif.got.tgz:1601.got - 2010.04.14 02:15:44.
