data_PCOD8310131
_publ_section_title
;
Structure prediction by ZEFSAII (Michael W. Deem and Ramdas Pophale) SiO2 
 PCOD8310131
Probable space group: P -4 C 2
;
_chemical_formula_sum "Si O2"
_cell_formula_units_Z 58
_cell_length_a 16.834951
_cell_length_b 16.834951
_cell_length_c 9.507294
_cell_angle_alpha 90.000000
_cell_angle_beta 90.000000
_cell_angle_gamma 90.000000
_cell_volume 2694.515197
_symmetry_space_group_name_H-M "P -4 C 2"
_symmetry_group_IT_number 116
_symmetry_cell_setting 'tetragonal'
loop_
_space_group_symop_operation_xyz
x,y,z
y,-x,-z
-x,-y,z
-y,x,-z
y,x,1/2-z
-y,-x,1/2-z
-x,y,1/2+z
x,-y,1/2+z
loop_
_atom_site_type_symbol
_atom_site_label
_atom_site_fract_x
_atom_site_fract_y
_atom_site_fract_z
Si Si1 0.954350 0.095097 0.089067
Si Si2 0.802205 0.488202 0.276127
Si Si3 0.067489 0.630880 0.376546
Si Si4 0.579280 0.652749 0.118069
Si Si5 0.347862 0.264252 0.879052
Si Si6 0.242310 0.871668 0.329489
Si Si7 0.947325 0.572540 0.163332
Si Si8 0.500000 0.500000 0.500000
O O1 0.939973 0.060028 0.250000
O O2 0.931251 0.188798 0.077457
O O3 0.045778 0.091832 0.034546
O O4 0.858908 0.430846 0.367433
O O5 0.734563 0.530515 0.368288
O O6 0.756396 0.437862 0.159201
O O7 0.856197 0.552064 0.195765
O O8 0.085163 0.711875 0.296974
O O9 0.050953 0.641415 0.543292
O O10 0.987081 0.598551 0.308099
O O11 0.633147 0.633147 0.250000
O O12 0.645315 0.668485 0.997914
O O13 0.520458 0.578366 0.090529
O O14 0.300456 0.300456 0.750000
O O15 0.301672 0.182834 0.924583
O O16 0.179997 0.820004 0.250000
O O17 0.000000 0.500000 0.100623
#
# Coordination Sequence:
#
# PCOD8310131 Si02
#       8
#     8   8   8   8   8   8   8   2
#     4  10  20  38  62  88 115 150 194 238 283 339
#     4  10  21  38  62  87 118 157 201 248 299 358
#     4  10  21  37  61  90 121 157 195 238 294 360
#     4  12  25  41  61  89 117 152 210 264 306 361
#     4  10  21  40  62  84 119 161 195 241 308 365
#     4   9  21  38  58  85 119 157 194 231 288 357
#     4  10  20  36  60  91 122 154 195 242 294 354
#     4  12  26  44  64  86 118 160 208 266 326 368
#
# _framework density 21.525207999999999
#
# number of rings (size 3 to 8) (size 9 to 14) (size 15 to 20)
#    0.000    1.793    0.000    4.759    0.000    7.724 
#    0.000    1.379    0.000    0.000    0.000    0.000 
#    0.000    0.000    0.000    0.000    0.000    0.000 
#
# Total GULP energy -718566.349632 kJ/mol
# GULP energy per Si atom -12389.074994 kJ/mol
# Density = 2.147622 g / cm^3
# Si number density = 21.525208 Si / 1000 Ang^3
#
#
#
# Elastic Constant Matrix: (Units=GPa)
#
#
# Indices 1 2 3 4 5 6 
#
# 1 106.3594 39.0096 37.7306 0.0000 0.0000 0.0000
# 2 39.0096 106.3568 37.7286 0.0000 0.0000 0.0000
# 3 37.7306 37.7286 104.6221 0.0000 0.0000 0.0000
# 4 0.0000 0.0000 0.0000 28.5010 0.0000 0.0000
# 5 0.0000 0.0000 0.0000 0.0000 28.5010 0.0000
# 6 0.0000 0.0000 0.0000 0.0000 0.0000 29.1090
#
#
#
# Elastic Compliance Matrix: (Units=1/GPa)
#
#
# Indices 1 2 3 4 5 6 
#
# 1 0.011656 -0.003192 -0.003052 0.000000 0.000000 0.000000
# 2 -0.003192 0.011656 -0.003052 0.000000 0.000000 0.000000
# 3 -0.003052 -0.003052 0.011760 0.000000 0.000000 0.000000
# 4 0.000000 0.000000 0.000000 0.035087 0.000000 0.000000
# 5 0.000000 0.000000 0.000000 0.000000 0.035086 0.000000
# 6 0.000000 0.000000 0.000000 0.000000 0.000000 0.034354
#
#
# Mechanical properties :
#
#
# Convention : Reuss Voigt Hill
#
# Bulk Modulus (GPa) = 60.68740 60.69732 60.69236
# Shear Modulus (GPa) = 30.54671 30.74683 30.64677
#
# Velocity S-wave (km/s) = 3.77120 3.78353 3.77737
# Velocity P-wave (km/s) = 6.87149 6.88086 6.87618
#
# Compressibility (1/GPa) = 0.01647789
#
# Stress axis : x y z
#
# Youngs Moduli (GPa) = 85.79480 85.79362 85.03701
#
# Poissons Ratio (x) = 0.27388 0.25956
# Poissons Ratio (y) = 0.27389 0.25954
# Poissons Ratio (z) = 0.26187 0.26185
#
# Static dielectric constant tensor:
#      x y z
#    x 4.340170 0.000000 0.000000 
#    y 0.000000 4.340210 0.000000 
#    z 0.000000 0.000000 3.732030 
# 
# 
# High freq. dielectric constant tensor:
#      x y z
#    x 1.846020 0.000000 0.000000 
#    y 0.000000 1.846020 0.000000 
#    z 0.000000 0.000000 1.830770 
# 
# From -- ./inp_files/1060.got.cif
#   From: 2010.03.12/outbox.cif.g09.slc.cpg/sg116_1_cif.got.tgz:1060.got - 2010.04.14 02:15:44.
