data_PCOD8310051
_publ_section_title
;
Structure prediction by ZEFSAII (Michael W. Deem and Ramdas Pophale) SiO2 
 PCOD8310051
Probable space group: P -4 M 2
;
_chemical_formula_sum "Si O2"
_cell_formula_units_Z 36
_cell_length_a 23.100525
_cell_length_b 23.100525
_cell_length_c 5.243749
_cell_angle_alpha 90.000000
_cell_angle_beta 90.000000
_cell_angle_gamma 90.000000
_cell_volume 2798.244092
_symmetry_space_group_name_H-M "P -4 M 2"
_symmetry_group_IT_number 115
_symmetry_cell_setting 'tetragonal'
loop_
_space_group_symop_operation_xyz
x,y,z
y,-x,-z
-x,-y,z
-y,x,-z
y,x,-z
-y,-x,-z
-x,y,z
x,-y,z
loop_
_atom_site_type_symbol
_atom_site_label
_atom_site_fract_x
_atom_site_fract_y
_atom_site_fract_z
Si Si1 0.431055 0.130526 0.746863
Si Si2 0.432530 0.323005 0.278002
Si Si3 0.934525 0.569019 0.753052
Si Si4 0.738445 0.569169 0.224569
Si Si5 0.565307 0.434694 0.000000
O O1 0.500000 0.129794 0.747427
O O2 0.407060 0.098472 0.495901
O O3 0.408066 0.196178 0.747194
O O4 0.407121 0.097675 0.996053
O O5 0.500000 0.308701 0.288147
O O6 0.404981 0.299983 0.541600
O O7 0.405886 0.288446 0.036552
O O8 0.421844 0.391793 0.236229
O O9 0.934291 0.500000 0.752539
O O10 0.000000 0.592627 0.751201
O O11 0.736233 0.500000 0.224025
O O12 0.500000 0.425311 0.894342
#
# Coordination Sequence:
#
# PCOD8310051 Si02
#       5
#     8   8   8   8   4
#     4   9  15  22  32  44  59  79  99 117 135 153
#     4   9  17  28  40  52  64  76  92 114 139 175
#     4   9  15  21  29  43  62  81  99 117 135 153
#     4   9  16  26  38  50  62  77  97 117 135 158
#     4   9  18  32  46  58  70  82  94 114 154 204
#
# _framework density 12.865209999999999
#
# number of rings (size 3 to 8) (size 9 to 14) (size 15 to 20)
#    0.000    3.000    0.000    2.000    0.000    8.889 
#    0.000    3.333    0.000    9.333    0.000    0.000 
#    0.000    0.000    0.000    0.000    0.000    0.000 
#
# Total GULP energy -446211.485479 kJ/mol
# GULP energy per Si atom -12394.763486 kJ/mol
# Density = 1.283593 g / cm^3
# Si number density = 12.865210 Si / 1000 Ang^3
#
#
#
# Elastic Constant Matrix: (Units=GPa)
#
#
# Indices 1 2 3 4 5 6 
#
# 1 53.0473 1.9040 19.6287 0.0000 0.0000 0.0000
# 2 1.9040 53.0504 19.6297 0.0000 0.0000 0.0000
# 3 19.6287 19.6297 101.7386 0.0000 0.0000 0.0000
# 4 0.0000 0.0000 0.0000 10.1265 0.0000 0.0000
# 5 0.0000 0.0000 0.0000 0.0000 10.1273 0.0000
# 6 0.0000 0.0000 0.0000 0.0000 0.0000 0.7463
#
#
#
# Elastic Compliance Matrix: (Units=1/GPa)
#
#
# Indices 1 2 3 4 5 6 
#
# 1 0.020330 0.000777 -0.004072 0.000000 0.000000 0.000000
# 2 0.000777 0.020329 -0.004072 0.000000 0.000000 0.000000
# 3 -0.004072 -0.004072 0.011400 0.000000 0.000000 0.000000
# 4 0.000000 0.000000 0.000000 0.098751 0.000000 0.000000
# 5 0.000000 0.000000 0.000000 0.000000 0.098743 0.000000
# 6 0.000000 0.000000 0.000000 0.000000 0.000000 1.339990
#
#
# Mechanical properties :
#
#
# Convention : Reuss Voigt Hill
#
# Bulk Modulus (GPa) = 26.79187 32.24012 29.51599
# Shear Modulus (GPa) = 3.09268 15.31162 9.20215
#
# Velocity S-wave (km/s) = 1.55214 3.45361 2.67736
# Velocity P-wave (km/s) = 4.90739 6.40449 5.70526
#
# Compressibility (1/GPa) = 0.03732475
#
# Stress axis : x y z
#
# Youngs Moduli (GPa) = 49.18831 49.19100 87.71549
#
# Poissons Ratio (x) = -0.03823 0.35720
# Poissons Ratio (y) = -0.03823 0.35720
# Poissons Ratio (z) = 0.20031 0.20032
#
# Static dielectric constant tensor:
#      x y z
#    x 2.345840 0.000000 0.000000 
#    y 0.000000 2.345820 0.000000 
#    z 0.000000 0.000000 2.880680 
# 
# 
# High freq. dielectric constant tensor:
#      x y z
#    x 1.437160 0.000000 0.000000 
#    y 0.000000 1.437160 0.000000 
#    z 0.000000 0.000000 1.513030 
# 
# From -- ./inp_files/584.got.cif
#   From: 2010.03.12/outbox.cif.g09.slc.cpg/sg115_1_cif.got.tgz:584.got - 2010.04.14 02:11:21.
