data_PCOD8310499
_publ_section_title
;
Structure prediction by ZEFSAII (Michael W. Deem and Ramdas Pophale) SiO2 
 PCOD8310499
Probable space group: P -4 N 2
;
_chemical_formula_sum "Si O2"
_cell_formula_units_Z 58
_cell_length_a 18.391296
_cell_length_b 18.391296
_cell_length_c 9.064817
_cell_angle_alpha 90.000000
_cell_angle_beta 90.000000
_cell_angle_gamma 90.000000
_cell_volume 3066.081604
_symmetry_space_group_name_H-M "P -4 N 2"
_symmetry_group_IT_number 118
_symmetry_cell_setting 'tetragonal'
loop_
_space_group_symop_operation_xyz
x,y,z
y,-x,-z
-x,-y,z
-y,x,-z
1/2+y,1/2+x,1/2-z
1/2-y,1/2-x,1/2-z
1/2-x,1/2+y,1/2+z
1/2+x,1/2-y,1/2+z
loop_
_atom_site_type_symbol
_atom_site_label
_atom_site_fract_x
_atom_site_fract_y
_atom_site_fract_z
Si Si1 0.416520 0.252428 0.625088
Si Si2 0.286642 0.839892 0.569252
Si Si3 0.423117 0.300506 0.952707
Si Si4 0.817536 0.076452 0.393598
Si Si5 0.920783 0.736483 0.127211
Si Si6 0.500000 0.500000 0.500000
Si Si7 0.689957 0.796342 0.088000
Si Si8 0.412075 0.631055 0.422216
O O1 0.409426 0.256580 0.801247
O O2 0.495308 0.216163 0.599233
O O3 0.357277 0.203201 0.539027
O O4 0.410591 0.335389 0.571354
O O5 0.253271 0.873571 0.421959
O O6 0.265110 0.894334 0.702500
O O7 0.372985 0.826466 0.546876
O O8 0.258734 0.757511 0.593479
O O9 0.389941 0.381412 0.945403
O O10 0.504434 0.311000 0.009271
O O11 0.382319 0.250266 0.067447
O O12 0.817963 0.069266 0.217534
O O13 0.912407 0.818848 0.067227
O O14 0.474669 0.569971 0.407371
O O15 0.672438 0.827563 0.250000
#
# Coordination Sequence:
#
# PCOD8310499 Si02
#       8
#     8   8   8   8   8   2   8   8
#     4  11  21  38  58  87 121 160 202 255 316 372
#     4  10  20  39  62  88 118 158 210 261 306 373
#     4  10  23  38  57  85 126 160 205 248 312 377
#     4  10  23  38  58  88 120 163 202 255 306 375
#     4  11  20  36  64  88 119 157 208 259 313 366
#     4  12  24  36  52  94 132 172 200 242 316 404
#     4  11  21  36  61  86 118 160 207 252 306 371
#     4  11  23  35  57  85 126 168 199 250 304 380
#
# _framework density 18.916651000000002
#
# number of rings (size 3 to 8) (size 9 to 14) (size 15 to 20)
#    0.000    1.379    5.517    0.414    1.931    5.241 
#    0.000    0.000    0.000    0.828    0.000    0.966 
#    0.000    0.000    0.000    0.000    0.000    0.000 
#
# Total GULP energy -718519.393889 kJ/mol
# GULP energy per Si atom -12388.265412 kJ/mol
# Density = 1.887360 g / cm^3
# Si number density = 18.916651 Si / 1000 Ang^3
#
#
#
# Elastic Constant Matrix: (Units=GPa)
#
#
# Indices 1 2 3 4 5 6 
#
# 1 84.6335 28.6331 35.4625 0.0000 0.0000 0.0000
# 2 28.6331 84.6334 35.4625 0.0000 0.0000 0.0000
# 3 35.4625 35.4625 81.5267 0.0000 0.0000 0.0000
# 4 0.0000 0.0000 0.0000 28.6791 0.0000 0.0000
# 5 0.0000 0.0000 0.0000 0.0000 28.6792 0.0000
# 6 0.0000 0.0000 0.0000 0.0000 0.0000 31.9390
#
#
#
# Elastic Compliance Matrix: (Units=1/GPa)
#
#
# Indices 1 2 3 4 5 6 
#
# 1 0.014995 -0.002862 -0.005278 0.000000 0.000000 0.000000
# 2 -0.002862 0.014995 -0.005278 0.000000 0.000000 0.000000
# 3 -0.005278 -0.005278 0.016857 0.000000 0.000000 0.000000
# 4 0.000000 0.000000 0.000000 0.034869 0.000000 0.000000
# 5 0.000000 0.000000 0.000000 0.000000 0.034868 0.000000
# 6 0.000000 0.000000 0.000000 0.000000 0.000000 0.031310
#
#
# Mechanical properties :
#
#
# Convention : Reuss Voigt Hill
#
# Bulk Modulus (GPa) = 49.96709 49.98999 49.97854
# Shear Modulus (GPa) = 27.56325 27.94183 27.75254
#
# Velocity S-wave (km/s) = 3.82133 3.84748 3.83442
# Velocity P-wave (km/s) = 6.77803 6.79862 6.78834
#
# Compressibility (1/GPa) = 0.02001317
#
# Stress axis : x y z
#
# Youngs Moduli (GPa) = 66.68743 66.68732 59.32079
#
# Poissons Ratio (x) = 0.19084 0.31309
# Poissons Ratio (y) = 0.19084 0.31309
# Poissons Ratio (z) = 0.35197 0.35197
#
# Static dielectric constant tensor:
#      x y z
#    x 3.421170 0.000000 0.000000 
#    y 0.000000 3.421170 0.000000 
#    z 0.000000 0.000000 3.492020 
# 
# 
# High freq. dielectric constant tensor:
#      x y z
#    x 1.723950 0.000000 0.000000 
#    y 0.000000 1.723950 0.000000 
#    z 0.000000 0.000000 1.737670 
# 
# From -- ./inp_files/2238.got.cif
#   From: 2010.03.12/outbox.cif.g09.slc.cpg/sg118_2_cif.got.tgz:2238.got - 2010.04.14 02:21:17.
