data_PCOD8310888
_publ_section_title
;
Structure prediction by ZEFSAII (Michael W. Deem and Ramdas Pophale) SiO2 
 PCOD8310888
Probable space group: I -4 M 2
;
_chemical_formula_sum "Si O2"
_cell_formula_units_Z 96
_cell_length_a 13.958724
_cell_length_b 13.958724
_cell_length_c 25.849436
_cell_angle_alpha 90.000000
_cell_angle_beta 90.000000
_cell_angle_gamma 90.000000
_cell_volume 5036.658579
_symmetry_space_group_name_H-M "I -4 M 2"
_symmetry_group_IT_number 119
_symmetry_cell_setting 'tetragonal'
loop_
_space_group_symop_operation_xyz
x,y,z
y,-x,-z
-x,-y,z
-y,x,-z
y,x,-z
-y,-x,-z
-x,y,z
x,-y,z
1/2+x,1/2+y,1/2+z
1/2+y,1/2-x,1/2-z
1/2-x,1/2-y,1/2+z
1/2-y,1/2+x,1/2-z
1/2+y,1/2+x,1/2-z
1/2-y,1/2-x,1/2-z
1/2-x,1/2+y,1/2+z
1/2+x,1/2-y,1/2+z
loop_
_atom_site_type_symbol
_atom_site_label
_atom_site_fract_x
_atom_site_fract_y
_atom_site_fract_z
Si Si1 0.386797 0.723978 0.650627
Si Si2 0.106679 0.113330 0.749732
Si Si3 0.691847 0.611376 0.553310
Si Si4 0.113093 0.758284 0.342535
Si Si5 0.788185 0.894677 0.544258
Si Si6 0.894638 0.393134 0.513621
O O1 0.500000 0.739209 0.649624
O O2 0.353910 0.653888 0.696695
O O3 0.352023 0.676705 0.597690
O O4 0.339789 0.827472 0.660880
O O5 0.169966 0.149774 0.701664
O O6 0.000000 0.158050 0.745997
O O7 0.100078 0.000000 0.747131
O O8 0.643564 0.643564 0.500000
O O9 0.667914 0.500000 0.563604
O O10 0.807079 0.629607 0.552704
O O11 0.136424 0.811064 0.397236
O O12 0.000000 0.733744 0.338144
O O13 0.827284 0.827284 0.500000
O O14 0.673275 0.891249 0.537215
O O15 0.830433 0.000000 0.534088
O O16 0.881708 0.500000 0.491862
O O17 0.000000 0.380754 0.541185
#
# Coordination Sequence:
#
# PCOD8310888 Si02
#       6
#    16  16  16  16  16  16
#     4  11  22  36  56  81 111 146 184 227 273 325
#     4   9  19  37  58  78 103 137 178 224 273 324
#     4  11  22  35  54  81 112 145 183 228 276 327
#     4  10  21  36  55  80 109 143 182 224 273 329
#     4  10  20  33  50  74 105 138 175 219 266 320
#     4   9  18  33  52  74 105 145 182 218 267 327
#
# _framework density 19.060255000000002
#
# number of rings (size 3 to 8) (size 9 to 14) (size 15 to 20)
#    0.000    2.000    0.000    4.000    0.000    5.000 
#    0.000    4.167    0.000    3.000    0.000    0.000 
#    0.000    1.333    0.000    0.667    0.000    0.167 
#
# Total GULP energy -594947.441972 kJ/mol
# GULP energy per Si atom -12394.738374 kJ/mol
# Density = 1.901687 g / cm^3
# Si number density = 19.060255 Si / 1000 Ang^3
#
#
#
# Elastic Constant Matrix: (Units=GPa)
#
#
# Indices 1 2 3 4 5 6 
#
# 1 98.0164 44.8294 52.4729 0.0000 0.0000 0.0000
# 2 44.8294 98.0164 52.4729 0.0000 0.0000 0.0000
# 3 52.4729 52.4729 142.0449 0.0000 0.0000 0.0000
# 4 0.0000 0.0000 0.0000 24.3951 0.0000 0.0000
# 5 0.0000 0.0000 0.0000 0.0000 24.3951 0.0000
# 6 0.0000 0.0000 0.0000 0.0000 0.0000 20.3006
#
#
#
# Elastic Compliance Matrix: (Units=1/GPa)
#
#
# Indices 1 2 3 4 5 6 
#
# 1 0.014205 -0.004597 -0.003549 0.000000 0.000000 0.000000
# 2 -0.004597 0.014205 -0.003549 0.000000 0.000000 0.000000
# 3 -0.003549 -0.003549 0.009662 0.000000 0.000000 0.000000
# 4 0.000000 0.000000 0.000000 0.040992 0.000000 0.000000
# 5 0.000000 0.000000 0.000000 0.000000 0.040992 0.000000
# 6 0.000000 0.000000 0.000000 0.000000 0.000000 0.049260
#
#
# Mechanical properties :
#
#
# Convention : Reuss Voigt Hill
#
# Bulk Modulus (GPa) = 68.11390 70.84759 69.48074
# Shear Modulus (GPa) = 25.30365 26.37168 25.83766
#
# Velocity S-wave (km/s) = 3.64752 3.72371 3.68581
# Velocity P-wave (km/s) = 7.31799 7.46586 7.39229
#
# Compressibility (1/GPa) = 0.01468129
#
# Stress axis : x y z
#
# Youngs Moduli (GPa) = 70.39827 70.39827 103.49416
#
# Poissons Ratio (x) = 0.32360 0.36734
# Poissons Ratio (y) = 0.32360 0.36734
# Poissons Ratio (z) = 0.24987 0.24987
#
# Static dielectric constant tensor:
#      x y z
#    x 3.685470 0.000000 0.000000 
#    y 0.000000 3.685470 0.000000 
#    z 0.000000 0.000000 3.478930 
# 
# 
# High freq. dielectric constant tensor:
#      x y z
#    x 1.741010 0.000000 0.000000 
#    y 0.000000 1.741010 0.000000 
#    z 0.000000 0.000000 1.731710 
# 
# From -- ./inp_files/7779.got.cif
#   From: 2010.03.12/outbox.cif.g09.slc.cpg/sg119_4_cif.got.tgz:7779.got - 2010.04.14 02:25:26.
