data_PCOD8310294
_publ_section_title
;
Structure prediction by ZEFSAII (Michael W. Deem and Ramdas Pophale) SiO2 
 PCOD8310294
Probable space group: P -4 B 2
;
_chemical_formula_sum "Si O2"
_cell_formula_units_Z 64
_cell_length_a 17.432184
_cell_length_b 17.432184
_cell_length_c 11.304611
_cell_angle_alpha 90.000000
_cell_angle_beta 90.000000
_cell_angle_gamma 90.000000
_cell_volume 3435.256936
_symmetry_space_group_name_H-M "P -4 B 2"
_symmetry_group_IT_number 117
_symmetry_cell_setting 'tetragonal'
loop_
_space_group_symop_operation_xyz
x,y,z
y,-x,-z
-x,-y,z
-y,x,-z
1/2+y,1/2+x,-z
1/2-y,1/2-x,-z
1/2-x,1/2+y,z
1/2+x,1/2-y,z
loop_
_atom_site_type_symbol
_atom_site_label
_atom_site_fract_x
_atom_site_fract_y
_atom_site_fract_z
Si Si1 0.821077 0.550730 0.879778
Si Si2 0.735767 0.611667 0.680523
Si Si3 0.623146 0.909767 0.759261
Si Si4 0.466037 0.847499 0.850925
Si Si5 0.382328 0.458525 0.512633
Si Si6 0.251826 0.506033 0.358923
Si Si7 0.675327 0.768625 0.627953
Si Si8 0.519421 0.133162 0.448394
O O1 0.746953 0.592257 0.820369
O O2 0.823003 0.462262 0.840035
O O3 0.898353 0.591499 0.829067
O O4 0.812550 0.549722 0.019969
O O5 0.657749 0.571444 0.632554
O O6 0.737229 0.703289 0.660560
O O7 0.810962 0.578854 0.616970
O O8 0.547008 0.890608 0.834758
O O9 0.673709 0.835153 0.726779
O O10 0.602471 0.952491 0.636852
O O11 0.465973 0.774701 0.762779
O O12 0.407324 0.546665 0.530383
O O13 0.319583 0.452789 0.408233
O O14 0.277901 0.594796 0.356652
O O15 0.177707 0.516187 0.441398
O O16 0.696045 0.803956 0.500000
O O17 0.559255 0.059255 0.500000
#
# Coordination Sequence:
#
# PCOD8310294 Si02
#       8
#     8   8   8   8   8   8   8   8
#     4  10  21  39  55  80 107 155 201 232 267 336
#     4  10  21  35  57  78 112 151 186 235 287 336
#     4  10  20  33  56  83 113 150 188 235 275 333
#     4  10  21  36  58  75 116 152 194 232 275 322
#     4  10  20  37  62  85 108 142 186 234 288 347
#     4  10  19  34  54  85 114 148 178 234 279 338
#     4  11  20  34  51  84 120 147 172 227 291 350
#     4  10  19  33  50  86 121 149 188 218 283 351
#
# _framework density 18.630337999999998
#
# number of rings (size 3 to 8) (size 9 to 14) (size 15 to 20)
#    0.000    1.875    2.500    2.625    0.000    3.000 
#    0.000    1.250   16.500    0.000    0.000    1.750 
#    0.000    0.000    0.000    0.000    0.000    0.000 
#
# Total GULP energy -793215.534194 kJ/mol
# GULP energy per Si atom -12393.992722 kJ/mol
# Density = 1.858793 g / cm^3
# Si number density = 18.630338 Si / 1000 Ang^3
#
#
#
# Elastic Constant Matrix: (Units=GPa)
#
#
# Indices 1 2 3 4 5 6 
#
# 1 112.1844 13.5131 44.9432 0.0000 0.0000 0.0000
# 2 13.5131 112.1844 44.9434 0.0000 0.0000 0.0000
# 3 44.9432 44.9434 108.1941 0.0000 0.0000 0.0000
# 4 0.0000 0.0000 0.0000 23.5296 0.0000 0.0000
# 5 0.0000 0.0000 0.0000 0.0000 23.5296 0.0000
# 6 0.0000 0.0000 0.0000 0.0000 0.0000 25.1507
#
#
#
# Elastic Compliance Matrix: (Units=1/GPa)
#
#
# Indices 1 2 3 4 5 6 
#
# 1 0.010726 0.000591 -0.004701 0.000000 0.000000 0.000000
# 2 0.000591 0.010726 -0.004701 0.000000 0.000000 0.000000
# 3 -0.004701 -0.004701 0.013148 0.000000 0.000000 0.000000
# 4 0.000000 0.000000 0.000000 0.042500 0.000000 0.000000
# 5 0.000000 0.000000 0.000000 0.000000 0.042500 0.000000
# 6 0.000000 0.000000 0.000000 0.000000 0.000000 0.039760
#
#
# Mechanical properties :
#
#
# Convention : Reuss Voigt Hill
#
# Bulk Modulus (GPa) = 58.89830 59.92915 59.41373
# Shear Modulus (GPa) = 27.37600 29.71953 28.54776
#
# Velocity S-wave (km/s) = 3.83747 3.99836 3.91874
# Velocity P-wave (km/s) = 7.16364 7.31800 7.24123
#
# Compressibility (1/GPa) = 0.01697842
#
# Stress axis : x y z
#
# Youngs Moduli (GPa) = 93.23104 93.23085 76.05508
#
# Poissons Ratio (x) = -0.05514 0.35755
# Poissons Ratio (y) = -0.05514 0.35755
# Poissons Ratio (z) = 0.43830 0.43830
#
# Static dielectric constant tensor:
#      x y z
#    x 3.577950 0.000000 0.000000 
#    y 0.000000 3.577950 0.000000 
#    z 0.000000 0.000000 3.448540 
# 
# 
# High freq. dielectric constant tensor:
#      x y z
#    x 1.719990 0.000000 0.000000 
#    y 0.000000 1.719990 0.000000 
#    z 0.000000 0.000000 1.708080 
# 
# From -- ./inp_files/2949.got.cif
#   From: 2010.03.12/outbox.cif.g09.slc.cpg/sg117_2_cif.got.tgz:2949.got - 2010.04.14 02:19:01.
