data_PCOD8310123
_publ_section_title
;
Structure prediction by ZEFSAII (Michael W. Deem and Ramdas Pophale) SiO2 
 PCOD8310123
Probable space group: P -4 C 2
;
_chemical_formula_sum "Si O2"
_cell_formula_units_Z 58
_cell_length_a 18.440630
_cell_length_b 18.440630
_cell_length_c 9.014326
_cell_angle_alpha 90.000000
_cell_angle_beta 90.000000
_cell_angle_gamma 90.000000
_cell_volume 3065.383167
_symmetry_space_group_name_H-M "P -4 C 2"
_symmetry_group_IT_number 116
_symmetry_cell_setting 'tetragonal'
loop_
_space_group_symop_operation_xyz
x,y,z
y,-x,-z
-x,-y,z
-y,x,-z
y,x,1/2-z
-y,-x,1/2-z
-x,y,1/2+z
x,-y,1/2+z
loop_
_atom_site_type_symbol
_atom_site_label
_atom_site_fract_x
_atom_site_fract_y
_atom_site_fract_z
Si Si1 0.000000 0.000000 0.500000
Si Si2 0.051519 0.198725 0.122664
Si Si3 0.463715 0.615278 0.506599
Si Si4 0.860601 0.067011 0.565144
Si Si5 0.437316 0.944556 0.588255
Si Si6 0.459156 0.819276 0.008594
Si Si7 0.364044 0.941049 0.897891
Si Si8 0.506522 0.716080 0.757014
O O1 0.933330 0.021999 0.606669
O O2 0.059848 0.194297 0.298908
O O3 0.113506 0.150171 0.040601
O O4 0.064480 0.279697 0.073397
O O5 0.969080 0.175793 0.079293
O O6 0.547460 0.589878 0.488449
O O7 0.455496 0.663851 0.655187
O O8 0.444493 0.664655 0.363111
O O9 0.467449 0.867123 0.530154
O O10 0.385181 0.930235 0.727045
O O11 0.500000 0.000000 0.640636
O O12 0.393165 0.981171 0.453779
O O13 0.393825 0.875469 0.997623
O O14 0.460608 0.770286 0.860577
O O15 0.445117 0.766070 0.148192
#
# Coordination Sequence:
#
# PCOD8310123 Si02
#       8
#     2   8   8   8   8   8   8   8
#     4   8  16  30  56  82  96 134 176 238 260 318
#     4  10  20  34  54  79 109 141 177 229 275 337
#     4  10  20  36  62  90 116 144 192 249 283 322
#     4   9  19  34  54  80 106 134 183 222 278 319
#     4  10  20  34  56  84 107 137 194 247 284 323
#     4  10  20  36  55  84 115 152 189 238 277 336
#     4  11  21  34  57  83 111 145 189 237 295 331
#     4  10  20  34  58  86 116 149 182 229 292 341
#
# _framework density 18.920960999999998
#
# number of rings (size 3 to 8) (size 9 to 14) (size 15 to 20)
#    0.000    2.069    1.379    2.897    1.931    9.379 
#    0.000    0.000   12.138    1.655    0.000    0.000 
#    0.000    0.000    0.000    0.000    0.000    0.000 
#
# Total GULP energy -718799.576217 kJ/mol
# GULP energy per Si atom -12393.096142 kJ/mol
# Density = 1.887790 g / cm^3
# Si number density = 18.920961 Si / 1000 Ang^3
#
#
#
# Elastic Constant Matrix: (Units=GPa)
#
#
# Indices 1 2 3 4 5 6 
#
# 1 112.2277 38.5590 39.0561 0.0000 0.0000 0.0000
# 2 38.5590 112.2277 39.0561 0.0000 0.0000 0.0000
# 3 39.0561 39.0561 95.8256 0.0000 0.0000 0.0000
# 4 0.0000 0.0000 0.0000 28.7355 0.0000 0.0000
# 5 0.0000 0.0000 0.0000 0.0000 28.7355 0.0000
# 6 0.0000 0.0000 0.0000 0.0000 0.0000 12.1849
#
#
#
# Elastic Compliance Matrix: (Units=1/GPa)
#
#
# Indices 1 2 3 4 5 6 
#
# 1 0.010991 -0.002584 -0.003426 0.000000 0.000000 0.000000
# 2 -0.002584 0.010991 -0.003426 0.000000 0.000000 0.000000
# 3 -0.003426 -0.003426 0.013229 0.000000 0.000000 0.000000
# 4 0.000000 0.000000 0.000000 0.034800 0.000000 0.000000
# 5 0.000000 0.000000 0.000000 0.000000 0.034800 0.000000
# 6 0.000000 0.000000 0.000000 0.000000 0.000000 0.082069
#
#
# Mechanical properties :
#
#
# Convention : Reuss Voigt Hill
#
# Bulk Modulus (GPa) = 61.21184 61.51372 61.36278
# Shear Modulus (GPa) = 23.67448 27.50516 25.58982
#
# Velocity S-wave (km/s) = 3.54111 3.81686 3.68157
# Velocity P-wave (km/s) = 7.01005 7.21152 7.11150
#
# Compressibility (1/GPa) = 0.01633671
#
# Stress axis : x y z
#
# Youngs Moduli (GPa) = 90.98696 90.98696 75.59329
#
# Poissons Ratio (x) = 0.23508 0.25902
# Poissons Ratio (y) = 0.23508 0.25902
# Poissons Ratio (z) = 0.31176 0.31176
#
# Static dielectric constant tensor:
#      x y z
#    x 3.407460 0.000000 0.000000 
#    y 0.000000 3.407460 0.000000 
#    z 0.000000 0.000000 3.507570 
# 
# 
# High freq. dielectric constant tensor:
#      x y z
#    x 1.718570 0.000000 0.000000 
#    y 0.000000 1.718570 0.000000 
#    z 0.000000 0.000000 1.742550 
# 
# From -- ./inp_files/1055.got.cif
#   From: 2010.03.12/outbox.cif.g09.slc.cpg/sg116_1_cif.got.tgz:1055.got - 2010.04.14 02:15:44.
