data_PCOD8310376
_publ_section_title
;
Structure prediction by ZEFSAII (Michael W. Deem and Ramdas Pophale) SiO2 
 PCOD8310376
Probable space group: P -4 B 2
;
_chemical_formula_sum "Si O2"
_cell_formula_units_Z 56
_cell_length_a 13.824484
_cell_length_b 13.824484
_cell_length_c 16.638051
_cell_angle_alpha 90.000000
_cell_angle_beta 90.000000
_cell_angle_gamma 90.000000
_cell_volume 3179.803709
_symmetry_space_group_name_H-M "P -4 B 2"
_symmetry_group_IT_number 117
_symmetry_cell_setting 'tetragonal'
loop_
_space_group_symop_operation_xyz
x,y,z
y,-x,-z
-x,-y,z
-y,x,-z
1/2+y,1/2+x,-z
1/2-y,1/2-x,-z
1/2-x,1/2+y,z
1/2+x,1/2-y,z
loop_
_atom_site_type_symbol
_atom_site_label
_atom_site_fract_x
_atom_site_fract_y
_atom_site_fract_z
Si Si1 0.102679 0.235866 0.168347
Si Si2 0.938375 0.146775 0.589958
Si Si3 0.561253 0.647016 0.410137
Si Si4 0.103058 0.235999 0.831982
Si Si5 0.402647 0.255385 0.749448
Si Si6 0.650892 0.554176 0.999889
Si Si7 0.255329 0.597677 0.749247
O O1 0.174778 0.324997 0.174485
O O2 0.149996 0.139802 0.206336
O O3 0.008543 0.265333 0.218101
O O4 0.075481 0.216625 0.076645
O O5 0.921335 0.187672 0.500058
O O6 0.905606 0.226990 0.653736
O O7 0.050495 0.123042 0.603095
O O8 0.874985 0.051241 0.603275
O O9 0.595405 0.726773 0.346452
O O10 0.076800 0.216657 0.923854
O O11 0.150176 0.139974 0.793755
O O12 0.008556 0.265405 0.782699
O O13 0.338117 0.162011 0.767657
O O14 0.622376 0.442309 0.000597
#
# Coordination Sequence:
#
# PCOD8310376 Si02
#       7
#     8   8   8   8   8   8   8
#     4  11  23  39  58  84 117 149 187 238 284 335
#     4   9  17  31  55  85 114 145 185 238 292 335
#     4   9  17  31  55  85 114 145 185 238 292 335
#     4  11  23  39  58  84 117 149 187 238 284 335
#     4  11  22  36  59  84 111 154 196 230 282 342
#     4  11  21  36  62  89 112 146 188 237 288 332
#     4  11  22  36  59  84 111 154 196 230 282 342
#
# _framework density 17.611149000000001
#
# number of rings (size 3 to 8) (size 9 to 14) (size 15 to 20)
#    0.000    1.571    5.714    1.286    0.000    1.714 
#    0.000    0.714    0.000    2.571    0.000    2.000 
#    0.000    0.000    0.000    0.000    0.000    0.000 
#
# Total GULP energy -694597.255867 kJ/mol
# GULP energy per Si atom -12403.522426 kJ/mol
# Density = 1.757107 g / cm^3
# Si number density = 17.611149 Si / 1000 Ang^3
#
#
#
# Elastic Constant Matrix: (Units=GPa)
#
#
# Indices 1 2 3 4 5 6 
#
# 1 74.7309 26.6346 25.3457 0.0000 0.0000 0.0000
# 2 26.6346 74.7309 25.3457 0.0000 0.0000 0.0000
# 3 25.3457 25.3457 116.1374 0.0000 0.0000 0.0000
# 4 0.0000 0.0000 0.0000 19.8036 0.0000 0.0000
# 5 0.0000 0.0000 0.0000 0.0000 19.8036 0.0000
# 6 0.0000 0.0000 0.0000 0.0000 0.0000 13.5475
#
#
#
# Elastic Compliance Matrix: (Units=1/GPa)
#
#
# Indices 1 2 3 4 5 6 
#
# 1 0.015933 -0.004859 -0.002417 0.000000 0.000000 0.000000
# 2 -0.004859 0.015933 -0.002417 0.000000 0.000000 0.000000
# 3 -0.002417 -0.002417 0.009665 0.000000 0.000000 0.000000
# 4 0.000000 0.000000 0.000000 0.050496 0.000000 0.000000
# 5 0.000000 0.000000 0.000000 0.000000 0.050496 0.000000
# 6 0.000000 0.000000 0.000000 0.000000 0.000000 0.073815
#
#
# Mechanical properties :
#
#
# Convention : Reuss Voigt Hill
#
# Bulk Modulus (GPa) = 45.15468 46.69456 45.92462
# Shear Modulus (GPa) = 20.56732 23.18247 21.87489
#
# Velocity S-wave (km/s) = 3.42110 3.63209 3.52817
# Velocity P-wave (km/s) = 6.42656 6.64539 6.53689
#
# Compressibility (1/GPa) = 0.02214610
#
# Stress axis : x y z
#
# Youngs Moduli (GPa) = 62.76386 62.76386 103.46245
#
# Poissons Ratio (x) = 0.30496 0.25004
# Poissons Ratio (y) = 0.30496 0.25004
# Poissons Ratio (z) = 0.15168 0.15168
#
# Static dielectric constant tensor:
#      x y z
#    x 3.075370 0.000000 0.000000 
#    y 0.000000 3.075370 0.000000 
#    z 0.000000 0.000000 3.433080 
# 
# 
# High freq. dielectric constant tensor:
#      x y z
#    x 1.667270 0.000000 0.000000 
#    y 0.000000 1.667270 0.000000 
#    z 0.000000 0.000000 1.700510 
# 
# From -- ./inp_files/3213.got.cif
#   From: 2010.03.12/outbox.cif.g09.slc.cpg/sg117_2_cif.got.tgz:3213.got - 2010.04.14 02:19:01.
