data_PCOD8310947
_publ_section_title
;
Structure prediction by ZEFSAII (Michael W. Deem and Ramdas Pophale) SiO2 
 PCOD8310947
Probable space group: I -4 M 2
;
_chemical_formula_sum "Si O2"
_cell_formula_units_Z 128
_cell_length_a 22.644324
_cell_length_b 22.644324
_cell_length_c 13.305982
_cell_angle_alpha 90.000000
_cell_angle_beta 90.000000
_cell_angle_gamma 90.000000
_cell_volume 6822.847308
_symmetry_space_group_name_H-M "I -4 M 2"
_symmetry_group_IT_number 119
_symmetry_cell_setting 'tetragonal'
loop_
_space_group_symop_operation_xyz
x,y,z
y,-x,-z
-x,-y,z
-y,x,-z
y,x,-z
-y,-x,-z
-x,y,z
x,-y,z
1/2+x,1/2+y,1/2+z
1/2+y,1/2-x,1/2-z
1/2-x,1/2-y,1/2+z
1/2-y,1/2+x,1/2-z
1/2+y,1/2+x,1/2-z
1/2-y,1/2-x,1/2-z
1/2-x,1/2+y,1/2+z
1/2+x,1/2-y,1/2+z
loop_
_atom_site_type_symbol
_atom_site_label
_atom_site_fract_x
_atom_site_fract_y
_atom_site_fract_z
Si Si1 0.274413 0.431110 0.762497
Si Si2 0.155397 0.803709 0.900270
Si Si3 0.432081 0.689223 0.829695
Si Si4 0.430734 0.435071 0.885073
Si Si5 0.067669 0.355623 0.818039
Si Si6 0.352228 0.822060 0.488352
Si Si7 0.724133 0.627620 0.976768
Si Si8 0.646278 0.231818 0.692170
O O1 0.291040 0.500000 0.768875
O O2 0.312093 0.402214 0.670361
O O3 0.205388 0.421926 0.741044
O O4 0.290335 0.397817 0.866234
O O5 0.163390 0.736676 0.929873
O O6 0.214623 0.812281 0.838257
O O7 0.153610 0.846391 0.000000
O O8 0.500000 0.688829 0.802234
O O9 0.407650 0.620606 0.817276
O O10 0.404773 0.738368 0.757388
O O11 0.423348 0.707776 0.944797
O O12 0.500000 0.441412 0.871778
O O13 0.402450 0.500000 0.856885
O O14 0.417046 0.417046 0.000000
O O15 0.092068 0.407933 0.750000
O O16 0.098619 0.357740 0.926876
O O17 0.000000 0.367936 0.839566
O O18 0.292908 0.860051 0.494880
O O19 0.379532 0.803903 0.596590
O O20 0.686952 0.686952 0.000000
O O21 0.684793 0.184793 0.750000
#
# Coordination Sequence:
#
# PCOD8310947 Si02
#       8
#    16  16  16  16  16  16  16  16
#     4  10  21  35  56  85 124 158 189 241 307 363
#     4   9  20  35  55  81 112 144 193 236 284 353
#     4  11  23  35  51  82 117 154 200 250 296 352
#     4   8  15  31  52  73 107 154 196 236 290 356
#     4  10  20  37  60  87 116 150 190 240 297 358
#     4  10  21  36  56  84 112 150 194 236 295 358
#     4  12  21  33  56  85 118 158 196 244 302 360
#     4  11  21  36  55  79 110 152 199 243 290 351
#
# _framework density 18.760497000000001
#
# number of rings (size 3 to 8) (size 9 to 14) (size 15 to 20)
#    0.000    1.875    2.500    3.000    1.750    0.625 
#    0.000    5.625    0.000    0.000    0.000    0.000 
#    0.000    6.500    0.000    0.000    0.000    1.000 
#
# Total GULP energy -793037.350974 kJ/mol
# GULP energy per Si atom -12391.208609 kJ/mol
# Density = 1.871780 g / cm^3
# Si number density = 18.760497 Si / 1000 Ang^3
#
#
#
# Elastic Constant Matrix: (Units=GPa)
#
#
# Indices 1 2 3 4 5 6 
#
# 1 93.4682 53.6697 56.1225 0.0000 0.0000 0.0000
# 2 53.6697 93.4669 56.1218 0.0000 0.0000 0.0000
# 3 56.1225 56.1218 95.4106 0.0000 0.0000 0.0000
# 4 0.0000 0.0000 0.0000 26.1382 0.0000 0.0000
# 5 0.0000 0.0000 0.0000 0.0000 26.1387 0.0000
# 6 0.0000 0.0000 0.0000 0.0000 0.000012224.1673
#
#
#
# Elastic Compliance Matrix: (Units=1/GPa)
#
#
# Indices 1 2 3 4 5 6 
#
# 1 0.018728 -0.006399 -0.007252 0.000000 0.000000 0.000000
# 2 -0.006399 0.018728 -0.007252 0.000000 0.000000 0.000000
# 3 -0.007252 -0.007252 0.019012 0.000000 0.000000 0.000000
# 4 0.000000 0.000000 0.000000 0.038258 0.000000 0.000000
# 5 0.000000 0.000000 0.000000 0.000000 0.038257 0.000000
# 6 0.000000 0.000000 0.000000 0.000000 0.000000 0.000082
#
#
# Mechanical properties :
#
#
# Convention : Reuss Voigt Hill
#
# Bulk Modulus (GPa) = 68.20368 68.24152 68.22260
# Shear Modulus (GPa) = 27.81515 2463.05096 1245.43305
#
# Velocity S-wave (km/s) = 3.85469 36.27316 25.79342
# Velocity P-wave (km/s) = 7.49969 42.31758 30.38933
#
# Compressibility (1/GPa) = 0.01466196
#
# Stress axis : x y z
#
# Youngs Moduli (GPa) = 53.39707 53.39667 52.59761
#
# Poissons Ratio (x) = 0.34170 0.38143
# Poissons Ratio (y) = 0.34170 0.38142
# Poissons Ratio (z) = 0.38723 0.38722
#
# Static dielectric constant tensor:
#      x y z
#    x 3.507330 0.000000 0.000000 
#    y 0.000000 3.507330 0.000000 
#    z 0.000000 0.000000 3.746960 
# 
# 
# High freq. dielectric constant tensor:
#      x y z
#    x 1.720600 0.000000 0.000000 
#    y 0.000000 1.720600 0.000000 
#    z 0.000000 0.000000 1.725360 
# 
# From -- ./inp_files/4465.got.cif
#   From: 2010.03.12/outbox.cif.g09.slc.cpg/sg119_3_cif.got.tgz:4465.got - 2010.04.14 02:25:26.
