data_PCOD8310340
_publ_section_title
;
Structure prediction by ZEFSAII (Michael W. Deem and Ramdas Pophale) SiO2 
 PCOD8310340
Probable space group: P -4 B 2
;
_chemical_formula_sum "Si O2"
_cell_formula_units_Z 58
_cell_length_a 17.302797
_cell_length_b 17.302797
_cell_length_c 9.208925
_cell_angle_alpha 90.000000
_cell_angle_beta 90.000000
_cell_angle_gamma 90.000000
_cell_volume 2757.030440
_symmetry_space_group_name_H-M "P -4 B 2"
_symmetry_group_IT_number 117
_symmetry_cell_setting 'tetragonal'
loop_
_space_group_symop_operation_xyz
x,y,z
y,-x,-z
-x,-y,z
-y,x,-z
1/2+y,1/2+x,-z
1/2-y,1/2-x,-z
1/2-x,1/2+y,z
1/2+x,1/2-y,z
loop_
_atom_site_type_symbol
_atom_site_label
_atom_site_fract_x
_atom_site_fract_y
_atom_site_fract_z
Si Si1 0.672754 0.591439 0.043670
Si Si2 0.480701 0.753358 0.713260
Si Si3 0.076975 0.541557 0.335673
Si Si4 0.939801 0.840753 0.427975
Si Si5 0.364638 0.176952 0.156190
Si Si6 0.000000 0.000000 0.500000
Si Si7 0.455342 0.328588 0.173752
Si Si8 0.848734 0.198023 0.779767
O O1 0.747770 0.576659 0.146073
O O2 0.602782 0.598857 0.161076
O O3 0.653493 0.521680 0.939121
O O4 0.676781 0.665996 0.938356
O O5 0.490518 0.844367 0.678267
O O6 0.443591 0.705749 0.578626
O O7 0.559645 0.712368 0.764445
O O8 0.062816 0.562816 0.500000
O O9 0.083483 0.621890 0.253759
O O10 0.000000 0.500000 0.273139
O O11 0.858676 0.819955 0.349000
O O12 0.013486 0.813417 0.334757
O O13 0.946473 0.934893 0.423341
O O14 0.407423 0.255301 0.127646
O O15 0.281375 0.192641 0.232349
O O16 0.361484 0.138517 0.000000
#
# Coordination Sequence:
#
# PCOD8310340 Si02
#       8
#     8   8   8   8   8   2   8   8
#     4  11  21  39  59  96 131 175 214 271 323 399
#     4  11  21  41  64  96 137 168 225 280 321 414
#     4  10  23  45  72  96 126 171 227 289 353 395
#     4  11  23  36  61  99 133 176 220 270 323 406
#     4  11  21  44  67  90 130 176 225 280 336 415
#     4  12  20  36  60  94 140 176 212 266 320 404
#     4  11  23  37  61  91 131 176 222 264 334 393
#     4  10  22  40  61  94 135 177 221 268 338 400
#
# _framework density 21.037127000000002
#
# number of rings (size 3 to 8) (size 9 to 14) (size 15 to 20)
#    0.000    1.241    4.138    2.483    0.000    0.552 
#    0.000    6.897    0.000    0.000    0.000    0.000 
#    0.000    0.000    0.000    0.000    0.000    0.000 
#
# Total GULP energy -718641.561076 kJ/mol
# GULP energy per Si atom -12390.371743 kJ/mol
# Density = 2.098925 g / cm^3
# Si number density = 21.037127 Si / 1000 Ang^3
#
#
#
# Elastic Constant Matrix: (Units=GPa)
#
#
# Indices 1 2 3 4 5 6 
#
# 1 81.1452 36.5437 21.2793 0.0000 0.0000 0.0000
# 2 36.5437 81.1444 21.2785 0.0000 0.0000 0.0000
# 3 21.2793 21.2785 76.8921 0.0000 0.0000 0.0000
# 4 0.0000 0.0000 0.0000 35.2103 0.0000 0.0000
# 5 0.0000 0.0000 0.0000 0.0000 35.2101 0.0000
# 6 0.0000 0.0000 0.0000 0.0000 0.0000 -9.5945
#
#
#
# Elastic Compliance Matrix: (Units=1/GPa)
#
#
# Indices 1 2 3 4 5 6 
#
# 1 0.015931 -0.006490 -0.002613 0.000000 0.000000 0.000000
# 2 -0.006490 0.015931 -0.002613 0.000000 0.000000 0.000000
# 3 -0.002613 -0.002613 0.014451 0.000000 0.000000 0.000000
# 4 0.000000 0.000000 0.000000 0.028401 0.000000 0.000000
# 5 0.000000 0.000000 0.000000 0.000000 0.028401 0.000000
# 6 0.000000 0.000000 0.000000 0.000000 0.000000 -0.104226
#
#
# Mechanical properties :
#
#
# Convention : Reuss Voigt Hill
#
# Bulk Modulus (GPa) = 43.69960 44.15384 43.92672
# Shear Modulus (GPa) = 166.95406 22.83719 94.89563
#
# Velocity S-wave (km/s) = 8.91818 3.29837 6.72358
# Velocity P-wave (km/s) = 11.26334 5.96152 9.01118
#
# Compressibility (1/GPa) = 0.02288351
#
# Stress axis : x y z
#
# Youngs Moduli (GPa) = 62.76917 62.76890 69.19738
#
# Poissons Ratio (x) = 0.40734 0.18081
# Poissons Ratio (y) = 0.40734 0.18080
# Poissons Ratio (z) = 0.16402 0.16400
#
# Static dielectric constant tensor:
#      x y z
#    x 3.951800 0.000000 0.000000 
#    y 0.000000 3.951810 0.000000 
#    z 0.000000 0.000000 3.979770 
# 
# 
# High freq. dielectric constant tensor:
#      x y z
#    x 1.817730 0.000000 0.000000 
#    y 0.000000 1.817730 0.000000 
#    z 0.000000 0.000000 1.836240 
# 
# From -- ./inp_files/2072.got.cif
#   From: 2010.03.12/outbox.cif.g09.slc.cpg/sg117_2_cif.got.tgz:2072.got - 2010.04.14 02:19:01.
