data_PCOD8310154
_publ_section_title
;
Structure prediction by ZEFSAII (Michael W. Deem and Ramdas Pophale) SiO2 
 PCOD8310154
Probable space group: P -4 C 2
;
_chemical_formula_sum "Si O2"
_cell_formula_units_Z 48
_cell_length_a 8.724022
_cell_length_b 8.724022
_cell_length_c 28.789808
_cell_angle_alpha 90.000000
_cell_angle_beta 90.000000
_cell_angle_gamma 90.000000
_cell_volume 2191.150825
_symmetry_space_group_name_H-M "P -4 C 2"
_symmetry_group_IT_number 116
_symmetry_cell_setting 'tetragonal'
loop_
_space_group_symop_operation_xyz
x,y,z
y,-x,-z
-x,-y,z
-y,x,-z
y,x,1/2-z
-y,-x,1/2-z
-x,y,1/2+z
x,-y,1/2+z
loop_
_atom_site_type_symbol
_atom_site_label
_atom_site_fract_x
_atom_site_fract_y
_atom_site_fract_z
Si Si1 0.212690 0.366361 0.152648
Si Si2 0.136684 0.291178 0.657470
Si Si3 0.155385 0.241543 0.929446
Si Si4 0.694946 0.694946 0.750000
Si Si5 0.445864 0.672431 0.572264
Si Si6 0.346782 0.095751 0.005328
Si Si7 0.344842 0.344842 0.250000
O O1 0.226341 0.550126 0.146251
O O2 0.330396 0.298864 0.115084
O O3 0.252005 0.304438 0.203935
O O4 0.041169 0.310512 0.147133
O O5 0.183435 0.150322 0.623709
O O6 0.186726 0.253242 0.709862
O O7 0.214947 0.412592 0.922755
O O8 0.994130 0.243742 0.956490
O O9 0.265368 0.121762 0.956294
O O10 0.517311 0.703301 0.735227
O O11 0.500000 0.500000 0.566159
O O12 0.364953 0.731058 0.524985
O O13 0.500000 0.000000 0.994465
#
# Coordination Sequence:
#
# PCOD8310154 Si02
#       7
#     8   8   8   4   8   8   4
#     4  10  21  37  64 100 127 165 218 270 328 382
#     4  10  21  38  65  95 133 169 211 267 325 394
#     4  11  24  43  66  90 136 172 215 274 321 394
#     4   9  18  36  64  93 124 170 214 261 328 378
#     4  11  23  40  68  95 121 166 220 278 322 384
#     4  10  27  43  63 100 130 175 225 267 332 393
#     4   9  18  34  62  91 126 160 218 273 313 382
#
# _framework density 21.906295
#
# number of rings (size 3 to 8) (size 9 to 14) (size 15 to 20)
#    0.000    1.833    1.667    1.000   11.667    0.333 
#    3.000    0.000    0.000    0.000    0.000    0.000 
#    0.000    0.000    0.000    0.000    0.000    0.000 
#
# Total GULP energy -594722.898719 kJ/mol
# GULP energy per Si atom -12390.060390 kJ/mol
# Density = 2.185644 g / cm^3
# Si number density = 21.906295 Si / 1000 Ang^3
#
#
#
# Elastic Constant Matrix: (Units=GPa)
#
#
# Indices 1 2 3 4 5 6 
#
# 1 68.6750 23.5871 41.9834 0.0000 0.0000 0.0000
# 2 23.5871 68.6750 41.9834 0.0000 0.0000 0.0000
# 3 41.9834 41.9834 107.8563 0.0000 0.0000 0.0000
# 4 0.0000 0.0000 0.0000 31.6944 0.0000 0.0000
# 5 0.0000 0.0000 0.0000 0.0000 31.6944 0.0000
# 6 0.0000 0.0000 0.0000 0.0000 0.0000 17.8441
#
#
#
# Elastic Compliance Matrix: (Units=1/GPa)
#
#
# Indices 1 2 3 4 5 6 
#
# 1 0.019482 -0.002697 -0.006534 0.000000 0.000000 0.000000
# 2 -0.002697 0.019482 -0.006534 0.000000 0.000000 0.000000
# 3 -0.006534 -0.006534 0.014358 0.000000 0.000000 0.000000
# 4 0.000000 0.000000 0.000000 0.031551 0.000000 0.000000
# 5 0.000000 0.000000 0.000000 0.000000 0.031551 0.000000
# 6 0.000000 0.000000 0.000000 0.000000 0.000000 0.056041
#
#
# Mechanical properties :
#
#
# Convention : Reuss Voigt Hill
#
# Bulk Modulus (GPa) = 45.88539 51.14603 48.51571
# Shear Modulus (GPa) = 23.66776 25.42341 24.54558
#
# Velocity S-wave (km/s) = 3.29052 3.41038 3.35099
# Velocity P-wave (km/s) = 5.95218 6.23746 6.09649
#
# Compressibility (1/GPa) = 0.02179343
#
# Stress axis : x y z
#
# Youngs Moduli (GPa) = 51.32985 51.32985 69.64764
#
# Poissons Ratio (x) = 0.13844 0.45504
# Poissons Ratio (y) = 0.13844 0.45504
# Poissons Ratio (z) = 0.33536 0.33536
#
# Static dielectric constant tensor:
#      x y z
#    x 3.968110 0.000000 0.000000 
#    y 0.000000 3.968110 0.000000 
#    z 0.000000 0.000000 4.060790 
# 
# 
# High freq. dielectric constant tensor:
#      x y z
#    x 1.849590 0.000000 0.000000 
#    y 0.000000 1.849590 0.000000 
#    z 0.000000 0.000000 1.870540 
# 
# From -- ./inp_files/5295.got.cif
#   From: 2010.03.12/outbox.cif.g09.slc.cpg/sg116_3_cif.got.tgz:5295.got - 2010.04.14 02:15:44.
