data_PCOD8310770
_publ_section_title
;
Structure prediction by ZEFSAII (Michael W. Deem and Ramdas Pophale) SiO2 
 PCOD8310770
Probable space group: I -4 M 2
;
_chemical_formula_sum "Si O2"
_cell_formula_units_Z 80
_cell_length_a 22.392345
_cell_length_b 22.392345
_cell_length_c 9.089740
_cell_angle_alpha 90.000000
_cell_angle_beta 90.000000
_cell_angle_gamma 90.000000
_cell_volume 4557.751203
_symmetry_space_group_name_H-M "I -4 M 2"
_symmetry_group_IT_number 119
_symmetry_cell_setting 'tetragonal'
loop_
_space_group_symop_operation_xyz
x,y,z
y,-x,-z
-x,-y,z
-y,x,-z
y,x,-z
-y,-x,-z
-x,y,z
x,-y,z
1/2+x,1/2+y,1/2+z
1/2+y,1/2-x,1/2-z
1/2-x,1/2-y,1/2+z
1/2-y,1/2+x,1/2-z
1/2+y,1/2+x,1/2-z
1/2-y,1/2-x,1/2-z
1/2-x,1/2+y,1/2+z
1/2+x,1/2-y,1/2+z
loop_
_atom_site_type_symbol
_atom_site_label
_atom_site_fract_x
_atom_site_fract_y
_atom_site_fract_z
Si Si1 0.000000 0.237460 0.784820
Si Si2 0.801767 0.280127 0.921789
Si Si3 0.205372 0.500000 0.026157
Si Si4 0.000000 0.653010 0.005073
Si Si5 0.903897 0.187206 0.974810
Si Si6 0.236695 0.000000 0.815193
Si Si7 0.615066 0.871728 0.923896
O O1 0.943793 0.196053 0.829032
O O2 0.000000 0.254016 0.617257
O O3 0.000000 0.300451 0.870865
O O4 0.792158 0.292158 0.750000
O O5 0.847126 0.227172 0.947470
O O6 0.739178 0.260823 0.000000
O O7 0.829312 0.336802 0.001377
O O8 0.261150 0.500000 0.139949
O O9 0.160267 0.554360 0.035882
O O10 0.939003 0.613959 0.006210
O O11 0.000000 0.692423 0.152045
O O12 0.880973 0.119028 0.000000
O O13 0.940671 0.205987 0.120347
O O14 0.625630 0.874371 0.750000
#
# Coordination Sequence:
#
# PCOD8310770 Si02
#       7
#     8  16   8   8  16   8  16
#     4  10  20  38  56  83 113 144 186 224 291 329
#     4  11  21  33  52  79 108 141 184 237 288 344
#     4  12  24  33  57  82 111 152 186 249 278 328
#     4  10  20  37  55  72 107 156 180 241 262 332
#     4   9  18  36  60  76 106 150 186 219 281 352
#     4  10  18  38  54  81 109 146 184 224 285 329
#     4  12  21  37  55  77 109 147 201 230 290 327
#
# _framework density 17.552516000000001
#
# number of rings (size 3 to 8) (size 9 to 14) (size 15 to 20)
#    0.000    1.600    6.000    1.800    0.000    2.000 
#    0.000    2.000    0.000    6.000    0.000    0.000 
#    0.000    6.400    0.000    0.000    0.000    0.000 
#
# Total GULP energy -495600.934093 kJ/mol
# GULP energy per Si atom -12390.023352 kJ/mol
# Density = 1.751257 g / cm^3
# Si number density = 17.552516 Si / 1000 Ang^3
#
#
#
# Elastic Constant Matrix: (Units=GPa)
#
#
# Indices 1 2 3 4 5 6 
#
# 1 103.0921 75.4342 51.7341 0.0000 0.0000 0.0000
# 2 75.4342 103.0990 51.7369 0.0000 0.0000 0.0000
# 3 51.7341 51.7369 128.1180 0.0000 0.0000 0.0000
# 4 0.0000 0.0000 0.0000 11.6997 0.0000 0.0000
# 5 0.0000 0.0000 0.0000 0.0000 11.7028 0.0000
# 6 0.0000 0.0000 0.0000 0.0000 0.0000 46.4671
#
#
#
# Elastic Compliance Matrix: (Units=1/GPa)
#
#
# Indices 1 2 3 4 5 6 
#
# 1 0.021733 -0.014419 -0.002953 0.000000 0.000000 0.000000
# 2 -0.014419 0.021732 -0.002953 0.000000 0.000000 0.000000
# 3 -0.002953 -0.002953 0.010190 0.000000 0.000000 0.000000
# 4 0.000000 0.000000 0.000000 0.085472 0.000000 0.000000
# 5 0.000000 0.000000 0.000000 0.000000 0.085450 0.000000
# 6 0.000000 0.000000 0.000000 0.000000 0.000000 0.021521
#
#
# Mechanical properties :
#
#
# Convention : Reuss Voigt Hill
#
# Bulk Modulus (GPa) = 76.90044 76.90215 76.90130
# Shear Modulus (GPa) = 17.17726 24.33417 20.75572
#
# Velocity S-wave (km/s) = 3.13169 3.72743 3.44247
# Velocity P-wave (km/s) = 7.54873 7.90144 7.72710
#
# Compressibility (1/GPa) = 0.01300383
#
# Stress axis : x y z
#
# Youngs Moduli (GPa) = 46.01351 46.01611 98.13353
#
# Poissons Ratio (x) = 0.66352 0.28977
# Poissons Ratio (y) = 0.66349 0.28980
# Poissons Ratio (z) = 0.13587 0.13589
#
# Static dielectric constant tensor:
#      x y z
#    x 3.442910 0.000000 0.000000 
#    y 0.000000 3.442990 0.000000 
#    z 0.000000 0.000000 3.345100 
# 
# 
# High freq. dielectric constant tensor:
#      x y z
#    x 1.674020 0.000000 0.000000 
#    y 0.000000 1.674020 0.000000 
#    z 0.000000 0.000000 1.679070 
# 
# From -- ./inp_files/2635.got.cif
#   From: 2010.03.12/outbox.cif.g09.slc.cpg/sg119_2_cif.got.tgz:2635.got - 2010.04.14 02:25:26.
