data_PCOD8310746
_publ_section_title
;
Structure prediction by ZEFSAII (Michael W. Deem and Ramdas Pophale) SiO2 
 PCOD8310746
Probable space group: I -4 M 2
;
_chemical_formula_sum "Si O2"
_cell_formula_units_Z 96
_cell_length_a 22.700005
_cell_length_b 22.700005
_cell_length_c 10.279209
_cell_angle_alpha 90.000000
_cell_angle_beta 90.000000
_cell_angle_gamma 90.000000
_cell_volume 5296.775939
_symmetry_space_group_name_H-M "I -4 M 2"
_symmetry_group_IT_number 119
_symmetry_cell_setting 'tetragonal'
loop_
_space_group_symop_operation_xyz
x,y,z
y,-x,-z
-x,-y,z
-y,x,-z
y,x,-z
-y,-x,-z
-x,y,z
x,-y,z
1/2+x,1/2+y,1/2+z
1/2+y,1/2-x,1/2-z
1/2-x,1/2-y,1/2+z
1/2-y,1/2+x,1/2-z
1/2+y,1/2+x,1/2-z
1/2-y,1/2-x,1/2-z
1/2-x,1/2+y,1/2+z
1/2+x,1/2-y,1/2+z
loop_
_atom_site_type_symbol
_atom_site_label
_atom_site_fract_x
_atom_site_fract_y
_atom_site_fract_z
Si Si1 0.349871 0.433659 0.655543
Si Si2 0.432244 0.669495 0.648338
Si Si3 0.352306 0.932075 0.981062
Si Si4 0.828582 0.430869 0.989264
Si Si5 0.880002 0.285883 0.252750
Si Si6 0.569821 0.775868 0.278368
O O1 0.367952 0.500000 0.694628
O O2 0.329359 0.431490 0.506338
O O3 0.405731 0.393419 0.692337
O O4 0.292290 0.410432 0.731630
O O5 0.500000 0.677030 0.698985
O O6 0.387435 0.718856 0.704034
O O7 0.307711 0.906863 0.090925
O O8 0.367684 0.000000 0.001405
O O9 0.413263 0.896622 0.991745
O O10 0.325192 0.922058 0.838753
O O11 0.822158 0.500000 0.997306
O O12 0.787892 0.402220 0.099648
O O13 0.807650 0.405975 0.850045
O O14 0.812758 0.312758 0.250000
O O15 0.500000 0.778436 0.285405
#
# Coordination Sequence:
#
# PCOD8310746 Si02
#       6
#    16  16  16  16  16  16
#     4   9  18  32  55  82 106 137 176 217 263 323
#     4  10  18  32  56  81 108 141 174 215 270 320
#     4  10  18  31  51  70  96 135 177 220 269 323
#     4  10  20  31  47  73 101 132 174 223 268 313
#     4  10  20  34  52  74 102 137 181 216 254 314
#     4   9  17  32  50  69  97 133 171 206 253 315
#
# _framework density 18.124233
#
# number of rings (size 3 to 8) (size 9 to 14) (size 15 to 20)
#    0.000    2.333    1.667    2.000    0.000    0.667 
#    0.000    4.167    0.000    6.000    0.000    0.000 
#    0.000    4.000    0.000    0.000    0.000    0.000 
#
# Total GULP energy -594923.187774 kJ/mol
# GULP energy per Si atom -12394.233079 kJ/mol
# Density = 1.808298 g / cm^3
# Si number density = 18.124233 Si / 1000 Ang^3
#
#
#
# Elastic Constant Matrix: (Units=GPa)
#
#
# Indices 1 2 3 4 5 6 
#
# 1 79.7640 41.0252 5.5500 0.0000 0.0000 0.0000
# 2 41.0252 79.7640 5.5500 0.0000 0.0000 0.0000
# 3 5.5500 5.5500 59.3986 0.0000 0.0000 0.0000
# 4 0.0000 0.0000 0.0000 20.4483 0.0000 0.0000
# 5 0.0000 0.0000 0.0000 0.0000 20.4483 0.0000
# 6 0.0000 0.0000 0.0000 0.0000 0.0000 26.4138
#
#
#
# Elastic Compliance Matrix: (Units=1/GPa)
#
#
# Indices 1 2 3 4 5 6 
#
# 1 0.017082 -0.008732 -0.000780 0.000000 0.000000 0.000000
# 2 -0.008732 0.017082 -0.000780 0.000000 0.000000 0.000000
# 3 -0.000780 -0.000780 0.016981 0.000000 0.000000 0.000000
# 4 0.000000 0.000000 0.000000 0.048904 0.000000 0.000000
# 5 0.000000 0.000000 0.000000 0.000000 0.048904 0.000000
# 6 0.000000 0.000000 0.000000 0.000000 0.000000 0.037859
#
#
# Mechanical properties :
#
#
# Convention : Reuss Voigt Hill
#
# Bulk Modulus (GPa) = 32.72100 35.90852 34.31476
# Shear Modulus (GPa) = 22.97963 24.58216 23.78090
#
# Velocity S-wave (km/s) = 3.56461 3.68681 3.62623
# Velocity P-wave (km/s) = 5.91903 6.16270 6.04209
#
# Compressibility (1/GPa) = 0.03056142
#
# Stress axis : x y z
#
# Youngs Moduli (GPa) = 58.54030 58.54030 58.88863
#
# Poissons Ratio (x) = 0.51115 0.04595
# Poissons Ratio (y) = 0.51115 0.04595
# Poissons Ratio (z) = 0.04568 0.04568
#
# Static dielectric constant tensor:
#      x y z
#    x 3.308480 0.000000 0.000000 
#    y 0.000000 3.308480 0.000000 
#    z 0.000000 0.000000 3.442400 
# 
# 
# High freq. dielectric constant tensor:
#      x y z
#    x 1.688880 0.000000 0.000000 
#    y 0.000000 1.688880 0.000000 
#    z 0.000000 0.000000 1.695730 
# 
# From -- ./inp_files/2715.got.cif
#   From: 2010.03.12/outbox.cif.g09.slc.cpg/sg119_2_cif.got.tgz:2715.got - 2010.04.14 02:25:26.
