data_PCOD8310952
_publ_section_title
;
Structure prediction by ZEFSAII (Michael W. Deem and Ramdas Pophale) SiO2 
 PCOD8310952
Probable space group: I -4 M 2
;
_chemical_formula_sum "Si O2"
_cell_formula_units_Z 68
_cell_length_a 17.285165
_cell_length_b 17.285165
_cell_length_c 12.892329
_cell_angle_alpha 90.000000
_cell_angle_beta 90.000000
_cell_angle_gamma 90.000000
_cell_volume 3851.930467
_symmetry_space_group_name_H-M "I -4 M 2"
_symmetry_group_IT_number 119
_symmetry_cell_setting 'tetragonal'
loop_
_space_group_symop_operation_xyz
x,y,z
y,-x,-z
-x,-y,z
-y,x,-z
y,x,-z
-y,-x,-z
-x,y,z
x,-y,z
1/2+x,1/2+y,1/2+z
1/2+y,1/2-x,1/2-z
1/2-x,1/2-y,1/2+z
1/2-y,1/2+x,1/2-z
1/2+y,1/2+x,1/2-z
1/2-y,1/2-x,1/2-z
1/2-x,1/2+y,1/2+z
1/2+x,1/2-y,1/2+z
loop_
_atom_site_type_symbol
_atom_site_label
_atom_site_fract_x
_atom_site_fract_y
_atom_site_fract_z
Si Si1 0.500000 0.000000 0.407753
Si Si2 0.914355 0.085646 0.500000
Si Si3 0.221320 0.278681 0.250000
Si Si4 0.368121 0.733399 0.115882
Si Si5 0.500000 0.834162 0.450769
Si Si6 0.837224 0.500000 0.794903
Si Si7 0.223991 0.660295 0.466774
O O1 0.500000 0.075160 0.484068
O O2 0.575632 0.000000 0.335520
O O3 0.907942 0.152722 0.585683
O O4 0.000000 0.093381 0.448354
O O5 0.305586 0.287752 0.201659
O O6 0.211606 0.341460 0.342080
O O7 0.425050 0.793739 0.166854
O O8 0.334891 0.776415 0.014370
O O9 0.500000 0.836990 0.327797
O O10 0.574538 0.789009 0.491916
O O11 0.310409 0.689592 0.500000
#
# Coordination Sequence:
#
# PCOD8310952 Si02
#       7
#     4   8   8  16   8   8  16
#     4  12  25  32  58 101 128 147 182 256 318 359
#     4  11  22  38  58  88 120 146 201 262 300 340
#     4  10  20  38  58  82 112 160 210 226 288 372
#     4  11  20  36  60  86 114 159 195 249 300 356
#     4  12  23  38  56  90 125 151 201 252 298 363
#     4  12  21  34  58  89 123 153 185 247 321 347
#     4  10  21  38  59  82 116 156 204 241 288 362
#
# _framework density 17.653485
#
# number of rings (size 3 to 8) (size 9 to 14) (size 15 to 20)
#    0.000    1.059    7.059    3.882    0.000    0.000 
#    2.118    2.353    0.000    0.353    0.000    0.000 
#    0.000    0.000    0.000    0.000    0.000    0.000 
#
# Total GULP energy -421449.428051 kJ/mol
# GULP energy per Si atom -12395.571413 kJ/mol
# Density = 1.761331 g / cm^3
# Si number density = 17.653485 Si / 1000 Ang^3
#
#
#
# Elastic Constant Matrix: (Units=GPa)
#
#
# Indices 1 2 3 4 5 6 
#
# 1 118.8469 43.4300 6.7783 0.0000 0.0000 0.0000
# 2 43.4300 118.8442 6.7771 0.0000 0.0000 0.0000
# 3 6.7783 6.7771 30.3165 0.0000 0.0000 0.0000
# 4 0.0000 0.0000 0.0000 16.2348 0.0000 0.0000
# 5 0.0000 0.0000 0.0000 0.0000 16.2317 0.0000
# 6 0.0000 0.0000 0.0000 0.0000 0.0000 45.4843
#
#
#
# Elastic Compliance Matrix: (Units=1/GPa)
#
#
# Indices 1 2 3 4 5 6 
#
# 1 0.009770 -0.003490 -0.001404 0.000000 0.000000 0.000000
# 2 -0.003490 0.009770 -0.001404 0.000000 0.000000 0.000000
# 3 -0.001404 -0.001404 0.033613 0.000000 0.000000 0.000000
# 4 0.000000 0.000000 0.000000 0.061596 0.000000 0.000000
# 5 0.000000 0.000000 0.000000 0.000000 0.061608 0.000000
# 6 0.000000 0.000000 0.000000 0.000000 0.000000 0.021986
#
#
# Mechanical properties :
#
#
# Convention : Reuss Voigt Hill
#
# Bulk Modulus (GPa) = 24.65682 42.44203 33.54943
# Shear Modulus (GPa) = 22.27597 29.65829 25.96713
#
# Velocity S-wave (km/s) = 3.55610 4.10326 3.83944
# Velocity P-wave (km/s) = 5.55505 6.82223 6.22099
#
# Compressibility (1/GPa) = 0.04055673
#
# Stress axis : x y z
#
# Youngs Moduli (GPa) = 102.35772 102.35582 29.75032
#
# Poissons Ratio (x) = 0.35723 0.04177
# Poissons Ratio (y) = 0.35724 0.04176
# Poissons Ratio (z) = 0.14372 0.14367
#
# Static dielectric constant tensor:
#      x y z
#    x 3.637290 0.000000 0.000000 
#    y 0.000000 3.637290 0.000000 
#    z 0.000000 0.000000 3.288060 
# 
# 
# High freq. dielectric constant tensor:
#      x y z
#    x 1.688270 0.000000 0.000000 
#    y 0.000000 1.688270 0.000000 
#    z 0.000000 0.000000 1.670040 
# 
# From -- ./inp_files/3948.got.cif
#   From: 2010.03.12/outbox.cif.g09.slc.cpg/sg119_2_cif.got.tgz:3948.got - 2010.04.14 02:25:26.
