data_PCOD8310297
_publ_section_title
;
Structure prediction by ZEFSAII (Michael W. Deem and Ramdas Pophale) SiO2 
 PCOD8310297
Probable space group: P -4 B 2
;
_chemical_formula_sum "Si O2"
_cell_formula_units_Z 24
_cell_length_a 14.149191
_cell_length_b 14.149191
_cell_length_c 5.097401
_cell_angle_alpha 90.000000
_cell_angle_beta 90.000000
_cell_angle_gamma 90.000000
_cell_volume 1020.497672
_symmetry_space_group_name_H-M "P -4 B 2"
_symmetry_group_IT_number 117
_symmetry_cell_setting 'tetragonal'
loop_
_space_group_symop_operation_xyz
x,y,z
y,-x,-z
-x,-y,z
-y,x,-z
1/2+y,1/2+x,-z
1/2-y,1/2-x,-z
1/2-x,1/2+y,z
1/2+x,1/2-y,z
loop_
_atom_site_type_symbol
_atom_site_label
_atom_site_fract_x
_atom_site_fract_y
_atom_site_fract_z
Si Si1 0.576485 0.629201 0.552154
Si Si2 0.105135 0.455909 0.754804
Si Si3 0.756729 0.891066 0.917856
O O1 0.621495 0.526143 0.588696
O O2 0.639203 0.678869 0.327616
O O3 0.571503 0.683989 0.830499
O O4 0.111602 0.388399 0.500000
O O5 0.185099 0.534107 0.784828
O O6 0.000000 0.500000 0.753422
O O7 0.114797 0.385204 0.000000
O O8 0.701835 0.798166 0.000000
#
# Coordination Sequence:
#
# PCOD8310297 Si02
#       3
#     8   8   8
#     4  11  26  49  72  96 136 196 243 283 350 418
#     4  10  19  34  59  96 134 184 211 250 349 449
#     4  12  23  42  75 102 139 177 235 302 352 411
#
# _framework density 23.517935999999999
#
# number of rings (size 3 to 8) (size 9 to 14) (size 15 to 20)
#    0.000    1.000    3.333    5.000    4.667    2.667 
#    0.000   16.667    0.000    0.000    0.000    0.000 
#    0.000    0.000    0.000    0.000    0.000    0.000 
#
# Total GULP energy -297313.423123 kJ/mol
# GULP energy per Si atom -12388.059297 kJ/mol
# Density = 2.346441 g / cm^3
# Si number density = 23.517936 Si / 1000 Ang^3
#
#
#
# Elastic Constant Matrix: (Units=GPa)
#
#
# Indices 1 2 3 4 5 6 
#
# 1 72.0444 21.2495 27.5686 0.0000 0.0000 0.0000
# 2 21.2495 72.0434 27.5682 0.0000 0.0000 0.0000
# 3 27.5686 27.5682 205.7836 0.0000 0.0000 0.0000
# 4 0.0000 0.0000 0.0000 35.4680 0.0000 0.0000
# 5 0.0000 0.0000 0.0000 0.0000 35.4714 0.0000
# 6 0.0000 0.0000 0.0000 0.0000 0.0000 13.6133
#
#
#
# Elastic Compliance Matrix: (Units=1/GPa)
#
#
# Indices 1 2 3 4 5 6 
#
# 1 0.015664 -0.004023 -0.001559 0.000000 0.000000 0.000000
# 2 -0.004023 0.015664 -0.001559 0.000000 0.000000 0.000000
# 3 -0.001559 -0.001559 0.005277 0.000000 0.000000 0.000000
# 4 0.000000 0.000000 0.000000 0.028194 0.000000 0.000000
# 5 0.000000 0.000000 0.000000 0.000000 0.028192 0.000000
# 6 0.000000 0.000000 0.000000 0.000000 0.000000 0.073458
#
#
# Mechanical properties :
#
#
# Convention : Reuss Voigt Hill
#
# Bulk Modulus (GPa) = 44.80181 55.84932 50.32556
# Shear Modulus (GPa) = 26.57120 35.14287 30.85703
#
# Velocity S-wave (km/s) = 3.36494 3.86981 3.62617
# Velocity P-wave (km/s) = 5.84709 6.61561 6.24319
#
# Compressibility (1/GPa) = 0.02232053
#
# Stress axis : x y z
#
# Youngs Moduli (GPa) = 63.84163 63.84082 189.49061
#
# Poissons Ratio (x) = 0.25685 0.29550
# Poissons Ratio (y) = 0.25686 0.29550
# Poissons Ratio (z) = 0.09956 0.09956
#
# Static dielectric constant tensor:
#      x y z
#    x 4.057300 0.000000 0.000000 
#    y 0.000000 4.057270 0.000000 
#    z 0.000000 0.000000 1.224950 
# 
# 
# High freq. dielectric constant tensor:
#      x y z
#    x 1.916840 0.000000 0.000000 
#    y 0.000000 1.916840 0.000000 
#    z 0.000000 0.000000 1.966820 
# 
# From -- ./inp_files/156.got.cif
#   From: 2010.03.12/outbox.cif.g09.slc.cpg/sg117_1_cif.got.tgz:156.got - 2010.04.14 02:19:01.
