data_PCOD8310293
_publ_section_title
;
Structure prediction by ZEFSAII (Michael W. Deem and Ramdas Pophale) SiO2 
 PCOD8310293
Probable space group: P -4 B 2
;
_chemical_formula_sum "Si O2"
_cell_formula_units_Z 32
_cell_length_a 14.007927
_cell_length_b 14.007927
_cell_length_c 8.251794
_cell_angle_alpha 90.000000
_cell_angle_beta 90.000000
_cell_angle_gamma 90.000000
_cell_volume 1619.183678
_symmetry_space_group_name_H-M "P -4 B 2"
_symmetry_group_IT_number 117
_symmetry_cell_setting 'tetragonal'
loop_
_space_group_symop_operation_xyz
x,y,z
y,-x,-z
-x,-y,z
-y,x,-z
1/2+y,1/2+x,-z
1/2-y,1/2-x,-z
1/2-x,1/2+y,z
1/2+x,1/2-y,z
loop_
_atom_site_type_symbol
_atom_site_label
_atom_site_fract_x
_atom_site_fract_y
_atom_site_fract_z
Si Si1 0.104441 0.750209 0.440191
Si Si2 0.694158 0.266295 0.834085
Si Si3 0.399080 0.720825 0.357680
Si Si4 0.955561 0.853465 0.024048
O O1 0.151760 0.651760 0.500000
O O2 0.138732 0.767689 0.254928
O O3 0.140175 0.841966 0.543831
O O4 0.989245 0.738015 0.460331
O O5 0.700202 0.177205 0.707046
O O6 0.754740 0.254740 0.000000
O O7 0.584154 0.276907 0.892584
O O8 0.456093 0.679501 0.207043
O O9 0.059925 0.880883 0.972051
#
# Coordination Sequence:
#
# PCOD8310293 Si02
#       4
#     8   8   8   8
#     4  10  21  37  56  87 118 155 193 242 302 357
#     4   9  19  37  54  81 116 156 190 238 293 347
#     4  10  21  34  57  84 118 157 193 242 301 359
#     4  10  19  31  54  86 118 150 195 246 295 351
#
# _framework density 19.763045000000002
#
# number of rings (size 3 to 8) (size 9 to 14) (size 15 to 20)
#    0.000    2.250    2.500    0.000    3.500    0.500 
#    0.000    0.000    0.000    6.750    0.000    7.000 
#    0.000    0.000    0.000    0.000    0.000    0.000 
#
# Total GULP energy -396430.563465 kJ/mol
# GULP energy per Si atom -12388.455108 kJ/mol
# Density = 1.971806 g / cm^3
# Si number density = 19.763045 Si / 1000 Ang^3
#
#
#
# Elastic Constant Matrix: (Units=GPa)
#
#
# Indices 1 2 3 4 5 6 
#
# 1 98.9759 44.5302 18.7510 0.0000 0.0000 0.0000
# 2 44.5302 98.9759 18.7510 0.0000 0.0000 0.0000
# 3 18.7510 18.7510 63.7221 0.0000 0.0000 0.0000
# 4 0.0000 0.0000 0.0000 17.3288 0.0000 0.0000
# 5 0.0000 0.0000 0.0000 0.0000 17.3288 0.0000
# 6 0.0000 0.0000 0.0000 0.0000 0.0000 23.9601
#
#
#
# Elastic Compliance Matrix: (Units=1/GPa)
#
#
# Indices 1 2 3 4 5 6 
#
# 1 0.012958 -0.005409 -0.002221 0.000000 0.000000 0.000000
# 2 -0.005409 0.012958 -0.002221 0.000000 0.000000 0.000000
# 3 -0.002221 -0.002221 0.017000 0.000000 0.000000 0.000000
# 4 0.000000 0.000000 0.000000 0.057708 0.000000 0.000000
# 5 0.000000 0.000000 0.000000 0.000000 0.057708 0.000000
# 6 0.000000 0.000000 0.000000 0.000000 0.000000 0.041736
#
#
# Mechanical properties :
#
#
# Convention : Reuss Voigt Hill
#
# Bulk Modulus (GPa) = 43.07973 47.30427 45.19200
# Shear Modulus (GPa) = 21.97721 23.69963 22.83842
#
# Velocity S-wave (km/s) = 3.33834 3.46669 3.40312
# Velocity P-wave (km/s) = 6.05845 6.32547 6.19340
#
# Compressibility (1/GPa) = 0.02321277
#
# Stress axis : x y z
#
# Youngs Moduli (GPa) = 77.17312 77.17312 58.82200
#
# Poissons Ratio (x) = 0.41743 0.13066
# Poissons Ratio (y) = 0.41743 0.13066
# Poissons Ratio (z) = 0.17143 0.17143
#
# Static dielectric constant tensor:
#      x y z
#    x 3.531310 0.000000 0.000000 
#    y 0.000000 3.531310 0.000000 
#    z 0.000000 0.000000 3.966530 
# 
# 
# High freq. dielectric constant tensor:
#      x y z
#    x 1.752050 0.000000 0.000000 
#    y 0.000000 1.752050 0.000000 
#    z 0.000000 0.000000 1.790720 
# 
# From -- ./inp_files/1453.got.cif
#   From: 2010.03.12/outbox.cif.g09.slc.cpg/sg117_1_cif.got.tgz:1453.got - 2010.04.14 02:19:01.
