data_PCOD8310923
_publ_section_title
;
Structure prediction by ZEFSAII (Michael W. Deem and Ramdas Pophale) SiO2 
 PCOD8310923
Probable space group: I -4 M 2
;
_chemical_formula_sum "Si O2"
_cell_formula_units_Z 112
_cell_length_a 14.470116
_cell_length_b 14.470116
_cell_length_c 25.617537
_cell_angle_alpha 90.000000
_cell_angle_beta 90.000000
_cell_angle_gamma 90.000000
_cell_volume 5363.908952
_symmetry_space_group_name_H-M "I -4 M 2"
_symmetry_group_IT_number 119
_symmetry_cell_setting 'tetragonal'
loop_
_space_group_symop_operation_xyz
x,y,z
y,-x,-z
-x,-y,z
-y,x,-z
y,x,-z
-y,-x,-z
-x,y,z
x,-y,z
1/2+x,1/2+y,1/2+z
1/2+y,1/2-x,1/2-z
1/2-x,1/2-y,1/2+z
1/2-y,1/2+x,1/2-z
1/2+y,1/2+x,1/2-z
1/2-y,1/2-x,1/2-z
1/2-x,1/2+y,1/2+z
1/2+x,1/2-y,1/2+z
loop_
_atom_site_type_symbol
_atom_site_label
_atom_site_fract_x
_atom_site_fract_y
_atom_site_fract_z
Si Si1 0.213655 0.298570 0.096786
Si Si2 0.104804 0.283654 0.790194
Si Si3 0.099028 0.892066 0.252130
Si Si4 0.104242 0.605373 0.493726
Si Si5 0.605679 0.392658 0.127240
Si Si6 0.892070 0.607099 0.190181
Si Si7 0.103647 0.277008 0.906128
O O1 0.166263 0.339284 0.046171
O O2 0.321677 0.329005 0.095826
O O3 0.166253 0.330848 0.150361
O O4 0.203713 0.187314 0.089128
O O5 0.145898 0.354103 0.750000
O O6 0.149827 0.180672 0.783955
O O7 0.115373 0.322037 0.848671
O O8 0.000000 0.273249 0.772745
O O9 0.123983 0.872877 0.312084
O O10 0.000000 0.844078 0.238036
O O11 0.086731 0.000000 0.242530
O O12 0.109824 0.500000 0.474467
O O13 0.142781 0.615426 0.551955
O O14 0.000000 0.641447 0.494595
O O15 0.500000 0.363636 0.113504
O O16 0.620927 0.500000 0.112697
O O17 0.867198 0.500000 0.179757
O O18 0.866355 0.633646 0.250000
O O19 0.000000 0.623544 0.180012
O O20 0.000000 0.231087 0.910754
#
# Coordination Sequence:
#
# PCOD8310923 Si02
#       7
#    16  16  16  16  16  16  16
#     4  12  21  35  63  90 115 156 206 247 290 358
#     4  10  20  35  56  83 115 150 193 241 289 348
#     4   8  15  30  51  75 109 154 195 228 267 324
#     4  10  22  42  67  91 113 142 190 251 309 365
#     4   9  18  31  50  85 130 164 190 231 294 365
#     4   9  19  36  59  93 134 165 194 243 304 359
#     4  10  24  42  57  80 118 159 197 246 300 347
#
# _framework density 20.880293999999999
#
# number of rings (size 3 to 8) (size 9 to 14) (size 15 to 20)
#    0.000    2.286    0.000    4.286    0.000    4.143 
#    0.000    4.286    0.000    4.286    0.000    8.000 
#    0.000    0.286    0.000    0.000    0.000    0.000 
#
# Total GULP energy -694059.411328 kJ/mol
# GULP energy per Si atom -12393.918059 kJ/mol
# Density = 2.083277 g / cm^3
# Si number density = 20.880294 Si / 1000 Ang^3
#
#
#
# Elastic Constant Matrix: (Units=GPa)
#
#
# Indices 1 2 3 4 5 6 
#
# 1 106.3086 63.2508 63.8720 0.0000 0.0000 0.0000
# 2 63.2508 106.3032 63.8722 0.0000 0.0000 0.0000
# 3 63.8720 63.8722 121.6883 0.0000 0.0000 0.0000
# 4 0.0000 0.0000 0.0000 31.5196 0.0000 0.0000
# 5 0.0000 0.0000 0.0000 0.0000 31.5197 0.0000
# 6 0.0000 0.0000 0.0000 0.0000 0.0000 23.7519
#
#
#
# Elastic Compliance Matrix: (Units=1/GPa)
#
#
# Indices 1 2 3 4 5 6 
#
# 1 0.016490 -0.006735 -0.005120 0.000000 0.000000 0.000000
# 2 -0.006735 0.016491 -0.005121 0.000000 0.000000 0.000000
# 3 -0.005120 -0.005121 0.013593 0.000000 0.000000 0.000000
# 4 0.000000 0.000000 0.000000 0.031726 0.000000 0.000000
# 5 0.000000 0.000000 0.000000 0.000000 0.031726 0.000000
# 6 0.000000 0.000000 0.000000 0.000000 0.000000 0.042102
#
#
# Mechanical properties :
#
#
# Convention : Reuss Voigt Hill
#
# Bulk Modulus (GPa) = 79.22630 79.58778 79.40704
# Shear Modulus (GPa) = 26.27584 26.91192 26.59388
#
# Velocity S-wave (km/s) = 3.55125 3.59397 3.57267
# Velocity P-wave (km/s) = 7.40544 7.44454 7.42502
#
# Compressibility (1/GPa) = 0.01262207
#
# Stress axis : x y z
#
# Youngs Moduli (GPa) = 60.64221 60.63752 73.56701
#
# Poissons Ratio (x) = 0.40841 0.37667
# Poissons Ratio (y) = 0.40844 0.37673
# Poissons Ratio (z) = 0.31050 0.31052
#
# Static dielectric constant tensor:
#      x y z
#    x 4.324030 0.000000 0.000000 
#    y 0.000000 4.323820 0.000000 
#    z 0.000000 0.000000 3.702390 
# 
# 
# High freq. dielectric constant tensor:
#      x y z
#    x 1.815010 0.000000 0.000000 
#    y 0.000000 1.815010 0.000000 
#    z 0.000000 0.000000 1.807620 
# 
# From -- ./inp_files/8853.got.cif
#   From: 2010.03.12/outbox.cif.g09.slc.cpg/sg119_5_cif.got.tgz:8853.got - 2010.04.14 02:25:26.
