data_PCOD8310942
_publ_section_title
;
Structure prediction by ZEFSAII (Michael W. Deem and Ramdas Pophale) SiO2 
 PCOD8310942
Probable space group: I -4 M 2
;
_chemical_formula_sum "Si O2"
_cell_formula_units_Z 96
_cell_length_a 24.343404
_cell_length_b 24.343404
_cell_length_c 8.441851
_cell_angle_alpha 90.000000
_cell_angle_beta 90.000000
_cell_angle_gamma 90.000000
_cell_volume 5002.652032
_symmetry_space_group_name_H-M "I -4 M 2"
_symmetry_group_IT_number 119
_symmetry_cell_setting 'tetragonal'
loop_
_space_group_symop_operation_xyz
x,y,z
y,-x,-z
-x,-y,z
-y,x,-z
y,x,-z
-y,-x,-z
-x,y,z
x,-y,z
1/2+x,1/2+y,1/2+z
1/2+y,1/2-x,1/2-z
1/2-x,1/2-y,1/2+z
1/2-y,1/2+x,1/2-z
1/2+y,1/2+x,1/2-z
1/2-y,1/2-x,1/2-z
1/2-x,1/2+y,1/2+z
1/2+x,1/2-y,1/2+z
loop_
_atom_site_type_symbol
_atom_site_label
_atom_site_fract_x
_atom_site_fract_y
_atom_site_fract_z
Si Si1 0.189795 0.254996 0.612819
Si Si2 0.830146 0.383564 0.101466
Si Si3 0.658072 0.651257 0.316927
Si Si4 0.560459 0.061651 0.561655
Si Si5 0.060978 0.775279 0.342922
Si Si6 0.637006 0.436744 0.895237
O O1 0.241698 0.241698 0.500000
O O2 0.203830 0.296171 0.750000
O O3 0.145140 0.287537 0.514193
O O4 0.170715 0.198619 0.690942
O O5 0.844902 0.344902 0.250000
O O6 0.886450 0.402292 0.010181
O O7 0.791655 0.434425 0.155315
O O8 0.666523 0.666523 0.500000
O O9 0.700471 0.602089 0.287224
O O10 0.594971 0.636396 0.274195
O O11 0.500000 0.084673 0.505295
O O12 0.561072 0.061072 0.750000
O O13 0.567255 0.000000 0.494521
O O14 0.071430 0.804768 0.513053
O O15 0.000000 0.789308 0.284289
O O16 0.624973 0.500000 0.858274
O O17 0.587591 0.412410 0.000000
#
# Coordination Sequence:
#
# PCOD8310942 Si02
#       6
#    16  16  16  16  16  16
#     4  12  23  38  57  82 117 154 199 243 296 363
#     4  11  21  34  58  87 117 154 197 247 298 354
#     4  11  22  37  59  85 124 161 194 249 309 356
#     4   8  15  30  54  84 116 150 191 241 291 337
#     4  10  20  37  59  85 116 156 202 244 292 359
#     4   9  18  36  59  84 116 156 201 245 292 359
#
# _framework density 19.189823000000001
#
# number of rings (size 3 to 8) (size 9 to 14) (size 15 to 20)
#    0.000    1.833    3.333    2.500    2.333    1.500 
#    0.000    0.000    0.000    2.000    0.000    3.500 
#    0.000    0.000    0.000    0.000    0.000    0.000 
#
# Total GULP energy -594658.133237 kJ/mol
# GULP energy per Si atom -12388.711109 kJ/mol
# Density = 1.914615 g / cm^3
# Si number density = 19.189823 Si / 1000 Ang^3
#
#
#
# Elastic Constant Matrix: (Units=GPa)
#
#
# Indices 1 2 3 4 5 6 
#
# 1 128.0156 49.1811 25.8479 0.0000 0.0000 0.0000
# 2 49.1811 128.0125 25.8481 0.0000 0.0000 0.0000
# 3 25.8479 25.8481 66.6714 0.0000 0.0000 0.0000
# 4 0.0000 0.0000 0.0000 10.7800 0.0000 0.0000
# 5 0.0000 0.0000 0.0000 0.0000 10.7819 0.0000
# 6 0.0000 0.0000 0.0000 0.0000 0.0000 31.8519
#
#
#
# Elastic Compliance Matrix: (Units=1/GPa)
#
#
# Indices 1 2 3 4 5 6 
#
# 1 0.009524 -0.003161 -0.002467 0.000000 0.000000 0.000000
# 2 -0.003161 0.009524 -0.002467 0.000000 0.000000 0.000000
# 3 -0.002467 -0.002467 0.016912 0.000000 0.000000 0.000000
# 4 0.000000 0.000000 0.000000 0.092764 0.000000 0.000000
# 5 0.000000 0.000000 0.000000 0.000000 0.092748 0.000000
# 6 0.000000 0.000000 0.000000 0.000000 0.000000 0.031395
#
#
# Mechanical properties :
#
#
# Convention : Reuss Voigt Hill
#
# Bulk Modulus (GPa) = 50.58081 58.27263 54.42672
# Shear Modulus (GPa) = 18.13913 25.47094 21.80504
#
# Velocity S-wave (km/s) = 3.07782 3.64719 3.37453
# Velocity P-wave (km/s) = 6.24868 6.94034 6.60357
#
# Compressibility (1/GPa) = 0.01977034
#
# Stress axis : x y z
#
# Youngs Moduli (GPa) = 104.99778 104.99498 59.13034
#
# Poissons Ratio (x) = 0.33188 0.14587
# Poissons Ratio (y) = 0.33189 0.14588
# Poissons Ratio (z) = 0.25902 0.25903
#
# Static dielectric constant tensor:
#      x y z
#    x 3.825550 0.000000 0.000000 
#    y 0.000000 3.825560 0.000000 
#    z 0.000000 0.000000 3.114940 
# 
# 
# High freq. dielectric constant tensor:
#      x y z
#    x 1.753030 0.000000 0.000000 
#    y 0.000000 1.753030 0.000000 
#    z 0.000000 0.000000 1.707770 
# 
# From -- ./inp_files/2671.got.cif
#   From: 2010.03.12/outbox.cif.g09.slc.cpg/sg119_2_cif.got.tgz:2671.got - 2010.04.14 02:25:26.
