data_PCOD8310804
_publ_section_title
;
Structure prediction by ZEFSAII (Michael W. Deem and Ramdas Pophale) SiO2 
 PCOD8310804
Probable space group: I -4 M 2
;
_chemical_formula_sum "Si O2"
_cell_formula_units_Z 80
_cell_length_a 23.424106
_cell_length_b 23.424106
_cell_length_c 9.464973
_cell_angle_alpha 90.000000
_cell_angle_beta 90.000000
_cell_angle_gamma 90.000000
_cell_volume 5193.324127
_symmetry_space_group_name_H-M "I -4 M 2"
_symmetry_group_IT_number 119
_symmetry_cell_setting 'tetragonal'
loop_
_space_group_symop_operation_xyz
x,y,z
y,-x,-z
-x,-y,z
-y,x,-z
y,x,-z
-y,-x,-z
-x,y,z
x,-y,z
1/2+x,1/2+y,1/2+z
1/2+y,1/2-x,1/2-z
1/2-x,1/2-y,1/2+z
1/2-y,1/2+x,1/2-z
1/2+y,1/2+x,1/2-z
1/2-y,1/2-x,1/2-z
1/2-x,1/2+y,1/2+z
1/2+x,1/2-y,1/2+z
loop_
_atom_site_type_symbol
_atom_site_label
_atom_site_fract_x
_atom_site_fract_y
_atom_site_fract_z
Si Si1 0.595848 0.000000 0.472325
Si Si2 0.669373 0.000000 0.730253
Si Si3 0.121151 0.294710 0.834047
Si Si4 0.500000 0.829366 0.289618
Si Si5 0.588249 0.000000 0.967293
Si Si6 0.796303 0.380468 0.333775
Si Si7 0.711534 0.289962 0.340379
O O1 0.653825 0.000000 0.564673
O O2 0.615399 0.000000 0.310854
O O3 0.557895 0.944678 0.499857
O O4 0.606828 0.000000 0.803975
O O5 0.705582 0.944272 0.772468
O O6 0.158187 0.341814 0.750000
O O7 0.146173 0.229965 0.810355
O O8 0.057308 0.292100 0.769563
O O9 0.120342 0.311900 0.999799
O O10 0.500000 0.852901 0.448068
O O11 0.843475 0.343475 0.250000
O O12 0.731426 0.355299 0.310433
O O13 0.726051 0.273950 0.500000
O O14 0.750949 0.250949 0.250000
#
# Coordination Sequence:
#
# PCOD8310804 Si02
#       7
#     8   8  16   8   8  16  16
#     4  11  24  32  44  58  86 122 160 185 220 250
#     4  12  22  31  46  64  88 115 153 192 223 261
#     4  10  19  32  48  66  88 115 148 186 226 267
#     4  12  22  31  46  64  88 115 153 192 223 261
#     4  11  20  36  44  58  82 122 156 191 216 252
#     4  10  19  32  48  66  88 115 148 186 226 267
#     4   8  16  30  48  66  84 109 143 182 226 271
#
# _framework density 15.404391
#
# number of rings (size 3 to 8) (size 9 to 14) (size 15 to 20)
#    0.000    1.800    2.000    3.600    2.800    1.600 
#    0.000    0.000    0.000    0.000    0.000    0.000 
#    0.000    0.800    0.000    7.400    0.000    2.000 
#
# Total GULP energy -495531.215858 kJ/mol
# GULP energy per Si atom -12388.280396 kJ/mol
# Density = 1.536933 g / cm^3
# Si number density = 15.404391 Si / 1000 Ang^3
#
#
#
# Elastic Constant Matrix: (Units=GPa)
#
#
# Indices 1 2 3 4 5 6 
#
# 1 93.5339 67.4047 19.9763 0.0000 0.0000 0.0000
# 2 67.4047 93.5347 19.9765 0.0000 0.0000 0.0000
# 3 19.9763 19.9765 43.0623 0.0000 0.0000 0.0000
# 4 0.0000 0.0000 0.0000 14.5763 0.0000 0.0000
# 5 0.0000 0.0000 0.0000 0.0000 14.5764 0.0000
# 6 0.0000 0.0000 0.0000 0.0000 0.0000 27.2229
#
#
#
# Elastic Compliance Matrix: (Units=1/GPa)
#
#
# Indices 1 2 3 4 5 6 
#
# 1 0.022647 -0.015624 -0.003258 0.000000 0.000000 0.000000
# 2 -0.015624 0.022646 -0.003258 0.000000 0.000000 0.000000
# 3 -0.003258 -0.003258 0.026245 0.000000 0.000000 0.000000
# 4 0.000000 0.000000 0.000000 0.068604 0.000000 0.000000
# 5 0.000000 0.000000 0.000000 0.000000 0.068604 0.000000
# 6 0.000000 0.000000 0.000000 0.000000 0.000000 0.036734
#
#
# Mechanical properties :
#
#
# Convention : Reuss Voigt Hill
#
# Bulk Modulus (GPa) = 36.68558 49.42734 43.05646
# Shear Modulus (GPa) = 16.73110 19.46002 18.09556
#
# Velocity S-wave (km/s) = 3.29922 3.55812 3.43111
# Velocity P-wave (km/s) = 6.19515 7.00260 6.61121
#
# Compressibility (1/GPa) = 0.02725866
#
# Stress axis : x y z
#
# Youngs Moduli (GPa) = 44.15680 44.15713 38.10315
#
# Poissons Ratio (x) = 0.68992 0.12412
# Poissons Ratio (y) = 0.68992 0.12413
# Poissons Ratio (z) = 0.14384 0.14385
#
# Static dielectric constant tensor:
#      x y z
#    x 3.133960 0.000000 0.000000 
#    y 0.000000 3.133890 0.000000 
#    z 0.000000 0.000000 3.352410 
# 
# 
# High freq. dielectric constant tensor:
#      x y z
#    x 1.566160 0.000000 0.000000 
#    y 0.000000 1.566160 0.000000 
#    z 0.000000 0.000000 1.609090 
# 
# From -- ./inp_files/2629.got.cif
#   From: 2010.03.12/outbox.cif.g09.slc.cpg/sg119_2_cif.got.tgz:2629.got - 2010.04.14 02:25:26.
