data_PCOD8310860
_publ_section_title
;
Structure prediction by ZEFSAII (Michael W. Deem and Ramdas Pophale) SiO2 
 PCOD8310860
Probable space group: I -4 M 2
;
_chemical_formula_sum "Si O2"
_cell_formula_units_Z 96
_cell_length_a 14.303415
_cell_length_b 14.303415
_cell_length_c 23.158793
_cell_angle_alpha 90.000000
_cell_angle_beta 90.000000
_cell_angle_gamma 90.000000
_cell_volume 4738.003747
_symmetry_space_group_name_H-M "I -4 M 2"
_symmetry_group_IT_number 119
_symmetry_cell_setting 'tetragonal'
loop_
_space_group_symop_operation_xyz
x,y,z
y,-x,-z
-x,-y,z
-y,x,-z
y,x,-z
-y,-x,-z
-x,y,z
x,-y,z
1/2+x,1/2+y,1/2+z
1/2+y,1/2-x,1/2-z
1/2-x,1/2-y,1/2+z
1/2-y,1/2+x,1/2-z
1/2+y,1/2+x,1/2-z
1/2-y,1/2-x,1/2-z
1/2-x,1/2+y,1/2+z
1/2+x,1/2-y,1/2+z
loop_
_atom_site_type_symbol
_atom_site_label
_atom_site_fract_x
_atom_site_fract_y
_atom_site_fract_z
Si Si1 0.658246 0.397284 0.618870
Si Si2 0.397284 0.302642 0.051182
Si Si3 0.892024 0.104379 0.244457
Si Si4 0.157546 0.603545 0.543771
Si Si5 0.277004 0.609699 0.146494
Si Si6 0.101734 0.296743 0.088650
O O1 0.612638 0.500000 0.607790
O O2 0.671903 0.382136 0.687740
O O3 0.756706 0.391619 0.587254
O O4 0.594061 0.315207 0.594335
O O5 0.500000 0.341590 0.036343
O O6 0.407418 0.190567 0.061198
O O7 0.361182 0.353786 0.107668
O O8 0.325497 0.325497 0.000000
O O9 0.867603 0.187785 0.288921
O O10 0.000000 0.113753 0.225431
O O11 0.874812 0.000000 0.270959
O O12 0.109852 0.500000 0.549042
O O13 0.184497 0.623674 0.477752
O O14 0.261612 0.500000 0.136277
O O15 0.179891 0.661186 0.131384
O O16 0.000000 0.338724 0.105802
#
# Coordination Sequence:
#
# PCOD8310860 Si02
#       6
#    16  16  16  16  16  16
#     4  10  19  36  62  87 116 154 200 251 302 362
#     4  12  23  38  60  88 120 157 205 256 305 356
#     4   9  19  36  59  89 121 155 202 257 311 363
#     4  10  21  39  61  87 123 161 198 244 303 369
#     4  11  23  40  60  85 121 161 204 254 306 364
#     4  11  22  37  59  87 123 160 198 248 306 367
#
# _framework density 20.261697999999999
#
# number of rings (size 3 to 8) (size 9 to 14) (size 15 to 20)
#    0.000    1.500    3.333    2.000    0.000    4.167 
#    0.000    2.500    0.000    6.000    0.000    2.333 
#    0.000    4.000    0.000    0.000    0.000    0.000 
#
# Total GULP energy -594776.939987 kJ/mol
# GULP energy per Si atom -12391.186250 kJ/mol
# Density = 2.021558 g / cm^3
# Si number density = 20.261698 Si / 1000 Ang^3
#
#
#
# Elastic Constant Matrix: (Units=GPa)
#
#
# Indices 1 2 3 4 5 6 
#
# 1 92.5278 20.5942 12.4019 0.0000 0.0000 0.0000
# 2 20.5942 92.5278 12.4019 0.0000 0.0000 0.0000
# 3 12.4019 12.4019 56.8532 0.0000 0.0000 0.0000
# 4 0.0000 0.0000 0.0000 20.0448 0.0000 0.0000
# 5 0.0000 0.0000 0.0000 0.0000 20.0448 0.0000
# 6 0.0000 0.0000 0.0000 0.0000 0.0000 16.2110
#
#
#
# Elastic Compliance Matrix: (Units=1/GPa)
#
#
# Indices 1 2 3 4 5 6 
#
# 1 0.011593 -0.002309 -0.002025 0.000000 0.000000 0.000000
# 2 -0.002309 0.011593 -0.002025 0.000000 0.000000 0.000000
# 3 -0.002025 -0.002025 0.018473 0.000000 0.000000 0.000000
# 4 0.000000 0.000000 0.000000 0.049888 0.000000 0.000000
# 5 0.000000 0.000000 0.000000 0.000000 0.049888 0.000000
# 6 0.000000 0.000000 0.000000 0.000000 0.000000 0.061686
#
#
# Mechanical properties :
#
#
# Convention : Reuss Voigt Hill
#
# Bulk Modulus (GPa) = 34.55427 36.96720 35.76073
# Shear Modulus (GPa) = 22.17426 24.36084 23.26755
#
# Velocity S-wave (km/s) = 3.31175 3.47120 3.39241
# Velocity P-wave (km/s) = 5.63157 5.86089 5.74738
#
# Compressibility (1/GPa) = 0.02893999
#
# Stress axis : x y z
#
# Youngs Moduli (GPa) = 86.25973 86.25973 54.13393
#
# Poissons Ratio (x) = 0.19916 0.10963
# Poissons Ratio (y) = 0.19916 0.10963
# Poissons Ratio (z) = 0.17469 0.17469
#
# Static dielectric constant tensor:
#      x y z
#    x 3.773000 0.000000 0.000000 
#    y 0.000000 3.773000 0.000000 
#    z 0.000000 0.000000 3.682240 
# 
# 
# High freq. dielectric constant tensor:
#      x y z
#    x 1.789170 0.000000 0.000000 
#    y 0.000000 1.789170 0.000000 
#    z 0.000000 0.000000 1.785650 
# 
# From -- ./inp_files/7791.got.cif
#   From: 2010.03.12/outbox.cif.g09.slc.cpg/sg119_4_cif.got.tgz:7791.got - 2010.04.14 02:25:26.
