data_PCOD8310624
_publ_section_title
;
Structure prediction by ZEFSAII (Michael W. Deem and Ramdas Pophale) SiO2 
 PCOD8310624
Probable space group: P -4 N 2
;
_chemical_formula_sum "Si O2"
_cell_formula_units_Z 40
_cell_length_a 9.242196
_cell_length_b 9.242196
_cell_length_c 22.023036
_cell_angle_alpha 90.000000
_cell_angle_beta 90.000000
_cell_angle_gamma 90.000000
_cell_volume 1881.167805
_symmetry_space_group_name_H-M "P -4 N 2"
_symmetry_group_IT_number 118
_symmetry_cell_setting 'tetragonal'
loop_
_space_group_symop_operation_xyz
x,y,z
y,-x,-z
-x,-y,z
-y,x,-z
1/2+y,1/2+x,1/2-z
1/2-y,1/2-x,1/2-z
1/2-x,1/2+y,1/2+z
1/2+x,1/2-y,1/2+z
loop_
_atom_site_type_symbol
_atom_site_label
_atom_site_fract_x
_atom_site_fract_y
_atom_site_fract_z
Si Si1 0.837116 0.993383 0.252120
Si Si2 0.803680 0.303680 0.250000
Si Si3 0.190298 0.684327 0.654479
Si Si4 0.000000 0.500000 0.934190
Si Si5 0.167776 0.492148 0.363438
Si Si6 0.496123 0.725919 0.512629
O O1 0.805713 0.148744 0.282576
O O2 0.810564 0.878731 0.304669
O O3 0.736070 0.956466 0.194059
O O4 0.000000 0.000000 0.227647
O O5 0.803945 0.433033 0.298734
O O6 0.330490 0.769288 0.631149
O O7 0.072374 0.629522 0.605390
O O8 0.942588 0.630482 0.976941
O O9 0.239717 0.569013 0.421735
O O10 0.000000 0.500000 0.375398
O O11 0.621420 0.642297 0.475941
#
# Coordination Sequence:
#
# PCOD8310624 Si02
#       6
#     8   4   8   4   8   8
#     4  11  23  42  64 103 139 181 229 284 355 429
#     4  12  25  39  72 102 138 188 230 294 368 426
#     4  11  25  43  68 102 146 183 239 293 362 437
#     4  12  24  47  72  97 140 188 234 310 360 430
#     4  12  25  44  70 103 143 188 244 299 359 442
#     4  11  26  46  73 103 136 185 246 298 365 439
#
# _framework density 21.263387000000002
#
# number of rings (size 3 to 8) (size 9 to 14) (size 15 to 20)
#    0.000    0.600    5.000    2.700    8.400    1.600 
#    0.000    0.000    0.000    0.000    0.000    0.000 
#    0.000    0.000    0.000    0.000    0.000    0.000 
#
# Total GULP energy -495557.136683 kJ/mol
# GULP energy per Si atom -12388.928417 kJ/mol
# Density = 2.121499 g / cm^3
# Si number density = 21.263387 Si / 1000 Ang^3
#
#
#
# Elastic Constant Matrix: (Units=GPa)
#
#
# Indices 1 2 3 4 5 6 
#
# 1 124.3335 48.8888 42.5316 0.0000 0.0000 0.0000
# 2 48.8888 124.3335 42.5316 0.0000 0.0000 0.0000
# 3 42.5316 42.5316 116.7959 0.0000 0.0000 0.0000
# 4 0.0000 0.0000 0.0000 28.5885 0.0000 0.0000
# 5 0.0000 0.0000 0.0000 0.0000 28.5885 0.0000
# 6 0.0000 0.0000 0.0000 0.0000 0.0000 35.8364
#
#
#
# Elastic Compliance Matrix: (Units=1/GPa)
#
#
# Indices 1 2 3 4 5 6 
#
# 1 0.010142 -0.003112 -0.002560 0.000000 0.000000 0.000000
# 2 -0.003112 0.010142 -0.002560 0.000000 0.000000 0.000000
# 3 -0.002560 -0.002560 0.010426 0.000000 0.000000 0.000000
# 4 0.000000 0.000000 0.000000 0.034979 0.000000 0.000000
# 5 0.000000 0.000000 0.000000 0.000000 0.034979 0.000000
# 6 0.000000 0.000000 0.000000 0.000000 0.000000 0.027905
#
#
# Mechanical properties :
#
#
# Convention : Reuss Voigt Hill
#
# Bulk Modulus (GPa) = 70.19285 70.37412 70.28348
# Shear Modulus (GPa) = 33.38061 34.03675 33.70868
#
# Velocity S-wave (km/s) = 3.96645 4.00524 3.98589
# Velocity P-wave (km/s) = 7.35253 7.38631 7.36944
#
# Compressibility (1/GPa) = 0.01424647
#
# Stress axis : x y z
#
# Youngs Moduli (GPa) = 98.59599 98.59599 95.91022
#
# Poissons Ratio (x) = 0.30686 0.24553
# Poissons Ratio (y) = 0.30686 0.24553
# Poissons Ratio (z) = 0.25241 0.25241
#
# Static dielectric constant tensor:
#      x y z
#    x 5.141980 0.000000 0.000000 
#    y 0.000000 5.141980 0.000000 
#    z 0.000000 0.000000 3.865040 
# 
# 
# High freq. dielectric constant tensor:
#      x y z
#    x 1.838450 0.000000 0.000000 
#    y 0.000000 1.838450 0.000000 
#    z 0.000000 0.000000 1.832450 
# 
# From -- ./inp_files/6093.got.cif
#   From: 2010.03.12/outbox.cif.g09.slc.cpg/sg118_4_cif.got.tgz:6093.got - 2010.04.14 02:21:17.
