data_PCOD8310240
_publ_section_title
;
Structure prediction by ZEFSAII (Michael W. Deem and Ramdas Pophale) SiO2 
 PCOD8310240
Probable space group: P -4 C 2
;
_chemical_formula_sum "Si O2"
_cell_formula_units_Z 38
_cell_length_a 9.140060
_cell_length_b 9.140060
_cell_length_c 22.202947
_cell_angle_alpha 90.000000
_cell_angle_beta 90.000000
_cell_angle_gamma 90.000000
_cell_volume 1854.849663
_symmetry_space_group_name_H-M "P -4 C 2"
_symmetry_group_IT_number 116
_symmetry_cell_setting 'tetragonal'
loop_
_space_group_symop_operation_xyz
x,y,z
y,-x,-z
-x,-y,z
-y,x,-z
y,x,1/2-z
-y,-x,1/2-z
-x,y,1/2+z
x,-y,1/2+z
loop_
_atom_site_type_symbol
_atom_site_label
_atom_site_fract_x
_atom_site_fract_y
_atom_site_fract_z
Si Si1 0.002402 0.242960 0.249445
Si Si2 0.500000 0.500000 0.500000
Si Si3 0.377878 0.750459 0.073597
Si Si4 0.000000 0.500000 0.344196
Si Si5 0.798645 0.082744 0.981056
Si Si6 0.348718 0.066308 0.878650
O O1 0.863843 0.136157 0.250000
O O2 0.978827 0.340139 0.190554
O O3 0.015026 0.352772 0.305315
O O4 0.152405 0.152405 0.250000
O O5 0.632443 0.488483 0.452983
O O6 0.239962 0.675883 0.108987
O O7 0.474669 0.854931 0.116009
O O8 0.331100 0.831253 0.012503
O O9 0.773196 0.025443 0.913873
O O10 0.944006 0.178768 0.974783
O O11 0.500000 0.000000 0.903907
#
# Coordination Sequence:
#
# PCOD8310240 Si02
#       6
#     8   2   8   4   8   8
#     4  11  25  44  68  97 133 181 232 282 340 404
#     4  12  28  48  64 106 140 192 224 276 374 436
#     4  11  26  42  70  98 142 178 226 285 352 421
#     4  12  26  46  68 104 142 180 232 294 348 418
#     4   9  21  37  63  99 129 167 221 280 340 398
#     4  11  22  41  68  98 137 176 227 282 341 418
#
# _framework density 20.486834000000002
#
# number of rings (size 3 to 8) (size 9 to 14) (size 15 to 20)
#    0.000    1.263    3.158    1.263   10.316    3.368 
#    0.000    0.000    0.000    0.000    0.000    0.000 
#    0.000    0.000    0.000    0.000    0.000    0.000 
#
# Total GULP energy -470988.725583 kJ/mol
# GULP energy per Si atom -12394.440147 kJ/mol
# Density = 2.044021 g / cm^3
# Si number density = 20.486834 Si / 1000 Ang^3
#
#
#
# Elastic Constant Matrix: (Units=GPa)
#
#
# Indices 1 2 3 4 5 6 
#
# 1 106.7939 58.4376 42.4998 0.0000 0.0000 0.0000
# 2 58.4376 106.7939 42.4998 0.0000 0.0000 0.0000
# 3 42.4998 42.4998 93.7304 0.0000 0.0000 0.0000
# 4 0.0000 0.0000 0.0000 28.9445 0.0000 0.0000
# 5 0.0000 0.0000 0.0000 0.0000 28.9445 0.0000
# 6 0.0000 0.0000 0.0000 0.0000 0.0000 43.1231
#
#
#
# Elastic Compliance Matrix: (Units=1/GPa)
#
#
# Indices 1 2 3 4 5 6 
#
# 1 0.014287 -0.006393 -0.003579 0.000000 0.000000 0.000000
# 2 -0.006393 0.014287 -0.003579 0.000000 0.000000 0.000000
# 3 -0.003579 -0.003579 0.013915 0.000000 0.000000 0.000000
# 4 0.000000 0.000000 0.000000 0.034549 0.000000 0.000000
# 5 0.000000 0.000000 0.000000 0.000000 0.034549 0.000000
# 6 0.000000 0.000000 0.000000 0.000000 0.000000 0.023189
#
#
# Mechanical properties :
#
#
# Convention : Reuss Voigt Hill
#
# Bulk Modulus (GPa) = 64.99832 66.02139 65.50985
# Shear Modulus (GPa) = 29.93911 31.12784 30.53348
#
# Velocity S-wave (km/s) = 3.82695 3.90219 3.86475
# Velocity P-wave (km/s) = 7.16402 7.25251 7.20840
#
# Compressibility (1/GPa) = 0.01538501
#
# Stress axis : x y z
#
# Youngs Moduli (GPa) = 69.99597 69.99597 71.86735
#
# Poissons Ratio (x) = 0.44750 0.25721
# Poissons Ratio (y) = 0.44750 0.25721
# Poissons Ratio (z) = 0.25052 0.25052
#
# Static dielectric constant tensor:
#      x y z
#    x 3.769060 0.000000 0.000000 
#    y 0.000000 3.769060 0.000000 
#    z 0.000000 0.000000 3.687350 
# 
# 
# High freq. dielectric constant tensor:
#      x y z
#    x 1.807200 0.000000 0.000000 
#    y 0.000000 1.807200 0.000000 
#    z 0.000000 0.000000 1.803370 
# 
# From -- ./inp_files/4477.got.cif
#   From: 2010.03.12/outbox.cif.g09.slc.cpg/sg116_3_cif.got.tgz:4477.got - 2010.04.14 02:15:44.
