data_PCOD8310823
_publ_section_title
;
Structure prediction by ZEFSAII (Michael W. Deem and Ramdas Pophale) SiO2 
 PCOD8310823
Probable space group: I -4 M 2
;
_chemical_formula_sum "Si O2"
_cell_formula_units_Z 106
_cell_length_a 21.623420
_cell_length_b 21.623420
_cell_length_c 13.709655
_cell_angle_alpha 90.000000
_cell_angle_beta 90.000000
_cell_angle_gamma 90.000000
_cell_volume 6410.254818
_symmetry_space_group_name_H-M "I -4 M 2"
_symmetry_group_IT_number 119
_symmetry_cell_setting 'tetragonal'
loop_
_space_group_symop_operation_xyz
x,y,z
y,-x,-z
-x,-y,z
-y,x,-z
y,x,-z
-y,-x,-z
-x,y,z
x,-y,z
1/2+x,1/2+y,1/2+z
1/2+y,1/2-x,1/2-z
1/2-x,1/2-y,1/2+z
1/2-y,1/2+x,1/2-z
1/2+y,1/2+x,1/2-z
1/2-y,1/2-x,1/2-z
1/2-x,1/2+y,1/2+z
1/2+x,1/2-y,1/2+z
loop_
_atom_site_type_symbol
_atom_site_label
_atom_site_fract_x
_atom_site_fract_y
_atom_site_fract_z
Si Si1 0.000000 0.429300 0.426559
Si Si2 0.747289 0.800253 0.596634
Si Si3 0.000000 0.500000 0.250000
Si Si4 0.328653 0.304570 0.701924
Si Si5 0.929808 0.639623 0.832072
Si Si6 0.723413 0.430745 0.645678
Si Si7 0.750189 0.930455 0.921312
Si Si8 0.129793 0.371584 0.467057
O O1 0.000000 0.436991 0.310846
O O2 0.940907 0.388356 0.449762
O O3 0.000000 0.500000 0.474136
O O4 0.787281 0.787281 0.500000
O O5 0.718788 0.735893 0.636540
O O6 0.788647 0.827825 0.683526
O O7 0.697212 0.852367 0.567360
O O8 0.318150 0.378032 0.694005
O O9 0.395494 0.291139 0.657973
O O10 0.907722 0.592279 0.750000
O O11 0.930047 0.710817 0.797706
O O12 0.000000 0.621111 0.864728
O O13 0.879824 0.636867 0.917651
O O14 0.694330 0.500000 0.657167
O O15 0.730630 0.413930 0.531678
O O16 0.676828 0.917061 0.909911
O O17 0.763533 0.000000 0.895532
#
# Coordination Sequence:
#
# PCOD8310823 Si02
#       8
#     8  16   2  16  16  16  16  16
#     4  10  20  36  50  71 100 147 187 221 270 314
#     4  10  21  34  51  79 102 133 181 233 285 314
#     4   8  24  32  48  68  90 148 184 228 256 328
#     4  10  19  32  55  78  99 136 173 220 271 329
#     4  10  21  32  48  72  97 138 176 215 257 309
#     4   9  18  32  52  78 105 135 168 208 268 328
#     4   9  17  32  53  77 105 134 174 220 258 315
#     4  10  20  35  51  70 103 142 180 226 268 318
#
# _framework density 16.536003999999998
#
# number of rings (size 3 to 8) (size 9 to 14) (size 15 to 20)
#    0.226    2.113    0.000    5.434    5.283    2.566 
#    1.358    0.000    0.000    0.453    0.000    2.113 
#    0.000    0.000    0.000    1.358    0.000    0.151 
#
# Total GULP energy -656693.792968 kJ/mol
# GULP energy per Si atom -12390.448924 kJ/mol
# Density = 1.649837 g / cm^3
# Si number density = 16.536004 Si / 1000 Ang^3
#
#
#
# Elastic Constant Matrix: (Units=GPa)
#
#
# Indices 1 2 3 4 5 6 
#
# 1 103.5816 57.4861 51.3553 0.0000 0.0000 0.0000
# 2 57.4861 103.5818 51.3552 0.0000 0.0000 0.0000
# 3 51.3553 51.3552 86.8214 0.0000 0.0000 0.0000
# 4 0.0000 0.0000 0.0000 25.3518 0.0000 0.0000
# 5 0.0000 0.0000 0.0000 0.0000 25.3518 0.0000
# 6 0.0000 0.0000 0.0000 0.0000 0.0000 21.4766
#
#
#
# Elastic Compliance Matrix: (Units=1/GPa)
#
#
# Indices 1 2 3 4 5 6 
#
# 1 0.015831 -0.005863 -0.005897 0.000000 0.000000 0.000000
# 2 -0.005863 0.015831 -0.005897 0.000000 0.000000 0.000000
# 3 -0.005897 -0.005897 0.018494 0.000000 0.000000 0.000000
# 4 0.000000 0.000000 0.000000 0.039445 0.000000 0.000000
# 5 0.000000 0.000000 0.000000 0.000000 0.039445 0.000000
# 6 0.000000 0.000000 0.000000 0.000000 0.000000 0.046562
#
#
# Mechanical properties :
#
#
# Convention : Reuss Voigt Hill
#
# Bulk Modulus (GPa) = 67.36357 68.26422 67.81390
# Shear Modulus (GPa) = 23.16229 23.35526 23.25877
#
# Velocity S-wave (km/s) = 3.74668 3.76225 3.75447
# Velocity P-wave (km/s) = 7.71639 7.76173 7.73910
#
# Compressibility (1/GPa) = 0.01484482
#
# Stress axis : x y z
#
# Youngs Moduli (GPa) = 63.16566 63.16590 54.07297
#
# Poissons Ratio (x) = 0.37032 0.31884
# Poissons Ratio (y) = 0.37032 0.31884
# Poissons Ratio (z) = 0.37246 0.37246
#
# Static dielectric constant tensor:
#      x y z
#    x 2.987290 0.000000 0.000000 
#    y 0.000000 2.987290 0.000000 
#    z 0.000000 0.000000 3.065630 
# 
# 
# High freq. dielectric constant tensor:
#      x y z
#    x 1.619960 0.000000 0.000000 
#    y 0.000000 1.619960 0.000000 
#    z 0.000000 0.000000 1.627880 
# 
# From -- ./inp_files/5632.got.cif
#   From: 2010.03.12/outbox.cif.g09.slc.cpg/sg119_3_cif.got.tgz:5632.got - 2010.04.14 02:25:26.
