data_PCOD8310252
_publ_section_title
;
Structure prediction by ZEFSAII (Michael W. Deem and Ramdas Pophale) SiO2 
 PCOD8310252
Probable space group: P -4 C 2
;
_chemical_formula_sum "Si O2"
_cell_formula_units_Z 40
_cell_length_a 13.546626
_cell_length_b 13.546626
_cell_length_c 9.285037
_cell_angle_alpha 90.000000
_cell_angle_beta 90.000000
_cell_angle_gamma 90.000000
_cell_volume 1703.907130
_symmetry_space_group_name_H-M "P -4 C 2"
_symmetry_group_IT_number 116
_symmetry_cell_setting 'tetragonal'
loop_
_space_group_symop_operation_xyz
x,y,z
y,-x,-z
-x,-y,z
-y,x,-z
y,x,1/2-z
-y,-x,1/2-z
-x,y,1/2+z
x,-y,1/2+z
loop_
_atom_site_type_symbol
_atom_site_label
_atom_site_fract_x
_atom_site_fract_y
_atom_site_fract_z
Si Si1 0.596331 0.257100 0.169842
Si Si2 0.723815 0.056549 0.503936
Si Si3 0.213798 0.143135 0.391440
Si Si4 0.401278 0.728286 0.848152
Si Si5 0.042614 0.607790 0.268898
O O1 0.677059 0.322942 0.250000
O O2 0.501270 0.240094 0.270349
O O3 0.631019 0.144085 0.143386
O O4 0.574833 0.305497 0.012896
O O5 0.781598 0.160404 0.495898
O O6 0.629104 0.062081 0.398882
O O7 0.792515 0.966168 0.454685
O O8 0.684063 0.037680 0.666039
O O9 0.145280 0.145280 0.250000
O O10 0.324350 0.181127 0.354871
O O11 0.360446 0.639555 0.750000
O O12 0.000000 0.500000 0.290736
#
# Coordination Sequence:
#
# PCOD8310252 Si02
#       5
#     8   8   8   8   8
#     4  12  26  46  74 111 147 203 252 314 387 468
#     4  12  25  46  73 104 149 201 250 315 388 453
#     4  11  24  47  72 106 149 197 248 316 381 457
#     4  11  25  46  75 106 152 193 246 312 383 452
#     4  12  27  43  71 110 148 194 259 317 387 458
#
# _framework density 23.475458
#
# number of rings (size 3 to 8) (size 9 to 14) (size 15 to 20)
#    0.000    0.400    4.000    4.200    5.600    0.800 
#    0.000    3.000    0.000    0.000    0.000    0.000 
#    0.000    0.000    0.000    0.000    0.000    0.000 
#
# Total GULP energy -496019.914333 kJ/mol
# GULP energy per Si atom -12400.497858 kJ/mol
# Density = 2.342203 g / cm^3
# Si number density = 23.475458 Si / 1000 Ang^3
#
#
#
# Elastic Constant Matrix: (Units=GPa)
#
#
# Indices 1 2 3 4 5 6 
#
# 1 109.6054 50.5715 26.2543 0.0000 0.0000 0.0000
# 2 50.5715 109.6058 26.2551 0.0000 0.0000 0.0000
# 3 26.2543 26.2551 137.8394 0.0000 0.0000 0.0000
# 4 0.0000 0.0000 0.0000 36.0723 0.0000 0.0000
# 5 0.0000 0.0000 0.0000 0.0000 36.0721 0.0000
# 6 0.0000 0.0000 0.0000 0.0000 0.0000 36.3497
#
#
#
# Elastic Compliance Matrix: (Units=1/GPa)
#
#
# Indices 1 2 3 4 5 6 
#
# 1 0.011799 -0.005140 -0.001268 0.000000 0.000000 0.000000
# 2 -0.005140 0.011799 -0.001268 0.000000 0.000000 0.000000
# 3 -0.001268 -0.001268 0.007738 0.000000 0.000000 0.000000
# 4 0.000000 0.000000 0.000000 0.027722 0.000000 0.000000
# 5 0.000000 0.000000 0.000000 0.000000 0.027722 0.000000
# 6 0.000000 0.000000 0.000000 0.000000 0.000000 0.027511
#
#
# Mechanical properties :
#
#
# Convention : Reuss Voigt Hill
#
# Bulk Modulus (GPa) = 62.56885 62.57916 62.57400
# Shear Modulus (GPa) = 37.04460 38.63013 37.83737
#
# Velocity S-wave (km/s) = 3.97673 4.06094 4.01906
# Velocity P-wave (km/s) = 6.91351 6.97879 6.94623
#
# Compressibility (1/GPa) = 0.01598239
#
# Stress axis : x y z
#
# Youngs Moduli (GPa) = 84.75202 84.75208 129.23257
#
# Poissons Ratio (x) = 0.43565 0.16390
# Poissons Ratio (y) = 0.43565 0.16392
# Poissons Ratio (z) = 0.10749 0.10750
#
# Static dielectric constant tensor:
#      x y z
#    x 4.136060 0.000000 0.000000 
#    y 0.000000 4.136060 0.000000 
#    z 0.000000 0.000000 4.478570 
# 
# 
# High freq. dielectric constant tensor:
#      x y z
#    x 1.922580 0.000000 0.000000 
#    y 0.000000 1.922580 0.000000 
#    z 0.000000 0.000000 1.952470 
# 
# From -- ./inp_files/782.got.cif
#   From: 2010.03.12/outbox.cif.g09.slc.cpg/sg116_1_cif.got.tgz:782.got - 2010.04.14 02:15:44.
