data_PCOD8310877
_publ_section_title
;
Structure prediction by ZEFSAII (Michael W. Deem and Ramdas Pophale) SiO2 
 PCOD8310877
Probable space group: I -4 M 2
;
_chemical_formula_sum "Si O2"
_cell_formula_units_Z 112
_cell_length_a 14.305899
_cell_length_b 14.305899
_cell_length_c 29.472150
_cell_angle_alpha 90.000000
_cell_angle_beta 90.000000
_cell_angle_gamma 90.000000
_cell_volume 6031.733267
_symmetry_space_group_name_H-M "I -4 M 2"
_symmetry_group_IT_number 119
_symmetry_cell_setting 'tetragonal'
loop_
_space_group_symop_operation_xyz
x,y,z
y,-x,-z
-x,-y,z
-y,x,-z
y,x,-z
-y,-x,-z
-x,y,z
x,-y,z
1/2+x,1/2+y,1/2+z
1/2+y,1/2-x,1/2-z
1/2-x,1/2-y,1/2+z
1/2-y,1/2+x,1/2-z
1/2+y,1/2+x,1/2-z
1/2-y,1/2-x,1/2-z
1/2-x,1/2+y,1/2+z
1/2+x,1/2-y,1/2+z
loop_
_atom_site_type_symbol
_atom_site_label
_atom_site_fract_x
_atom_site_fract_y
_atom_site_fract_z
Si Si1 0.107820 0.606945 0.037505
Si Si2 0.395616 0.755032 0.119591
Si Si3 0.891635 0.741582 0.724324
Si Si4 0.604240 0.401417 0.446349
Si Si5 0.893298 0.256418 0.382644
Si Si6 0.611361 0.800771 0.444915
Si Si7 0.762524 0.390907 0.221825
O O1 0.127661 0.500000 0.023439
O O2 0.160399 0.634951 0.083589
O O3 0.000000 0.623537 0.048151
O O4 0.141835 0.672620 0.996163
O O5 0.500000 0.722298 0.109134
O O6 0.383255 0.783161 0.171651
O O7 0.332423 0.668592 0.104587
O O8 0.373013 0.846905 0.090638
O O9 0.846540 0.653461 0.750000
O O10 0.833876 0.836944 0.734645
O O11 0.000000 0.755562 0.739137
O O12 0.599270 0.400731 0.500000
O O13 0.500000 0.403826 0.426037
O O14 0.655367 0.500000 0.431092
O O15 0.651190 0.303240 0.431481
O O16 0.876435 0.288587 0.330940
O O17 0.000000 0.225554 0.389710
O O18 0.500000 0.805027 0.441375
O O19 0.749027 0.500000 0.233874
O O20 0.848962 0.348962 0.250000
#
# Coordination Sequence:
#
# PCOD8310877 Si02
#       7
#    16  16  16  16  16  16  16
#     4   9  18  32  49  71 101 137 175 212 252 303
#     4  10  21  35  53  77 101 128 167 215 258 300
#     4   9  19  36  56  79 105 133 169 212 260 315
#     4   8  15  28  45  67  94 124 164 207 239 283
#     4   9  19  35  53  74 102 135 171 211 254 302
#     4  10  20  32  49  73 101 136 171 209 259 306
#     4   9  18  33  54  81 109 137 171 213 259 306
#
# _framework density 18.568459000000001
#
# number of rings (size 3 to 8) (size 9 to 14) (size 15 to 20)
#    0.000    2.857    0.000    0.857    2.000    2.857 
#    0.000    5.714    0.000    3.429    0.000    8.000 
#    0.000    0.000    0.000    0.000    0.000    0.000 
#
# Total GULP energy -693986.359657 kJ/mol
# GULP energy per Si atom -12392.613565 kJ/mol
# Density = 1.852620 g / cm^3
# Si number density = 18.568459 Si / 1000 Ang^3
#
#
#
# Elastic Constant Matrix: (Units=GPa)
#
#
# Indices 1 2 3 4 5 6 
#
# 1 113.3309 61.9127 55.3226 0.0000 0.0000 0.0000
# 2 61.9127 113.3324 55.3222 0.0000 0.0000 0.0000
# 3 55.3226 55.3222 70.4844 0.0000 0.0000 0.0000
# 4 0.0000 0.0000 0.0000 26.9464 0.0000 0.0000
# 5 0.0000 0.0000 0.0000 0.0000 26.9465 0.0000
# 6 0.0000 0.0000 0.0000 0.0000 0.0000 23.4972
#
#
#
# Elastic Compliance Matrix: (Units=1/GPa)
#
#
# Indices 1 2 3 4 5 6 
#
# 1 0.015380 -0.004068 -0.008879 0.000000 0.000000 0.000000
# 2 -0.004068 0.015380 -0.008879 0.000000 0.000000 0.000000
# 3 -0.008879 -0.008879 0.028125 0.000000 0.000000 0.000000
# 4 0.000000 0.000000 0.000000 0.037111 0.000000 0.000000
# 5 0.000000 0.000000 0.000000 0.000000 0.037111 0.000000
# 6 0.000000 0.000000 0.000000 0.000000 0.000000 0.042558
#
#
# Mechanical properties :
#
#
# Convention : Reuss Voigt Hill
#
# Bulk Modulus (GPa) = 65.64078 71.36252 68.50165
# Shear Modulus (GPa) = 22.28221 23.78403 23.03312
#
# Velocity S-wave (km/s) = 3.46786 3.58283 3.52581
# Velocity P-wave (km/s) = 7.17372 7.45862 7.31756
#
# Compressibility (1/GPa) = 0.01523443
#
# Stress axis : x y z
#
# Youngs Moduli (GPa) = 65.01809 65.01994 35.55519
#
# Poissons Ratio (x) = 0.26450 0.31570
# Poissons Ratio (y) = 0.26449 0.31568
# Poissons Ratio (z) = 0.57730 0.57728
#
# Static dielectric constant tensor:
#      x y z
#    x 3.593350 0.000000 0.000000 
#    y 0.000000 3.593350 0.000000 
#    z 0.000000 0.000000 3.272250 
# 
# 
# High freq. dielectric constant tensor:
#      x y z
#    x 1.723190 0.000000 0.000000 
#    y 0.000000 1.723190 0.000000 
#    z 0.000000 0.000000 1.697880 
# 
# From -- ./inp_files/8819.got.cif
#   From: 2010.03.12/outbox.cif.g09.slc.cpg/sg119_5_cif.got.tgz:8819.got - 2010.04.14 02:25:26.
