data_PCOD8310273
_publ_section_title
;
Structure prediction by ZEFSAII (Michael W. Deem and Ramdas Pophale) SiO2 
 PCOD8310273
Probable space group: P -4 C 2
;
_chemical_formula_sum "Si O2"
_cell_formula_units_Z 36
_cell_length_a 11.409430
_cell_length_b 11.409430
_cell_length_c 12.334176
_cell_angle_alpha 90.000000
_cell_angle_beta 90.000000
_cell_angle_gamma 90.000000
_cell_volume 1605.602507
_symmetry_space_group_name_H-M "P -4 C 2"
_symmetry_group_IT_number 116
_symmetry_cell_setting 'tetragonal'
loop_
_space_group_symop_operation_xyz
x,y,z
y,-x,-z
-x,-y,z
-y,x,-z
y,x,1/2-z
-y,-x,1/2-z
-x,y,1/2+z
x,-y,1/2+z
loop_
_atom_site_type_symbol
_atom_site_label
_atom_site_fract_x
_atom_site_fract_y
_atom_site_fract_z
Si Si1 0.265467 0.193506 0.991443
Si Si2 0.888843 0.576403 0.316605
Si Si3 0.314997 0.579764 0.348468
Si Si4 0.960107 0.761376 0.130816
Si Si5 0.000000 0.000000 0.250000
Si Si6 0.500000 0.500000 0.500000
O O1 0.284827 0.300542 0.910563
O O2 0.287409 0.074820 0.925622
O O3 0.356631 0.178489 0.088225
O O4 0.136662 0.211405 0.040594
O O5 0.795895 0.476443 0.287032
O O6 0.915162 0.666113 0.218601
O O7 0.000000 0.500000 0.355034
O O8 0.401880 0.598121 0.250000
O O9 0.380634 0.492505 0.430906
O O10 0.000139 0.883163 0.180834
#
# Coordination Sequence:
#
# PCOD8310273 Si02
#       6
#     8   8   8   8   2   2
#     4  12  26  48  75 110 150 201 249 318 387 460
#     4  12  27  48  73 112 153 201 257 321 387 458
#     4  12  28  46  77 107 148 201 259 314 375 453
#     4  12  27  46  77 109 153 197 254 316 386 469
#     4  12  24  46  72 108 140 190 244 306 376 460
#     4  12  26  48  72 102 148 200 262 304 372 450
#
# _framework density 22.421489999999999
#
# number of rings (size 3 to 8) (size 9 to 14) (size 15 to 20)
#    0.000    0.000    4.444    4.333    7.778    6.222 
#    0.000    0.000    0.000    0.000    0.000    0.000 
#    0.000    0.000    0.000    0.000    0.000    0.000 
#
# Total GULP energy -446198.932043 kJ/mol
# GULP energy per Si atom -12394.414779 kJ/mol
# Density = 2.237046 g / cm^3
# Si number density = 22.421490 Si / 1000 Ang^3
#
#
#
# Elastic Constant Matrix: (Units=GPa)
#
#
# Indices 1 2 3 4 5 6 
#
# 1 128.2963 45.6904 47.4419 0.0000 0.0000 0.0000
# 2 45.6904 128.2974 47.4418 0.0000 0.0000 0.0000
# 3 47.4419 47.4418 111.3229 0.0000 0.0000 0.0000
# 4 0.0000 0.0000 0.0000 21.9751 0.0000 0.0000
# 5 0.0000 0.0000 0.0000 0.0000 21.9747 0.0000
# 6 0.0000 0.0000 0.0000 0.0000 0.0000 48.0309
#
#
#
# Elastic Compliance Matrix: (Units=1/GPa)
#
#
# Indices 1 2 3 4 5 6 
#
# 1 0.009797 -0.002309 -0.003191 0.000000 0.000000 0.000000
# 2 -0.002309 0.009797 -0.003191 0.000000 0.000000 0.000000
# 3 -0.003191 -0.003191 0.011703 0.000000 0.000000 0.000000
# 4 0.000000 0.000000 0.000000 0.045506 0.000000 0.000000
# 5 0.000000 0.000000 0.000000 0.000000 0.045507 0.000000
# 6 0.000000 0.000000 0.000000 0.000000 0.000000 0.020820
#
#
# Mechanical properties :
#
#
# Convention : Reuss Voigt Hill
#
# Bulk Modulus (GPa) = 71.86936 72.11829 71.99383
# Shear Modulus (GPa) = 30.27575 33.55233 31.91404
#
# Velocity S-wave (km/s) = 3.67863 3.87258 3.77685
# Velocity P-wave (km/s) = 7.08283 7.22706 7.15531
#
# Compressibility (1/GPa) = 0.01391413
#
# Stress axis : x y z
#
# Youngs Moduli (GPa) = 102.07489 102.07596 85.45058
#
# Poissons Ratio (x) = 0.23568 0.27268
# Poissons Ratio (y) = 0.23568 0.27267
# Poissons Ratio (z) = 0.32573 0.32572
#
# Static dielectric constant tensor:
#      x y z
#    x 4.223890 0.000000 0.000000 
#    y 0.000000 4.223890 0.000000 
#    z 0.000000 0.000000 4.210850 
# 
# 
# High freq. dielectric constant tensor:
#      x y z
#    x 1.902890 0.000000 0.000000 
#    y 0.000000 1.902890 0.000000 
#    z 0.000000 0.000000 1.890360 
# 
# From -- ./inp_files/1762.got.cif
#   From: 2010.03.12/outbox.cif.g09.slc.cpg/sg116_1_cif.got.tgz:1762.got - 2010.04.14 02:15:44.
