data_PCOD8310395
_publ_section_title
;
Structure prediction by ZEFSAII (Michael W. Deem and Ramdas Pophale) SiO2 
 PCOD8310395
Probable space group: P -4 B 2
;
_chemical_formula_sum "Si O2"
_cell_formula_units_Z 36
_cell_length_a 9.540073
_cell_length_b 9.540073
_cell_length_c 18.536288
_cell_angle_alpha 90.000000
_cell_angle_beta 90.000000
_cell_angle_gamma 90.000000
_cell_volume 1687.043047
_symmetry_space_group_name_H-M "P -4 B 2"
_symmetry_group_IT_number 117
_symmetry_cell_setting 'tetragonal'
loop_
_space_group_symop_operation_xyz
x,y,z
y,-x,-z
-x,-y,z
-y,x,-z
1/2+y,1/2+x,-z
1/2-y,1/2-x,-z
1/2-x,1/2+y,z
1/2+x,1/2-y,z
loop_
_atom_site_type_symbol
_atom_site_label
_atom_site_fract_x
_atom_site_fract_y
_atom_site_fract_z
Si Si1 0.130285 0.842922 0.968448
Si Si2 0.245041 0.745041 0.500000
Si Si3 0.877902 0.107810 0.803763
Si Si4 0.145127 0.577989 0.746021
Si Si5 0.503921 0.167077 0.413511
O O1 0.098694 0.832517 0.883772
O O2 0.236797 0.736797 0.000000
O O3 0.994230 0.809564 0.014619
O O4 0.256272 0.587741 0.529964
O O5 0.341315 0.776074 0.430355
O O6 0.865549 0.252327 0.756786
O O7 0.742887 0.006834 0.801657
O O8 0.000000 0.000000 0.778656
O O9 0.205461 0.547202 0.666453
O O10 0.000000 0.500000 0.755841
O O11 0.500000 0.000000 0.426680
#
# Coordination Sequence:
#
# PCOD8310395 Si02
#       5
#     8   4   8   8   8
#     4  11  24  44  67  99 138 175 229 288 343 414
#     4  12  20  44  70  90 138 174 216 286 336 406
#     4  12  24  46  69 102 138 181 234 290 356 427
#     4  11  26  44  71  98 139 185 232 291 354 429
#     4  11  24  45  64 101 136 171 227 283 341 408
#
# _framework density 21.339113000000001
#
# number of rings (size 3 to 8) (size 9 to 14) (size 15 to 20)
#    0.000    0.667    4.444    4.000    3.111    2.667 
#    4.000    0.000    0.000    0.000    0.000    0.000 
#    0.000    0.000    0.000    0.000    0.000    0.000 
#
# Total GULP energy -446065.291786 kJ/mol
# GULP energy per Si atom -12390.702550 kJ/mol
# Density = 2.129054 g / cm^3
# Si number density = 21.339113 Si / 1000 Ang^3
#
#
#
# Elastic Constant Matrix: (Units=GPa)
#
#
# Indices 1 2 3 4 5 6 
#
# 1 101.1967 65.8703 19.3738 0.0000 0.0000 0.0000
# 2 65.8703 101.1967 19.3738 0.0000 0.0000 0.0000
# 3 19.3738 19.3738 99.6842 0.0000 0.0000 0.0000
# 4 0.0000 0.0000 0.0000 31.0335 0.0000 0.0000
# 5 0.0000 0.0000 0.0000 0.0000 31.0335 0.0000
# 6 0.0000 0.0000 0.0000 0.0000 0.0000 52.0498
#
#
#
# Elastic Compliance Matrix: (Units=1/GPa)
#
#
# Indices 1 2 3 4 5 6 
#
# 1 0.017288 -0.011020 -0.001218 0.000000 0.000000 0.000000
# 2 -0.011020 0.017288 -0.001218 0.000000 0.000000 0.000000
# 3 -0.001218 -0.001218 0.010505 0.000000 0.000000 0.000000
# 4 0.000000 0.000000 0.000000 0.032223 0.000000 0.000000
# 5 0.000000 0.000000 0.000000 0.000000 0.032223 0.000000
# 6 0.000000 0.000000 0.000000 0.000000 0.000000 0.019212
#
#
# Mechanical properties :
#
#
# Convention : Reuss Voigt Hill
#
# Bulk Modulus (GPa) = 55.03993 56.81259 55.92626
# Shear Modulus (GPa) = 30.91990 35.98732 33.45361
#
# Velocity S-wave (km/s) = 3.81067 4.11109 3.96373
# Velocity P-wave (km/s) = 6.72388 7.01543 6.87120
#
# Compressibility (1/GPa) = 0.01816863
#
# Stress axis : x y z
#
# Youngs Moduli (GPa) = 57.84423 57.84423 95.19085
#
# Poissons Ratio (x) = 0.63742 0.11596
# Poissons Ratio (y) = 0.63742 0.11596
# Poissons Ratio (z) = 0.07047 0.07047
#
# Static dielectric constant tensor:
#      x y z
#    x 3.935230 0.000000 0.000000 
#    y 0.000000 3.935230 0.000000 
#    z 0.000000 0.000000 4.038790 
# 
# 
# High freq. dielectric constant tensor:
#      x y z
#    x 1.844370 0.000000 0.000000 
#    y 0.000000 1.844370 0.000000 
#    z 0.000000 0.000000 1.845120 
# 
# From -- ./inp_files/3438.got.cif
#   From: 2010.03.12/outbox.cif.g09.slc.cpg/sg117_2_cif.got.tgz:3438.got - 2010.04.14 02:19:01.
