data_PCOD8310707
_publ_section_title
;
Structure prediction by ZEFSAII (Michael W. Deem and Ramdas Pophale) SiO2 
 PCOD8310707
Probable space group: I -4 M 2
;
_chemical_formula_sum "Si O2"
_cell_formula_units_Z 112
_cell_length_a 17.504965
_cell_length_b 17.504965
_cell_length_c 20.808386
_cell_angle_alpha 90.000000
_cell_angle_beta 90.000000
_cell_angle_gamma 90.000000
_cell_volume 6376.184703
_symmetry_space_group_name_H-M "I -4 M 2"
_symmetry_group_IT_number 119
_symmetry_cell_setting 'tetragonal'
loop_
_space_group_symop_operation_xyz
x,y,z
y,-x,-z
-x,-y,z
-y,x,-z
y,x,-z
-y,-x,-z
-x,y,z
x,-y,z
1/2+x,1/2+y,1/2+z
1/2+y,1/2-x,1/2-z
1/2-x,1/2-y,1/2+z
1/2-y,1/2+x,1/2-z
1/2+y,1/2+x,1/2-z
1/2-y,1/2-x,1/2-z
1/2-x,1/2+y,1/2+z
1/2+x,1/2-y,1/2+z
loop_
_atom_site_type_symbol
_atom_site_label
_atom_site_fract_x
_atom_site_fract_y
_atom_site_fract_z
Si Si1 0.913982 0.697481 0.608185
Si Si2 0.807933 0.302644 0.156201
Si Si3 0.232414 0.647018 0.661576
Si Si4 0.911235 0.801108 0.962610
Si Si5 0.089756 0.771984 0.250599
Si Si6 0.413754 0.310855 0.219608
Si Si7 0.808248 0.318881 0.011596
O O1 0.855049 0.634955 0.638013
O O2 0.909175 0.777383 0.647420
O O3 0.891904 0.710827 0.533052
O O4 0.000000 0.664590 0.611417
O O5 0.740846 0.239537 0.162646
O O6 0.884309 0.257489 0.179802
O O7 0.788269 0.374635 0.200013
O O8 0.814552 0.339896 0.086095
O O9 0.295862 0.612677 0.612619
O O10 0.242650 0.608923 0.731003
O O11 0.000000 0.816843 0.969371
O O12 0.869412 0.869412 0.000000
O O13 0.889099 0.719411 0.993153
O O14 0.118351 0.857255 0.267838
O O15 0.000000 0.771057 0.255692
O O16 0.500000 0.338983 0.233608
O O17 0.743621 0.256380 0.000000
#
# Coordination Sequence:
#
# PCOD8310707 Si02
#       7
#    16  16  16  16  16  16  16
#     4  10  19  30  52  84 108 132 180 237 276 315
#     4  10  18  35  57  74 103 143 187 228 264 323
#     4  10  17  34  54  74 104 146 190 225 261 328
#     4  10  19  31  49  76 106 142 181 222 274 324
#     4  10  21  34  54  84 110 138 182 231 274 321
#     4  10  19  32  53  80 112 148 177 216 273 331
#     4  10  17  33  53  74 101 143 184 227 266 326
#
# _framework density 17.565363000000001
#
# number of rings (size 3 to 8) (size 9 to 14) (size 15 to 20)
#    0.000    2.000    5.714    0.857    0.000    1.571 
#    0.000    0.000    0.000   15.857    0.000   18.000 
#    0.000    0.000    0.000    0.000    0.000    0.000 
#
# Total GULP energy -693949.625211 kJ/mol
# GULP energy per Si atom -12391.957593 kJ/mol
# Density = 1.752538 g / cm^3
# Si number density = 17.565363 Si / 1000 Ang^3
#
#
#
# Elastic Constant Matrix: (Units=GPa)
#
#
# Indices 1 2 3 4 5 6 
#
# 1 115.0186 40.6909 39.1678 0.0000 0.0000 0.0000
# 2 40.6909 115.0183 39.1677 0.0000 0.0000 0.0000
# 3 39.1678 39.1677 127.7309 0.0000 0.0000 0.0000
# 4 0.0000 0.0000 0.0000 21.6831 0.0000 0.0000
# 5 0.0000 0.0000 0.0000 0.0000 21.6829 0.0000
# 6 0.0000 0.0000 0.0000 0.0000 0.0000 13.2287
#
#
#
# Elastic Compliance Matrix: (Units=1/GPa)
#
#
# Indices 1 2 3 4 5 6 
#
# 1 0.010524 -0.002930 -0.002329 0.000000 0.000000 0.000000
# 2 -0.002930 0.010524 -0.002329 0.000000 0.000000 0.000000
# 3 -0.002329 -0.002329 0.009257 0.000000 0.000000 0.000000
# 4 0.000000 0.000000 0.000000 0.046119 0.000000 0.000000
# 5 0.000000 0.000000 0.000000 0.000000 0.046119 0.000000
# 6 0.000000 0.000000 0.000000 0.000000 0.000000 0.075593
#
#
# Mechanical properties :
#
#
# Convention : Reuss Voigt Hill
#
# Bulk Modulus (GPa) = 66.09297 66.20229 66.14763
# Shear Modulus (GPa) = 22.89858 27.23501 25.06679
#
# Velocity S-wave (km/s) = 3.61449 3.94190 3.78174
# Velocity P-wave (km/s) = 7.42482 7.64782 7.53714
#
# Compressibility (1/GPa) = 0.01513020
#
# Stress axis : x y z
#
# Youngs Moduli (GPa) = 95.02259 95.02233 108.02605
#
# Poissons Ratio (x) = 0.27843 0.25154
# Poissons Ratio (y) = 0.27843 0.25154
# Poissons Ratio (z) = 0.22126 0.22126
#
# Static dielectric constant tensor:
#      x y z
#    x 3.063170 0.000000 0.000000 
#    y 0.000000 3.063170 0.000000 
#    z 0.000000 0.000000 3.659910 
# 
# 
# High freq. dielectric constant tensor:
#      x y z
#    x 1.652090 0.000000 0.000000 
#    y 0.000000 1.652090 0.000000 
#    z 0.000000 0.000000 1.694960 
# 
# From -- ./inp_files/8029.got.cif
#   From: 2010.03.12/outbox.cif.g09.slc.cpg/sg119_5_cif.got.tgz:8029.got - 2010.04.14 02:25:26.
