data_PCOD8310421
_publ_section_title
;
Structure prediction by ZEFSAII (Michael W. Deem and Ramdas Pophale) SiO2 
 PCOD8310421
Probable space group: P -4 B 2
;
_chemical_formula_sum "Si O2"
_cell_formula_units_Z 22
_cell_length_a 12.053052
_cell_length_b 12.053052
_cell_length_c 6.064257
_cell_angle_alpha 90.000000
_cell_angle_beta 90.000000
_cell_angle_gamma 90.000000
_cell_volume 880.991379
_symmetry_space_group_name_H-M "P -4 B 2"
_symmetry_group_IT_number 117
_symmetry_cell_setting 'tetragonal'
loop_
_space_group_symop_operation_xyz
x,y,z
y,-x,-z
-x,-y,z
-y,x,-z
1/2+y,1/2+x,-z
1/2-y,1/2-x,-z
1/2-x,1/2+y,z
1/2+x,1/2-y,z
loop_
_atom_site_type_symbol
_atom_site_label
_atom_site_fract_x
_atom_site_fract_y
_atom_site_fract_z
Si Si1 0.900738 0.188617 0.702799
Si Si2 0.453958 0.807238 0.356058
Si Si3 0.000000 0.000000 0.000000
Si Si4 0.394286 0.105715 0.000000
O O1 0.776139 0.145465 0.691402
O O2 0.884598 0.302851 0.819149
O O3 0.954559 0.224591 0.468213
O O4 0.979978 0.105303 0.840690
O O5 0.408720 0.908720 0.500000
O O6 0.492023 0.873127 0.135672
#
# Coordination Sequence:
#
# PCOD8310421 Si02
#       4
#     8   8   2   4
#     4  12  27  49  76 114 151 207 272 332 406 492
#     4  12  28  49  80 112 162 211 270 343 408 496
#     4  12  24  50  84 112 158 220 272 350 408 496
#     4  12  28  51  74 115 154 206 266 331 416 482
#
# _framework density 24.971867
#
# number of rings (size 3 to 8) (size 9 to 14) (size 15 to 20)
#    0.000    0.000    3.636    5.455    5.091    5.818 
#    0.000    0.000    0.000    0.000    0.000    0.000 
#    0.000    0.000    0.000    0.000    0.000    0.000 
#
# Total GULP energy -272622.628908 kJ/mol
# GULP energy per Si atom -12391.937678 kJ/mol
# Density = 2.491503 g / cm^3
# Si number density = 24.971867 Si / 1000 Ang^3
#
#
#
# Elastic Constant Matrix: (Units=GPa)
#
#
# Indices 1 2 3 4 5 6 
#
# 1 58.2462 87.0733 40.0613 0.0000 0.0000 0.0000
# 2 87.0733 58.2471 40.0619 0.0000 0.0000 0.0000
# 3 40.0613 40.0619 113.2029 0.0000 0.0000 0.0000
# 4 0.0000 0.0000 0.0000 44.8111 0.0000 0.0000
# 5 0.0000 0.0000 0.0000 0.0000 44.8115 0.0000
# 6 0.0000 0.0000 0.0000 0.0000 0.0000 67.9373
#
#
#
# Elastic Compliance Matrix: (Units=1/GPa)
#
#
# Indices 1 2 3 4 5 6 
#
# 1 -0.013070 0.021620 -0.003026 0.000000 0.000000 0.000000
# 2 0.021620 -0.013070 -0.003026 0.000000 0.000000 0.000000
# 3 -0.003026 -0.003026 0.010975 0.000000 0.000000 0.000000
# 4 0.000000 0.000000 0.000000 0.022316 0.000000 0.000000
# 5 0.000000 0.000000 0.000000 0.000000 0.022316 0.000000
# 6 0.000000 0.000000 0.000000 0.000000 0.000000 0.014719
#
#
# Mechanical properties :
#
#
# Convention : Reuss Voigt Hill
#
# Bulk Modulus (GPa) = 62.61026 62.67658 62.64342
# Shear Modulus (GPa) = 272.14955 35.67865 153.91410
#
# Velocity S-wave (km/s) = 10.45079 3.78399 7.85931
# Velocity P-wave (km/s) = 13.06722 6.65167 10.36815
#
# Compressibility (1/GPa) = 0.01597182
#
# Stress axis : x y z
#
# Youngs Moduli (GPa) = -76.50884 -76.50965 91.11461
#
# Poissons Ratio (x) = 1.65413 0.27568
# Poissons Ratio (y) = 1.65411 0.27567
# Poissons Ratio (z) = -0.23149 -0.23149
#
# Static dielectric constant tensor:
#      x y z
#    x 4.590170 0.000000 0.000000 
#    y 0.000000 4.590190 0.000000 
#    z 0.000000 0.000000 4.793020 
# 
# 
# High freq. dielectric constant tensor:
#      x y z
#    x 2.011790 0.000000 0.000000 
#    y 0.000000 2.011790 0.000000 
#    z 0.000000 0.000000 2.004900 
# 
# From -- ./inp_files/203.got.cif
#   From: 2010.03.12/outbox.cif.g09.slc.cpg/sg117_1_cif.got.tgz:203.got - 2010.04.14 02:19:01.
