data_PCOD8310208
_publ_section_title
;
Structure prediction by ZEFSAII (Michael W. Deem and Ramdas Pophale) SiO2 
 PCOD8310208
Probable space group: P -4 C 2
;
_chemical_formula_sum "Si O2"
_cell_formula_units_Z 48
_cell_length_a 8.843199
_cell_length_b 8.843199
_cell_length_c 26.696326
_cell_angle_alpha 90.000000
_cell_angle_beta 90.000000
_cell_angle_gamma 90.000000
_cell_volume 2087.710586
_symmetry_space_group_name_H-M "P -4 C 2"
_symmetry_group_IT_number 116
_symmetry_cell_setting 'tetragonal'
loop_
_space_group_symop_operation_xyz
x,y,z
y,-x,-z
-x,-y,z
-y,x,-z
y,x,1/2-z
-y,-x,1/2-z
-x,y,1/2+z
x,-y,1/2+z
loop_
_atom_site_type_symbol
_atom_site_label
_atom_site_fract_x
_atom_site_fract_y
_atom_site_fract_z
Si Si1 0.441248 0.835700 0.551679
Si Si2 0.429532 0.659421 0.883776
Si Si3 0.026424 0.331040 0.297567
Si Si4 0.686167 0.254208 0.454302
Si Si5 0.138062 0.109112 0.867632
Si Si6 0.125180 0.688334 0.687513
O O1 0.361566 0.746095 0.597800
O O2 0.327117 0.849504 0.504167
O O3 0.576625 0.732589 0.530531
O O4 0.500000 0.000000 0.569976
O O5 0.500000 0.500000 0.867004
O O6 0.524437 0.738826 0.927367
O O7 0.445467 0.772331 0.835851
O O8 0.183678 0.252664 0.309320
O O9 0.029811 0.345491 0.237321
O O10 0.000000 0.500000 0.319503
O O11 0.896926 0.224631 0.321562
O O12 0.819371 0.195414 0.418207
O O13 0.277229 0.004511 0.852472
O O14 0.000000 0.000000 0.879986
#
# Coordination Sequence:
#
# PCOD8310208 Si02
#       6
#     8   8   8   8   8   8
#     4  11  25  43  71 101 141 187 233 294 358 420
#     4  10  24  42  70 100 139 182 241 285 358 428
#     4  10  23  42  68 101 139 180 231 291 374 426
#     4  11  24  44  69 101 140 189 232 293 358 428
#     4  10  24  42  71 101 138 182 239 292 366 437
#     4  10  23  44  68 100 140 178 230 306 348 437
#
# _framework density 22.991689999999998
#
# number of rings (size 3 to 8) (size 9 to 14) (size 15 to 20)
#    0.000    1.667    1.667    0.500   14.000    2.000 
#    0.000    1.667    0.000    0.000    0.000    0.000 
#    0.000    0.000    0.000    0.000    0.000    0.000 
#
# Total GULP energy -594772.856905 kJ/mol
# GULP energy per Si atom -12391.101186 kJ/mol
# Density = 2.293936 g / cm^3
# Si number density = 22.991690 Si / 1000 Ang^3
#
#
#
# Elastic Constant Matrix: (Units=GPa)
#
#
# Indices 1 2 3 4 5 6 
#
# 1 93.1802 23.9480 36.2421 0.0000 0.0000 0.0000
# 2 23.9480 93.1802 36.2421 0.0000 0.0000 0.0000
# 3 36.2421 36.2421 126.5907 0.0000 0.0000 0.0000
# 4 0.0000 0.0000 0.0000 26.5667 0.0000 0.0000
# 5 0.0000 0.0000 0.0000 0.0000 26.5667 0.0000
# 6 0.0000 0.0000 0.0000 0.0000 0.0000 37.4830
#
#
#
# Elastic Compliance Matrix: (Units=1/GPa)
#
#
# Indices 1 2 3 4 5 6 
#
# 1 0.012410 -0.002034 -0.002971 0.000000 0.000000 0.000000
# 2 -0.002034 0.012410 -0.002971 0.000000 0.000000 0.000000
# 3 -0.002971 -0.002971 0.009600 0.000000 0.000000 0.000000
# 4 0.000000 0.000000 0.000000 0.037641 0.000000 0.000000
# 5 0.000000 0.000000 0.000000 0.000000 0.037641 0.000000
# 6 0.000000 0.000000 0.000000 0.000000 0.000000 0.026679
#
#
# Mechanical properties :
#
#
# Convention : Reuss Voigt Hill
#
# Bulk Modulus (GPa) = 54.14172 56.20172 55.17172
# Shear Modulus (GPa) = 31.54803 32.55789 32.05296
#
# Velocity S-wave (km/s) = 3.70827 3.76716 3.73783
# Velocity P-wave (km/s) = 6.47569 6.58934 6.53276
#
# Compressibility (1/GPa) = 0.01847005
#
# Stress axis : x y z
#
# Youngs Moduli (GPa) = 80.57974 80.57974 104.16245
#
# Poissons Ratio (x) = 0.16391 0.30942
# Poissons Ratio (y) = 0.16391 0.30942
# Poissons Ratio (z) = 0.23937 0.23937
#
# Static dielectric constant tensor:
#      x y z
#    x 4.142280 0.000000 0.000000 
#    y 0.000000 4.142280 0.000000 
#    z 0.000000 0.000000 4.036050 
# 
# 
# High freq. dielectric constant tensor:
#      x y z
#    x 1.906070 0.000000 0.000000 
#    y 0.000000 1.906070 0.000000 
#    z 0.000000 0.000000 1.906130 
# 
# From -- ./inp_files/5250.got.cif
#   From: 2010.03.12/outbox.cif.g09.slc.cpg/sg116_3_cif.got.tgz:5250.got - 2010.04.14 02:15:44.
