data_PCOD8310910
_publ_section_title
;
Structure prediction by ZEFSAII (Michael W. Deem and Ramdas Pophale) SiO2 
 PCOD8310910
Probable space group: I -4 M 2
;
_chemical_formula_sum "Si O2"
_cell_formula_units_Z 40
_cell_length_a 17.613282
_cell_length_b 17.613282
_cell_length_c 6.948025
_cell_angle_alpha 90.000000
_cell_angle_beta 90.000000
_cell_angle_gamma 90.000000
_cell_volume 2155.469835
_symmetry_space_group_name_H-M "I -4 M 2"
_symmetry_group_IT_number 119
_symmetry_cell_setting 'tetragonal'
loop_
_space_group_symop_operation_xyz
x,y,z
y,-x,-z
-x,-y,z
-y,x,-z
y,x,-z
-y,-x,-z
-x,y,z
x,-y,z
1/2+x,1/2+y,1/2+z
1/2+y,1/2-x,1/2-z
1/2-x,1/2-y,1/2+z
1/2-y,1/2+x,1/2-z
1/2+y,1/2+x,1/2-z
1/2-y,1/2-x,1/2-z
1/2-x,1/2+y,1/2+z
1/2+x,1/2-y,1/2+z
loop_
_atom_site_type_symbol
_atom_site_label
_atom_site_fract_x
_atom_site_fract_y
_atom_site_fract_z
Si Si1 0.913225 0.086776 0.000000
Si Si2 0.086603 0.233498 0.758686
Si Si3 0.310633 0.809031 0.529766
O O1 0.898126 0.146517 0.827006
O O2 0.000000 0.097833 0.077503
O O3 0.130402 0.252439 0.561172
O O4 0.000000 0.246862 0.710997
O O5 0.110155 0.297319 0.917470
O O6 0.273165 0.726836 0.500000
O O7 0.328432 0.828432 0.750000
#
# Coordination Sequence:
#
# PCOD8310910 Si02
#       3
#     8  16  16
#     4   9  16  30  54  84 122 158 182 217 278 346
#     4  10  20  34  54  84 114 145 187 233 278 331
#     4  11  19  35  58  76 106 145 188 230 276 328
#
# _framework density 18.557438000000001
#
# number of rings (size 3 to 8) (size 9 to 14) (size 15 to 20)
#    0.000    1.800    6.000    0.000    0.000    1.600 
#    0.000    2.000    0.000    9.600    0.000   22.400 
#    0.000    0.000    0.000    0.000    0.000    0.000 
#
# Total GULP energy -247808.847182 kJ/mol
# GULP energy per Si atom -12390.442359 kJ/mol
# Density = 1.851520 g / cm^3
# Si number density = 18.557438 Si / 1000 Ang^3
#
#
#
# Elastic Constant Matrix: (Units=GPa)
#
#
# Indices 1 2 3 4 5 6 
#
# 1 55.1588 90.8503 43.5259 0.0000 0.0000 0.0000
# 2 90.8503 55.1558 43.5202 0.0000 0.0000 0.0000
# 3 43.5259 43.5202 143.9891 0.0000 0.0000 0.0000
# 4 0.0000 0.0000 0.0000 19.2546 0.0000 0.0000
# 5 0.0000 0.0000 0.0000 0.0000 19.2530 0.0000
# 6 0.0000 0.0000 0.0000 0.0000 0.0000 28.1139
#
#
#
# Elastic Compliance Matrix: (Units=1/GPa)
#
#
# Indices 1 2 3 4 5 6 
#
# 1 -0.009831 0.018186 -0.002525 0.000000 0.000000 0.000000
# 2 0.018186 -0.009831 -0.002526 0.000000 0.000000 0.000000
# 3 -0.002525 -0.002526 0.008472 0.000000 0.000000 0.000000
# 4 0.000000 0.000000 0.000000 0.051936 0.000000 0.000000
# 5 0.000000 0.000000 0.000000 0.000000 0.051940 0.000000
# 6 0.000000 0.000000 0.000000 0.000000 0.000000 0.035570
#
#
# Mechanical properties :
#
#
# Convention : Reuss Voigt Hill
#
# Bulk Modulus (GPa) = 66.31556 67.78850 67.05203
# Shear Modulus (GPa) = 46.72415 18.41811 32.57113
#
# Velocity S-wave (km/s) = 5.02322 3.15380 4.19400
# Velocity P-wave (km/s) = 8.33406 7.06189 7.72421
#
# Compressibility (1/GPa) = 0.01507942
#
# Stress axis : x y z
#
# Youngs Moduli (GPa) = -101.71728 -101.71827 118.04174
#
# Poissons Ratio (x) = 1.84981 0.29802
# Poissons Ratio (y) = 1.84979 0.29816
# Poissons Ratio (z) = -0.25681 -0.25692
#
# Static dielectric constant tensor:
#      x y z
#    x 3.484130 0.000000 0.000000 
#    y 0.000000 3.484140 0.000000 
#    z 0.000000 0.000000 3.424080 
# 
# 
# High freq. dielectric constant tensor:
#      x y z
#    x 1.712560 0.000000 0.000000 
#    y 0.000000 1.712560 0.000000 
#    z 0.000000 0.000000 1.707110 
# 
# From -- ./inp_files/255.got.cif
#   From: 2010.03.12/outbox.cif.g09.slc.cpg/sg119_1_cif.got.tgz:255.got - 2010.04.14 02:25:26.
