data_PCOD8310907
_publ_section_title
;
Structure prediction by ZEFSAII (Michael W. Deem and Ramdas Pophale) SiO2 
 PCOD8310907
Probable space group: I -4 M 2
;
_chemical_formula_sum "Si O2"
_cell_formula_units_Z 88
_cell_length_a 14.284812
_cell_length_b 14.284812
_cell_length_c 23.251185
_cell_angle_alpha 90.000000
_cell_angle_beta 90.000000
_cell_angle_gamma 90.000000
_cell_volume 4744.540409
_symmetry_space_group_name_H-M "I -4 M 2"
_symmetry_group_IT_number 119
_symmetry_cell_setting 'tetragonal'
loop_
_space_group_symop_operation_xyz
x,y,z
y,-x,-z
-x,-y,z
-y,x,-z
y,x,-z
-y,-x,-z
-x,y,z
x,-y,z
1/2+x,1/2+y,1/2+z
1/2+y,1/2-x,1/2-z
1/2-x,1/2-y,1/2+z
1/2-y,1/2+x,1/2-z
1/2+y,1/2+x,1/2-z
1/2-y,1/2-x,1/2-z
1/2-x,1/2+y,1/2+z
1/2+x,1/2-y,1/2+z
loop_
_atom_site_type_symbol
_atom_site_label
_atom_site_fract_x
_atom_site_fract_y
_atom_site_fract_z
Si Si1 0.210369 0.604940 0.045003
Si Si2 0.274144 0.888925 0.860335
Si Si3 0.781842 0.893433 0.191999
Si Si4 0.221110 0.395013 0.812511
Si Si5 0.605430 0.301529 0.065646
Si Si6 0.391870 0.891870 0.750000
O O1 0.176589 0.500000 0.061866
O O2 0.151122 0.681471 0.080549
O O3 0.322209 0.614565 0.054194
O O4 0.208173 0.621222 0.975411
O O5 0.171258 0.847644 0.847925
O O6 0.337457 0.857390 0.806474
O O7 0.267511 0.000000 0.866930
O O8 0.672235 0.868718 0.186916
O O9 0.797358 0.879207 0.260813
O O10 0.800439 0.000000 0.172389
O O11 0.181148 0.500000 0.810477
O O12 0.276379 0.372352 0.869553
O O13 0.500000 0.338948 0.057946
O O14 0.500000 0.871852 0.762263
#
# Coordination Sequence:
#
# PCOD8310907 Si02
#       6
#    16  16  16  16  16   8
#     4  10  20  34  56  82 112 146 181 223 275 332
#     4  11  22  36  54  77 111 152 193 234 274 318
#     4  10  20  34  54  80 110 145 182 225 276 331
#     4   9  17  33  58  83 109 137 175 225 282 340
#     4   9  18  34  57  83 111 140 174 222 278 339
#     4   9  18  32  52  78 106 139 180 224 274 329
#
# _framework density 18.547633999999999
#
# number of rings (size 3 to 8) (size 9 to 14) (size 15 to 20)
#    0.000    2.273    1.818    1.636    0.000    2.182 
#    0.000    4.545    0.000    6.545    0.000    0.000 
#    0.000    0.000    0.000    0.000    0.000    0.000 
#
# Total GULP energy -545096.153333 kJ/mol
# GULP energy per Si atom -12388.548939 kJ/mol
# Density = 1.850542 g / cm^3
# Si number density = 18.547634 Si / 1000 Ang^3
#
#
#
# Elastic Constant Matrix: (Units=GPa)
#
#
# Indices 1 2 3 4 5 6 
#
# 1 70.9436 37.4413 20.9406 0.0000 0.0000 0.0000
# 2 37.4413 70.9436 20.9406 0.0000 0.0000 0.0000
# 3 20.9406 20.9406 66.6308 0.0000 0.0000 0.0000
# 4 0.0000 0.0000 0.0000 23.9135 0.0000 0.0000
# 5 0.0000 0.0000 0.0000 0.0000 23.9135 0.0000
# 6 0.0000 0.0000 0.0000 0.0000 0.0000 18.5860
#
#
#
# Elastic Compliance Matrix: (Units=1/GPa)
#
#
# Indices 1 2 3 4 5 6 
#
# 1 0.020175 -0.009673 -0.003300 0.000000 0.000000 0.000000
# 2 -0.009673 0.020175 -0.003300 0.000000 0.000000 0.000000
# 3 -0.003300 -0.003300 0.017083 0.000000 0.000000 0.000000
# 4 0.000000 0.000000 0.000000 0.041817 0.000000 0.000000
# 5 0.000000 0.000000 0.000000 0.000000 0.041817 0.000000
# 6 0.000000 0.000000 0.000000 0.000000 0.000000 0.053804
#
#
# Mechanical properties :
#
#
# Convention : Reuss Voigt Hill
#
# Bulk Modulus (GPa) = 40.18617 40.79590 40.49103
# Shear Modulus (GPa) = 21.21205 21.89564 21.55385
#
# Velocity S-wave (km/s) = 3.38546 3.43958 3.41263
# Velocity P-wave (km/s) = 6.08238 6.14957 6.11607
#
# Compressibility (1/GPa) = 0.02488419
#
# Stress axis : x y z
#
# Youngs Moduli (GPa) = 49.56585 49.56585 58.53912
#
# Poissons Ratio (x) = 0.47947 0.19321
# Poissons Ratio (y) = 0.47947 0.19321
# Poissons Ratio (z) = 0.16359 0.16359
#
# Static dielectric constant tensor:
#      x y z
#    x 3.287890 0.000000 0.000000 
#    y 0.000000 3.287890 0.000000 
#    z 0.000000 0.000000 3.877880 
# 
# 
# High freq. dielectric constant tensor:
#      x y z
#    x 1.702400 0.000000 0.000000 
#    y 0.000000 1.702400 0.000000 
#    z 0.000000 0.000000 1.731610 
# 
# From -- ./inp_files/9461.got.cif
#   From: 2010.03.12/outbox.cif.g09.slc.cpg/sg119_5_cif.got.tgz:9461.got - 2010.04.14 02:25:26.
