data_PCOD8310035
_publ_section_title
;
Structure prediction by ZEFSAII (Michael W. Deem and Ramdas Pophale) SiO2 
 PCOD8310035
Probable space group: P -4 M 2
;
_chemical_formula_sum "Si O2"
_cell_formula_units_Z 44
_cell_length_a 9.546183
_cell_length_b 9.546183
_cell_length_c 28.557971
_cell_angle_alpha 90.000000
_cell_angle_beta 90.000000
_cell_angle_gamma 90.000000
_cell_volume 2602.476756
_symmetry_space_group_name_H-M "P -4 M 2"
_symmetry_group_IT_number 115
_symmetry_cell_setting 'tetragonal'
loop_
_space_group_symop_operation_xyz
x,y,z
y,-x,-z
-x,-y,z
-y,x,-z
y,x,-z
-y,-x,-z
-x,y,z
x,-y,z
loop_
_atom_site_type_symbol
_atom_site_label
_atom_site_fract_x
_atom_site_fract_y
_atom_site_fract_z
Si Si1 0.166566 0.155818 0.051145
Si Si2 0.157633 0.333235 0.310719
Si Si3 0.336835 0.336835 0.500000
Si Si4 0.162535 0.336346 0.137834
Si Si5 0.666858 0.658357 0.773938
Si Si6 0.333608 0.156959 0.585642
O O1 0.220239 0.258665 0.091704
O O2 0.000000 0.149330 0.050934
O O3 0.227539 0.000000 0.060365
O O4 0.214017 0.214017 0.000000
O O5 0.159086 0.500000 0.308986
O O6 0.265823 0.272359 0.272519
O O7 0.203443 0.281015 0.362615
O O8 0.000000 0.280659 0.299354
O O9 0.305867 0.500000 0.506864
O O10 0.274514 0.260492 0.545924
O O11 0.184326 0.500000 0.129258
O O12 0.254362 0.281213 0.181198
O O13 0.000000 0.301483 0.148158
O O14 0.500000 0.657406 0.772418
O O15 0.725659 0.500000 0.776165
O O16 0.500000 0.161958 0.585199
O O17 0.280973 0.000000 0.574707
#
# Coordination Sequence:
#
# PCOD8310035 Si02
#       6
#     8   8   4   8   8   8
#     4   8  14  26  44  63  81 103 134 170 203 235
#     4   8  13  22  36  53  74 102 136 170 201 235
#     4   9  16  24  36  57  82 104 128 161 198 236
#     4   9  16  26  41  60  81 105 133 164 198 238
#     4   9  16  24  35  54  81 110 136 164 201 242
#     4   8  14  24  37  54  78 107 135 163 199 242
#
# _framework density 16.906970000000001
#
# number of rings (size 3 to 8) (size 9 to 14) (size 15 to 20)
#    0.000    3.545    0.000    2.182    0.000    2.909 
#    0.000    4.545    0.000    1.909    0.000    1.273 
#    0.000    1.455    0.000    0.000    0.000    0.000 
#
# Total GULP energy -545255.992956 kJ/mol
# GULP energy per Si atom -12392.181658 kJ/mol
# Density = 1.686849 g / cm^3
# Si number density = 16.906970 Si / 1000 Ang^3
#
#
#
# Elastic Constant Matrix: (Units=GPa)
#
#
# Indices 1 2 3 4 5 6 
#
# 1 51.5461 23.5321 60.7683 0.0000 0.0000 0.0000
# 2 23.5321 51.5461 60.7683 0.0000 0.0000 0.0000
# 3 60.7683 60.7683 191.1010 0.0000 0.0000 0.0000
# 4 0.0000 0.0000 0.0000 18.8780 0.0000 0.0000
# 5 0.0000 0.0000 0.0000 0.0000 18.8780 0.0000
# 6 0.0000 0.0000 0.0000 0.0000 0.0000 6.6122
#
#
#
# Elastic Compliance Matrix: (Units=1/GPa)
#
#
# Indices 1 2 3 4 5 6 
#
# 1 0.031573 -0.004124 -0.008729 0.000000 0.000000 0.000000
# 2 -0.004124 0.031573 -0.008729 0.000000 0.000000 0.000000
# 3 -0.008729 -0.008729 0.010784 0.000000 0.000000 0.000000
# 4 0.000000 0.000000 0.000000 0.052972 0.000000 0.000000
# 5 0.000000 0.000000 0.000000 0.000000 0.052972 0.000000
# 6 0.000000 0.000000 0.000000 0.000000 0.000000 0.151236
#
#
# Mechanical properties :
#
#
# Convention : Reuss Voigt Hill
#
# Bulk Modulus (GPa) = 32.50099 64.92559 48.71329
# Shear Modulus (GPa) = 13.00299 18.81529 15.90914
#
# Velocity S-wave (km/s) = 2.77626 3.33959 3.07087
# Velocity P-wave (km/s) = 5.43525 7.30449 6.43807
#
# Compressibility (1/GPa) = 0.03076830
#
# Stress axis : x y z
#
# Youngs Moduli (GPa) = 31.67272 31.67272 92.72933
#
# Poissons Ratio (x) = 0.13060 0.80940
# Poissons Ratio (y) = 0.13060 0.80940
# Poissons Ratio (z) = 0.27646 0.27646
#
# Static dielectric constant tensor:
#      x y z
#    x 2.899900 0.000000 0.000000 
#    y 0.000000 2.899900 0.000000 
#    z 0.000000 0.000000 3.655890 
# 
# 
# High freq. dielectric constant tensor:
#      x y z
#    x 1.607970 0.000000 0.000000 
#    y 0.000000 1.607970 0.000000 
#    z 0.000000 0.000000 1.671020 
# 
# From -- ./inp_files/5697.got.cif
#   From: 2010.03.12/outbox.cif.g09.slc.cpg/sg115_3_cif.got.tgz:5697.got - 2010.04.14 02:11:21.
