data_PCOD8310876
_publ_section_title
;
Structure prediction by ZEFSAII (Michael W. Deem and Ramdas Pophale) SiO2 
 PCOD8310876
Probable space group: I -4 M 2
;
_chemical_formula_sum "Si O2"
_cell_formula_units_Z 72
_cell_length_a 13.444501
_cell_length_b 13.444501
_cell_length_c 21.761033
_cell_angle_alpha 90.000000
_cell_angle_beta 90.000000
_cell_angle_gamma 90.000000
_cell_volume 3933.406971
_symmetry_space_group_name_H-M "I -4 M 2"
_symmetry_group_IT_number 119
_symmetry_cell_setting 'tetragonal'
loop_
_space_group_symop_operation_xyz
x,y,z
y,-x,-z
-x,-y,z
-y,x,-z
y,x,-z
-y,-x,-z
-x,y,z
x,-y,z
1/2+x,1/2+y,1/2+z
1/2+y,1/2-x,1/2-z
1/2-x,1/2-y,1/2+z
1/2-y,1/2+x,1/2-z
1/2+y,1/2+x,1/2-z
1/2-y,1/2-x,1/2-z
1/2-x,1/2+y,1/2+z
1/2+x,1/2-y,1/2+z
loop_
_atom_site_type_symbol
_atom_site_label
_atom_site_fract_x
_atom_site_fract_y
_atom_site_fract_z
Si Si1 0.892169 0.116979 0.568314
Si Si2 0.885733 0.883576 0.812701
Si Si3 0.798551 0.701450 0.250000
Si Si4 0.612864 0.295383 0.558362
Si Si5 0.385364 0.808395 0.877117
O O1 0.855035 0.144966 0.500000
O O2 0.806618 0.150912 0.615230
O O3 0.000000 0.166766 0.584075
O O4 0.906298 0.000000 0.571848
O O5 0.816913 0.817610 0.767529
O O6 0.863486 0.855885 0.883581
O O7 0.000000 0.858403 0.797601
O O8 0.862543 0.000000 0.801173
O O9 0.834900 0.632922 0.193689
O O10 0.681624 0.318377 0.500000
O O11 0.500000 0.317379 0.538994
O O12 0.623151 0.179821 0.577775
O O13 0.500000 0.824492 0.895208
#
# Coordination Sequence:
#
# PCOD8310876 Si02
#       5
#    16  16   8  16  16
#     4   8  14  26  46  72  99 125 155 195 245 298
#     4   9  18  33  53  76 101 131 170 214 256 300
#     4  10  20  32  48  74 106 138 174 212 250 292
#     4  10  20  34  53  76  99 126 165 211 257 302
#     4  10  20  33  49  72 103 136 169 206 250 302
#
# _framework density 18.304742000000001
#
# number of rings (size 3 to 8) (size 9 to 14) (size 15 to 20)
#    0.000    2.667    0.000    2.667    0.000    3.333 
#    0.000    2.222    0.000    6.000    0.000    0.000 
#    0.000    0.000    0.000    0.000    0.000    0.000 
#
# Total GULP energy -446239.072415 kJ/mol
# GULP energy per Si atom -12395.529789 kJ/mol
# Density = 1.826308 g / cm^3
# Si number density = 18.304742 Si / 1000 Ang^3
#
#
#
# Elastic Constant Matrix: (Units=GPa)
#
#
# Indices 1 2 3 4 5 6 
#
# 1 78.9204 32.6248 35.7344 0.0000 0.0000 0.0000
# 2 32.6248 78.9223 35.7348 0.0000 0.0000 0.0000
# 3 35.7344 35.7348 96.4768 0.0000 0.0000 0.0000
# 4 0.0000 0.0000 0.0000 -129.4069 -0.0001 0.0000
# 5 0.0000 0.0000 0.0000 -0.0001 -120.6212 0.0000
# 6 0.0000 0.0000 0.0000 0.0000 0.0000 25.3852
#
#
#
# Elastic Compliance Matrix: (Units=1/GPa)
#
#
# Indices 1 2 3 4 5 6 
#
# 1 0.016677 -0.004923 -0.004354 0.000000 0.000000 0.000000
# 2 -0.004923 0.016677 -0.004354 0.000000 0.000000 0.000000
# 3 -0.004354 -0.004354 0.013590 0.000000 0.000000 0.000000
# 4 0.000000 0.000000 0.000000 -0.007728 0.000000 0.000000
# 5 0.000000 0.000000 0.000000 0.000000 -0.008290 0.000000
# 6 0.000000 0.000000 0.000000 0.000000 0.000000 0.039393
#
#
# Mechanical properties :
#
#
# Convention : Reuss Voigt Hill
#
# Bulk Modulus (GPa) = 50.80234 51.38974 51.09604
# Shear Modulus (GPa) = 48.01144 -34.91355 6.54895
#
# Velocity S-wave (km/s) = 5.12698 -4.37206 1.89354
# Velocity P-wave (km/s) = 7.92854 1.62756 5.72323
#
# Compressibility (1/GPa) = 0.01968413
#
# Stress axis : x y z
#
# Youngs Moduli (GPa) = 59.96149 59.96296 73.58118
#
# Poissons Ratio (x) = 0.29518 0.32036
# Poissons Ratio (y) = 0.29517 0.32035
# Poissons Ratio (z) = 0.26106 0.26106
#
# Static dielectric constant tensor:
#      x y z
#    x 65.805640 -0.000020 0.000000 
#    y -0.000020 69.615700 0.000000 
#    z 0.000000 0.000000 3.439520 
# 
# 
# High freq. dielectric constant tensor:
#      x y z
#    x 1.693410 0.000000 0.000000 
#    y 0.000000 1.693410 0.000000 
#    z 0.000000 0.000000 1.708750 
# 
# From -- ./inp_files/6396.got.cif
#   From: 2010.03.12/outbox.cif.g09.slc.cpg/sg119_4_cif.got.tgz:6396.got - 2010.04.14 02:25:26.
