data_PCOD8310109
_publ_section_title
;
Structure prediction by ZEFSAII (Michael W. Deem and Ramdas Pophale) SiO2 
 PCOD8310109
Probable space group: P -4 C 2
;
_chemical_formula_sum "Si O2"
_cell_formula_units_Z 60
_cell_length_a 15.219897
_cell_length_b 15.219897
_cell_length_c 12.619442
_cell_angle_alpha 90.000000
_cell_angle_beta 90.000000
_cell_angle_gamma 90.000000
_cell_volume 2923.233982
_symmetry_space_group_name_H-M "P -4 C 2"
_symmetry_group_IT_number 116
_symmetry_cell_setting 'tetragonal'
loop_
_space_group_symop_operation_xyz
x,y,z
y,-x,-z
-x,-y,z
-y,x,-z
y,x,1/2-z
-y,-x,1/2-z
-x,y,1/2+z
x,-y,1/2+z
loop_
_atom_site_type_symbol
_atom_site_label
_atom_site_fract_x
_atom_site_fract_y
_atom_site_fract_z
Si Si1 0.409673 0.515889 0.859478
Si Si2 0.450541 0.082787 0.217143
Si Si3 0.786460 0.117624 0.344771
Si Si4 0.254418 0.065817 0.274625
Si Si5 0.826251 0.596058 0.654356
Si Si6 0.795746 0.175699 0.576818
Si Si7 0.647467 0.352534 0.250000
Si Si8 0.761810 0.602760 0.434711
O O1 0.500000 0.500000 0.926208
O O2 0.436313 0.563687 0.750000
O O3 0.371601 0.417782 0.847144
O O4 0.338698 0.578786 0.912276
O O5 0.358621 0.048713 0.264990
O O6 0.516369 0.113724 0.308378
O O7 0.437673 0.167666 0.145058
O O8 0.500000 0.000000 0.159587
O O9 0.818238 0.181763 0.250000
O O10 0.682094 0.115501 0.364161
O O11 0.828800 0.141603 0.460370
O O12 0.804727 0.018374 0.306510
O O13 0.241285 0.134747 0.369907
O O14 0.219298 0.095864 0.159119
O O15 0.749027 0.628997 0.730096
O O16 0.783942 0.560626 0.546866
O O17 0.707987 0.233020 0.562925
#
# Coordination Sequence:
#
# PCOD8310109 Si02
#       8
#     8   8   8   8   8   8   4   8
#     4   9  20  37  59  84 119 168 217 264 305 368
#     4  11  22  41  66  96 129 165 213 272 330 388
#     4  11  23  41  68  96 130 170 205 263 329 392
#     4  10  22  43  69  93 132 166 215 274 316 397
#     4  11  22  41  59  93 129 164 213 257 327 383
#     4   9  23  42  66  97 125 172 218 260 334 398
#     4  10  19  40  56  78 128 163 204 262 308 378
#     4  10  22  40  63  90 127 168 216 267 320 394
#
# _framework density 20.525213999999998
#
# number of rings (size 3 to 8) (size 9 to 14) (size 15 to 20)
#    0.000    2.000    3.333    0.000    5.600    0.533 
#   14.400    2.000    0.000    0.000    0.000    0.000 
#    0.000    0.000    0.000    0.000    0.000    0.000 
#
# Total GULP energy -743370.224041 kJ/mol
# GULP energy per Si atom -12389.503734 kJ/mol
# Density = 2.047850 g / cm^3
# Si number density = 20.525214 Si / 1000 Ang^3
#
#
#
# Elastic Constant Matrix: (Units=GPa)
#
#
# Indices 1 2 3 4 5 6 
#
# 1 88.3527 17.5598 27.8632 0.0000 0.0000 0.0000
# 2 17.5598 88.3512 27.8628 0.0000 0.0000 0.0000
# 3 27.8632 27.8628 114.5623 0.0000 0.0000 0.0000
# 4 0.0000 0.0000 0.0000 8.7236 0.0000 0.0000
# 5 0.0000 0.0000 0.0000 0.0000 8.7246 0.0000
# 6 0.0000 0.0000 0.0000 0.0000 0.0000 30.4224
#
#
#
# Elastic Compliance Matrix: (Units=1/GPa)
#
#
# Indices 1 2 3 4 5 6 
#
# 1 0.012477 -0.001649 -0.002633 0.000000 0.000000 0.000000
# 2 -0.001649 0.012477 -0.002633 0.000000 0.000000 0.000000
# 3 -0.002633 -0.002633 0.010010 0.000000 0.000000 0.000000
# 4 0.000000 0.000000 0.000000 0.114631 0.000000 0.000000
# 5 0.000000 0.000000 0.000000 0.000000 0.114619 0.000000
# 6 0.000000 0.000000 0.000000 0.000000 0.000000 0.032870
#
#
# Mechanical properties :
#
#
# Convention : Reuss Voigt Hill
#
# Bulk Modulus (GPa) = 47.32355 48.64866 47.98610
# Shear Modulus (GPa) = 15.72529 24.10615 19.91572
#
# Velocity S-wave (km/s) = 2.77093 3.43077 3.11835
# Velocity P-wave (km/s) = 5.77441 6.28068 6.03286
#
# Compressibility (1/GPa) = 0.02113113
#
# Stress axis : x y z
#
# Youngs Moduli (GPa) = 80.15055 80.14931 99.90208
#
# Poissons Ratio (x) = 0.13219 0.26308
# Poissons Ratio (y) = 0.13219 0.26308
# Poissons Ratio (z) = 0.21106 0.21106
#
# Static dielectric constant tensor:
#      x y z
#    x 3.848950 0.000000 0.000000 
#    y 0.000000 3.848960 0.000000 
#    z 0.000000 0.000000 3.695180 
# 
# 
# High freq. dielectric constant tensor:
#      x y z
#    x 1.803030 0.000000 0.000000 
#    y 0.000000 1.803030 0.000000 
#    z 0.000000 0.000000 1.798440 
# 
# From -- ./inp_files/2788.got.cif
#   From: 2010.03.12/outbox.cif.g09.slc.cpg/sg116_2_cif.got.tgz:2788.got - 2010.04.14 02:15:44.
