data_PCOD8310137
_publ_section_title
;
Structure prediction by ZEFSAII (Michael W. Deem and Ramdas Pophale) SiO2 
 PCOD8310137
Probable space group: P -4 C 2
;
_chemical_formula_sum "Si O2"
_cell_formula_units_Z 56
_cell_length_a 14.663960
_cell_length_b 14.663960
_cell_length_c 13.174306
_cell_angle_alpha 90.000000
_cell_angle_beta 90.000000
_cell_angle_gamma 90.000000
_cell_volume 2832.893717
_symmetry_space_group_name_H-M "P -4 C 2"
_symmetry_group_IT_number 116
_symmetry_cell_setting 'tetragonal'
loop_
_space_group_symop_operation_xyz
x,y,z
y,-x,-z
-x,-y,z
-y,x,-z
y,x,1/2-z
-y,-x,1/2-z
-x,y,1/2+z
x,-y,1/2+z
loop_
_atom_site_type_symbol
_atom_site_label
_atom_site_fract_x
_atom_site_fract_y
_atom_site_fract_z
Si Si1 0.301982 0.069796 0.110689
Si Si2 0.638666 0.528608 0.993866
Si Si3 0.860397 0.978798 0.984394
Si Si4 0.075902 0.428359 0.962237
Si Si5 0.213030 0.615920 0.629760
Si Si6 0.222485 0.898674 0.813248
Si Si7 0.206240 0.545337 0.854337
O O1 0.292748 0.057670 0.232109
O O2 0.369117 0.155766 0.088944
O O3 0.334259 0.972273 0.067316
O O4 0.204585 0.083627 0.055577
O O5 0.698687 0.483309 0.905112
O O6 0.592062 0.442270 0.052455
O O7 0.694065 0.594568 0.070159
O O8 0.806503 0.021348 0.889430
O O9 0.939526 0.907725 0.950237
O O10 0.138770 0.458986 0.867421
O O11 0.000000 0.500000 0.987062
O O12 0.129833 0.425100 0.067111
O O13 0.190307 0.724776 0.638778
O O14 0.223263 0.566797 0.737520
O O15 0.135378 0.864623 0.750000
#
# Coordination Sequence:
#
# PCOD8310137 Si02
#       7
#     8   8   8   8   8   8   8
#     4  10  20  38  59  87 118 152 199 249 295 359
#     4  10  23  40  58  86 122 156 193 244 301 355
#     4  11  23  39  58  84 123 160 196 249 297 348
#     4   9  18  36  59  88 121 150 192 248 306 355
#     4  10  21  36  64  85 115 159 195 246 295 358
#     4  11  22  37  62  89 112 158 208 244 296 360
#     4   9  21  38  60  91 115 151 201 247 293 368
#
# _framework density 19.767772000000001
#
# number of rings (size 3 to 8) (size 9 to 14) (size 15 to 20)
#    0.000    2.000    2.857    0.000    4.000    4.000 
#    2.571    1.429    0.000    1.714    0.000    0.000 
#    0.000    0.000    0.000    0.000    0.000    0.000 
#
# Total GULP energy -693793.405880 kJ/mol
# GULP energy per Si atom -12389.167962 kJ/mol
# Density = 1.972278 g / cm^3
# Si number density = 19.767772 Si / 1000 Ang^3
#
#
#
# Elastic Constant Matrix: (Units=GPa)
#
#
# Indices 1 2 3 4 5 6 
#
# 1 73.1293 21.5949 20.9414 0.0000 0.0000 0.0000
# 2 21.5949 73.1285 20.9411 0.0000 0.0000 0.0000
# 3 20.9414 20.9411 74.0463 0.0000 0.0000 0.0000
# 4 0.0000 0.0000 0.0000 24.2473 0.0000 0.0000
# 5 0.0000 0.0000 0.0000 0.0000 24.2475 0.0000
# 6 0.0000 0.0000 0.0000 0.0000 0.0000 25.3236
#
#
#
# Elastic Compliance Matrix: (Units=1/GPa)
#
#
# Indices 1 2 3 4 5 6 
#
# 1 0.015735 -0.003669 -0.003412 0.000000 0.000000 0.000000
# 2 -0.003669 0.015735 -0.003412 0.000000 0.000000 0.000000
# 3 -0.003412 -0.003412 0.015435 0.000000 0.000000 0.000000
# 4 0.000000 0.000000 0.000000 0.041242 0.000000 0.000000
# 5 0.000000 0.000000 0.000000 0.000000 0.041241 0.000000
# 6 0.000000 0.000000 0.000000 0.000000 0.000000 0.039489
#
#
# Mechanical properties :
#
#
# Convention : Reuss Voigt Hill
#
# Bulk Modulus (GPa) = 38.58423 38.58432 38.58427
# Shear Modulus (GPa) = 25.18828 25.21879 25.20353
#
# Velocity S-wave (km/s) = 3.57348 3.57564 3.57456
# Velocity P-wave (km/s) = 6.04876 6.05047 6.04961
#
# Compressibility (1/GPa) = 0.02591733
#
# Stress axis : x y z
#
# Youngs Moduli (GPa) = 63.55188 63.55136 64.78702
#
# Poissons Ratio (x) = 0.23320 0.22108
# Poissons Ratio (y) = 0.23320 0.22108
# Poissons Ratio (z) = 0.21686 0.21686
#
# Static dielectric constant tensor:
#      x y z
#    x 3.856000 0.000000 0.000000 
#    y 0.000000 3.856000 0.000000 
#    z 0.000000 0.000000 3.441650 
# 
# 
# High freq. dielectric constant tensor:
#      x y z
#    x 1.780200 0.000000 0.000000 
#    y 0.000000 1.780200 0.000000 
#    z 0.000000 0.000000 1.746530 
# 
# From -- ./inp_files/2001.got.cif
#   From: 2010.03.12/outbox.cif.g09.slc.cpg/sg116_2_cif.got.tgz:2001.got - 2010.04.14 02:15:44.
