data_PCOD8310459
_publ_section_title
;
Structure prediction by ZEFSAII (Michael W. Deem and Ramdas Pophale) SiO2 
 PCOD8310459
Probable space group: P -4 N 2
;
_chemical_formula_sum "Si O2"
_cell_formula_units_Z 56
_cell_length_a 14.363237
_cell_length_b 14.363237
_cell_length_c 13.413628
_cell_angle_alpha 90.000000
_cell_angle_beta 90.000000
_cell_angle_gamma 90.000000
_cell_volume 2767.266025
_symmetry_space_group_name_H-M "P -4 N 2"
_symmetry_group_IT_number 118
_symmetry_cell_setting 'tetragonal'
loop_
_space_group_symop_operation_xyz
x,y,z
y,-x,-z
-x,-y,z
-y,x,-z
1/2+y,1/2+x,1/2-z
1/2-y,1/2-x,1/2-z
1/2-x,1/2+y,1/2+z
1/2+x,1/2-y,1/2+z
loop_
_atom_site_type_symbol
_atom_site_label
_atom_site_fract_x
_atom_site_fract_y
_atom_site_fract_z
Si Si1 0.630485 0.550747 0.957908
Si Si2 0.658927 0.430030 0.789318
Si Si3 0.750769 0.565198 0.436898
Si Si4 0.662965 0.068637 0.510276
Si Si5 0.412678 0.768356 0.780286
Si Si6 0.591872 0.708687 0.424072
Si Si7 0.412053 0.132343 0.143696
O O1 0.616811 0.521329 0.842269
O O2 0.622633 0.451368 0.016909
O O3 0.732553 0.594730 0.973746
O O4 0.598306 0.338425 0.815293
O O5 0.661359 0.453446 0.673118
O O6 0.759996 0.408341 0.831634
O O7 0.843984 0.593503 0.496493
O O8 0.772055 0.530217 0.323566
O O9 0.688860 0.658037 0.443768
O O10 0.695328 0.480582 0.486689
O O11 0.673710 0.039711 0.628493
O O12 0.614078 0.993276 0.437989
O O13 0.311601 0.811601 0.750000
O O14 0.606401 0.817773 0.411158
O O15 0.423674 0.076327 0.250000
#
# Coordination Sequence:
#
# PCOD8310459 Si02
#       7
#     8   8   8   8   8   8   8
#     4  10  19  30  50  88 124 147 181 243 313 371
#     4   9  16  33  56  83 109 153 192 240 302 368
#     4  10  22  38  59  83 111 159 209 254 300 362
#     4  10  19  34  61  87 117 152 199 245 304 365
#     4   9  16  32  57  80 107 150 206 247 291 357
#     4  10  21  39  58  81 115 153 206 248 295 365
#     4   9  18  34  61  87 116 151 187 235 299 372
#
# _framework density 20.236578999999999
#
# number of rings (size 3 to 8) (size 9 to 14) (size 15 to 20)
#    0.000    2.429    1.429    3.000    2.000    0.857 
#    2.571    9.286    0.000    7.714    0.000    0.000 
#    0.000    0.000    0.000    0.000    0.000    0.000 
#
# Total GULP energy -693861.965696 kJ/mol
# GULP energy per Si atom -12390.392245 kJ/mol
# Density = 2.019052 g / cm^3
# Si number density = 20.236579 Si / 1000 Ang^3
#
#
#
# Elastic Constant Matrix: (Units=GPa)
#
#
# Indices 1 2 3 4 5 6 
#
# 1 46.9630 13.2737 40.3178 0.0000 0.0000 0.0000
# 2 13.2737 46.9635 40.3177 0.0000 0.0000 0.0000
# 3 40.3178 40.3177 142.0267 0.0000 0.0000 0.0000
# 4 0.0000 0.0000 0.0000 34.6282 0.0000 0.0000
# 5 0.0000 0.0000 0.0000 0.0000 34.6283 0.0000
# 6 0.0000 0.0000 0.0000 0.0000 0.0000 15.8981
#
#
#
# Elastic Compliance Matrix: (Units=1/GPa)
#
#
# Indices 1 2 3 4 5 6 
#
# 1 0.028230 -0.001453 -0.007601 0.000000 0.000000 0.000000
# 2 -0.001453 0.028229 -0.007601 0.000000 0.000000 0.000000
# 3 -0.007601 -0.007601 0.011356 0.000000 0.000000 0.000000
# 4 0.000000 0.000000 0.000000 0.028878 0.000000 0.000000
# 5 0.000000 0.000000 0.000000 0.000000 0.028878 0.000000
# 6 0.000000 0.000000 0.000000 0.000000 0.000000 0.062901
#
#
# Mechanical properties :
#
#
# Convention : Reuss Voigt Hill
#
# Bulk Modulus (GPa) = 28.98173 47.08575 38.03374
# Shear Modulus (GPa) = 21.43301 26.50050 23.96676
#
# Velocity S-wave (km/s) = 3.25795 3.62268 3.44514
# Velocity P-wave (km/s) = 5.33899 6.38878 5.88733
#
# Compressibility (1/GPa) = 0.03450449
#
# Stress axis : x y z
#
# Youngs Moduli (GPa) = 35.42362 35.42424 88.05581
#
# Poissons Ratio (x) = 0.05148 0.66933
# Poissons Ratio (y) = 0.05148 0.66931
# Poissons Ratio (z) = 0.26926 0.26926
#
# Static dielectric constant tensor:
#      x y z
#    x 3.460340 0.000000 0.000000 
#    y 0.000000 3.460340 0.000000 
#    z 0.000000 0.000000 4.181510 
# 
# 
# High freq. dielectric constant tensor:
#      x y z
#    x 1.767660 0.000000 0.000000 
#    y 0.000000 1.767660 0.000000 
#    z 0.000000 0.000000 1.803260 
# 
# From -- ./inp_files/4250.got.cif
#   From: 2010.03.12/outbox.cif.g09.slc.cpg/sg118_3_cif.got.tgz:4250.got - 2010.04.14 02:21:17.
