data_PCOD8310222
_publ_section_title
;
Structure prediction by ZEFSAII (Michael W. Deem and Ramdas Pophale) SiO2 
 PCOD8310222
Probable space group: P -4 C 2
;
_chemical_formula_sum "Si O2"
_cell_formula_units_Z 24
_cell_length_a 9.500770
_cell_length_b 9.500770
_cell_length_c 9.978568
_cell_angle_alpha 90.000000
_cell_angle_beta 90.000000
_cell_angle_gamma 90.000000
_cell_volume 900.711754
_symmetry_space_group_name_H-M "P -4 C 2"
_symmetry_group_IT_number 116
_symmetry_cell_setting 'tetragonal'
loop_
_space_group_symop_operation_xyz
x,y,z
y,-x,-z
-x,-y,z
-y,x,-z
y,x,1/2-z
-y,-x,1/2-z
-x,y,1/2+z
x,-y,1/2+z
loop_
_atom_site_type_symbol
_atom_site_label
_atom_site_fract_x
_atom_site_fract_y
_atom_site_fract_z
Si Si1 0.252068 0.760949 0.077367
Si Si2 0.064356 0.247395 0.335014
Si Si3 0.471097 0.844659 0.866858
O O1 0.243418 0.614623 0.161065
O O2 0.259761 0.895397 0.176671
O O3 0.108230 0.768903 0.989699
O O4 0.382709 0.758034 0.975937
O O5 0.111502 0.111502 0.250000
O O6 0.138363 0.386897 0.272751
O O7 0.500000 0.000000 0.927837
#
# Coordination Sequence:
#
# PCOD8310222 Si02
#       3
#     8   8   8
#     4  11  24  52  79 110 164 203 264 330 390 475
#     4  10  25  50  76 117 155 206 265 324 402 465
#     4  11  25  48  79 114 157 209 255 326 399 464
#
# _framework density 26.645593000000002
#
# number of rings (size 3 to 8) (size 9 to 14) (size 15 to 20)
#    0.000    1.333    3.333    0.000    4.667    2.667 
#    6.000    0.000    7.333    0.000    0.000    0.000 
#    0.000    0.000    0.000    0.000    0.000    0.000 
#
# Total GULP energy -297697.153077 kJ/mol
# GULP energy per Si atom -12404.048045 kJ/mol
# Density = 2.658495 g / cm^3
# Si number density = 26.645593 Si / 1000 Ang^3
#
#
#
# Elastic Constant Matrix: (Units=GPa)
#
#
# Indices 1 2 3 4 5 6 
#
# 1 163.4915 62.1105 47.8396 0.0000 0.0000 0.0000
# 2 62.1105 163.4915 47.8396 0.0000 0.0000 0.0000
# 3 47.8396 47.8396 104.3109 0.0000 0.0000 0.0000
# 4 0.0000 0.0000 0.0000 43.2945 0.0000 0.0000
# 5 0.0000 0.0000 0.0000 0.0000 43.2945 0.0000
# 6 0.0000 0.0000 0.0000 0.0000 0.0000 48.7638
#
#
#
# Elastic Compliance Matrix: (Units=1/GPa)
#
#
# Indices 1 2 3 4 5 6 
#
# 1 0.007683 -0.002180 -0.002524 0.000000 0.000000 0.000000
# 2 -0.002180 0.007683 -0.002524 0.000000 0.000000 0.000000
# 3 -0.002524 -0.002524 0.011902 0.000000 0.000000 0.000000
# 4 0.000000 0.000000 0.000000 0.023098 0.000000 0.000000
# 5 0.000000 0.000000 0.000000 0.000000 0.023098 0.000000
# 6 0.000000 0.000000 0.000000 0.000000 0.000000 0.020507
#
#
# Mechanical properties :
#
#
# Convention : Reuss Voigt Hill
#
# Bulk Modulus (GPa) = 78.04937 82.98591 80.51764
# Shear Modulus (GPa) = 44.36662 45.30421 44.83541
#
# Velocity S-wave (km/s) = 4.08495 4.12788 4.10647
# Velocity P-wave (km/s) = 7.18361 7.34378 7.26414
#
# Compressibility (1/GPa) = 0.01281240
#
# Stress axis : x y z
#
# Youngs Moduli (GPa) = 130.15149 130.15149 84.02190
#
# Poissons Ratio (x) = 0.28378 0.21205
# Poissons Ratio (y) = 0.28378 0.21205
# Poissons Ratio (z) = 0.32847 0.32847
#
# Static dielectric constant tensor:
#      x y z
#    x 4.941400 0.000000 0.000000 
#    y 0.000000 4.941400 0.000000 
#    z 0.000000 0.000000 4.553300 
# 
# 
# High freq. dielectric constant tensor:
#      x y z
#    x 2.065680 0.000000 0.000000 
#    y 0.000000 2.065680 0.000000 
#    z 0.000000 0.000000 2.080190 
# 
# From -- ./inp_files/2283.got.cif
#   From: 2010.03.12/outbox.cif.g09.slc.cpg/sg116_2_cif.got.tgz:2283.got - 2010.04.14 02:15:44.
