data_PCOD8310650
_publ_section_title
;
Structure prediction by ZEFSAII (Michael W. Deem and Ramdas Pophale) SiO2 
 PCOD8310650
Probable space group: P -4 N 2
;
_chemical_formula_sum "Si O2"
_cell_formula_units_Z 20
_cell_length_a 9.559014
_cell_length_b 9.559014
_cell_length_c 9.325714
_cell_angle_alpha 90.000000
_cell_angle_beta 90.000000
_cell_angle_gamma 90.000000
_cell_volume 852.134773
_symmetry_space_group_name_H-M "P -4 N 2"
_symmetry_group_IT_number 118
_symmetry_cell_setting 'tetragonal'
loop_
_space_group_symop_operation_xyz
x,y,z
y,-x,-z
-x,-y,z
-y,x,-z
1/2+y,1/2+x,1/2-z
1/2-y,1/2-x,1/2-z
1/2-x,1/2+y,1/2+z
1/2+x,1/2-y,1/2+z
loop_
_atom_site_type_symbol
_atom_site_label
_atom_site_fract_x
_atom_site_fract_y
_atom_site_fract_z
Si Si1 0.694003 0.805998 0.750000
Si Si2 0.403710 0.132714 0.452337
Si Si3 0.499527 0.333639 0.214689
O O1 0.583946 0.833288 0.621544
O O2 0.691874 0.658206 0.827256
O O3 0.459478 0.269976 0.370212
O O4 0.243592 0.097834 0.403599
O O5 0.500000 0.000000 0.412806
O O6 0.500000 0.500000 0.215253
#
# Coordination Sequence:
#
# PCOD8310650 Si02
#       3
#     4   8   8
#     4  12  27  41  78 106 140 184 248 298 352 430
#     4  11  25  51  72 102 147 192 236 300 365 419
#     4  11  26  46  74 105 144 192 237 294 360 431
#
# _framework density 23.470462999999999
#
# number of rings (size 3 to 8) (size 9 to 14) (size 15 to 20)
#    0.000    0.800    4.000    1.800   11.200    0.000 
#    7.200    0.000    0.000    0.000    0.000    0.000 
#    0.000    0.000    0.000    0.000    0.000    0.000 
#
# Total GULP energy -247796.807430 kJ/mol
# GULP energy per Si atom -12389.840371 kJ/mol
# Density = 2.341704 g / cm^3
# Si number density = 23.470463 Si / 1000 Ang^3
#
#
#
# Elastic Constant Matrix: (Units=GPa)
#
#
# Indices 1 2 3 4 5 6 
#
# 1 120.8740 40.9397 13.3456 0.0000 0.0000 0.0000
# 2 40.9397 120.8730 13.3460 0.0000 0.0000 0.0000
# 3 13.3456 13.3460 151.9850 0.0000 0.0000 0.0000
# 4 0.0000 0.0000 0.0000 23.4548 0.0000 0.0000
# 5 0.0000 0.0000 0.0000 0.0000 23.4550 0.0000
# 6 0.0000 0.0000 0.0000 0.0000 0.0000 29.5338
#
#
#
# Elastic Compliance Matrix: (Units=1/GPa)
#
#
# Indices 1 2 3 4 5 6 
#
# 1 0.009391 -0.003120 -0.000551 0.000000 0.000000 0.000000
# 2 -0.003120 0.009391 -0.000551 0.000000 0.000000 0.000000
# 3 -0.000551 -0.000551 0.006676 0.000000 0.000000 0.000000
# 4 0.000000 0.000000 0.000000 0.042635 0.000000 0.000000
# 5 0.000000 0.000000 0.000000 0.000000 0.042635 0.000000
# 6 0.000000 0.000000 0.000000 0.000000 0.000000 0.033859
#
#
# Mechanical properties :
#
#
# Convention : Reuss Voigt Hill
#
# Bulk Modulus (GPa) = 58.77052 58.77718 58.77385
# Shear Modulus (GPa) = 31.50579 37.02876 34.26727
#
# Velocity S-wave (km/s) = 3.66780 3.97630 3.82516
# Velocity P-wave (km/s) = 6.55984 6.79549 6.67871
#
# Compressibility (1/GPa) = 0.01701533
#
# Stress axis : x y z
#
# Youngs Moduli (GPa) = 106.49028 106.48930 149.78353
#
# Poissons Ratio (x) = 0.33222 0.08247
# Poissons Ratio (y) = 0.33223 0.08248
# Poissons Ratio (z) = 0.05864 0.05864
#
# Static dielectric constant tensor:
#      x y z
#    x 4.138670 0.000000 0.000000 
#    y 0.000000 4.138670 0.000000 
#    z 0.000000 0.000000 4.080090 
# 
# 
# High freq. dielectric constant tensor:
#      x y z
#    x 1.930200 0.000000 0.000000 
#    y 0.000000 1.930200 0.000000 
#    z 0.000000 0.000000 1.934300 
# 
# From -- ./inp_files/2541.got.cif
#   From: 2010.03.12/outbox.cif.g09.slc.cpg/sg118_2_cif.got.tgz:2541.got - 2010.04.14 02:21:17.
