data_PCOD8310007
_publ_section_title
;
Structure prediction by ZEFSAII (Michael W. Deem and Ramdas Pophale) SiO2 
 PCOD8310007
Probable space group: P -4 M 2
;
_chemical_formula_sum "Si O2"
_cell_formula_units_Z 48
_cell_length_a 9.365698
_cell_length_b 9.365698
_cell_length_c 30.759556
_cell_angle_alpha 90.000000
_cell_angle_beta 90.000000
_cell_angle_gamma 90.000000
_cell_volume 2698.114412
_symmetry_space_group_name_H-M "P -4 M 2"
_symmetry_group_IT_number 115
_symmetry_cell_setting 'tetragonal'
loop_
_space_group_symop_operation_xyz
x,y,z
y,-x,-z
-x,-y,z
-y,x,-z
y,x,-z
-y,-x,-z
-x,y,z
x,-y,z
loop_
_atom_site_type_symbol
_atom_site_label
_atom_site_fract_x
_atom_site_fract_y
_atom_site_fract_z
Si Si1 0.832103 0.834748 0.193493
Si Si2 0.835973 0.836323 0.949413
Si Si3 0.667075 0.667610 0.120422
Si Si4 0.166136 0.334058 0.628727
Si Si5 0.830462 0.842223 0.709467
Si Si6 0.659211 0.329679 0.547398
O O1 0.741524 0.736299 0.162007
O O2 0.789541 0.786591 0.242424
O O3 0.000000 0.811058 0.185448
O O4 0.792677 0.000000 0.185256
O O5 0.733309 0.731458 0.923405
O O6 0.000000 0.803404 0.937255
O O7 0.800386 0.000000 0.937323
O O8 0.808603 0.808603 0.000000
O O9 0.500000 0.702102 0.121994
O O10 0.697726 0.500000 0.120533
O O11 0.198957 0.500000 0.633695
O O12 0.230128 0.261251 0.672081
O O13 0.241458 0.269759 0.585882
O O14 0.000000 0.301547 0.623402
O O15 0.000000 0.847149 0.707546
O O16 0.768104 0.000000 0.700918
O O17 0.719188 0.280813 0.500000
O O18 0.500000 0.269589 0.555131
O O19 0.656888 0.500000 0.547503
#
# Coordination Sequence:
#
# PCOD8310007 Si02
#       6
#     8   8   8   8   8   8
#     4   9  18  34  56  77  95 123 167 210 244 286
#     4   9  19  37  60  83 104 129 167 211 248 287
#     4  11  24  37  49  73 109 141 167 200 245 293
#     4   9  16  26  43  67  90 112 144 186 227 268
#     4   8  15  29  48  69  93 120 149 185 232 283
#     4   8  14  26  43  60  81 114 152 184 219 268
#
# _framework density 17.790203000000002
#
# number of rings (size 3 to 8) (size 9 to 14) (size 15 to 20)
#    0.000    3.000    0.000    3.000    0.000    5.333 
#    0.000    5.833    0.000    4.500    0.000    0.000 
#    0.000    0.000    0.000    0.000    0.000    0.000 
#
# Total GULP energy -595016.354271 kJ/mol
# GULP energy per Si atom -12396.174047 kJ/mol
# Density = 1.774971 g / cm^3
# Si number density = 17.790203 Si / 1000 Ang^3
#
#
#
# Elastic Constant Matrix: (Units=GPa)
#
#
# Indices 1 2 3 4 5 6 
#
# 1 75.0610 54.3443 70.3320 0.0000 0.0000 0.0000
# 2 54.3443 75.0611 70.3320 0.0000 0.0000 0.0000
# 3 70.3320 70.3320 162.6061 0.0000 0.0000 0.0000
# 4 0.0000 0.0000 0.0000 15.7543 0.0000 0.0000
# 5 0.0000 0.0000 0.0000 0.0000 15.7548 0.0000
# 6 0.0000 0.0000 0.0000 0.0000 0.0000 22.2721
#
#
#
# Elastic Compliance Matrix: (Units=1/GPa)
#
#
# Indices 1 2 3 4 5 6 
#
# 1 0.031428 -0.016843 -0.006308 0.000000 0.000000 0.000000
# 2 -0.016843 0.031427 -0.006308 0.000000 0.000000 0.000000
# 3 -0.006308 -0.006308 0.011607 0.000000 0.000000 0.000000
# 4 0.000000 0.000000 0.000000 0.063475 0.000000 0.000000
# 5 0.000000 0.000000 0.000000 0.000000 0.063473 0.000000
# 6 0.000000 0.000000 0.000000 0.000000 0.000000 0.044899
#
#
# Mechanical properties :
#
#
# Convention : Reuss Voigt Hill
#
# Bulk Modulus (GPa) = 64.33691 78.08273 71.20982
# Shear Modulus (GPa) = 16.10779 18.60423 17.35601
#
# Velocity S-wave (km/s) = 3.01230 3.23732 3.12684
# Velocity P-wave (km/s) = 6.95280 7.61314 7.29045
#
# Compressibility (1/GPa) = 0.01554318
#
# Stress axis : x y z
#
# Youngs Moduli (GPa) = 31.81923 31.81931 86.15508
#
# Poissons Ratio (x) = 0.53592 0.54350
# Poissons Ratio (y) = 0.53592 0.54350
# Poissons Ratio (z) = 0.20073 0.20073
#
# Static dielectric constant tensor:
#      x y z
#    x 3.170970 0.000000 0.000000 
#    y 0.000000 3.170970 0.000000 
#    z 0.000000 0.000000 3.679420 
# 
# 
# High freq. dielectric constant tensor:
#      x y z
#    x 1.665090 0.000000 0.000000 
#    y 0.000000 1.665090 0.000000 
#    z 0.000000 0.000000 1.707740 
# 
# From -- ./inp_files/6104.got.cif
#   From: 2010.03.12/outbox.cif.g09.slc.cpg/sg115_4_cif.got.tgz:6104.got - 2010.04.14 02:11:21.
