data_PCOD8310023
_publ_section_title
;
Structure prediction by ZEFSAII (Michael W. Deem and Ramdas Pophale) SiO2 
 PCOD8310023
Probable space group: P -4 M 2
;
_chemical_formula_sum "Si O2"
_cell_formula_units_Z 44
_cell_length_a 9.607891
_cell_length_b 9.607891
_cell_length_c 28.413296
_cell_angle_alpha 90.000000
_cell_angle_beta 90.000000
_cell_angle_gamma 90.000000
_cell_volume 2622.875948
_symmetry_space_group_name_H-M "P -4 M 2"
_symmetry_group_IT_number 115
_symmetry_cell_setting 'tetragonal'
loop_
_space_group_symop_operation_xyz
x,y,z
y,-x,-z
-x,-y,z
-y,x,-z
y,x,-z
-y,-x,-z
-x,y,z
x,-y,z
loop_
_atom_site_type_symbol
_atom_site_label
_atom_site_fract_x
_atom_site_fract_y
_atom_site_fract_z
Si Si1 0.657091 0.834741 0.410972
Si Si2 0.653750 0.834738 0.140623
Si Si3 0.335511 0.159034 0.035802
Si Si4 0.165522 0.844764 0.777484
Si Si5 0.838302 0.838302 0.500000
Si Si6 0.165494 0.843344 0.673164
O O1 0.500000 0.774235 0.413356
O O2 0.744299 0.788878 0.456515
O O3 0.735558 0.772970 0.365032
O O4 0.651995 0.000000 0.407847
O O5 0.500000 0.771952 0.147680
O O6 0.710459 0.796870 0.088666
O O7 0.749442 0.768822 0.181540
O O8 0.647184 0.000000 0.145193
O O9 0.500000 0.177230 0.030128
O O10 0.291922 0.000000 0.025634
O O11 0.258997 0.258997 0.000000
O O12 0.211529 0.793187 0.725427
O O13 0.000000 0.843065 0.780833
O O14 0.221901 0.000000 0.785821
O O15 0.000000 0.813273 0.487188
O O16 0.000000 0.846141 0.669634
O O17 0.221251 0.000000 0.663272
#
# Coordination Sequence:
#
# PCOD8310023 Si02
#       6
#     8   8   8   8   4   8
#     4   9  16  24  35  53  75  99 132 172 205 236
#     4   8  14  24  36  51  75 106 137 171 211 253
#     4   9  18  31  45  63  87 114 147 186 225 267
#     4   8  13  20  31  49  74 105 138 168 200 244
#     4   9  16  26  40  55  74 104 134 159 198 248
#     4   8  13  21  32  48  74 106 136 166 202 244
#
# _framework density 16.775480000000002
#
# number of rings (size 3 to 8) (size 9 to 14) (size 15 to 20)
#    0.000    3.545    0.000    2.727    0.000    4.000 
#    0.000    5.455    0.000    0.273    0.000    0.000 
#    0.000    1.455    0.000   13.091    0.000   19.636 
#
# Total GULP energy -545224.131309 kJ/mol
# GULP energy per Si atom -12391.457530 kJ/mol
# Density = 1.673730 g / cm^3
# Si number density = 16.775480 Si / 1000 Ang^3
#
#
#
# Elastic Constant Matrix: (Units=GPa)
#
#
# Indices 1 2 3 4 5 6 
#
# 1 50.7431 21.9062 57.8639 0.0000 0.0000 0.0000
# 2 21.9062 50.7431 57.8639 0.0000 0.0000 0.0000
# 3 57.8639 57.8639 172.9086 0.0000 0.0000 0.0000
# 4 0.0000 0.0000 0.0000 3.1737 0.0000 0.0000
# 5 0.0000 0.0000 0.0000 0.0000 3.1737 0.0000
# 6 0.0000 0.0000 0.0000 0.0000 0.0000 10.0219
#
#
#
# Elastic Compliance Matrix: (Units=1/GPa)
#
#
# Indices 1 2 3 4 5 6 
#
# 1 0.032079 -0.002599 -0.009866 0.000000 0.000000 0.000000
# 2 -0.002599 0.032079 -0.009866 0.000000 0.000000 0.000000
# 3 -0.009866 -0.009866 0.012386 0.000000 0.000000 0.000000
# 4 0.000000 0.000000 0.000000 0.315088 0.000000 0.000000
# 5 0.000000 0.000000 0.000000 0.000000 0.315088 0.000000
# 6 0.000000 0.000000 0.000000 0.000000 0.000000 0.099781
#
#
# Mechanical properties :
#
#
# Convention : Reuss Voigt Hill
#
# Bulk Modulus (GPa) = 31.36295 61.07363 46.21829
# Shear Modulus (GPa) = 5.80188 12.39125 9.09657
#
# Velocity S-wave (km/s) = 1.86174 2.72076 2.33116
# Velocity P-wave (km/s) = 4.83298 6.80849 5.90395
#
# Compressibility (1/GPa) = 0.03188476
#
# Stress axis : x y z
#
# Youngs Moduli (GPa) = 31.17295 31.17295 80.73321
#
# Poissons Ratio (x) = 0.08101 0.79648
# Poissons Ratio (y) = 0.08101 0.79648
# Poissons Ratio (z) = 0.30754 0.30754
#
# Static dielectric constant tensor:
#      x y z
#    x 2.901440 0.000000 0.000000 
#    y 0.000000 2.901440 0.000000 
#    z 0.000000 0.000000 3.487950 
# 
# 
# High freq. dielectric constant tensor:
#      x y z
#    x 1.601970 0.000000 0.000000 
#    y 0.000000 1.601970 0.000000 
#    z 0.000000 0.000000 1.664700 
# 
# From -- ./inp_files/5759.got.cif
#   From: 2010.03.12/outbox.cif.g09.slc.cpg/sg115_3_cif.got.tgz:5759.got - 2010.04.14 02:11:21.
