data_PCOD8310361
_publ_section_title
;
Structure prediction by ZEFSAII (Michael W. Deem and Ramdas Pophale) SiO2 
 PCOD8310361
Probable space group: P -4 B 2
;
_chemical_formula_sum "Si O2"
_cell_formula_units_Z 34
_cell_length_a 8.996275
_cell_length_b 8.996275
_cell_length_c 18.917458
_cell_angle_alpha 90.000000
_cell_angle_beta 90.000000
_cell_angle_gamma 90.000000
_cell_volume 1531.045945
_symmetry_space_group_name_H-M "P -4 B 2"
_symmetry_group_IT_number 117
_symmetry_cell_setting 'tetragonal'
loop_
_space_group_symop_operation_xyz
x,y,z
y,-x,-z
-x,-y,z
-y,x,-z
1/2+y,1/2+x,-z
1/2-y,1/2-x,-z
1/2-x,1/2+y,z
1/2+x,1/2-y,z
loop_
_atom_site_type_symbol
_atom_site_label
_atom_site_fract_x
_atom_site_fract_y
_atom_site_fract_z
Si Si1 0.000000 0.000000 0.000000
Si Si2 0.920642 0.354029 0.792338
Si Si3 0.364482 0.888365 0.419571
Si Si4 0.123635 0.891439 0.135174
Si Si5 0.355212 0.585529 0.338780
O O1 0.107709 0.100622 0.950194
O O2 0.773148 0.395297 0.835226
O O3 0.878899 0.250975 0.726806
O O4 0.000000 0.500000 0.761254
O O5 0.039818 0.282900 0.845947
O O6 0.338386 0.838386 0.500000
O O7 0.397221 0.742682 0.373304
O O8 0.500000 0.000000 0.411540
O O9 0.217939 0.974801 0.395325
O O10 0.000000 0.000000 0.170353
O O11 0.500000 0.500000 0.310512
#
# Coordination Sequence:
#
# PCOD8310361 Si02
#       5
#     2   8   8   8   8
#     4   8  24  48  72 104 152 184 234 300 356 444
#     4  12  25  45  74 108 145 194 245 307 369 437
#     4  11  27  46  71 106 143 191 248 306 376 452
#     4  10  23  46  71 103 148 190 243 297 365 440
#     4  12  27  46  74 103 147 194 245 309 374 441
#
# _framework density 22.207042999999999
#
# number of rings (size 3 to 8) (size 9 to 14) (size 15 to 20)
#    0.706    0.235    0.000    5.647    6.588    6.588 
#    0.000    3.529    0.000    0.000    0.000    0.000 
#    0.000    0.000    0.000    0.000    0.000    0.000 
#
# Total GULP energy -421648.041962 kJ/mol
# GULP energy per Si atom -12401.412999 kJ/mol
# Density = 2.215650 g / cm^3
# Si number density = 22.207043 Si / 1000 Ang^3
#
#
#
# Elastic Constant Matrix: (Units=GPa)
#
#
# Indices 1 2 3 4 5 6 
#
# 1 130.4620 40.7060 52.7242 0.0000 0.0000 0.0000
# 2 40.7060 130.4620 52.7242 0.0000 0.0000 0.0000
# 3 52.7242 52.7242 164.6262 0.0000 0.0000 0.0000
# 4 0.0000 0.0000 0.0000 17.9125 0.0000 0.0000
# 5 0.0000 0.0000 0.0000 0.0000 17.9125 0.0000
# 6 0.0000 0.0000 0.0000 0.0000 0.0000 43.3187
#
#
#
# Elastic Compliance Matrix: (Units=1/GPa)
#
#
# Indices 1 2 3 4 5 6 
#
# 1 0.009210 -0.001932 -0.002331 0.000000 0.000000 0.000000
# 2 -0.001932 0.009210 -0.002331 0.000000 0.000000 0.000000
# 3 -0.002331 -0.002331 0.007567 0.000000 0.000000 0.000000
# 4 0.000000 0.000000 0.000000 0.055827 0.000000 0.000000
# 5 0.000000 0.000000 0.000000 0.000000 0.055827 0.000000
# 6 0.000000 0.000000 0.000000 0.000000 0.000000 0.023085
#
#
# Mechanical properties :
#
#
# Convention : Reuss Voigt Hill
#
# Bulk Modulus (GPa) = 78.12506 79.76210 78.94358
# Shear Modulus (GPa) = 28.06166 34.45513 31.25840
#
# Velocity S-wave (km/s) = 3.55863 3.94323 3.75586
# Velocity P-wave (km/s) = 7.22093 7.53177 7.37799
#
# Compressibility (1/GPa) = 0.01279999
#
# Stress axis : x y z
#
# Youngs Moduli (GPa) = 108.58040 108.58040 132.14531
#
# Poissons Ratio (x) = 0.20973 0.30803
# Poissons Ratio (y) = 0.20973 0.30803
# Poissons Ratio (z) = 0.25310 0.25310
#
# Static dielectric constant tensor:
#      x y z
#    x 4.166920 0.000000 0.000000 
#    y 0.000000 4.166920 0.000000 
#    z 0.000000 0.000000 4.012460 
# 
# 
# High freq. dielectric constant tensor:
#      x y z
#    x 1.881570 0.000000 0.000000 
#    y 0.000000 1.881570 0.000000 
#    z 0.000000 0.000000 1.879190 
# 
# From -- ./inp_files/3434.got.cif
#   From: 2010.03.12/outbox.cif.g09.slc.cpg/sg117_2_cif.got.tgz:3434.got - 2010.04.14 02:19:01.
