data_PCOD8310359
_publ_section_title
;
Structure prediction by ZEFSAII (Michael W. Deem and Ramdas Pophale) SiO2 
 PCOD8310359
Probable space group: P -4 B 2
;
_chemical_formula_sum "Si O2"
_cell_formula_units_Z 34
_cell_length_a 9.137323
_cell_length_b 9.137323
_cell_length_c 18.538303
_cell_angle_alpha 90.000000
_cell_angle_beta 90.000000
_cell_angle_gamma 90.000000
_cell_volume 1547.775368
_symmetry_space_group_name_H-M "P -4 B 2"
_symmetry_group_IT_number 117
_symmetry_cell_setting 'tetragonal'
loop_
_space_group_symop_operation_xyz
x,y,z
y,-x,-z
-x,-y,z
-y,x,-z
1/2+y,1/2+x,-z
1/2-y,1/2-x,-z
1/2-x,1/2+y,z
1/2+x,1/2-y,z
loop_
_atom_site_type_symbol
_atom_site_label
_atom_site_fract_x
_atom_site_fract_y
_atom_site_fract_z
Si Si1 0.084321 0.855652 0.838945
Si Si2 0.133315 0.392222 0.083328
Si Si3 0.811946 0.569732 0.629149
Si Si4 0.905006 0.282973 0.685551
Si Si5 0.000000 0.500000 0.500000
O O1 0.244495 0.887369 0.871003
O O2 0.100169 0.755901 0.768905
O O3 0.980273 0.779265 0.897384
O O4 0.000000 0.000000 0.814747
O O5 0.000000 0.500000 0.099915
O O6 0.148477 0.351524 0.000000
O O7 0.806323 0.429531 0.681331
O O8 0.658217 0.653618 0.633987
O O9 0.933218 0.685394 0.656603
O O10 0.854151 0.507458 0.549694
#
# Coordination Sequence:
#
# PCOD8310359 Si02
#       5
#     8   8   8   8   2
#     4  12  27  44  73  98 137 187 237 291 366 425
#     4  11  28  46  69 101 138 180 234 300 358 437
#     4  10  23  42  70  98 147 171 234 279 342 419
#     4  10  24  41  65 102 133 179 225 290 337 413
#     4   8  20  44  64 102 132 194 210 284 336 406
#
# _framework density 21.967013999999999
#
# number of rings (size 3 to 8) (size 9 to 14) (size 15 to 20)
#    0.000    1.647    0.000    2.824   19.765    3.765 
#    0.000    0.000    0.000   11.294    0.000    0.000 
#    0.000    0.000    0.000    0.000    0.000    0.000 
#
# Total GULP energy -421584.396384 kJ/mol
# GULP energy per Si atom -12399.541070 kJ/mol
# Density = 2.191702 g / cm^3
# Si number density = 21.967014 Si / 1000 Ang^3
#
#
#
# Elastic Constant Matrix: (Units=GPa)
#
#
# Indices 1 2 3 4 5 6 
#
# 1 102.9899 41.4633 56.1563 0.0000 0.0000 0.0000
# 2 41.4633 102.9902 56.1563 0.0000 0.0000 0.0000
# 3 56.1563 56.1563 163.1846 0.0000 0.0000 0.0000
# 4 0.0000 0.0000 0.0000 25.1382 0.0000 0.0000
# 5 0.0000 0.0000 0.0000 0.0000 25.1382 0.0000
# 6 0.0000 0.0000 0.0000 0.0000 0.0000 58.4623
#
#
#
# Elastic Compliance Matrix: (Units=1/GPa)
#
#
# Indices 1 2 3 4 5 6 
#
# 1 0.012852 -0.003401 -0.003253 0.000000 0.000000 0.000000
# 2 -0.003401 0.012852 -0.003253 0.000000 0.000000 0.000000
# 3 -0.003253 -0.003253 0.008367 0.000000 0.000000 0.000000
# 4 0.000000 0.000000 0.000000 0.039780 0.000000 0.000000
# 5 0.000000 0.000000 0.000000 0.000000 0.039780 0.000000
# 6 0.000000 0.000000 0.000000 0.000000 0.000000 0.017105
#
#
# Mechanical properties :
#
#
# Convention : Reuss Voigt Hill
#
# Bulk Modulus (GPa) = 70.12869 75.19072 72.65971
# Shear Modulus (GPa) = 32.19548 36.10699 34.15124
#
# Velocity S-wave (km/s) = 3.83251 4.05864 3.94720
# Velocity P-wave (km/s) = 7.18178 7.50111 7.34318
#
# Compressibility (1/GPa) = 0.01425950
#
# Stress axis : x y z
#
# Youngs Moduli (GPa) = 77.80701 77.80728 119.52302
#
# Poissons Ratio (x) = 0.26461 0.38875
# Poissons Ratio (y) = 0.26461 0.38875
# Poissons Ratio (z) = 0.25307 0.25307
#
# Static dielectric constant tensor:
#      x y z
#    x 4.071550 0.000000 0.000000 
#    y 0.000000 4.071550 0.000000 
#    z 0.000000 0.000000 3.994370 
# 
# 
# High freq. dielectric constant tensor:
#      x y z
#    x 1.869560 0.000000 0.000000 
#    y 0.000000 1.869560 0.000000 
#    z 0.000000 0.000000 1.866020 
# 
# From -- ./inp_files/3422.got.cif
#   From: 2010.03.12/outbox.cif.g09.slc.cpg/sg117_2_cif.got.tgz:3422.got - 2010.04.14 02:19:01.
