data_PCOD8310554
_publ_section_title
;
Structure prediction by ZEFSAII (Michael W. Deem and Ramdas Pophale) SiO2 
 PCOD8310554
Probable space group: P -4 N 2
;
_chemical_formula_sum "Si O2"
_cell_formula_units_Z 48
_cell_length_a 14.380682
_cell_length_b 14.380682
_cell_length_c 11.633148
_cell_angle_alpha 90.000000
_cell_angle_beta 90.000000
_cell_angle_gamma 90.000000
_cell_volume 2405.781711
_symmetry_space_group_name_H-M "P -4 N 2"
_symmetry_group_IT_number 118
_symmetry_cell_setting 'tetragonal'
loop_
_space_group_symop_operation_xyz
x,y,z
y,-x,-z
-x,-y,z
-y,x,-z
1/2+y,1/2+x,1/2-z
1/2-y,1/2-x,1/2-z
1/2-x,1/2+y,1/2+z
1/2+x,1/2-y,1/2+z
loop_
_atom_site_type_symbol
_atom_site_label
_atom_site_fract_x
_atom_site_fract_y
_atom_site_fract_z
Si Si1 0.398920 0.101081 0.750000
Si Si2 0.572023 0.693427 0.754384
Si Si3 0.033242 0.138851 0.041034
Si Si4 0.251165 0.921942 0.313164
Si Si5 0.000000 0.500000 0.058412
Si Si6 0.419461 0.827869 0.419252
Si Si7 0.014417 0.848725 0.496806
O O1 0.410190 0.205156 0.702177
O O2 0.467101 0.083142 0.857874
O O3 0.495887 0.643065 0.674680
O O4 0.665163 0.632639 0.756089
O O5 0.532145 0.708639 0.881696
O O6 0.111572 0.059010 0.031930
O O7 0.074373 0.237341 0.999910
O O8 0.311482 0.851101 0.391510
O O9 0.308320 0.966060 0.206120
O O10 0.219181 0.006929 0.393891
O O11 0.967712 0.584350 0.978320
O O12 0.917789 0.901628 0.479475
#
# Coordination Sequence:
#
# PCOD8310554 Si02
#       7
#     4   8   8   8   4   8   8
#     4  11  22  38  60  92 124 165 222 262 318 395
#     4  11  21  39  64  91 126 170 215 267 326 385
#     4  11  24  39  65 100 130 164 212 277 330 383
#     4  10  22  38  62  88 126 170 213 260 324 393
#     4  11  24  39  62  90 126 171 217 266 320 386
#     4  11  22  41  61  91 127 166 216 261 326 390
#     4   9  20  36  60  91 127 171 219 267 322 387
#
# _framework density 19.951936
#
# number of rings (size 3 to 8) (size 9 to 14) (size 15 to 20)
#    0.000    1.500    3.333    2.000    2.333    2.667 
#    0.000    0.000    0.000    0.000    0.000    0.000 
#    0.000    0.000    0.000    0.000    0.000    0.000 
#
# Total GULP energy -595105.728914 kJ/mol
# GULP energy per Si atom -12398.036019 kJ/mol
# Density = 1.990652 g / cm^3
# Si number density = 19.951936 Si / 1000 Ang^3
#
#
#
# Elastic Constant Matrix: (Units=GPa)
#
#
# Indices 1 2 3 4 5 6 
#
# 1 73.0511 8.8483 36.1803 0.0000 0.0000 0.0000
# 2 8.8483 73.0515 36.1801 0.0000 0.0000 0.0000
# 3 36.1803 36.1801 111.3748 0.0000 0.0000 0.0000
# 4 0.0000 0.0000 0.0000 39.2208 0.0000 0.0000
# 5 0.0000 0.0000 0.0000 0.0000 39.2213 0.0000
# 6 0.0000 0.0000 0.0000 0.0000 0.0000 19.4311
#
#
#
# Elastic Compliance Matrix: (Units=1/GPa)
#
#
# Indices 1 2 3 4 5 6 
#
# 1 0.016351 0.000775 -0.005563 0.000000 0.000000 0.000000
# 2 0.000775 0.016350 -0.005563 0.000000 0.000000 0.000000
# 3 -0.005563 -0.005563 0.012593 0.000000 0.000000 0.000000
# 4 0.000000 0.000000 0.000000 0.025497 0.000000 0.000000
# 5 0.000000 0.000000 0.000000 0.000000 0.025496 0.000000
# 6 0.000000 0.000000 0.000000 0.000000 0.000000 0.051464
#
#
# Mechanical properties :
#
#
# Convention : Reuss Voigt Hill
#
# Bulk Modulus (GPa) = 40.66528 46.65497 43.66013
# Shear Modulus (GPa) = 28.30442 31.32588 29.81515
#
# Velocity S-wave (km/s) = 3.77056 3.96671 3.86987
# Velocity P-wave (km/s) = 6.27551 6.66439 6.47287
#
# Compressibility (1/GPa) = 0.02459100
#
# Stress axis : x y z
#
# Youngs Moduli (GPa) = 61.16020 61.16068 79.40868
#
# Poissons Ratio (x) = -0.04739 0.44177
# Poissons Ratio (y) = -0.04739 0.44176
# Poissons Ratio (z) = 0.34025 0.34024
#
# Static dielectric constant tensor:
#      x y z
#    x 3.597290 0.000000 0.000000 
#    y 0.000000 3.597270 0.000000 
#    z 0.000000 0.000000 3.921810 
# 
# 
# High freq. dielectric constant tensor:
#      x y z
#    x 1.770520 0.000000 0.000000 
#    y 0.000000 1.770520 0.000000 
#    z 0.000000 0.000000 1.789600 
# 
# From -- ./inp_files/3371.got.cif
#   From: 2010.03.12/outbox.cif.g09.slc.cpg/sg118_2_cif.got.tgz:3371.got - 2010.04.14 02:21:17.
