data_PCOD8310957
_publ_section_title
;
Structure prediction by ZEFSAII (Michael W. Deem and Ramdas Pophale) SiO2 
 PCOD8310957
Probable space group: I -4 M 2
;
_chemical_formula_sum "Si O2"
_cell_formula_units_Z 88
_cell_length_a 11.943933
_cell_length_b 11.943933
_cell_length_c 30.822290
_cell_angle_alpha 90.000000
_cell_angle_beta 90.000000
_cell_angle_gamma 90.000000
_cell_volume 4397.031930
_symmetry_space_group_name_H-M "I -4 M 2"
_symmetry_group_IT_number 119
_symmetry_cell_setting 'tetragonal'
loop_
_space_group_symop_operation_xyz
x,y,z
y,-x,-z
-x,-y,z
-y,x,-z
y,x,-z
-y,-x,-z
-x,y,z
x,-y,z
1/2+x,1/2+y,1/2+z
1/2+y,1/2-x,1/2-z
1/2-x,1/2-y,1/2+z
1/2-y,1/2+x,1/2-z
1/2+y,1/2+x,1/2-z
1/2-y,1/2-x,1/2-z
1/2-x,1/2+y,1/2+z
1/2+x,1/2-y,1/2+z
loop_
_atom_site_type_symbol
_atom_site_label
_atom_site_fract_x
_atom_site_fract_y
_atom_site_fract_z
Si Si1 0.000000 0.868003 0.348342
Si Si2 0.302918 0.370518 0.693915
Si Si3 0.198192 0.873203 0.290898
Si Si4 0.244238 0.367538 0.539021
Si Si5 0.000000 0.370927 0.507742
Si Si6 0.754076 0.376691 0.388698
Si Si7 0.190237 0.500000 0.088576
O O1 0.891732 0.819758 0.323511
O O2 0.000000 0.819697 0.396744
O O3 0.000000 0.000000 0.349934
O O4 0.298176 0.500000 0.678203
O O5 0.179517 0.319442 0.699948
O O6 0.354081 0.360974 0.742388
O O7 0.370932 0.293124 0.660394
O O8 0.218397 0.000000 0.302878
O O9 0.313749 0.313749 0.500000
O O10 0.267433 0.500000 0.540445
O O11 0.111589 0.341793 0.534758
O O12 0.282677 0.309537 0.583417
O O13 0.000000 0.302907 0.463117
O O14 0.000000 0.500000 0.493838
O O15 0.723283 0.500000 0.406747
O O16 0.888661 0.367479 0.391951
#
# Coordination Sequence:
#
# PCOD8310957 Si02
#       7
#     8  16  16  16   8  16   8
#     4  10  20  38  64  90 120 166 211 257 306 363
#     4  10  21  37  59  91 126 163 205 256 314 373
#     4   9  19  37  60  87 123 167 212 254 306 367
#     4  11  23  41  65  93 123 160 202 254 308 379
#     4  10  22  44  68  88 120 164 208 246 320 382
#     4  12  25  41  63  92 126 162 208 257 316 378
#     4  12  22  42  64  90 120 161 212 256 313 384
#
# _framework density 20.013501000000002
#
# number of rings (size 3 to 8) (size 9 to 14) (size 15 to 20)
#    0.000    1.455    3.636    1.909    1.273    2.727 
#    3.273    1.818    2.000    0.000    0.000    0.000 
#    0.000    0.000    0.000    0.000    0.000    0.000 
#
# Total GULP energy -545335.308401 kJ/mol
# GULP energy per Si atom -12393.984282 kJ/mol
# Density = 1.996795 g / cm^3
# Si number density = 20.013501 Si / 1000 Ang^3
#
#
#
# Elastic Constant Matrix: (Units=GPa)
#
#
# Indices 1 2 3 4 5 6 
#
# 1 124.6843 45.4938 44.6186 0.0000 0.0000 0.0000
# 2 45.4938 124.6843 44.6186 0.0000 0.0000 0.0000
# 3 44.6186 44.6186 89.5231 0.0000 0.0000 0.0000
# 4 0.0000 0.0000 0.0000 32.8574 0.0000 0.0000
# 5 0.0000 0.0000 0.0000 0.0000 32.8574 0.0000
# 6 0.0000 0.0000 0.0000 0.0000 0.0000 24.1357
#
#
#
# Elastic Compliance Matrix: (Units=1/GPa)
#
#
# Indices 1 2 3 4 5 6 
#
# 1 0.010292 -0.002336 -0.003965 0.000000 0.000000 0.000000
# 2 -0.002336 0.010292 -0.003965 0.000000 0.000000 0.000000
# 3 -0.003965 -0.003965 0.015123 0.000000 0.000000 0.000000
# 4 0.000000 0.000000 0.000000 0.030435 0.000000 0.000000
# 5 0.000000 0.000000 0.000000 0.000000 0.030435 0.000000
# 6 0.000000 0.000000 0.000000 0.000000 0.000000 0.041432
#
#
# Mechanical properties :
#
#
# Convention : Reuss Voigt Hill
#
# Bulk Modulus (GPa) = 65.90477 67.59486 66.74981
# Shear Modulus (GPa) = 30.56284 31.58080 31.07182
#
# Velocity S-wave (km/s) = 3.91207 3.97668 3.94451
# Velocity P-wave (km/s) = 7.30803 7.41170 7.36005
#
# Compressibility (1/GPa) = 0.01517341
#
# Stress axis : x y z
#
# Youngs Moduli (GPa) = 97.16711 97.16711 66.12625
#
# Poissons Ratio (x) = 0.22700 0.26219
# Poissons Ratio (y) = 0.22700 0.26219
# Poissons Ratio (z) = 0.38526 0.38526
#
# Static dielectric constant tensor:
#      x y z
#    x 3.731190 0.000000 0.000000 
#    y 0.000000 3.731190 0.000000 
#    z 0.000000 0.000000 3.652800 
# 
# 
# High freq. dielectric constant tensor:
#      x y z
#    x 1.782350 0.000000 0.000000 
#    y 0.000000 1.782350 0.000000 
#    z 0.000000 0.000000 1.781720 
# 
# From -- ./inp_files/10295.got.cif
#   From: 2010.03.12/outbox.cif.g09.slc.cpg/sg119_6_cif.got.tgz:10295.got - 2010.04.14 02:25:26.
