data_PCOD8310843
_publ_section_title
;
Structure prediction by ZEFSAII (Michael W. Deem and Ramdas Pophale) SiO2 
 PCOD8310843
Probable space group: I -4 M 2
;
_chemical_formula_sum "Si O2"
_cell_formula_units_Z 112
_cell_length_a 15.048485
_cell_length_b 15.048485
_cell_length_c 25.852856
_cell_angle_alpha 90.000000
_cell_angle_beta 90.000000
_cell_angle_gamma 90.000000
_cell_volume 5854.557646
_symmetry_space_group_name_H-M "I -4 M 2"
_symmetry_group_IT_number 119
_symmetry_cell_setting 'tetragonal'
loop_
_space_group_symop_operation_xyz
x,y,z
y,-x,-z
-x,-y,z
-y,x,-z
y,x,-z
-y,-x,-z
-x,y,z
x,-y,z
1/2+x,1/2+y,1/2+z
1/2+y,1/2-x,1/2-z
1/2-x,1/2-y,1/2+z
1/2-y,1/2+x,1/2-z
1/2+y,1/2+x,1/2-z
1/2-y,1/2-x,1/2-z
1/2-x,1/2+y,1/2+z
1/2+x,1/2-y,1/2+z
loop_
_atom_site_type_symbol
_atom_site_label
_atom_site_fract_x
_atom_site_fract_y
_atom_site_fract_z
Si Si1 0.225501 0.333910 0.566718
Si Si2 0.678842 0.100039 0.176901
Si Si3 0.404846 0.761891 0.540672
Si Si4 0.106050 0.835415 0.556528
Si Si5 0.601337 0.289183 0.845200
Si Si6 0.597574 0.268323 0.219113
Si Si7 0.897186 0.403158 0.374889
O O1 0.219673 0.384625 0.620616
O O2 0.215847 0.401833 0.519892
O O3 0.324167 0.294578 0.562863
O O4 0.146773 0.262721 0.559963
O O5 0.604271 0.173081 0.189831
O O6 0.756974 0.111625 0.219446
O O7 0.638876 0.000000 0.180147
O O8 0.500000 0.713294 0.551452
O O9 0.403697 0.856344 0.568427
O O10 0.122745 0.877256 0.500000
O O11 0.158773 0.891401 0.600142
O O12 0.000000 0.834134 0.567799
O O13 0.500000 0.294126 0.826696
O O14 0.662075 0.331609 0.801366
O O15 0.635714 0.186288 0.845888
O O16 0.500000 0.306035 0.206937
O O17 0.876671 0.500000 0.346921
O O18 0.000000 0.391347 0.384423
#
# Coordination Sequence:
#
# PCOD8310843 Si02
#       7
#    16  16  16  16  16  16  16
#     4  11  20  37  55  84 112 145 187 236 291 342
#     4  10  21  37  61  83 110 152 193 244 299 343
#     4  10  19  33  56  79 107 146 186 227 285 349
#     4  12  23  36  54  82 120 159 193 231 281 347
#     4  11  21  36  58  85 119 160 198 235 285 347
#     4  10  21  38  57  83 116 152 196 243 292 348
#     4   9  17  31  53  83 116 150 192 238 282 333
#
# _framework density 19.130395
#
# number of rings (size 3 to 8) (size 9 to 14) (size 15 to 20)
#    0.000    1.571    4.286    1.286    0.000    3.857 
#    0.000    2.143    0.000   14.143    0.000    0.000 
#    0.000    4.571    0.000    0.000    0.000    0.000 
#
# Total GULP energy -693826.277375 kJ/mol
# GULP energy per Si atom -12389.754953 kJ/mol
# Density = 1.908685 g / cm^3
# Si number density = 19.130395 Si / 1000 Ang^3
#
#
#
# Elastic Constant Matrix: (Units=GPa)
#
#
# Indices 1 2 3 4 5 6 
#
# 1 107.5483 61.6919 29.0387 0.0000 0.0000 0.0000
# 2 61.6919 107.5479 29.0394 0.0000 0.0000 0.0000
# 3 29.0387 29.0394 73.6358 0.0000 0.0000 0.0000
# 4 0.0000 0.0000 0.0000 19.9252 0.0000 0.0000
# 5 0.0000 0.0000 0.0000 0.0000 19.9252 0.0000
# 6 0.0000 0.0000 0.0000 0.0000 0.0000 17.9601
#
#
#
# Elastic Compliance Matrix: (Units=1/GPa)
#
#
# Indices 1 2 3 4 5 6 
#
# 1 0.014320 -0.007487 -0.002695 0.000000 0.000000 0.000000
# 2 -0.007487 0.014321 -0.002695 0.000000 0.000000 0.000000
# 3 -0.002695 -0.002695 0.015706 0.000000 0.000000 0.000000
# 4 0.000000 0.000000 0.000000 0.050188 0.000000 0.000000
# 5 0.000000 0.000000 0.000000 0.000000 0.050188 0.000000
# 6 0.000000 0.000000 0.000000 0.000000 0.000000 0.055679
#
#
# Mechanical properties :
#
#
# Convention : Reuss Voigt Hill
#
# Bulk Modulus (GPa) = 53.78239 58.69690 56.23964
# Shear Modulus (GPa) = 21.51906 22.82624 22.17265
#
# Velocity S-wave (km/s) = 3.35753 3.45801 3.40814
# Velocity P-wave (km/s) = 6.57308 6.83322 6.70441
#
# Compressibility (1/GPa) = 0.01859345
#
# Stress axis : x y z
#
# Youngs Moduli (GPa) = 69.83059 69.82986 63.67052
#
# Poissons Ratio (x) = 0.52281 0.17158
# Poissons Ratio (y) = 0.52281 0.17159
# Poissons Ratio (z) = 0.18818 0.18819
#
# Static dielectric constant tensor:
#      x y z
#    x 3.655540 0.000000 0.000000 
#    y 0.000000 3.655540 0.000000 
#    z 0.000000 0.000000 3.504790 
# 
# 
# High freq. dielectric constant tensor:
#      x y z
#    x 1.743030 0.000000 0.000000 
#    y 0.000000 1.743030 0.000000 
#    z 0.000000 0.000000 1.736860 
# 
# From -- ./inp_files/9584.got.cif
#   From: 2010.03.12/outbox.cif.g09.slc.cpg/sg119_5_cif.got.tgz:9584.got - 2010.04.14 02:25:26.
