data_PCOD8310731
_publ_section_title
;
Structure prediction by ZEFSAII (Michael W. Deem and Ramdas Pophale) SiO2 
 PCOD8310731
Probable space group: I -4 M 2
;
_chemical_formula_sum "Si O2"
_cell_formula_units_Z 112
_cell_length_a 17.668662
_cell_length_b 17.668662
_cell_length_c 22.686091
_cell_angle_alpha 90.000000
_cell_angle_beta 90.000000
_cell_angle_gamma 90.000000
_cell_volume 7082.180569
_symmetry_space_group_name_H-M "I -4 M 2"
_symmetry_group_IT_number 119
_symmetry_cell_setting 'tetragonal'
loop_
_space_group_symop_operation_xyz
x,y,z
y,-x,-z
-x,-y,z
-y,x,-z
y,x,-z
-y,-x,-z
-x,y,z
x,-y,z
1/2+x,1/2+y,1/2+z
1/2+y,1/2-x,1/2-z
1/2-x,1/2-y,1/2+z
1/2-y,1/2+x,1/2-z
1/2+y,1/2+x,1/2-z
1/2-y,1/2-x,1/2-z
1/2-x,1/2+y,1/2+z
1/2+x,1/2-y,1/2+z
loop_
_atom_site_type_symbol
_atom_site_label
_atom_site_fract_x
_atom_site_fract_y
_atom_site_fract_z
Si Si1 0.234217 0.151953 0.124981
Si Si2 0.588589 0.822862 0.800599
Si Si3 0.352368 0.415773 0.443317
Si Si4 0.299673 0.913844 0.011802
Si Si5 0.212904 0.786185 0.693292
Si Si6 0.088395 0.712529 0.754238
Si Si7 0.586845 0.085629 0.917830
O O1 0.146817 0.134562 0.107501
O O2 0.288862 0.134571 0.070308
O O3 0.251931 0.240338 0.138016
O O4 0.253010 0.098619 0.180396
O O5 0.500000 0.813221 0.786681
O O6 0.627610 0.872391 0.750000
O O7 0.626001 0.739031 0.807852
O O8 0.604971 0.865307 0.861016
O O9 0.406942 0.406942 0.500000
O O10 0.365240 0.500000 0.416565
O O11 0.268035 0.404748 0.466010
O O12 0.310296 0.000000 0.032187
O O13 0.371737 0.882577 0.975929
O O14 0.249401 0.749401 0.750000
O O15 0.122952 0.771276 0.704421
O O16 0.131475 0.631475 0.750000
O O17 0.000000 0.700805 0.740606
O O18 0.500000 0.088393 0.934170
O O19 0.614275 0.000000 0.904442
#
# Coordination Sequence:
#
# PCOD8310731 Si02
#       7
#    16  16  16  16  16  16  16
#     4   9  16  29  47  63  84 117 154 179 212 265
#     4  10  18  29  46  66  89 121 159 190 221 265
#     4   9  17  27  40  60  86 116 150 183 208 240
#     4   9  16  26  41  61  86 117 148 179 219 265
#     4   8  17  31  45  65  89 114 145 186 226 257
#     4   9  18  33  51  69  90 113 141 182 227 268
#     4   9  17  27  39  61  94 122 145 184 231 266
#
# _framework density 15.814337
#
# number of rings (size 3 to 8) (size 9 to 14) (size 15 to 20)
#    0.000    3.286    0.000    1.714    0.000    1.571 
#    0.000   10.714    0.000    4.714    0.000    0.000 
#    0.000    0.000    0.000    0.429    0.000    0.000 
#
# Total GULP energy -693830.093115 kJ/mol
# GULP energy per Si atom -12389.823091 kJ/mol
# Density = 1.577834 g / cm^3
# Si number density = 15.814337 Si / 1000 Ang^3
#
#
#
# Elastic Constant Matrix: (Units=GPa)
#
#
# Indices 1 2 3 4 5 6 
#
# 1 86.9946 57.6421 44.1116 0.0000 0.0000 0.0000
# 2 57.6421 86.9941 44.1120 0.0000 0.0000 0.0000
# 3 44.1116 44.1120 79.6678 0.0000 0.0000 0.0000
# 4 0.0000 0.0000 0.0000 10.1874 0.0000 0.0000
# 5 0.0000 0.0000 0.0000 0.0000 10.1865 0.0000
# 6 0.0000 0.0000 0.0000 0.0000 0.0000 18.5628
#
#
#
# Elastic Compliance Matrix: (Units=1/GPa)
#
#
# Indices 1 2 3 4 5 6 
#
# 1 0.022254 -0.011815 -0.005780 0.000000 0.000000 0.000000
# 2 -0.011815 0.022255 -0.005781 0.000000 0.000000 0.000000
# 3 -0.005780 -0.005781 0.018953 0.000000 0.000000 0.000000
# 4 0.000000 0.000000 0.000000 0.098161 0.000000 0.000000
# 5 0.000000 0.000000 0.000000 0.000000 0.098170 0.000000
# 6 0.000000 0.000000 0.000000 0.000000 0.000000 0.053871
#
#
# Mechanical properties :
#
#
# Convention : Reuss Voigt Hill
#
# Bulk Modulus (GPa) = 59.84063 60.59866 60.21965
# Shear Modulus (GPa) = 13.66175 14.97337 14.31756
#
# Velocity S-wave (km/s) = 2.94238 3.08039 3.01217
# Velocity P-wave (km/s) = 7.03314 7.14519 7.08939
#
# Compressibility (1/GPa) = 0.01671105
#
# Stress axis : x y z
#
# Youngs Moduli (GPa) = 44.93529 44.93467 52.76106
#
# Poissons Ratio (x) = 0.53088 0.30498
# Poissons Ratio (y) = 0.53089 0.30499
# Poissons Ratio (z) = 0.25974 0.25975
#
# Static dielectric constant tensor:
#      x y z
#    x 3.225770 0.000000 0.000000 
#    y 0.000000 3.225760 0.000000 
#    z 0.000000 0.000000 3.046180 
# 
# 
# High freq. dielectric constant tensor:
#      x y z
#    x 1.594800 0.000000 0.000000 
#    y 0.000000 1.594800 0.000000 
#    z 0.000000 0.000000 1.599720 
# 
# From -- ./inp_files/8953.got.cif
#   From: 2010.03.12/outbox.cif.g09.slc.cpg/sg119_5_cif.got.tgz:8953.got - 2010.04.14 02:25:26.
