data_PCOD8310668
_publ_section_title
;
Structure prediction by ZEFSAII (Michael W. Deem and Ramdas Pophale) SiO2 
 PCOD8310668
Probable space group: P -4 N 2
;
_chemical_formula_sum "Si O2"
_cell_formula_units_Z 56
_cell_length_a 15.713607
_cell_length_b 15.713607
_cell_length_c 14.735387
_cell_angle_alpha 90.000000
_cell_angle_beta 90.000000
_cell_angle_gamma 90.000000
_cell_volume 3638.424108
_symmetry_space_group_name_H-M "P -4 N 2"
_symmetry_group_IT_number 118
_symmetry_cell_setting 'tetragonal'
loop_
_space_group_symop_operation_xyz
x,y,z
y,-x,-z
-x,-y,z
-y,x,-z
1/2+y,1/2+x,1/2-z
1/2-y,1/2-x,1/2-z
1/2-x,1/2+y,1/2+z
1/2+x,1/2-y,1/2+z
loop_
_atom_site_type_symbol
_atom_site_label
_atom_site_fract_x
_atom_site_fract_y
_atom_site_fract_z
Si Si1 0.848965 0.788390 0.647356
Si Si2 0.866130 0.036871 0.999160
Si Si3 0.036873 0.133869 0.499159
Si Si4 0.536499 0.746821 0.647523
Si Si5 0.753180 0.963503 0.647524
Si Si6 0.348966 0.711610 0.352644
Si Si7 0.432772 0.067230 0.858272
O O1 0.927869 0.806819 0.580363
O O2 0.785821 0.867586 0.643485
O O3 0.796018 0.703982 0.618173
O O4 0.884280 0.777371 0.749999
O O5 0.806820 0.072130 0.080365
O O6 0.943786 0.099170 0.973325
O O7 0.809692 0.029269 0.909252
O O8 0.943787 0.099171 0.526675
O O9 0.029271 0.190305 0.409250
O O10 0.501484 0.746061 0.749999
O O11 0.632415 0.714179 0.643485
O O12 0.538408 0.841066 0.604915
O O13 0.658936 0.961596 0.604916
O O14 0.428328 0.071673 0.750000
O O15 0.500000 0.000000 0.895569
#
# Coordination Sequence:
#
# PCOD8310668 Si02
#       7
#     8   8   8   8   8   8   8
#     4   9  16  28  46  63  83 117 156 186 214 256
#     4   9  18  29  42  66  95 119 145 183 228 269
#     4   9  18  29  42  66  95 119 145 183 228 269
#     4   9  16  28  44  62  87 118 146 177 224 270
#     4   9  16  28  44  62  87 118 146 177 224 270
#     4   9  16  28  46  63  83 117 156 186 214 256
#     4   9  16  26  42  64  87 111 145 184 220 265
#
# _framework density 15.391278
#
# number of rings (size 3 to 8) (size 9 to 14) (size 15 to 20)
#    0.000    3.000    1.429    0.000    0.000    2.286 
#    0.000    5.714    0.000    0.000    0.000    1.000 
#    0.000    3.429    0.000    0.000    0.000    0.000 
#
# Total GULP energy -694155.298489 kJ/mol
# GULP energy per Si atom -12395.630330 kJ/mol
# Density = 1.535625 g / cm^3
# Si number density = 15.391278 Si / 1000 Ang^3
#
#
#
# Elastic Constant Matrix: (Units=GPa)
#
#
# Indices 1 2 3 4 5 6 
#
# 1 82.8418 46.3239 53.8591 0.0000 0.0000 0.0000
# 2 46.3239 82.8417 53.8591 0.0000 0.0000 0.0000
# 3 53.8591 53.8591 89.3729 0.0000 0.0000 0.0000
# 4 0.0000 0.0000 0.0000 16.2846 0.0000 0.0000
# 5 0.0000 0.0000 0.0000 0.0000 16.2846 0.0000
# 6 0.0000 0.0000 0.0000 0.0000 0.0000 19.3311
#
#
#
# Elastic Compliance Matrix: (Units=1/GPa)
#
#
# Indices 1 2 3 4 5 6 
#
# 1 0.021474 -0.005910 -0.009379 0.000000 0.000000 0.000000
# 2 -0.005910 0.021474 -0.009379 0.000000 0.000000 0.000000
# 3 -0.009379 -0.009379 0.022494 0.000000 0.000000 0.000000
# 4 0.000000 0.000000 0.000000 0.061408 0.000000 0.000000
# 5 0.000000 0.000000 0.000000 0.000000 0.061408 0.000000
# 6 0.000000 0.000000 0.000000 0.000000 0.000000 0.051730
#
#
# Mechanical properties :
#
#
# Convention : Reuss Voigt Hill
#
# Bulk Modulus (GPa) = 62.09569 62.57117 62.33343
# Shear Modulus (GPa) = 16.96683 17.11433 17.04058
#
# Velocity S-wave (km/s) = 3.32379 3.33821 3.33101
# Velocity P-wave (km/s) = 7.42714 7.45655 7.44186
#
# Compressibility (1/GPa) = 0.01610418
#
# Stress axis : x y z
#
# Youngs Moduli (GPa) = 46.56824 46.56816 44.45695
#
# Poissons Ratio (x) = 0.27522 0.41698
# Poissons Ratio (y) = 0.27522 0.41698
# Poissons Ratio (z) = 0.43678 0.43678
#
# Static dielectric constant tensor:
#      x y z
#    x 2.917170 0.000000 0.000000 
#    y 0.000000 2.917170 0.000000 
#    z 0.000000 0.000000 2.914330 
# 
# 
# High freq. dielectric constant tensor:
#      x y z
#    x 1.582610 0.000000 0.000000 
#    y 0.000000 1.582610 0.000000 
#    z 0.000000 0.000000 1.569770 
# 
# From -- ./inp_files/4238.got.cif
#   From: 2010.03.12/outbox.cif.g09.slc.cpg/sg118_3_cif.got.tgz:4238.got - 2010.04.14 02:21:17.
