data_PCOD8310525
_publ_section_title
;
Structure prediction by ZEFSAII (Michael W. Deem and Ramdas Pophale) SiO2 
 PCOD8310525
Probable space group: P -4 N 2
;
_chemical_formula_sum "Si O2"
_cell_formula_units_Z 40
_cell_length_a 12.360272
_cell_length_b 12.360272
_cell_length_c 13.605207
_cell_angle_alpha 90.000000
_cell_angle_beta 90.000000
_cell_angle_gamma 90.000000
_cell_volume 2078.553512
_symmetry_space_group_name_H-M "P -4 N 2"
_symmetry_group_IT_number 118
_symmetry_cell_setting 'tetragonal'
loop_
_space_group_symop_operation_xyz
x,y,z
y,-x,-z
-x,-y,z
-y,x,-z
1/2+y,1/2+x,1/2-z
1/2-y,1/2-x,1/2-z
1/2-x,1/2+y,1/2+z
1/2+x,1/2-y,1/2+z
loop_
_atom_site_type_symbol
_atom_site_label
_atom_site_fract_x
_atom_site_fract_y
_atom_site_fract_z
Si Si1 0.868319 0.119476 0.213267
Si Si2 0.239437 0.316656 0.115004
Si Si3 0.112397 0.529325 0.145237
Si Si4 0.378835 0.629390 0.714199
Si Si5 0.764177 0.787894 0.599186
O O1 0.816433 0.147333 0.318675
O O2 0.806351 0.183749 0.128079
O O3 0.993370 0.153750 0.216818
O O4 0.854549 0.994160 0.187355
O O5 0.172174 0.416190 0.159179
O O6 0.348659 0.322259 0.180053
O O7 0.175229 0.204797 0.131238
O O8 0.265755 0.329522 0.000523
O O9 0.086853 0.586853 0.250000
O O10 0.183124 0.611516 0.080903
O O11 0.000000 0.500000 0.090323
#
# Coordination Sequence:
#
# PCOD8310525 Si02
#       5
#     8   8   8   8   8
#     4  10  21  39  62  84 125 160 197 246 321 364
#     4  11  23  37  62  92 124 156 213 255 308 366
#     4  11  20  38  67  90 123 162 217 260 302 366
#     4  10  21  39  60  87 118 163 199 254 302 372
#     4  11  22  38  59  92 124 158 204 258 311 366
#
# _framework density 19.244152
#
# number of rings (size 3 to 8) (size 9 to 14) (size 15 to 20)
#    0.000    1.400    4.000    3.600    2.800    3.200 
#    0.000    4.000    0.000    2.400    0.000    0.000 
#    0.000    0.000    0.000    0.000    0.000    0.000 
#
# Total GULP energy -495961.821427 kJ/mol
# GULP energy per Si atom -12399.045536 kJ/mol
# Density = 1.920035 g / cm^3
# Si number density = 19.244152 Si / 1000 Ang^3
#
#
#
# Elastic Constant Matrix: (Units=GPa)
#
#
# Indices 1 2 3 4 5 6 
#
# 1 92.3707 37.5638 12.3472 0.0000 0.0000 0.0000
# 2 37.5638 92.3707 12.3472 0.0000 0.0000 0.0000
# 3 12.3472 12.3472 76.5156 0.0000 0.0000 0.0000
# 4 0.0000 0.0000 0.0000 16.5258 0.0000 0.0000
# 5 0.0000 0.0000 0.0000 0.0000 16.5258 0.0000
# 6 0.0000 0.0000 0.0000 0.0000 0.0000 32.0567
#
#
#
# Elastic Compliance Matrix: (Units=1/GPa)
#
#
# Indices 1 2 3 4 5 6 
#
# 1 0.013093 -0.005153 -0.001281 0.000000 0.000000 0.000000
# 2 -0.005153 0.013093 -0.001281 0.000000 0.000000 0.000000
# 3 -0.001281 -0.001281 0.013483 0.000000 0.000000 0.000000
# 4 0.000000 0.000000 0.000000 0.060512 0.000000 0.000000
# 5 0.000000 0.000000 0.000000 0.000000 0.060512 0.000000
# 6 0.000000 0.000000 0.000000 0.000000 0.000000 0.031195
#
#
# Mechanical properties :
#
#
# Convention : Reuss Voigt Hill
#
# Bulk Modulus (GPa) = 41.25884 42.86372 42.06128
# Shear Modulus (GPa) = 23.21303 26.28823 24.75063
#
# Velocity S-wave (km/s) = 3.47686 3.70000 3.59017
# Velocity P-wave (km/s) = 6.13224 6.36988 6.25219
#
# Compressibility (1/GPa) = 0.02423723
#
# Stress axis : x y z
#
# Youngs Moduli (GPa) = 76.37794 76.37794 74.16894
#
# Poissons Ratio (x) = 0.39358 0.09503
# Poissons Ratio (y) = 0.39358 0.09503
# Poissons Ratio (z) = 0.09786 0.09786
#
# Static dielectric constant tensor:
#      x y z
#    x 3.630760 0.000000 0.000000 
#    y 0.000000 3.630760 0.000000 
#    z 0.000000 0.000000 3.140370 
# 
# 
# High freq. dielectric constant tensor:
#      x y z
#    x 1.758130 0.000000 0.000000 
#    y 0.000000 1.758130 0.000000 
#    z 0.000000 0.000000 1.721510 
# 
# From -- ./inp_files/4079.got.cif
#   From: 2010.03.12/outbox.cif.g09.slc.cpg/sg118_3_cif.got.tgz:4079.got - 2010.04.14 02:21:17.
