data_PCOD8310657
_publ_section_title
;
Structure prediction by ZEFSAII (Michael W. Deem and Ramdas Pophale) SiO2 
 PCOD8310657
Probable space group: P -4 N 2
;
_chemical_formula_sum "Si O2"
_cell_formula_units_Z 30
_cell_length_a 10.767550
_cell_length_b 10.767550
_cell_length_c 10.746936
_cell_angle_alpha 90.000000
_cell_angle_beta 90.000000
_cell_angle_gamma 90.000000
_cell_volume 1246.001189
_symmetry_space_group_name_H-M "P -4 N 2"
_symmetry_group_IT_number 118
_symmetry_cell_setting 'tetragonal'
loop_
_space_group_symop_operation_xyz
x,y,z
y,-x,-z
-x,-y,z
-y,x,-z
1/2+y,1/2+x,1/2-z
1/2-y,1/2-x,1/2-z
1/2-x,1/2+y,1/2+z
1/2+x,1/2-y,1/2+z
loop_
_atom_site_type_symbol
_atom_site_label
_atom_site_fract_x
_atom_site_fract_y
_atom_site_fract_z
Si Si1 0.854775 0.354775 0.250000
Si Si2 0.166225 0.234930 0.945434
Si Si3 0.442984 0.365644 0.332743
Si Si4 0.573280 0.268887 0.868515
Si Si5 0.500000 0.500000 0.000000
O O1 0.808617 0.287971 0.125714
O O2 0.827225 0.499360 0.221046
O O3 0.051292 0.240270 0.845667
O O4 0.124712 0.127984 0.038397
O O5 0.191431 0.361051 0.021464
O O6 0.500000 0.500000 0.299424
O O7 0.346813 0.330871 0.220452
O O8 0.479494 0.371764 0.925007
#
# Coordination Sequence:
#
# PCOD8310657 Si02
#       5
#     4   8   8   8   2
#     4  12  24  42  73 112 147 192 248 318 381 438
#     4  12  24  43  73 108 143 197 251 305 375 461
#     4  12  22  46  75 100 142 203 248 293 379 459
#     4  12  25  43  75 113 151 194 257 311 382 458
#     4  12  20  44  72 106 144 200 244 316 382 460
#
# _framework density 24.077026
#
# number of rings (size 3 to 8) (size 9 to 14) (size 15 to 20)
#    0.000    0.000    9.333    0.800    0.000    0.000 
#    0.000   10.667    0.000    0.000    0.000    0.000 
#    0.000    0.000    0.000    0.000    0.000    0.000 
#
# Total GULP energy -371790.407470 kJ/mol
# GULP energy per Si atom -12393.013582 kJ/mol
# Density = 2.402223 g / cm^3
# Si number density = 24.077026 Si / 1000 Ang^3
#
#
#
# Elastic Constant Matrix: (Units=GPa)
#
#
# Indices 1 2 3 4 5 6 
#
# 1 93.7090 73.9275 44.0590 0.0000 0.0000 0.0000
# 2 73.9275 93.7090 44.0590 0.0000 0.0000 0.0000
# 3 44.0590 44.0590 112.2896 0.0000 0.0000 0.0000
# 4 0.0000 0.0000 0.0000 45.1184 0.0000 0.0000
# 5 0.0000 0.0000 0.0000 0.0000 45.1184 0.0000
# 6 0.0000 0.0000 0.0000 0.0000 0.0000 40.3259
#
#
#
# Elastic Compliance Matrix: (Units=1/GPa)
#
#
# Indices 1 2 3 4 5 6 
#
# 1 0.029034 -0.021518 -0.002949 0.000000 0.000000 0.000000
# 2 -0.021518 0.029034 -0.002949 0.000000 0.000000 0.000000
# 3 -0.002949 -0.002949 0.011220 0.000000 0.000000 0.000000
# 4 0.000000 0.000000 0.000000 0.022164 0.000000 0.000000
# 5 0.000000 0.000000 0.000000 0.000000 0.022164 0.000000
# 6 0.000000 0.000000 0.000000 0.000000 0.000000 0.024798
#
#
# Mechanical properties :
#
#
# Convention : Reuss Voigt Hill
#
# Bulk Modulus (GPa) = 69.17985 69.31095 69.24540
# Shear Modulus (GPa) = 25.24444 35.29002 30.26723
#
# Velocity S-wave (km/s) = 3.24155 3.83262 3.54941
# Velocity P-wave (km/s) = 6.54257 6.95952 6.75427
#
# Compressibility (1/GPa) = 0.01445508
#
# Stress axis : x y z
#
# Youngs Moduli (GPa) = 34.44261 34.44261 89.12997
#
# Poissons Ratio (x) = 0.74115 0.26282
# Poissons Ratio (y) = 0.74115 0.26282
# Poissons Ratio (z) = 0.10156 0.10156
#
# Static dielectric constant tensor:
#      x y z
#    x 4.311630 0.000000 0.000000 
#    y 0.000000 4.311630 0.000000 
#    z 0.000000 0.000000 4.638390 
# 
# 
# High freq. dielectric constant tensor:
#      x y z
#    x 1.937060 0.000000 0.000000 
#    y 0.000000 1.937060 0.000000 
#    z 0.000000 0.000000 1.973560 
# 
# From -- ./inp_files/2820.got.cif
#   From: 2010.03.12/outbox.cif.g09.slc.cpg/sg118_2_cif.got.tgz:2820.got - 2010.04.14 02:21:17.
