data_PCOD8310432
_publ_section_title
;
Structure prediction by ZEFSAII (Michael W. Deem and Ramdas Pophale) SiO2 
 PCOD8310432
Probable space group: P -4 N 2
;
_chemical_formula_sum "Si O2"
_cell_formula_units_Z 40
_cell_length_a 12.940912
_cell_length_b 12.940912
_cell_length_c 13.022483
_cell_angle_alpha 90.000000
_cell_angle_beta 90.000000
_cell_angle_gamma 90.000000
_cell_volume 2180.838809
_symmetry_space_group_name_H-M "P -4 N 2"
_symmetry_group_IT_number 118
_symmetry_cell_setting 'tetragonal'
loop_
_space_group_symop_operation_xyz
x,y,z
y,-x,-z
-x,-y,z
-y,x,-z
1/2+y,1/2+x,1/2-z
1/2-y,1/2-x,1/2-z
1/2-x,1/2+y,1/2+z
1/2+x,1/2-y,1/2+z
loop_
_atom_site_type_symbol
_atom_site_label
_atom_site_fract_x
_atom_site_fract_y
_atom_site_fract_z
Si Si1 0.890455 0.131429 0.499818
Si Si2 0.232901 0.602013 0.819288
Si Si3 0.804592 0.294590 0.135432
Si Si4 0.602067 0.947123 0.026352
Si Si5 0.582050 0.219152 0.320427
O O1 0.853202 0.176816 0.608799
O O2 0.840602 0.194392 0.404691
O O3 0.014027 0.145473 0.501690
O O4 0.198153 0.698153 0.750000
O O5 0.136339 0.565398 0.889323
O O6 0.273253 0.507448 0.748331
O O7 0.832283 0.332283 0.250000
O O8 0.799031 0.169687 0.141745
O O9 0.896818 0.329871 0.063004
O O10 0.500000 0.000000 0.978757
O O11 0.672216 0.034377 0.076997
O O12 0.630273 0.130273 0.250000
#
# Coordination Sequence:
#
# PCOD8310432 Si02
#       5
#     8   8   8   8   8
#     4  10  20  35  55  77 109 145 178 220 271 330
#     4   9  18  32  57  86 102 132 187 232 265 308
#     4  10  22  35  52  80 111 147 175 216 276 333
#     4  10  19  32  56  84 106 136 186 231 263 310
#     4  10  17  32  58  81 103 137 179 230 270 312
#
# _framework density 18.341566
#
# number of rings (size 3 to 8) (size 9 to 14) (size 15 to 20)
#    0.000    2.200    2.000    2.400    2.800    0.400 
#    0.000    6.000    0.000    5.400    0.000    0.000 
#    0.000    0.000    0.000    0.000    0.000    0.000 
#
# Total GULP energy -495849.716150 kJ/mol
# GULP energy per Si atom -12396.242904 kJ/mol
# Density = 1.829982 g / cm^3
# Si number density = 18.341566 Si / 1000 Ang^3
#
#
#
# Elastic Constant Matrix: (Units=GPa)
#
#
# Indices 1 2 3 4 5 6 
#
# 1 60.7729 35.8906 52.3403 0.0000 0.0000 0.0000
# 2 35.8906 60.7729 52.3403 0.0000 0.0000 0.0000
# 3 52.3403 52.3403 129.4137 0.0000 0.0000 0.0000
# 4 0.0000 0.0000 0.0000 27.7884 0.0000 0.0000
# 5 0.0000 0.0000 0.0000 0.0000 27.7884 0.0000
# 6 0.0000 0.0000 0.0000 0.0000 0.0000 20.7147
#
#
#
# Elastic Compliance Matrix: (Units=1/GPa)
#
#
# Indices 1 2 3 4 5 6 
#
# 1 0.029298 -0.010891 -0.007445 0.000000 0.000000 0.000000
# 2 -0.010891 0.029298 -0.007445 0.000000 0.000000 0.000000
# 3 -0.007445 -0.007445 0.013749 0.000000 0.000000 0.000000
# 4 0.000000 0.000000 0.000000 0.035986 0.000000 0.000000
# 5 0.000000 0.000000 0.000000 0.000000 0.035986 0.000000
# 6 0.000000 0.000000 0.000000 0.000000 0.000000 0.048275
#
#
# Mechanical properties :
#
#
# Convention : Reuss Voigt Hill
#
# Bulk Modulus (GPa) = 48.11188 59.12244 53.61716
# Shear Modulus (GPa) = 19.91382 22.61751 21.26566
#
# Velocity S-wave (km/s) = 3.29860 3.51540 3.40873
# Velocity P-wave (km/s) = 6.38715 6.98438 6.69243
#
# Compressibility (1/GPa) = 0.02078489
#
# Stress axis : x y z
#
# Youngs Moduli (GPa) = 34.13175 34.13175 72.73246
#
# Poissons Ratio (x) = 0.37173 0.54147
# Poissons Ratio (y) = 0.37173 0.54147
# Poissons Ratio (z) = 0.25410 0.25410
#
# Static dielectric constant tensor:
#      x y z
#    x 3.255860 0.000000 0.000000 
#    y 0.000000 3.255860 0.000000 
#    z 0.000000 0.000000 3.529650 
# 
# 
# High freq. dielectric constant tensor:
#      x y z
#    x 1.696380 0.000000 0.000000 
#    y 0.000000 1.696380 0.000000 
#    z 0.000000 0.000000 1.714930 
# 
# From -- ./inp_files/3137.got.cif
#   From: 2010.03.12/outbox.cif.g09.slc.cpg/sg118_2_cif.got.tgz:3137.got - 2010.04.14 02:21:17.
