data_PCOD8310914
_publ_section_title
;
Structure prediction by ZEFSAII (Michael W. Deem and Ramdas Pophale) SiO2 
 PCOD8310914
Probable space group: I -4 M 2
;
_chemical_formula_sum "Si O2"
_cell_formula_units_Z 88
_cell_length_a 18.547307
_cell_length_b 18.547307
_cell_length_c 13.018968
_cell_angle_alpha 90.000000
_cell_angle_beta 90.000000
_cell_angle_gamma 90.000000
_cell_volume 4478.558802
_symmetry_space_group_name_H-M "I -4 M 2"
_symmetry_group_IT_number 119
_symmetry_cell_setting 'tetragonal'
loop_
_space_group_symop_operation_xyz
x,y,z
y,-x,-z
-x,-y,z
-y,x,-z
y,x,-z
-y,-x,-z
-x,y,z
x,-y,z
1/2+x,1/2+y,1/2+z
1/2+y,1/2-x,1/2-z
1/2-x,1/2-y,1/2+z
1/2-y,1/2+x,1/2-z
1/2+y,1/2+x,1/2-z
1/2-y,1/2-x,1/2-z
1/2-x,1/2+y,1/2+z
1/2+x,1/2-y,1/2+z
loop_
_atom_site_type_symbol
_atom_site_label
_atom_site_fract_x
_atom_site_fract_y
_atom_site_fract_z
Si Si1 0.419758 0.308240 0.042242
Si Si2 0.647347 0.147347 0.750000
Si Si3 0.416290 0.321916 0.276269
Si Si4 0.581553 0.151878 0.963469
Si Si5 0.287282 0.415533 0.333703
Si Si6 0.916998 0.717096 0.952256
O O1 0.500000 0.339458 0.031268
O O2 0.403073 0.293084 0.161586
O O3 0.367667 0.367667 0.000000
O O4 0.411363 0.237717 0.972520
O O5 0.601032 0.123464 0.849261
O O6 0.632298 0.231739 0.732551
O O7 0.500000 0.342936 0.296146
O O8 0.368016 0.391810 0.303307
O O9 0.391002 0.256869 0.349560
O O10 0.500000 0.126936 0.990753
O O11 0.639310 0.120612 0.043025
O O12 0.277976 0.500000 0.307232
O O13 0.270335 0.399567 0.452830
O O14 0.000000 0.698628 0.947920
#
# Coordination Sequence:
#
# PCOD8310914 Si02
#       6
#    16   8  16  16  16  16
#     4  10  22  38  56  80 110 144 184 232 284 340
#     4  10  20  34  56  83 114 148 184 233 288 344
#     4  10  21  37  57  82 113 151 194 241 293 348
#     4  10  21  37  57  83 114 147 186 232 282 337
#     4  10  20  35  56  83 115 151 193 239 290 350
#     4   9  20  37  55  80 114 148 186 233 283 340
#
# _framework density 19.649177000000002
#
# number of rings (size 3 to 8) (size 9 to 14) (size 15 to 20)
#    0.000    2.182    0.000    2.182    0.000    8.909 
#    0.000    1.818    0.000    6.818    0.000    5.091 
#    0.000    0.000    0.000    0.000    0.000    0.000 
#
# Total GULP energy -545568.600054 kJ/mol
# GULP energy per Si atom -12399.286365 kJ/mol
# Density = 1.960445 g / cm^3
# Si number density = 19.649177 Si / 1000 Ang^3
#
#
#
# Elastic Constant Matrix: (Units=GPa)
#
#
# Indices 1 2 3 4 5 6 
#
# 1 102.3861 60.1606 43.1640 0.0000 0.0000 0.0000
# 2 60.1606 102.3861 43.1640 0.0000 0.0000 0.0000
# 3 43.1640 43.1640 99.9167 0.0000 0.0000 0.0000
# 4 0.0000 0.0000 0.0000 26.6715 0.0000 0.0000
# 5 0.0000 0.0000 0.0000 0.0000 26.6715 0.0000
# 6 0.0000 0.0000 0.0000 0.0000 0.0000 26.2667
#
#
#
# Elastic Compliance Matrix: (Units=1/GPa)
#
#
# Indices 1 2 3 4 5 6 
#
# 1 0.015833 -0.007849 -0.003449 0.000000 0.000000 0.000000
# 2 -0.007849 0.015833 -0.003449 0.000000 0.000000 0.000000
# 3 -0.003449 -0.003449 0.012988 0.000000 0.000000 0.000000
# 4 0.000000 0.000000 0.000000 0.037493 0.000000 0.000000
# 5 0.000000 0.000000 0.000000 0.000000 0.037493 0.000000
# 6 0.000000 0.000000 0.000000 0.000000 0.000000 0.038071
#
#
# Mechanical properties :
#
#
# Convention : Reuss Voigt Hill
#
# Bulk Modulus (GPa) = 65.96355 66.40738 66.18546
# Shear Modulus (GPa) = 26.00644 26.46860 26.23752
#
# Velocity S-wave (km/s) = 3.64199 3.67421 3.65814
# Velocity P-wave (km/s) = 7.16443 7.20206 7.18327
#
# Compressibility (1/GPa) = 0.01515989
#
# Stress axis : x y z
#
# Youngs Moduli (GPa) = 63.15877 63.15877 76.99243
#
# Poissons Ratio (x) = 0.49575 0.26555
# Poissons Ratio (y) = 0.49575 0.26555
# Poissons Ratio (z) = 0.21784 0.21784
#
# Static dielectric constant tensor:
#      x y z
#    x 3.542900 0.000000 0.000000 
#    y 0.000000 3.542900 0.000000 
#    z 0.000000 0.000000 3.827340 
# 
# 
# High freq. dielectric constant tensor:
#      x y z
#    x 1.760130 0.000000 0.000000 
#    y 0.000000 1.760130 0.000000 
#    z 0.000000 0.000000 1.773610 
# 
# From -- ./inp_files/5381.got.cif
#   From: 2010.03.12/outbox.cif.g09.slc.cpg/sg119_3_cif.got.tgz:5381.got - 2010.04.14 02:25:26.
