data_PCOD8310349
_publ_section_title
;
Structure prediction by ZEFSAII (Michael W. Deem and Ramdas Pophale) SiO2 
 PCOD8310349
Probable space group: P -4 B 2
;
_chemical_formula_sum "Si O2"
_cell_formula_units_Z 40
_cell_length_a 17.600997
_cell_length_b 17.600997
_cell_length_c 5.479936
_cell_angle_alpha 90.000000
_cell_angle_beta 90.000000
_cell_angle_gamma 90.000000
_cell_volume 1697.657296
_symmetry_space_group_name_H-M "P -4 B 2"
_symmetry_group_IT_number 117
_symmetry_cell_setting 'tetragonal'
loop_
_space_group_symop_operation_xyz
x,y,z
y,-x,-z
-x,-y,z
-y,x,-z
1/2+y,1/2+x,-z
1/2-y,1/2-x,-z
1/2-x,1/2+y,z
1/2+x,1/2-y,z
loop_
_atom_site_type_symbol
_atom_site_label
_atom_site_fract_x
_atom_site_fract_y
_atom_site_fract_z
Si Si1 0.317062 0.116504 0.751272
Si Si2 0.117070 0.830677 0.973898
Si Si3 0.744571 0.651208 0.627765
Si Si4 0.198989 0.959614 0.219539
Si Si5 0.544772 0.153591 0.096800
O O1 0.340897 0.159104 0.500000
O O2 0.352758 0.031703 0.742291
O O3 0.346145 0.153856 0.000000
O O4 0.225263 0.109401 0.788974
O O5 0.189717 0.806928 0.817160
O O6 0.045966 0.830881 0.786308
O O7 0.136462 0.915912 0.057963
O O8 0.772770 0.727231 0.500000
O O9 0.702229 0.583704 0.478189
O O10 0.819574 0.615465 0.742767
O O11 0.284519 0.964553 0.117378
O O12 0.569998 0.069998 0.000000
#
# Coordination Sequence:
#
# PCOD8310349 Si02
#       5
#     8   8   8   8   8
#     4  11  28  45  71 108 150 193 241 307 373 437
#     4  10  26  43  67 102 145 187 248 307 369 443
#     4  11  23  40  73 102 138 193 247 299 365 443
#     4  10  23  44  66 100 139 189 240 305 368 438
#     4  10  22  44  67  99 141 190 242 296 358 449
#
# _framework density 23.561879999999999
#
# number of rings (size 3 to 8) (size 9 to 14) (size 15 to 20)
#    0.000    1.600    2.000    0.000   11.200    4.000 
#    0.000    1.000    0.000    0.000    0.000    0.000 
#    0.000    0.000    0.000    0.000    0.000    0.000 
#
# Total GULP energy -495548.240077 kJ/mol
# GULP energy per Si atom -12388.706002 kJ/mol
# Density = 2.350825 g / cm^3
# Si number density = 23.561880 Si / 1000 Ang^3
#
#
#
# Elastic Constant Matrix: (Units=GPa)
#
#
# Indices 1 2 3 4 5 6 
#
# 1 46.6025 84.3889 27.8294 0.0000 0.0000 0.0000
# 2 84.3889 46.5961 27.8263 0.0000 0.0000 0.0000
# 3 27.8294 27.8263 99.1328 0.0000 0.0000 0.0000
# 4 0.0000 0.0000 0.0000 19.7801 0.0000 0.0000
# 5 0.0000 0.0000 0.0000 0.0000 19.7827 0.0000
# 6 0.0000 0.0000 0.0000 0.0000 0.0000 17.3565
#
#
#
# Elastic Compliance Matrix: (Units=1/GPa)
#
#
# Indices 1 2 3 4 5 6 
#
# 1 -0.008897 0.017565 -0.002433 0.000000 0.000000 0.000000
# 2 0.017565 -0.008898 -0.002434 0.000000 0.000000 0.000000
# 3 -0.002433 -0.002434 0.011454 0.000000 0.000000 0.000000
# 4 0.000000 0.000000 0.000000 0.050556 0.000000 0.000000
# 5 0.000000 0.000000 0.000000 0.000000 0.050549 0.000000
# 6 0.000000 0.000000 0.000000 0.000000 0.000000 0.057615
#
#
# Mechanical properties :
#
#
# Convention : Reuss Voigt Hill
#
# Bulk Modulus (GPa) = 52.47460 52.49114 52.48287
# Shear Modulus (GPa) = 37.49969 14.86966 26.18467
#
# Velocity S-wave (km/s) = 3.99374 2.51488 3.33726
# Velocity P-wave (km/s) = 6.60196 5.54609 6.09693
#
# Compressibility (1/GPa) = 0.01905684
#
# Stress axis : x y z
#
# Youngs Moduli (GPa) = -112.40311 -112.38956 87.30899
#
# Poissons Ratio (x) = 1.97415 0.21242
# Poissons Ratio (y) = 1.97439 0.21247
# Poissons Ratio (z) = -0.27348 -0.27350
#
# Static dielectric constant tensor:
#      x y z
#    x 4.298260 0.000000 0.000000 
#    y 0.000000 4.298260 0.000000 
#    z 0.000000 0.000000 4.276610 
# 
# 
# High freq. dielectric constant tensor:
#      x y z
#    x 1.934280 0.000000 0.000000 
#    y 0.000000 1.934280 0.000000 
#    z 0.000000 0.000000 1.922040 
# 
# From -- ./inp_files/565.got.cif
#   From: 2010.03.12/outbox.cif.g09.slc.cpg/sg117_1_cif.got.tgz:565.got - 2010.04.14 02:19:01.
