data_PCOD8310970
_publ_section_title
;
Structure prediction by ZEFSAII (Michael W. Deem and Ramdas Pophale) SiO2 
 PCOD8310970
Probable space group: I -4 M 2
;
_chemical_formula_sum "Si O2"
_cell_formula_units_Z 72
_cell_length_a 12.738924
_cell_length_b 12.738924
_cell_length_c 25.069358
_cell_angle_alpha 90.000000
_cell_angle_beta 90.000000
_cell_angle_gamma 90.000000
_cell_volume 4068.260046
_symmetry_space_group_name_H-M "I -4 M 2"
_symmetry_group_IT_number 119
_symmetry_cell_setting 'tetragonal'
loop_
_space_group_symop_operation_xyz
x,y,z
y,-x,-z
-x,-y,z
-y,x,-z
y,x,-z
-y,-x,-z
-x,y,z
x,-y,z
1/2+x,1/2+y,1/2+z
1/2+y,1/2-x,1/2-z
1/2-x,1/2-y,1/2+z
1/2-y,1/2+x,1/2-z
1/2+y,1/2+x,1/2-z
1/2-y,1/2-x,1/2-z
1/2-x,1/2+y,1/2+z
1/2+x,1/2-y,1/2+z
loop_
_atom_site_type_symbol
_atom_site_label
_atom_site_fract_x
_atom_site_fract_y
_atom_site_fract_z
Si Si1 0.119911 0.808994 0.946210
Si Si2 0.500000 0.375275 0.623675
Si Si3 0.000000 0.124427 0.242030
Si Si4 0.224721 0.122691 0.282801
Si Si5 0.619424 0.225341 0.094579
Si Si6 0.880059 0.119941 0.500000
O O1 0.127945 0.695531 0.918311
O O2 0.000000 0.833412 0.961029
O O3 0.165457 0.896356 0.906157
O O4 0.187946 0.812055 0.000000
O O5 0.500000 0.500000 0.627028
O O6 0.500000 0.327200 0.682723
O O7 0.893339 0.162833 0.270585
O O8 0.000000 0.000000 0.241089
O O9 0.309948 0.190053 0.250000
O O10 0.237315 0.139583 0.345595
O O11 0.240251 0.000000 0.267063
O O12 0.500000 0.187772 0.086722
O O13 0.650848 0.316919 0.053250
O O14 0.000000 0.141024 0.484590
#
# Coordination Sequence:
#
# PCOD8310970 Si02
#       6
#    16   8   8  16  16   8
#     4  11  20  33  52  78 111 141 176 220 268 322
#     4   9  18  30  52  76 104 136 176 218 267 310
#     4   9  18  34  54  81 107 141 183 230 270 317
#     4  10  21  36  56  82 112 145 186 229 279 328
#     4  10  21  35  53  79 107 142 178 216 269 328
#     4   9  18  32  52  74  99 128 168 216 263 310
#
# _framework density 17.697984000000002
#
# number of rings (size 3 to 8) (size 9 to 14) (size 15 to 20)
#    0.000    2.111    2.222    1.333    1.556    3.333 
#    0.000    2.222    0.000    0.333    0.000    0.000 
#    0.000    0.000    0.000    0.000    0.000    0.000 
#
# Total GULP energy -446314.972379 kJ/mol
# GULP energy per Si atom -12397.638122 kJ/mol
# Density = 1.765770 g / cm^3
# Si number density = 17.697984 Si / 1000 Ang^3
#
#
#
# Elastic Constant Matrix: (Units=GPa)
#
#
# Indices 1 2 3 4 5 6 
#
# 1 85.7728 42.0065 48.9644 0.0000 0.0000 0.0000
# 2 42.0065 85.7747 48.9640 0.0000 0.0000 0.0000
# 3 48.9644 48.9640 134.8316 0.0000 0.0000 0.0000
# 4 0.0000 0.0000 0.0000 25.5636 0.0000 0.0000
# 5 0.0000 0.0000 0.0000 0.0000 25.5631 0.0000
# 6 0.0000 0.0000 0.0000 0.0000 0.0000 23.6499
#
#
#
# Elastic Compliance Matrix: (Units=1/GPa)
#
#
# Indices 1 2 3 4 5 6 
#
# 1 0.016846 -0.006002 -0.003938 0.000000 0.000000 0.000000
# 2 -0.006002 0.016846 -0.003938 0.000000 0.000000 0.000000
# 3 -0.003938 -0.003938 0.010277 0.000000 0.000000 0.000000
# 4 0.000000 0.000000 0.000000 0.039118 0.000000 0.000000
# 5 0.000000 0.000000 0.000000 0.000000 0.039119 0.000000
# 6 0.000000 0.000000 0.000000 0.000000 0.000000 0.042284
#
#
# Mechanical properties :
#
#
# Convention : Reuss Voigt Hill
#
# Bulk Modulus (GPa) = 61.67984 65.13878 63.40931
# Shear Modulus (GPa) = 25.29727 26.05160 25.67443
#
# Velocity S-wave (km/s) = 3.78483 3.84084 3.81294
# Velocity P-wave (km/s) = 7.35030 7.52031 7.43579
#
# Compressibility (1/GPa) = 0.01621275
#
# Stress axis : x y z
#
# Youngs Moduli (GPa) = 59.36021 59.36215 97.30627
#
# Poissons Ratio (x) = 0.35630 0.38320
# Poissons Ratio (y) = 0.35629 0.38318
# Poissons Ratio (z) = 0.23377 0.23376
#
# Static dielectric constant tensor:
#      x y z
#    x 3.183410 0.000000 0.000000 
#    y 0.000000 3.183410 0.000000 
#    z 0.000000 0.000000 3.452970 
# 
# 
# High freq. dielectric constant tensor:
#      x y z
#    x 1.669200 0.000000 0.000000 
#    y 0.000000 1.669200 0.000000 
#    z 0.000000 0.000000 1.701640 
# 
# From -- ./inp_files/9418.got.cif
#   From: 2010.03.12/outbox.cif.g09.slc.cpg/sg119_5_cif.got.tgz:9418.got - 2010.04.14 02:25:26.
