data_PCOD8310204
_publ_section_title
;
Structure prediction by ZEFSAII (Michael W. Deem and Ramdas Pophale) SiO2 
 PCOD8310204
Probable space group: P -4 C 2
;
_chemical_formula_sum "Si O2"
_cell_formula_units_Z 42
_cell_length_a 14.422338
_cell_length_b 14.422338
_cell_length_c 9.843780
_cell_angle_alpha 90.000000
_cell_angle_beta 90.000000
_cell_angle_gamma 90.000000
_cell_volume 2047.543975
_symmetry_space_group_name_H-M "P -4 C 2"
_symmetry_group_IT_number 116
_symmetry_cell_setting 'tetragonal'
loop_
_space_group_symop_operation_xyz
x,y,z
y,-x,-z
-x,-y,z
-y,x,-z
y,x,1/2-z
-y,-x,1/2-z
-x,y,1/2+z
x,-y,1/2+z
loop_
_atom_site_type_symbol
_atom_site_label
_atom_site_fract_x
_atom_site_fract_y
_atom_site_fract_z
Si Si1 0.500001 0.772376 1.000000
Si Si2 0.502696 0.352654 0.250000
Si Si3 0.144468 0.855534 0.096249
Si Si4 0.000000 0.000000 0.500000
Si Si5 0.913393 0.344826 0.411988
Si Si6 0.344824 0.913393 0.411986
O O1 0.528206 0.707183 0.122372
O O2 0.412338 0.830380 0.050776
O O3 0.471794 0.707183 0.877629
O O4 0.587666 0.830378 0.949222
O O5 0.444513 0.444513 0.250000
O O6 0.611341 0.388660 0.250000
O O7 0.167634 0.832367 0.250000
O O8 0.241443 0.889471 0.032354
O O9 0.110527 0.758559 0.032357
O O10 0.065563 0.934440 0.089990
O O11 0.935068 0.347776 0.250001
O O12 0.000001 0.380291 0.500001
#
# Coordination Sequence:
#
# PCOD8310204 Si02
#       6
#     8   8   8   2   8   8
#     4  12  25  43  72  98 136 178 222 281 339 412
#     4  11  26  46  69 100 134 174 227 282 338 401
#     4  10  23  41  67  96 134 176 227 278 339 396
#     4  12  18  44  68 102 124 184 226 292 326 388
#     4  11  25  44  66  98 137 180 223 280 341 408
#     4  11  25  44  66  98 137 180 223 280 341 408
#
# _framework density 20.512381000000001
#
# number of rings (size 3 to 8) (size 9 to 14) (size 15 to 20)
#    0.000    0.952    3.810    2.000    8.000    3.048 
#    0.000    0.952    0.000    0.000    0.000    0.000 
#    0.000    0.000    0.000    0.000    0.000    0.000 
#
# Total GULP energy -520694.881594 kJ/mol
# GULP energy per Si atom -12397.497181 kJ/mol
# Density = 2.046569 g / cm^3
# Si number density = 20.512381 Si / 1000 Ang^3
#
#
#
# Elastic Constant Matrix: (Units=GPa)
#
#
# Indices 1 2 3 4 5 6 
#
# 1 112.1108 42.0474 38.9121 0.0000 0.0000 0.0000
# 2 42.0474 112.1123 38.9125 0.0000 0.0000 0.0000
# 3 38.9121 38.9125 133.3372 0.0000 0.0000 0.0000
# 4 0.0000 0.0000 0.0000 19.1527 0.0000 0.0000
# 5 0.0000 0.0000 0.0000 0.0000 19.1527 0.0000
# 6 0.0000 0.0000 0.0000 0.0000 0.0000 32.2761
#
#
#
# Elastic Compliance Matrix: (Units=1/GPa)
#
#
# Indices 1 2 3 4 5 6 
#
# 1 0.010940 -0.003333 -0.002220 0.000000 0.000000 0.000000
# 2 -0.003333 0.010940 -0.002220 0.000000 0.000000 0.000000
# 3 -0.002220 -0.002220 0.008796 0.000000 0.000000 0.000000
# 4 0.000000 0.000000 0.000000 0.052212 0.000000 0.000000
# 5 0.000000 0.000000 0.000000 0.000000 0.052212 0.000000
# 6 0.000000 0.000000 0.000000 0.000000 0.000000 0.030983
#
#
# Mechanical properties :
#
#
# Convention : Reuss Voigt Hill
#
# Bulk Modulus (GPa) = 66.09288 66.36713 66.23001
# Shear Modulus (GPa) = 26.78502 29.96219 28.37361
#
# Velocity S-wave (km/s) = 3.61750 3.82604 3.72323
# Velocity P-wave (km/s) = 7.05261 7.20715 7.13030
#
# Compressibility (1/GPa) = 0.01513022
#
# Stress axis : x y z
#
# Youngs Moduli (GPa) = 91.40599 91.40717 113.69300
#
# Poissons Ratio (x) = 0.30462 0.25242
# Poissons Ratio (y) = 0.30461 0.25242
# Poissons Ratio (z) = 0.20294 0.20294
#
# Static dielectric constant tensor:
#      x y z
#    x 3.837280 0.000000 0.000000 
#    y 0.000000 3.837270 0.000000 
#    z 0.000000 0.000000 3.670210 
# 
# 
# High freq. dielectric constant tensor:
#      x y z
#    x 1.815870 0.000000 0.000000 
#    y 0.000000 1.815870 0.000000 
#    z 0.000000 0.000000 1.796540 
# 
# From -- ./inp_files/867.got.cif
#   From: 2010.03.12/outbox.cif.g09.slc.cpg/sg116_1_cif.got.tgz:867.got - 2010.04.14 02:15:44.
