data_PCOD8310742
_publ_section_title
;
Structure prediction by ZEFSAII (Michael W. Deem and Ramdas Pophale) SiO2 
 PCOD8310742
Probable space group: I -4 M 2
;
_chemical_formula_sum "Si O2"
_cell_formula_units_Z 72
_cell_length_a 18.179044
_cell_length_b 18.179044
_cell_length_c 11.524738
_cell_angle_alpha 90.000000
_cell_angle_beta 90.000000
_cell_angle_gamma 90.000000
_cell_volume 3808.668225
_symmetry_space_group_name_H-M "I -4 M 2"
_symmetry_group_IT_number 119
_symmetry_cell_setting 'tetragonal'
loop_
_space_group_symop_operation_xyz
x,y,z
y,-x,-z
-x,-y,z
-y,x,-z
y,x,-z
-y,-x,-z
-x,y,z
x,-y,z
1/2+x,1/2+y,1/2+z
1/2+y,1/2-x,1/2-z
1/2-x,1/2-y,1/2+z
1/2-y,1/2+x,1/2-z
1/2+y,1/2+x,1/2-z
1/2-y,1/2-x,1/2-z
1/2-x,1/2+y,1/2+z
1/2+x,1/2-y,1/2+z
loop_
_atom_site_type_symbol
_atom_site_label
_atom_site_fract_x
_atom_site_fract_y
_atom_site_fract_z
Si Si1 0.915513 0.584488 0.250000
Si Si2 0.756415 0.167460 0.161559
Si Si3 0.149969 0.919119 0.326027
Si Si4 0.339356 0.193322 0.585522
Si Si5 0.079286 0.214204 0.424418
O O1 0.905437 0.500000 0.205550
O O2 0.854202 0.596493 0.352086
O O3 0.695321 0.195321 0.250000
O O4 0.799512 0.098077 0.214453
O O5 0.820035 0.228484 0.142110
O O6 0.710729 0.141848 0.048066
O O7 0.201184 0.916859 0.438929
O O8 0.085634 0.860145 0.347844
O O9 0.114956 0.000000 0.308477
O O10 0.266367 0.145940 0.607053
O O11 0.000000 0.249442 0.392802
#
# Coordination Sequence:
#
# PCOD8310742 Si02
#       5
#     8  16  16  16  16
#     4  11  24  40  56  78 114 156 192 229 274 326
#     4  11  18  33  56  82 108 140 180 233 285 325
#     4  10  19  31  48  77 113 145 179 223 276 331
#     4  11  20  34  60  81 107 141 189 240 274 324
#     4  10  18  30  51  79 109 146 182 220 274 331
#
# _framework density 18.904246000000001
#
# number of rings (size 3 to 8) (size 9 to 14) (size 15 to 20)
#    0.000    1.444    5.556    2.000    0.000    1.333 
#    0.000    2.222    0.000    1.333    0.000    1.556 
#    0.000    0.000    0.000    0.000    0.000    0.000 
#
# Total GULP energy -446066.517406 kJ/mol
# GULP energy per Si atom -12390.736595 kJ/mol
# Density = 1.886122 g / cm^3
# Si number density = 18.904246 Si / 1000 Ang^3
#
#
#
# Elastic Constant Matrix: (Units=GPa)
#
#
# Indices 1 2 3 4 5 6 
#
# 1 75.7469 27.8330 29.1434 0.0000 0.0000 0.0000
# 2 27.8330 75.7473 29.1435 0.0000 0.0000 0.0000
# 3 29.1434 29.1435 112.7179 0.0000 0.0000 0.0000
# 4 0.0000 0.0000 0.0000 17.6627 0.0000 0.0000
# 5 0.0000 0.0000 0.0000 0.0000 17.6621 0.0000
# 6 0.0000 0.0000 0.0000 0.0000 0.0000 21.6900
#
#
#
# Elastic Compliance Matrix: (Units=1/GPa)
#
#
# Indices 1 2 3 4 5 6 
#
# 1 0.016084 -0.004786 -0.002921 0.000000 0.000000 0.000000
# 2 -0.004786 0.016084 -0.002921 0.000000 0.000000 0.000000
# 3 -0.002921 -0.002921 0.010382 0.000000 0.000000 0.000000
# 4 0.000000 0.000000 0.000000 0.056616 0.000000 0.000000
# 5 0.000000 0.000000 0.000000 0.000000 0.056619 0.000000
# 6 0.000000 0.000000 0.000000 0.000000 0.000000 0.046104
#
#
# Mechanical properties :
#
#
# Convention : Reuss Voigt Hill
#
# Bulk Modulus (GPa) = 46.96171 48.49462 47.72817
# Shear Modulus (GPa) = 21.71596 23.27577 22.49587
#
# Velocity S-wave (km/s) = 3.39298 3.51272 3.45337
# Velocity P-wave (km/s) = 6.34394 6.49313 6.41897
#
# Compressibility (1/GPa) = 0.02129394
#
# Stress axis : x y z
#
# Youngs Moduli (GPa) = 62.17176 62.17209 96.31819
#
# Poissons Ratio (x) = 0.29757 0.28136
# Poissons Ratio (y) = 0.29757 0.28136
# Poissons Ratio (z) = 0.18161 0.18161
#
# Static dielectric constant tensor:
#      x y z
#    x 3.460160 0.000000 0.000000 
#    y 0.000000 3.460190 0.000000 
#    z 0.000000 0.000000 3.603950 
# 
# 
# High freq. dielectric constant tensor:
#      x y z
#    x 1.720170 0.000000 0.000000 
#    y 0.000000 1.720170 0.000000 
#    z 0.000000 0.000000 1.732260 
# 
# From -- ./inp_files/3899.got.cif
#   From: 2010.03.12/outbox.cif.g09.slc.cpg/sg119_2_cif.got.tgz:3899.got - 2010.04.14 02:25:26.
