data_PCOD8310160
_publ_section_title
;
Structure prediction by ZEFSAII (Michael W. Deem and Ramdas Pophale) SiO2 
 PCOD8310160
Probable space group: P -4 C 2
;
_chemical_formula_sum "Si O2"
_cell_formula_units_Z 36
_cell_length_a 11.960289
_cell_length_b 11.960289
_cell_length_c 12.169970
_cell_angle_alpha 90.000000
_cell_angle_beta 90.000000
_cell_angle_gamma 90.000000
_cell_volume 1740.896111
_symmetry_space_group_name_H-M "P -4 C 2"
_symmetry_group_IT_number 116
_symmetry_cell_setting 'tetragonal'
loop_
_space_group_symop_operation_xyz
x,y,z
y,-x,-z
-x,-y,z
-y,x,-z
y,x,1/2-z
-y,-x,1/2-z
-x,y,1/2+z
x,-y,1/2+z
loop_
_atom_site_type_symbol
_atom_site_label
_atom_site_fract_x
_atom_site_fract_y
_atom_site_fract_z
Si Si1 0.840172 0.699421 0.003111
Si Si2 0.773474 0.933857 0.086411
Si Si3 0.636290 0.187403 0.760360
Si Si4 0.500000 0.500000 0.500000
Si Si5 0.694505 0.562116 0.843130
Si Si6 0.000000 0.000000 0.000000
O O1 0.779400 0.818016 0.020912
O O2 0.841168 0.622254 0.111577
O O3 0.765672 0.652925 0.906346
O O4 0.970895 0.701469 0.972533
O O5 0.714969 0.908230 0.203971
O O6 0.900634 0.979313 0.087979
O O7 0.692590 0.307411 0.750000
O O8 0.516504 0.207264 0.705402
O O9 0.496701 0.611248 0.574754
O O10 0.620751 0.620751 0.750000
#
# Coordination Sequence:
#
# PCOD8310160 Si02
#       6
#     8   8   8   2   8   2
#     4  10  22  40  62  89 123 159 205 258 314 386
#     4   9  19  39  62  89 122 161 204 254 315 380
#     4  10  21  39  60  86 120 159 204 258 314 374
#     4  12  22  40  64  86 120 164 214 264 308 370
#     4  12  24  39  62  90 119 162 211 259 317 384
#     4   8  16  36  66  92 120 162 210 256 308 378
#
# _framework density 20.679005
#
# number of rings (size 3 to 8) (size 9 to 14) (size 15 to 20)
#    0.000    1.778    0.000    5.667    0.000    2.667 
#    0.000   27.222    0.000    0.000    0.000    0.000 
#    0.000    0.000    0.000    0.000    0.000    0.000 
#
# Total GULP energy -446111.614403 kJ/mol
# GULP energy per Si atom -12391.989289 kJ/mol
# Density = 2.063194 g / cm^3
# Si number density = 20.679005 Si / 1000 Ang^3
#
#
#
# Elastic Constant Matrix: (Units=GPa)
#
#
# Indices 1 2 3 4 5 6 
#
# 1 79.0321 39.9381 44.8830 0.0000 0.0000 0.0000
# 2 39.9381 79.0328 44.8834 0.0000 0.0000 0.0000
# 3 44.8830 44.8834 113.7896 0.0000 0.0000 0.0000
# 4 0.0000 0.0000 0.0000 30.7927 0.0000 0.0000
# 5 0.0000 0.0000 0.0000 0.0000 30.7933 0.0000
# 6 0.0000 0.0000 0.0000 0.0000 0.0000 30.5733
#
#
#
# Elastic Compliance Matrix: (Units=1/GPa)
#
#
# Indices 1 2 3 4 5 6 
#
# 1 0.018773 -0.006806 -0.004720 0.000000 0.000000 0.000000
# 2 -0.006806 0.018773 -0.004720 0.000000 0.000000 0.000000
# 3 -0.004720 -0.004720 0.012512 0.000000 0.000000 0.000000
# 4 0.000000 0.000000 0.000000 0.032475 0.000000 0.000000
# 5 0.000000 0.000000 0.000000 0.000000 0.032475 0.000000
# 6 0.000000 0.000000 0.000000 0.000000 0.000000 0.032708
#
#
# Mechanical properties :
#
#
# Convention : Reuss Voigt Hill
#
# Bulk Modulus (GPa) = 56.93201 59.02929 57.98065
# Shear Modulus (GPa) = 26.87244 27.90853 27.39049
#
# Velocity S-wave (km/s) = 3.60877 3.67769 3.64339
# Velocity P-wave (km/s) = 6.70488 6.82944 6.76745
#
# Compressibility (1/GPa) = 0.01756481
#
# Stress axis : x y z
#
# Youngs Moduli (GPa) = 53.26764 53.26795 79.92405
#
# Poissons Ratio (x) = 0.36254 0.37726
# Poissons Ratio (y) = 0.36254 0.37727
# Poissons Ratio (z) = 0.25144 0.25144
#
# Static dielectric constant tensor:
#      x y z
#    x 3.755250 0.000000 0.000000 
#    y 0.000000 3.755250 0.000000 
#    z 0.000000 0.000000 3.841360 
# 
# 
# High freq. dielectric constant tensor:
#      x y z
#    x 1.809930 0.000000 0.000000 
#    y 0.000000 1.809930 0.000000 
#    z 0.000000 0.000000 1.805380 
# 
# From -- ./inp_files/1753.got.cif
#   From: 2010.03.12/outbox.cif.g09.slc.cpg/sg116_1_cif.got.tgz:1753.got - 2010.04.14 02:15:44.
