data_PCOD8310684
_publ_section_title
;
Structure prediction by ZEFSAII (Michael W. Deem and Ramdas Pophale) SiO2 
 PCOD8310684
Probable space group: I -4 M 2
;
_chemical_formula_sum "Si O2"
_cell_formula_units_Z 88
_cell_length_a 14.067200
_cell_length_b 14.067200
_cell_length_c 31.317488
_cell_angle_alpha 90.000000
_cell_angle_beta 90.000000
_cell_angle_gamma 90.000000
_cell_volume 6197.296058
_symmetry_space_group_name_H-M "I -4 M 2"
_symmetry_group_IT_number 119
_symmetry_cell_setting 'tetragonal'
loop_
_space_group_symop_operation_xyz
x,y,z
y,-x,-z
-x,-y,z
-y,x,-z
y,x,-z
-y,-x,-z
-x,y,z
x,-y,z
1/2+x,1/2+y,1/2+z
1/2+y,1/2-x,1/2-z
1/2-x,1/2-y,1/2+z
1/2-y,1/2+x,1/2-z
1/2+y,1/2+x,1/2-z
1/2-y,1/2-x,1/2-z
1/2-x,1/2+y,1/2+z
1/2+x,1/2-y,1/2+z
loop_
_atom_site_type_symbol
_atom_site_label
_atom_site_fract_x
_atom_site_fract_y
_atom_site_fract_z
Si Si1 0.611575 0.107100 0.174198
Si Si2 0.112267 0.602704 0.920190
Si Si3 0.288537 0.211464 0.250000
Si Si4 0.611783 0.289792 0.460688
Si Si5 0.111694 0.896266 0.877650
Si Si6 0.111986 0.111390 0.218423
O O1 0.500000 0.106861 0.183249
O O2 0.633133 0.149081 0.126853
O O3 0.661301 0.174257 0.207823
O O4 0.652528 0.000000 0.179117
O O5 0.154531 0.500000 0.933874
O O6 0.136982 0.678082 0.957145
O O7 0.000000 0.594824 0.914478
O O8 0.175965 0.183989 0.246829
O O9 0.667764 0.332237 0.500000
O O10 0.500000 0.308704 0.467533
O O11 0.650824 0.332118 0.416107
O O12 0.133545 0.856243 0.830493
O O13 0.000000 0.905543 0.883008
O O14 0.158940 0.000000 0.882636
O O15 0.000000 0.133635 0.225352
O O16 0.131528 0.000000 0.229478
#
# Coordination Sequence:
#
# PCOD8310684 Si02
#       6
#    16  16   8  16  16  16
#     4   9  16  24  36  59  87 107 123 148 188 239
#     4   8  15  27  38  49  74 109 132 147 179 231
#     4  12  18  23  40  61  80 104 138 172 196 220
#     4  10  17  23  35  57  80  99 124 156 185 217
#     4   8  14  25  38  52  77 109 129 145 181 233
#     4   9  18  30  41  56  81 111 138 162 195 242
#
# _framework density 14.199741
#
# number of rings (size 3 to 8) (size 9 to 14) (size 15 to 20)
#    0.000    2.909    0.000    5.455    0.000    4.545 
#    0.000    0.000    0.000    0.273    0.000    5.091 
#    0.000    3.273    0.000    0.000    0.000    0.000 
#
# Total GULP energy -545089.334911 kJ/mol
# GULP energy per Si atom -12388.393975 kJ/mol
# Density = 1.416742 g / cm^3
# Si number density = 14.199741 Si / 1000 Ang^3
#
#
#
# Elastic Constant Matrix: (Units=GPa)
#
#
# Indices 1 2 3 4 5 6 
#
# 1 59.5409 40.9076 45.9648 0.0000 0.0000 0.0000
# 2 40.9076 59.5415 45.9649 0.0000 0.0000 0.0000
# 3 45.9648 45.9649 72.3921 0.0000 0.0000 0.0000
# 4 0.0000 0.0000 0.0000 18.5632 0.0000 0.0000
# 5 0.0000 0.0000 0.0000 0.0000 18.5636 0.0000
# 6 0.0000 0.0000 0.0000 0.0000 0.0000 14.6666
#
#
#
# Elastic Compliance Matrix: (Units=1/GPa)
#
#
# Indices 1 2 3 4 5 6 
#
# 1 0.038716 -0.014951 -0.015090 0.000000 0.000000 0.000000
# 2 -0.014951 0.038715 -0.015089 0.000000 0.000000 0.000000
# 3 -0.015090 -0.015089 0.032976 0.000000 0.000000 0.000000
# 4 0.000000 0.000000 0.000000 0.053870 0.000000 0.000000
# 5 0.000000 0.000000 0.000000 0.000000 0.053869 0.000000
# 6 0.000000 0.000000 0.000000 0.000000 0.000000 0.068182
#
#
# Mechanical properties :
#
#
# Convention : Reuss Voigt Hill
#
# Bulk Modulus (GPa) = 49.63314 50.79435 50.21375
# Shear Modulus (GPa) = 13.04450 14.26782 13.65616
#
# Velocity S-wave (km/s) = 3.03420 3.17329 3.10452
# Velocity P-wave (km/s) = 6.87783 7.01964 6.94910
#
# Compressibility (1/GPa) = 0.02014783
#
# Stress axis : x y z
#
# Youngs Moduli (GPa) = 25.82903 25.82946 30.32553
#
# Poissons Ratio (x) = 0.38617 0.45760
# Poissons Ratio (y) = 0.38616 0.45759
# Poissons Ratio (z) = 0.38975 0.38975
#
# Static dielectric constant tensor:
#      x y z
#    x 2.802780 0.000000 0.000000 
#    y 0.000000 2.802750 0.000000 
#    z 0.000000 0.000000 2.775080 
# 
# 
# High freq. dielectric constant tensor:
#      x y z
#    x 1.512390 0.000000 0.000000 
#    y 0.000000 1.512390 0.000000 
#    z 0.000000 0.000000 1.536140 
# 
# From -- ./inp_files/9482.got.cif
#   From: 2010.03.12/outbox.cif.g09.slc.cpg/sg119_5_cif.got.tgz:9482.got - 2010.04.14 02:25:26.
