data_PCOD8310854
_publ_section_title
;
Structure prediction by ZEFSAII (Michael W. Deem and Ramdas Pophale) SiO2 
 PCOD8310854
Probable space group: I -4 M 2
;
_chemical_formula_sum "Si O2"
_cell_formula_units_Z 120
_cell_length_a 25.988705
_cell_length_b 25.988705
_cell_length_c 9.844540
_cell_angle_alpha 90.000000
_cell_angle_beta 90.000000
_cell_angle_gamma 90.000000
_cell_volume 6649.128204
_symmetry_space_group_name_H-M "I -4 M 2"
_symmetry_group_IT_number 119
_symmetry_cell_setting 'tetragonal'
loop_
_space_group_symop_operation_xyz
x,y,z
y,-x,-z
-x,-y,z
-y,x,-z
y,x,-z
-y,-x,-z
-x,y,z
x,-y,z
1/2+x,1/2+y,1/2+z
1/2+y,1/2-x,1/2-z
1/2-x,1/2-y,1/2+z
1/2-y,1/2+x,1/2-z
1/2+y,1/2+x,1/2-z
1/2-y,1/2-x,1/2-z
1/2-x,1/2+y,1/2+z
1/2+x,1/2-y,1/2+z
loop_
_atom_site_type_symbol
_atom_site_label
_atom_site_fract_x
_atom_site_fract_y
_atom_site_fract_z
Si Si1 0.200849 0.283707 0.509414
Si Si2 0.940843 0.142251 0.995480
Si Si3 0.060188 0.780194 0.763578
Si Si4 0.381957 0.699892 0.006145
Si Si5 0.657758 0.157758 0.750000
Si Si6 0.058585 0.319372 0.114018
Si Si7 0.883306 0.680339 0.842854
Si Si8 0.056725 0.212575 0.237769
O O1 0.256937 0.256937 0.500000
O O2 0.159735 0.241318 0.557069
O O3 0.181062 0.310616 0.373615
O O4 0.205625 0.328482 0.619435
O O5 0.918679 0.182303 0.882817
O O6 0.000000 0.130431 0.961000
O O7 0.911033 0.088968 0.000000
O O8 0.933433 0.162494 0.148368
O O9 0.072646 0.804229 0.616376
O O10 0.084925 0.723577 0.764494
O O11 0.000000 0.772507 0.781963
O O12 0.356133 0.643868 0.000000
O O13 0.402279 0.716736 0.858188
O O14 0.662828 0.095912 0.764010
O O15 0.059569 0.257734 0.125154
O O16 0.000000 0.340665 0.130306
O O17 0.082794 0.338138 0.971567
O O18 0.870101 0.629900 0.750000
O O19 0.000000 0.211899 0.304848
#
# Coordination Sequence:
#
# PCOD8310854 Si02
#       8
#    16  16  16  16   8  16  16  16
#     4  10  22  32  49  77 114 149 179 216 268 337
#     4  10  21  37  57  81 107 144 193 242 294 344
#     4  11  22  37  56  80 110 150 194 235 280 340
#     4  11  21  34  50  77 114 151 185 229 279 334
#     4  10  20  36  54  81 110 142 188 228 272 327
#     4  10  20  37  59  81 110 146 189 233 278 332
#     4  11  21  36  53  79 114 147 183 228 276 336
#     4  10  19  35  55  78 106 144 188 232 281 336
#
# _framework density 18.047478999999999
#
# number of rings (size 3 to 8) (size 9 to 14) (size 15 to 20)
#    0.000    1.600    4.000    1.600    0.933    0.667 
#    0.000    0.000    0.000    0.200    0.000    0.000 
#    0.000   12.000    0.000    0.000    0.000    0.000 
#
# Total GULP energy -743742.715136 kJ/mol
# GULP energy per Si atom -12395.711919 kJ/mol
# Density = 1.800640 g / cm^3
# Si number density = 18.047479 Si / 1000 Ang^3
#
#
#
# Elastic Constant Matrix: (Units=GPa)
#
#
# Indices 1 2 3 4 5 6 
#
# 1 89.3173 44.4490 30.7763 0.0000 0.0000 0.0000
# 2 44.4490 89.3249 30.7761 0.0000 0.0000 0.0000
# 3 30.7763 30.7761 82.9595 0.0000 0.0000 0.0000
# 4 0.0000 0.0000 0.0000 26.1330 0.0000 0.0000
# 5 0.0000 0.0000 0.0000 0.0000 26.1329 0.0000
# 6 0.0000 0.0000 0.0000 0.0000 0.0000 27.7016
#
#
#
# Elastic Compliance Matrix: (Units=1/GPa)
#
#
# Indices 1 2 3 4 5 6 
#
# 1 0.015651 -0.006636 -0.003344 0.000000 0.000000 0.000000
# 2 -0.006636 0.015649 -0.003344 0.000000 0.000000 0.000000
# 3 -0.003344 -0.003344 0.014535 0.000000 0.000000 0.000000
# 4 0.000000 0.000000 0.000000 0.038266 0.000000 0.000000
# 5 0.000000 0.000000 0.000000 0.000000 0.038266 0.000000
# 6 0.000000 0.000000 0.000000 0.000000 0.000000 0.036099
#
#
# Mechanical properties :
#
#
# Convention : Reuss Voigt Hill
#
# Bulk Modulus (GPa) = 52.11763 52.62274 52.37018
# Shear Modulus (GPa) = 26.10839 26.36684 26.23761
#
# Velocity S-wave (km/s) = 3.80761 3.82641 3.81702
# Velocity P-wave (km/s) = 6.94775 6.98163 6.96471
#
# Compressibility (1/GPa) = 0.01918737
#
# Stress axis : x y z
#
# Youngs Moduli (GPa) = 63.89498 63.90137 68.79819
#
# Poissons Ratio (x) = 0.42403 0.23009
# Poissons Ratio (y) = 0.42398 0.23005
# Poissons Ratio (z) = 0.21369 0.21367
#
# Static dielectric constant tensor:
#      x y z
#    x 3.298040 0.000000 0.000000 
#    y 0.000000 3.298030 0.000000 
#    z 0.000000 0.000000 3.392480 
# 
# 
# High freq. dielectric constant tensor:
#      x y z
#    x 1.685910 0.000000 0.000000 
#    y 0.000000 1.685910 0.000000 
#    z 0.000000 0.000000 1.705620 
# 
# From -- ./inp_files/2911.got.cif
#   From: 2010.03.12/outbox.cif.g09.slc.cpg/sg119_2_cif.got.tgz:2911.got - 2010.04.14 02:25:26.
