data_PCOD8310391
_publ_section_title
;
Structure prediction by ZEFSAII (Michael W. Deem and Ramdas Pophale) SiO2 
 PCOD8310391
Probable space group: P -4 B 2
;
_chemical_formula_sum "Si O2"
_cell_formula_units_Z 40
_cell_length_a 14.007474
_cell_length_b 14.007474
_cell_length_c 8.538640
_cell_angle_alpha 90.000000
_cell_angle_beta 90.000000
_cell_angle_gamma 90.000000
_cell_volume 1675.360815
_symmetry_space_group_name_H-M "P -4 B 2"
_symmetry_group_IT_number 117
_symmetry_cell_setting 'tetragonal'
loop_
_space_group_symop_operation_xyz
x,y,z
y,-x,-z
-x,-y,z
-y,x,-z
1/2+y,1/2+x,-z
1/2-y,1/2-x,-z
1/2-x,1/2+y,z
1/2+x,1/2-y,z
loop_
_atom_site_type_symbol
_atom_site_label
_atom_site_fract_x
_atom_site_fract_y
_atom_site_fract_z
Si Si1 0.910291 0.836084 0.314352
Si Si2 0.008424 0.785928 0.824429
Si Si3 0.334155 0.632970 0.649772
Si Si4 0.616755 0.884138 0.323518
Si Si5 0.827010 0.544132 0.890528
O O1 0.851861 0.831363 0.474358
O O2 0.893999 0.732817 0.234361
O O3 0.020592 0.855701 0.349297
O O4 0.873932 0.919748 0.199200
O O5 0.901431 0.813720 0.773956
O O6 0.041098 0.697782 0.718433
O O7 0.011383 0.752610 0.005259
O O8 0.224425 0.655103 0.691237
O O9 0.587689 0.912312 0.500000
O O10 0.528724 0.895913 0.202654
O O11 0.889445 0.610556 0.000000
#
# Coordination Sequence:
#
# PCOD8310391 Si02
#       5
#     8   8   8   8   8
#     4  11  23  44  73 106 149 192 251 314 387 462
#     4  12  25  42  75 107 151 195 248 320 386 458
#     4  11  23  45  73 112 148 198 253 322 381 459
#     4  11  24  49  77 105 147 201 260 312 383 459
#     4  11  29  48  71 108 155 202 254 324 394 466
#
# _framework density 23.875454000000001
#
# number of rings (size 3 to 8) (size 9 to 14) (size 15 to 20)
#    0.000    0.800    4.000    2.400    8.400    1.600 
#    0.000    4.000    0.000    0.000    0.000    0.000 
#    0.000    0.000    0.000    0.000    0.000    0.000 
#
# Total GULP energy -496200.423373 kJ/mol
# GULP energy per Si atom -12405.010584 kJ/mol
# Density = 2.382111 g / cm^3
# Si number density = 23.875454 Si / 1000 Ang^3
#
#
#
# Elastic Constant Matrix: (Units=GPa)
#
#
# Indices 1 2 3 4 5 6 
#
# 1 86.6456 35.9226 38.1503 0.0000 0.0000 0.0000
# 2 35.9226 86.6444 38.1497 0.0000 0.0000 0.0000
# 3 38.1503 38.1497 120.5568 0.0000 0.0000 0.0000
# 4 0.0000 0.0000 0.0000 50.4363 0.0000 0.0000
# 5 0.0000 0.0000 0.0000 0.0000 50.4367 0.0000
# 6 0.0000 0.0000 0.0000 0.0000 0.0000 42.8191
#
#
#
# Elastic Compliance Matrix: (Units=1/GPa)
#
#
# Indices 1 2 3 4 5 6 
#
# 1 0.014938 -0.004777 -0.003215 0.000000 0.000000 0.000000
# 2 -0.004777 0.014938 -0.003215 0.000000 0.000000 0.000000
# 3 -0.003215 -0.003215 0.010330 0.000000 0.000000 0.000000
# 4 0.000000 0.000000 0.000000 0.019827 0.000000 0.000000
# 5 0.000000 0.000000 0.000000 0.000000 0.019827 0.000000
# 6 0.000000 0.000000 0.000000 0.000000 0.000000 0.023354
#
#
# Mechanical properties :
#
#
# Convention : Reuss Voigt Hill
#
# Bulk Modulus (GPa) = 56.21303 57.58800 56.90052
# Shear Modulus (GPa) = 38.00588 40.84669 39.42628
#
# Velocity S-wave (km/s) = 3.99411 4.14070 4.06807
# Velocity P-wave (km/s) = 6.69821 6.85806 6.77861
#
# Compressibility (1/GPa) = 0.01778947
#
# Stress axis : x y z
#
# Youngs Moduli (GPa) = 66.94495 66.94427 96.80787
#
# Poissons Ratio (x) = 0.31982 0.31126
# Poissons Ratio (y) = 0.31983 0.31125
# Poissons Ratio (z) = 0.21524 0.21524
#
# Static dielectric constant tensor:
#      x y z
#    x 4.405480 0.000000 0.000000 
#    y 0.000000 4.405490 0.000000 
#    z 0.000000 0.000000 4.579070 
# 
# 
# High freq. dielectric constant tensor:
#      x y z
#    x 1.947460 0.000000 0.000000 
#    y 0.000000 1.947460 0.000000 
#    z 0.000000 0.000000 1.960020 
# 
# From -- ./inp_files/1724.got.cif
#   From: 2010.03.12/outbox.cif.g09.slc.cpg/sg117_1_cif.got.tgz:1724.got - 2010.04.14 02:19:01.
