data_PCOD8310292
_publ_section_title
;
Structure prediction by ZEFSAII (Michael W. Deem and Ramdas Pophale) SiO2 
 PCOD8310292
Probable space group: P -4 B 2
;
_chemical_formula_sum "Si O2"
_cell_formula_units_Z 48
_cell_length_a 18.615374
_cell_length_b 18.615374
_cell_length_c 7.835296
_cell_angle_alpha 90.000000
_cell_angle_beta 90.000000
_cell_angle_gamma 90.000000
_cell_volume 2715.181962
_symmetry_space_group_name_H-M "P -4 B 2"
_symmetry_group_IT_number 117
_symmetry_cell_setting 'tetragonal'
loop_
_space_group_symop_operation_xyz
x,y,z
y,-x,-z
-x,-y,z
-y,x,-z
1/2+y,1/2+x,-z
1/2-y,1/2-x,-z
1/2-x,1/2+y,z
1/2+x,1/2-y,z
loop_
_atom_site_type_symbol
_atom_site_label
_atom_site_fract_x
_atom_site_fract_y
_atom_site_fract_z
Si Si1 0.055823 0.662632 0.906466
Si Si2 0.533832 0.068358 0.689788
Si Si3 0.831269 0.058517 0.847753
Si Si4 0.503135 0.617582 0.492488
Si Si5 0.411612 0.826096 0.119282
Si Si6 0.178321 0.048068 0.160815
O O1 0.083030 0.743103 0.864663
O O2 0.025847 0.629910 0.727529
O O3 0.120181 0.620181 0.000000
O O4 0.988102 0.663977 0.030568
O O5 0.541678 0.041678 0.500000
O O6 0.614436 0.091687 0.734403
O O7 0.500000 0.000000 0.793828
O O8 0.754961 0.097510 0.816215
O O9 0.891827 0.118401 0.862785
O O10 0.841062 0.006310 0.685839
O O11 0.834299 0.014117 0.022388
O O12 0.571889 0.567469 0.466302
O O13 0.514496 0.672523 0.649197
O O14 0.343493 0.843493 0.000000
#
# Coordination Sequence:
#
# PCOD8310292 Si02
#       6
#     8   8   8   8   8   8
#     4  10  19  34  52  77 108 138 179 222 271 324
#     4  10  19  31  54  81 101 133 175 221 265 316
#     4  10  20  35  54  79 110 141 183 227 269 323
#     4   9  18  33  54  78 103 137 184 231 268 312
#     4   9  19  33  52  76 105 138 175 220 266 323
#     4  10  21  34  55  80 106 148 180 223 276 325
#
# _framework density 17.678372
#
# number of rings (size 3 to 8) (size 9 to 14) (size 15 to 20)
#    0.000    2.333    1.667    1.000    2.333    2.333 
#    0.000    0.000    0.000    0.000    4.333    0.000 
#    0.000    0.000    0.000    0.000    0.000    0.000 
#
# Total GULP energy -594724.264926 kJ/mol
# GULP energy per Si atom -12390.088853 kJ/mol
# Density = 1.763814 g / cm^3
# Si number density = 17.678372 Si / 1000 Ang^3
#
#
#
# Elastic Constant Matrix: (Units=GPa)
#
#
# Indices 1 2 3 4 5 6 
#
# 1 95.0102 31.4742 34.0790 0.0000 0.0000 0.0000
# 2 31.4742 95.0102 34.0790 0.0000 0.0000 0.0000
# 3 34.0790 34.0790 90.2662 0.0000 0.0000 0.0000
# 4 0.0000 0.0000 0.0000 16.4439 0.0000 0.0000
# 5 0.0000 0.0000 0.0000 0.0000 16.4439 0.0000
# 6 0.0000 0.0000 0.0000 0.0000 0.0000 18.0050
#
#
#
# Elastic Compliance Matrix: (Units=1/GPa)
#
#
# Indices 1 2 3 4 5 6 
#
# 1 0.012832 -0.002907 -0.003747 0.000000 0.000000 0.000000
# 2 -0.002907 0.012832 -0.003747 0.000000 0.000000 0.000000
# 3 -0.003747 -0.003747 0.013908 0.000000 0.000000 0.000000
# 4 0.000000 0.000000 0.000000 0.060813 0.000000 0.000000
# 5 0.000000 0.000000 0.000000 0.000000 0.060813 0.000000
# 6 0.000000 0.000000 0.000000 0.000000 0.000000 0.055540
#
#
# Mechanical properties :
#
#
# Convention : Reuss Voigt Hill
#
# Bulk Modulus (GPa) = 53.27747 53.28343 53.28045
# Shear Modulus (GPa) = 20.50887 22.22220 21.36553
#
# Velocity S-wave (km/s) = 3.40974 3.54930 3.48022
# Velocity P-wave (km/s) = 6.76049 6.85585 6.80834
#
# Compressibility (1/GPa) = 0.01876966
#
# Stress axis : x y z
#
# Youngs Moduli (GPa) = 77.92874 77.92874 71.90223
#
# Poissons Ratio (x) = 0.22653 0.26943
# Poissons Ratio (y) = 0.22653 0.26943
# Poissons Ratio (z) = 0.29202 0.29202
#
# Static dielectric constant tensor:
#      x y z
#    x 3.407970 0.000000 0.000000 
#    y 0.000000 3.407970 0.000000 
#    z 0.000000 0.000000 3.223020 
# 
# 
# High freq. dielectric constant tensor:
#      x y z
#    x 1.680060 0.000000 0.000000 
#    y 0.000000 1.680060 0.000000 
#    z 0.000000 0.000000 1.682240 
# 
# From -- ./inp_files/1931.got.cif
#   From: 2010.03.12/outbox.cif.g09.slc.cpg/sg117_1_cif.got.tgz:1931.got - 2010.04.14 02:19:01.
