data_PCOD8310752
_publ_section_title
;
Structure prediction by ZEFSAII (Michael W. Deem and Ramdas Pophale) SiO2 
 PCOD8310752
Probable space group: I -4 M 2
;
_chemical_formula_sum "Si O2"
_cell_formula_units_Z 112
_cell_length_a 17.572197
_cell_length_b 17.572197
_cell_length_c 21.645306
_cell_angle_alpha 90.000000
_cell_angle_beta 90.000000
_cell_angle_gamma 90.000000
_cell_volume 6683.683202
_symmetry_space_group_name_H-M "I -4 M 2"
_symmetry_group_IT_number 119
_symmetry_cell_setting 'tetragonal'
loop_
_space_group_symop_operation_xyz
x,y,z
y,-x,-z
-x,-y,z
-y,x,-z
y,x,-z
-y,-x,-z
-x,y,z
x,-y,z
1/2+x,1/2+y,1/2+z
1/2+y,1/2-x,1/2-z
1/2-x,1/2-y,1/2+z
1/2-y,1/2+x,1/2-z
1/2+y,1/2+x,1/2-z
1/2-y,1/2-x,1/2-z
1/2-x,1/2+y,1/2+z
1/2+x,1/2-y,1/2+z
loop_
_atom_site_type_symbol
_atom_site_label
_atom_site_fract_x
_atom_site_fract_y
_atom_site_fract_z
Si Si1 0.741710 0.344641 0.124607
Si Si2 0.792264 0.085822 0.504782
Si Si3 0.088703 0.088105 0.071620
Si Si4 0.316702 0.690514 0.666530
Si Si5 0.206765 0.413384 0.243408
Si Si6 0.585854 0.204866 0.253714
Si Si7 0.582537 0.292635 0.130228
O O1 0.760618 0.369877 0.054512
O O2 0.769905 0.258224 0.134052
O O3 0.776488 0.405740 0.170950
O O4 0.651131 0.351861 0.137090
O O5 0.875000 0.125001 0.500000
O O6 0.751938 0.089670 0.437377
O O7 0.804463 0.000000 0.527596
O O8 0.137940 0.142904 0.115227
O O9 0.000000 0.102989 0.085299
O O10 0.108716 0.000000 0.085890
O O11 0.106805 0.106805 0.000000
O O12 0.373182 0.727908 0.716211
O O13 0.259666 0.635508 0.702823
O O14 0.201566 0.500000 0.264479
O O15 0.124420 0.375580 0.250000
O O16 0.500000 0.201851 0.279943
O O17 0.620636 0.120636 0.250000
O O18 0.587310 0.230404 0.183030
O O19 0.500000 0.335020 0.133961
#
# Coordination Sequence:
#
# PCOD8310752 Si02
#       7
#    16  16  16  16  16  16  16
#     4  10  18  32  51  73 102 130 169 210 249 289
#     4   9  18  30  48  73 100 134 168 202 244 294
#     4   9  19  35  52  72 100 131 161 197 247 304
#     4  11  19  33  52  76 101 129 166 210 252 296
#     4  10  20  33  51  74 101 132 167 208 251 297
#     4  11  20  34  53  74 104 135 166 211 256 305
#     4   9  17  31  49  70 101 132 162 200 244 292
#
# _framework density 16.757227
#
# number of rings (size 3 to 8) (size 9 to 14) (size 15 to 20)
#    0.000    2.143    2.857    2.143    0.000    2.143 
#    0.000    0.000    0.000    2.143    0.000    0.000 
#    0.000    4.000    0.000    0.000    0.000    0.000 
#
# Total GULP energy -693892.574515 kJ/mol
# GULP energy per Si atom -12390.938831 kJ/mol
# Density = 1.671909 g / cm^3
# Si number density = 16.757227 Si / 1000 Ang^3
#
#
#
# Elastic Constant Matrix: (Units=GPa)
#
#
# Indices 1 2 3 4 5 6 
#
# 1 96.9325 48.5185 47.4686 0.0000 0.0000 0.0000
# 2 48.5185 96.9324 47.4676 0.0000 0.0000 0.0000
# 3 47.4686 47.4676 106.3313 0.0000 0.0000 0.0000
# 4 0.0000 0.0000 0.0000 23.8088 0.0000 0.0000
# 5 0.0000 0.0000 0.0000 0.0000 23.8088 0.0000
# 6 0.0000 0.0000 0.0000 0.0000 0.0000 16.8270
#
#
#
# Elastic Compliance Matrix: (Units=1/GPa)
#
#
# Indices 1 2 3 4 5 6 
#
# 1 0.015179 -0.005477 -0.004331 0.000000 0.000000 0.000000
# 2 -0.005477 0.015179 -0.004331 0.000000 0.000000 0.000000
# 3 -0.004331 -0.004331 0.013272 0.000000 0.000000 0.000000
# 4 0.000000 0.000000 0.000000 0.042001 0.000000 0.000000
# 5 0.000000 0.000000 0.000000 0.000000 0.042001 0.000000
# 6 0.000000 0.000000 0.000000 0.000000 0.000000 0.059428
#
#
# Mechanical properties :
#
#
# Convention : Reuss Voigt Hill
#
# Bulk Modulus (GPa) = 65.14191 65.23397 65.18794
# Shear Modulus (GPa) = 22.68040 23.33835 23.00938
#
# Velocity S-wave (km/s) = 3.68294 3.73598 3.70956
# Velocity P-wave (km/s) = 7.55273 7.59101 7.57190
#
# Compressibility (1/GPa) = 0.01535110
#
# Stress axis : x y z
#
# Youngs Moduli (GPa) = 65.88150 65.88221 75.34876
#
# Poissons Ratio (x) = 0.36081 0.32636
# Poissons Ratio (y) = 0.36080 0.32634
# Poissons Ratio (z) = 0.28536 0.28534
#
# Static dielectric constant tensor:
#      x y z
#    x 3.127310 0.000000 0.000000 
#    y 0.000000 3.127310 0.000000 
#    z 0.000000 0.000000 3.398940 
# 
# 
# High freq. dielectric constant tensor:
#      x y z
#    x 1.631930 0.000000 0.000000 
#    y 0.000000 1.631930 0.000000 
#    z 0.000000 0.000000 1.662250 
# 
# From -- ./inp_files/8030.got.cif
#   From: 2010.03.12/outbox.cif.g09.slc.cpg/sg119_5_cif.got.tgz:8030.got - 2010.04.14 02:25:26.
