data_PCOD8310975
_publ_section_title
;
Structure prediction by ZEFSAII (Michael W. Deem and Ramdas Pophale) SiO2 
 PCOD8310975
Probable space group: I -4 M 2
;
_chemical_formula_sum "Si O2"
_cell_formula_units_Z 64
_cell_length_a 11.692368
_cell_length_b 11.692368
_cell_length_c 24.059392
_cell_angle_alpha 90.000000
_cell_angle_beta 90.000000
_cell_angle_gamma 90.000000
_cell_volume 3289.194834
_symmetry_space_group_name_H-M "I -4 M 2"
_symmetry_group_IT_number 119
_symmetry_cell_setting 'tetragonal'
loop_
_space_group_symop_operation_xyz
x,y,z
y,-x,-z
-x,-y,z
-y,x,-z
y,x,-z
-y,-x,-z
-x,y,z
x,-y,z
1/2+x,1/2+y,1/2+z
1/2+y,1/2-x,1/2-z
1/2-x,1/2-y,1/2+z
1/2-y,1/2+x,1/2-z
1/2+y,1/2+x,1/2-z
1/2-y,1/2-x,1/2-z
1/2-x,1/2+y,1/2+z
1/2+x,1/2-y,1/2+z
loop_
_atom_site_type_symbol
_atom_site_label
_atom_site_fract_x
_atom_site_fract_y
_atom_site_fract_z
Si Si1 0.790524 0.790524 0.500000
Si Si2 0.207667 0.000000 0.316726
Si Si3 0.500000 0.370561 0.304290
Si Si4 0.866150 0.366902 0.408920
Si Si5 0.629324 0.500000 0.934474
Si Si6 0.250209 0.231907 0.187283
O O1 0.673233 0.799330 0.535164
O O2 0.801054 0.890212 0.454668
O O3 0.122026 0.000000 0.368305
O O4 0.286638 0.113102 0.318439
O O5 0.129022 0.000000 0.262329
O O6 0.500000 0.500000 0.326225
O O7 0.611667 0.307726 0.327849
O O8 0.841002 0.500000 0.399972
O O9 0.826905 0.298053 0.354497
O O10 0.000000 0.340810 0.417415
O O11 0.500000 0.500000 0.957570
O O12 0.224260 0.275741 0.250000
#
# Coordination Sequence:
#
# PCOD8310975 Si02
#       6
#     8   8   8  16   8  16
#     4  12  21  38  60  89 118 152 198 246 307 362
#     4  10  21  35  60  93 122 152 199 260 303 346
#     4  10  21  39  59  86 125 169 200 238 294 369
#     4  11  24  41  61  87 122 158 198 249 300 362
#     4  12  19  32  60  92 116 146 193 253 304 360
#     4  10  22  39  62  91 121 157 202 247 303 361
#
# _framework density 19.457650000000001
#
# number of rings (size 3 to 8) (size 9 to 14) (size 15 to 20)
#    0.000    1.250    5.000    1.125    0.000    5.500 
#    2.250    3.750    2.750    0.000    0.000    0.000 
#    0.000    0.000    0.000    0.000    0.000    0.000 
#
# Total GULP energy -396810.567435 kJ/mol
# GULP energy per Si atom -12400.330232 kJ/mol
# Density = 1.941336 g / cm^3
# Si number density = 19.457650 Si / 1000 Ang^3
#
#
#
# Elastic Constant Matrix: (Units=GPa)
#
#
# Indices 1 2 3 4 5 6 
#
# 1 112.4107 48.4333 32.8602 0.0000 0.0000 0.0000
# 2 48.4333 112.4105 32.8601 0.0000 0.0000 0.0000
# 3 32.8602 32.8601 106.0992 0.0000 0.0000 0.0000
# 4 0.0000 0.0000 0.0000 30.9581 0.0000 0.0000
# 5 0.0000 0.0000 0.0000 0.0000 30.9581 0.0000
# 6 0.0000 0.0000 0.0000 0.0000 0.0000 28.2605
#
#
#
# Elastic Compliance Matrix: (Units=1/GPa)
#
#
# Indices 1 2 3 4 5 6 
#
# 1 0.011374 -0.004256 -0.002205 0.000000 0.000000 0.000000
# 2 -0.004256 0.011374 -0.002205 0.000000 0.000000 0.000000
# 3 -0.002205 -0.002205 0.010791 0.000000 0.000000 0.000000
# 4 0.000000 0.000000 0.000000 0.032302 0.000000 0.000000
# 5 0.000000 0.000000 0.000000 0.000000 0.032302 0.000000
# 6 0.000000 0.000000 0.000000 0.000000 0.000000 0.035385
#
#
# Mechanical properties :
#
#
# Convention : Reuss Voigt Hill
#
# Bulk Modulus (GPa) = 61.69588 62.13639 61.91613
# Shear Modulus (GPa) = 31.99771 32.48646 32.24209
#
# Velocity S-wave (km/s) = 4.05962 4.09050 4.07509
# Velocity P-wave (km/s) = 7.33148 7.36974 7.35064
#
# Compressibility (1/GPa) = 0.01620854
#
# Stress axis : x y z
#
# Youngs Moduli (GPa) = 87.91796 87.91778 92.67264
#
# Poissons Ratio (x) = 0.37420 0.20430
# Poissons Ratio (y) = 0.37420 0.20430
# Poissons Ratio (z) = 0.19382 0.19382
#
# Static dielectric constant tensor:
#      x y z
#    x 3.497970 0.000000 0.000000 
#    y 0.000000 3.497970 0.000000 
#    z 0.000000 0.000000 3.594470 
# 
# 
# High freq. dielectric constant tensor:
#      x y z
#    x 1.748750 0.000000 0.000000 
#    y 0.000000 1.748750 0.000000 
#    z 0.000000 0.000000 1.765520 
# 
# From -- ./inp_files/8561.got.cif
#   From: 2010.03.12/outbox.cif.g09.slc.cpg/sg119_5_cif.got.tgz:8561.got - 2010.04.14 02:25:26.
