data_PCOD8310032
_publ_section_title
;
Structure prediction by ZEFSAII (Michael W. Deem and Ramdas Pophale) SiO2 
 PCOD8310032
Probable space group: P -4 M 2
;
_chemical_formula_sum "Si O2"
_cell_formula_units_Z 44
_cell_length_a 9.777682
_cell_length_b 9.777682
_cell_length_c 28.064265
_cell_angle_alpha 90.000000
_cell_angle_beta 90.000000
_cell_angle_gamma 90.000000
_cell_volume 2683.029759
_symmetry_space_group_name_H-M "P -4 M 2"
_symmetry_group_IT_number 115
_symmetry_cell_setting 'tetragonal'
loop_
_space_group_symop_operation_xyz
x,y,z
y,-x,-z
-x,-y,z
-y,x,-z
y,x,-z
-y,-x,-z
-x,y,z
x,-y,z
loop_
_atom_site_type_symbol
_atom_site_label
_atom_site_fract_x
_atom_site_fract_y
_atom_site_fract_z
Si Si1 0.152001 0.163192 0.052397
Si Si2 0.159400 0.341358 0.308725
Si Si3 0.340716 0.340716 0.500000
Si Si4 0.349005 0.162178 0.133126
Si Si5 0.841810 0.660122 0.759683
Si Si6 0.337765 0.151022 0.584329
O O1 0.247882 0.225902 0.093639
O O2 0.000000 0.221860 0.061058
O O3 0.148286 0.000000 0.054590
O O4 0.207036 0.207036 0.000000
O O5 0.198099 0.500000 0.301846
O O6 0.251188 0.251578 0.274421
O O7 0.192792 0.291696 0.362528
O O8 0.000000 0.317750 0.297267
O O9 0.311890 0.500000 0.509029
O O10 0.283521 0.260730 0.546115
O O11 0.500000 0.222659 0.123778
O O12 0.300107 0.199988 0.186310
O O13 0.354086 0.000000 0.128201
O O14 0.815466 0.500000 0.750603
O O15 0.000000 0.696082 0.750143
O O16 0.500000 0.146429 0.583482
O O17 0.280510 0.000000 0.571406
#
# Coordination Sequence:
#
# PCOD8310032 Si02
#       6
#     8   8   4   8   8   8
#     4   8  13  21  35  57  81 103 134 176 213 247
#     4   9  18  32  49  68  90 119 154 187 221 266
#     4   9  16  26  44  69  88 104 138 183 214 244
#     4   8  14  25  40  58  83 114 143 172 211 259
#     4   9  18  31  46  67  93 118 149 189 227 265
#     4   8  15  29  46  63  87 117 144 173 214 261
#
# _framework density 16.399370000000001
#
# number of rings (size 3 to 8) (size 9 to 14) (size 15 to 20)
#    0.000    3.545    0.000    2.727    0.000    2.182 
#    0.000    4.545    0.000    4.636    0.000    2.545 
#    0.000    0.000    0.000    0.000    0.000    0.000 
#
# Total GULP energy -545280.793106 kJ/mol
# GULP energy per Si atom -12392.745298 kJ/mol
# Density = 1.636204 g / cm^3
# Si number density = 16.399370 Si / 1000 Ang^3
#
#
#
# Elastic Constant Matrix: (Units=GPa)
#
#
# Indices 1 2 3 4 5 6 
#
# 1 62.4998 42.0567 71.4882 0.0000 0.0000 0.0000
# 2 42.0567 62.4998 71.4882 0.0000 0.0000 0.0000
# 3 71.4882 71.4882 163.6243 0.0000 0.0000 0.0000
# 4 0.0000 0.0000 0.0000 7.0448 0.0000 0.0000
# 5 0.0000 0.0000 0.0000 0.0000 7.0448 0.0000
# 6 0.0000 0.0000 0.0000 0.0000 0.0000 19.9189
#
#
#
# Elastic Compliance Matrix: (Units=1/GPa)
#
#
# Indices 1 2 3 4 5 6 
#
# 1 0.036338 -0.012579 -0.010380 0.000000 0.000000 0.000000
# 2 -0.012579 0.036338 -0.010380 0.000000 0.000000 0.000000
# 3 -0.010380 -0.010380 0.015182 0.000000 0.000000 0.000000
# 4 0.000000 0.000000 0.000000 0.141949 0.000000 0.000000
# 5 0.000000 0.000000 0.000000 0.000000 0.141949 0.000000
# 6 0.000000 0.000000 0.000000 0.000000 0.000000 0.050204
#
#
# Mechanical properties :
#
#
# Convention : Reuss Voigt Hill
#
# Bulk Modulus (GPa) = 47.21803 73.18778 60.20291
# Shear Modulus (GPa) = 10.08680 13.70775 11.89727
#
# Velocity S-wave (km/s) = 2.48276 2.89428 2.69638
# Velocity P-wave (km/s) = 6.08883 7.47626 6.81793
#
# Compressibility (1/GPa) = 0.02117835
#
# Stress axis : x y z
#
# Youngs Moduli (GPa) = 27.51977 27.51977 65.86734
#
# Poissons Ratio (x) = 0.34616 0.68373
# Poissons Ratio (y) = 0.34616 0.68373
# Poissons Ratio (z) = 0.28567 0.28567
#
# Static dielectric constant tensor:
#      x y z
#    x 3.261230 0.000000 0.000000 
#    y 0.000000 3.261230 0.000000 
#    z 0.000000 0.000000 3.380330 
# 
# 
# High freq. dielectric constant tensor:
#      x y z
#    x 1.602150 0.000000 0.000000 
#    y 0.000000 1.602150 0.000000 
#    z 0.000000 0.000000 1.642940 
# 
# From -- ./inp_files/5695.got.cif
#   From: 2010.03.12/outbox.cif.g09.slc.cpg/sg115_3_cif.got.tgz:5695.got - 2010.04.14 02:11:21.
