data_PCOD8310687
_publ_section_title
;
Structure prediction by ZEFSAII (Michael W. Deem and Ramdas Pophale) SiO2 
 PCOD8310687
Probable space group: I -4 M 2
;
_chemical_formula_sum "Si O2"
_cell_formula_units_Z 112
_cell_length_a 14.263319
_cell_length_b 14.263319
_cell_length_c 36.602309
_cell_angle_alpha 90.000000
_cell_angle_beta 90.000000
_cell_angle_gamma 90.000000
_cell_volume 7446.456790
_symmetry_space_group_name_H-M "I -4 M 2"
_symmetry_group_IT_number 119
_symmetry_cell_setting 'tetragonal'
loop_
_space_group_symop_operation_xyz
x,y,z
y,-x,-z
-x,-y,z
-y,x,-z
y,x,-z
-y,-x,-z
-x,y,z
x,-y,z
1/2+x,1/2+y,1/2+z
1/2+y,1/2-x,1/2-z
1/2-x,1/2-y,1/2+z
1/2-y,1/2+x,1/2-z
1/2+y,1/2+x,1/2-z
1/2-y,1/2-x,1/2-z
1/2-x,1/2+y,1/2+z
1/2+x,1/2-y,1/2+z
loop_
_atom_site_type_symbol
_atom_site_label
_atom_site_fract_x
_atom_site_fract_y
_atom_site_fract_z
Si Si1 0.888817 0.394923 0.007825
Si Si2 0.108496 0.292739 0.217280
Si Si3 0.389326 0.102365 0.426657
Si Si4 0.888737 0.276857 0.074809
Si Si5 0.111167 0.605107 0.143482
Si Si6 0.106653 0.895043 0.180701
Si Si7 0.108092 0.207509 0.893981
O O1 0.857221 0.500000 0.018751
O O2 0.851129 0.370741 0.967169
O O3 0.000000 0.388350 0.008823
O O4 0.847835 0.322247 0.037604
O O5 0.173284 0.326717 0.250000
O O6 0.142553 0.344525 0.180687
O O7 0.124215 0.180804 0.212495
O O8 0.000000 0.316045 0.226049
O O9 0.500000 0.093608 0.429463
O O10 0.361768 0.183071 0.397785
O O11 0.348956 0.000000 0.414428
O O12 0.849464 0.336860 0.109091
O O13 0.852898 0.170446 0.078163
O O14 0.000000 0.275885 0.074807
O O15 0.152932 0.500000 0.142689
O O16 0.000000 0.601634 0.141249
O O17 0.176685 0.874563 0.147504
O O18 0.000000 0.883709 0.165795
O O19 0.122640 0.000000 0.196495
O O20 0.000000 0.191876 0.905440
#
# Coordination Sequence:
#
# PCOD8310687 Si02
#       7
#    16  16  16  16  16  16  16
#     4   8  14  25  40  56  78 111 145 176 213 253
#     4  10  18  28  43  65  90 116 143 174 215 258
#     4   8  15  28  43  58  76 102 142 189 227 251
#     4  10  17  25  38  59  87 118 148 173 203 249
#     4   9  16  25  37  57  86 116 144 173 207 249
#     4   9  17  30  46  64  89 121 154 178 200 248
#     4  10  18  27  42  61  83 113 148 182 213 247
#
# _framework density 15.040711
#
# number of rings (size 3 to 8) (size 9 to 14) (size 15 to 20)
#    0.000    2.857    1.429    2.143    0.000    3.857 
#    0.000    0.000    0.000    1.714    0.000    8.000 
#    0.000    2.286    0.000    6.286    0.000    0.571 
#
# Total GULP energy -694014.446771 kJ/mol
# GULP energy per Si atom -12393.115121 kJ/mol
# Density = 1.500648 g / cm^3
# Si number density = 15.040711 Si / 1000 Ang^3
#
#
#
# Elastic Constant Matrix: (Units=GPa)
#
#
# Indices 1 2 3 4 5 6 
#
# 1 74.3591 26.3972 40.7848 0.0000 0.0000 0.0000
# 2 26.3972 74.3593 40.7850 0.0000 0.0000 0.0000
# 3 40.7848 40.7850 76.5417 0.0000 0.0000 0.0000
# 4 0.0000 0.0000 0.0000 20.4105 0.0000 0.0000
# 5 0.0000 0.0000 0.0000 0.0000 20.4105 0.0000
# 6 0.0000 0.0000 0.0000 0.0000 0.0000 9.6252
#
#
#
# Elastic Compliance Matrix: (Units=1/GPa)
#
#
# Indices 1 2 3 4 5 6 
#
# 1 0.019152 -0.001698 -0.009300 0.000000 0.000000 0.000000
# 2 -0.001698 0.019152 -0.009300 0.000000 0.000000 0.000000
# 3 -0.009300 -0.009300 0.022976 0.000000 0.000000 0.000000
# 4 0.000000 0.000000 0.000000 0.048994 0.000000 0.000000
# 5 0.000000 0.000000 0.000000 0.000000 0.048994 0.000000
# 6 0.000000 0.000000 0.000000 0.000000 0.000000 0.103894
#
#
# Mechanical properties :
#
#
# Convention : Reuss Voigt Hill
#
# Bulk Modulus (GPa) = 48.34884 49.02155 48.68520
# Shear Modulus (GPa) = 16.09503 17.90878 17.00191
#
# Velocity S-wave (km/s) = 3.27478 3.45438 3.36578
# Velocity P-wave (km/s) = 6.82012 6.96948 6.89520
#
# Compressibility (1/GPa) = 0.02068302
#
# Stress axis : x y z
#
# Youngs Moduli (GPa) = 52.21365 52.21362 43.52334
#
# Poissons Ratio (x) = 0.08865 0.40479
# Poissons Ratio (y) = 0.08865 0.40479
# Poissons Ratio (z) = 0.48561 0.48561
#
# Static dielectric constant tensor:
#      x y z
#    x 2.879340 0.000000 0.000000 
#    y 0.000000 2.879340 0.000000 
#    z 0.000000 0.000000 2.851780 
# 
# 
# High freq. dielectric constant tensor:
#      x y z
#    x 1.552770 0.000000 0.000000 
#    y 0.000000 1.552770 0.000000 
#    z 0.000000 0.000000 1.562450 
# 
# From -- ./inp_files/10442.got.cif
#   From: 2010.03.12/outbox.cif.g09.slc.cpg/sg119_6_cif.got.tgz:10442.got - 2010.04.14 02:25:26.
