data_PCOD8310437
_publ_section_title
;
Structure prediction by ZEFSAII (Michael W. Deem and Ramdas Pophale) SiO2 
 PCOD8310437
Probable space group: P -4 N 2
;
_chemical_formula_sum "Si O2"
_cell_formula_units_Z 64
_cell_length_a 11.997703
_cell_length_b 11.997703
_cell_length_c 25.141139
_cell_angle_alpha 90.000000
_cell_angle_beta 90.000000
_cell_angle_gamma 90.000000
_cell_volume 3618.938168
_symmetry_space_group_name_H-M "P -4 N 2"
_symmetry_group_IT_number 118
_symmetry_cell_setting 'tetragonal'
loop_
_space_group_symop_operation_xyz
x,y,z
y,-x,-z
-x,-y,z
-y,x,-z
1/2+y,1/2+x,1/2-z
1/2-y,1/2-x,1/2-z
1/2-x,1/2+y,1/2+z
1/2+x,1/2-y,1/2+z
loop_
_atom_site_type_symbol
_atom_site_label
_atom_site_fract_x
_atom_site_fract_y
_atom_site_fract_z
Si Si1 0.490634 0.718574 0.051251
Si Si2 0.605338 0.717939 0.562940
Si Si3 0.109045 0.935694 0.629556
Si Si4 0.410033 0.081492 0.380566
Si Si5 0.437869 0.609142 0.634387
Si Si6 0.277409 0.501825 0.551088
Si Si7 0.231547 0.096914 0.560082
Si Si8 0.769000 0.266937 0.812542
O O1 0.564513 0.617010 0.074368
O O2 0.504458 0.818063 0.092518
O O3 0.362563 0.687249 0.047929
O O4 0.525007 0.752995 0.992363
O O5 0.533007 0.692798 0.614971
O O6 0.530480 0.716346 0.510546
O O7 0.706190 0.630023 0.557107
O O8 0.654736 0.839776 0.573262
O O9 0.179333 0.847073 0.665099
O O10 0.201134 0.025206 0.612011
O O11 0.000000 0.000000 0.656813
O O12 0.462830 0.158639 0.425962
O O13 0.365828 0.150057 0.330450
O O14 0.500000 0.000000 0.355037
O O15 0.500000 0.500000 0.662403
O O16 0.375139 0.564954 0.582285
O O17 0.355940 0.688025 0.669276
O O18 0.759736 0.259736 0.750000
#
# Coordination Sequence:
#
# PCOD8310437 Si02
#       8
#     8   8   8   8   8   8   8   8
#     4  10  18  29  49  74 110 154 178 211 263 333
#     4  11  19  30  49  76 111 153 189 214 265 331
#     4   9  20  35  55  81 111 145 188 229 276 338
#     4  10  20  35  48  81 117 136 176 229 283 330
#     4   9  20  35  55  81 111 145 188 229 276 338
#     4  10  18  29  49  74 110 154 178 211 263 333
#     4  11  19  30  49  76 111 153 189 214 265 331
#     4  10  22  41  63  80 102 143 197 248 280 323
#
# _framework density 17.684744999999999
#
# number of rings (size 3 to 8) (size 9 to 14) (size 15 to 20)
#    0.000    2.000    3.750    0.750    0.000    0.750 
#    2.250    0.625    0.000    1.500    0.000    0.000 
#    0.000    0.000    0.000    0.000    0.000    0.000 
#
# Total GULP energy -793014.480503 kJ/mol
# GULP energy per Si atom -12390.851258 kJ/mol
# Density = 1.764449 g / cm^3
# Si number density = 17.684745 Si / 1000 Ang^3
#
#
#
# Elastic Constant Matrix: (Units=GPa)
#
#
# Indices 1 2 3 4 5 6 
#
# 1 82.1946 48.2619 35.7167 0.0000 0.0000 0.0000
# 2 48.2619 82.1946 35.7167 0.0000 0.0000 0.0000
# 3 35.7167 35.7167 82.9802 0.0000 0.0000 0.0000
# 4 0.0000 0.0000 0.0000 10.0585 0.0000 0.0000
# 5 0.0000 0.0000 0.0000 0.0000 10.0585 0.0000
# 6 0.0000 0.0000 0.0000 0.0000 0.0000 43.2385
#
#
#
# Elastic Compliance Matrix: (Units=1/GPa)
#
#
# Indices 1 2 3 4 5 6 
#
# 1 0.019750 -0.009720 -0.004317 0.000000 0.000000 0.000000
# 2 -0.009720 0.019750 -0.004317 0.000000 0.000000 0.000000
# 3 -0.004317 -0.004317 0.015767 0.000000 0.000000 0.000000
# 4 0.000000 0.000000 0.000000 0.099419 0.000000 0.000000
# 5 0.000000 0.000000 0.000000 0.000000 0.099419 0.000000
# 6 0.000000 0.000000 0.000000 0.000000 0.000000 0.023128
#
#
# Mechanical properties :
#
#
# Convention : Reuss Voigt Hill
#
# Bulk Modulus (GPa) = 53.88431 54.08444 53.98438
# Shear Modulus (GPa) = 15.61889 21.18270 18.40080
#
# Velocity S-wave (km/s) = 2.97507 3.46467 3.22916
# Velocity P-wave (km/s) = 6.50668 6.83039 6.67050
#
# Compressibility (1/GPa) = 0.01855828
#
# Stress axis : x y z
#
# Youngs Moduli (GPa) = 50.63399 50.63399 63.42299
#
# Poissons Ratio (x) = 0.49219 0.27378
# Poissons Ratio (y) = 0.49219 0.27378
# Poissons Ratio (z) = 0.21858 0.21858
#
# Static dielectric constant tensor:
#      x y z
#    x 3.489580 0.000000 0.000000 
#    y 0.000000 3.489580 0.000000 
#    z 0.000000 0.000000 2.830490 
# 
# 
# High freq. dielectric constant tensor:
#      x y z
#    x 1.691250 0.000000 0.000000 
#    y 0.000000 1.691250 0.000000 
#    z 0.000000 0.000000 1.639610 
# 
# From -- ./inp_files/6257.got.cif
#   From: 2010.03.12/outbox.cif.g09.slc.cpg/sg118_4_cif.got.tgz:6257.got - 2010.04.14 02:21:17.
