data_PCOD8310081
_publ_section_title
;
Structure prediction by ZEFSAII (Michael W. Deem and Ramdas Pophale) SiO2 
 PCOD8310081
Probable space group: P -4 C 2
;
_chemical_formula_sum "Si O2"
_cell_formula_units_Z 44
_cell_length_a 15.816068
_cell_length_b 15.816068
_cell_length_c 9.673027
_cell_angle_alpha 90.000000
_cell_angle_beta 90.000000
_cell_angle_gamma 90.000000
_cell_volume 2419.688426
_symmetry_space_group_name_H-M "P -4 C 2"
_symmetry_group_IT_number 116
_symmetry_cell_setting 'tetragonal'
loop_
_space_group_symop_operation_xyz
x,y,z
y,-x,-z
-x,-y,z
-y,x,-z
y,x,1/2-z
-y,-x,1/2-z
-x,y,1/2+z
x,-y,1/2+z
loop_
_atom_site_type_symbol
_atom_site_label
_atom_site_fract_x
_atom_site_fract_y
_atom_site_fract_z
Si Si1 0.318795 0.608895 0.440918
Si Si2 0.188707 0.465016 0.150256
Si Si3 0.642713 0.896108 0.802913
Si Si4 0.437964 0.674247 0.653882
Si Si5 0.406546 0.967603 0.010432
Si Si6 0.252493 0.252493 0.750000
O O1 0.263788 0.547900 0.540785
O O2 0.394427 0.663891 0.504751
O O3 0.355133 0.536494 0.339292
O O4 0.258674 0.675119 0.365765
O O5 0.165458 0.562751 0.173813
O O6 0.227425 0.429360 0.295039
O O7 0.108677 0.411410 0.099905
O O8 0.637391 0.943083 0.654461
O O9 0.730314 0.841561 0.810027
O O10 0.647606 0.961609 0.930140
O O11 0.389431 0.610570 0.750000
O O12 0.500000 0.000000 0.048575
#
# Coordination Sequence:
#
# PCOD8310081 Si02
#       6
#     8   8   8   8   8   4
#     4  11  22  36  51  72 108 149 201 242 285 328
#     4  10  18  38  57  76 108 142 197 234 296 344
#     4  11  22  36  60  83 117 147 189 235 298 347
#     4  10  22  35  49  71 101 154 199 249 281 331
#     4  10  20  35  60  89 109 145 188 243 288 358
#     4  12  22  36  57  78 114 157 180 240 296 344
#
# _framework density 18.184159000000001
#
# number of rings (size 3 to 8) (size 9 to 14) (size 15 to 20)
#    0.000    1.455    3.636    2.727    2.545    4.727 
#    0.000    0.000    0.000    0.000    0.000    0.000 
#    0.000    2.182    0.000    0.000    0.000    0.000 
#
# Total GULP energy -545227.606447 kJ/mol
# GULP energy per Si atom -12391.536510 kJ/mol
# Density = 1.814277 g / cm^3
# Si number density = 18.184159 Si / 1000 Ang^3
#
#
#
# Elastic Constant Matrix: (Units=GPa)
#
#
# Indices 1 2 3 4 5 6 
#
# 1 82.7140 35.9695 31.2162 0.0000 0.0000 0.0000
# 2 35.9695 82.7129 31.2145 0.0000 0.0000 0.0000
# 3 31.2162 31.2145 71.7363 0.0000 0.0000 0.0000
# 4 0.0000 0.0000 0.0000 18.5732 0.0000 0.0000
# 5 0.0000 0.0000 0.0000 0.0000 18.5745 0.0000
# 6 0.0000 0.0000 0.0000 0.0000 0.0000 26.9046
#
#
#
# Elastic Compliance Matrix: (Units=1/GPa)
#
#
# Indices 1 2 3 4 5 6 
#
# 1 0.016160 -0.005233 -0.004755 0.000000 0.000000 0.000000
# 2 -0.005233 0.016160 -0.004754 0.000000 0.000000 0.000000
# 3 -0.004755 -0.004754 0.018078 0.000000 0.000000 0.000000
# 4 0.000000 0.000000 0.000000 0.053841 0.000000 0.000000
# 5 0.000000 0.000000 0.000000 0.000000 0.053837 0.000000
# 6 0.000000 0.000000 0.000000 0.000000 0.000000 0.037168
#
#
# Mechanical properties :
#
#
# Convention : Reuss Voigt Hill
#
# Bulk Modulus (GPa) = 47.81762 48.21818 48.01790
# Shear Modulus (GPa) = 21.57954 22.06132 21.82043
#
# Velocity S-wave (km/s) = 3.44862 3.48690 3.46782
# Velocity P-wave (km/s) = 6.49698 6.54106 6.51906
#
# Compressibility (1/GPa) = 0.02091279
#
# Stress axis : x y z
#
# Youngs Moduli (GPa) = 61.88080 61.88117 55.31610
#
# Poissons Ratio (x) = 0.32383 0.26303
# Poissons Ratio (y) = 0.32383 0.26300
# Poissons Ratio (z) = 0.29424 0.29421
#
# Static dielectric constant tensor:
#      x y z
#    x 3.468420 0.000000 0.000000 
#    y 0.000000 3.468450 0.000000 
#    z 0.000000 0.000000 3.749870 
# 
# 
# High freq. dielectric constant tensor:
#      x y z
#    x 1.677430 0.000000 0.000000 
#    y 0.000000 1.677430 0.000000 
#    z 0.000000 0.000000 1.723400 
# 
# From -- ./inp_files/1855.got.cif
#   From: 2010.03.12/outbox.cif.g09.slc.cpg/sg116_1_cif.got.tgz:1855.got - 2010.04.14 02:15:44.
