data_PCOD8310318
_publ_section_title
;
Structure prediction by ZEFSAII (Michael W. Deem and Ramdas Pophale) SiO2 
 PCOD8310318
Probable space group: P -4 B 2
;
_chemical_formula_sum "Si O2"
_cell_formula_units_Z 36
_cell_length_a 14.839215
_cell_length_b 14.839215
_cell_length_c 7.890353
_cell_angle_alpha 90.000000
_cell_angle_beta 90.000000
_cell_angle_gamma 90.000000
_cell_volume 1737.473893
_symmetry_space_group_name_H-M "P -4 B 2"
_symmetry_group_IT_number 117
_symmetry_cell_setting 'tetragonal'
loop_
_space_group_symop_operation_xyz
x,y,z
y,-x,-z
-x,-y,z
-y,x,-z
1/2+y,1/2+x,-z
1/2-y,1/2-x,-z
1/2-x,1/2+y,z
1/2+x,1/2-y,z
loop_
_atom_site_type_symbol
_atom_site_label
_atom_site_fract_x
_atom_site_fract_y
_atom_site_fract_z
Si Si1 0.000000 0.500000 0.500000
Si Si2 0.838330 0.509895 0.259906
Si Si3 0.297323 0.651909 0.315117
Si Si4 0.000000 0.500000 0.000000
Si Si5 0.396280 0.397472 0.001550
Si Si6 0.799722 0.164871 0.319164
O O1 0.094961 0.502385 0.412085
O O2 0.758991 0.437653 0.275921
O O3 0.788876 0.606074 0.276981
O O4 0.904036 0.500861 0.097331
O O5 0.368337 0.662667 0.161164
O O6 0.227142 0.731954 0.311758
O O7 0.352011 0.654307 0.495105
O O8 0.376825 0.500874 0.040968
O O9 0.373676 0.345652 0.173792
#
# Coordination Sequence:
#
# PCOD8310318 Si02
#       6
#     2   8   8   2   8   8
#     4  10  20  42  72  94 140 166 224 278 336 406
#     4  11  24  46  67 106 136 178 229 282 344 415
#     4  11  25  44  68 100 132 178 223 275 343 400
#     4  10  28  42  72 102 140 182 224 294 360 398
#     4  11  25  42  66  96 131 177 220 274 332 397
#     4  11  25  44  68 100 132 178 223 275 343 400
#
# _framework density 20.719735
#
# number of rings (size 3 to 8) (size 9 to 14) (size 15 to 20)
#    0.000    1.111    2.222    3.333    9.333    0.000 
#    4.000    2.222    0.000    0.000    0.000    0.000 
#    0.000    0.000    0.000    0.000    0.000    0.000 
#
# Total GULP energy -446131.874848 kJ/mol
# GULP energy per Si atom -12392.552079 kJ/mol
# Density = 2.067258 g / cm^3
# Si number density = 20.719735 Si / 1000 Ang^3
#
#
#
# Elastic Constant Matrix: (Units=GPa)
#
#
# Indices 1 2 3 4 5 6 
#
# 1 45.0493 41.8150 42.1195 0.0000 0.0000 0.0000
# 2 41.8150 45.0493 42.1195 0.0000 0.0000 0.0000
# 3 42.1195 42.1195 182.4422 0.0000 0.0000 0.0000
# 4 0.0000 0.0000 0.0000 31.2725 0.0000 0.0000
# 5 0.0000 0.0000 0.0000 0.0000 31.2725 0.0000
# 6 0.0000 0.0000 0.0000 0.0000 0.0000 42.8495
#
#
#
# Elastic Compliance Matrix: (Units=1/GPa)
#
#
# Indices 1 2 3 4 5 6 
#
# 1 0.162012 -0.147179 -0.003424 0.000000 0.000000 0.000000
# 2 -0.147179 0.162012 -0.003424 0.000000 0.000000 0.000000
# 3 -0.003424 -0.003424 0.007062 0.000000 0.000000 0.000000
# 4 0.000000 0.000000 0.000000 0.031977 0.000000 0.000000
# 5 0.000000 0.000000 0.000000 0.000000 0.031977 0.000000
# 6 0.000000 0.000000 0.000000 0.000000 0.000000 0.023338
#
#
# Mechanical properties :
#
#
# Convention : Reuss Voigt Hill
#
# Bulk Modulus (GPa) = 43.41997 58.29431 50.85714
# Shear Modulus (GPa) = 6.81096 30.84467 18.82781
#
# Velocity S-wave (km/s) = 1.81503 3.86250 3.01772
# Velocity P-wave (km/s) = 5.03922 6.93453 6.06141
#
# Compressibility (1/GPa) = 0.02303088
#
# Stress axis : x y z
#
# Youngs Moduli (GPa) = 6.17237 6.17237 141.59568
#
# Poissons Ratio (x) = 0.90844 0.48489
# Poissons Ratio (y) = 0.90844 0.48489
# Poissons Ratio (z) = 0.02114 0.02114
#
# Static dielectric constant tensor:
#      x y z
#    x 4.251280 0.000000 0.000000 
#    y 0.000000 4.251280 0.000000 
#    z 0.000000 0.000000 4.100970 
# 
# 
# High freq. dielectric constant tensor:
#      x y z
#    x 1.816840 0.000000 0.000000 
#    y 0.000000 1.816840 0.000000 
#    z 0.000000 0.000000 1.826640 
# 
# From -- ./inp_files/1621.got.cif
#   From: 2010.03.12/outbox.cif.g09.slc.cpg/sg117_1_cif.got.tgz:1621.got - 2010.04.14 02:19:01.
