data_PCOD8310909
_publ_section_title
;
Structure prediction by ZEFSAII (Michael W. Deem and Ramdas Pophale) SiO2 
 PCOD8310909
Probable space group: I -4 M 2
;
_chemical_formula_sum "Si O2"
_cell_formula_units_Z 56
_cell_length_a 12.146463
_cell_length_b 12.146463
_cell_length_c 19.848951
_cell_angle_alpha 90.000000
_cell_angle_beta 90.000000
_cell_angle_gamma 90.000000
_cell_volume 2928.446018
_symmetry_space_group_name_H-M "I -4 M 2"
_symmetry_group_IT_number 119
_symmetry_cell_setting 'tetragonal'
loop_
_space_group_symop_operation_xyz
x,y,z
y,-x,-z
-x,-y,z
-y,x,-z
y,x,-z
-y,-x,-z
-x,y,z
x,-y,z
1/2+x,1/2+y,1/2+z
1/2+y,1/2-x,1/2-z
1/2-x,1/2-y,1/2+z
1/2-y,1/2+x,1/2-z
1/2+y,1/2+x,1/2-z
1/2-y,1/2-x,1/2-z
1/2-x,1/2+y,1/2+z
1/2+x,1/2-y,1/2+z
loop_
_atom_site_type_symbol
_atom_site_label
_atom_site_fract_x
_atom_site_fract_y
_atom_site_fract_z
Si Si1 0.000000 0.630639 0.420386
Si Si2 0.000000 0.630316 0.572530
Si Si3 0.374105 0.190896 0.678214
Si Si4 0.874068 0.730498 0.872659
Si Si5 0.121301 0.878700 0.000000
O O1 0.000000 0.680269 0.496337
O O2 0.108972 0.669730 0.380302
O O3 0.000000 0.500000 0.421025
O O4 0.105708 0.667508 0.615917
O O5 0.000000 0.500000 0.563486
O O6 0.500000 0.226706 0.664492
O O7 0.368809 0.131192 0.750000
O O8 0.294665 0.297604 0.680207
O O9 0.861477 0.788003 0.944255
O O10 0.000000 0.734184 0.846325
O O11 0.000000 0.865690 0.032833
#
# Coordination Sequence:
#
# PCOD8310909 Si02
#       5
#     8   8  16  16   8
#     4   9  18  32  58  85 111 143 177 230 285 339
#     4   9  18  34  54  81 113 145 183 226 277 335
#     4  11  21  36  57  82 112 145 187 234 282 339
#     4  10  20  34  54  81 113 147 186 230 278 335
#     4   9  16  28  50  82 114 137 174 232 292 335
#
# _framework density 19.122771
#
# number of rings (size 3 to 8) (size 9 to 14) (size 15 to 20)
#    0.000    2.143    1.429    2.571    0.000    6.286 
#    2.571    0.000    0.000    0.857    0.000    2.000 
#    0.000    0.000    0.000    0.000    0.000    0.000 
#
# Total GULP energy -347134.364994 kJ/mol
# GULP energy per Si atom -12397.655893 kJ/mol
# Density = 1.907925 g / cm^3
# Si number density = 19.122771 Si / 1000 Ang^3
#
#
#
# Elastic Constant Matrix: (Units=GPa)
#
#
# Indices 1 2 3 4 5 6 
#
# 1 104.8861 45.9855 23.5093 0.0000 0.0000 0.0000
# 2 45.9855 104.8878 23.5090 0.0000 0.0000 0.0000
# 3 23.5093 23.5090 46.8406 0.0000 0.0000 0.0000
# 4 0.0000 0.0000 0.0000 26.8049 0.0000 0.0000
# 5 0.0000 0.0000 0.0000 0.0000 26.8050 0.0000
# 6 0.0000 0.0000 0.0000 0.0000 0.0000 22.3100
#
#
#
# Elastic Compliance Matrix: (Units=1/GPa)
#
#
# Indices 1 2 3 4 5 6 
#
# 1 0.012417 -0.004560 -0.003944 0.000000 0.000000 0.000000
# 2 -0.004560 0.012417 -0.003943 0.000000 0.000000 0.000000
# 3 -0.003944 -0.003943 0.025307 0.000000 0.000000 0.000000
# 4 0.000000 0.000000 0.000000 0.037307 0.000000 0.000000
# 5 0.000000 0.000000 0.000000 0.000000 0.037306 0.000000
# 6 0.000000 0.000000 0.000000 0.000000 0.000000 0.044823
#
#
# Mechanical properties :
#
#
# Convention : Reuss Voigt Hill
#
# Bulk Modulus (GPa) = 39.60744 49.18024 44.39384
# Shear Modulus (GPa) = 24.64412 26.09136 25.36774
#
# Velocity S-wave (km/s) = 3.59379 3.69780 3.64617
# Velocity P-wave (km/s) = 6.16259 6.63368 6.40247
#
# Compressibility (1/GPa) = 0.02524778
#
# Stress axis : x y z
#
# Youngs Moduli (GPa) = 80.53204 80.53367 39.51414
#
# Poissons Ratio (x) = 0.36725 0.15583
# Poissons Ratio (y) = 0.36725 0.15582
# Poissons Ratio (z) = 0.31758 0.31757
#
# Static dielectric constant tensor:
#      x y z
#    x 3.599640 0.000000 0.000000 
#    y 0.000000 3.599640 0.000000 
#    z 0.000000 0.000000 3.272160 
# 
# 
# High freq. dielectric constant tensor:
#      x y z
#    x 1.732160 0.000000 0.000000 
#    y 0.000000 1.732160 0.000000 
#    z 0.000000 0.000000 1.725410 
# 
# From -- ./inp_files/7279.got.cif
#   From: 2010.03.12/outbox.cif.g09.slc.cpg/sg119_4_cif.got.tgz:7279.got - 2010.04.14 02:25:26.
