data_PCOD8310797
_publ_section_title
;
Structure prediction by ZEFSAII (Michael W. Deem and Ramdas Pophale) SiO2 
 PCOD8310797
Probable space group: I -4 M 2
;
_chemical_formula_sum "Si O2"
_cell_formula_units_Z 64
_cell_length_a 19.382149
_cell_length_b 19.382149
_cell_length_c 9.800717
_cell_angle_alpha 90.000000
_cell_angle_beta 90.000000
_cell_angle_gamma 90.000000
_cell_volume 3681.812812
_symmetry_space_group_name_H-M "I -4 M 2"
_symmetry_group_IT_number 119
_symmetry_cell_setting 'tetragonal'
loop_
_space_group_symop_operation_xyz
x,y,z
y,-x,-z
-x,-y,z
-y,x,-z
y,x,-z
-y,-x,-z
-x,y,z
x,-y,z
1/2+x,1/2+y,1/2+z
1/2+y,1/2-x,1/2-z
1/2-x,1/2-y,1/2+z
1/2-y,1/2+x,1/2-z
1/2+y,1/2+x,1/2-z
1/2-y,1/2-x,1/2-z
1/2-x,1/2+y,1/2+z
1/2+x,1/2-y,1/2+z
loop_
_atom_site_type_symbol
_atom_site_label
_atom_site_fract_x
_atom_site_fract_y
_atom_site_fract_z
Si Si1 0.173279 0.421917 0.328975
Si Si2 0.137347 0.779679 0.650737
Si Si3 0.664249 0.760622 0.435184
Si Si4 0.796685 0.924340 0.619450
O O1 0.157586 0.500000 0.373921
O O2 0.106834 0.393166 0.250000
O O3 0.190614 0.378309 0.464025
O O4 0.235925 0.416773 0.226036
O O5 0.204821 0.736283 0.609528
O O6 0.115798 0.755797 0.803065
O O7 0.079254 0.766399 0.535904
O O8 0.151258 0.862018 0.648777
O O9 0.687053 0.687053 0.500000
O O10 0.832030 0.000000 0.637046
#
# Coordination Sequence:
#
# PCOD8310797 Si02
#       4
#    16  16  16  16
#     4  11  21  35  53  79 112 145 183 226 273 331
#     4  10  19  31  53  74 105 140 173 235 274 323
#     4  11  18  31  53  79 102 136 187 225 286 318
#     4  10  19  31  50  79 108 137 176 221 273 329
#
# _framework density 17.382742
#
# number of rings (size 3 to 8) (size 9 to 14) (size 15 to 20)
#    0.000    1.500    7.500    0.000    0.000    1.250 
#    0.000    0.000    0.000    6.000    0.000    0.000 
#    0.000    0.500    0.000    0.000    0.000    0.000 
#
# Total GULP energy -396465.681971 kJ/mol
# GULP energy per Si atom -12389.552562 kJ/mol
# Density = 1.734318 g / cm^3
# Si number density = 17.382742 Si / 1000 Ang^3
#
#
#
# Elastic Constant Matrix: (Units=GPa)
#
#
# Indices 1 2 3 4 5 6 
#
# 1 71.0835 24.8354 33.2969 0.0000 0.0000 0.0000
# 2 24.8354 71.0842 33.2957 0.0000 0.0000 0.0000
# 3 33.2969 33.2957 120.7965 0.0000 0.0000 0.0000
# 4 0.0000 0.0000 0.0000 12.5825 0.0000 0.0000
# 5 0.0000 0.0000 0.0000 0.0000 12.5825 0.0000
# 6 0.0000 0.0000 0.0000 0.0000 0.0000 16.1590
#
#
#
# Elastic Compliance Matrix: (Units=1/GPa)
#
#
# Indices 1 2 3 4 5 6 
#
# 1 0.017258 -0.004365 -0.003554 0.000000 0.000000 0.000000
# 2 -0.004365 0.017257 -0.003554 0.000000 0.000000 0.000000
# 3 -0.003554 -0.003554 0.010237 0.000000 0.000000 0.000000
# 4 0.000000 0.000000 0.000000 0.079476 0.000000 0.000000
# 5 0.000000 0.000000 0.000000 0.000000 0.079475 0.000000
# 6 0.000000 0.000000 0.000000 0.000000 0.000000 0.061885
#
#
# Mechanical properties :
#
#
# Convention : Reuss Voigt Hill
#
# Bulk Modulus (GPa) = 45.85503 49.53559 47.69531
# Shear Modulus (GPa) = 16.90318 19.70053 18.30185
#
# Velocity S-wave (km/s) = 3.12173 3.37016 3.24832
# Velocity P-wave (km/s) = 6.27937 6.61081 6.44722
#
# Compressibility (1/GPa) = 0.02180786
#
# Stress axis : x y z
#
# Youngs Moduli (GPa) = 57.94519 57.94644 97.68025
#
# Poissons Ratio (x) = 0.25293 0.34714
# Poissons Ratio (y) = 0.25292 0.34711
# Poissons Ratio (z) = 0.20593 0.20592
#
# Static dielectric constant tensor:
#      x y z
#    x 3.082860 0.000000 0.000000 
#    y 0.000000 3.082860 0.000000 
#    z 0.000000 0.000000 3.678420 
# 
# 
# High freq. dielectric constant tensor:
#      x y z
#    x 1.640490 0.000000 0.000000 
#    y 0.000000 1.640490 0.000000 
#    z 0.000000 0.000000 1.696330 
# 
# From -- ./inp_files/2247.got.cif
#   From: 2010.03.12/outbox.cif.g09.slc.cpg/sg119_2_cif.got.tgz:2247.got - 2010.04.14 02:25:26.
