data_PCOD8310951
_publ_section_title
;
Structure prediction by ZEFSAII (Michael W. Deem and Ramdas Pophale) SiO2 
 PCOD8310951
Probable space group: I -4 M 2
;
_chemical_formula_sum "Si O2"
_cell_formula_units_Z 96
_cell_length_a 23.143590
_cell_length_b 23.143590
_cell_length_c 9.208347
_cell_angle_alpha 90.000000
_cell_angle_beta 90.000000
_cell_angle_gamma 90.000000
_cell_volume 4932.227843
_symmetry_space_group_name_H-M "I -4 M 2"
_symmetry_group_IT_number 119
_symmetry_cell_setting 'tetragonal'
loop_
_space_group_symop_operation_xyz
x,y,z
y,-x,-z
-x,-y,z
-y,x,-z
y,x,-z
-y,-x,-z
-x,y,z
x,-y,z
1/2+x,1/2+y,1/2+z
1/2+y,1/2-x,1/2-z
1/2-x,1/2-y,1/2+z
1/2-y,1/2+x,1/2-z
1/2+y,1/2+x,1/2-z
1/2-y,1/2-x,1/2-z
1/2-x,1/2+y,1/2+z
1/2+x,1/2-y,1/2+z
loop_
_atom_site_type_symbol
_atom_site_label
_atom_site_fract_x
_atom_site_fract_y
_atom_site_fract_z
Si Si1 0.856131 0.653480 0.580203
Si Si2 0.273007 0.645504 0.559549
Si Si3 0.566662 0.633567 0.600207
Si Si4 0.935517 0.567440 0.084259
Si Si5 0.137573 0.784163 0.597221
Si Si6 0.065130 0.887840 0.635297
O O1 0.856077 0.643924 0.750000
O O2 0.793427 0.636007 0.517113
O O3 0.903031 0.611175 0.515976
O O4 0.873078 0.719268 0.539824
O O5 0.292081 0.707920 0.500000
O O6 0.311666 0.596541 0.479289
O O7 0.282280 0.650377 0.731510
O O8 0.577055 0.577055 0.500000
O O9 0.500000 0.648088 0.620137
O O10 0.594624 0.616209 0.753686
O O11 0.933389 0.500000 0.051877
O O12 0.919452 0.580549 0.250000
O O13 0.000000 0.590899 0.049512
O O14 0.189095 0.810906 0.500000
O O15 0.079885 0.823174 0.578028
O O16 0.068100 0.931901 0.500000
O O17 0.000000 0.889420 0.700824
#
# Coordination Sequence:
#
# PCOD8310951 Si02
#       6
#    16  16  16  16  16  16
#     4  10  22  37  62  93 118 153 198 239 293 361
#     4  10  20  38  57  85 120 153 192 245 298 346
#     4  11  22  37  57  83 117 159 202 247 302 355
#     4   9  20  41  63  86 121 156 189 236 290 348
#     4  10  21  38  58  84 117 157 196 242 299 348
#     4  11  23  40  60  84 119 159 202 254 303 349
#
# _framework density 19.463820999999999
#
# number of rings (size 3 to 8) (size 9 to 14) (size 15 to 20)
#    0.000    1.833    3.333    2.000    0.000    5.333 
#    0.000    4.167    0.000    0.000    0.000    0.000 
#    0.000    0.000    0.000    0.000    0.000    0.000 
#
# Total GULP energy -594814.201133 kJ/mol
# GULP energy per Si atom -12391.962524 kJ/mol
# Density = 1.941952 g / cm^3
# Si number density = 19.463821 Si / 1000 Ang^3
#
#
#
# Elastic Constant Matrix: (Units=GPa)
#
#
# Indices 1 2 3 4 5 6 
#
# 1 97.2244 63.2009 36.9079 0.0000 0.0000 0.0000
# 2 63.2009 97.2273 36.9102 0.0000 0.0000 0.0000
# 3 36.9079 36.9102 64.0630 0.0000 0.0000 0.0000
# 4 0.0000 0.0000 0.0000 29.6470 0.0000 0.0000
# 5 0.0000 0.0000 0.0000 0.0000 29.6476 0.0000
# 6 0.0000 0.0000 0.0000 0.0000 0.0000 25.7910
#
#
#
# Elastic Compliance Matrix: (Units=1/GPa)
#
#
# Indices 1 2 3 4 5 6 
#
# 1 0.018936 -0.010454 -0.004886 0.000000 0.000000 0.000000
# 2 -0.010454 0.018936 -0.004887 0.000000 0.000000 0.000000
# 3 -0.004886 -0.004887 0.021241 0.000000 0.000000 0.000000
# 4 0.000000 0.000000 0.000000 0.033730 0.000000 0.000000
# 5 0.000000 0.000000 0.000000 0.000000 0.033730 0.000000
# 6 0.000000 0.000000 0.000000 0.000000 0.000000 0.038773
#
#
# Mechanical properties :
#
#
# Convention : Reuss Voigt Hill
#
# Bulk Modulus (GPa) = 53.59813 59.17253 56.38533
# Shear Modulus (GPa) = 23.58266 25.11683 24.34975
#
# Velocity S-wave (km/s) = 3.48460 3.59616 3.54082
# Velocity P-wave (km/s) = 6.61718 6.90728 6.76378
#
# Compressibility (1/GPa) = 0.01865737
#
# Stress axis : x y z
#
# Youngs Moduli (GPa) = 52.80909 52.80931 47.07984
#
# Poissons Ratio (x) = 0.55208 0.23004
# Poissons Ratio (y) = 0.55207 0.23009
# Poissons Ratio (z) = 0.25804 0.25809
#
# Static dielectric constant tensor:
#      x y z
#    x 3.602770 0.000000 0.000000 
#    y 0.000000 3.602780 0.000000 
#    z 0.000000 0.000000 3.634800 
# 
# 
# High freq. dielectric constant tensor:
#      x y z
#    x 1.753740 0.000000 0.000000 
#    y 0.000000 1.753740 0.000000 
#    z 0.000000 0.000000 1.763910 
# 
# From -- ./inp_files/2696.got.cif
#   From: 2010.03.12/outbox.cif.g09.slc.cpg/sg119_2_cif.got.tgz:2696.got - 2010.04.14 02:25:26.
