data_PCOD8310097
_publ_section_title
;
Structure prediction by ZEFSAII (Michael W. Deem and Ramdas Pophale) SiO2 
 PCOD8310097
Probable space group: P -4 C 2
;
_chemical_formula_sum "Si O2"
_cell_formula_units_Z 40
_cell_length_a 8.533208
_cell_length_b 8.533208
_cell_length_c 26.831090
_cell_angle_alpha 90.000000
_cell_angle_beta 90.000000
_cell_angle_gamma 90.000000
_cell_volume 1953.722957
_symmetry_space_group_name_H-M "P -4 C 2"
_symmetry_group_IT_number 116
_symmetry_cell_setting 'tetragonal'
loop_
_space_group_symop_operation_xyz
x,y,z
y,-x,-z
-x,-y,z
-y,x,-z
y,x,1/2-z
-y,-x,1/2-z
-x,y,1/2+z
x,-y,1/2+z
loop_
_atom_site_type_symbol
_atom_site_label
_atom_site_fract_x
_atom_site_fract_y
_atom_site_fract_z
Si Si1 0.257452 0.787282 0.104467
Si Si2 0.767299 0.400112 0.206671
Si Si3 0.767083 0.906086 0.993300
Si Si4 0.000000 0.000000 0.636559
Si Si5 0.000000 0.500000 0.936239
Si Si6 0.096567 0.272264 0.208324
O O1 0.267869 0.679766 0.153435
O O2 0.186636 0.700367 0.055790
O O3 0.428816 0.860522 0.097357
O O4 0.146857 0.941513 0.105389
O O5 0.638995 0.361006 0.250000
O O6 0.781121 0.586857 0.196053
O O7 0.932572 0.341002 0.228196
O O8 0.913739 0.814876 0.018415
O O9 0.624673 0.906136 0.031144
O O10 0.937198 0.155898 0.663488
O O11 0.163437 0.163437 0.250000
#
# Coordination Sequence:
#
# PCOD8310097 Si02
#       6
#     8   8   8   4   4   8
#     4  10  20  36  57  84 115 147 188 238 286 341
#     4  10  22  37  56  87 121 152 191 237 290 350
#     4   9  18  35  58  85 109 140 188 236 281 333
#     4  10  19  34  59  84 104 142 200 240 280 330
#     4  10  20  34  60  84 110 150 188 236 292 348
#     4  10  20  36  57  80 111 154 197 240 279 333
#
# _framework density 20.473728999999999
#
# number of rings (size 3 to 8) (size 9 to 14) (size 15 to 20)
#    0.000    2.200    0.000    5.100    0.000    6.800 
#    0.000    0.000    0.000   19.200    0.000    0.000 
#    0.000    0.000    0.000    0.000    0.000    0.000 
#
# Total GULP energy -495603.798844 kJ/mol
# GULP energy per Si atom -12390.094971 kJ/mol
# Density = 2.042713 g / cm^3
# Si number density = 20.473729 Si / 1000 Ang^3
#
#
#
# Elastic Constant Matrix: (Units=GPa)
#
#
# Indices 1 2 3 4 5 6 
#
# 1 107.0607 12.5804 28.7134 0.0000 0.0000 0.0000
# 2 12.5804 107.0605 28.7132 0.0000 0.0000 0.0000
# 3 28.7134 28.7132 85.3861 0.0000 0.0000 0.0000
# 4 0.0000 0.0000 0.0000 11.1042 0.0000 0.0000
# 5 0.0000 0.0000 0.0000 0.0000 11.1042 0.0000
# 6 0.0000 0.0000 0.0000 0.0000 0.0000 27.2346
#
#
#
# Elastic Compliance Matrix: (Units=1/GPa)
#
#
# Indices 1 2 3 4 5 6 
#
# 1 0.010276 -0.000309 -0.003352 0.000000 0.000000 0.000000
# 2 -0.000309 0.010276 -0.003352 0.000000 0.000000 0.000000
# 3 -0.003352 -0.003352 0.013966 0.000000 0.000000 0.000000
# 4 0.000000 0.000000 0.000000 0.090056 0.000000 0.000000
# 5 0.000000 0.000000 0.000000 0.000000 0.090056 0.000000
# 6 0.000000 0.000000 0.000000 0.000000 0.000000 0.036718
#
#
# Mechanical properties :
#
#
# Convention : Reuss Voigt Hill
#
# Bulk Modulus (GPa) = 48.79685 48.83572 48.81629
# Shear Modulus (GPa) = 18.36873 25.18862 21.77868
#
# Velocity S-wave (km/s) = 2.99855 3.51135 3.26504
# Velocity P-wave (km/s) = 5.98950 6.35170 6.17326
#
# Compressibility (1/GPa) = 0.02049313
#
# Stress axis : x y z
#
# Youngs Moduli (GPa) = 97.31722 97.31713 71.60392
#
# Poissons Ratio (x) = 0.03003 0.24000
# Poissons Ratio (y) = 0.03003 0.23999
# Poissons Ratio (z) = 0.32618 0.32618
#
# Static dielectric constant tensor:
#      x y z
#    x 3.804840 0.000000 0.000000 
#    y 0.000000 3.804840 0.000000 
#    z 0.000000 0.000000 3.035370 
# 
# 
# High freq. dielectric constant tensor:
#      x y z
#    x 1.796420 0.000000 0.000000 
#    y 0.000000 1.796420 0.000000 
#    z 0.000000 0.000000 1.796720 
# 
# From -- ./inp_files/4877.got.cif
#   From: 2010.03.12/outbox.cif.g09.slc.cpg/sg116_3_cif.got.tgz:4877.got - 2010.04.14 02:15:44.
