data_PCOD8310371
_publ_section_title
;
Structure prediction by ZEFSAII (Michael W. Deem and Ramdas Pophale) SiO2 
 PCOD8310371
Probable space group: P -4 B 2
;
_chemical_formula_sum "Si O2"
_cell_formula_units_Z 42
_cell_length_a 14.949082
_cell_length_b 14.949082
_cell_length_c 8.723997
_cell_angle_alpha 90.000000
_cell_angle_beta 90.000000
_cell_angle_gamma 90.000000
_cell_volume 1949.595689
_symmetry_space_group_name_H-M "P -4 B 2"
_symmetry_group_IT_number 117
_symmetry_cell_setting 'tetragonal'
loop_
_space_group_symop_operation_xyz
x,y,z
y,-x,-z
-x,-y,z
-y,x,-z
1/2+y,1/2+x,-z
1/2-y,1/2-x,-z
1/2-x,1/2+y,z
1/2+x,1/2-y,z
loop_
_atom_site_type_symbol
_atom_site_label
_atom_site_fract_x
_atom_site_fract_y
_atom_site_fract_z
Si Si1 0.327195 0.442047 0.543139
Si Si2 0.015817 0.322217 0.669678
Si Si3 0.000000 0.500000 0.500000
Si Si4 0.739514 0.665187 0.142556
Si Si5 0.168272 0.740330 0.644519
Si Si6 0.575990 0.434219 0.755282
O O1 0.225842 0.456018 0.489359
O O2 0.342583 0.340831 0.588748
O O3 0.386843 0.468887 0.393508
O O4 0.343798 0.504150 0.691151
O O5 0.091534 0.310161 0.799625
O O6 0.002618 0.422937 0.624730
O O7 0.921517 0.284653 0.737679
O O8 0.723770 0.741185 0.265709
O O9 0.641280 0.615203 0.125016
O O10 0.783380 0.716621 0.000000
O O11 0.173674 0.673674 0.500000
O O12 0.500000 0.500000 0.830371
#
# Coordination Sequence:
#
# PCOD8310371 Si02
#       6
#     8   8   2   8   8   8
#     4  11  17  33  64 103 132 163 223 310 366 410
#     4  11  22  38  64  96 135 173 230 294 354 434
#     4  12  24  36  62 108 120 156 246 300 344 412
#     4  11  26  47  63  97 150 196 234 287 371 456
#     4  12  20  40  70 100 135 181 235 302 372 426
#     4  11  18  34  69 104 135 175 241 308 369 423
#
# _framework density 21.542928
#
# number of rings (size 3 to 8) (size 9 to 14) (size 15 to 20)
#    0.000    0.762    8.571    2.286    0.000    0.000 
#    3.429    0.476    0.000    1.143    0.000    0.000 
#    0.000    0.000    0.000    0.000    0.000    0.000 
#
# Total GULP energy -520398.858056 kJ/mol
# GULP energy per Si atom -12390.449001 kJ/mol
# Density = 2.149390 g / cm^3
# Si number density = 21.542928 Si / 1000 Ang^3
#
#
#
# Elastic Constant Matrix: (Units=GPa)
#
#
# Indices 1 2 3 4 5 6 
#
# 1 140.6054 47.5077 34.5467 0.0000 0.0000 0.0000
# 2 47.5077 140.6044 34.5467 0.0000 0.0000 0.0000
# 3 34.5467 34.5467 60.6667 0.0000 0.0000 0.0000
# 4 0.0000 0.0000 0.0000 26.1900 0.0000 0.0000
# 5 0.0000 0.0000 0.0000 0.0000 26.1903 0.0000
# 6 0.0000 0.0000 0.0000 0.0000 0.0000 42.5617
#
#
#
# Elastic Compliance Matrix: (Units=1/GPa)
#
#
# Indices 1 2 3 4 5 6 
#
# 1 0.008732 -0.002010 -0.003828 0.000000 0.000000 0.000000
# 2 -0.002010 0.008732 -0.003828 0.000000 0.000000 0.000000
# 3 -0.003828 -0.003828 0.020843 0.000000 0.000000 0.000000
# 4 0.000000 0.000000 0.000000 0.038182 0.000000 0.000000
# 5 0.000000 0.000000 0.000000 0.000000 0.038182 0.000000
# 6 0.000000 0.000000 0.000000 0.000000 0.000000 0.023495
#
#
# Mechanical properties :
#
#
# Convention : Reuss Voigt Hill
#
# Bulk Modulus (GPa) = 52.69919 63.89763 58.29841
# Shear Modulus (GPa) = 30.52092 34.00677 32.26385
#
# Velocity S-wave (km/s) = 3.76806 3.97742 3.87415
# Velocity P-wave (km/s) = 6.59140 7.12868 6.86530
#
# Compressibility (1/GPa) = 0.01897562
#
# Stress axis : x y z
#
# Youngs Moduli (GPa) = 114.52585 114.52503 47.97778
#
# Poissons Ratio (x) = 0.23017 0.18365
# Poissons Ratio (y) = 0.23017 0.18365
# Poissons Ratio (z) = 0.43838 0.43838
#
# Static dielectric constant tensor:
#      x y z
#    x 4.231910 0.000000 0.000000 
#    y 0.000000 4.231910 0.000000 
#    z 0.000000 0.000000 3.752860 
# 
# 
# High freq. dielectric constant tensor:
#      x y z
#    x 1.865320 0.000000 0.000000 
#    y 0.000000 1.865320 0.000000 
#    z 0.000000 0.000000 1.781890 
# 
# From -- ./inp_files/1787.got.cif
#   From: 2010.03.12/outbox.cif.g09.slc.cpg/sg117_1_cif.got.tgz:1787.got - 2010.04.14 02:19:01.
