data_PCOD8310677
_publ_section_title
;
Structure prediction by ZEFSAII (Michael W. Deem and Ramdas Pophale) SiO2 
 PCOD8310677
Probable space group: I -4 M 2
;
_chemical_formula_sum "Si O2"
_cell_formula_units_Z 128
_cell_length_a 20.285942
_cell_length_b 20.285942
_cell_length_c 18.488879
_cell_angle_alpha 90.000000
_cell_angle_beta 90.000000
_cell_angle_gamma 90.000000
_cell_volume 7608.533185
_symmetry_space_group_name_H-M "I -4 M 2"
_symmetry_group_IT_number 119
_symmetry_cell_setting 'tetragonal'
loop_
_space_group_symop_operation_xyz
x,y,z
y,-x,-z
-x,-y,z
-y,x,-z
y,x,-z
-y,-x,-z
-x,y,z
x,-y,z
1/2+x,1/2+y,1/2+z
1/2+y,1/2-x,1/2-z
1/2-x,1/2-y,1/2+z
1/2-y,1/2+x,1/2-z
1/2+y,1/2+x,1/2-z
1/2-y,1/2-x,1/2-z
1/2-x,1/2+y,1/2+z
1/2+x,1/2-y,1/2+z
loop_
_atom_site_type_symbol
_atom_site_label
_atom_site_fract_x
_atom_site_fract_y
_atom_site_fract_z
Si Si1 0.271031 0.924477 0.251923
Si Si2 0.205655 0.071919 0.732561
Si Si3 0.793852 0.249588 0.327070
Si Si4 0.166345 0.673700 0.638002
Si Si5 0.928163 0.119557 0.773183
Si Si6 0.649089 0.610373 0.573202
Si Si7 0.745372 0.879241 0.881732
Si Si8 0.926629 0.293685 0.969649
O O1 0.307342 0.904346 0.327112
O O2 0.294461 0.876716 0.188928
O O3 0.192752 0.913562 0.257263
O O4 0.289000 0.000000 0.234114
O O5 0.222158 0.131900 0.678972
O O6 0.126813 0.070899 0.742845
O O7 0.241829 0.078076 0.809993
O O8 0.225227 0.000000 0.700109
O O9 0.757947 0.257947 0.250000
O O10 0.743852 0.203673 0.372991
O O11 0.804208 0.319820 0.364487
O O12 0.159865 0.632255 0.562811
O O13 0.928148 0.116177 0.860672
O O14 0.000000 0.095625 0.746822
O O15 0.604589 0.604589 0.500000
O O16 0.655252 0.687578 0.591423
O O17 0.721008 0.580285 0.563086
O O18 0.710660 0.922394 0.943398
O O19 0.000000 0.320839 0.950547
#
# Coordination Sequence:
#
# PCOD8310677 Si02
#       8
#    16  16  16  16  16  16  16  16
#     4  10  18  28  45  69  94 124 167 213 251 289
#     4  10  19  31  47  70 100 131 160 207 258 292
#     4  10  16  30  49  69  93 125 164 211 248 285
#     4  11  17  28  47  68  95 126 167 209 250 286
#     4  10  17  28  44  63  92 133 170 204 243 291
#     4   9  16  25  39  63  94 128 168 205 234 272
#     4   9  18  30  46  68  98 128 163 200 244 289
#     4  11  19  27  44  72 101 129 161 201 246 299
#
# _framework density 16.823215999999999
#
# number of rings (size 3 to 8) (size 9 to 14) (size 15 to 20)
#    0.000    2.000    5.000    1.875    0.000    0.250 
#    0.000    0.625    0.000    7.125    0.000    0.000 
#    0.000   29.250    0.000    0.000    0.250    0.000 
#
# Total GULP energy -793022.229863 kJ/mol
# GULP energy per Si atom -12390.972342 kJ/mol
# Density = 1.678493 g / cm^3
# Si number density = 16.823216 Si / 1000 Ang^3
#
#
#
# Elastic Constant Matrix: (Units=GPa)
#
#
# Indices 1 2 3 4 5 6 
#
# 1 84.4052 34.2928 22.4779 0.0000 0.0000 0.0000
# 2 34.2928 84.4052 22.4779 0.0000 0.0000 0.0000
# 3 22.4779 22.4779 39.0636 0.0000 0.0000 0.0000
# 4 0.0000 0.0000 0.0000 14.8702 0.0000 0.0000
# 5 0.0000 0.0000 0.0000 0.0000 14.8702 0.0000
# 6 0.0000 0.0000 0.0000 0.0000 0.0000 10.8843
#
#
#
# Elastic Compliance Matrix: (Units=1/GPa)
#
#
# Indices 1 2 3 4 5 6 
#
# 1 0.015364 -0.004591 -0.006199 0.000000 0.000000 0.000000
# 2 -0.004591 0.015364 -0.006199 0.000000 0.000000 0.000000
# 3 -0.006199 -0.006199 0.032733 0.000000 0.000000 0.000000
# 4 0.000000 0.000000 0.000000 0.067248 0.000000 0.000000
# 5 0.000000 0.000000 0.000000 0.000000 0.067248 0.000000
# 6 0.000000 0.000000 0.000000 0.000000 0.000000 0.091876
#
#
# Mechanical properties :
#
#
# Convention : Reuss Voigt Hill
#
# Bulk Modulus (GPa) = 33.91765 40.70791 37.31278
# Shear Modulus (GPa) = 14.98630 16.69999 15.84315
#
# Velocity S-wave (km/s) = 2.98788 3.15409 3.07211
# Velocity P-wave (km/s) = 5.66641 6.12490 5.90011
#
# Compressibility (1/GPa) = 0.02948317
#
# Stress axis : x y z
#
# Youngs Moduli (GPa) = 65.08822 65.08822 30.55029
#
# Poissons Ratio (x) = 0.29884 0.18937
# Poissons Ratio (y) = 0.29884 0.18937
# Poissons Ratio (z) = 0.40346 0.40346
#
# Static dielectric constant tensor:
#      x y z
#    x 3.052750 0.000000 0.000000 
#    y 0.000000 3.052750 0.000000 
#    z 0.000000 0.000000 3.171450 
# 
# 
# High freq. dielectric constant tensor:
#      x y z
#    x 1.628510 0.000000 0.000000 
#    y 0.000000 1.628510 0.000000 
#    z 0.000000 0.000000 1.617300 
# 
# From -- ./inp_files/6930.got.cif
#   From: 2010.03.12/outbox.cif.g09.slc.cpg/sg119_4_cif.got.tgz:6930.got - 2010.04.14 02:25:26.
