data_PCOD8310475
_publ_section_title
;
Structure prediction by ZEFSAII (Michael W. Deem and Ramdas Pophale) SiO2 
 PCOD8310475
Probable space group: P -4 N 2
;
_chemical_formula_sum "Si O2"
_cell_formula_units_Z 64
_cell_length_a 13.678230
_cell_length_b 13.678230
_cell_length_c 21.371844
_cell_angle_alpha 90.000000
_cell_angle_beta 90.000000
_cell_angle_gamma 90.000000
_cell_volume 3998.543267
_symmetry_space_group_name_H-M "P -4 N 2"
_symmetry_group_IT_number 118
_symmetry_cell_setting 'tetragonal'
loop_
_space_group_symop_operation_xyz
x,y,z
y,-x,-z
-x,-y,z
-y,x,-z
1/2+y,1/2+x,1/2-z
1/2-y,1/2-x,1/2-z
1/2-x,1/2+y,1/2+z
1/2+x,1/2-y,1/2+z
loop_
_atom_site_type_symbol
_atom_site_label
_atom_site_fract_x
_atom_site_fract_y
_atom_site_fract_z
Si Si1 0.389873 0.200135 0.437454
Si Si2 0.887320 0.891831 0.622674
Si Si3 0.799864 0.610128 0.562546
Si Si4 0.391830 0.612680 0.877326
Si Si5 0.115375 0.305099 0.685998
Si Si6 0.106662 0.893337 1.000000
Si Si7 0.808451 0.808452 0.500000
Si Si8 0.115374 0.694901 0.685998
O O1 0.500000 0.166409 0.457853
O O2 0.380568 0.318030 0.442326
O O3 0.304492 0.163103 0.483897
O O4 0.371672 0.163421 0.367544
O O5 0.861005 0.809355 0.673882
O O6 0.828492 0.876997 0.558868
O O7 1.000000 0.882073 0.604272
O O8 0.863277 0.000000 0.649829
O O9 0.836579 0.628329 0.632456
O O10 0.681969 0.619433 0.557674
O O11 0.836897 0.695508 0.516103
O O12 0.376997 0.671507 0.941133
O O13 0.309354 0.638994 0.826118
O O14 0.166002 0.333999 0.750000
O O15 0.000001 0.326248 0.688404
O O16 1.000000 0.880547 0.031135
O O17 0.166000 0.666000 0.750000
#
# Coordination Sequence:
#
# PCOD8310475 Si02
#       8
#     8   8   8   8   8   8   8   8
#     4   9  17  28  42  63  90 117 146 177 208 249
#     4   9  17  30  48  68  87 107 136 177 220 256
#     4   9  17  28  42  63  90 117 146 177 208 249
#     4   9  17  30  48  68  87 107 136 177 220 256
#     4  10  20  32  45  62  86 116 146 174 207 249
#     4   8  14  27  46  65  86 112 142 180 222 254
#     4   9  16  26  44  68  90 113 140 172 216 261
#     4  10  20  32  45  62  86 116 146 174 207 249
#
# _framework density 16.005828999999999
#
# number of rings (size 3 to 8) (size 9 to 14) (size 15 to 20)
#    0.000    2.875    0.000    1.500    0.000    3.750 
#    0.000    1.250    0.000    7.500    0.000    0.000 
#    0.000    0.000    0.000    0.000    0.000    0.000 
#
# Total GULP energy -792880.544990 kJ/mol
# GULP energy per Si atom -12388.758515 kJ/mol
# Density = 1.596940 g / cm^3
# Si number density = 16.005829 Si / 1000 Ang^3
#
#
#
# Elastic Constant Matrix: (Units=GPa)
#
#
# Indices 1 2 3 4 5 6 
#
# 1 94.0264 50.6123 52.2912 0.0000 0.0000 0.0000
# 2 50.6123 94.0258 52.2912 0.0000 0.0000 0.0000
# 3 52.2912 52.2912 104.7571 0.0000 0.0000 0.0000
# 4 0.0000 0.0000 0.0000 18.1240 0.0000 0.0000
# 5 0.0000 0.0000 0.0000 0.0000 18.1236 0.0000
# 6 0.0000 0.0000 0.0000 0.0000 0.0000 21.2218
#
#
#
# Elastic Compliance Matrix: (Units=1/GPa)
#
#
# Indices 1 2 3 4 5 6 
#
# 1 0.016926 -0.006108 -0.005400 0.000000 0.000000 0.000000
# 2 -0.006108 0.016926 -0.005400 0.000000 0.000000 0.000000
# 3 -0.005400 -0.005400 0.014937 0.000000 0.000000 0.000000
# 4 0.000000 0.000000 0.000000 0.055176 0.000000 0.000000
# 5 0.000000 0.000000 0.000000 0.000000 0.055177 0.000000
# 6 0.000000 0.000000 0.000000 0.000000 0.000000 0.047121
#
#
# Mechanical properties :
#
#
# Convention : Reuss Voigt Hill
#
# Bulk Modulus (GPa) = 66.78603 67.02208 66.90405
# Shear Modulus (GPa) = 20.40225 20.66818 20.53521
#
# Velocity S-wave (km/s) = 3.57413 3.59735 3.58576
# Velocity P-wave (km/s) = 7.67133 7.69539 7.68337
#
# Compressibility (1/GPa) = 0.01497319
#
# Stress axis : x y z
#
# Youngs Moduli (GPa) = 59.07987 59.07937 66.94740
#
# Poissons Ratio (x) = 0.36085 0.36153
# Poissons Ratio (y) = 0.36085 0.36153
# Poissons Ratio (z) = 0.31904 0.31904
#
# Static dielectric constant tensor:
#      x y z
#    x 3.297540 0.000000 0.000000 
#    y 0.000000 3.297540 0.000000 
#    z 0.000000 0.000000 2.763880 
# 
# 
# High freq. dielectric constant tensor:
#      x y z
#    x 1.622730 0.000000 0.000000 
#    y 0.000000 1.622730 0.000000 
#    z 0.000000 0.000000 1.582510 
# 
# From -- ./inp_files/5067.got.cif
#   From: 2010.03.12/outbox.cif.g09.slc.cpg/sg118_3_cif.got.tgz:5067.got - 2010.04.14 02:21:17.
