data_PCOD8310181
_publ_section_title
;
Structure prediction by ZEFSAII (Michael W. Deem and Ramdas Pophale) SiO2 
 PCOD8310181
Probable space group: P -4 C 2
;
_chemical_formula_sum "Si O2"
_cell_formula_units_Z 56
_cell_length_a 14.307996
_cell_length_b 14.307996
_cell_length_c 12.012951
_cell_angle_alpha 90.000000
_cell_angle_beta 90.000000
_cell_angle_gamma 90.000000
_cell_volume 2459.276307
_symmetry_space_group_name_H-M "P -4 C 2"
_symmetry_group_IT_number 116
_symmetry_cell_setting 'tetragonal'
loop_
_space_group_symop_operation_xyz
x,y,z
y,-x,-z
-x,-y,z
-y,x,-z
y,x,1/2-z
-y,-x,1/2-z
-x,y,1/2+z
x,-y,1/2+z
loop_
_atom_site_type_symbol
_atom_site_label
_atom_site_fract_x
_atom_site_fract_y
_atom_site_fract_z
Si Si1 0.561448 0.367186 0.967269
Si Si2 0.570352 0.075766 0.904051
Si Si3 0.828066 0.415180 0.963681
Si Si4 0.835689 0.864576 0.628921
Si Si5 0.696279 0.296870 0.374031
Si Si6 0.969518 0.737914 0.487307
Si Si7 0.395042 0.747656 0.762040
O O1 0.552393 0.330414 0.839846
O O2 0.461677 0.379582 0.023460
O O3 0.616344 0.290955 0.041119
O O4 0.669116 0.030387 0.935830
O O5 0.598596 0.150997 0.813615
O O6 0.500000 0.000000 0.848144
O O7 0.511874 0.119253 0.007932
O O8 0.755313 0.435812 0.863269
O O9 0.775641 0.380909 0.076904
O O10 0.897393 0.331494 0.923459
O O11 0.879680 0.879680 0.750000
O O12 0.745650 0.798621 0.633903
O O13 0.798239 0.965367 0.592721
O O14 0.914561 0.818175 0.553169
O O15 0.667639 0.332362 0.250000
O O16 0.287524 0.712477 0.750000
#
# Coordination Sequence:
#
# PCOD8310181 Si02
#       7
#     8   8   8   8   8   8   8
#     4  11  25  44  64  98 142 194 248 297 357 430
#     4  10  24  46  72 106 143 192 246 307 366 447
#     4  10  23  46  69 108 138 187 247 302 370 425
#     4  10  23  44  69 100 133 180 226 284 369 442
#     4  10  21  44  68  91 135 187 232 292 356 427
#     4  10  23  44  71 101 146 176 233 298 367 450
#     4  12  25  43  74 103 148 194 245 313 376 435
#
# _framework density 22.770925999999999
#
# number of rings (size 3 to 8) (size 9 to 14) (size 15 to 20)
#    0.000    1.571    1.429    1.714    4.000    4.286 
#   12.857    2.857    0.000    0.000    0.000    0.000 
#    0.000    0.000    0.000    0.000    0.000    0.000 
#
# Total GULP energy -693951.298884 kJ/mol
# GULP energy per Si atom -12391.987480 kJ/mol
# Density = 2.271910 g / cm^3
# Si number density = 22.770926 Si / 1000 Ang^3
#
#
#
# Elastic Constant Matrix: (Units=GPa)
#
#
# Indices 1 2 3 4 5 6 
#
# 1 107.5486 63.3957 54.8358 0.0000 0.0000 0.0000
# 2 63.3957 107.5474 54.8359 0.0000 0.0000 0.0000
# 3 54.8358 54.8359 126.6136 0.0000 0.0000 0.0000
# 4 0.0000 0.0000 0.0000 23.5770 0.0000 0.0000
# 5 0.0000 0.0000 0.0000 0.0000 23.5773 0.0000
# 6 0.0000 0.0000 0.0000 0.0000 0.0000 45.5502
#
#
#
# Elastic Compliance Matrix: (Units=1/GPa)
#
#
# Indices 1 2 3 4 5 6 
#
# 1 0.015375 -0.007274 -0.003508 0.000000 0.000000 0.000000
# 2 -0.007274 0.015375 -0.003508 0.000000 0.000000 0.000000
# 3 -0.003508 -0.003508 0.010937 0.000000 0.000000 0.000000
# 4 0.000000 0.000000 0.000000 0.042414 0.000000 0.000000
# 5 0.000000 0.000000 0.000000 0.000000 0.042414 0.000000
# 6 0.000000 0.000000 0.000000 0.000000 0.000000 0.021954
#
#
# Mechanical properties :
#
#
# Convention : Reuss Voigt Hill
#
# Bulk Modulus (GPa) = 76.30741 76.42715 76.36728
# Shear Modulus (GPa) = 27.56062 29.78372 28.67217
#
# Velocity S-wave (km/s) = 3.48277 3.62051 3.55231
# Velocity P-wave (km/s) = 7.05383 7.14939 7.10177
#
# Compressibility (1/GPa) = 0.01310489
#
# Stress axis : x y z
#
# Youngs Moduli (GPa) = 65.04192 65.04102 91.43268
#
# Poissons Ratio (x) = 0.47311 0.32078
# Poissons Ratio (y) = 0.47312 0.32079
# Poissons Ratio (z) = 0.22819 0.22819
#
# Static dielectric constant tensor:
#      x y z
#    x 4.301290 0.000000 0.000000 
#    y 0.000000 4.301290 0.000000 
#    z 0.000000 0.000000 4.127770 
# 
# 
# High freq. dielectric constant tensor:
#      x y z
#    x 1.905440 0.000000 0.000000 
#    y 0.000000 1.905440 0.000000 
#    z 0.000000 0.000000 1.886480 
# 
# From -- ./inp_files/2012.got.cif
#   From: 2010.03.12/outbox.cif.g09.slc.cpg/sg116_2_cif.got.tgz:2012.got - 2010.04.14 02:15:44.
