data_PCOD8310919
_publ_section_title
;
Structure prediction by ZEFSAII (Michael W. Deem and Ramdas Pophale) SiO2 
 PCOD8310919
Probable space group: I -4 M 2
;
_chemical_formula_sum "Si O2"
_cell_formula_units_Z 58
_cell_length_a 17.803583
_cell_length_b 17.803583
_cell_length_c 9.434093
_cell_angle_alpha 90.000000
_cell_angle_beta 90.000000
_cell_angle_gamma 90.000000
_cell_volume 2990.301511
_symmetry_space_group_name_H-M "I -4 M 2"
_symmetry_group_IT_number 119
_symmetry_cell_setting 'tetragonal'
loop_
_space_group_symop_operation_xyz
x,y,z
y,-x,-z
-x,-y,z
-y,x,-z
y,x,-z
-y,-x,-z
-x,y,z
x,-y,z
1/2+x,1/2+y,1/2+z
1/2+y,1/2-x,1/2-z
1/2-x,1/2-y,1/2+z
1/2-y,1/2+x,1/2-z
1/2+y,1/2+x,1/2-z
1/2-y,1/2-x,1/2-z
1/2-x,1/2+y,1/2+z
1/2+x,1/2-y,1/2+z
loop_
_atom_site_type_symbol
_atom_site_label
_atom_site_fract_x
_atom_site_fract_y
_atom_site_fract_z
Si Si1 0.305443 0.412765 0.080450
Si Si2 0.000000 0.500000 0.750000
Si Si3 0.418271 0.000000 0.979260
Si Si4 0.653331 0.837054 0.587135
Si Si5 0.086741 0.813449 0.084682
O O1 0.304249 0.500000 0.039801
O O2 0.226404 0.377974 0.021560
O O3 0.320243 0.401754 0.247078
O O4 0.373847 0.373847 0.000000
O O5 0.074572 0.500000 0.651455
O O6 0.380565 0.075759 0.928139
O O7 0.500000 0.000000 0.907585
O O8 0.672152 0.827849 0.750000
O O9 0.637790 0.754605 0.522421
O O10 0.000000 0.797696 0.049406
O O11 0.112119 0.887882 0.000000
#
# Coordination Sequence:
#
# PCOD8310919 Si02
#       5
#    16   2   8  16  16
#     4  10  22  40  59  88 119 152 201 246 294 356
#     4   8  24  36  42  84 136 156 184 242 268 368
#     4  10  20  35  52  81 121 159 186 230 287 347
#     4  10  20  36  62  88 112 148 194 249 291 352
#     4  10  21  39  59  87 119 150 199 245 294 353
#
# _framework density 19.396037
#
# number of rings (size 3 to 8) (size 9 to 14) (size 15 to 20)
#    0.414    1.655    1.379    1.655    3.862    1.655 
#    4.966    2.759    0.000    0.000    0.000    0.000 
#    0.000    0.000    0.000    0.000    0.000    0.000 
#
# Total GULP energy -359366.046833 kJ/mol
# GULP energy per Si atom -12391.932649 kJ/mol
# Density = 1.935189 g / cm^3
# Si number density = 19.396037 Si / 1000 Ang^3
#
#
#
# Elastic Constant Matrix: (Units=GPa)
#
#
# Indices 1 2 3 4 5 6 
#
# 1 124.4149 83.6203 39.0420 0.0000 0.0000 0.0000
# 2 83.6203 124.4066 39.0440 0.0000 0.0000 0.0000
# 3 39.0420 39.0440 19.7206 0.0000 0.0000 0.0000
# 4 0.0000 0.0000 0.0000 33.5412 0.0000 0.0000
# 5 0.0000 0.0000 0.0000 0.0000 33.5412 0.0000
# 6 0.0000 0.0000 0.0000 0.0000 0.0000 32.4143
#
#
#
# Elastic Compliance Matrix: (Units=1/GPa)
#
#
# Indices 1 2 3 4 5 6 
#
# 1 0.021611 -0.002901 -0.037042 0.000000 0.000000 0.000000
# 2 -0.002901 0.021618 -0.037059 0.000000 0.000000 0.000000
# 3 -0.037042 -0.037059 0.197414 0.000000 0.000000 0.000000
# 4 0.000000 0.000000 0.000000 0.029814 0.000000 0.000000
# 5 0.000000 0.000000 0.000000 0.000000 0.029814 0.000000
# 6 0.000000 0.000000 0.000000 0.000000 0.000000 0.030851
#
#
# Mechanical properties :
#
#
# Convention : Reuss Voigt Hill
#
# Bulk Modulus (GPa) = 11.54194 65.77273 38.65734
# Shear Modulus (GPa) = 9.72753 27.02172 18.37462
#
# Velocity S-wave (km/s) = 2.24190 3.73655 3.08123
# Velocity P-wave (km/s) = 3.55880 7.25257 5.71248
#
# Compressibility (1/GPa) = 0.08664051
#
# Stress axis : x y z
#
# Youngs Moduli (GPa) = 46.27245 46.25671 5.06550
#
# Poissons Ratio (x) = 0.13418 0.18764
# Poissons Ratio (y) = 0.13422 0.18772
# Poissons Ratio (z) = 1.71402 1.71422
#
# Static dielectric constant tensor:
#      x y z
#    x 3.651190 0.000000 0.000000 
#    y 0.000000 3.651190 0.000000 
#    z 0.000000 0.000000 3.264590 
# 
# 
# High freq. dielectric constant tensor:
#      x y z
#    x 1.764070 0.000000 0.000000 
#    y 0.000000 1.764070 0.000000 
#    z 0.000000 0.000000 1.726710 
# 
# From -- ./inp_files/2032.got.cif
#   From: 2010.03.12/outbox.cif.g09.slc.cpg/sg119_2_cif.got.tgz:2032.got - 2010.04.14 02:25:26.
