data_PCOD8310785
_publ_section_title
;
Structure prediction by ZEFSAII (Michael W. Deem and Ramdas Pophale) SiO2 
 PCOD8310785
Probable space group: I -4 M 2
;
_chemical_formula_sum "Si O2"
_cell_formula_units_Z 64
_cell_length_a 17.855542
_cell_length_b 17.855542
_cell_length_c 10.224540
_cell_angle_alpha 90.000000
_cell_angle_beta 90.000000
_cell_angle_gamma 90.000000
_cell_volume 3259.791729
_symmetry_space_group_name_H-M "I -4 M 2"
_symmetry_group_IT_number 119
_symmetry_cell_setting 'tetragonal'
loop_
_space_group_symop_operation_xyz
x,y,z
y,-x,-z
-x,-y,z
-y,x,-z
y,x,-z
-y,-x,-z
-x,y,z
x,-y,z
1/2+x,1/2+y,1/2+z
1/2+y,1/2-x,1/2-z
1/2-x,1/2-y,1/2+z
1/2-y,1/2+x,1/2-z
1/2+y,1/2+x,1/2-z
1/2-y,1/2-x,1/2-z
1/2-x,1/2+y,1/2+z
1/2+x,1/2-y,1/2+z
loop_
_atom_site_type_symbol
_atom_site_label
_atom_site_fract_x
_atom_site_fract_y
_atom_site_fract_z
Si Si1 0.412114 0.912114 0.750000
Si Si2 0.410703 0.584114 0.355512
Si Si3 0.086656 0.166229 0.603689
Si Si4 0.175880 0.410883 0.994055
Si Si5 0.586600 0.913401 0.250000
O O1 0.500000 0.899311 0.716510
O O2 0.359806 0.884019 0.630756
O O3 0.386609 0.613392 0.500000
O O4 0.500000 0.580348 0.348998
O O5 0.378886 0.500000 0.330187
O O6 0.378609 0.640849 0.244357
O O7 0.099823 0.099823 0.500000
O O8 0.121742 0.241385 0.538481
O O9 0.000000 0.180052 0.626713
O O10 0.175969 0.500000 0.995399
O O11 0.124043 0.379209 0.878671
O O12 0.500000 0.895520 0.263718
#
# Coordination Sequence:
#
# PCOD8310785 Si02
#       5
#     8  16  16  16   8
#     4   9  16  30  53  76  98 126 159 198 248 301
#     4   8  14  26  45  67  90 122 167 210 242 277
#     4  10  19  31  47  69  99 132 166 203 240 280
#     4   9  18  31  48  73 100 124 158 204 245 287
#     4   9  16  30  53  74  90 114 151 196 250 307
#
# _framework density 19.633154999999999
#
# number of rings (size 3 to 8) (size 9 to 14) (size 15 to 20)
#    0.000    3.000    0.000    2.250    0.000    4.250 
#    0.000    3.750    0.000    9.000    0.000    0.000 
#    0.000    0.000    0.000    0.000    0.000    0.000 
#
# Total GULP energy -396451.011260 kJ/mol
# GULP energy per Si atom -12389.094102 kJ/mol
# Density = 1.958847 g / cm^3
# Si number density = 19.633155 Si / 1000 Ang^3
#
#
#
# Elastic Constant Matrix: (Units=GPa)
#
#
# Indices 1 2 3 4 5 6 
#
# 1 42.8836 31.1531 56.9642 0.0000 0.0000 0.0000
# 2 31.1531 42.8839 56.9640 0.0000 0.0000 0.0000
# 3 56.9642 56.9640 214.9056 0.0000 0.0000 0.0000
# 4 0.0000 0.0000 0.0000 10.0257 0.0000 0.0000
# 5 0.0000 0.0000 0.0000 0.0000 10.0261 0.0000
# 6 0.0000 0.0000 0.0000 0.0000 0.0000 9.7563
#
#
#
# Elastic Compliance Matrix: (Units=1/GPa)
#
#
# Indices 1 2 3 4 5 6 
#
# 1 0.054029 -0.031218 -0.006047 0.000000 0.000000 0.000000
# 2 -0.031218 0.054028 -0.006046 0.000000 0.000000 0.000000
# 3 -0.006047 -0.006046 0.007859 0.000000 0.000000 0.000000
# 4 0.000000 0.000000 0.000000 0.099743 0.000000 0.000000
# 5 0.000000 0.000000 0.000000 0.000000 0.099740 0.000000
# 6 0.000000 0.000000 0.000000 0.000000 0.000000 0.102498
#
#
# Mechanical properties :
#
#
# Convention : Reuss Voigt Hill
#
# Bulk Modulus (GPa) = 34.13550 65.64841 49.89196
# Shear Modulus (GPa) = 9.72227 16.33441 13.02834
#
# Velocity S-wave (km/s) = 2.22772 2.88754 2.57882
# Velocity P-wave (km/s) = 4.90320 6.68037 5.85955
#
# Compressibility (1/GPa) = 0.02929501
#
# Stress axis : x y z
#
# Youngs Moduli (GPa) = 18.50855 18.50879 127.24894
#
# Poissons Ratio (x) = 0.57780 0.76942
# Poissons Ratio (y) = 0.57779 0.76938
# Poissons Ratio (z) = 0.11191 0.11191
#
# Static dielectric constant tensor:
#      x y z
#    x 3.347710 0.000000 0.000000 
#    y 0.000000 3.347690 0.000000 
#    z 0.000000 0.000000 3.948640 
# 
# 
# High freq. dielectric constant tensor:
#      x y z
#    x 1.725330 0.000000 0.000000 
#    y 0.000000 1.725330 0.000000 
#    z 0.000000 0.000000 1.785220 
# 
# From -- ./inp_files/2340.got.cif
#   From: 2010.03.12/outbox.cif.g09.slc.cpg/sg119_2_cif.got.tgz:2340.got - 2010.04.14 02:25:26.
