data_PCOD8310314
_publ_section_title
;
Structure prediction by ZEFSAII (Michael W. Deem and Ramdas Pophale) SiO2 
 PCOD8310314
Probable space group: P -4 B 2
;
_chemical_formula_sum "Si O2"
_cell_formula_units_Z 36
_cell_length_a 16.250319
_cell_length_b 16.250319
_cell_length_c 6.838395
_cell_angle_alpha 90.000000
_cell_angle_beta 90.000000
_cell_angle_gamma 90.000000
_cell_volume 1805.834577
_symmetry_space_group_name_H-M "P -4 B 2"
_symmetry_group_IT_number 117
_symmetry_cell_setting 'tetragonal'
loop_
_space_group_symop_operation_xyz
x,y,z
y,-x,-z
-x,-y,z
-y,x,-z
1/2+y,1/2+x,-z
1/2-y,1/2-x,-z
1/2-x,1/2+y,z
1/2+x,1/2-y,z
loop_
_atom_site_type_symbol
_atom_site_label
_atom_site_fract_x
_atom_site_fract_y
_atom_site_fract_z
Si Si1 0.758158 0.619592 0.923035
Si Si2 0.828574 0.873992 0.383990
Si Si3 0.555066 0.298055 0.674980
Si Si4 0.530679 0.146227 0.396182
Si Si5 0.352918 0.147083 0.500000
O O1 0.680513 0.630763 0.783172
O O2 0.832743 0.573146 0.810862
O O3 0.793347 0.706654 0.000000
O O4 0.724804 0.565522 0.099962
O O5 0.869008 0.853089 0.594883
O O6 0.731152 0.855924 0.378273
O O7 0.847318 0.969524 0.343606
O O8 0.553616 0.215729 0.550656
O O9 0.562869 0.062869 0.500000
O O10 0.432527 0.142018 0.357462
#
# Coordination Sequence:
#
# PCOD8310314 Si02
#       5
#     8   8   8   8   4
#     4  11  21  36  65  87 123 163 202 248 313 377
#     4  10  23  39  61  88 117 160 202 257 305 366
#     4  10  22  40  60  89 121 156 205 251 309 367
#     4  10  20  38  61  88 123 163 191 245 305 363
#     4  10  21  38  62  86 120 155 206 244 296 368
#
# _framework density 19.935382000000001
#
# number of rings (size 3 to 8) (size 9 to 14) (size 15 to 20)
#    0.000    1.778    2.222    1.667    3.111    7.556 
#    0.000    3.333    0.000    0.000    0.000    0.000 
#    0.000    0.000    0.000    0.000    0.000    0.000 
#
# Total GULP energy -446363.712296 kJ/mol
# GULP energy per Si atom -12398.992008 kJ/mol
# Density = 1.989001 g / cm^3
# Si number density = 19.935382 Si / 1000 Ang^3
#
#
#
# Elastic Constant Matrix: (Units=GPa)
#
#
# Indices 1 2 3 4 5 6 
#
# 1 108.8348 38.8094 39.8412 0.0000 0.0000 0.0000
# 2 38.8094 108.8325 39.8412 0.0000 0.0000 0.0000
# 3 39.8412 39.8412 121.5170 0.0000 0.0000 0.0000
# 4 0.0000 0.0000 0.0000 22.2718 0.0000 0.0000
# 5 0.0000 0.0000 0.0000 0.0000 22.2724 0.0000
# 6 0.0000 0.0000 0.0000 0.0000 0.0000 27.1121
#
#
#
# Elastic Compliance Matrix: (Units=1/GPa)
#
#
# Indices 1 2 3 4 5 6 
#
# 1 0.011255 -0.003026 -0.002698 0.000000 0.000000 0.000000
# 2 -0.003026 0.011255 -0.002698 0.000000 0.000000 0.000000
# 3 -0.002698 -0.002698 0.009999 0.000000 0.000000 0.000000
# 4 0.000000 0.000000 0.000000 0.044900 0.000000 0.000000
# 5 0.000000 0.000000 0.000000 0.000000 0.044899 0.000000
# 6 0.000000 0.000000 0.000000 0.000000 0.000000 0.036884
#
#
# Mechanical properties :
#
#
# Convention : Reuss Voigt Hill
#
# Bulk Modulus (GPa) = 63.83794 64.01865 63.92830
# Shear Modulus (GPa) = 27.58525 29.04409 28.31467
#
# Velocity S-wave (km/s) = 3.72389 3.82109 3.77281
# Velocity P-wave (km/s) = 7.11209 7.18683 7.14955
#
# Compressibility (1/GPa) = 0.01566467
#
# Stress axis : x y z
#
# Youngs Moduli (GPa) = 88.85045 88.84829 100.01485
#
# Poissons Ratio (x) = 0.26883 0.26984
# Poissons Ratio (y) = 0.26884 0.26985
# Poissons Ratio (z) = 0.23972 0.23972
#
# Static dielectric constant tensor:
#      x y z
#    x 3.755790 0.000000 0.000000 
#    y 0.000000 3.755790 0.000000 
#    z 0.000000 0.000000 3.510060 
# 
# 
# High freq. dielectric constant tensor:
#      x y z
#    x 1.781920 0.000000 0.000000 
#    y 0.000000 1.781920 0.000000 
#    z 0.000000 0.000000 1.763670 
# 
# From -- ./inp_files/568.got.cif
#   From: 2010.03.12/outbox.cif.g09.slc.cpg/sg117_1_cif.got.tgz:568.got - 2010.04.14 02:19:01.
