data_PCOD8310924
_publ_section_title
;
Structure prediction by ZEFSAII (Michael W. Deem and Ramdas Pophale) SiO2 
 PCOD8310924
Probable space group: I -4 M 2
;
_chemical_formula_sum "Si O2"
_cell_formula_units_Z 112
_cell_length_a 14.336847
_cell_length_b 14.336847
_cell_length_c 27.534798
_cell_angle_alpha 90.000000
_cell_angle_beta 90.000000
_cell_angle_gamma 90.000000
_cell_volume 5659.645064
_symmetry_space_group_name_H-M "I -4 M 2"
_symmetry_group_IT_number 119
_symmetry_cell_setting 'tetragonal'
loop_
_space_group_symop_operation_xyz
x,y,z
y,-x,-z
-x,-y,z
-y,x,-z
y,x,-z
-y,-x,-z
-x,y,z
x,-y,z
1/2+x,1/2+y,1/2+z
1/2+y,1/2-x,1/2-z
1/2-x,1/2-y,1/2+z
1/2-y,1/2+x,1/2-z
1/2+y,1/2+x,1/2-z
1/2-y,1/2-x,1/2-z
1/2-x,1/2+y,1/2+z
1/2+x,1/2-y,1/2+z
loop_
_atom_site_type_symbol
_atom_site_label
_atom_site_fract_x
_atom_site_fract_y
_atom_site_fract_z
Si Si1 0.608975 0.609293 0.141120
Si Si2 0.755070 0.271066 0.193779
Si Si3 0.399768 0.301088 0.040444
Si Si4 0.895068 0.781295 0.879611
Si Si5 0.251446 0.605736 0.439763
Si Si6 0.849020 0.600903 0.536345
Si Si7 0.609168 0.893826 0.638930
O O1 0.500000 0.620930 0.151446
O O2 0.637549 0.500000 0.141174
O O3 0.663177 0.668819 0.181229
O O4 0.638957 0.657825 0.090630
O O5 0.748512 0.248512 0.250000
O O6 0.764184 0.170890 0.166858
O O7 0.843653 0.336752 0.182746
O O8 0.500000 0.348009 0.029516
O O9 0.416535 0.189648 0.039211
O O10 0.324959 0.324959 0.000000
O O11 0.843571 0.845056 0.919570
O O12 0.910070 0.686461 0.908831
O O13 0.000000 0.818774 0.864721
O O14 0.271575 0.500000 0.427146
O O15 0.233335 0.621712 0.497024
O O16 0.157288 0.637796 0.411278
O O17 0.896930 0.500000 0.522315
O O18 0.500000 0.892912 0.649096
O O19 0.646787 0.000000 0.636253
#
# Coordination Sequence:
#
# PCOD8310924 Si02
#       7
#    16  16  16  16  16  16  16
#     4  10  22  41  63  89 122 157 196 243 296 356
#     4  11  23  39  61  84 111 149 196 250 306 355
#     4  11  22  36  58  89 126 164 201 241 287 350
#     4  10  20  36  57  81 110 149 195 243 296 349
#     4   9  18  32  52  82 119 156 193 233 280 344
#     4  10  20  35  56  84 121 159 196 239 287 344
#     4   9  19  35  55  83 119 153 186 228 282 351
#
# _framework density 19.789225999999999
#
# number of rings (size 3 to 8) (size 9 to 14) (size 15 to 20)
#    0.000    2.000    1.429    2.143    2.000    3.571 
#    0.000    2.143    0.000    3.000    0.000    1.000 
#    0.000    0.000    0.000    0.000    0.000    0.000 
#
# Total GULP energy -693759.990878 kJ/mol
# GULP energy per Si atom -12388.571266 kJ/mol
# Density = 1.974418 g / cm^3
# Si number density = 19.789226 Si / 1000 Ang^3
#
#
#
# Elastic Constant Matrix: (Units=GPa)
#
#
# Indices 1 2 3 4 5 6 
#
# 1 120.1892 38.1297 46.7414 0.0000 0.0000 0.0000
# 2 38.1297 120.1892 46.7414 0.0000 0.0000 0.0000
# 3 46.7414 46.7414 127.4309 0.0000 0.0000 0.0000
# 4 0.0000 0.0000 0.0000 20.8007 0.0000 0.0000
# 5 0.0000 0.0000 0.0000 0.0000 20.8007 0.0000
# 6 0.0000 0.0000 0.0000 0.0000 0.0000 22.9038
#
#
#
# Elastic Compliance Matrix: (Units=1/GPa)
#
#
# Indices 1 2 3 4 5 6 
#
# 1 0.010124 -0.002062 -0.002957 0.000000 0.000000 0.000000
# 2 -0.002062 0.010124 -0.002957 0.000000 0.000000 0.000000
# 3 -0.002957 -0.002957 0.010017 0.000000 0.000000 0.000000
# 4 0.000000 0.000000 0.000000 0.048075 0.000000 0.000000
# 5 0.000000 0.000000 0.000000 0.000000 0.048075 0.000000
# 6 0.000000 0.000000 0.000000 0.000000 0.000000 0.043661
#
#
# Mechanical properties :
#
#
# Convention : Reuss Voigt Hill
#
# Bulk Modulus (GPa) = 69.86802 70.11492 69.99147
# Shear Modulus (GPa) = 26.20525 28.64747 27.42636
#
# Velocity S-wave (km/s) = 3.64293 3.80890 3.72684
# Velocity P-wave (km/s) = 7.28542 7.40617 7.34604
#
# Compressibility (1/GPa) = 0.01431270
#
# Stress axis : x y z
#
# Youngs Moduli (GPa) = 98.77091 98.77091 99.83142
#
# Poissons Ratio (x) = 0.20365 0.29524
# Poissons Ratio (y) = 0.20365 0.29524
# Poissons Ratio (z) = 0.29210 0.29210
#
# Static dielectric constant tensor:
#      x y z
#    x 3.718770 0.000000 0.000000 
#    y 0.000000 3.718770 0.000000 
#    z 0.000000 0.000000 3.380910 
# 
# 
# High freq. dielectric constant tensor:
#      x y z
#    x 1.776760 0.000000 0.000000 
#    y 0.000000 1.776760 0.000000 
#    z 0.000000 0.000000 1.745790 
# 
# From -- ./inp_files/9568.got.cif
#   From: 2010.03.12/outbox.cif.g09.slc.cpg/sg119_5_cif.got.tgz:9568.got - 2010.04.14 02:25:26.
