data_PCOD8310987
_publ_section_title
;
Structure prediction by ZEFSAII (Michael W. Deem and Ramdas Pophale) SiO2 
 PCOD8310987
Probable space group: I -4 M 2
;
_chemical_formula_sum "Si O2"
_cell_formula_units_Z 112
_cell_length_a 15.152365
_cell_length_b 15.152365
_cell_length_c 27.136055
_cell_angle_alpha 90.000000
_cell_angle_beta 90.000000
_cell_angle_gamma 90.000000
_cell_volume 6230.279892
_symmetry_space_group_name_H-M "I -4 M 2"
_symmetry_group_IT_number 119
_symmetry_cell_setting 'tetragonal'
loop_
_space_group_symop_operation_xyz
x,y,z
y,-x,-z
-x,-y,z
-y,x,-z
y,x,-z
-y,-x,-z
-x,y,z
x,-y,z
1/2+x,1/2+y,1/2+z
1/2+y,1/2-x,1/2-z
1/2-x,1/2-y,1/2+z
1/2-y,1/2+x,1/2-z
1/2+y,1/2+x,1/2-z
1/2-y,1/2-x,1/2-z
1/2-x,1/2+y,1/2+z
1/2+x,1/2-y,1/2+z
loop_
_atom_site_type_symbol
_atom_site_label
_atom_site_fract_x
_atom_site_fract_y
_atom_site_fract_z
Si Si1 0.329744 0.599532 0.687194
Si Si2 0.901595 0.603408 0.489829
Si Si3 0.398256 0.095772 0.097871
Si Si4 0.758435 0.712785 0.448377
Si Si5 0.601621 0.399954 0.206866
Si Si6 0.900581 0.099235 0.080917
Si Si7 0.693570 0.238821 0.152360
O O1 0.286917 0.500000 0.689326
O O2 0.390333 0.614008 0.734749
O O3 0.391548 0.607518 0.639719
O O4 0.259647 0.680029 0.685469
O O5 0.905710 0.500000 0.481733
O O6 0.860012 0.625243 0.544377
O O7 0.838613 0.643180 0.448063
O O8 0.000000 0.643959 0.484289
O O9 0.500000 0.080906 0.088930
O O10 0.383477 0.168986 0.139446
O O11 0.356547 0.000000 0.113298
O O12 0.766549 0.766549 0.500000
O O13 0.663349 0.665893 0.446950
O O14 0.773275 0.769194 0.399418
O O15 0.500000 0.385978 0.191280
O O16 0.631723 0.500000 0.192424
O O17 0.659820 0.324882 0.180597
O O18 0.000000 0.124396 0.066486
O O19 0.878086 0.000000 0.063500
#
# Coordination Sequence:
#
# PCOD8310987 Si02
#       7
#    16  16  16  16  16  16  16
#     4   9  18  33  54  79 106 134 165 209 266 324
#     4   9  18  33  51  68  91 131 179 217 255 305
#     4   9  17  30  49  72  99 132 169 211 258 310
#     4  11  21  32  46  72 103 137 169 213 260 307
#     4  10  21  37  56  75  99 135 177 220 265 317
#     4   9  18  31  48  73 106 142 173 202 244 307
#     4  11  20  32  52  77 107 132 174 214 263 316
#
# _framework density 17.976721000000001
#
# number of rings (size 3 to 8) (size 9 to 14) (size 15 to 20)
#    0.000    2.286    1.429    3.000    0.000    4.000 
#    0.000    0.714    0.000    0.000    0.000    7.000 
#    0.000    5.714    0.000    0.000    0.000    0.000 
#
# Total GULP energy -693924.750591 kJ/mol
# GULP energy per Si atom -12391.513403 kJ/mol
# Density = 1.793580 g / cm^3
# Si number density = 17.976721 Si / 1000 Ang^3
#
#
#
# Elastic Constant Matrix: (Units=GPa)
#
#
# Indices 1 2 3 4 5 6 
#
# 1 82.2193 33.3646 29.5806 0.0000 0.0000 0.0000
# 2 33.3646 82.2193 29.5806 0.0000 0.0000 0.0000
# 3 29.5806 29.5806 69.8110 0.0000 0.0000 0.0000
# 4 0.0000 0.0000 0.0000 24.6605 0.0000 0.0000
# 5 0.0000 0.0000 0.0000 0.0000 24.6605 0.0000
# 6 0.0000 0.0000 0.0000 0.0000 0.0000 29.3616
#
#
#
# Elastic Compliance Matrix: (Units=1/GPa)
#
#
# Indices 1 2 3 4 5 6 
#
# 1 0.015758 -0.004711 -0.004681 0.000000 0.000000 0.000000
# 2 -0.004711 0.015758 -0.004681 0.000000 0.000000 0.000000
# 3 -0.004681 -0.004681 0.018291 0.000000 0.000000 0.000000
# 4 0.000000 0.000000 0.000000 0.040551 0.000000 0.000000
# 5 0.000000 0.000000 0.000000 0.000000 0.040551 0.000000
# 6 0.000000 0.000000 0.000000 0.000000 0.000000 0.034058
#
#
# Mechanical properties :
#
#
# Convention : Reuss Voigt Hill
#
# Bulk Modulus (GPa) = 46.16336 46.58901 46.37618
# Shear Modulus (GPa) = 24.95832 25.18480 25.07156
#
# Velocity S-wave (km/s) = 3.73012 3.74701 3.73858
# Velocity P-wave (km/s) = 6.65485 6.68526 6.67007
#
# Compressibility (1/GPa) = 0.02166220
#
# Stress axis : x y z
#
# Youngs Moduli (GPa) = 63.45854 63.45854 54.67030
#
# Poissons Ratio (x) = 0.29892 0.25592
# Poissons Ratio (y) = 0.29892 0.25592
# Poissons Ratio (z) = 0.29706 0.29706
#
# Static dielectric constant tensor:
#      x y z
#    x 3.287830 0.000000 0.000000 
#    y 0.000000 3.287830 0.000000 
#    z 0.000000 0.000000 3.261350 
# 
# 
# High freq. dielectric constant tensor:
#      x y z
#    x 1.689160 0.000000 0.000000 
#    y 0.000000 1.689160 0.000000 
#    z 0.000000 0.000000 1.686030 
# 
# From -- ./inp_files/9611.got.cif
#   From: 2010.03.12/outbox.cif.g09.slc.cpg/sg119_5_cif.got.tgz:9611.got - 2010.04.14 02:25:26.
