data_PCOD8310727
_publ_section_title
;
Structure prediction by ZEFSAII (Michael W. Deem and Ramdas Pophale) SiO2 
 PCOD8310727
Probable space group: I -4 M 2
;
_chemical_formula_sum "Si O2"
_cell_formula_units_Z 104
_cell_length_a 18.474743
_cell_length_b 18.474743
_cell_length_c 18.379585
_cell_angle_alpha 90.000000
_cell_angle_beta 90.000000
_cell_angle_gamma 90.000000
_cell_volume 6273.248803
_symmetry_space_group_name_H-M "I -4 M 2"
_symmetry_group_IT_number 119
_symmetry_cell_setting 'tetragonal'
loop_
_space_group_symop_operation_xyz
x,y,z
y,-x,-z
-x,-y,z
-y,x,-z
y,x,-z
-y,-x,-z
-x,y,z
x,-y,z
1/2+x,1/2+y,1/2+z
1/2+y,1/2-x,1/2-z
1/2-x,1/2-y,1/2+z
1/2-y,1/2+x,1/2-z
1/2+y,1/2+x,1/2-z
1/2-y,1/2-x,1/2-z
1/2-x,1/2+y,1/2+z
1/2+x,1/2-y,1/2+z
loop_
_atom_site_type_symbol
_atom_site_label
_atom_site_fract_x
_atom_site_fract_y
_atom_site_fract_z
Si Si1 0.917731 0.200296 0.310891
Si Si2 0.717907 0.920418 0.162103
Si Si3 0.794616 0.338312 0.081741
Si Si4 0.296136 0.415825 0.811809
Si Si5 0.178085 0.414744 0.302256
Si Si6 0.319962 0.788863 0.080447
Si Si7 0.420983 0.920983 0.250000
O O1 0.904556 0.254460 0.378448
O O2 0.870633 0.127924 0.318602
O O3 0.900488 0.244553 0.236866
O O4 0.000000 0.174085 0.312742
O O5 0.770053 0.905812 0.229690
O O6 0.726447 0.860040 0.101108
O O7 0.634924 0.911864 0.185354
O O8 0.733522 0.000000 0.129339
O O9 0.870959 0.321482 0.121576
O O10 0.741751 0.270557 0.083063
O O11 0.805421 0.357470 0.997097
O O12 0.309328 0.500000 0.831261
O O13 0.234354 0.383823 0.864586
O O14 0.165851 0.500000 0.317476
O O15 0.113835 0.386165 0.250000
O O16 0.500000 0.911213 0.213631
#
# Coordination Sequence:
#
# PCOD8310727 Si02
#       7
#    16  16  16  16  16  16   8
#     4   9  18  33  50  68  90 117 150 190 235 275
#     4  10  18  28  45  68  93 123 154 184 217 259
#     4   9  19  31  48  68  90 121 152 185 226 272
#     4  10  19  30  47  69  92 121 156 189 222 265
#     4   9  17  31  51  71  91 117 148 186 230 275
#     4  10  18  31  46  66  95 123 152 186 223 264
#     4   9  16  26  40  60  88 120 150 174 203 250
#
# _framework density 16.578330999999999
#
# number of rings (size 3 to 8) (size 9 to 14) (size 15 to 20)
#    0.000    2.538    1.538    0.923    0.000    4.154 
#    0.000    0.000    0.000    0.000    0.000    8.615 
#    0.000    0.000    0.000   28.615    0.000    0.000 
#
# Total GULP energy -644453.299939 kJ/mol
# GULP energy per Si atom -12393.332691 kJ/mol
# Density = 1.654060 g / cm^3
# Si number density = 16.578331 Si / 1000 Ang^3
#
#
#
# Elastic Constant Matrix: (Units=GPa)
#
#
# Indices 1 2 3 4 5 6 
#
# 1 91.7657 25.4276 32.1978 0.0000 0.0000 0.0000
# 2 25.4276 91.7649 32.1978 0.0000 0.0000 0.0000
# 3 32.1978 32.1978 56.8603 0.0000 0.0000 0.0000
# 4 0.0000 0.0000 0.0000 17.0221 0.0000 0.0000
# 5 0.0000 0.0000 0.0000 0.0000 17.0221 0.0000
# 6 0.0000 0.0000 0.0000 0.0000 0.0000 14.4991
#
#
#
# Elastic Compliance Matrix: (Units=1/GPa)
#
#
# Indices 1 2 3 4 5 6 
#
# 1 0.013731 -0.001344 -0.007014 0.000000 0.000000 0.000000
# 2 -0.001344 0.013731 -0.007014 0.000000 0.000000 0.000000
# 3 -0.007014 -0.007014 0.025531 0.000000 0.000000 0.000000
# 4 0.000000 0.000000 0.000000 0.058747 0.000000 0.000000
# 5 0.000000 0.000000 0.000000 0.000000 0.058747 0.000000
# 6 0.000000 0.000000 0.000000 0.000000 0.000000 0.068970
#
#
# Mechanical properties :
#
#
# Convention : Reuss Voigt Hill
#
# Bulk Modulus (GPa) = 44.94833 46.67081 45.80957
# Shear Modulus (GPa) = 18.01039 19.74650 18.87845
#
# Velocity S-wave (km/s) = 3.29961 3.45498 3.37819
# Velocity P-wave (km/s) = 6.45663 6.64294 6.55045
#
# Compressibility (1/GPa) = 0.02224777
#
# Stress axis : x y z
#
# Youngs Moduli (GPa) = 72.82930 72.82851 39.16817
#
# Poissons Ratio (x) = 0.09785 0.27474
# Poissons Ratio (y) = 0.09785 0.27474
# Poissons Ratio (z) = 0.51085 0.51085
#
# Static dielectric constant tensor:
#      x y z
#    x 3.107880 0.000000 0.000000 
#    y 0.000000 3.107880 0.000000 
#    z 0.000000 0.000000 2.966700 
# 
# 
# High freq. dielectric constant tensor:
#      x y z
#    x 1.637670 0.000000 0.000000 
#    y 0.000000 1.637670 0.000000 
#    z 0.000000 0.000000 1.620200 
# 
# From -- ./inp_files/6738.got.cif
#   From: 2010.03.12/outbox.cif.g09.slc.cpg/sg119_4_cif.got.tgz:6738.got - 2010.04.14 02:25:26.
