data_PCOD8310980
_publ_section_title
;
Structure prediction by ZEFSAII (Michael W. Deem and Ramdas Pophale) SiO2 
 PCOD8310980
Probable space group: I -4 M 2
;
_chemical_formula_sum "Si O2"
_cell_formula_units_Z 80
_cell_length_a 12.246533
_cell_length_b 12.246533
_cell_length_c 27.793559
_cell_angle_alpha 90.000000
_cell_angle_beta 90.000000
_cell_angle_gamma 90.000000
_cell_volume 4168.410455
_symmetry_space_group_name_H-M "I -4 M 2"
_symmetry_group_IT_number 119
_symmetry_cell_setting 'tetragonal'
loop_
_space_group_symop_operation_xyz
x,y,z
y,-x,-z
-x,-y,z
-y,x,-z
y,x,-z
-y,-x,-z
-x,y,z
x,-y,z
1/2+x,1/2+y,1/2+z
1/2+y,1/2-x,1/2-z
1/2-x,1/2-y,1/2+z
1/2-y,1/2+x,1/2-z
1/2+y,1/2+x,1/2-z
1/2-y,1/2-x,1/2-z
1/2-x,1/2+y,1/2+z
1/2+x,1/2-y,1/2+z
loop_
_atom_site_type_symbol
_atom_site_label
_atom_site_fract_x
_atom_site_fract_y
_atom_site_fract_z
Si Si1 0.378003 0.622854 0.811174
Si Si2 0.872649 0.122437 0.419824
Si Si3 0.500000 0.128022 0.681536
Si Si4 0.308519 0.191482 0.750000
Si Si5 0.132231 0.500000 0.529051
Si Si6 0.277454 0.692895 0.551774
Si Si7 0.500000 0.768797 0.578984
O O1 0.500000 0.671933 0.811656
O O2 0.378368 0.500000 0.792375
O O3 0.330683 0.629266 0.864975
O O4 0.308043 0.690034 0.773613
O O5 0.809205 0.215488 0.448532
O O6 0.000000 0.149233 0.423904
O O7 0.850168 0.000000 0.440117
O O8 0.394572 0.178945 0.707003
O O9 0.500000 0.149876 0.624467
O O10 0.500000 0.000000 0.690647
O O11 0.185631 0.600086 0.559589
O O12 0.163415 0.500000 0.471846
O O13 0.000000 0.500000 0.534168
O O14 0.328695 0.671306 0.500000
O O15 0.387997 0.696187 0.584603
#
# Coordination Sequence:
#
# PCOD8310980 Si02
#       7
#    16  16   8   8   8  16   8
#     4   9  18  33  53  74 103 142 179 213 275 344
#     4   9  18  33  54  80 106 138 179 232 291 347
#     4  12  21  34  54  90 122 142 180 232 304 350
#     4  12  19  32  54  81 110 142 180 228 283 336
#     4  10  21  39  61  84 109 155 203 243 288 339
#     4  10  21  36  55  81 111 151 193 230 286 342
#     4  10  23  37  56  81 120 156 185 242 295 364
#
# _framework density 19.191969
#
# number of rings (size 3 to 8) (size 9 to 14) (size 15 to 20)
#    0.000    2.000    2.000    3.300    0.000    6.800 
#    0.000    3.000   11.000    0.300    0.000    0.000 
#    0.000    0.000    0.000    0.000    0.000    0.000 
#
# Total GULP energy -495572.938816 kJ/mol
# GULP energy per Si atom -12389.323470 kJ/mol
# Density = 1.914829 g / cm^3
# Si number density = 19.191969 Si / 1000 Ang^3
#
#
#
# Elastic Constant Matrix: (Units=GPa)
#
#
# Indices 1 2 3 4 5 6 
#
# 1 94.2440 42.0581 18.2757 0.0000 0.0000 0.0000
# 2 42.0581 94.2436 18.2760 0.0000 0.0000 0.0000
# 3 18.2757 18.2760 52.5830 0.0000 0.0000 0.0000
# 4 0.0000 0.0000 0.0000 30.1956 0.0000 0.0000
# 5 0.0000 0.0000 0.0000 0.0000 30.1943 0.0000
# 6 0.0000 0.0000 0.0000 0.0000 0.0000 30.5809
#
#
#
# Elastic Compliance Matrix: (Units=1/GPa)
#
#
# Indices 1 2 3 4 5 6 
#
# 1 0.013627 -0.005536 -0.002812 0.000000 0.000000 0.000000
# 2 -0.005536 0.013627 -0.002812 0.000000 0.000000 0.000000
# 3 -0.002812 -0.002812 0.020972 0.000000 0.000000 0.000000
# 4 0.000000 0.000000 0.000000 0.033117 0.000000 0.000000
# 5 0.000000 0.000000 0.000000 0.000000 0.033119 0.000000
# 6 0.000000 0.000000 0.000000 0.000000 0.000000 0.032700
#
#
# Mechanical properties :
#
#
# Convention : Reuss Voigt Hill
#
# Bulk Modulus (GPa) = 38.60166 44.25445 41.42806
# Shear Modulus (GPa) = 28.07150 29.02490 28.54820
#
# Velocity S-wave (km/s) = 3.82863 3.89311 3.86101
# Velocity P-wave (km/s) = 6.30093 6.58159 6.44279
#
# Compressibility (1/GPa) = 0.02590562
#
# Stress axis : x y z
#
# Youngs Moduli (GPa) = 73.38640 73.38597 47.68206
#
# Poissons Ratio (x) = 0.40625 0.13408
# Poissons Ratio (y) = 0.40625 0.13409
# Poissons Ratio (z) = 0.20636 0.20637
#
# Static dielectric constant tensor:
#      x y z
#    x 3.515420 0.000000 0.000000 
#    y 0.000000 3.515410 0.000000 
#    z 0.000000 0.000000 3.388030 
# 
# 
# High freq. dielectric constant tensor:
#      x y z
#    x 1.740010 0.000000 0.000000 
#    y 0.000000 1.740010 0.000000 
#    z 0.000000 0.000000 1.730090 
# 
# From -- ./inp_files/10215.got.cif
#   From: 2010.03.12/outbox.cif.g09.slc.cpg/sg119_6_cif.got.tgz:10215.got - 2010.04.14 02:25:26.
