data_PCOD8310147
_publ_section_title
;
Structure prediction by ZEFSAII (Michael W. Deem and Ramdas Pophale) SiO2 
 PCOD8310147
Probable space group: P -4 C 2
;
_chemical_formula_sum "Si O2"
_cell_formula_units_Z 42
_cell_length_a 10.742355
_cell_length_b 10.742355
_cell_length_c 18.448895
_cell_angle_alpha 90.000000
_cell_angle_beta 90.000000
_cell_angle_gamma 90.000000
_cell_volume 2128.969108
_symmetry_space_group_name_H-M "P -4 C 2"
_symmetry_group_IT_number 116
_symmetry_cell_setting 'tetragonal'
loop_
_space_group_symop_operation_xyz
x,y,z
y,-x,-z
-x,-y,z
-y,x,-z
y,x,1/2-z
-y,-x,1/2-z
-x,y,1/2+z
x,-y,1/2+z
loop_
_atom_site_type_symbol
_atom_site_label
_atom_site_fract_x
_atom_site_fract_y
_atom_site_fract_z
Si Si1 0.560250 0.750815 0.330865
Si Si2 0.934797 0.868926 0.392191
Si Si3 0.500000 0.500000 0.250000
Si Si4 0.284486 0.913512 0.002929
Si Si5 0.203088 0.203088 0.250000
Si Si6 0.000000 0.500000 0.095447
Si Si7 0.603454 0.669409 0.483101
O O1 0.491330 0.629154 0.296534
O O2 0.654456 0.813075 0.274324
O O3 0.636777 0.695137 0.399143
O O4 0.480372 0.871973 0.357408
O O5 0.828959 0.885524 0.450727
O O6 0.891168 0.821967 0.314617
O O7 0.024072 0.761493 0.423261
O O8 0.000000 0.000000 0.380507
O O9 0.380496 0.995977 0.956765
O O10 0.346461 0.784383 0.030100
O O11 0.666485 0.545455 0.511636
#
# Coordination Sequence:
#
# PCOD8310147 Si02
#       7
#     8   8   2   8   4   4   8
#     4  10  22  40  63  92 139 175 220 273 343 398
#     4  12  23  43  66  94 127 175 220 275 331 396
#     4  10  20  40  64  92 130 194 218 274 336 426
#     4  11  23  39  69  93 128 167 225 272 327 390
#     4  11  23  43  63  90 136 176 213 277 345 393
#     4  10  22  42  66  94 132 178 214 292 326 390
#     4  10  21  39  66  98 128 168 219 275 325 385
#
# _framework density 19.727855999999999
#
# number of rings (size 3 to 8) (size 9 to 14) (size 15 to 20)
#    0.000    1.333    5.714    1.429    5.333    0.000 
#    0.000    8.571    0.000    0.000    0.000    0.000 
#    0.000    0.000    0.000    0.000    0.000    0.000 
#
# Total GULP energy -520474.577596 kJ/mol
# GULP energy per Si atom -12392.251848 kJ/mol
# Density = 1.968295 g / cm^3
# Si number density = 19.727856 Si / 1000 Ang^3
#
#
#
# Elastic Constant Matrix: (Units=GPa)
#
#
# Indices 1 2 3 4 5 6 
#
# 1 131.9722 68.1074 52.6749 0.0000 0.0000 0.0000
# 2 68.1074 131.9722 52.6749 0.0000 0.0000 0.0000
# 3 52.6749 52.6749 105.6645 0.0000 0.0000 0.0000
# 4 0.0000 0.0000 0.0000 43.4567 0.0000 0.0000
# 5 0.0000 0.0000 0.0000 0.0000 43.4567 0.0000
# 6 0.0000 0.0000 0.0000 0.0000 0.0000 32.2162
#
#
#
# Elastic Compliance Matrix: (Units=1/GPa)
#
#
# Indices 1 2 3 4 5 6 
#
# 1 0.011217 -0.004441 -0.003378 0.000000 0.000000 0.000000
# 2 -0.004441 0.011217 -0.003378 0.000000 0.000000 0.000000
# 3 -0.003378 -0.003378 0.012832 0.000000 0.000000 0.000000
# 4 0.000000 0.000000 0.000000 0.023011 0.000000 0.000000
# 5 0.000000 0.000000 0.000000 0.000000 0.023011 0.000000
# 6 0.000000 0.000000 0.000000 0.000000 0.000000 0.031040
#
#
# Mechanical properties :
#
#
# Convention : Reuss Voigt Hill
#
# Bulk Modulus (GPa) = 77.68472 79.61370 78.64921
# Shear Modulus (GPa) = 35.96718 36.90269 36.43493
#
# Velocity S-wave (km/s) = 4.27449 4.32972 4.30219
# Velocity P-wave (km/s) = 7.98908 8.08943 8.03941
#
# Compressibility (1/GPa) = 0.01287254
#
# Stress axis : x y z
#
# Youngs Moduli (GPa) = 89.14676 89.14676 77.92915
#
# Poissons Ratio (x) = 0.39587 0.26327
# Poissons Ratio (y) = 0.39587 0.26327
# Poissons Ratio (z) = 0.30117 0.30117
#
# Static dielectric constant tensor:
#      x y z
#    x 3.430650 0.000000 0.000000 
#    y 0.000000 3.430650 0.000000 
#    z 0.000000 0.000000 3.432190 
# 
# 
# High freq. dielectric constant tensor:
#      x y z
#    x 1.775140 0.000000 0.000000 
#    y 0.000000 1.775140 0.000000 
#    z 0.000000 0.000000 1.763400 
# 
# From -- ./inp_files/3346.got.cif
#   From: 2010.03.12/outbox.cif.g09.slc.cpg/sg116_2_cif.got.tgz:3346.got - 2010.04.14 02:15:44.
