data_PCOD8310801
_publ_section_title
;
Structure prediction by ZEFSAII (Michael W. Deem and Ramdas Pophale) SiO2 
 PCOD8310801
Probable space group: I -4 M 2
;
_chemical_formula_sum "Si O2"
_cell_formula_units_Z 40
_cell_length_a 14.295125
_cell_length_b 14.295125
_cell_length_c 10.367386
_cell_angle_alpha 90.000000
_cell_angle_beta 90.000000
_cell_angle_gamma 90.000000
_cell_volume 2118.581537
_symmetry_space_group_name_H-M "I -4 M 2"
_symmetry_group_IT_number 119
_symmetry_cell_setting 'tetragonal'
loop_
_space_group_symop_operation_xyz
x,y,z
y,-x,-z
-x,-y,z
-y,x,-z
y,x,-z
-y,-x,-z
-x,y,z
x,-y,z
1/2+x,1/2+y,1/2+z
1/2+y,1/2-x,1/2-z
1/2-x,1/2-y,1/2+z
1/2-y,1/2+x,1/2-z
1/2+y,1/2+x,1/2-z
1/2-y,1/2-x,1/2-z
1/2-x,1/2+y,1/2+z
1/2+x,1/2-y,1/2+z
loop_
_atom_site_type_symbol
_atom_site_label
_atom_site_fract_x
_atom_site_fract_y
_atom_site_fract_z
Si Si1 0.104955 0.395046 0.250000
Si Si2 0.603374 0.611069 0.139430
Si Si3 0.108296 0.213508 0.111091
O O1 0.119634 0.500000 0.194715
O O2 0.120984 0.325099 0.129097
O O3 0.500000 0.653042 0.165321
O O4 0.597168 0.500000 0.134195
O O5 0.670358 0.643958 0.253893
O O6 0.644189 0.644189 0.000000
O O7 0.000000 0.186820 0.080972
O O8 0.174848 0.174848 0.000000
#
# Coordination Sequence:
#
# PCOD8310801 Si02
#       3
#     8  16  16
#     4   9  20  38  54  70 102 151 194 216 242 305
#     4   8  14  25  42  69 108 145 167 193 253 332
#     4  10  19  31  52  81 107 133 172 226 277 314
#
# _framework density 18.880558000000001
#
# number of rings (size 3 to 8) (size 9 to 14) (size 15 to 20)
#    0.000    3.000    0.000    2.400    0.000    3.600 
#    0.000    0.000    0.000    2.400    0.000    2.800 
#    0.000   16.000    0.000    0.000    0.000    0.000 
#
# Total GULP energy -247839.706915 kJ/mol
# GULP energy per Si atom -12391.985346 kJ/mol
# Density = 1.883758 g / cm^3
# Si number density = 18.880558 Si / 1000 Ang^3
#
#
#
# Elastic Constant Matrix: (Units=GPa)
#
#
# Indices 1 2 3 4 5 6 
#
# 1 94.6924 45.1626 59.5323 0.0000 0.0000 0.0000
# 2 45.1626 94.6943 59.5324 0.0000 0.0000 0.0000
# 3 59.5323 59.5324 146.6806 0.0000 0.0000 0.0000
# 4 0.0000 0.0000 0.0000 22.5027 0.0000 0.0000
# 5 0.0000 0.0000 0.0000 0.0000 22.5033 0.0000
# 6 0.0000 0.0000 0.0000 0.0000 0.0000 17.7389
#
#
#
# Elastic Compliance Matrix: (Units=1/GPa)
#
#
# Indices 1 2 3 4 5 6 
#
# 1 0.015558 -0.004632 -0.004434 0.000000 0.000000 0.000000
# 2 -0.004632 0.015557 -0.004434 0.000000 0.000000 0.000000
# 3 -0.004434 -0.004434 0.010417 0.000000 0.000000 0.000000
# 4 0.000000 0.000000 0.000000 0.044439 0.000000 0.000000
# 5 0.000000 0.000000 0.000000 0.000000 0.044438 0.000000
# 6 0.000000 0.000000 0.000000 0.000000 0.000000 0.056373
#
#
# Mechanical properties :
#
#
# Convention : Reuss Voigt Hill
#
# Bulk Modulus (GPa) = 68.82005 73.83576 71.32790
# Shear Modulus (GPa) = 22.87008 24.00497 23.43752
#
# Velocity S-wave (km/s) = 3.48415 3.56956 3.52711
# Velocity P-wave (km/s) = 7.26052 7.49537 7.37888
#
# Compressibility (1/GPa) = 0.01453065
#
# Stress axis : x y z
#
# Youngs Moduli (GPa) = 64.27766 64.27928 95.99847
#
# Poissons Ratio (x) = 0.29775 0.42568
# Poissons Ratio (y) = 0.29774 0.42566
# Poissons Ratio (z) = 0.28502 0.28502
#
# Static dielectric constant tensor:
#      x y z
#    x 3.420190 0.000000 0.000000 
#    y 0.000000 3.420150 0.000000 
#    z 0.000000 0.000000 3.627870 
# 
# 
# High freq. dielectric constant tensor:
#      x y z
#    x 1.719120 0.000000 0.000000 
#    y 0.000000 1.719120 0.000000 
#    z 0.000000 0.000000 1.714950 
# 
# From -- ./inp_files/1559.got.cif
#   From: 2010.03.12/outbox.cif.g09.slc.cpg/sg119_1_cif.got.tgz:1559.got - 2010.04.14 02:25:26.
