data_PCOD8310872
_publ_section_title
;
Structure prediction by ZEFSAII (Michael W. Deem and Ramdas Pophale) SiO2 
 PCOD8310872
Probable space group: I -4 M 2
;
_chemical_formula_sum "Si O2"
_cell_formula_units_Z 96
_cell_length_a 14.360298
_cell_length_b 14.360298
_cell_length_c 24.748038
_cell_angle_alpha 90.000000
_cell_angle_beta 90.000000
_cell_angle_gamma 90.000000
_cell_volume 5103.494827
_symmetry_space_group_name_H-M "I -4 M 2"
_symmetry_group_IT_number 119
_symmetry_cell_setting 'tetragonal'
loop_
_space_group_symop_operation_xyz
x,y,z
y,-x,-z
-x,-y,z
-y,x,-z
y,x,-z
-y,-x,-z
-x,y,z
x,-y,z
1/2+x,1/2+y,1/2+z
1/2+y,1/2-x,1/2-z
1/2-x,1/2-y,1/2+z
1/2-y,1/2+x,1/2-z
1/2+y,1/2+x,1/2-z
1/2-y,1/2-x,1/2-z
1/2-x,1/2+y,1/2+z
1/2+x,1/2-y,1/2+z
loop_
_atom_site_type_symbol
_atom_site_label
_atom_site_fract_x
_atom_site_fract_y
_atom_site_fract_z
Si Si1 0.795018 0.896680 0.766858
Si Si2 0.101815 0.394671 0.174026
Si Si3 0.104671 0.794794 0.359313
Si Si4 0.392648 0.290582 0.047761
Si Si5 0.394238 0.103264 0.097412
Si Si6 0.392186 0.782144 0.295405
O O1 0.685612 0.889801 0.780809
O O2 0.808530 0.872562 0.703772
O O3 0.855683 0.823584 0.800702
O O4 0.833383 0.000000 0.779735
O O5 0.115325 0.500000 0.200139
O O6 0.183550 0.381330 0.129243
O O7 0.000000 0.389081 0.145736
O O8 0.171487 0.858675 0.394553
O O9 0.000000 0.825586 0.373579
O O10 0.500000 0.318494 0.038185
O O11 0.379539 0.178783 0.049772
O O12 0.330684 0.330684 0.000000
O O13 0.500000 0.109235 0.119122
O O14 0.327558 0.126697 0.146954
O O15 0.373088 0.000000 0.074020
O O16 0.500000 0.783900 0.279540
O O17 0.336116 0.836116 0.250000
#
# Coordination Sequence:
#
# PCOD8310872 Si02
#       6
#    16  16  16  16  16  16
#     4  10  20  32  48  74 110 148 181 212 252 305
#     4   9  17  30  50  76 107 143 179 214 253 300
#     4  10  20  32  47  71 103 137 174 215 256 298
#     4  11  23  39  58  76  97 128 167 211 256 305
#     4   9  19  36  57  80 104 130 162 205 257 304
#     4  11  21  33  52  78 108 140 175 212 251 303
#
# _framework density 18.810639999999999
#
# number of rings (size 3 to 8) (size 9 to 14) (size 15 to 20)
#    0.000    2.000    0.000    4.500    0.000    6.333 
#    0.000    7.500    0.000    5.000    0.000    0.000 
#    0.000    0.000    0.000    0.000    0.000    0.000 
#
# Total GULP energy -594887.764691 kJ/mol
# GULP energy per Si atom -12393.495098 kJ/mol
# Density = 1.876783 g / cm^3
# Si number density = 18.810640 Si / 1000 Ang^3
#
#
#
# Elastic Constant Matrix: (Units=GPa)
#
#
# Indices 1 2 3 4 5 6 
#
# 1 110.4505 62.1442 48.3501 0.0000 0.0000 0.0000
# 2 62.1442 110.4505 48.3501 0.0000 0.0000 0.0000
# 3 48.3501 48.3501 64.9450 0.0000 0.0000 0.0000
# 4 0.0000 0.0000 0.0000 24.0305 0.0000 0.0000
# 5 0.0000 0.0000 0.0000 0.0000 24.0305 0.0000
# 6 0.0000 0.0000 0.0000 0.0000 0.0000 29.4977
#
#
#
# Elastic Compliance Matrix: (Units=1/GPa)
#
#
# Indices 1 2 3 4 5 6 
#
# 1 0.015321 -0.005381 -0.007400 0.000000 0.000000 0.000000
# 2 -0.005381 0.015321 -0.007400 0.000000 0.000000 0.000000
# 3 -0.007400 -0.007400 0.026416 0.000000 0.000000 0.000000
# 4 0.000000 0.000000 0.000000 0.041614 0.000000 0.000000
# 5 0.000000 0.000000 0.000000 0.000000 0.041614 0.000000
# 6 0.000000 0.000000 0.000000 0.000000 0.000000 0.033901
#
#
# Mechanical properties :
#
#
# Convention : Reuss Voigt Hill
#
# Bulk Modulus (GPa) = 59.89588 67.05942 63.47765
# Shear Modulus (GPa) = 22.71566 23.97854 23.34710
#
# Velocity S-wave (km/s) = 3.47882 3.57421 3.52684
# Velocity P-wave (km/s) = 6.93158 7.26364 7.09955
#
# Compressibility (1/GPa) = 0.01669564
#
# Stress axis : x y z
#
# Youngs Moduli (GPa) = 65.27150 65.27150 37.85579
#
# Poissons Ratio (x) = 0.35120 0.28014
# Poissons Ratio (y) = 0.35120 0.28014
# Poissons Ratio (z) = 0.48302 0.48302
#
# Static dielectric constant tensor:
#      x y z
#    x 3.749160 0.000000 0.000000 
#    y 0.000000 3.749160 0.000000 
#    z 0.000000 0.000000 2.956770 
# 
# 
# High freq. dielectric constant tensor:
#      x y z
#    x 1.744950 0.000000 0.000000 
#    y 0.000000 1.744950 0.000000 
#    z 0.000000 0.000000 1.677490 
# 
# From -- ./inp_files/7777.got.cif
#   From: 2010.03.12/outbox.cif.g09.slc.cpg/sg119_4_cif.got.tgz:7777.got - 2010.04.14 02:25:26.
