data_PCOD8310521
_publ_section_title
;
Structure prediction by ZEFSAII (Michael W. Deem and Ramdas Pophale) SiO2 
 PCOD8310521
Probable space group: P -4 N 2
;
_chemical_formula_sum "Si O2"
_cell_formula_units_Z 44
_cell_length_a 8.182234
_cell_length_b 8.182234
_cell_length_c 28.874233
_cell_angle_alpha 90.000000
_cell_angle_beta 90.000000
_cell_angle_gamma 90.000000
_cell_volume 1933.099675
_symmetry_space_group_name_H-M "P -4 N 2"
_symmetry_group_IT_number 118
_symmetry_cell_setting 'tetragonal'
loop_
_space_group_symop_operation_xyz
x,y,z
y,-x,-z
-x,-y,z
-y,x,-z
1/2+y,1/2+x,1/2-z
1/2-y,1/2-x,1/2-z
1/2-x,1/2+y,1/2+z
1/2+x,1/2-y,1/2+z
loop_
_atom_site_type_symbol
_atom_site_label
_atom_site_fract_x
_atom_site_fract_y
_atom_site_fract_z
Si Si1 0.776902 0.351025 0.909050
Si Si2 0.218225 0.357059 0.598894
Si Si3 0.675957 0.703452 0.502356
Si Si4 0.249727 0.593667 0.313660
Si Si5 0.500000 0.500000 0.243519
Si Si6 0.243548 0.399067 0.178046
O O1 0.806583 0.533230 0.890338
O O2 0.738391 0.322848 0.963839
O O3 0.630229 0.282919 0.876584
O O4 0.948429 0.254854 0.904904
O O5 0.255578 0.253297 0.552753
O O6 0.350180 0.311364 0.636862
O O7 0.727737 0.517404 0.492841
O O8 0.385720 0.622168 0.274120
O O9 0.227775 0.398389 0.310301
O O10 0.080034 0.686984 0.307007
O O11 0.401225 0.372382 0.210439
#
# Coordination Sequence:
#
# PCOD8310521 Si02
#       6
#     8   8   8   8   4   8
#     4  10  21  38  61  92 131 171 218 275 331 395
#     4  10  21  38  61  92 130 172 219 274 332 394
#     4   9  18  34  58  87 124 172 221 270 333 402
#     4  11  24  42  66  93 126 169 218 272 333 402
#     4  12  24  42  66  92 126 166 220 278 332 398
#     4  11  24  42  65  94 127 168 218 272 333 402
#
# _framework density 22.761374
#
# number of rings (size 3 to 8) (size 9 to 14) (size 15 to 20)
#    0.000    1.636    0.000    4.364    0.000    5.818 
#    0.000    3.636    0.000    2.182    0.000    0.000 
#    0.000    0.000    0.000    0.000    0.000    0.000 
#
# Total GULP energy -545163.331567 kJ/mol
# GULP energy per Si atom -12390.075717 kJ/mol
# Density = 2.270957 g / cm^3
# Si number density = 22.761374 Si / 1000 Ang^3
#
#
#
# Elastic Constant Matrix: (Units=GPa)
#
#
# Indices 1 2 3 4 5 6 
#
# 1 82.3878 31.1878 63.7609 0.0000 0.0000 0.0000
# 2 31.1878 82.3878 63.7609 0.0000 0.0000 0.0000
# 3 63.7609 63.7609 176.6512 0.0000 0.0000 0.0000
# 4 0.0000 0.0000 0.0000 43.3395 0.0000 0.0000
# 5 0.0000 0.0000 0.0000 0.0000 43.3395 0.0000
# 6 0.0000 0.0000 0.0000 0.0000 0.0000 26.5485
#
#
#
# Elastic Compliance Matrix: (Units=1/GPa)
#
#
# Indices 1 2 3 4 5 6 
#
# 1 0.017168 -0.002363 -0.005344 0.000000 0.000000 0.000000
# 2 -0.002363 0.017168 -0.005344 0.000000 0.000000 0.000000
# 3 -0.005344 -0.005344 0.009518 0.000000 0.000000 0.000000
# 4 0.000000 0.000000 0.000000 0.023074 0.000000 0.000000
# 5 0.000000 0.000000 0.000000 0.000000 0.023074 0.000000
# 6 0.000000 0.000000 0.000000 0.000000 0.000000 0.037667
#
#
# Mechanical properties :
#
#
# Convention : Reuss Voigt Hill
#
# Bulk Modulus (GPa) = 56.32872 73.20509 64.76691
# Shear Modulus (GPa) = 31.31131 34.82665 33.06898
#
# Velocity S-wave (km/s) = 3.71298 3.91586 3.81577
# Velocity P-wave (km/s) = 6.57136 7.25790 6.92315
#
# Compressibility (1/GPa) = 0.01775293
#
# Stress axis : x y z
#
# Youngs Moduli (GPa) = 58.24853 58.24853 105.06108
#
# Poissons Ratio (x) = 0.13767 0.56140
# Poissons Ratio (y) = 0.13767 0.56140
# Poissons Ratio (z) = 0.31125 0.31125
#
# Static dielectric constant tensor:
#      x y z
#    x 4.067700 0.000000 0.000000 
#    y 0.000000 4.067700 0.000000 
#    z 0.000000 0.000000 4.310140 
# 
# 
# High freq. dielectric constant tensor:
#      x y z
#    x 1.884620 0.000000 0.000000 
#    y 0.000000 1.884620 0.000000 
#    z 0.000000 0.000000 1.912930 
# 
# From -- ./inp_files/6770.got.cif
#   From: 2010.03.12/outbox.cif.g09.slc.cpg/sg118_4_cif.got.tgz:6770.got - 2010.04.14 02:21:17.
