data_PCOD8310596
_publ_section_title
;
Structure prediction by ZEFSAII (Michael W. Deem and Ramdas Pophale) SiO2 
 PCOD8310596
Probable space group: P -4 N 2
;
_chemical_formula_sum "Si O2"
_cell_formula_units_Z 64
_cell_length_a 11.611812
_cell_length_b 11.611812
_cell_length_c 24.716485
_cell_angle_alpha 90.000000
_cell_angle_beta 90.000000
_cell_angle_gamma 90.000000
_cell_volume 3332.626936
_symmetry_space_group_name_H-M "P -4 N 2"
_symmetry_group_IT_number 118
_symmetry_cell_setting 'tetragonal'
loop_
_space_group_symop_operation_xyz
x,y,z
y,-x,-z
-x,-y,z
-y,x,-z
1/2+y,1/2+x,1/2-z
1/2-y,1/2-x,1/2-z
1/2-x,1/2+y,1/2+z
1/2+x,1/2-y,1/2+z
loop_
_atom_site_type_symbol
_atom_site_label
_atom_site_fract_x
_atom_site_fract_y
_atom_site_fract_z
Si Si1 0.678127 0.208691 0.589784
Si Si2 0.408938 0.177566 0.589787
Si Si3 0.518197 0.760788 0.964362
Si Si4 0.383690 0.354911 0.501971
Si Si5 0.125715 0.959072 0.434783
Si Si6 0.483162 0.631892 0.187146
Si Si7 0.116658 0.726363 0.301987
Si Si8 0.655708 0.269547 0.799261
O O1 0.544510 0.180501 0.599896
O O2 0.696459 0.315562 0.549383
O O3 0.732678 0.230624 0.648483
O O4 0.750717 0.105742 0.562982
O O5 0.386681 0.070306 0.548237
O O6 0.362713 0.290394 0.558596
O O7 0.342268 0.165391 0.646521
O O8 0.613480 0.679074 0.934995
O O9 0.506756 0.727947 0.027276
O O10 0.344371 0.483730 0.514703
O O11 0.156149 0.003644 0.375961
O O12 0.000000 0.000000 0.455476
O O13 0.500000 0.500000 0.201461
O O14 0.355235 0.673748 0.204869
O O15 0.596468 0.688468 0.214963
O O16 0.150268 0.650268 0.250000
O O17 0.979915 0.744628 0.309864
O O18 0.690463 0.190463 0.750000
#
# Coordination Sequence:
#
# PCOD8310596 Si02
#       8
#     8   8   8   8   8   8   8   8
#     4  11  22  36  57  85 119 155 185 237 294 338
#     4  11  22  36  56  87 119 150 191 235 292 345
#     4  12  19  30  53  86 122 147 184 228 286 347
#     4   9  21  41  59  80 113 156 200 234 276 342
#     4  11  19  29  51  84 115 153 187 225 277 333
#     4   9  20  38  56  86 113 145 194 237 274 335
#     4  11  22  39  62  85 115 150 189 239 288 337
#     4  11  23  39  60  85 117 149 190 237 288 341
#
# _framework density 19.204067999999999
#
# number of rings (size 3 to 8) (size 9 to 14) (size 15 to 20)
#    0.000    1.375    3.750    3.375    1.750    1.250 
#    2.250    0.000    0.000    0.375    0.000    0.000 
#    0.000    0.000    0.000    0.000    0.000    0.000 
#
# Total GULP energy -793041.034136 kJ/mol
# GULP energy per Si atom -12391.266158 kJ/mol
# Density = 1.916036 g / cm^3
# Si number density = 19.204068 Si / 1000 Ang^3
#
#
#
# Elastic Constant Matrix: (Units=GPa)
#
#
# Indices 1 2 3 4 5 6 
#
# 1 50.2580 36.3827 37.0827 0.0000 0.0000 0.0000
# 2 36.3827 50.2580 37.0827 0.0000 0.0000 0.0000
# 3 37.0827 37.0827 86.7506 0.0000 0.0000 0.0000
# 4 0.0000 0.0000 0.0000 25.1953 0.0000 0.0000
# 5 0.0000 0.0000 0.0000 0.0000 25.1953 0.0000
# 6 0.0000 0.0000 0.0000 0.0000 0.0000 23.7843
#
#
#
# Elastic Compliance Matrix: (Units=1/GPa)
#
#
# Indices 1 2 3 4 5 6 
#
# 1 0.045136 -0.026934 -0.007781 0.000000 0.000000 0.000000
# 2 -0.026934 0.045136 -0.007781 0.000000 0.000000 0.000000
# 3 -0.007781 -0.007781 0.018179 0.000000 0.000000 0.000000
# 4 0.000000 0.000000 0.000000 0.039690 0.000000 0.000000
# 5 0.000000 0.000000 0.000000 0.000000 0.039690 0.000000
# 6 0.000000 0.000000 0.000000 0.000000 0.000000 0.042045
#
#
# Mechanical properties :
#
#
# Convention : Reuss Voigt Hill
#
# Bulk Modulus (GPa) = 42.62437 45.37364 43.99901
# Shear Modulus (GPa) = 15.49482 19.94953 17.72218
#
# Velocity S-wave (km/s) = 2.84359 3.22657 3.04111
# Velocity P-wave (km/s) = 5.74674 6.12857 5.94072
#
# Compressibility (1/GPa) = 0.02346076
#
# Stress axis : x y z
#
# Youngs Moduli (GPa) = 22.15507 22.15507 55.00737
#
# Poissons Ratio (x) = 0.59672 0.42801
# Poissons Ratio (y) = 0.59672 0.42801
# Poissons Ratio (z) = 0.17239 0.17239
#
# Static dielectric constant tensor:
#      x y z
#    x 3.636940 0.000000 0.000000 
#    y 0.000000 3.636940 0.000000 
#    z 0.000000 0.000000 3.546610 
# 
# 
# High freq. dielectric constant tensor:
#      x y z
#    x 1.739340 0.000000 0.000000 
#    y 0.000000 1.739340 0.000000 
#    z 0.000000 0.000000 1.740370 
# 
# From -- ./inp_files/6264.got.cif
#   From: 2010.03.12/outbox.cif.g09.slc.cpg/sg118_4_cif.got.tgz:6264.got - 2010.04.14 02:21:17.
