data_PCOD8310963
_publ_section_title
;
Structure prediction by ZEFSAII (Michael W. Deem and Ramdas Pophale) SiO2 
 PCOD8310963
Probable space group: I -4 M 2
;
_chemical_formula_sum "Si O2"
_cell_formula_units_Z 58
_cell_length_a 11.867159
_cell_length_b 11.867159
_cell_length_c 19.617858
_cell_angle_alpha 90.000000
_cell_angle_beta 90.000000
_cell_angle_gamma 90.000000
_cell_volume 2762.772402
_symmetry_space_group_name_H-M "I -4 M 2"
_symmetry_group_IT_number 119
_symmetry_cell_setting 'tetragonal'
loop_
_space_group_symop_operation_xyz
x,y,z
y,-x,-z
-x,-y,z
-y,x,-z
y,x,-z
-y,-x,-z
-x,y,z
x,-y,z
1/2+x,1/2+y,1/2+z
1/2+y,1/2-x,1/2-z
1/2-x,1/2-y,1/2+z
1/2-y,1/2+x,1/2-z
1/2+y,1/2+x,1/2-z
1/2-y,1/2-x,1/2-z
1/2-x,1/2+y,1/2+z
1/2+x,1/2-y,1/2+z
loop_
_atom_site_type_symbol
_atom_site_label
_atom_site_fract_x
_atom_site_fract_y
_atom_site_fract_z
Si Si1 0.500000 0.740712 0.497049
Si Si2 0.372464 0.500000 0.795004
Si Si3 0.000000 0.231584 0.844131
Si Si4 0.750595 0.280379 0.824221
Si Si5 0.500000 0.500000 0.500000
Si Si6 0.784011 0.634822 0.043487
O O1 0.500000 0.685922 0.420802
O O2 0.500000 0.623081 0.540738
O O3 0.606616 0.821448 0.503997
O O4 0.500000 0.500000 0.819034
O O5 0.367662 0.500000 0.712424
O O6 0.311397 0.602395 0.830876
O O7 0.114969 0.302556 0.832280
O O8 0.725260 0.225260 0.750000
O O9 0.694814 0.204152 0.882800
O O10 0.783376 0.500000 0.050372
O O11 0.675081 0.675081 0.000000
#
# Coordination Sequence:
#
# PCOD8310963 Si02
#       6
#     8   8   8  16   2  16
#     4  12  23  44  67 102 133 174 227 292 346 397
#     4  10  22  39  66 101 134 175 221 280 339 418
#     4  10  20  40  66  94 134 170 224 288 338 398
#     4  10  22  43  65  98 133 174 229 279 342 406
#     4  12  20  36  72  96 124 164 228 272 338 400
#     4  12  26  45  68 100 140 182 227 280 345 421
#
# _framework density 20.993403000000001
#
# number of rings (size 3 to 8) (size 9 to 14) (size 15 to 20)
#    0.000    1.103    4.138    1.241    2.897    0.828 
#   14.897    2.759    0.000    0.000    0.000    0.000 
#    0.000    0.000    0.000    0.000    0.000    0.000 
#
# Total GULP energy -359296.467890 kJ/mol
# GULP energy per Si atom -12389.533376 kJ/mol
# Density = 2.094562 g / cm^3
# Si number density = 20.993403 Si / 1000 Ang^3
#
#
#
# Elastic Constant Matrix: (Units=GPa)
#
#
# Indices 1 2 3 4 5 6 
#
# 1 152.0173 45.8544 18.4128 0.0000 0.0000 0.0000
# 2 45.8544 152.0173 18.4128 0.0000 0.0000 0.0000
# 3 18.4128 18.4128 105.4241 0.0000 0.0000 0.0000
# 4 0.0000 0.0000 0.0000 21.0442 0.0000 0.0000
# 5 0.0000 0.0000 0.0000 0.0000 21.0442 0.0000
# 6 0.0000 0.0000 0.0000 0.0000 0.0000 28.6387
#
#
#
# Elastic Compliance Matrix: (Units=1/GPa)
#
#
# Indices 1 2 3 4 5 6 
#
# 1 0.007322 -0.002098 -0.000912 0.000000 0.000000 0.000000
# 2 -0.002098 0.007322 -0.000912 0.000000 0.000000 0.000000
# 3 -0.000912 -0.000912 0.009804 0.000000 0.000000 0.000000
# 4 0.000000 0.000000 0.000000 0.047519 0.000000 0.000000
# 5 0.000000 0.000000 0.000000 0.000000 0.047519 0.000000
# 6 0.000000 0.000000 0.000000 0.000000 0.000000 0.034918
#
#
# Mechanical properties :
#
#
# Convention : Reuss Voigt Hill
#
# Bulk Modulus (GPa) = 60.23354 63.86871 62.05112
# Shear Modulus (GPa) = 29.80054 35.93067 32.86561
#
# Velocity S-wave (km/s) = 3.77174 4.14154 3.96096
# Velocity P-wave (km/s) = 6.90811 7.30473 7.10919
#
# Compressibility (1/GPa) = 0.01660205
#
# Stress axis : x y z
#
# Youngs Moduli (GPa) = 136.58349 136.58349 101.99732
#
# Poissons Ratio (x) = 0.28655 0.09305
# Poissons Ratio (y) = 0.28655 0.09305
# Poissons Ratio (z) = 0.12461 0.12461
#
# Static dielectric constant tensor:
#      x y z
#    x 3.507020 0.000000 0.000000 
#    y 0.000000 3.507020 0.000000 
#    z 0.000000 0.000000 3.972510 
# 
# 
# High freq. dielectric constant tensor:
#      x y z
#    x 1.819020 0.000000 0.000000 
#    y 0.000000 1.819020 0.000000 
#    z 0.000000 0.000000 1.828700 
# 
# From -- ./inp_files/7426.got.cif
#   From: 2010.03.12/outbox.cif.g09.slc.cpg/sg119_4_cif.got.tgz:7426.got - 2010.04.14 02:25:26.
