data_PCOD8310362
_publ_section_title
;
Structure prediction by ZEFSAII (Michael W. Deem and Ramdas Pophale) SiO2 
 PCOD8310362
Probable space group: P -4 B 2
;
_chemical_formula_sum "Si O2"
_cell_formula_units_Z 56
_cell_length_a 13.564648
_cell_length_b 13.564648
_cell_length_c 13.252168
_cell_angle_alpha 90.000000
_cell_angle_beta 90.000000
_cell_angle_gamma 90.000000
_cell_volume 2438.394610
_symmetry_space_group_name_H-M "P -4 B 2"
_symmetry_group_IT_number 117
_symmetry_cell_setting 'tetragonal'
loop_
_space_group_symop_operation_xyz
x,y,z
y,-x,-z
-x,-y,z
-y,x,-z
1/2+y,1/2+x,-z
1/2-y,1/2-x,-z
1/2-x,1/2+y,z
1/2+x,1/2-y,z
loop_
_atom_site_type_symbol
_atom_site_label
_atom_site_fract_x
_atom_site_fract_y
_atom_site_fract_z
Si Si1 0.951372 0.219952 0.585664
Si Si2 0.195093 0.304050 0.234440
Si Si3 0.849981 0.302072 0.891199
Si Si4 0.158965 0.143492 0.607986
Si Si5 0.555032 0.364331 0.268699
Si Si6 0.454989 0.389522 0.931468
Si Si7 0.886255 0.485194 0.264391
O O1 0.888609 0.229948 0.483200
O O2 0.911206 0.140521 0.663946
O O3 0.059843 0.182708 0.555163
O O4 0.954720 0.328333 0.634632
O O5 0.255664 0.255471 0.140965
O O6 0.266765 0.290820 0.331371
O O7 0.091750 0.247309 0.248557
O O8 0.166417 0.417828 0.216213
O O9 0.933191 0.219775 0.899259
O O10 0.893174 0.381366 0.812874
O O11 0.849241 0.349241 0.000000
O O12 0.134953 0.051969 0.681106
O O13 0.543446 0.426078 0.165469
O O14 0.396990 0.430583 0.032138
O O15 0.000000 0.500000 0.292932
#
# Coordination Sequence:
#
# PCOD8310362 Si02
#       7
#     8   8   8   8   8   8   8
#     4  11  22  44  71 111 140 185 247 305 379 462
#     4  10  26  46  71 100 146 196 242 309 372 455
#     4  11  26  45  70 105 140 192 252 301 370 447
#     4  11  24  40  75 103 143 186 241 308 382 449
#     4  11  23  42  66 102 145 184 240 302 370 445
#     4  10  24  38  64 103 139 181 232 300 365 421
#     4  11  26  50  74 103 150 201 252 315 380 462
#
# _framework density 22.965928999999999
#
# number of rings (size 3 to 8) (size 9 to 14) (size 15 to 20)
#    0.000    1.286    4.286    0.429   10.000    2.000 
#    0.000    0.000    3.143    0.000    0.000    0.000 
#    0.000    0.000    0.000    0.000    0.000    0.000 
#
# Total GULP energy -693999.933673 kJ/mol
# GULP energy per Si atom -12392.855958 kJ/mol
# Density = 2.291366 g / cm^3
# Si number density = 22.965929 Si / 1000 Ang^3
#
#
#
# Elastic Constant Matrix: (Units=GPa)
#
#
# Indices 1 2 3 4 5 6 
#
# 1 92.6876 13.0126 40.7026 0.0000 0.0000 0.0000
# 2 13.0126 92.6876 40.7026 0.0000 0.0000 0.0000
# 3 40.7026 40.7026 133.5718 0.0000 0.0000 0.0000
# 4 0.0000 0.0000 0.0000 30.2191 0.0000 0.0000
# 5 0.0000 0.0000 0.0000 0.0000 30.2191 0.0000
# 6 0.0000 0.0000 0.0000 0.0000 0.0000 28.4317
#
#
#
# Elastic Compliance Matrix: (Units=1/GPa)
#
#
# Indices 1 2 3 4 5 6 
#
# 1 0.012456 -0.000095 -0.003767 0.000000 0.000000 0.000000
# 2 -0.000095 0.012456 -0.003767 0.000000 0.000000 0.000000
# 3 -0.003767 -0.003767 0.009782 0.000000 0.000000 0.000000
# 4 0.000000 0.000000 0.000000 0.033092 0.000000 0.000000
# 5 0.000000 0.000000 0.000000 0.000000 0.033092 0.000000
# 6 0.000000 0.000000 0.000000 0.000000 0.000000 0.035172
#
#
# Mechanical properties :
#
#
# Convention : Reuss Voigt Hill
#
# Bulk Modulus (GPa) = 51.44498 56.42029 53.93264
# Shear Modulus (GPa) = 31.68831 32.74260 32.21546
#
# Velocity S-wave (km/s) = 3.71859 3.77994 3.74939
# Velocity P-wave (km/s) = 6.39425 6.60840 6.50221
#
# Compressibility (1/GPa) = 0.01943824
#
# Stress axis : x y z
#
# Youngs Moduli (GPa) = 80.27995 80.27995 102.22467
#
# Poissons Ratio (x) = 0.00759 0.38508
# Poissons Ratio (y) = 0.00759 0.38508
# Poissons Ratio (z) = 0.30241 0.30241
#
# Static dielectric constant tensor:
#      x y z
#    x 4.164010 0.000000 0.000000 
#    y 0.000000 4.164010 0.000000 
#    z 0.000000 0.000000 3.710160 
# 
# 
# High freq. dielectric constant tensor:
#      x y z
#    x 1.906800 0.000000 0.000000 
#    y 0.000000 1.906800 0.000000 
#    z 0.000000 0.000000 1.906560 
# 
# From -- ./inp_files/2873.got.cif
#   From: 2010.03.12/outbox.cif.g09.slc.cpg/sg117_2_cif.got.tgz:2873.got - 2010.04.14 02:19:01.
