data_PCOD8310954
_publ_section_title
;
Structure prediction by ZEFSAII (Michael W. Deem and Ramdas Pophale) SiO2 
 PCOD8310954
Probable space group: I -4 M 2
;
_chemical_formula_sum "Si O2"
_cell_formula_units_Z 80
_cell_length_a 16.617445
_cell_length_b 16.617445
_cell_length_c 14.573905
_cell_angle_alpha 90.000000
_cell_angle_beta 90.000000
_cell_angle_gamma 90.000000
_cell_volume 4024.430524
_symmetry_space_group_name_H-M "I -4 M 2"
_symmetry_group_IT_number 119
_symmetry_cell_setting 'tetragonal'
loop_
_space_group_symop_operation_xyz
x,y,z
y,-x,-z
-x,-y,z
-y,x,-z
y,x,-z
-y,-x,-z
-x,y,z
x,-y,z
1/2+x,1/2+y,1/2+z
1/2+y,1/2-x,1/2-z
1/2-x,1/2-y,1/2+z
1/2-y,1/2+x,1/2-z
1/2+y,1/2+x,1/2-z
1/2-y,1/2-x,1/2-z
1/2-x,1/2+y,1/2+z
1/2+x,1/2-y,1/2+z
loop_
_atom_site_type_symbol
_atom_site_label
_atom_site_fract_x
_atom_site_fract_y
_atom_site_fract_z
Si Si1 0.654163 0.093792 0.984987
Si Si2 0.332881 0.592086 0.413247
Si Si3 0.309084 0.324009 0.767010
Si Si4 0.408238 0.832803 0.163185
Si Si5 0.187885 0.409623 0.174893
O O1 0.741255 0.107085 0.941542
O O2 0.591200 0.140815 0.920736
O O3 0.630971 0.000000 0.992227
O O4 0.650958 0.136025 0.083401
O O5 0.388976 0.611025 0.500000
O O6 0.347685 0.500000 0.384106
O O7 0.354172 0.649122 0.327092
O O8 0.235581 0.264420 0.750000
O O9 0.263828 0.397555 0.818283
O O10 0.373974 0.278690 0.832003
O O11 0.500000 0.847709 0.134025
O O12 0.387790 0.887790 0.250000
O O13 0.194791 0.500000 0.211239
O O14 0.140323 0.359678 0.250000
#
# Coordination Sequence:
#
# PCOD8310954 Si02
#       5
#    16  16  16  16  16
#     4  11  23  38  60  90 123 158 195 248 312 369
#     4  11  22  38  61  90 124 158 200 253 306 364
#     4  10  20  38  60  83 118 162 201 243 295 361
#     4  11  24  40  59  85 118 162 207 252 300 356
#     4  11  21  35  58  89 123 160 198 244 305 367
#
# _framework density 19.878589999999999
#
# number of rings (size 3 to 8) (size 9 to 14) (size 15 to 20)
#    0.000    1.200    4.000    4.800    0.000    6.200 
#    0.000    0.000    0.000    1.800    0.000    0.000 
#    0.000    6.400    0.000    0.000    0.000    0.000 
#
# Total GULP energy -495965.229503 kJ/mol
# GULP energy per Si atom -12399.130738 kJ/mol
# Density = 1.983334 g / cm^3
# Si number density = 19.878590 Si / 1000 Ang^3
#
#
#
# Elastic Constant Matrix: (Units=GPa)
#
#
# Indices 1 2 3 4 5 6 
#
# 1 67.1003 30.4081 20.2880 0.0000 0.0000 0.0000
# 2 30.4081 67.1009 20.2865 0.0000 0.0000 0.0000
# 3 20.2880 20.2865 107.0539 0.0000 0.0000 0.0000
# 4 0.0000 0.0000 0.0000 26.4383 0.0000 0.0000
# 5 0.0000 0.0000 0.0000 0.0000 26.4363 0.0000
# 6 0.0000 0.0000 0.0000 0.0000 0.0000 19.9762
#
#
#
# Elastic Compliance Matrix: (Units=1/GPa)
#
#
# Indices 1 2 3 4 5 6 
#
# 1 0.019194 -0.008060 -0.002110 0.000000 0.000000 0.000000
# 2 -0.008060 0.019193 -0.002110 0.000000 0.000000 0.000000
# 3 -0.002110 -0.002110 0.010141 0.000000 0.000000 0.000000
# 4 0.000000 0.000000 0.000000 0.037824 0.000000 0.000000
# 5 0.000000 0.000000 0.000000 0.000000 0.037827 0.000000
# 6 0.000000 0.000000 0.000000 0.000000 0.000000 0.050060
#
#
# Mechanical properties :
#
#
# Convention : Reuss Voigt Hill
#
# Bulk Modulus (GPa) = 41.72189 42.58002 42.15095
# Shear Modulus (GPa) = 24.17950 25.92167 25.05058
#
# Velocity S-wave (km/s) = 3.49142 3.61501 3.55375
# Velocity P-wave (km/s) = 6.10633 6.23626 6.17164
#
# Compressibility (1/GPa) = 0.02396824
#
# Stress axis : x y z
#
# Youngs Moduli (GPa) = 52.10063 52.10160 98.61216
#
# Poissons Ratio (x) = 0.41994 0.20808
# Poissons Ratio (y) = 0.41993 0.20803
# Poissons Ratio (z) = 0.10994 0.10991
#
# Static dielectric constant tensor:
#      x y z
#    x 3.892500 0.000000 0.000000 
#    y 0.000000 3.892470 0.000000 
#    z 0.000000 0.000000 4.073190 
# 
# 
# High freq. dielectric constant tensor:
#      x y z
#    x 1.768940 0.000000 0.000000 
#    y 0.000000 1.768940 0.000000 
#    z 0.000000 0.000000 1.772530 
# 
# From -- ./inp_files/5251.got.cif
#   From: 2010.03.12/outbox.cif.g09.slc.cpg/sg119_3_cif.got.tgz:5251.got - 2010.04.14 02:25:26.
