data_PCOD8310585
_publ_section_title
;
Structure prediction by ZEFSAII (Michael W. Deem and Ramdas Pophale) SiO2 
 PCOD8310585
Probable space group: P -4 N 2
;
_chemical_formula_sum "Si O2"
_cell_formula_units_Z 36
_cell_length_a 9.430029
_cell_length_b 9.430029
_cell_length_c 18.667755
_cell_angle_alpha 90.000000
_cell_angle_beta 90.000000
_cell_angle_gamma 90.000000
_cell_volume 1660.038457
_symmetry_space_group_name_H-M "P -4 N 2"
_symmetry_group_IT_number 118
_symmetry_cell_setting 'tetragonal'
loop_
_space_group_symop_operation_xyz
x,y,z
y,-x,-z
-x,-y,z
-y,x,-z
1/2+y,1/2+x,1/2-z
1/2-y,1/2-x,1/2-z
1/2-x,1/2+y,1/2+z
1/2+x,1/2-y,1/2+z
loop_
_atom_site_type_symbol
_atom_site_label
_atom_site_fract_x
_atom_site_fract_y
_atom_site_fract_z
Si Si1 0.500000 0.500000 0.332238
Si Si2 0.891524 0.757709 0.408759
Si Si3 0.991518 0.272716 0.264038
Si Si4 0.500000 0.000000 0.496566
Si Si5 0.000000 0.500000 0.750000
Si Si6 0.788377 0.425303 0.625928
Si Si7 0.500000 0.500000 0.000000
O O1 0.636955 0.520408 0.283617
O O2 0.511756 0.359366 0.381284
O O3 0.009391 0.771399 0.347204
O O4 0.740715 0.750602 0.368456
O O5 0.926487 0.618782 0.454851
O O6 0.896229 0.900110 0.455000
O O7 0.109771 0.390230 0.250000
O O8 0.835566 0.335566 0.250000
O O9 0.440922 0.123951 0.446591
O O10 0.135482 0.510503 0.697081
#
# Coordination Sequence:
#
# PCOD8310585 Si02
#       7
#     4   8   8   4   2   8   2
#     4  12  25  44  73 105 139 184 230 306 360 419
#     4  12  24  47  70 106 141 185 241 291 350 436
#     4  11  24  44  71 102 139 181 231 294 353 416
#     4  11  26  45  75 100 149 192 236 296 355 426
#     4  10  24  48  76 102 144 184 242 312 358 422
#     4  11  25  45  71 108 143 184 242 300 360 426
#     4  12  26  44  80  96 130 196 236 282 356 426
#
# _framework density 21.686243999999999
#
# number of rings (size 3 to 8) (size 9 to 14) (size 15 to 20)
#    0.000    0.667    4.444    3.333    1.556    3.556 
#    0.000    0.000    0.000    0.000    0.000    0.000 
#    0.000    0.000    0.000    0.000    0.000    0.000 
#
# Total GULP energy -446354.842904 kJ/mol
# GULP energy per Si atom -12398.745636 kJ/mol
# Density = 2.163688 g / cm^3
# Si number density = 21.686244 Si / 1000 Ang^3
#
#
#
# Elastic Constant Matrix: (Units=GPa)
#
#
# Indices 1 2 3 4 5 6 
#
# 1 120.0437 47.7212 40.2416 0.0000 0.0000 0.0000
# 2 47.7212 120.0435 40.2425 0.0000 0.0000 0.0000
# 3 40.2416 40.2425 99.8804 0.0000 0.0000 0.0000
# 4 0.0000 0.0000 0.0000 36.7023 0.0000 0.0000
# 5 0.0000 0.0000 0.0000 0.0000 36.7028 0.0000
# 6 0.0000 0.0000 0.0000 0.0000 0.0000 35.9553
#
#
#
# Elastic Compliance Matrix: (Units=1/GPa)
#
#
# Indices 1 2 3 4 5 6 
#
# 1 0.010608 -0.003219 -0.002977 0.000000 0.000000 0.000000
# 2 -0.003219 0.010608 -0.002977 0.000000 0.000000 0.000000
# 3 -0.002977 -0.002977 0.012411 0.000000 0.000000 0.000000
# 4 0.000000 0.000000 0.000000 0.027246 0.000000 0.000000
# 5 0.000000 0.000000 0.000000 0.000000 0.027246 0.000000
# 6 0.000000 0.000000 0.000000 0.000000 0.000000 0.027812
#
#
# Mechanical properties :
#
#
# Convention : Reuss Voigt Hill
#
# Bulk Modulus (GPa) = 65.44220 66.26425 65.85322
# Shear Modulus (GPa) = 35.87550 35.98957 35.93254
#
# Velocity S-wave (km/s) = 4.07172 4.07819 4.07495
# Velocity P-wave (km/s) = 7.23516 7.26620 7.25070
#
# Compressibility (1/GPa) = 0.01528066
#
# Stress axis : x y z
#
# Youngs Moduli (GPa) = 94.26933 94.26849 80.57454
#
# Poissons Ratio (x) = 0.30345 0.23987
# Poissons Ratio (y) = 0.30345 0.23988
# Poissons Ratio (z) = 0.28063 0.28065
#
# Static dielectric constant tensor:
#      x y z
#    x 4.140580 0.000000 0.000000 
#    y 0.000000 4.140590 0.000000 
#    z 0.000000 0.000000 4.024100 
# 
# 
# High freq. dielectric constant tensor:
#      x y z
#    x 1.858590 0.000000 0.000000 
#    y 0.000000 1.858590 0.000000 
#    z 0.000000 0.000000 1.858530 
# 
# From -- ./inp_files/5560.got.cif
#   From: 2010.03.12/outbox.cif.g09.slc.cpg/sg118_3_cif.got.tgz:5560.got - 2010.04.14 02:21:17.
