data_PCOD8310958
_publ_section_title
;
Structure prediction by ZEFSAII (Michael W. Deem and Ramdas Pophale) SiO2 
 PCOD8310958
Probable space group: I -4 M 2
;
_chemical_formula_sum "Si O2"
_cell_formula_units_Z 96
_cell_length_a 14.037919
_cell_length_b 14.037919
_cell_length_c 21.863589
_cell_angle_alpha 90.000000
_cell_angle_beta 90.000000
_cell_angle_gamma 90.000000
_cell_volume 4308.508153
_symmetry_space_group_name_H-M "I -4 M 2"
_symmetry_group_IT_number 119
_symmetry_cell_setting 'tetragonal'
loop_
_space_group_symop_operation_xyz
x,y,z
y,-x,-z
-x,-y,z
-y,x,-z
y,x,-z
-y,-x,-z
-x,y,z
x,-y,z
1/2+x,1/2+y,1/2+z
1/2+y,1/2-x,1/2-z
1/2-x,1/2-y,1/2+z
1/2-y,1/2+x,1/2-z
1/2+y,1/2+x,1/2-z
1/2-y,1/2-x,1/2-z
1/2-x,1/2+y,1/2+z
1/2+x,1/2-y,1/2+z
loop_
_atom_site_type_symbol
_atom_site_label
_atom_site_fract_x
_atom_site_fract_y
_atom_site_fract_z
Si Si1 0.663617 0.396759 0.605746
Si Si2 0.303374 0.605933 0.942892
Si Si3 0.756697 0.107460 0.236845
Si Si4 0.160859 0.605898 0.526068
Si Si5 0.287932 0.613460 0.171756
Si Si6 0.896191 0.308629 0.112944
O O1 0.608939 0.500000 0.605266
O O2 0.732496 0.392999 0.664298
O O3 0.728640 0.389942 0.545378
O O4 0.594846 0.306331 0.608522
O O5 0.341623 0.500000 0.954112
O O6 0.188117 0.604906 0.936815
O O7 0.353595 0.644953 0.883001
O O8 0.328134 0.671867 0.000000
O O9 0.654830 0.154830 0.250000
O O10 0.842715 0.169068 0.266362
O O11 0.757940 0.000000 0.263621
O O12 0.119231 0.500000 0.540650
O O13 0.150342 0.627614 0.453965
O O14 0.285328 0.500000 0.177501
O O15 0.181754 0.654342 0.160961
O O16 0.000000 0.344981 0.134865
#
# Coordination Sequence:
#
# PCOD8310958 Si02
#       6
#    16  16  16  16  16  16
#     4  10  20  38  65  95 129 168 215 270 333 404
#     4  12  23  38  61  90 127 171 219 273 330 391
#     4  11  23  43  70 100 134 175 220 272 335 397
#     4  10  20  38  66  96 130 170 214 271 343 411
#     4  12  26  45  66  93 135 181 228 282 334 396
#     4  11  22  39  66  95 130 175 220 274 341 407
#
# _framework density 22.281493000000001
#
# number of rings (size 3 to 8) (size 9 to 14) (size 15 to 20)
#    0.000    1.000    5.000    1.500    0.000    4.000 
#    0.000    3.333    0.000    8.000    0.000    0.000 
#    0.000    0.000    0.000    0.000    0.000    0.000 
#
# Total GULP energy -595057.098926 kJ/mol
# GULP energy per Si atom -12397.022894 kJ/mol
# Density = 2.223078 g / cm^3
# Si number density = 22.281493 Si / 1000 Ang^3
#
#
#
# Elastic Constant Matrix: (Units=GPa)
#
#
# Indices 1 2 3 4 5 6 
#
# 1 141.3361 39.2146 14.2149 0.0000 0.0000 0.0000
# 2 39.2146 141.3351 14.2150 0.0000 0.0000 0.0000
# 3 14.2149 14.2150 47.2712 0.0000 0.0000 0.0000
# 4 0.0000 0.0000 0.0000 21.6059 0.0000 0.0000
# 5 0.0000 0.0000 0.0000 0.0000 21.6061 0.0000
# 6 0.0000 0.0000 0.0000 0.0000 0.0000 7.4093
#
#
#
# Elastic Compliance Matrix: (Units=1/GPa)
#
#
# Indices 1 2 3 4 5 6 
#
# 1 0.007803 -0.001989 -0.001748 0.000000 0.000000 0.000000
# 2 -0.001989 0.007803 -0.001748 0.000000 0.000000 0.000000
# 3 -0.001748 -0.001748 0.022206 0.000000 0.000000 0.000000
# 4 0.000000 0.000000 0.000000 0.046284 0.000000 0.000000
# 5 0.000000 0.000000 0.000000 0.000000 0.046283 0.000000
# 6 0.000000 0.000000 0.000000 0.000000 0.000000 0.134965
#
#
# Mechanical properties :
#
#
# Convention : Reuss Voigt Hill
#
# Bulk Modulus (GPa) = 37.25697 51.69239 44.47468
# Shear Modulus (GPa) = 17.52772 27.61078 22.56925
#
# Velocity S-wave (km/s) = 2.80777 3.52402 3.18608
# Velocity P-wave (km/s) = 5.22195 6.30938 5.79125
#
# Compressibility (1/GPa) = 0.02684061
#
# Stress axis : x y z
#
# Youngs Moduli (GPa) = 128.15451 128.15347 45.03285
#
# Poissons Ratio (x) = 0.25492 0.07873
# Poissons Ratio (y) = 0.25492 0.07873
# Poissons Ratio (z) = 0.22405 0.22405
#
# Static dielectric constant tensor:
#      x y z
#    x 4.054380 0.000000 0.000000 
#    y 0.000000 4.054380 0.000000 
#    z 0.000000 0.000000 3.997720 
# 
# 
# High freq. dielectric constant tensor:
#      x y z
#    x 1.873730 0.000000 0.000000 
#    y 0.000000 1.873730 0.000000 
#    z 0.000000 0.000000 1.872850 
# 
# From -- ./inp_files/7820.got.cif
#   From: 2010.03.12/outbox.cif.g09.slc.cpg/sg119_4_cif.got.tgz:7820.got - 2010.04.14 02:25:26.
