data_PCOD8310050
_publ_section_title
;
Structure prediction by ZEFSAII (Michael W. Deem and Ramdas Pophale) SiO2 
 PCOD8310050
Probable space group: P -4 M 2
;
_chemical_formula_sum "Si O2"
_cell_formula_units_Z 20
_cell_length_a 9.694679
_cell_length_b 9.694679
_cell_length_c 12.754916
_cell_angle_alpha 90.000000
_cell_angle_beta 90.000000
_cell_angle_gamma 90.000000
_cell_volume 1198.793751
_symmetry_space_group_name_H-M "P -4 M 2"
_symmetry_group_IT_number 115
_symmetry_cell_setting 'tetragonal'
loop_
_space_group_symop_operation_xyz
x,y,z
y,-x,-z
-x,-y,z
-y,x,-z
y,x,-z
-y,-x,-z
-x,y,z
x,-y,z
loop_
_atom_site_type_symbol
_atom_site_label
_atom_site_fract_x
_atom_site_fract_y
_atom_site_fract_z
Si Si1 0.652502 0.836283 0.312239
Si Si2 0.338398 0.841001 0.077679
Si Si3 0.839399 0.160602 0.500000
O O1 0.500000 0.777732 0.338412
O O2 0.697920 0.790754 0.195680
O O3 0.760490 0.780891 0.398024
O O4 0.647370 0.000000 0.314546
O O5 0.500000 0.821304 0.055747
O O6 0.295717 0.000000 0.061359
O O7 0.252702 0.747299 0.000000
O O8 0.000000 0.190168 0.481445
#
# Coordination Sequence:
#
# PCOD8310050 Si02
#       3
#     8   8   4
#     4   8  15  29  46  63  88 120 147 176 221 270
#     4   9  18  32  49  69  93 122 156 191 228 273
#     4   9  16  26  44  69  90 110 144 185 218 256
#
# _framework density 16.683437999999999
#
# number of rings (size 3 to 8) (size 9 to 14) (size 15 to 20)
#    0.000    3.400    0.000    2.400    0.000    2.400 
#    0.000    6.000    0.000    7.800    0.000    0.000 
#    0.000    0.000    0.000    0.000    0.000    0.000 
#
# Total GULP energy -247888.318014 kJ/mol
# GULP energy per Si atom -12394.415901 kJ/mol
# Density = 1.664547 g / cm^3
# Si number density = 16.683438 Si / 1000 Ang^3
#
#
#
# Elastic Constant Matrix: (Units=GPa)
#
#
# Indices 1 2 3 4 5 6 
#
# 1 59.3859 41.2447 71.6486 0.0000 0.0000 0.0000
# 2 41.2447 59.3887 71.6494 0.0000 0.0000 0.0000
# 3 71.6486 71.6494 167.8323 0.0000 0.0000 0.0000
# 4 0.0000 0.0000 0.0000 -1.5868 0.0000 0.0000
# 5 0.0000 0.0000 0.0000 0.0000 -1.5935 0.0000
# 6 0.0000 0.0000 0.0000 0.0000 0.0000 20.9914
#
#
#
# Elastic Compliance Matrix: (Units=1/GPa)
#
#
# Indices 1 2 3 4 5 6 
#
# 1 0.040233 -0.014887 -0.010820 0.000000 0.000000 0.000000
# 2 -0.014887 0.040230 -0.010819 0.000000 0.000000 0.000000
# 3 -0.010820 -0.010819 0.015196 0.000000 0.000000 0.000000
# 4 0.000000 0.000000 0.000000 -0.630205 0.000000 0.000000
# 5 0.000000 0.000000 0.000000 0.000000 -0.627566 0.000000
# 6 0.000000 0.000000 0.000000 0.000000 0.000000 0.047639
#
#
# Mechanical properties :
#
#
# Convention : Reuss Voigt Hill
#
# Bulk Modulus (GPa) = 44.23587 72.85471 58.54529
# Shear Modulus (GPa) = -4.83613 10.36651 2.76519
#
# Velocity S-wave (km/s) = -1.70442 2.49542 1.28882
# Velocity P-wave (km/s) = 4.76435 7.21572 6.11415
#
# Compressibility (1/GPa) = 0.02260609
#
# Stress axis : x y z
#
# Youngs Moduli (GPa) = 24.85524 24.85704 65.80547
#
# Poissons Ratio (x) = 0.37006 0.71202
# Poissons Ratio (y) = 0.37003 0.71196
# Poissons Ratio (z) = 0.26894 0.26893
#
# Static dielectric constant tensor:
#      x y z
#    x 3.082410 0.000000 0.000000 
#    y 0.000000 3.082420 0.000000 
#    z 0.000000 0.000000 3.439430 
# 
# 
# High freq. dielectric constant tensor:
#      x y z
#    x 1.621110 0.000000 0.000000 
#    y 0.000000 1.621110 0.000000 
#    z 0.000000 0.000000 1.653590 
# 
# From -- ./inp_files/2269.got.cif
#   From: 2010.03.12/outbox.cif.g09.slc.cpg/sg115_2_cif.got.tgz:2269.got - 2010.04.14 02:11:21.
