data_PCOD8310237
_publ_section_title
;
Structure prediction by ZEFSAII (Michael W. Deem and Ramdas Pophale) SiO2 
 PCOD8310237
Probable space group: P -4 C 2
;
_chemical_formula_sum "Si O2"
_cell_formula_units_Z 48
_cell_length_a 17.203352
_cell_length_b 17.203352
_cell_length_c 8.757938
_cell_angle_alpha 90.000000
_cell_angle_beta 90.000000
_cell_angle_gamma 90.000000
_cell_volume 2591.958344
_symmetry_space_group_name_H-M "P -4 C 2"
_symmetry_group_IT_number 116
_symmetry_cell_setting 'tetragonal'
loop_
_space_group_symop_operation_xyz
x,y,z
y,-x,-z
-x,-y,z
-y,x,-z
y,x,1/2-z
-y,-x,1/2-z
-x,y,1/2+z
x,-y,1/2+z
loop_
_atom_site_type_symbol
_atom_site_label
_atom_site_fract_x
_atom_site_fract_y
_atom_site_fract_z
Si Si1 0.153004 0.725416 0.676825
Si Si2 0.014131 0.790910 0.195228
Si Si3 0.420464 0.084999 0.807876
Si Si4 0.586597 0.917454 0.172881
Si Si5 0.719766 0.162390 0.172014
Si Si6 0.111920 0.034912 0.056263
O O1 0.204360 0.795641 0.750000
O O2 0.151567 0.647141 0.779660
O O3 0.183936 0.709828 0.506289
O O4 0.061161 0.740249 0.666494
O O5 0.076807 0.757481 0.312740
O O6 0.981503 0.871795 0.268224
O O7 0.060547 0.809622 0.036442
O O8 0.505083 0.107261 0.747138
O O9 0.363868 0.154988 0.754438
O O10 0.391125 0.003072 0.736893
O O11 0.419640 0.077790 0.990541
O O12 0.770295 0.229706 0.250000
O O13 0.045279 0.096002 0.033152
#
# Coordination Sequence:
#
# PCOD8310237 Si02
#       6
#     8   8   8   8   8   8
#     4  12  25  39  58  81 110 147 191 238 292 343
#     4  12  24  35  49  68 100 136 184 230 286 327
#     4  11  22  39  61  85 113 146 189 238 291 346
#     4  11  22  39  61  85 113 146 189 238 291 346
#     4  12  25  39  58  81 110 147 191 238 292 343
#     4  11  22  36  48  62  85 128 180 238 283 334
#
# _framework density 18.518816000000001
#
# number of rings (size 3 to 8) (size 9 to 14) (size 15 to 20)
#    0.000    0.500    3.333    8.000    4.667    1.333 
#    0.000    0.000    0.000    0.000    0.000    0.000 
#    0.000    0.667    0.000    6.667    0.000    4.000 
#
# Total GULP energy -594655.376467 kJ/mol
# GULP energy per Si atom -12388.653676 kJ/mol
# Density = 1.847667 g / cm^3
# Si number density = 18.518816 Si / 1000 Ang^3
#
#
#
# Elastic Constant Matrix: (Units=GPa)
#
#
# Indices 1 2 3 4 5 6 
#
# 1 70.4740 21.5310 27.7922 0.0000 0.0000 0.0000
# 2 21.5310 70.4707 27.7910 0.0000 0.0000 0.0000
# 3 27.7922 27.7910 155.2927 0.0000 0.0000 0.0000
# 4 0.0000 0.0000 0.0000 24.3251 0.0000 0.0000
# 5 0.0000 0.0000 0.0000 0.0000 24.3256 0.0000
# 6 0.0000 0.0000 0.0000 0.0000 0.0000 21.7797
#
#
#
# Elastic Compliance Matrix: (Units=1/GPa)
#
#
# Indices 1 2 3 4 5 6 
#
# 1 0.016309 -0.004123 -0.002181 0.000000 0.000000 0.000000
# 2 -0.004123 0.016310 -0.002181 0.000000 0.000000 0.000000
# 3 -0.002181 -0.002181 0.007220 0.000000 0.000000 0.000000
# 4 0.000000 0.000000 0.000000 0.041110 0.000000 0.000000
# 5 0.000000 0.000000 0.000000 0.000000 0.041109 0.000000
# 6 0.000000 0.000000 0.000000 0.000000 0.000000 0.045914
#
#
# Mechanical properties :
#
#
# Convention : Reuss Voigt Hill
#
# Bulk Modulus (GPa) = 43.72591 50.05176 46.88883
# Shear Modulus (GPa) = 25.96518 28.69429 27.32973
#
# Velocity S-wave (km/s) = 3.74852 3.94060 3.84576
# Velocity P-wave (km/s) = 6.51138 6.91307 6.71523
#
# Compressibility (1/GPa) = 0.02286974
#
# Stress axis : x y z
#
# Youngs Moduli (GPa) = 61.31453 61.31183 138.50265
#
# Poissons Ratio (x) = 0.25278 0.30207
# Poissons Ratio (y) = 0.25280 0.30207
# Poissons Ratio (z) = 0.13373 0.13372
#
# Static dielectric constant tensor:
#      x y z
#    x 3.323320 0.000000 0.000000 
#    y 0.000000 3.323320 0.000000 
#    z 0.000000 0.000000 3.648770 
# 
# 
# High freq. dielectric constant tensor:
#      x y z
#    x 1.685090 0.000000 0.000000 
#    y 0.000000 1.685090 0.000000 
#    z 0.000000 0.000000 1.756630 
# 
# From -- ./inp_files/971.got.cif
#   From: 2010.03.12/outbox.cif.g09.slc.cpg/sg116_1_cif.got.tgz:971.got - 2010.04.14 02:15:44.
