data_PCOD8310381
_publ_section_title
;
Structure prediction by ZEFSAII (Michael W. Deem and Ramdas Pophale) SiO2 
 PCOD8310381
Probable space group: P -4 B 2
;
_chemical_formula_sum "Si O2"
_cell_formula_units_Z 48
_cell_length_a 24.539583
_cell_length_b 24.539583
_cell_length_c 4.984300
_cell_angle_alpha 90.000000
_cell_angle_beta 90.000000
_cell_angle_gamma 90.000000
_cell_volume 3001.501268
_symmetry_space_group_name_H-M "P -4 B 2"
_symmetry_group_IT_number 117
_symmetry_cell_setting 'tetragonal'
loop_
_space_group_symop_operation_xyz
x,y,z
y,-x,-z
-x,-y,z
-y,x,-z
1/2+y,1/2+x,-z
1/2-y,1/2-x,-z
1/2-x,1/2+y,z
1/2+x,1/2-y,z
loop_
_atom_site_type_symbol
_atom_site_label
_atom_site_fract_x
_atom_site_fract_y
_atom_site_fract_z
Si Si1 0.464643 0.375600 0.736457
Si Si2 0.252010 0.836437 0.020138
Si Si3 0.384731 0.703025 0.497974
Si Si4 0.884730 0.203025 0.502026
Si Si5 0.624400 0.535356 0.736454
Si Si6 0.836436 0.252010 0.020137
O O1 0.443056 0.318250 0.609822
O O2 0.500000 0.403649 0.500003
O O3 0.415768 0.415769 0.824212
O O4 0.499999 0.362701 0.000003
O O5 0.241781 0.885477 0.236287
O O6 0.213252 0.786749 0.114562
O O7 0.314187 0.814187 0.000000
O O8 0.238665 0.856399 0.726661
O O9 0.351582 0.648419 0.568665
O O10 0.443056 0.681750 0.390179
O O11 0.885476 0.241780 0.236287
O O12 0.856398 0.238664 0.726661
O O13 0.814186 0.314186 0.000000
#
# Coordination Sequence:
#
# PCOD8310381 Si02
#       6
#     8   8   8   8   8   8
#     4  11  22  34  46  58  74 100 136 180 226 261
#     4   9  15  24  40  60  79  97 115 139 182 244
#     4   9  17  28  40  56  77  97 120 154 198 246
#     4   9  17  28  40  56  77  97 120 154 198 246
#     4  11  22  34  46  58  74 100 136 180 226 261
#     4   9  15  24  40  60  79  97 115 139 182 244
#
# _framework density 15.991996
#
# number of rings (size 3 to 8) (size 9 to 14) (size 15 to 20)
#    0.000    2.333    0.000    4.000    0.000   11.333 
#    0.000    0.000    0.000    0.000    0.000    0.000 
#    0.000    0.000    0.000    0.000    0.000    0.000 
#
# Total GULP energy -594729.005942 kJ/mol
# GULP energy per Si atom -12390.187624 kJ/mol
# Density = 1.595560 g / cm^3
# Si number density = 15.991996 Si / 1000 Ang^3
#
#
#
# Elastic Constant Matrix: (Units=GPa)
#
#
# Indices 1 2 3 4 5 6 
#
# 1 33.1454 29.4784 13.5320 0.0000 0.0000 0.0000
# 2 29.4784 33.1454 13.5320 0.0000 0.0000 0.0000
# 3 13.5320 13.5320 86.2528 0.0000 0.0000 0.0000
# 4 0.0000 0.0000 0.0000 23.8611 0.0000 0.0000
# 5 0.0000 0.0000 0.0000 0.0000 23.8611 0.0000
# 6 0.0000 0.0000 0.0000 0.0000 0.0000 13.9089
#
#
#
# Elastic Compliance Matrix: (Units=1/GPa)
#
#
# Indices 1 2 3 4 5 6 
#
# 1 0.144916 -0.127786 -0.002687 0.000000 0.000000 0.000000
# 2 -0.127786 0.144916 -0.002687 0.000000 0.000000 0.000000
# 3 -0.002687 -0.002687 0.012437 0.000000 0.000000 0.000000
# 4 0.000000 0.000000 0.000000 0.041909 0.000000 0.000000
# 5 0.000000 0.000000 0.000000 0.000000 0.041909 0.000000
# 6 0.000000 0.000000 0.000000 0.000000 0.000000 0.071897
#
#
# Mechanical properties :
#
#
# Convention : Reuss Voigt Hill
#
# Bulk Modulus (GPa) = 27.81886 29.51429 28.66658
# Shear Modulus (GPa) = 6.79083 18.72628 12.75855
#
# Velocity S-wave (km/s) = 2.06291 3.42567 2.82761
# Velocity P-wave (km/s) = 4.80702 5.84317 5.35024
#
# Compressibility (1/GPa) = 0.03594683
#
# Stress axis : x y z
#
# Youngs Moduli (GPa) = 6.90057 6.90057 80.40467
#
# Poissons Ratio (x) = 0.88179 0.21608
# Poissons Ratio (y) = 0.88179 0.21608
# Poissons Ratio (z) = 0.01855 0.01855
#
# Static dielectric constant tensor:
#      x y z
#    x 2.882330 0.000000 0.000000 
#    y 0.000000 2.882330 0.000000 
#    z 0.000000 0.000000 3.212140 
# 
# 
# High freq. dielectric constant tensor:
#      x y z
#    x 1.567820 0.000000 0.000000 
#    y 0.000000 1.567820 0.000000 
#    z 0.000000 0.000000 1.643880 
# 
# From -- ./inp_files/808.got.cif
#   From: 2010.03.12/outbox.cif.g09.slc.cpg/sg117_1_cif.got.tgz:808.got - 2010.04.14 02:19:01.
