data_PCOD8310168
_publ_section_title
;
Structure prediction by ZEFSAII (Michael W. Deem and Ramdas Pophale) SiO2 
 PCOD8310168
Probable space group: P -4 C 2
;
_chemical_formula_sum "Si O2"
_cell_formula_units_Z 36
_cell_length_a 9.113085
_cell_length_b 9.113085
_cell_length_c 20.342493
_cell_angle_alpha 90.000000
_cell_angle_beta 90.000000
_cell_angle_gamma 90.000000
_cell_volume 1689.409832
_symmetry_space_group_name_H-M "P -4 C 2"
_symmetry_group_IT_number 116
_symmetry_cell_setting 'tetragonal'
loop_
_space_group_symop_operation_xyz
x,y,z
y,-x,-z
-x,-y,z
-y,x,-z
y,x,1/2-z
-y,-x,1/2-z
-x,y,1/2+z
x,-y,1/2+z
loop_
_atom_site_type_symbol
_atom_site_label
_atom_site_fract_x
_atom_site_fract_y
_atom_site_fract_z
Si Si1 0.667048 0.731197 0.445138
Si Si2 0.831747 0.046770 0.867383
Si Si3 0.232950 0.338767 0.587089
Si Si4 0.663329 0.505563 0.337718
Si Si5 0.757828 0.757828 0.250000
O O1 0.807864 0.821237 0.418537
O O2 0.511345 0.802499 0.423142
O O3 0.686354 0.721995 0.522580
O O4 0.666418 0.572261 0.411297
O O5 0.765905 0.101692 0.797695
O O6 0.738752 0.917067 0.897551
O O7 0.000000 0.000000 0.860512
O O8 0.335725 0.294587 0.649916
O O9 0.500000 0.500000 0.308085
O O10 0.766447 0.601451 0.289025
#
# Coordination Sequence:
#
# PCOD8310168 Si02
#       5
#     8   8   8   8   4
#     4  10  21  39  66 103 139 162 215 275 339 408
#     4  11  26  44  64  92 136 187 221 270 327 392
#     4  11  21  40  68 106 131 171 214 279 344 398
#     4   9  19  38  70 100 129 173 215 283 337 384
#     4  10  22  48  64  92 136 180 234 272 318 400
#
# _framework density 21.309215999999999
#
# number of rings (size 3 to 8) (size 9 to 14) (size 15 to 20)
#    0.000    1.778    2.222    1.333    3.111    0.000 
#    0.000   26.667    0.000    0.000    0.000    0.000 
#    0.000    0.000    0.000    0.000    0.000    0.000 
#
# Total GULP energy -446013.120111 kJ/mol
# GULP energy per Si atom -12389.253336 kJ/mol
# Density = 2.126072 g / cm^3
# Si number density = 21.309216 Si / 1000 Ang^3
#
#
#
# Elastic Constant Matrix: (Units=GPa)
#
#
# Indices 1 2 3 4 5 6 
#
# 1 80.8643 38.7939 35.5209 0.0000 0.0000 0.0000
# 2 38.7939 80.8643 35.5209 0.0000 0.0000 0.0000
# 3 35.5209 35.5209 101.3080 0.0000 0.0000 0.0000
# 4 0.0000 0.0000 0.0000 19.2009 0.0000 0.0000
# 5 0.0000 0.0000 0.0000 0.0000 19.2009 0.0000
# 6 0.0000 0.0000 0.0000 0.0000 0.0000 31.2651
#
#
#
# Elastic Compliance Matrix: (Units=1/GPa)
#
#
# Indices 1 2 3 4 5 6 
#
# 1 0.017162 -0.006608 -0.003701 0.000000 0.000000 0.000000
# 2 -0.006608 0.017162 -0.003701 0.000000 0.000000 0.000000
# 3 -0.003701 -0.003701 0.012466 0.000000 0.000000 0.000000
# 4 0.000000 0.000000 0.000000 0.052081 0.000000 0.000000
# 5 0.000000 0.000000 0.000000 0.000000 0.052081 0.000000
# 6 0.000000 0.000000 0.000000 0.000000 0.000000 0.031985
#
#
# Mechanical properties :
#
#
# Convention : Reuss Voigt Hill
#
# Bulk Modulus (GPa) = 53.27061 53.63421 53.45241
# Shear Modulus (GPa) = 23.01912 24.14680 23.58296
#
# Velocity S-wave (km/s) = 3.29027 3.36990 3.33032
# Velocity P-wave (km/s) = 6.28392 6.35341 6.31876
#
# Compressibility (1/GPa) = 0.01877208
#
# Stress axis : x y z
#
# Youngs Moduli (GPa) = 58.26859 58.26859 80.21906
#
# Poissons Ratio (x) = 0.38502 0.29685
# Poissons Ratio (y) = 0.38502 0.29685
# Poissons Ratio (z) = 0.21562 0.21562
#
# Static dielectric constant tensor:
#      x y z
#    x 3.892750 0.000000 0.000000 
#    y 0.000000 3.892750 0.000000 
#    z 0.000000 0.000000 3.896080 
# 
# 
# High freq. dielectric constant tensor:
#      x y z
#    x 1.825540 0.000000 0.000000 
#    y 0.000000 1.825540 0.000000 
#    z 0.000000 0.000000 1.845440 
# 
# From -- ./inp_files/3870.got.cif
#   From: 2010.03.12/outbox.cif.g09.slc.cpg/sg116_2_cif.got.tgz:3870.got - 2010.04.14 02:15:44.
