data_PCOD8310612
_publ_section_title
;
Structure prediction by ZEFSAII (Michael W. Deem and Ramdas Pophale) SiO2 
 PCOD8310612
Probable space group: P -4 N 2
;
_chemical_formula_sum "Si O2"
_cell_formula_units_Z 40
_cell_length_a 15.768206
_cell_length_b 15.768206
_cell_length_c 8.555755
_cell_angle_alpha 90.000000
_cell_angle_beta 90.000000
_cell_angle_gamma 90.000000
_cell_volume 2127.271442
_symmetry_space_group_name_H-M "P -4 N 2"
_symmetry_group_IT_number 118
_symmetry_cell_setting 'tetragonal'
loop_
_space_group_symop_operation_xyz
x,y,z
y,-x,-z
-x,-y,z
-y,x,-z
1/2+y,1/2+x,1/2-z
1/2-y,1/2-x,1/2-z
1/2-x,1/2+y,1/2+z
1/2+x,1/2-y,1/2+z
loop_
_atom_site_type_symbol
_atom_site_label
_atom_site_fract_x
_atom_site_fract_y
_atom_site_fract_z
Si Si1 0.439429 0.198714 0.935532
Si Si2 0.301286 0.060570 0.935533
Si Si3 0.043406 0.880482 0.932278
Si Si4 0.119518 0.043407 0.432278
Si Si5 0.070871 0.429130 0.079342
O O1 0.356922 0.143078 0.975118
O O2 0.448109 0.212078 0.750000
O O3 0.525186 0.151626 0.003050
O O4 0.428037 0.286630 0.023282
O O5 0.348375 0.974813 0.003051
O O6 0.213371 0.071961 0.023283
O O7 0.056272 0.895859 0.750000
O O8 0.945627 0.895836 0.976827
O O9 0.054373 0.104165 0.523172
O O10 0.101312 0.398689 0.250000
O O11 0.000000 0.500000 0.101971
#
# Coordination Sequence:
#
# PCOD8310612 Si02
#       5
#     8   8   8   8   8
#     4   9  17  33  57  84 113 143 178 221 268 320
#     4   9  17  33  57  84 113 143 178 221 268 320
#     4  11  22  38  58  78 105 143 185 226 275 325
#     4  11  22  38  58  78 105 143 185 226 275 325
#     4   7  12  26  51  79 107 141 173 206 257 314
#
# _framework density 18.803431
#
# number of rings (size 3 to 8) (size 9 to 14) (size 15 to 20)
#    0.000    2.600    0.000    7.200    0.000    0.800 
#    3.600    1.000    0.000    3.600    0.000    0.000 
#    0.000    0.000    0.000    0.000    0.000    0.000 
#
# Total GULP energy -495635.581398 kJ/mol
# GULP energy per Si atom -12390.889535 kJ/mol
# Density = 1.876063 g / cm^3
# Si number density = 18.803431 Si / 1000 Ang^3
#
#
#
# Elastic Constant Matrix: (Units=GPa)
#
#
# Indices 1 2 3 4 5 6 
#
# 1 94.4235 32.8328 16.5673 0.0000 0.0000 0.0000
# 2 32.8328 94.4232 16.5673 0.0000 0.0000 0.0000
# 3 16.5673 16.5673 49.3046 0.0000 0.0000 0.0000
# 4 0.0000 0.0000 0.0000 22.0521 0.0000 0.0000
# 5 0.0000 0.0000 0.0000 0.0000 22.0521 0.0000
# 6 0.0000 0.0000 0.0000 0.0000 0.0000 16.1401
#
#
#
# Elastic Compliance Matrix: (Units=1/GPa)
#
#
# Indices 1 2 3 4 5 6 
#
# 1 0.012424 -0.003812 -0.002894 0.000000 0.000000 0.000000
# 2 -0.003812 0.012424 -0.002894 0.000000 0.000000 0.000000
# 3 -0.002894 -0.002894 0.022227 0.000000 0.000000 0.000000
# 4 0.000000 0.000000 0.000000 0.045347 0.000000 0.000000
# 5 0.000000 0.000000 0.000000 0.000000 0.045347 0.000000
# 6 0.000000 0.000000 0.000000 0.000000 0.000000 0.061957
#
#
# Mechanical properties :
#
#
# Convention : Reuss Voigt Hill
#
# Bulk Modulus (GPa) = 35.87407 41.12067 38.49737
# Shear Modulus (GPa) = 21.90896 23.52782 22.71839
#
# Velocity S-wave (km/s) = 3.41714 3.54114 3.47969
# Velocity P-wave (km/s) = 5.88974 6.21577 6.05495
#
# Compressibility (1/GPa) = 0.02787528
#
# Stress axis : x y z
#
# Youngs Moduli (GPa) = 80.48996 80.48968 44.99089
#
# Poissons Ratio (x) = 0.30685 0.13019
# Poissons Ratio (y) = 0.30685 0.13019
# Poissons Ratio (z) = 0.23291 0.23291
#
# Static dielectric constant tensor:
#      x y z
#    x 3.503070 0.000000 0.000000 
#    y 0.000000 3.503070 0.000000 
#    z 0.000000 0.000000 3.201620 
# 
# 
# High freq. dielectric constant tensor:
#      x y z
#    x 1.726300 0.000000 0.000000 
#    y 0.000000 1.726300 0.000000 
#    z 0.000000 0.000000 1.706100 
# 
# From -- ./inp_files/1900.got.cif
#   From: 2010.03.12/outbox.cif.g09.slc.cpg/sg118_1_cif.got.tgz:1900.got - 2010.04.14 02:21:17.
