data_PCOD8310065
_publ_section_title
;
Structure prediction by ZEFSAII (Michael W. Deem and Ramdas Pophale) SiO2 
 PCOD8310065
Probable space group: P -4 C 2
;
_chemical_formula_sum "Si O2"
_cell_formula_units_Z 46
_cell_length_a 17.607757
_cell_length_b 17.607757
_cell_length_c 8.704386
_cell_angle_alpha 90.000000
_cell_angle_beta 90.000000
_cell_angle_gamma 90.000000
_cell_volume 2698.647832
_symmetry_space_group_name_H-M "P -4 C 2"
_symmetry_group_IT_number 116
_symmetry_cell_setting 'tetragonal'
loop_
_space_group_symop_operation_xyz
x,y,z
y,-x,-z
-x,-y,z
-y,x,-z
y,x,1/2-z
-y,-x,1/2-z
-x,y,1/2+z
x,-y,1/2+z
loop_
_atom_site_type_symbol
_atom_site_label
_atom_site_fract_x
_atom_site_fract_y
_atom_site_fract_z
Si Si1 0.733685 0.608894 0.267534
Si Si2 0.539285 0.095984 0.292027
Si Si3 0.500000 0.500000 0.000000
Si Si4 0.358334 0.103062 0.259807
Si Si5 0.411556 0.411556 0.750000
Si Si6 0.381077 0.010689 0.524832
Si Si7 0.459167 0.739935 0.396782
O O1 0.659640 0.659640 0.250000
O O2 0.808564 0.663418 0.259938
O O3 0.730624 0.561179 0.424720
O O4 0.734166 0.550466 0.124520
O O5 0.449785 0.098341 0.265124
O O6 0.575765 0.070137 0.132751
O O7 0.570937 0.178869 0.337384
O O8 0.559056 0.036320 0.423727
O O9 0.464380 0.566475 0.104626
O O10 0.327343 0.063582 0.416144
O O11 0.329835 0.050485 0.118254
O O12 0.323967 0.420641 0.707722
#
# Coordination Sequence:
#
# PCOD8310065 Si02
#       7
#     8   8   2   8   4   8   8
#     4  11  26  40  52  68  99 127 169 210 266 302
#     4  10  18  29  48  72  99 119 151 189 251 294
#     4  10  24  42  60  70  76 118 168 238 276 302
#     4  10  18  30  50  71  98 123 153 193 242 296
#     4  11  24  40  56  68  90 112 170 222 279 300
#     4  10  17  29  49  76  99 122 148 193 240 298
#     4  11  25  38  53  72  91 126 165 222 263 307
#
# _framework density 17.045574999999999
#
# number of rings (size 3 to 8) (size 9 to 14) (size 15 to 20)
#    0.000    1.565    1.739    5.217   14.609    0.000 
#    0.000    0.000    0.000    0.000    0.000    0.000 
#    0.000    0.000    0.000    0.000    0.000    2.609 
#
# Total GULP energy -570110.290531 kJ/mol
# GULP energy per Si atom -12393.701968 kJ/mol
# Density = 1.700678 g / cm^3
# Si number density = 17.045575 Si / 1000 Ang^3
#
#
#
# Elastic Constant Matrix: (Units=GPa)
#
#
# Indices 1 2 3 4 5 6 
#
# 1 72.8306 27.1976 33.5786 0.0000 0.0000 0.0000
# 2 27.1976 72.8306 33.5786 0.0000 0.0000 0.0000
# 3 33.5786 33.5786 112.9427 0.0000 0.0000 0.0000
# 4 0.0000 0.0000 0.0000 18.5241 0.0000 0.0000
# 5 0.0000 0.0000 0.0000 0.0000 18.5241 0.0000
# 6 0.0000 0.0000 0.0000 0.0000 0.0000 3.9921
#
#
#
# Elastic Compliance Matrix: (Units=1/GPa)
#
#
# Indices 1 2 3 4 5 6 
#
# 1 0.017202 -0.004712 -0.003713 0.000000 0.000000 0.000000
# 2 -0.004712 0.017202 -0.003713 0.000000 0.000000 0.000000
# 3 -0.003713 -0.003713 0.011062 0.000000 0.000000 0.000000
# 4 0.000000 0.000000 0.000000 0.053984 0.000000 0.000000
# 5 0.000000 0.000000 0.000000 0.000000 0.053984 0.000000
# 6 0.000000 0.000000 0.000000 0.000000 0.000000 0.250494
#
#
# Mechanical properties :
#
#
# Convention : Reuss Voigt Hill
#
# Bulk Modulus (GPa) = 47.19443 49.70152 48.44797
# Shear Modulus (GPa) = 11.48717 19.15802 15.32260
#
# Velocity S-wave (km/s) = 2.59879 3.35614 3.00145
# Velocity P-wave (km/s) = 6.06237 6.65128 6.36364
#
# Compressibility (1/GPa) = 0.02118894
#
# Stress axis : x y z
#
# Youngs Moduli (GPa) = 58.13231 58.13231 90.39863
#
# Poissons Ratio (x) = 0.27391 0.33569
# Poissons Ratio (y) = 0.27391 0.33569
# Poissons Ratio (z) = 0.21587 0.21587
#
# Static dielectric constant tensor:
#      x y z
#    x 3.218090 0.000000 0.000000 
#    y 0.000000 3.218090 0.000000 
#    z 0.000000 0.000000 3.721680 
# 
# 
# High freq. dielectric constant tensor:
#      x y z
#    x 1.618360 0.000000 0.000000 
#    y 0.000000 1.618360 0.000000 
#    z 0.000000 0.000000 1.686680 
# 
# From -- ./inp_files/985.got.cif
#   From: 2010.03.12/outbox.cif.g09.slc.cpg/sg116_1_cif.got.tgz:985.got - 2010.04.14 02:15:44.
