data_PCOD8310709
_publ_section_title
;
Structure prediction by ZEFSAII (Michael W. Deem and Ramdas Pophale) SiO2 
 PCOD8310709
Probable space group: I -4 M 2
;
_chemical_formula_sum "Si O2"
_cell_formula_units_Z 84
_cell_length_a 11.961618
_cell_length_b 11.961618
_cell_length_c 30.335448
_cell_angle_alpha 90.000000
_cell_angle_beta 90.000000
_cell_angle_gamma 90.000000
_cell_volume 4340.405158
_symmetry_space_group_name_H-M "I -4 M 2"
_symmetry_group_IT_number 119
_symmetry_cell_setting 'tetragonal'
loop_
_space_group_symop_operation_xyz
x,y,z
y,-x,-z
-x,-y,z
-y,x,-z
y,x,-z
-y,-x,-z
-x,y,z
x,-y,z
1/2+x,1/2+y,1/2+z
1/2+y,1/2-x,1/2-z
1/2-x,1/2-y,1/2+z
1/2-y,1/2+x,1/2-z
1/2+y,1/2+x,1/2-z
1/2-y,1/2-x,1/2-z
1/2-x,1/2+y,1/2+z
1/2+x,1/2-y,1/2+z
loop_
_atom_site_type_symbol
_atom_site_label
_atom_site_fract_x
_atom_site_fract_y
_atom_site_fract_z
Si Si1 0.368785 0.000000 0.993704
Si Si2 0.500000 0.500000 0.592954
Si Si3 0.733717 0.630229 0.785653
Si Si4 0.761184 0.241290 0.875616
Si Si5 0.258744 0.867205 0.538394
Si Si6 0.237600 0.000000 0.082364
Si Si7 0.500000 0.627432 0.743095
Si Si8 0.218935 0.000000 0.850833
O O1 0.329204 0.111677 0.968327
O O2 0.500000 0.000000 0.998960
O O3 0.322979 0.000000 0.042809
O O4 0.610734 0.500000 0.562523
O O5 0.500000 0.399095 0.626320
O O6 0.762667 0.500000 0.787542
O O7 0.815596 0.684405 0.750000
O O8 0.747092 0.680357 0.833903
O O9 0.606820 0.653676 0.772501
O O10 0.684350 0.284509 0.915747
O O11 0.891492 0.252654 0.887476
O O12 0.719487 0.114592 0.864978
O O13 0.182006 0.817995 0.500000
O O14 0.245270 0.000000 0.539030
O O15 0.500000 0.500000 0.726229
O O16 0.500000 0.709136 0.701675
#
# Coordination Sequence:
#
# PCOD8310709 Si02
#       8
#     8   4  16  16  16   8   8   8
#     4  10  21  41  64  92 126 163 203 249 321 373
#     4   8  18  28  56  99 116 152 198 248 307 362
#     4  11  25  41  64  94 126 164 207 256 310 368
#     4  11  23  39  63  93 126 160 208 256 313 366
#     4  11  24  43  65  90 125 166 209 257 309 368
#     4  10  20  37  63  92 125 158 199 256 317 374
#     4  10  20  39  63  88 124 165 205 248 303 365
#     4  10  17  34  62  89 121 164 198 247 308 369
#
# _framework density 19.35303
#
# number of rings (size 3 to 8) (size 9 to 14) (size 15 to 20)
#    0.000    1.524    4.286    0.571    2.667    1.905 
#    0.000    0.952    0.000    1.429    0.000    0.000 
#    0.000    0.000    0.000    0.000    0.000    0.000 
#
# Total GULP energy -520758.188542 kJ/mol
# GULP energy per Si atom -12399.004489 kJ/mol
# Density = 1.930898 g / cm^3
# Si number density = 19.353030 Si / 1000 Ang^3
#
#
#
# Elastic Constant Matrix: (Units=GPa)
#
#
# Indices 1 2 3 4 5 6 
#
# 1 97.7309 45.1426 56.6404 0.0000 0.0000 0.0000
# 2 45.1426 97.7304 56.6394 0.0000 0.0000 0.0000
# 3 56.6404 56.6394 155.2689 0.0000 0.0000 0.0000
# 4 0.0000 0.0000 0.0000 14.5704 0.0000 0.0000
# 5 0.0000 0.0000 0.0000 0.0000 14.5819 0.0000
# 6 0.0000 0.0000 0.0000 0.0000 0.0000 23.7425
#
#
#
# Elastic Compliance Matrix: (Units=1/GPa)
#
#
# Indices 1 2 3 4 5 6 
#
# 1 0.014432 -0.004584 -0.003592 0.000000 0.000000 0.000000
# 2 -0.004584 0.014432 -0.003592 0.000000 0.000000 0.000000
# 3 -0.003592 -0.003592 0.009061 0.000000 0.000000 0.000000
# 4 0.000000 0.000000 0.000000 0.068632 0.000000 0.000000
# 5 0.000000 0.000000 0.000000 0.000000 0.068578 0.000000
# 6 0.000000 0.000000 0.000000 0.000000 0.000000 0.042119
#
#
# Mechanical properties :
#
#
# Convention : Reuss Voigt Hill
#
# Bulk Modulus (GPa) = 69.50635 74.17500 71.84068
# Shear Modulus (GPa) = 20.35947 23.39948 21.87948
#
# Velocity S-wave (km/s) = 3.24698 3.48096 3.36601
# Velocity P-wave (km/s) = 7.07461 7.38693 7.23245
#
# Compressibility (1/GPa) = 0.01438717
#
# Stress axis : x y z
#
# Youngs Moduli (GPa) = 69.29263 69.29282 110.36092
#
# Poissons Ratio (x) = 0.31765 0.39644
# Poissons Ratio (y) = 0.31765 0.39643
# Poissons Ratio (z) = 0.24892 0.24891
#
# Static dielectric constant tensor:
#      x y z
#    x 3.732950 0.000000 0.000000 
#    y 0.000000 3.733060 0.000000 
#    z 0.000000 0.000000 3.443390 
# 
# 
# High freq. dielectric constant tensor:
#      x y z
#    x 1.753310 0.000000 0.000000 
#    y 0.000000 1.753310 0.000000 
#    z 0.000000 0.000000 1.759770 
# 
# From -- ./inp_files/10308.got.cif
#   From: 2010.03.12/outbox.cif.g09.slc.cpg/sg119_6_cif.got.tgz:10308.got - 2010.04.14 02:25:26.
