data_PCOD8310647
_publ_section_title
;
Structure prediction by ZEFSAII (Michael W. Deem and Ramdas Pophale) SiO2 
 PCOD8310647
Probable space group: P -4 N 2
;
_chemical_formula_sum "Si O2"
_cell_formula_units_Z 40
_cell_length_a 15.239595
_cell_length_b 15.239595
_cell_length_c 7.712167
_cell_angle_alpha 90.000000
_cell_angle_beta 90.000000
_cell_angle_gamma 90.000000
_cell_volume 1791.114197
_symmetry_space_group_name_H-M "P -4 N 2"
_symmetry_group_IT_number 118
_symmetry_cell_setting 'tetragonal'
loop_
_space_group_symop_operation_xyz
x,y,z
y,-x,-z
-x,-y,z
-y,x,-z
1/2+y,1/2+x,1/2-z
1/2-y,1/2-x,1/2-z
1/2-x,1/2+y,1/2+z
1/2+x,1/2-y,1/2+z
loop_
_atom_site_type_symbol
_atom_site_label
_atom_site_fract_x
_atom_site_fract_y
_atom_site_fract_z
Si Si1 0.848796 0.283960 0.933446
Si Si2 0.602847 0.897154 0.750000
Si Si3 0.099235 0.400765 0.250000
Si Si4 0.524638 0.623958 0.431437
Si Si5 0.619219 0.559424 0.930252
Si Si6 0.327728 0.791358 0.052630
O O1 0.832500 0.332500 0.750000
O O2 0.934763 0.221405 0.938446
O O3 0.854311 0.358696 0.077173
O O4 0.769666 0.221928 0.984674
O O5 0.501542 0.876681 0.750524
O O6 0.136480 0.366957 0.430745
O O7 0.598872 0.546361 0.415902
O O8 0.458760 0.620613 0.271436
O O9 0.704027 0.615677 0.980135
O O10 0.617929 0.466714 0.030691
O O11 0.325995 0.825995 0.250000
#
# Coordination Sequence:
#
# PCOD8310647 Si02
#       6
#     8   4   4   8   8   8
#     4  12  27  47  76 114 147 200 248 304 373 445
#     4  11  30  52  74 104 150 203 250 304 364 437
#     4  11  30  52  74 104 150 203 250 304 364 437
#     4  11  25  44  73 111 149 189 237 309 385 441
#     4  11  25  44  73 111 149 189 237 309 385 441
#     4  12  27  47  76 114 147 200 248 304 373 445
#
# _framework density 22.332467999999999
#
# number of rings (size 3 to 8) (size 9 to 14) (size 15 to 20)
#    0.000    0.600    2.000    4.800   11.200    0.000 
#    0.000    2.000    0.000    0.000    0.000    0.000 
#    0.000    0.000    0.000    0.000    0.000    0.000 
#
# Total GULP energy -495924.619852 kJ/mol
# GULP energy per Si atom -12398.115496 kJ/mol
# Density = 2.228164 g / cm^3
# Si number density = 22.332468 Si / 1000 Ang^3
#
#
#
# Elastic Constant Matrix: (Units=GPa)
#
#
# Indices 1 2 3 4 5 6 
#
# 1 142.0947 -22.9522 23.3817 0.0000 0.0000 0.0000
# 2 -22.9522 142.0874 23.3778 0.0000 0.0000 0.0000
# 3 23.3817 23.3778 121.2576 0.0000 0.0000 0.0000
# 4 0.0000 0.0000 0.0000 37.5961 0.0000 0.0000
# 5 0.0000 0.0000 0.0000 0.0000 37.5970 0.0000
# 6 0.0000 0.0000 0.0000 0.0000 0.0000 37.2141
#
#
#
# Elastic Compliance Matrix: (Units=1/GPa)
#
#
# Indices 1 2 3 4 5 6 
#
# 1 0.007570 0.001511 -0.001751 0.000000 0.000000 0.000000
# 2 0.001511 0.007570 -0.001751 0.000000 0.000000 0.000000
# 3 -0.001751 -0.001751 0.008922 0.000000 0.000000 0.000000
# 4 0.000000 0.000000 0.000000 0.026599 0.000000 0.000000
# 5 0.000000 0.000000 0.000000 0.000000 0.026598 0.000000
# 6 0.000000 0.000000 0.000000 0.000000 0.000000 0.026872
#
#
# Mechanical properties :
#
#
# Convention : Reuss Voigt Hill
#
# Bulk Modulus (GPa) = 49.80052 50.33937 50.06994
# Shear Modulus (GPa) = 43.55216 47.92359 45.73787
#
# Velocity S-wave (km/s) = 4.42087 4.63743 4.53044
# Velocity P-wave (km/s) = 6.95750 7.15990 7.05942
#
# Compressibility (1/GPa) = 0.02008011
#
# Stress axis : x y z
#
# Youngs Moduli (GPa) = 132.10530 132.09965 112.08152
#
# Poissons Ratio (x) = -0.19958 0.19625
# Poissons Ratio (y) = -0.19959 0.19623
# Poissons Ratio (z) = 0.23131 0.23128
#
# Static dielectric constant tensor:
#      x y z
#    x 4.110630 0.000000 0.000000 
#    y 0.000000 4.110600 0.000000 
#    z 0.000000 0.000000 4.084870 
# 
# 
# High freq. dielectric constant tensor:
#      x y z
#    x 1.886760 0.000000 0.000000 
#    y 0.000000 1.886750 0.000000 
#    z 0.000000 0.000000 1.892160 
# 
# From -- ./inp_files/1935.got.cif
#   From: 2010.03.12/outbox.cif.g09.slc.cpg/sg118_1_cif.got.tgz:1935.got - 2010.04.14 02:21:17.
