data_PCOD8310325
_publ_section_title
;
Structure prediction by ZEFSAII (Michael W. Deem and Ramdas Pophale) SiO2 
 PCOD8310325
Probable space group: P -4 B 2
;
_chemical_formula_sum "Si O2"
_cell_formula_units_Z 38
_cell_length_a 16.467445
_cell_length_b 16.467445
_cell_length_c 7.111429
_cell_angle_alpha 90.000000
_cell_angle_beta 90.000000
_cell_angle_gamma 90.000000
_cell_volume 1928.454167
_symmetry_space_group_name_H-M "P -4 B 2"
_symmetry_group_IT_number 117
_symmetry_cell_setting 'tetragonal'
loop_
_space_group_symop_operation_xyz
x,y,z
y,-x,-z
-x,-y,z
-y,x,-z
1/2+y,1/2+x,-z
1/2-y,1/2-x,-z
1/2-x,1/2+y,z
1/2+x,1/2-y,z
loop_
_atom_site_type_symbol
_atom_site_label
_atom_site_fract_x
_atom_site_fract_y
_atom_site_fract_z
Si Si1 0.851669 0.351669 0.000000
Si Si2 0.034849 0.875993 0.528639
Si Si3 0.000000 0.500000 0.500000
Si Si4 0.694439 0.402803 0.831572
Si Si5 0.619175 0.022527 0.161677
Si Si6 0.295429 0.458459 0.119666
O O1 0.848640 0.274653 0.138789
O O2 0.848949 0.433327 0.117753
O O3 0.081135 0.814709 0.389683
O O4 0.952502 0.907127 0.428111
O O5 0.017458 0.828614 0.718669
O O6 0.988279 0.577196 0.636052
O O7 0.617986 0.353427 0.911533
O O8 0.702966 0.490388 0.928712
O O9 0.703602 0.073276 0.170405
O O10 0.559288 0.059288 0.000000
#
# Coordination Sequence:
#
# PCOD8310325 Si02
#       6
#     4   8   2   8   8   8
#     4  10  21  40  56  86 118 151 192 252 290 348
#     4   9  18  34  56  85 121 156 195 233 279 354
#     4  12  22  40  68  78 108 164 198 248 298 340
#     4  10  21  37  59  84 125 153 197 238 293 348
#     4  11  23  40  61  87 113 151 204 246 294 353
#     4  10  22  36  61  91 117 161 191 238 299 348
#
# _framework density 19.704902000000001
#
# number of rings (size 3 to 8) (size 9 to 14) (size 15 to 20)
#    0.000    1.895    2.105    1.263    4.421    2.105 
#    0.000    0.000    0.000    0.000    0.000    0.000 
#    0.000    0.000    0.000    0.000    0.000    0.000 
#
# Total GULP energy -470998.499273 kJ/mol
# GULP energy per Si atom -12394.697349 kJ/mol
# Density = 1.966005 g / cm^3
# Si number density = 19.704902 Si / 1000 Ang^3
#
#
#
# Elastic Constant Matrix: (Units=GPa)
#
#
# Indices 1 2 3 4 5 6 
#
# 1 89.7822 21.7600 19.8345 0.0000 0.0000 0.0000
# 2 21.7600 89.7822 19.8345 0.0000 0.0000 0.0000
# 3 19.8345 19.8345 62.0630 0.0000 0.0000 0.0000
# 4 0.0000 0.0000 0.0000 26.3469 0.0000 0.0000
# 5 0.0000 0.0000 0.0000 0.0000 26.3469 0.0000
# 6 0.0000 0.0000 0.0000 0.0000 0.0000 24.9573
#
#
#
# Elastic Compliance Matrix: (Units=1/GPa)
#
#
# Indices 1 2 3 4 5 6 
#
# 1 0.012408 -0.002293 -0.003233 0.000000 0.000000 0.000000
# 2 -0.002293 0.012408 -0.003233 0.000000 0.000000 0.000000
# 3 -0.003233 -0.003233 0.018179 0.000000 0.000000 0.000000
# 4 0.000000 0.000000 0.000000 0.037955 0.000000 0.000000
# 5 0.000000 0.000000 0.000000 0.000000 0.037955 0.000000
# 6 0.000000 0.000000 0.000000 0.000000 0.000000 0.040068
#
#
# Mechanical properties :
#
#
# Convention : Reuss Voigt Hill
#
# Bulk Modulus (GPa) = 39.24917 40.49839 39.87378
# Shear Modulus (GPa) = 27.02956 27.54345 27.28650
#
# Velocity S-wave (km/s) = 3.70769 3.74277 3.72527
# Velocity P-wave (km/s) = 6.18797 6.26696 6.22759
#
# Compressibility (1/GPa) = 0.02547825
#
# Stress axis : x y z
#
# Youngs Moduli (GPa) = 80.59337 80.59337 55.00899
#
# Poissons Ratio (x) = 0.18481 0.17782
# Poissons Ratio (y) = 0.18481 0.17782
# Poissons Ratio (z) = 0.26052 0.26052
#
# Static dielectric constant tensor:
#      x y z
#    x 3.759490 0.000000 0.000000 
#    y 0.000000 3.759490 0.000000 
#    z 0.000000 0.000000 3.376600 
# 
# 
# High freq. dielectric constant tensor:
#      x y z
#    x 1.770170 0.000000 0.000000 
#    y 0.000000 1.770170 0.000000 
#    z 0.000000 0.000000 1.758880 
# 
# From -- ./inp_files/596.got.cif
#   From: 2010.03.12/outbox.cif.g09.slc.cpg/sg117_1_cif.got.tgz:596.got - 2010.04.14 02:19:01.
