data_PCOD8310256
_publ_section_title
;
Structure prediction by ZEFSAII (Michael W. Deem and Ramdas Pophale) SiO2 
 PCOD8310256
Probable space group: P -4 C 2
;
_chemical_formula_sum "Si O2"
_cell_formula_units_Z 18
_cell_length_a 6.907444
_cell_length_b 6.907444
_cell_length_c 12.609055
_cell_angle_alpha 90.000000
_cell_angle_beta 90.000000
_cell_angle_gamma 90.000000
_cell_volume 601.613100
_symmetry_space_group_name_H-M "P -4 C 2"
_symmetry_group_IT_number 116
_symmetry_cell_setting 'tetragonal'
loop_
_space_group_symop_operation_xyz
x,y,z
y,-x,-z
-x,-y,z
-y,x,-z
y,x,1/2-z
-y,-x,1/2-z
-x,y,1/2+z
x,-y,1/2+z
loop_
_atom_site_type_symbol
_atom_site_label
_atom_site_fract_x
_atom_site_fract_y
_atom_site_fract_z
Si Si1 0.000000 0.000000 0.000000
Si Si2 0.465791 0.771948 0.670214
Si Si3 0.822795 0.637902 0.568901
O O1 0.120114 0.862323 0.077801
O O2 0.302590 0.697411 0.750000
O O3 0.386443 0.743361 0.550293
O O4 0.500000 0.000000 0.692945
O O5 0.628091 0.659912 0.837327
O O6 0.000000 0.500000 0.598397
#
# Coordination Sequence:
#
# PCOD8310256 Si02
#       3
#     2   8   8
#     4  12  20  52 102 120 172 238 292 364 446 544
#     4  11  26  54  94 133 177 234 309 372 446 538
#     4  11  24  52  98 127 180 234 297 370 455 531
#
# _framework density 29.919563
#
# number of rings (size 3 to 8) (size 9 to 14) (size 15 to 20)
#    0.000    0.889    8.889    0.000    0.000    2.667 
#    0.000    7.778   19.556    2.667    0.000    0.000 
#    0.000    0.000    0.000    0.000    0.000    0.000 
#
# Total GULP energy -223162.011571 kJ/mol
# GULP energy per Si atom -12397.889532 kJ/mol
# Density = 2.985147 g / cm^3
# Si number density = 29.919563 Si / 1000 Ang^3
#
#
#
# Elastic Constant Matrix: (Units=GPa)
#
#
# Indices 1 2 3 4 5 6 
#
# 1 169.8934 75.0104 72.5328 0.0000 0.0000 0.0000
# 2 75.0104 169.8909 72.5327 0.0000 0.0000 0.0000
# 3 72.5328 72.5327 210.9020 0.0000 0.0000 0.0000
# 4 0.0000 0.0000 0.0000-1540.4385 0.0000 0.0000
# 5 0.0000 0.0000 0.0000 0.0000-1540.6366 0.0000
# 6 0.0000 0.0000 0.0000 0.0000 0.0000 47.0312
#
#
#
# Elastic Compliance Matrix: (Units=1/GPa)
#
#
# Indices 1 2 3 4 5 6 
#
# 1 0.007834 -0.002706 -0.001764 0.000000 0.000000 0.000000
# 2 -0.002706 0.007834 -0.001764 0.000000 0.000000 0.000000
# 3 -0.001764 -0.001764 0.005955 0.000000 0.000000 0.000000
# 4 0.000000 0.000000 0.000000 -0.000649 0.000000 0.000000
# 5 0.000000 0.000000 0.000000 0.000000 -0.000649 0.000000
# 6 0.000000 0.000000 0.000000 0.000000 0.000000 0.021262
#
#
# Mechanical properties :
#
#
# Convention : Reuss Voigt Hill
#
# Bulk Modulus (GPa) = 109.21695 110.09311 109.65503
# Shear Modulus (GPa) = 87.55955 -584.76810 -248.60427
#
# Velocity S-wave (km/s) = 5.41558 -13.99539 -9.12531
# Velocity P-wave (km/s) = 8.69985 14.97615 8.61968
#
# Compressibility (1/GPa) = 0.00915609
#
# Stress axis : x y z
#
# Youngs Moduli (GPa) = 127.65528 127.65319 167.93799
#
# Poissons Ratio (x) = 0.34540 0.29617
# Poissons Ratio (y) = 0.34541 0.29617
# Poissons Ratio (z) = 0.22513 0.22513
#
# Static dielectric constant tensor:
#      x y z
#    x 8.668050 0.000000 0.000000 
#    y 0.000000 8.667950 0.000000 
#    z 0.000000 0.000000 5.827120 
# 
# 
# High freq. dielectric constant tensor:
#      x y z
#    x 2.245660 0.000000 0.000000 
#    y 0.000000 2.245660 0.000000 
#    z 0.000000 0.000000 2.249470 
# 
# From -- ./inp_files/1194.got.cif
#   From: 2010.03.12/outbox.cif.g09.slc.cpg/sg116_1_cif.got.tgz:1194.got - 2010.04.14 02:15:44.
