data_PCOD8310645
_publ_section_title
;
Structure prediction by ZEFSAII (Michael W. Deem and Ramdas Pophale) SiO2 
 PCOD8310645
Probable space group: P -4 N 2
;
_chemical_formula_sum "Si O2"
_cell_formula_units_Z 26
_cell_length_a 10.723658
_cell_length_b 10.723658
_cell_length_c 10.014225
_cell_angle_alpha 90.000000
_cell_angle_beta 90.000000
_cell_angle_gamma 90.000000
_cell_volume 1151.604239
_symmetry_space_group_name_H-M "P -4 N 2"
_symmetry_group_IT_number 118
_symmetry_cell_setting 'tetragonal'
loop_
_space_group_symop_operation_xyz
x,y,z
y,-x,-z
-x,-y,z
-y,x,-z
1/2+y,1/2+x,1/2-z
1/2-y,1/2-x,1/2-z
1/2-x,1/2+y,1/2+z
1/2+x,1/2-y,1/2+z
loop_
_atom_site_type_symbol
_atom_site_label
_atom_site_fract_x
_atom_site_fract_y
_atom_site_fract_z
Si Si1 0.000000 0.500000 0.750000
Si Si2 0.234767 0.920847 0.688128
Si Si3 0.701855 0.914851 0.437321
Si Si4 0.178666 0.057914 0.948931
O O1 0.002618 0.377795 0.658807
O O2 0.360608 0.860608 0.750000
O O3 0.135237 0.814006 0.654096
O O4 0.182462 0.019161 0.794412
O O5 0.254822 0.996000 0.554047
O O6 0.620899 0.803917 0.499611
O O7 0.155353 0.934502 0.037575
#
# Coordination Sequence:
#
# PCOD8310645 Si02
#       4
#     2   8   8   8
#     4  12  24  44  74 104 154 202 260 318 392 464
#     4  12  26  51  73 116 151 194 273 315 399 473
#     4  12  27  48  78 111 153 208 256 331 390 474
#     4  11  24  47  76 107 155 204 254 326 387 473
#
# _framework density 22.577203000000001
#
# number of rings (size 3 to 8) (size 9 to 14) (size 15 to 20)
#    0.000    0.308    4.615    2.769    0.000    9.231 
#    0.000    0.000    0.000    0.000    0.000    0.000 
#    0.000    0.000    0.000    0.000    0.000    0.000 
#
# Total GULP energy -322519.904827 kJ/mol
# GULP energy per Si atom -12404.611724 kJ/mol
# Density = 2.252582 g / cm^3
# Si number density = 22.577203 Si / 1000 Ang^3
#
#
#
# Elastic Constant Matrix: (Units=GPa)
#
#
# Indices 1 2 3 4 5 6 
#
# 1 116.2618 10.3604 34.7957 0.0000 0.0000 0.0000
# 2 10.3604 116.2618 34.7957 0.0000 0.0000 0.0000
# 3 34.7957 34.7957 144.4252 0.0000 0.0000 0.0000
# 4 0.0000 0.0000 0.0000 36.2466 0.0000 0.0000
# 5 0.0000 0.0000 0.0000 0.0000 36.2466 0.0000
# 6 0.0000 0.0000 0.0000 0.0000 0.0000 48.5156
#
#
#
# Elastic Compliance Matrix: (Units=1/GPa)
#
#
# Indices 1 2 3 4 5 6 
#
# 1 0.009273 -0.000170 -0.002193 0.000000 0.000000 0.000000
# 2 -0.000170 0.009273 -0.002193 0.000000 0.000000 0.000000
# 3 -0.002193 -0.002193 0.007981 0.000000 0.000000 0.000000
# 4 0.000000 0.000000 0.000000 0.027589 0.000000 0.000000
# 5 0.000000 0.000000 0.000000 0.000000 0.027589 0.000000
# 6 0.000000 0.000000 0.000000 0.000000 0.000000 0.020612
#
#
# Mechanical properties :
#
#
# Convention : Reuss Voigt Hill
#
# Bulk Modulus (GPa) = 57.42503 59.65025 58.53764
# Shear Modulus (GPa) = 42.65016 44.00155 43.32586
#
# Velocity S-wave (km/s) = 4.35107 4.41947 4.38540
# Velocity P-wave (km/s) = 7.12268 7.24708 7.18515
#
# Compressibility (1/GPa) = 0.01741401
#
# Stress axis : x y z
#
# Youngs Moduli (GPa) = 107.84239 107.84239 125.30151
#
# Poissons Ratio (x) = 0.01833 0.27480
# Poissons Ratio (y) = 0.01833 0.27480
# Poissons Ratio (z) = 0.23651 0.23651
#
# Static dielectric constant tensor:
#      x y z
#    x 4.656230 0.000000 0.000000 
#    y 0.000000 4.656230 0.000000 
#    z 0.000000 0.000000 4.308920 
# 
# 
# High freq. dielectric constant tensor:
#      x y z
#    x 1.895880 0.000000 0.000000 
#    y 0.000000 1.895880 0.000000 
#    z 0.000000 0.000000 1.913270 
# 
# From -- ./inp_files/1401.got.cif
#   From: 2010.03.12/outbox.cif.g09.slc.cpg/sg118_1_cif.got.tgz:1401.got - 2010.04.14 02:21:17.
