data_PCOD8310191
_publ_section_title
;
Structure prediction by ZEFSAII (Michael W. Deem and Ramdas Pophale) SiO2 
 PCOD8310191
Probable space group: P -4 C 2
;
_chemical_formula_sum "Si O2"
_cell_formula_units_Z 60
_cell_length_a 15.632031
_cell_length_b 15.632031
_cell_length_c 12.438256
_cell_angle_alpha 90.000000
_cell_angle_beta 90.000000
_cell_angle_gamma 90.000000
_cell_volume 3039.417127
_symmetry_space_group_name_H-M "P -4 C 2"
_symmetry_group_IT_number 116
_symmetry_cell_setting 'tetragonal'
loop_
_space_group_symop_operation_xyz
x,y,z
y,-x,-z
-x,-y,z
-y,x,-z
y,x,1/2-z
-y,-x,1/2-z
-x,y,1/2+z
x,-y,1/2+z
loop_
_atom_site_type_symbol
_atom_site_label
_atom_site_fract_x
_atom_site_fract_y
_atom_site_fract_z
Si Si1 0.395030 0.519606 0.933750
Si Si2 0.453582 0.087282 0.221741
Si Si3 0.774761 0.121208 0.334629
Si Si4 0.262535 0.070705 0.285160
Si Si5 0.793774 0.594014 0.680620
Si Si6 0.787247 0.172305 0.582507
Si Si7 0.604004 0.395997 0.250000
Si Si8 0.775945 0.602683 0.434985
O O1 0.430206 0.452586 0.846968
O O2 0.305685 0.553919 0.888065
O O3 0.459023 0.600141 0.957507
O O4 0.365743 0.070471 0.286212
O O5 0.516008 0.144237 0.292636
O O6 0.434326 0.135823 0.110743
O O7 0.500000 0.000000 0.189757
O O8 0.843731 0.156270 0.250000
O O9 0.683709 0.158972 0.299746
O O10 0.800007 0.140961 0.459274
O O11 0.773834 0.019997 0.320364
O O12 0.231116 0.135132 0.378222
O O13 0.225404 0.093739 0.166555
O O14 0.706160 0.589948 0.745326
O O15 0.770169 0.582700 0.558462
O O16 0.703218 0.231692 0.589716
#
# Coordination Sequence:
#
# PCOD8310191 Si02
#       8
#     8   8   8   8   8   8   4   8
#     4  11  24  40  60  88 121 167 224 273 314 374
#     4  11  22  41  66 100 129 168 219 273 336 392
#     4  11  23  40  70 100 132 171 214 268 337 397
#     4  10  22  45  68  96 135 169 223 273 324 409
#     4  11  22  41  63  95 129 167 218 266 331 393
#     4   9  23  44  67  95 129 177 214 268 333 400
#     4  12  22  43  64  86 132 175 216 276 328 394
#     4  10  22  42  64  89 128 172 218 269 326 395
#
# _framework density 19.740627
#
# number of rings (size 3 to 8) (size 9 to 14) (size 15 to 20)
#    0.000    1.467    4.667    0.000    1.867    2.667 
#    4.800    4.000    0.000    0.000    0.000    0.000 
#    0.000    0.000    0.000    0.000    0.000    0.000 
#
# Total GULP energy -743459.984065 kJ/mol
# GULP energy per Si atom -12390.999734 kJ/mol
# Density = 1.969570 g / cm^3
# Si number density = 19.740627 Si / 1000 Ang^3
#
#
#
# Elastic Constant Matrix: (Units=GPa)
#
#
# Indices 1 2 3 4 5 6 
#
# 1 131.8131 69.1555 49.9513 0.0000 0.0000 0.0000
# 2 69.1555 131.8116 49.9508 0.0000 0.0000 0.0000
# 3 49.9513 49.9508 100.2905 0.0000 0.0000 0.0000
# 4 0.0000 0.0000 0.0000 25.9158 0.0000 0.0000
# 5 0.0000 0.0000 0.0000 0.0000 25.9156 0.0000
# 6 0.0000 0.0000 0.0000 0.0000 0.0000 52.0342
#
#
#
# Elastic Compliance Matrix: (Units=1/GPa)
#
#
# Indices 1 2 3 4 5 6 
#
# 1 0.011287 -0.004673 -0.003294 0.000000 0.000000 0.000000
# 2 -0.004673 0.011287 -0.003294 0.000000 0.000000 0.000000
# 3 -0.003294 -0.003294 0.013252 0.000000 0.000000 0.000000
# 4 0.000000 0.000000 0.000000 0.038587 0.000000 0.000000
# 5 0.000000 0.000000 0.000000 0.000000 0.038587 0.000000
# 6 0.000000 0.000000 0.000000 0.000000 0.000000 0.019218
#
#
# Mechanical properties :
#
#
# Convention : Reuss Voigt Hill
#
# Bulk Modulus (GPa) = 75.16904 78.00337 76.58621
# Shear Modulus (GPa) = 31.41230 33.76363 32.58797
#
# Velocity S-wave (km/s) = 3.99338 4.14014 4.06742
# Velocity P-wave (km/s) = 7.70868 7.90280 7.80634
#
# Compressibility (1/GPa) = 0.01330335
#
# Stress axis : x y z
#
# Youngs Moduli (GPa) = 88.60079 88.60000 75.45964
#
# Poissons Ratio (x) = 0.41406 0.24855
# Poissons Ratio (y) = 0.41406 0.24855
# Poissons Ratio (z) = 0.29184 0.29183
#
# Static dielectric constant tensor:
#      x y z
#    x 3.684210 0.000000 0.000000 
#    y 0.000000 3.684210 0.000000 
#    z 0.000000 0.000000 3.707270 
# 
# 
# High freq. dielectric constant tensor:
#      x y z
#    x 1.773600 0.000000 0.000000 
#    y 0.000000 1.773600 0.000000 
#    z 0.000000 0.000000 1.772020 
# 
# From -- ./inp_files/2789.got.cif
#   From: 2010.03.12/outbox.cif.g09.slc.cpg/sg116_2_cif.got.tgz:2789.got - 2010.04.14 02:15:44.
