data_PCOD8310849
_publ_section_title
;
Structure prediction by ZEFSAII (Michael W. Deem and Ramdas Pophale) SiO2 
 PCOD8310849
Probable space group: I -4 M 2
;
_chemical_formula_sum "Si O2"
_cell_formula_units_Z 128
_cell_length_a 21.316489
_cell_length_b 21.316489
_cell_length_c 15.268995
_cell_angle_alpha 90.000000
_cell_angle_beta 90.000000
_cell_angle_gamma 90.000000
_cell_volume 6938.119915
_symmetry_space_group_name_H-M "I -4 M 2"
_symmetry_group_IT_number 119
_symmetry_cell_setting 'tetragonal'
loop_
_space_group_symop_operation_xyz
x,y,z
y,-x,-z
-x,-y,z
-y,x,-z
y,x,-z
-y,-x,-z
-x,y,z
x,-y,z
1/2+x,1/2+y,1/2+z
1/2+y,1/2-x,1/2-z
1/2-x,1/2-y,1/2+z
1/2-y,1/2+x,1/2-z
1/2+y,1/2+x,1/2-z
1/2-y,1/2-x,1/2-z
1/2-x,1/2+y,1/2+z
1/2+x,1/2-y,1/2+z
loop_
_atom_site_type_symbol
_atom_site_label
_atom_site_fract_x
_atom_site_fract_y
_atom_site_fract_z
Si Si1 0.629544 0.241211 0.112099
Si Si2 0.235265 0.929675 0.704970
Si Si3 0.330482 0.752987 0.443249
Si Si4 0.153822 0.428481 0.497715
Si Si5 0.171610 0.930320 0.520720
Si Si6 0.613214 0.072208 0.343415
Si Si7 0.879027 0.428720 0.161034
Si Si8 0.802344 0.801133 0.763588
O O1 0.689531 0.218118 0.057443
O O2 0.596732 0.184293 0.163288
O O3 0.651200 0.293034 0.181748
O O4 0.581268 0.269747 0.043155
O O5 0.192726 0.922261 0.619913
O O6 0.306278 0.917606 0.678056
O O7 0.214837 0.875096 0.773196
O O8 0.227193 0.000000 0.745798
O O9 0.303497 0.696504 0.500000
O O10 0.394915 0.779274 0.484444
O O11 0.340627 0.724482 0.346764
O O12 0.169413 0.500000 0.476132
O O13 0.110458 0.424346 0.583307
O O14 0.119033 0.399036 0.414500
O O15 0.116006 0.883994 0.500000
O O16 0.146602 0.000000 0.503515
O O17 0.580544 0.080544 0.250000
O O18 0.611811 0.000000 0.370942
O O19 0.892187 0.500000 0.129994
O O20 0.917057 0.417057 0.250000
O O21 0.738527 0.761474 0.750000
#
# Coordination Sequence:
#
# PCOD8310849 Si02
#       8
#    16  16  16  16  16  16  16  16
#     4  10  19  34  55  80 110 147 185 231 281 339
#     4  10  21  36  56  84 118 152 195 240 283 345
#     4  10  22  36  57  83 110 142 184 241 294 342
#     4  11  24  40  58  82 118 156 197 243 285 339
#     4  11  21  35  56  82 114 150 186 229 284 350
#     4  11  22  36  55  81 113 151 198 240 282 334
#     4  11  24  39  58  86 122 164 204 239 281 343
#     4  10  20  33  57  82 112 146 186 233 293 345
#
# _framework density 18.448803000000002
#
# number of rings (size 3 to 8) (size 9 to 14) (size 15 to 20)
#    0.000    1.500    1.250    5.625    7.000    3.375 
#    0.000    0.625    0.000    0.000    0.000    0.000 
#    0.000    1.250    0.000    0.000    0.000    0.000 
#
# Total GULP energy -793668.270812 kJ/mol
# GULP energy per Si atom -12401.066731 kJ/mol
# Density = 1.840681 g / cm^3
# Si number density = 18.448803 Si / 1000 Ang^3
#
#
#
# Elastic Constant Matrix: (Units=GPa)
#
#
# Indices 1 2 3 4 5 6 
#
# 1 86.8268 52.2815 17.5272 0.0000 0.0000 0.0000
# 2 52.2815 86.8266 17.5272 0.0000 0.0000 0.0000
# 3 17.5272 17.5272 59.7363 0.0000 0.0000 0.0000
# 4 0.0000 0.0000 0.0000 23.1690 0.0000 0.0000
# 5 0.0000 0.0000 0.0000 0.0000 23.1689 0.0000
# 6 0.0000 0.0000 0.0000 0.0000 0.0000 1.0595
#
#
#
# Elastic Compliance Matrix: (Units=1/GPa)
#
#
# Indices 1 2 3 4 5 6 
#
# 1 0.018355 -0.010593 -0.002278 0.000000 0.000000 0.000000
# 2 -0.010593 0.018355 -0.002278 0.000000 0.000000 0.000000
# 3 -0.002278 -0.002278 0.018077 0.000000 0.000000 0.000000
# 4 0.000000 0.000000 0.000000 0.043161 0.000000 0.000000
# 5 0.000000 0.000000 0.000000 0.000000 0.043161 0.000000
# 6 0.000000 0.000000 0.000000 0.000000 0.000000 0.943843
#
#
# Mechanical properties :
#
#
# Convention : Reuss Voigt Hill
#
# Bulk Modulus (GPa) = 40.83050 45.34017 43.08534
# Shear Modulus (GPa) = 4.45073 19.21641 11.83357
#
# Velocity S-wave (km/s) = 1.55490 3.23090 2.53539
# Velocity P-wave (km/s) = 5.04018 6.20869 5.65470
#
# Compressibility (1/GPa) = 0.02449150
#
# Stress axis : x y z
#
# Youngs Moduli (GPa) = 54.48077 54.48066 55.31958
#
# Poissons Ratio (x) = 0.57709 0.12600
# Poissons Ratio (y) = 0.57709 0.12600
# Poissons Ratio (z) = 0.12409 0.12409
#
# Static dielectric constant tensor:
#      x y z
#    x 3.433020 0.000000 0.000000 
#    y 0.000000 3.433020 0.000000 
#    z 0.000000 0.000000 3.416590 
# 
# 
# High freq. dielectric constant tensor:
#      x y z
#    x 1.707570 0.000000 0.000000 
#    y 0.000000 1.707570 0.000000 
#    z 0.000000 0.000000 1.716610 
# 
# From -- ./inp_files/6911.got.cif
#   From: 2010.03.12/outbox.cif.g09.slc.cpg/sg119_4_cif.got.tgz:6911.got - 2010.04.14 02:25:26.
