data_PCOD8310067
_publ_section_title
;
Structure prediction by ZEFSAII (Michael W. Deem and Ramdas Pophale) SiO2 
 PCOD8310067
Probable space group: P -4 C 2
;
_chemical_formula_sum "Si O2"
_cell_formula_units_Z 52
_cell_length_a 17.087875
_cell_length_b 17.087875
_cell_length_c 9.745992
_cell_angle_alpha 90.000000
_cell_angle_beta 90.000000
_cell_angle_gamma 90.000000
_cell_volume 2845.785534
_symmetry_space_group_name_H-M "P -4 C 2"
_symmetry_group_IT_number 116
_symmetry_cell_setting 'tetragonal'
loop_
_space_group_symop_operation_xyz
x,y,z
y,-x,-z
-x,-y,z
-y,x,-z
y,x,1/2-z
-y,-x,1/2-z
-x,y,1/2+z
x,-y,1/2+z
loop_
_atom_site_type_symbol
_atom_site_label
_atom_site_fract_x
_atom_site_fract_y
_atom_site_fract_z
Si Si1 0.585150 0.708839 0.230755
Si Si2 0.652006 0.046100 0.874554
Si Si3 0.611846 0.869342 0.623855
Si Si4 0.169187 0.283030 0.308017
Si Si5 0.133593 0.655992 0.088681
Si Si6 0.000000 0.500000 0.250136
Si Si7 0.229972 0.509517 0.022926
O O1 0.623808 0.623808 0.250000
O O2 0.648670 0.777043 0.254888
O O3 0.515294 0.725039 0.338756
O O4 0.554315 0.708833 0.074866
O O5 0.702246 0.080900 0.747159
O O6 0.559110 0.052477 0.840711
O O7 0.674131 0.958035 0.909862
O O8 0.670470 0.098198 0.008257
O O9 0.664670 0.838656 0.752560
O O10 0.565522 0.796613 0.562903
O O11 0.553176 0.940514 0.662848
O O12 0.200176 0.200176 0.250000
O O13 0.171135 0.285507 0.475683
O O14 0.155222 0.565998 0.051214
#
# Coordination Sequence:
#
# PCOD8310067 Si02
#       7
#     8   8   8   8   8   4   8
#     4  10  21  36  56  74 103 139 180 218 275 340
#     4  11  19  29  48  77 109 141 176 216 261 310
#     4  11  17  26  44  72 103 134 168 215 250 300
#     4  10  21  37  51  71 113 156 179 205 269 341
#     4  10  20  30  49  79 105 136 176 220 257 318
#     4  10  18  26  42  78 112 140 172 214 270 308
#     4  11  18  34  51  76 101 135 175 221 269 313
#
# _framework density 18.272637
#
# number of rings (size 3 to 8) (size 9 to 14) (size 15 to 20)
#    0.000    1.538    3.077    6.923    0.000    0.000 
#    0.000    1.538    0.000    1.385    0.000    0.000 
#    0.000    1.846    0.000    0.000    0.000    0.000 
#
# Total GULP energy -644372.230409 kJ/mol
# GULP energy per Si atom -12391.773662 kJ/mol
# Density = 1.823105 g / cm^3
# Si number density = 18.272637 Si / 1000 Ang^3
#
#
#
# Elastic Constant Matrix: (Units=GPa)
#
#
# Indices 1 2 3 4 5 6 
#
# 1 39.5190 24.5031 15.3991 0.0000 0.0000 0.0000
# 2 24.5031 39.5190 15.3991 0.0000 0.0000 0.0000
# 3 15.3991 15.3991 103.6250 0.0000 0.0000 0.0000
# 4 0.0000 0.0000 0.0000 19.8092 0.0000 0.0000
# 5 0.0000 0.0000 0.0000 0.0000 19.8092 0.0000
# 6 0.0000 0.0000 0.0000 0.0000 0.0000 19.7611
#
#
#
# Elastic Compliance Matrix: (Units=1/GPa)
#
#
# Indices 1 2 3 4 5 6 
#
# 1 0.041709 -0.024887 -0.002500 0.000000 0.000000 0.000000
# 2 -0.024887 0.041709 -0.002500 0.000000 0.000000 0.000000
# 3 -0.002500 -0.002500 0.010393 0.000000 0.000000 0.000000
# 4 0.000000 0.000000 0.000000 0.050482 0.000000 0.000000
# 5 0.000000 0.000000 0.000000 0.000000 0.050482 0.000000
# 6 0.000000 0.000000 0.000000 0.000000 0.000000 0.050604
#
#
# Mechanical properties :
#
#
# Convention : Reuss Voigt Hill
#
# Bulk Modulus (GPa) = 29.37882 32.58506 30.98194
# Shear Modulus (GPa) = 15.79786 20.36670 18.08228
#
# Velocity S-wave (km/s) = 2.94354 3.34219 3.14918
# Velocity P-wave (km/s) = 5.25980 5.72407 5.49684
#
# Compressibility (1/GPa) = 0.03403812
#
# Stress axis : x y z
#
# Youngs Moduli (GPa) = 23.97553 23.97553 96.21724
#
# Poissons Ratio (x) = 0.59668 0.24053
# Poissons Ratio (y) = 0.59668 0.24053
# Poissons Ratio (z) = 0.05993 0.05993
#
# Static dielectric constant tensor:
#      x y z
#    x 2.995940 0.000000 0.000000 
#    y 0.000000 2.995940 0.000000 
#    z 0.000000 0.000000 3.798310 
# 
# 
# High freq. dielectric constant tensor:
#      x y z
#    x 1.657470 0.000000 0.000000 
#    y 0.000000 1.657470 0.000000 
#    z 0.000000 0.000000 1.737410 
# 
# From -- ./inp_files/1014.got.cif
#   From: 2010.03.12/outbox.cif.g09.slc.cpg/sg116_1_cif.got.tgz:1014.got - 2010.04.14 02:15:44.
