data_PCOD8310928
_publ_section_title
;
Structure prediction by ZEFSAII (Michael W. Deem and Ramdas Pophale) SiO2 
 PCOD8310928
Probable space group: I -4 M 2
;
_chemical_formula_sum "Si O2"
_cell_formula_units_Z 80
_cell_length_a 13.032439
_cell_length_b 13.032439
_cell_length_c 27.235183
_cell_angle_alpha 90.000000
_cell_angle_beta 90.000000
_cell_angle_gamma 90.000000
_cell_volume 4625.745121
_symmetry_space_group_name_H-M "I -4 M 2"
_symmetry_group_IT_number 119
_symmetry_cell_setting 'tetragonal'
loop_
_space_group_symop_operation_xyz
x,y,z
y,-x,-z
-x,-y,z
-y,x,-z
y,x,-z
-y,-x,-z
-x,y,z
x,-y,z
1/2+x,1/2+y,1/2+z
1/2+y,1/2-x,1/2-z
1/2-x,1/2-y,1/2+z
1/2-y,1/2+x,1/2-z
1/2+y,1/2+x,1/2-z
1/2-y,1/2-x,1/2-z
1/2-x,1/2+y,1/2+z
1/2+x,1/2-y,1/2+z
loop_
_atom_site_type_symbol
_atom_site_label
_atom_site_fract_x
_atom_site_fract_y
_atom_site_fract_z
Si Si1 0.210892 0.388545 0.294827
Si Si2 0.617499 0.771043 0.521001
Si Si3 0.500000 0.616740 0.749320
Si Si4 0.801529 0.244881 0.386901
Si Si5 0.884432 0.381472 0.922392
Si Si6 0.500000 0.618086 0.865990
O O1 0.176363 0.500000 0.316137
O O2 0.136622 0.363379 0.250000
O O3 0.327285 0.398759 0.273139
O O4 0.203127 0.302927 0.335686
O O5 0.666240 0.666240 0.500000
O O6 0.500000 0.747428 0.534520
O O7 0.674667 0.811765 0.569051
O O8 0.628647 0.859254 0.480192
O O9 0.500000 0.500000 0.731776
O O10 0.500000 0.627669 0.807643
O O11 0.696397 0.181366 0.390252
O O12 0.899300 0.170663 0.388718
O O13 0.862858 0.500000 0.913090
O O14 0.000000 0.351011 0.905785
O O15 0.500000 0.500000 0.882764
#
# Coordination Sequence:
#
# PCOD8310928 Si02
#       6
#    16  16   8  16  16   8
#     4  10  20  36  53  81 112 144 180 221 275 330
#     4   9  19  34  54  79 109 142 178 223 272 332
#     4   9  20  38  56  76 110 150 182 222 280 335
#     4  11  20  35  56  82 110 142 189 228 279 334
#     4   9  19  36  56  76 103 141 181 227 279 329
#     4  11  22  36  54  80 112 150 188 230 284 337
#
# _framework density 17.294512000000001
#
# number of rings (size 3 to 8) (size 9 to 14) (size 15 to 20)
#    0.600    1.600    2.000    1.200    1.400    1.200 
#    0.000    1.000    0.000    0.000    0.000    1.400 
#    0.000    0.000    0.000    0.000    0.000    0.000 
#
# Total GULP energy -495848.340880 kJ/mol
# GULP energy per Si atom -12396.208522 kJ/mol
# Density = 1.725515 g / cm^3
# Si number density = 17.294512 Si / 1000 Ang^3
#
#
#
# Elastic Constant Matrix: (Units=GPa)
#
#
# Indices 1 2 3 4 5 6 
#
# 1 119.8535 65.3837 46.4655 0.0000 0.0000 0.0000
# 2 65.3837 119.8517 46.4649 0.0000 0.0000 0.0000
# 3 46.4655 46.4649 82.0715 0.0000 0.0000 0.0000
# 4 0.0000 0.0000 0.0000 17.8438 0.0000 0.0000
# 5 0.0000 0.0000 0.0000 0.0000 17.8446 0.0000
# 6 0.0000 0.0000 0.0000 0.0000 0.0000 29.9185
#
#
#
# Elastic Compliance Matrix: (Units=1/GPa)
#
#
# Indices 1 2 3 4 5 6 
#
# 1 0.012950 -0.005409 -0.004269 0.000000 0.000000 0.000000
# 2 -0.005409 0.012950 -0.004269 0.000000 0.000000 0.000000
# 3 -0.004269 -0.004269 0.017018 0.000000 0.000000 0.000000
# 4 0.000000 0.000000 0.000000 0.056042 0.000000 0.000000
# 5 0.000000 0.000000 0.000000 0.000000 0.056039 0.000000
# 6 0.000000 0.000000 0.000000 0.000000 0.000000 0.033424
#
#
# Mechanical properties :
#
#
# Convention : Reuss Voigt Hill
#
# Bulk Modulus (GPa) = 66.56487 70.93386 68.74937
# Shear Modulus (GPa) = 22.59122 24.01890 23.30506
#
# Velocity S-wave (km/s) = 3.61815 3.73073 3.67487
# Velocity P-wave (km/s) = 7.48514 7.72412 7.60557
#
# Compressibility (1/GPa) = 0.01502294
#
# Stress axis : x y z
#
# Youngs Moduli (GPa) = 77.22279 77.22192 58.76056
#
# Poissons Ratio (x) = 0.41773 0.25084
# Poissons Ratio (y) = 0.41773 0.25084
# Poissons Ratio (z) = 0.32966 0.32965
#
# Static dielectric constant tensor:
#      x y z
#    x 3.294140 0.000000 0.000000 
#    y 0.000000 3.294140 0.000000 
#    z 0.000000 0.000000 3.096850 
# 
# 
# High freq. dielectric constant tensor:
#      x y z
#    x 1.671200 0.000000 0.000000 
#    y 0.000000 1.671200 0.000000 
#    z 0.000000 0.000000 1.660410 
# 
# From -- ./inp_files/10190.got.cif
#   From: 2010.03.12/outbox.cif.g09.slc.cpg/sg119_6_cif.got.tgz:10190.got - 2010.04.14 02:25:26.
