data_PCOD8310159
_publ_section_title
;
Structure prediction by ZEFSAII (Michael W. Deem and Ramdas Pophale) SiO2 
 PCOD8310159
Probable space group: P -4 C 2
;
_chemical_formula_sum "Si O2"
_cell_formula_units_Z 60
_cell_length_a 11.603210
_cell_length_b 11.603210
_cell_length_c 21.748117
_cell_angle_alpha 90.000000
_cell_angle_beta 90.000000
_cell_angle_gamma 90.000000
_cell_volume 2928.046473
_symmetry_space_group_name_H-M "P -4 C 2"
_symmetry_group_IT_number 116
_symmetry_cell_setting 'tetragonal'
loop_
_space_group_symop_operation_xyz
x,y,z
y,-x,-z
-x,-y,z
-y,x,-z
y,x,1/2-z
-y,-x,1/2-z
-x,y,1/2+z
x,-y,1/2+z
loop_
_atom_site_type_symbol
_atom_site_label
_atom_site_fract_x
_atom_site_fract_y
_atom_site_fract_z
Si Si1 0.193460 0.581111 0.382304
Si Si2 0.218237 0.330940 0.417892
Si Si3 0.355832 0.762007 0.807591
Si Si4 0.623743 0.626739 0.520412
Si Si5 0.601398 0.786181 0.758182
Si Si6 0.000000 0.000000 0.823630
Si Si7 0.993843 0.746589 0.228841
Si Si8 0.998853 0.240433 0.369753
O O1 0.163039 0.459030 0.412556
O O2 0.318993 0.616491 0.410859
O O3 0.185409 0.557648 0.309919
O O4 0.103158 0.682488 0.398694
O O5 0.318281 0.308040 0.367768
O O6 0.272562 0.310231 0.484708
O O7 0.111725 0.245621 0.411719
O O8 0.304286 0.695715 0.750000
O O9 0.494371 0.767866 0.803745
O O10 0.309992 0.893240 0.811498
O O11 0.648095 0.490573 0.521260
O O12 0.667429 0.667429 0.750000
O O13 0.687102 0.883120 0.786995
O O14 0.884182 0.007905 0.781112
O O15 0.969388 0.894317 0.868280
O O16 0.968478 0.720409 0.300483
#
# Coordination Sequence:
#
# PCOD8310159 Si02
#       8
#     8   8   8   8   8   4   8   8
#     4  10  21  39  59  85 117 158 206 251 298 364
#     4  11  21  38  61  87 119 159 204 250 314 361
#     4  12  21  36  57  91 126 159 193 249 310 372
#     4   9  21  41  64  84 111 159 212 257 299 366
#     4  11  24  36  56  90 129 162 196 252 305 365
#     4  12  21  36  60  89 124 165 204 246 303 382
#     4  11  20  37  58  86 124 163 204 240 302 368
#     4  11  20  34  61  87 115 155 203 255 296 364
#
# _framework density 20.491479000000002
#
# number of rings (size 3 to 8) (size 9 to 14) (size 15 to 20)
#    0.000    1.200    4.000    3.600    1.867    2.400 
#    0.000    1.333    0.000    1.600    0.000    0.000 
#    0.000    0.000    0.000    0.000    0.000    0.000 
#
# Total GULP energy -743620.570371 kJ/mol
# GULP energy per Si atom -12393.676173 kJ/mol
# Density = 2.044484 g / cm^3
# Si number density = 20.491479 Si / 1000 Ang^3
#
#
#
# Elastic Constant Matrix: (Units=GPa)
#
#
# Indices 1 2 3 4 5 6 
#
# 1 121.4417 51.1706 15.4574 0.0000 0.0000 0.0000
# 2 51.1706 121.4419 15.4576 0.0000 0.0000 0.0000
# 3 15.4574 15.4576 31.7819 0.0000 0.0000 0.0000
# 4 0.0000 0.0000 0.0000 22.7559 0.0000 0.0000
# 5 0.0000 0.0000 0.0000 0.0000 22.7559 0.0000
# 6 0.0000 0.0000 0.0000 0.0000 0.0000 35.3615
#
#
#
# Elastic Compliance Matrix: (Units=1/GPa)
#
#
# Indices 1 2 3 4 5 6 
#
# 1 0.010288 -0.003942 -0.003086 0.000000 0.000000 0.000000
# 2 -0.003942 0.010288 -0.003087 0.000000 0.000000 0.000000
# 3 -0.003086 -0.003087 0.034467 0.000000 0.000000 0.000000
# 4 0.000000 0.000000 0.000000 0.043945 0.000000 0.000000
# 5 0.000000 0.000000 0.000000 0.000000 0.043945 0.000000
# 6 0.000000 0.000000 0.000000 0.000000 0.000000 0.028279
#
#
# Mechanical properties :
#
#
# Convention : Reuss Voigt Hill
#
# Bulk Modulus (GPa) = 28.72494 48.75964 38.74229
# Shear Modulus (GPa) = 24.62484 29.01331 26.81907
#
# Velocity S-wave (km/s) = 3.47033 3.76689 3.62165
# Velocity P-wave (km/s) = 5.48690 6.53957 6.03623
#
# Compressibility (1/GPa) = 0.03481295
#
# Stress axis : x y z
#
# Youngs Moduli (GPa) = 97.19730 97.19731 29.01346
#
# Poissons Ratio (x) = 0.38317 0.08955
# Poissons Ratio (y) = 0.38317 0.08955
# Poissons Ratio (z) = 0.30000 0.30001
#
# Static dielectric constant tensor:
#      x y z
#    x 3.886520 0.000000 0.000000 
#    y 0.000000 3.886520 0.000000 
#    z 0.000000 0.000000 3.409200 
# 
# 
# High freq. dielectric constant tensor:
#      x y z
#    x 1.810770 0.000000 0.000000 
#    y 0.000000 1.810770 0.000000 
#    z 0.000000 0.000000 1.753810 
# 
# From -- ./inp_files/4189.got.cif
#   From: 2010.03.12/outbox.cif.g09.slc.cpg/sg116_3_cif.got.tgz:4189.got - 2010.04.14 02:15:44.
