data_PCOD8310956
_publ_section_title
;
Structure prediction by ZEFSAII (Michael W. Deem and Ramdas Pophale) SiO2 
 PCOD8310956
Probable space group: I -4 M 2
;
_chemical_formula_sum "Si O2"
_cell_formula_units_Z 36
_cell_length_a 7.746232
_cell_length_b 7.746232
_cell_length_c 33.102410
_cell_angle_alpha 90.000000
_cell_angle_beta 90.000000
_cell_angle_gamma 90.000000
_cell_volume 1986.280657
_symmetry_space_group_name_H-M "I -4 M 2"
_symmetry_group_IT_number 119
_symmetry_cell_setting 'tetragonal'
loop_
_space_group_symop_operation_xyz
x,y,z
y,-x,-z
-x,-y,z
-y,x,-z
y,x,-z
-y,-x,-z
-x,y,z
x,-y,z
1/2+x,1/2+y,1/2+z
1/2+y,1/2-x,1/2-z
1/2-x,1/2-y,1/2+z
1/2-y,1/2+x,1/2-z
1/2+y,1/2+x,1/2-z
1/2-y,1/2-x,1/2-z
1/2-x,1/2+y,1/2+z
1/2+x,1/2-y,1/2+z
loop_
_atom_site_type_symbol
_atom_site_label
_atom_site_fract_x
_atom_site_fract_y
_atom_site_fract_z
Si Si1 0.500000 0.500000 0.500000
Si Si2 0.000000 0.188433 0.688668
Si Si3 0.195500 0.500000 0.437105
Si Si4 0.809791 0.196661 0.136463
Si Si5 0.500000 0.000000 0.250000
O O1 0.326504 0.500000 0.474006
O O2 0.170254 0.197076 0.661220
O O3 0.000000 0.329924 0.723263
O O4 0.000000 0.000000 0.709390
O O5 0.228869 0.329729 0.409180
O O6 0.000000 0.500000 0.453704
O O7 0.000000 0.208771 0.157720
O O8 0.745638 0.000000 0.134176
#
# Coordination Sequence:
#
# PCOD8310956 Si02
#       5
#     2   8   8  16   2
#     4  12  20  40  52  84 136 168 184 256 320 352
#     4  12  24  40  64  91 119 162 204 256 303 364
#     4  10  20  38  62  91 119 162 210 250 301 360
#     4   9  18  39  65  87 113 153 207 252 287 357
#     4  12  28  40  52  92 136 152 200 240 332 372
#
# _framework density 18.124326
#
# number of rings (size 3 to 8) (size 9 to 14) (size 15 to 20)
#    1.333    0.444    4.444    1.333    0.000    1.778 
#    4.000    0.000    0.000    0.000    0.000    0.000 
#    0.000    0.000    0.000    0.000    0.000    0.000 
#
# Total GULP energy -223030.323592 kJ/mol
# GULP energy per Si atom -12390.573533 kJ/mol
# Density = 1.808307 g / cm^3
# Si number density = 18.124326 Si / 1000 Ang^3
#
#
#
# Elastic Constant Matrix: (Units=GPa)
#
#
# Indices 1 2 3 4 5 6 
#
# 1 138.2860 42.6787 58.1178 0.0000 0.0000 0.0000
# 2 42.6787 138.2860 58.1178 0.0003 0.0000 0.0000
# 3 58.1178 58.1178 113.1265 0.0002 0.0000 0.0000
# 4 0.0000 0.0003 0.0002 26.4326 0.0002 0.0000
# 5 0.0000 0.0000 0.0000 0.0002 26.4313 0.0000
# 6 0.0000 0.0000 0.0000 0.0000 0.0000 17.5065
#
#
#
# Elastic Compliance Matrix: (Units=1/GPa)
#
#
# Indices 1 2 3 4 5 6 
#
# 1 0.009353 -0.001106 -0.004237 0.000000 0.000000 0.000000
# 2 -0.001106 0.009353 -0.004237 0.000000 0.000000 0.000000
# 3 -0.004237 -0.004237 0.013193 0.000000 0.000000 0.000000
# 4 0.000000 0.000000 0.000000 0.037832 0.000000 0.000000
# 5 0.000000 0.000000 0.000000 0.000000 0.037834 0.000000
# 6 0.000000 0.000000 0.000000 0.000000 0.000000 0.057122
#
#
# Mechanical properties :
#
#
# Convention : Reuss Voigt Hill
#
# Bulk Modulus (GPa) = 78.49396 78.61411 78.55404
# Shear Modulus (GPa) = 26.58237 29.45970 28.02103
#
# Velocity S-wave (km/s) = 3.83386 4.03603 3.93624
# Velocity P-wave (km/s) = 7.93730 8.07394 8.00591
#
# Compressibility (1/GPa) = 0.01273983
#
# Stress axis : x y z
#
# Youngs Moduli (GPa) = 106.91239 106.91238 75.79682
#
# Poissons Ratio (x) = 0.11824 0.32116
# Poissons Ratio (y) = 0.11824 0.32116
# Poissons Ratio (z) = 0.45299 0.45299
#
# Static dielectric constant tensor:
#      x y z
#    x 3.151570 0.000000 0.000000 
#    y 0.000000 3.151570 0.000000 
#    z 0.000000 0.000000 3.070130 
# 
# 
# High freq. dielectric constant tensor:
#      x y z
#    x 1.706030 0.000000 0.000000 
#    y 0.000000 1.706030 0.000000 
#    z 0.000000 0.000000 1.672430 
# 
# From -- ./inp_files/8261.got.cif
#   From: 2010.03.12/outbox.cif.g09.slc.cpg/sg119_5_cif.got.tgz:8261.got - 2010.04.14 02:25:26.
