data_PCOD8310077
_publ_section_title
;
Structure prediction by ZEFSAII (Michael W. Deem and Ramdas Pophale) SiO2 
 PCOD8310077
Probable space group: P -4 C 2
;
_chemical_formula_sum "Si O2"
_cell_formula_units_Z 40
_cell_length_a 19.346868
_cell_length_b 19.346868
_cell_length_c 5.271456
_cell_angle_alpha 90.000000
_cell_angle_beta 90.000000
_cell_angle_gamma 90.000000
_cell_volume 1973.112841
_symmetry_space_group_name_H-M "P -4 C 2"
_symmetry_group_IT_number 116
_symmetry_cell_setting 'tetragonal'
loop_
_space_group_symop_operation_xyz
x,y,z
y,-x,-z
-x,-y,z
-y,x,-z
y,x,1/2-z
-y,-x,1/2-z
-x,y,1/2+z
x,-y,1/2+z
loop_
_atom_site_type_symbol
_atom_site_label
_atom_site_fract_x
_atom_site_fract_y
_atom_site_fract_z
Si Si1 0.065740 0.759213 0.217367
Si Si2 0.394974 0.962488 0.244863
Si Si3 0.920047 0.813730 0.217020
Si Si4 0.545752 0.338373 0.246624
Si Si5 0.542048 0.817007 0.790307
O O1 0.027412 0.686755 0.255778
O O2 0.112037 0.779133 0.460790
O O3 0.002950 0.814994 0.193876
O O4 0.107200 0.766209 0.953690
O O5 0.405546 0.879854 0.242308
O O6 0.426943 0.000507 0.494016
O O7 0.891060 0.891060 0.250000
O O8 0.610969 0.389032 0.250000
O O9 0.497492 0.352111 0.490411
O O10 0.575074 0.259404 0.252699
O O11 0.482123 0.824554 0.580799
#
# Coordination Sequence:
#
# PCOD8310077 Si02
#       5
#     8   8   8   8   8
#     4  10  19  35  51  77 106 138 176 231 289 333
#     4  12  21  37  62  80 116 148 197 250 296 346
#     4  10  18  32  54  74 101 136 173 219 285 342
#     4  10  21  39  63  92 130 167 204 252 301 360
#     4  10  23  40  58  86 120 156 193 246 306 350
#
# _framework density 20.272537
#
# number of rings (size 3 to 8) (size 9 to 14) (size 15 to 20)
#    0.000    1.600    4.000    2.400    0.000    3.600 
#    0.000    2.000    0.000   28.800    0.000    0.000 
#    0.000    0.000    0.000    0.000    0.000    0.000 
#
# Total GULP energy -495522.473578 kJ/mol
# GULP energy per Si atom -12388.061839 kJ/mol
# Density = 2.022640 g / cm^3
# Si number density = 20.272537 Si / 1000 Ang^3
#
#
#
# Elastic Constant Matrix: (Units=GPa)
#
#
# Indices 1 2 3 4 5 6 
#
# 1 89.8752 56.6372 24.2080 0.0000 0.0000 0.0000
# 2 56.6372 89.8764 24.2082 0.0000 0.0000 0.0000
# 3 24.2080 24.2082 165.7899 0.0000 0.0000 0.0000
# 4 0.0000 0.0000 0.0000 19.1856 0.0000 0.0000
# 5 0.0000 0.0000 0.0000 0.0000 19.1851 0.0000
# 6 0.0000 0.0000 0.0000 0.0000 0.0000 9.8719
#
#
#
# Elastic Compliance Matrix: (Units=1/GPa)
#
#
# Indices 1 2 3 4 5 6 
#
# 1 0.018629 -0.011457 -0.001047 0.000000 0.000000 0.000000
# 2 -0.011457 0.018628 -0.001047 0.000000 0.000000 0.000000
# 3 -0.001047 -0.001047 0.006338 0.000000 0.000000 0.000000
# 4 0.000000 0.000000 0.000000 0.052122 0.000000 0.000000
# 5 0.000000 0.000000 0.000000 0.000000 0.052124 0.000000
# 6 0.000000 0.000000 0.000000 0.000000 0.000000 0.101298
#
#
# Mechanical properties :
#
#
# Convention : Reuss Voigt Hill
#
# Bulk Modulus (GPa) = 60.63653 61.73869 61.18761
# Shear Modulus (GPa) = 17.74697 25.68107 21.71402
#
# Velocity S-wave (km/s) = 2.96196 3.56306 3.27632
# Velocity P-wave (km/s) = 6.45548 6.88823 6.67536
#
# Compressibility (1/GPa) = 0.01649171
#
# Stress axis : x y z
#
# Youngs Moduli (GPa) = 53.68104 53.68179 157.79013
#
# Poissons Ratio (x) = 0.61503 0.16523
# Poissons Ratio (y) = 0.61503 0.16523
# Poissons Ratio (z) = 0.05621 0.05621
#
# Static dielectric constant tensor:
#      x y z
#    x 3.395290 0.000000 0.000000 
#    y 0.000000 3.395290 0.000000 
#    z 0.000000 0.000000 4.795120 
# 
# 
# High freq. dielectric constant tensor:
#      x y z
#    x 1.759380 0.000000 0.000000 
#    y 0.000000 1.759380 0.000000 
#    z 0.000000 0.000000 1.838650 
# 
# From -- ./inp_files/117.got.cif
#   From: 2010.03.12/outbox.cif.g09.slc.cpg/sg116_1_cif.got.tgz:117.got - 2010.04.14 02:15:44.
