data_PCOD8310717
_publ_section_title
;
Structure prediction by ZEFSAII (Michael W. Deem and Ramdas Pophale) SiO2 
 PCOD8310717
Probable space group: I -4 M 2
;
_chemical_formula_sum "Si O2"
_cell_formula_units_Z 96
_cell_length_a 16.578338
_cell_length_b 16.578338
_cell_length_c 22.941928
_cell_angle_alpha 90.000000
_cell_angle_beta 90.000000
_cell_angle_gamma 90.000000
_cell_volume 6305.389106
_symmetry_space_group_name_H-M "I -4 M 2"
_symmetry_group_IT_number 119
_symmetry_cell_setting 'tetragonal'
loop_
_space_group_symop_operation_xyz
x,y,z
y,-x,-z
-x,-y,z
-y,x,-z
y,x,-z
-y,-x,-z
-x,y,z
x,-y,z
1/2+x,1/2+y,1/2+z
1/2+y,1/2-x,1/2-z
1/2-x,1/2-y,1/2+z
1/2-y,1/2+x,1/2-z
1/2+y,1/2+x,1/2-z
1/2-y,1/2-x,1/2-z
1/2-x,1/2+y,1/2+z
1/2+x,1/2-y,1/2+z
loop_
_atom_site_type_symbol
_atom_site_label
_atom_site_fract_x
_atom_site_fract_y
_atom_site_fract_z
Si Si1 0.905793 0.589909 0.817432
Si Si2 0.341137 0.090678 0.805608
Si Si3 0.089418 0.820093 0.125599
Si Si4 0.746780 0.090193 0.118929
Si Si5 0.139281 0.736160 0.010053
Si Si6 0.909470 0.593467 0.424991
O O1 0.869128 0.500000 0.833004
O O2 0.890374 0.609626 0.750000
O O3 0.867215 0.665505 0.854117
O O4 0.000000 0.584859 0.831448
O O5 0.351861 0.148140 0.750000
O O6 0.249774 0.094584 0.826763
O O7 0.398403 0.121394 0.858204
O O8 0.365644 0.000000 0.787384
O O9 0.167090 0.874557 0.139569
O O10 0.093652 0.787234 0.059635
O O11 0.000000 0.862329 0.131439
O O12 0.747809 0.000000 0.142897
O O13 0.740808 0.089488 0.049293
O O14 0.146835 0.644130 0.031314
O O15 0.229292 0.770709 0.000000
O O16 0.882305 0.500000 0.429995
O O17 0.000000 0.606745 0.445598
#
# Coordination Sequence:
#
# PCOD8310717 Si02
#       6
#    16  16  16  16  16  16
#     4   8  15  28  43  60  83 104 123 158 207 252
#     4   9  16  26  40  58  80 106 133 158 190 235
#     4   9  18  30  40  54  81 110 134 168 204 229
#     4  10  18  27  43  61  74 101 141 169 197 241
#     4   9  17  29  41  55  80 109 135 163 197 237
#     4   9  16  25  39  60  84 106 127 158 199 236
#
# _framework density 15.225071
#
# number of rings (size 3 to 8) (size 9 to 14) (size 15 to 20)
#    0.000    3.000    0.000    3.500    0.000    2.500 
#    0.000    1.667    0.000    3.000    0.000    0.000 
#    0.000    0.333    0.000    0.500    0.000    0.000 
#
# Total GULP energy -594655.241783 kJ/mol
# GULP energy per Si atom -12388.650870 kJ/mol
# Density = 1.519042 g / cm^3
# Si number density = 15.225071 Si / 1000 Ang^3
#
#
#
# Elastic Constant Matrix: (Units=GPa)
#
#
# Indices 1 2 3 4 5 6 
#
# 1 85.8457 41.2927 35.9493 0.0000 0.0000 0.0000
# 2 41.2927 85.8456 35.9494 0.0000 0.0000 0.0000
# 3 35.9493 35.9494 65.9129 0.0000 0.0000 0.0000
# 4 0.0000 0.0000 0.0000 17.2217 0.0000 0.0000
# 5 0.0000 0.0000 0.0000 0.0000 17.2219 0.0000
# 6 0.0000 0.0000 0.0000 0.0000 0.0000 18.7030
#
#
#
# Elastic Compliance Matrix: (Units=1/GPa)
#
#
# Indices 1 2 3 4 5 6 
#
# 1 0.016909 -0.005536 -0.006203 0.000000 0.000000 0.000000
# 2 -0.005536 0.016909 -0.006203 0.000000 0.000000 0.000000
# 3 -0.006203 -0.006203 0.021938 0.000000 0.000000 0.000000
# 4 0.000000 0.000000 0.000000 0.058066 0.000000 0.000000
# 5 0.000000 0.000000 0.000000 0.000000 0.058066 0.000000
# 6 0.000000 0.000000 0.000000 0.000000 0.000000 0.053467
#
#
# Mechanical properties :
#
#
# Convention : Reuss Voigt Hill
#
# Bulk Modulus (GPa) = 50.32135 51.55412 50.93773
# Shear Modulus (GPa) = 18.66615 18.92349 18.79482
#
# Velocity S-wave (km/s) = 3.50525 3.52933 3.51731
# Velocity P-wave (km/s) = 7.03603 7.10936 7.07279
#
# Compressibility (1/GPa) = 0.01987228
#
# Stress axis : x y z
#
# Youngs Moduli (GPa) = 59.13904 59.13896 45.58305
#
# Poissons Ratio (x) = 0.32739 0.28276
# Poissons Ratio (y) = 0.32739 0.28276
# Poissons Ratio (z) = 0.36685 0.36685
#
# Static dielectric constant tensor:
#      x y z
#    x 2.905760 0.000000 0.000000 
#    y 0.000000 2.905770 0.000000 
#    z 0.000000 0.000000 2.865590 
# 
# 
# High freq. dielectric constant tensor:
#      x y z
#    x 1.562380 0.000000 0.000000 
#    y 0.000000 1.562380 0.000000 
#    z 0.000000 0.000000 1.580180 
# 
# From -- ./inp_files/7937.got.cif
#   From: 2010.03.12/outbox.cif.g09.slc.cpg/sg119_4_cif.got.tgz:7937.got - 2010.04.14 02:25:26.
