data_PCOD8310448
_publ_section_title
;
Structure prediction by ZEFSAII (Michael W. Deem and Ramdas Pophale) SiO2 
 PCOD8310448
Probable space group: P -4 N 2
;
_chemical_formula_sum "Si O2"
_cell_formula_units_Z 52
_cell_length_a 18.536763
_cell_length_b 18.536763
_cell_length_c 7.695436
_cell_angle_alpha 90.000000
_cell_angle_beta 90.000000
_cell_angle_gamma 90.000000
_cell_volume 2644.240942
_symmetry_space_group_name_H-M "P -4 N 2"
_symmetry_group_IT_number 118
_symmetry_cell_setting 'tetragonal'
loop_
_space_group_symop_operation_xyz
x,y,z
y,-x,-z
-x,-y,z
-y,x,-z
1/2+y,1/2+x,1/2-z
1/2-y,1/2-x,1/2-z
1/2-x,1/2+y,1/2+z
1/2+x,1/2-y,1/2+z
loop_
_atom_site_type_symbol
_atom_site_label
_atom_site_fract_x
_atom_site_fract_y
_atom_site_fract_z
Si Si1 0.236009 0.625816 0.685559
Si Si2 0.898356 0.082998 0.263893
Si Si3 0.054248 0.682420 0.342288
Si Si4 0.454226 0.122442 0.493477
Si Si5 0.962325 0.183948 0.545699
Si Si6 0.000000 0.500000 0.750000
Si Si7 0.222667 0.177959 0.833671
Si Si8 0.000000 0.000000 0.000000
O O1 0.167493 0.667493 0.750000
O O2 0.199960 0.553754 0.602211
O O3 0.292095 0.606870 0.838932
O O4 0.272867 0.676453 0.541831
O O5 0.943691 0.117763 0.419964
O O6 0.841249 0.140292 0.195981
O O7 0.846310 0.019962 0.323030
O O8 0.953728 0.054961 0.117659
O O9 0.082756 0.623507 0.479599
O O10 0.011676 0.641052 0.185000
O O11 0.008501 0.744881 0.441137
O O12 0.121602 0.723490 0.256694
O O13 0.503392 0.070017 0.375956
O O14 0.244086 0.255915 0.750000
#
# Coordination Sequence:
#
# PCOD8310448 Si02
#       8
#     8   8   8   8   8   2   8   2
#     4  11  17  33  62  88 111 146 200 251 288 352
#     4  11  24  38  61  87 122 160 196 255 308 374
#     4   9  17  34  57  81 117 146 197 256 297 348
#     4  10  18  32  53  90 112 153 196 257 283 358
#     4  11  21  37  59  91 116 152 201 253 307 370
#     4  12  20  26  48  88 120 150 200 244 318 348
#     4  10  18  35  60  91 113 145 200 253 306 356
#     4  12  24  46  56  88 132 170 212 244 324 402
#
# _framework density 19.665378
#
# number of rings (size 3 to 8) (size 9 to 14) (size 15 to 20)
#    0.000    1.538    5.385    2.769    0.000    1.231 
#    0.000    0.000    6.769    0.000   28.000    0.000 
#    0.000    0.000    0.000    0.000    0.000    0.000 
#
# Total GULP energy -644249.089464 kJ/mol
# GULP energy per Si atom -12389.405567 kJ/mol
# Density = 1.962062 g / cm^3
# Si number density = 19.665378 Si / 1000 Ang^3
#
#
#
# Elastic Constant Matrix: (Units=GPa)
#
#
# Indices 1 2 3 4 5 6 
#
# 1 63.2091 47.1085 46.9095 0.0000 0.0000 0.0000
# 2 47.1085 63.2075 46.9096 0.0000 0.0000 0.0000
# 3 46.9095 46.9096 132.8402 0.0000 0.0000 0.0000
# 4 0.0000 0.0000 0.0000 34.3324 0.0000 0.0000
# 5 0.0000 0.0000 0.0000 0.0000 34.3325 0.0000
# 6 0.0000 0.0000 0.0000 0.0000 0.0000 33.3391
#
#
#
# Elastic Compliance Matrix: (Units=1/GPa)
#
#
# Indices 1 2 3 4 5 6 
#
# 1 0.037533 -0.024578 -0.004575 0.000000 0.000000 0.000000
# 2 -0.024578 0.037535 -0.004575 0.000000 0.000000 0.000000
# 3 -0.004575 -0.004575 0.010759 0.000000 0.000000 0.000000
# 4 0.000000 0.000000 0.000000 0.029127 0.000000 0.000000
# 5 0.000000 0.000000 0.000000 0.000000 0.029127 0.000000
# 6 0.000000 0.000000 0.000000 0.000000 0.000000 0.029995
#
#
# Mechanical properties :
#
#
# Convention : Reuss Voigt Hill
#
# Bulk Modulus (GPa) = 54.43591 60.12356 57.27974
# Shear Modulus (GPa) = 20.18930 28.28940 24.23935
#
# Velocity S-wave (km/s) = 3.20760 3.79692 3.51463
# Velocity P-wave (km/s) = 6.43890 7.06129 6.75727
#
# Compressibility (1/GPa) = 0.01837023
#
# Stress axis : x y z
#
# Youngs Moduli (GPa) = 26.64295 26.64202 92.94582
#
# Poissons Ratio (x) = 0.65482 0.42520
# Poissons Ratio (y) = 0.65484 0.42525
# Poissons Ratio (z) = 0.12188 0.12189
#
# Static dielectric constant tensor:
#      x y z
#    x 3.483480 0.000000 0.000000 
#    y 0.000000 3.483490 0.000000 
#    z 0.000000 0.000000 4.532340 
# 
# 
# High freq. dielectric constant tensor:
#      x y z
#    x 1.733380 0.000000 0.000000 
#    y 0.000000 1.733380 0.000000 
#    z 0.000000 0.000000 1.797260 
# 
# From -- ./inp_files/2197.got.cif
#   From: 2010.03.12/outbox.cif.g09.slc.cpg/sg118_2_cif.got.tgz:2197.got - 2010.04.14 02:21:17.
