data_PCOD8310474
_publ_section_title
;
Structure prediction by ZEFSAII (Michael W. Deem and Ramdas Pophale) SiO2 
 PCOD8310474
Probable space group: P -4 N 2
;
_chemical_formula_sum "Si O2"
_cell_formula_units_Z 58
_cell_length_a 17.698926
_cell_length_b 17.698926
_cell_length_c 8.997442
_cell_angle_alpha 90.000000
_cell_angle_beta 90.000000
_cell_angle_gamma 90.000000
_cell_volume 2818.466535
_symmetry_space_group_name_H-M "P -4 N 2"
_symmetry_group_IT_number 118
_symmetry_cell_setting 'tetragonal'
loop_
_space_group_symop_operation_xyz
x,y,z
y,-x,-z
-x,-y,z
-y,x,-z
1/2+y,1/2+x,1/2-z
1/2-y,1/2-x,1/2-z
1/2-x,1/2+y,1/2+z
1/2+x,1/2-y,1/2+z
loop_
_atom_site_type_symbol
_atom_site_label
_atom_site_fract_x
_atom_site_fract_y
_atom_site_fract_z
Si Si1 0.869045 0.666979 0.451946
Si Si2 0.213022 0.609473 0.354352
Si Si3 0.747034 0.556409 0.787446
Si Si4 0.289228 0.339386 0.529527
Si Si5 0.855693 0.500903 0.557026
Si Si6 0.025199 0.119469 0.497592
Si Si7 0.771870 0.051701 0.762825
Si Si8 0.500000 0.000000 0.250000
O O1 0.922378 0.690030 0.589671
O O2 0.786891 0.704360 0.479090
O O3 0.854220 0.575985 0.453334
O O4 0.903117 0.697313 0.296791
O O5 0.172153 0.672153 0.250000
O O6 0.276645 0.645776 0.460908
O O7 0.147830 0.574298 0.457897
O O8 0.251796 0.537247 0.274281
O O9 0.719239 0.629768 0.697520
O O10 0.785308 0.499613 0.670546
O O11 0.675870 0.515805 0.863462
O O12 0.304172 0.408942 0.413173
O O13 0.931278 0.498482 0.642898
O O14 0.060159 0.162118 0.357056
O O15 0.944789 0.084489 0.455315
#
# Coordination Sequence:
#
# PCOD8310474 Si02
#       8
#     8   8   8   8   8   8   8   2
#     4  10  20  42  67  92 123 183 224 264 324 429
#     4  12  27  43  64 109 139 170 225 305 346 391
#     4  10  19  40  67  88 125 175 225 268 319 419
#     4  11  22  41  67  95 132 180 228 270 343 412
#     4  11  23  40  66  92 130 173 225 268 345 406
#     4  10  23  40  63  97 133 173 219 283 348 395
#     4  11  24  42  69  97 132 183 235 270 344 423
#     4  12  24  44  58 100 128 180 212 278 346 406
#
# _framework density 20.578565999999999
#
# number of rings (size 3 to 8) (size 9 to 14) (size 15 to 20)
#    0.000    1.241    4.138    3.310    3.862    1.103 
#    2.483    0.000    0.000    1.655    0.000    0.000 
#    0.000    0.000    0.000    0.000    0.000    0.000 
#
# Total GULP energy -718944.301685 kJ/mol
# GULP energy per Si atom -12395.591408 kJ/mol
# Density = 2.053173 g / cm^3
# Si number density = 20.578566 Si / 1000 Ang^3
#
#
#
# Elastic Constant Matrix: (Units=GPa)
#
#
# Indices 1 2 3 4 5 6 
#
# 1 106.1991 48.2033 41.4192 0.0000 0.0000 0.0000
# 2 48.2033 106.1991 41.4192 0.0000 0.0000 0.0000
# 3 41.4192 41.4192 104.9288 0.0000 0.0000 0.0000
# 4 0.0000 0.0000 0.0000 29.9471 0.0000 0.0000
# 5 0.0000 0.0000 0.0000 0.0000 29.9471 0.0000
# 6 0.0000 0.0000 0.0000 0.0000 0.0000 36.2895
#
#
#
# Elastic Compliance Matrix: (Units=1/GPa)
#
#
# Indices 1 2 3 4 5 6 
#
# 1 0.012730 -0.004513 -0.003243 0.000000 0.000000 0.000000
# 2 -0.004513 0.012730 -0.003243 0.000000 0.000000 0.000000
# 3 -0.003243 -0.003243 0.012091 0.000000 0.000000 0.000000
# 4 0.000000 0.000000 0.000000 0.033392 0.000000 0.000000
# 5 0.000000 0.000000 0.000000 0.000000 0.033392 0.000000
# 6 0.000000 0.000000 0.000000 0.000000 0.000000 0.027556
#
#
# Mechanical properties :
#
#
# Convention : Reuss Voigt Hill
#
# Bulk Modulus (GPa) = 64.30636 64.37895 64.34265
# Shear Modulus (GPa) = 31.43189 31.65574 31.54381
#
# Velocity S-wave (km/s) = 3.91245 3.92636 3.91941
# Velocity P-wave (km/s) = 7.19213 7.20468 7.19841
#
# Compressibility (1/GPa) = 0.01555056
#
# Stress axis : x y z
#
# Youngs Moduli (GPa) = 78.55656 78.55656 82.70691
#
# Poissons Ratio (x) = 0.35452 0.26826
# Poissons Ratio (y) = 0.35452 0.26826
# Poissons Ratio (z) = 0.25479 0.25479
#
# Static dielectric constant tensor:
#      x y z
#    x 3.726670 0.000000 0.000000 
#    y 0.000000 3.726670 0.000000 
#    z 0.000000 0.000000 3.882540 
# 
# 
# High freq. dielectric constant tensor:
#      x y z
#    x 1.799800 0.000000 0.000000 
#    y 0.000000 1.799800 0.000000 
#    z 0.000000 0.000000 1.819660 
# 
# From -- ./inp_files/2219.got.cif
#   From: 2010.03.12/outbox.cif.g09.slc.cpg/sg118_2_cif.got.tgz:2219.got - 2010.04.14 02:21:17.
