data_PCOD8310829
_publ_section_title
;
Structure prediction by ZEFSAII (Michael W. Deem and Ramdas Pophale) SiO2 
 PCOD8310829
Probable space group: I -4 M 2
;
_chemical_formula_sum "Si O2"
_cell_formula_units_Z 80
_cell_length_a 27.948858
_cell_length_b 27.948858
_cell_length_c 5.111155
_cell_angle_alpha 90.000000
_cell_angle_beta 90.000000
_cell_angle_gamma 90.000000
_cell_volume 3992.520786
_symmetry_space_group_name_H-M "I -4 M 2"
_symmetry_group_IT_number 119
_symmetry_cell_setting 'tetragonal'
loop_
_space_group_symop_operation_xyz
x,y,z
y,-x,-z
-x,-y,z
-y,x,-z
y,x,-z
-y,-x,-z
-x,y,z
x,-y,z
1/2+x,1/2+y,1/2+z
1/2+y,1/2-x,1/2-z
1/2-x,1/2-y,1/2+z
1/2-y,1/2+x,1/2-z
1/2+y,1/2+x,1/2-z
1/2-y,1/2-x,1/2-z
1/2-x,1/2+y,1/2+z
1/2+x,1/2-y,1/2+z
loop_
_atom_site_type_symbol
_atom_site_label
_atom_site_fract_x
_atom_site_fract_y
_atom_site_fract_z
Si Si1 0.184796 0.053967 0.911716
Si Si2 0.770130 0.810456 0.250554
Si Si3 0.307991 0.112371 0.286374
Si Si4 0.556734 0.209911 0.691910
Si Si5 0.446185 0.373258 0.106336
O O1 0.237157 0.075903 0.879899
O O2 0.164845 0.055388 0.622301
O O3 0.190869 0.000000 0.016880
O O4 0.150898 0.078513 0.134621
O O5 0.804922 0.804922 0.500000
O O6 0.731043 0.768958 0.250000
O O7 0.743642 0.861639 0.255442
O O8 0.804872 0.804872 0.000000
O O9 0.349022 0.150979 0.250000
O O10 0.310862 0.085958 0.563988
O O11 0.318829 0.072172 0.066747
O O12 0.500000 0.206889 0.746601
O O13 0.500000 0.390171 0.171982
O O14 0.419441 0.419441 0.000000
#
# Coordination Sequence:
#
# PCOD8310829 Si02
#       5
#    16  16  16  16  16
#     4   9  19  35  53  71  97 138 182 224 272 327
#     4   9  17  31  50  72 105 149 186 217 266 328
#     4  11  22  37  59  88 120 151 186 232 282 333
#     4  11  22  39  60  82 112 151 192 230 277 331
#     4  10  19  33  52  74 103 138 181 238 297 345
#
# _framework density 20.037465000000001
#
# number of rings (size 3 to 8) (size 9 to 14) (size 15 to 20)
#    0.000    2.000    0.000    4.200    0.000    6.600 
#    0.000   10.000    0.000    3.600    0.000    0.000 
#    0.000   28.000    0.000    0.000    0.000    0.000 
#
# Total GULP energy -495737.309980 kJ/mol
# GULP energy per Si atom -12393.432749 kJ/mol
# Density = 1.999186 g / cm^3
# Si number density = 20.037465 Si / 1000 Ang^3
#
#
#
# Elastic Constant Matrix: (Units=GPa)
#
#
# Indices 1 2 3 4 5 6 
#
# 1 63.3012 35.1018 32.3094 0.0000 0.0000 0.0000
# 2 35.1018 63.3067 32.3135 0.0000 0.0000 0.0000
# 3 32.3094 32.3135 151.5039 0.0000 0.0000 0.0000
# 4 0.0000 0.0000 0.0000 29.4629 0.0000 0.0000
# 5 0.0000 0.0000 0.0000 0.0000 29.4648 0.0000
# 6 0.0000 0.0000 0.0000 0.0000 0.0000 21.6727
#
#
#
# Elastic Compliance Matrix: (Units=1/GPa)
#
#
# Indices 1 2 3 4 5 6 
#
# 1 0.023638 -0.011821 -0.002520 0.000000 0.000000 0.000000
# 2 -0.011821 0.023637 -0.002521 0.000000 0.000000 0.000000
# 3 -0.002520 -0.002521 0.007675 0.000000 0.000000 0.000000
# 4 0.000000 0.000000 0.000000 0.033941 0.000000 0.000000
# 5 0.000000 0.000000 0.000000 0.000000 0.033939 0.000000
# 6 0.000000 0.000000 0.000000 0.000000 0.000000 0.046141
#
#
# Mechanical properties :
#
#
# Convention : Reuss Voigt Hill
#
# Bulk Modulus (GPa) = 47.10624 53.06237 50.08430
# Shear Modulus (GPa) = 23.83563 28.01256 25.92410
#
# Velocity S-wave (km/s) = 3.45273 3.74305 3.60082
# Velocity P-wave (km/s) = 6.28134 6.72456 6.50672
#
# Compressibility (1/GPa) = 0.02122861
#
# Stress axis : x y z
#
# Youngs Moduli (GPa) = 42.30389 42.30672 130.28505
#
# Poissons Ratio (x) = 0.50009 0.32831
# Poissons Ratio (y) = 0.50006 0.32839
# Poissons Ratio (z) = 0.10660 0.10664
#
# Static dielectric constant tensor:
#      x y z
#    x 3.464460 0.000000 0.000000 
#    y 0.000000 3.464460 0.000000 
#    z 0.000000 0.000000 3.973130 
# 
# 
# High freq. dielectric constant tensor:
#      x y z
#    x 1.758710 0.000000 0.000000 
#    y 0.000000 1.758710 0.000000 
#    z 0.000000 0.000000 1.807170 
# 
# From -- ./inp_files/993.got.cif
#   From: 2010.03.12/outbox.cif.g09.slc.cpg/sg119_1_cif.got.tgz:993.got - 2010.04.14 02:25:26.
