data_PCOD8310061
_publ_section_title
;
Structure prediction by ZEFSAII (Michael W. Deem and Ramdas Pophale) SiO2 
 PCOD8310061
Probable space group: P -4 C 2
;
_chemical_formula_sum "Si O2"
_cell_formula_units_Z 56
_cell_length_a 25.121947
_cell_length_b 25.121947
_cell_length_c 5.215762
_cell_angle_alpha 90.000000
_cell_angle_beta 90.000000
_cell_angle_gamma 90.000000
_cell_volume 3291.731140
_symmetry_space_group_name_H-M "P -4 C 2"
_symmetry_group_IT_number 116
_symmetry_cell_setting 'tetragonal'
loop_
_space_group_symop_operation_xyz
x,y,z
y,-x,-z
-x,-y,z
-y,x,-z
y,x,1/2-z
-y,-x,1/2-z
-x,y,1/2+z
x,-y,1/2+z
loop_
_atom_site_type_symbol
_atom_site_label
_atom_site_fract_x
_atom_site_fract_y
_atom_site_fract_z
Si Si1 0.145656 0.465089 0.753987
Si Si2 0.964918 0.123761 0.749695
Si Si3 0.726174 0.273827 0.250000
Si Si4 0.775598 0.775598 0.250000
Si Si5 0.754392 0.033879 0.750376
Si Si6 0.809984 0.353979 0.254484
Si Si7 0.301540 0.859755 0.745494
Si Si8 0.440717 0.023429 0.764463
O O1 0.155086 0.501138 0.507747
O O2 0.188811 0.417816 0.749278
O O3 0.086803 0.440117 0.753920
O O4 0.912896 0.087105 0.750000
O O5 0.944626 0.184866 0.749746
O O6 0.999935 0.111333 0.499485
O O7 0.750515 0.249601 0.500978
O O8 0.746748 0.335674 0.250693
O O9 0.837287 0.759625 0.250825
O O10 0.708195 0.077940 0.750893
O O11 0.743742 0.000047 0.500190
O O12 0.840012 0.334381 0.509334
O O13 0.841887 0.332166 0.009430
O O14 0.500000 0.000000 0.790157
O O15 0.410831 0.996846 0.521454
#
# Coordination Sequence:
#
# PCOD8310061 Si02
#       8
#     8   8   4   4   8   8   8   8
#     4  12  21  33  52  73 102 132 172 210 246 290
#     4  10  21  35  51  74  94 122 153 185 239 304
#     4   8  16  34  50  72 104 118 154 199 259 286
#     4   8  16  28  54  74  84 116 149 206 232 285
#     4  10  21  36  52  66  99 124 145 198 245 301
#     4  10  21  35  54  79  99 128 164 212 243 296
#     4  10  19  36  53  72  95 120 164 194 248 292
#     4  10  16  30  46  60  86 127 161 205 243 271
#
# _framework density 17.012326000000002
#
# number of rings (size 3 to 8) (size 9 to 14) (size 15 to 20)
#    0.000    2.000    2.857    2.143    1.000    0.857 
#    0.000    4.286    0.000    0.000    0.000    0.000 
#    0.000    0.000    0.000    0.000    0.000    2.143 
#
# Total GULP energy -693755.969804 kJ/mol
# GULP energy per Si atom -12388.499461 kJ/mol
# Density = 1.697361 g / cm^3
# Si number density = 17.012326 Si / 1000 Ang^3
#
#
#
# Elastic Constant Matrix: (Units=GPa)
#
#
# Indices 1 2 3 4 5 6 
#
# 1 68.0575 44.3097 17.3457 0.0000 0.0000 0.0000
# 2 44.3097 68.0585 17.3465 0.0000 0.0000 0.0000
# 3 17.3457 17.3465 120.3467 0.0000 0.0000 0.0000
# 4 0.0000 0.0000 0.0000 -2.6251 0.0000 0.0000
# 5 0.0000 0.0000 0.0000 0.0000 -2.6265 0.0000
# 6 0.0000 0.0000 0.0000 0.0000 0.0000 18.8173
#
#
#
# Elastic Compliance Matrix: (Units=1/GPa)
#
#
# Indices 1 2 3 4 5 6 
#
# 1 0.025711 -0.016397 -0.001342 0.000000 0.000000 0.000000
# 2 -0.016397 0.025711 -0.001343 0.000000 0.000000 0.000000
# 3 -0.001342 -0.001343 0.008696 0.000000 0.000000 0.000000
# 4 0.000000 0.000000 0.000000 -0.380932 0.000000 0.000000
# 5 0.000000 0.000000 0.000000 0.000000 -0.380737 0.000000
# 6 0.000000 0.000000 0.000000 0.000000 0.000000 0.053143
#
#
# Mechanical properties :
#
#
# Convention : Reuss Voigt Hill
#
# Bulk Modulus (GPa) = 45.54942 46.05184 45.80063
# Shear Modulus (GPa) = -8.29289 14.54385 3.12548
#
# Velocity S-wave (km/s) = -2.21025 2.92704 1.35690
# Velocity P-wave (km/s) = 4.50764 6.20902 5.42544
#
# Compressibility (1/GPa) = 0.02195418
#
# Stress axis : x y z
#
# Youngs Moduli (GPa) = 38.89354 38.89402 114.99123
#
# Poissons Ratio (x) = 0.63775 0.15436
# Poissons Ratio (y) = 0.63775 0.15438
# Poissons Ratio (z) = 0.05221 0.05222
#
# Static dielectric constant tensor:
#      x y z
#    x 3.275950 0.000000 0.000000 
#    y 0.000000 3.275950 0.000000 
#    z 0.000000 0.000000 4.615930 
# 
# 
# High freq. dielectric constant tensor:
#      x y z
#    x 1.624480 0.000000 0.000000 
#    y 0.000000 1.624480 0.000000 
#    z 0.000000 0.000000 1.694040 
# 
# From -- ./inp_files/255.got.cif
#   From: 2010.03.12/outbox.cif.g09.slc.cpg/sg116_1_cif.got.tgz:255.got - 2010.04.14 02:15:44.
