data_PCOD8310435
_publ_section_title
;
Structure prediction by ZEFSAII (Michael W. Deem and Ramdas Pophale) SiO2 
 PCOD8310435
Probable space group: P -4 N 2
;
_chemical_formula_sum "Si O2"
_cell_formula_units_Z 42
_cell_length_a 11.412565
_cell_length_b 11.412565
_cell_length_c 21.747961
_cell_angle_alpha 90.000000
_cell_angle_beta 90.000000
_cell_angle_gamma 90.000000
_cell_volume 2832.598844
_symmetry_space_group_name_H-M "P -4 N 2"
_symmetry_group_IT_number 118
_symmetry_cell_setting 'tetragonal'
loop_
_space_group_symop_operation_xyz
x,y,z
y,-x,-z
-x,-y,z
-y,x,-z
1/2+y,1/2+x,1/2-z
1/2-y,1/2-x,1/2-z
1/2-x,1/2+y,1/2+z
1/2+x,1/2-y,1/2+z
loop_
_atom_site_type_symbol
_atom_site_label
_atom_site_fract_x
_atom_site_fract_y
_atom_site_fract_z
Si Si1 0.500000 0.500000 0.000000
Si Si2 0.874320 0.218368 0.633081
Si Si3 0.502597 0.137688 0.040679
Si Si4 0.634747 0.134747 0.250000
Si Si5 0.993698 0.225353 0.421728
Si Si6 0.862657 0.362657 0.750000
Si Si7 0.634611 0.277779 0.133035
O O1 0.536429 0.609390 0.959884
O O2 0.888016 0.305818 0.574225
O O3 0.820921 0.288277 0.690932
O O4 0.004916 0.168559 0.648640
O O5 0.785886 0.113035 0.617042
O O6 0.619102 0.191598 0.073554
O O7 0.500000 0.000000 0.050816
O O8 0.502248 0.164908 0.967789
O O9 0.498817 0.159013 0.263203
O O10 0.681106 0.203943 0.190710
O O11 0.879739 0.231698 0.377582
#
# Coordination Sequence:
#
# PCOD8310435 Si02
#       7
#     2   8   8   4   8   4   8
#     4  12  12  28  44  76  92 108 136 188 242 240
#     4   9  17  25  46  66  93 114 150 187 227 271
#     4  10  18  26  42  70  94 120 140 188 241 281
#     4   9  16  28  42  66  97 122 144 186 235 272
#     4  12  16  28  48  72  92 114 152 196 234 266
#     4   9  16  28  42  66  97 122 144 186 235 272
#     4   9  17  25  46  66  93 114 150 187 227 271
#
# _framework density 14.827373
#
# number of rings (size 3 to 8) (size 9 to 14) (size 15 to 20)
#    1.143    0.952    5.714    1.143    0.000    0.000 
#    0.000    0.000    4.190    0.000    0.000    0.000 
#    0.000    3.810    0.000    0.000    0.000    0.000 
#
# Total GULP energy -520373.526163 kJ/mol
# GULP energy per Si atom -12389.845861 kJ/mol
# Density = 1.479363 g / cm^3
# Si number density = 14.827373 Si / 1000 Ang^3
#
#
#
# Elastic Constant Matrix: (Units=GPa)
#
#
# Indices 1 2 3 4 5 6 
#
# 1 69.1515 21.9857 40.8933 0.0000 0.0000 0.0000
# 2 21.9857 69.1515 40.8933 0.0000 0.0000 0.0000
# 3 40.8933 40.8933 102.5117 0.0000 0.0000 0.0000
# 4 0.0000 0.0000 0.0000 12.1844 0.0000 0.0000
# 5 0.0000 0.0000 0.0000 0.0000 12.1844 0.0000
# 6 0.0000 0.0000 0.0000 0.0000 0.0000 8.8726
#
#
#
# Elastic Compliance Matrix: (Units=1/GPa)
#
#
# Indices 1 2 3 4 5 6 
#
# 1 0.019146 -0.002056 -0.006818 0.000000 0.000000 0.000000
# 2 -0.002056 0.019146 -0.006818 0.000000 0.000000 0.000000
# 3 -0.006818 -0.006818 0.015194 0.000000 0.000000 0.000000
# 4 0.000000 0.000000 0.000000 0.082072 0.000000 0.000000
# 5 0.000000 0.000000 0.000000 0.000000 0.082072 0.000000
# 6 0.000000 0.000000 0.000000 0.000000 0.000000 0.112706
#
#
# Mechanical properties :
#
#
# Convention : Reuss Voigt Hill
#
# Bulk Modulus (GPa) = 45.23887 49.81768 47.52827
# Shear Modulus (GPa) = 13.54694 15.78446 14.66570
#
# Velocity S-wave (km/s) = 3.02593 3.26628 3.14840
# Velocity P-wave (km/s) = 6.54102 6.92071 6.73354
#
# Compressibility (1/GPa) = 0.02210488
#
# Stress axis : x y z
#
# Youngs Moduli (GPa) = 52.22961 52.22961 65.81403
#
# Poissons Ratio (x) = 0.10736 0.44870
# Poissons Ratio (y) = 0.10736 0.44870
# Poissons Ratio (z) = 0.35609 0.35609
#
# Static dielectric constant tensor:
#      x y z
#    x 2.592310 0.000000 0.000000 
#    y 0.000000 2.592310 0.000000 
#    z 0.000000 0.000000 2.942180 
# 
# 
# High freq. dielectric constant tensor:
#      x y z
#    x 1.532740 0.000000 0.000000 
#    y 0.000000 1.532740 0.000000 
#    z 0.000000 0.000000 1.568840 
# 
# From -- ./inp_files/6172.got.cif
#   From: 2010.03.12/outbox.cif.g09.slc.cpg/sg118_4_cif.got.tgz:6172.got - 2010.04.14 02:21:17.
