data_PCOD8310024
_publ_section_title
;
Structure prediction by ZEFSAII (Michael W. Deem and Ramdas Pophale) SiO2 
 PCOD8310024
Probable space group: P -4 M 2
;
_chemical_formula_sum "Si O2"
_cell_formula_units_Z 40
_cell_length_a 9.396647
_cell_length_b 9.396647
_cell_length_c 25.948842
_cell_angle_alpha 90.000000
_cell_angle_beta 90.000000
_cell_angle_gamma 90.000000
_cell_volume 2291.204249
_symmetry_space_group_name_H-M "P -4 M 2"
_symmetry_group_IT_number 115
_symmetry_cell_setting 'tetragonal'
loop_
_space_group_symop_operation_xyz
x,y,z
y,-x,-z
-x,-y,z
-y,x,-z
y,x,-z
-y,-x,-z
-x,y,z
x,-y,z
loop_
_atom_site_type_symbol
_atom_site_label
_atom_site_fract_x
_atom_site_fract_y
_atom_site_fract_z
Si Si1 0.169269 0.658353 0.155826
Si Si2 0.839331 0.668141 0.041391
Si Si3 0.158838 0.830606 0.556754
Si Si4 0.830247 0.660678 0.348014
Si Si5 0.830240 0.160552 0.250751
O O1 0.229754 0.500000 0.167177
O O2 0.214783 0.710374 0.098773
O O3 0.229131 0.767241 0.198481
O O4 0.000000 0.651376 0.158257
O O5 0.832648 0.500000 0.034841
O O6 0.000000 0.723128 0.032724
O O7 0.737716 0.737716 0.000000
O O8 0.215091 0.784910 0.500000
O O9 0.265652 0.770694 0.600031
O O10 0.000000 0.769796 0.567094
O O11 0.152062 0.000000 0.559002
O O12 0.771049 0.500000 0.344976
O O13 0.772991 0.749518 0.299248
O O14 0.000000 0.659815 0.348223
O O15 0.000000 0.159454 0.250630
O O16 0.770863 0.000000 0.254190
#
# Coordination Sequence:
#
# PCOD8310024 Si02
#       5
#     8   8   8   8   8
#     4   8  14  25  38  52  75 107 140 175 216 259
#     4   9  18  31  46  65  89 117 150 188 229 273
#     4   8  13  21  32  45  64  93 127 161 198 242
#     4   9  15  21  30  46  70 100 132 166 205 248
#     4   9  15  21  31  49  74 105 140 173 205 249
#
# _framework density 17.458068000000001
#
# number of rings (size 3 to 8) (size 9 to 14) (size 15 to 20)
#    0.000    3.400    0.000    3.000    0.000    6.000 
#    0.000    2.000    0.000    0.000    0.000    0.000 
#    0.000    2.000    0.000    8.400    0.000    9.400 
#
# Total GULP energy -495739.815513 kJ/mol
# GULP energy per Si atom -12393.495388 kJ/mol
# Density = 1.741833 g / cm^3
# Si number density = 17.458068 Si / 1000 Ang^3
#
#
#
# Elastic Constant Matrix: (Units=GPa)
#
#
# Indices 1 2 3 4 5 6 
#
# 1 58.7525 19.0415 56.3628 0.0000 0.0000 0.0000
# 2 19.0415 58.7527 56.3629 0.0000 0.0000 0.0000
# 3 56.3628 56.3629 182.4334 0.0000 0.0000 0.0000
# 4 0.0000 0.0000 0.0000 4.9545 0.0000 0.0000
# 5 0.0000 0.0000 0.0000 0.0000 4.9544 0.0000
# 6 0.0000 0.0000 0.0000 0.0000 0.0000 9.3977
#
#
#
# Elastic Compliance Matrix: (Units=1/GPa)
#
#
# Indices 1 2 3 4 5 6 
#
# 1 0.024228 -0.000954 -0.007190 0.000000 0.000000 0.000000
# 2 -0.000954 0.024228 -0.007190 0.000000 0.000000 0.000000
# 3 -0.007190 -0.007190 0.009924 0.000000 0.000000 0.000000
# 4 0.000000 0.000000 0.000000 0.201839 0.000000 0.000000
# 5 0.000000 0.000000 0.000000 0.000000 0.201839 0.000000
# 6 0.000000 0.000000 0.000000 0.000000 0.000000 0.106409
#
#
# Mechanical properties :
#
#
# Convention : Reuss Voigt Hill
#
# Bulk Modulus (GPa) = 36.08818 62.60812 49.34815
# Shear Modulus (GPa) = 8.21864 15.07274 11.64569
#
# Velocity S-wave (km/s) = 2.17206 2.94150 2.58556
# Velocity P-wave (km/s) = 5.19680 6.89031 6.10259
#
# Compressibility (1/GPa) = 0.02770990
#
# Stress axis : x y z
#
# Youngs Moduli (GPa) = 41.27508 41.27520 100.76208
#
# Poissons Ratio (x) = 0.03939 0.72451
# Poissons Ratio (y) = 0.03939 0.72451
# Poissons Ratio (z) = 0.29678 0.29678
#
# Static dielectric constant tensor:
#      x y z
#    x 2.928720 0.000000 0.000000 
#    y 0.000000 2.928720 0.000000 
#    z 0.000000 0.000000 3.630860 
# 
# 
# High freq. dielectric constant tensor:
#      x y z
#    x 1.625980 0.000000 0.000000 
#    y 0.000000 1.625980 0.000000 
#    z 0.000000 0.000000 1.695440 
# 
# From -- ./inp_files/5461.got.cif
#   From: 2010.03.12/outbox.cif.g09.slc.cpg/sg115_3_cif.got.tgz:5461.got - 2010.04.14 02:11:21.
