data_PCOD8310497
_publ_section_title
;
Structure prediction by ZEFSAII (Michael W. Deem and Ramdas Pophale) SiO2 
 PCOD8310497
Probable space group: P -4 N 2
;
_chemical_formula_sum "Si O2"
_cell_formula_units_Z 32
_cell_length_a 14.029306
_cell_length_b 14.029306
_cell_length_c 7.563945
_cell_angle_alpha 90.000000
_cell_angle_beta 90.000000
_cell_angle_gamma 90.000000
_cell_volume 1488.746447
_symmetry_space_group_name_H-M "P -4 N 2"
_symmetry_group_IT_number 118
_symmetry_cell_setting 'tetragonal'
loop_
_space_group_symop_operation_xyz
x,y,z
y,-x,-z
-x,-y,z
-y,x,-z
1/2+y,1/2+x,1/2-z
1/2-y,1/2-x,1/2-z
1/2-x,1/2+y,1/2+z
1/2+x,1/2-y,1/2+z
loop_
_atom_site_type_symbol
_atom_site_label
_atom_site_fract_x
_atom_site_fract_y
_atom_site_fract_z
Si Si1 0.772336 0.272336 0.250000
Si Si2 0.339707 0.077392 0.518962
Si Si3 0.777645 0.117598 0.960050
Si Si4 0.589038 0.089038 0.750000
Si Si5 0.437665 0.256801 0.337488
O O1 0.878692 0.266003 0.336792
O O2 0.696882 0.251056 0.399305
O O3 0.404935 0.164261 0.448511
O O4 0.278227 0.032569 0.358779
O O5 0.410024 0.000646 0.612738
O O6 0.686783 0.084616 0.853471
O O7 0.855573 0.162303 0.826687
O O8 0.811282 0.025012 0.069033
#
# Coordination Sequence:
#
# PCOD8310497 Si02
#       5
#     4   8   8   4   8
#     4  10  20  39  60  85 120 158 194 242 304 362
#     4  10  22  40  60  89 125 154 196 260 307 356
#     4  11  22  38  62  87 118 161 202 246 301 363
#     4  12  22  37  64  92 118 159 198 242 314 369
#     4  10  23  41  60  87 124 158 202 253 299 359
#
# _framework density 21.494595
#
# number of rings (size 3 to 8) (size 9 to 14) (size 15 to 20)
#    0.000    1.500    0.000    7.500    0.000    5.000 
#    0.000    5.000    0.000    3.000    0.000    0.000 
#    0.000    0.000    0.000    0.000    0.000    0.000 
#
# Total GULP energy -396585.509017 kJ/mol
# GULP energy per Si atom -12393.297157 kJ/mol
# Density = 2.144567 g / cm^3
# Si number density = 21.494595 Si / 1000 Ang^3
#
#
#
# Elastic Constant Matrix: (Units=GPa)
#
#
# Indices 1 2 3 4 5 6 
#
# 1 93.7235 37.9773 31.6383 0.0000 0.0000 0.0000
# 2 37.9773 93.7235 31.6383 0.0000 0.0000 0.0000
# 3 31.6383 31.6383 112.7987 0.0000 0.0000 0.0000
# 4 0.0000 0.0000 0.0000 29.7754 0.0000 0.0000
# 5 0.0000 0.0000 0.0000 0.0000 29.7754 0.0000
# 6 0.0000 0.0000 0.0000 0.0000 0.0000 27.8649
#
#
#
# Elastic Compliance Matrix: (Units=1/GPa)
#
#
# Indices 1 2 3 4 5 6 
#
# 1 0.013357 -0.004581 -0.002461 0.000000 0.000000 0.000000
# 2 -0.004581 0.013357 -0.002461 0.000000 0.000000 0.000000
# 3 -0.002461 -0.002461 0.010246 0.000000 0.000000 0.000000
# 4 0.000000 0.000000 0.000000 0.033585 0.000000 0.000000
# 5 0.000000 0.000000 0.000000 0.000000 0.033585 0.000000
# 6 0.000000 0.000000 0.000000 0.000000 0.000000 0.035887
#
#
# Mechanical properties :
#
#
# Convention : Reuss Voigt Hill
#
# Bulk Modulus (GPa) = 55.70528 55.86150 55.78339
# Shear Modulus (GPa) = 30.30129 30.74927 30.52528
#
# Velocity S-wave (km/s) = 3.75869 3.78638 3.77256
# Velocity P-wave (km/s) = 6.69397 6.72016 6.70708
#
# Compressibility (1/GPa) = 0.01795162
#
# Stress axis : x y z
#
# Youngs Moduli (GPa) = 74.86709 74.86709 97.59793
#
# Poissons Ratio (x) = 0.34300 0.24023
# Poissons Ratio (y) = 0.34300 0.24023
# Poissons Ratio (z) = 0.18428 0.18428
#
# Static dielectric constant tensor:
#      x y z
#    x 3.898060 0.000000 0.000000 
#    y 0.000000 3.898060 0.000000 
#    z 0.000000 0.000000 4.377080 
# 
# 
# High freq. dielectric constant tensor:
#      x y z
#    x 1.832250 0.000000 0.000000 
#    y 0.000000 1.832250 0.000000 
#    z 0.000000 0.000000 1.862600 
# 
# From -- ./inp_files/1659.got.cif
#   From: 2010.03.12/outbox.cif.g09.slc.cpg/sg118_1_cif.got.tgz:1659.got - 2010.04.14 02:21:17.
