data_PCOD8310786
_publ_section_title
;
Structure prediction by ZEFSAII (Michael W. Deem and Ramdas Pophale) SiO2 
 PCOD8310786
Probable space group: I -4 M 2
;
_chemical_formula_sum "Si O2"
_cell_formula_units_Z 112
_cell_length_a 14.368132
_cell_length_b 14.368132
_cell_length_c 30.619556
_cell_angle_alpha 90.000000
_cell_angle_beta 90.000000
_cell_angle_gamma 90.000000
_cell_volume 6321.199649
_symmetry_space_group_name_H-M "I -4 M 2"
_symmetry_group_IT_number 119
_symmetry_cell_setting 'tetragonal'
loop_
_space_group_symop_operation_xyz
x,y,z
y,-x,-z
-x,-y,z
-y,x,-z
y,x,-z
-y,-x,-z
-x,y,z
x,-y,z
1/2+x,1/2+y,1/2+z
1/2+y,1/2-x,1/2-z
1/2-x,1/2-y,1/2+z
1/2-y,1/2+x,1/2-z
1/2+y,1/2+x,1/2-z
1/2-y,1/2-x,1/2-z
1/2-x,1/2+y,1/2+z
1/2+x,1/2-y,1/2+z
loop_
_atom_site_type_symbol
_atom_site_label
_atom_site_fract_x
_atom_site_fract_y
_atom_site_fract_z
Si Si1 0.261201 0.107158 0.451030
Si Si2 0.794771 0.393182 0.789695
Si Si3 0.604321 0.889539 0.376178
Si Si4 0.896265 0.103336 0.747555
Si Si5 0.291650 0.893880 0.788537
Si Si6 0.746410 0.106282 0.550109
Si Si7 0.392557 0.107108 0.874542
O O1 0.345167 0.143603 0.420525
O O2 0.167853 0.163365 0.440264
O O3 0.292162 0.121690 0.501109
O O4 0.238004 0.000000 0.440694
O O5 0.824817 0.500000 0.783137
O O6 0.834498 0.334498 0.750000
O O7 0.836156 0.353220 0.834757
O O8 0.682137 0.382147 0.789763
O O9 0.500000 0.847251 0.374748
O O10 0.598946 0.000000 0.375047
O O11 0.820684 0.115373 0.786343
O O12 0.000000 0.113693 0.768103
O O13 0.884388 0.000000 0.726175
O O14 0.333416 0.833416 0.750000
O O15 0.328446 0.856232 0.834836
O O16 0.325011 0.000000 0.782429
O O17 0.663744 0.134940 0.582417
O O18 0.777582 0.000000 0.557164
O O19 0.500000 0.122197 0.861349
O O20 0.371520 0.000000 0.885214
#
# Coordination Sequence:
#
# PCOD8310786 Si02
#       7
#    16  16  16  16  16  16  16
#     4   9  18  32  49  71  98 127 159 194 233 278
#     4  10  19  31  48  69  94 124 157 195 238 283
#     4   9  18  32  49  70  96 124 156 196 240 285
#     4   9  19  34  48  64  90 127 168 201 229 269
#     4  10  19  31  49  71  96 126 156 192 238 283
#     4   9  18  32  50  71  96 127 160 194 233 278
#     4   9  18  32  50  73  97 120 153 197 242 288
#
# _framework density 17.718156
#
# number of rings (size 3 to 8) (size 9 to 14) (size 15 to 20)
#    0.000    2.714    0.000    1.286    0.000    4.571 
#    0.000    6.429    0.000    2.571    0.000    0.000 
#    0.000    0.000    0.000    3.143    0.000    1.857 
#
# Total GULP energy -694204.777350 kJ/mol
# GULP energy per Si atom -12396.513881 kJ/mol
# Density = 1.767783 g / cm^3
# Si number density = 17.718156 Si / 1000 Ang^3
#
#
#
# Elastic Constant Matrix: (Units=GPa)
#
#
# Indices 1 2 3 4 5 6 
#
# 1 95.1115 50.8120 68.2089 0.0000 0.0000 0.0000
# 2 50.8120 95.1115 68.2089 0.0000 0.0000 0.0000
# 3 68.2089 68.2089 131.6004 0.0000 0.0000 0.0000
# 4 0.0000 0.0000 0.0000 23.3300 0.0000 0.0000
# 5 0.0000 0.0000 0.0000 0.0000 23.3300 0.0000
# 6 0.0000 0.0000 0.0000 0.0000 0.0000 19.7610
#
#
#
# Elastic Compliance Matrix: (Units=1/GPa)
#
#
# Indices 1 2 3 4 5 6 
#
# 1 0.017934 -0.004639 -0.006891 0.000000 0.000000 0.000000
# 2 -0.004639 0.017934 -0.006891 0.000000 0.000000 0.000000
# 3 -0.006891 -0.006891 0.014742 0.000000 0.000000 0.000000
# 4 0.000000 0.000000 0.000000 0.042863 0.000000 0.000000
# 5 0.000000 0.000000 0.000000 0.000000 0.042863 0.000000
# 6 0.000000 0.000000 0.000000 0.000000 0.000000 0.050605
#
#
# Mechanical properties :
#
#
# Convention : Reuss Voigt Hill
#
# Bulk Modulus (GPa) = 72.63025 77.36476 74.99751
# Shear Modulus (GPa) = 21.89406 22.25711 22.07558
#
# Velocity S-wave (km/s) = 3.51904 3.54810 3.53360
# Velocity P-wave (km/s) = 7.58898 7.78102 7.68560
#
# Compressibility (1/GPa) = 0.01376837
#
# Stress axis : x y z
#
# Youngs Moduli (GPa) = 55.75941 55.75941 67.83484
#
# Poissons Ratio (x) = 0.25869 0.46743
# Poissons Ratio (y) = 0.25869 0.46743
# Poissons Ratio (z) = 0.38422 0.38422
#
# Static dielectric constant tensor:
#      x y z
#    x 3.401530 0.000000 0.000000 
#    y 0.000000 3.401530 0.000000 
#    z 0.000000 0.000000 3.277970 
# 
# 
# High freq. dielectric constant tensor:
#      x y z
#    x 1.681810 0.000000 0.000000 
#    y 0.000000 1.681810 0.000000 
#    z 0.000000 0.000000 1.670080 
# 
# From -- ./inp_files/9625.got.cif
#   From: 2010.03.12/outbox.cif.g09.slc.cpg/sg119_5_cif.got.tgz:9625.got - 2010.04.14 02:25:26.
