data_PCOD8310296
_publ_section_title
;
Structure prediction by ZEFSAII (Michael W. Deem and Ramdas Pophale) SiO2 
 PCOD8310296
Probable space group: P -4 B 2
;
_chemical_formula_sum "Si O2"
_cell_formula_units_Z 56
_cell_length_a 13.334643
_cell_length_b 13.334643
_cell_length_c 17.174940
_cell_angle_alpha 90.000000
_cell_angle_beta 90.000000
_cell_angle_gamma 90.000000
_cell_volume 3053.922521
_symmetry_space_group_name_H-M "P -4 B 2"
_symmetry_group_IT_number 117
_symmetry_cell_setting 'tetragonal'
loop_
_space_group_symop_operation_xyz
x,y,z
y,-x,-z
-x,-y,z
-y,x,-z
1/2+y,1/2+x,-z
1/2-y,1/2-x,-z
1/2-x,1/2+y,z
1/2+x,1/2-y,z
loop_
_atom_site_type_symbol
_atom_site_label
_atom_site_fract_x
_atom_site_fract_y
_atom_site_fract_z
Si Si1 0.743446 0.900253 0.036427
Si Si2 0.256647 0.915842 0.773232
Si Si3 0.239549 0.093642 0.210764
Si Si4 0.097740 0.549858 0.411209
Si Si5 0.905040 0.727989 0.049209
Si Si6 0.625549 0.765008 0.304296
Si Si7 0.093248 0.274960 0.681720
O O1 0.730034 0.938425 0.124221
O O2 0.825635 0.814648 0.035808
O O3 0.640082 0.859919 0.000000
O O4 0.775417 0.992980 0.983305
O O5 0.145671 0.868361 0.779224
O O6 0.302086 0.920587 0.860420
O O7 0.336594 0.859950 0.718751
O O8 0.234043 0.020607 0.732197
O O9 0.316349 0.180710 0.234926
O O10 0.241564 0.991935 0.258643
O O11 0.073541 0.573541 0.500000
O O12 0.120726 0.657432 0.375146
O O13 0.185803 0.466922 0.395601
O O14 0.000000 0.500000 0.371156
O O15 0.870043 0.629958 0.000000
O O16 0.680263 0.664748 0.337090
#
# Coordination Sequence:
#
# PCOD8310296 Si02
#       7
#     8   8   8   8   8   8   8
#     4  10  20  35  49  73 104 141 185 236 280 336
#     4  10  19  34  54  78 105 146 190 235 283 337
#     4   9  20  33  53  77 106 144 188 230 287 333
#     4  10  20  39  62  86 114 146 181 222 271 334
#     4  10  21  34  51  73 105 143 187 236 286 331
#     4  10  20  36  58  83 110 145 183 228 278 334
#     4  10  20  37  57  84 113 144 183 232 276 338
#
# _framework density 18.337073
#
# number of rings (size 3 to 8) (size 9 to 14) (size 15 to 20)
#    0.000    2.143    1.429    1.714    0.000    4.571 
#    2.571    5.714    0.000    0.000    0.000    0.000 
#    0.000    0.000    0.000    0.000    0.000    0.000 
#
# Total GULP energy -694059.077646 kJ/mol
# GULP energy per Si atom -12393.912101 kJ/mol
# Density = 1.829534 g / cm^3
# Si number density = 18.337073 Si / 1000 Ang^3
#
#
#
# Elastic Constant Matrix: (Units=GPa)
#
#
# Indices 1 2 3 4 5 6 
#
# 1 101.4409 42.0095 46.1795 0.0000 0.0000 0.0000
# 2 42.0095 101.4407 46.1795 0.0000 0.0000 0.0000
# 3 46.1795 46.1795 95.4846 0.0000 0.0000 0.0000
# 4 0.0000 0.0000 0.0000 18.9726 0.0000 0.0000
# 5 0.0000 0.0000 0.0000 0.0000 18.9727 0.0000
# 6 0.0000 0.0000 0.0000 0.0000 0.0000 20.8420
#
#
#
# Elastic Compliance Matrix: (Units=1/GPa)
#
#
# Indices 1 2 3 4 5 6 
#
# 1 0.013475 -0.003351 -0.004896 0.000000 0.000000 0.000000
# 2 -0.003351 0.013475 -0.004896 0.000000 0.000000 0.000000
# 3 -0.004896 -0.004896 0.015209 0.000000 0.000000 0.000000
# 4 0.000000 0.000000 0.000000 0.052708 0.000000 0.000000
# 5 0.000000 0.000000 0.000000 0.000000 0.052707 0.000000
# 6 0.000000 0.000000 0.000000 0.000000 0.000000 0.047980
#
#
# Mechanical properties :
#
#
# Convention : Reuss Voigt Hill
#
# Bulk Modulus (GPa) = 63.00673 63.01146 63.00909
# Shear Modulus (GPa) = 22.01382 22.69064 22.35223
#
# Velocity S-wave (km/s) = 3.46860 3.52151 3.49515
# Velocity P-wave (km/s) = 7.10468 7.13948 7.12210
#
# Compressibility (1/GPa) = 0.01587132
#
# Stress axis : x y z
#
# Youngs Moduli (GPa) = 74.21325 74.21303 65.75243
#
# Poissons Ratio (x) = 0.24872 0.32192
# Poissons Ratio (y) = 0.24872 0.32192
# Poissons Ratio (z) = 0.36334 0.36334
#
# Static dielectric constant tensor:
#      x y z
#    x 3.466850 0.000000 0.000000 
#    y 0.000000 3.466850 0.000000 
#    z 0.000000 0.000000 3.315990 
# 
# 
# High freq. dielectric constant tensor:
#      x y z
#    x 1.712890 0.000000 0.000000 
#    y 0.000000 1.712890 0.000000 
#    z 0.000000 0.000000 1.702910 
# 
# From -- ./inp_files/3238.got.cif
#   From: 2010.03.12/outbox.cif.g09.slc.cpg/sg117_2_cif.got.tgz:3238.got - 2010.04.14 02:19:01.
