data_PCOD8310198
_publ_section_title
;
Structure prediction by ZEFSAII (Michael W. Deem and Ramdas Pophale) SiO2 
 PCOD8310198
Probable space group: P -4 C 2
;
_chemical_formula_sum "Si O2"
_cell_formula_units_Z 42
_cell_length_a 13.924689
_cell_length_b 13.924689
_cell_length_c 9.628677
_cell_angle_alpha 90.000000
_cell_angle_beta 90.000000
_cell_angle_gamma 90.000000
_cell_volume 1866.971235
_symmetry_space_group_name_H-M "P -4 C 2"
_symmetry_group_IT_number 116
_symmetry_cell_setting 'tetragonal'
loop_
_space_group_symop_operation_xyz
x,y,z
y,-x,-z
-x,-y,z
-y,x,-z
y,x,1/2-z
-y,-x,1/2-z
-x,y,1/2+z
x,-y,1/2+z
loop_
_atom_site_type_symbol
_atom_site_label
_atom_site_fract_x
_atom_site_fract_y
_atom_site_fract_z
Si Si1 0.425186 0.798194 0.584365
Si Si2 0.953381 0.204971 0.571604
Si Si3 0.591133 0.735876 0.778559
Si Si4 0.000000 0.000000 0.000000
Si Si5 0.305003 0.080075 0.720939
Si Si6 0.768869 0.768869 0.250000
Si Si7 0.000000 0.500000 0.859910
O O1 0.494897 0.749440 0.693571
O O2 0.434153 0.745399 0.439199
O O3 0.320106 0.778583 0.645981
O O4 0.458097 0.909027 0.553595
O O5 0.949492 0.244069 0.414590
O O6 0.861618 0.240093 0.654277
O O7 0.957475 0.089419 0.586206
O O8 0.049425 0.246295 0.642503
O O9 0.628861 0.628861 0.750000
O O10 0.676630 0.806830 0.727779
O O11 0.410035 0.031584 0.733398
#
# Coordination Sequence:
#
# PCOD8310198 Si02
#       7
#     8   8   8   2   8   4   4
#     4  11  26  45  79 109 153 195 253 321 386 466
#     4  12  27  47  68 104 145 205 250 318 370 470
#     4  11  27  47  75 112 149 193 248 314 387 462
#     4  12  32  46  68 102 156 210 272 294 380 470
#     4  11  25  42  75 103 147 188 249 312 388 443
#     4  12  26  47  75 104 148 200 252 316 402 458
#     4  10  22  44  68 116 140 186 250 318 386 440
#
# _framework density 22.496331999999999
#
# number of rings (size 3 to 8) (size 9 to 14) (size 15 to 20)
#    0.000    0.762    1.905    3.429   13.333    6.476 
#    0.000    0.476    0.000    0.000    0.000    0.000 
#    0.000    0.000    0.000    0.000    0.000    0.000 
#
# Total GULP energy -520706.989372 kJ/mol
# GULP energy per Si atom -12397.785461 kJ/mol
# Density = 2.244513 g / cm^3
# Si number density = 22.496332 Si / 1000 Ang^3
#
#
#
# Elastic Constant Matrix: (Units=GPa)
#
#
# Indices 1 2 3 4 5 6 
#
# 1 84.6979 14.5117 28.1019 0.0000 0.0000 0.0000
# 2 14.5117 84.6979 28.1019 0.0000 0.0000 0.0000
# 3 28.1019 28.1019 140.6383 0.0000 0.0000 0.0000
# 4 0.0000 0.0000 0.0000 15.2921 0.0000 0.0000
# 5 0.0000 0.0000 0.0000 0.0000 15.2921 0.0000
# 6 0.0000 0.0000 0.0000 0.0000 0.0000 42.7767
#
#
#
# Elastic Compliance Matrix: (Units=1/GPa)
#
#
# Indices 1 2 3 4 5 6 
#
# 1 0.012807 -0.001441 -0.002271 0.000000 0.000000 0.000000
# 2 -0.001441 0.012807 -0.002271 0.000000 0.000000 0.000000
# 3 -0.002271 -0.002271 0.008018 0.000000 0.000000 0.000000
# 4 0.000000 0.000000 0.000000 0.065393 0.000000 0.000000
# 5 0.000000 0.000000 0.000000 0.000000 0.065393 0.000000
# 6 0.000000 0.000000 0.000000 0.000000 0.000000 0.023377
#
#
# Mechanical properties :
#
#
# Convention : Reuss Voigt Hill
#
# Bulk Modulus (GPa) = 46.15524 50.16278 48.15901
# Shear Modulus (GPa) = 24.15648 30.62678 27.39163
#
# Velocity S-wave (km/s) = 3.28044 3.69373 3.49320
# Velocity P-wave (km/s) = 5.90844 6.36696 6.14198
#
# Compressibility (1/GPa) = 0.02166601
#
# Stress axis : x y z
#
# Youngs Moduli (GPa) = 78.08184 78.08184 124.71819
#
# Poissons Ratio (x) = 0.11250 0.28326
# Poissons Ratio (y) = 0.11250 0.28326
# Poissons Ratio (z) = 0.17734 0.17734
#
# Static dielectric constant tensor:
#      x y z
#    x 4.219490 0.000000 0.000000 
#    y 0.000000 4.219490 0.000000 
#    z 0.000000 0.000000 3.965280 
# 
# 
# High freq. dielectric constant tensor:
#      x y z
#    x 1.893460 0.000000 0.000000 
#    y 0.000000 1.893460 0.000000 
#    z 0.000000 0.000000 1.885700 
# 
# From -- ./inp_files/873.got.cif
#   From: 2010.03.12/outbox.cif.g09.slc.cpg/sg116_1_cif.got.tgz:873.got - 2010.04.14 02:15:44.
