data_PCOD8310638
_publ_section_title
;
Structure prediction by ZEFSAII (Michael W. Deem and Ramdas Pophale) SiO2 
 PCOD8310638
Probable space group: P -4 N 2
;
_chemical_formula_sum "Si O2"
_cell_formula_units_Z 48
_cell_length_a 8.879197
_cell_length_b 8.879197
_cell_length_c 29.758700
_cell_angle_alpha 90.000000
_cell_angle_beta 90.000000
_cell_angle_gamma 90.000000
_cell_volume 2346.180055
_symmetry_space_group_name_H-M "P -4 N 2"
_symmetry_group_IT_number 118
_symmetry_cell_setting 'tetragonal'
loop_
_space_group_symop_operation_xyz
x,y,z
y,-x,-z
-x,-y,z
-y,x,-z
1/2+y,1/2+x,1/2-z
1/2-y,1/2-x,1/2-z
1/2-x,1/2+y,1/2+z
1/2+x,1/2-y,1/2+z
loop_
_atom_site_type_symbol
_atom_site_label
_atom_site_fract_x
_atom_site_fract_y
_atom_site_fract_z
Si Si1 0.000000 0.500000 0.442680
Si Si2 0.989790 0.672586 0.894922
Si Si3 0.855243 0.708865 0.125483
Si Si4 0.986460 0.237598 0.992943
Si Si5 0.000000 0.000000 0.234700
Si Si6 0.534958 0.211746 0.786272
Si Si7 0.658122 0.710929 0.669881
O O1 0.078314 0.368289 0.412701
O O2 0.128678 0.571560 0.474684
O O3 0.149704 0.752859 0.886792
O O4 0.946304 0.700483 0.946533
O O5 0.000000 0.500000 0.884668
O O6 0.849488 0.713978 0.862986
O O7 0.790416 0.635563 0.170000
O O8 0.021735 0.765803 0.135709
O O9 0.123449 0.150396 0.017571
O O10 0.926293 0.872742 0.265407
O O11 0.128690 0.924309 0.204559
O O12 0.583715 0.083715 0.750000
O O13 0.359882 0.193628 0.800802
#
# Coordination Sequence:
#
# PCOD8310638 Si02
#       7
#     4   8   8   8   4   8   8
#     4  12  22  42  69 104 126 184 233 286 340 412
#     4  12  26  45  65 102 146 175 221 288 363 415
#     4  12  24  44  70  98 134 180 236 282 336 412
#     4  11  24  41  70  99 133 177 232 286 342 412
#     4  12  26  40  68  98 141 169 230 276 346 398
#     4  12  26  45  70 100 135 186 235 287 336 405
#     4  12  24  44  70 100 129 184 233 292 329 413
#
# _framework density 20.458786
#
# number of rings (size 3 to 8) (size 9 to 14) (size 15 to 20)
#    0.000    0.167    7.500    1.500    7.000    0.000 
#    0.000    0.000    0.000    2.500    0.000    0.000 
#    0.000    0.000    0.000    0.000    0.000    0.000 
#
# Total GULP energy -595006.917163 kJ/mol
# GULP energy per Si atom -12395.977441 kJ/mol
# Density = 2.041222 g / cm^3
# Si number density = 20.458786 Si / 1000 Ang^3
#
#
#
# Elastic Constant Matrix: (Units=GPa)
#
#
# Indices 1 2 3 4 5 6 
#
# 1 82.3194 84.8211 50.9503 0.0000 0.0000 0.0000
# 2 84.8211 82.3194 50.9503 0.0000 0.0000 0.0000
# 3 50.9503 50.9503 137.8041 0.0000 0.0000 0.0000
# 4 0.0000 0.0000 0.0000 39.4746 0.0000 0.0000
# 5 0.0000 0.0000 0.0000 0.0000 39.4746 0.0000
# 6 0.0000 0.0000 0.0000 0.0000 0.0000 17.9553
#
#
#
# Elastic Compliance Matrix: (Units=1/GPa)
#
#
# Indices 1 2 3 4 5 6 
#
# 1 -0.196000 0.203724 -0.002856 0.000000 0.000000 0.000000
# 2 0.203724 -0.196000 -0.002856 0.000000 0.000000 0.000000
# 3 -0.002856 -0.002856 0.009368 0.000000 0.000000 0.000000
# 4 0.000000 0.000000 0.000000 0.025333 0.000000 0.000000
# 5 0.000000 0.000000 0.000000 0.000000 0.025333 0.000000
# 6 0.000000 0.000000 0.000000 0.000000 0.000000 0.055694
#
#
# Mechanical properties :
#
#
# Convention : Reuss Voigt Hill
#
# Bulk Modulus (GPa) = 74.66403 75.09849 74.88126
# Shear Modulus (GPa) = -7.48689 27.09563 9.80437
#
# Velocity S-wave (km/s) = -1.91506 3.64318 2.19150
# Velocity P-wave (km/s) = 5.62887 7.38132 6.56384
#
# Compressibility (1/GPa) = 0.01339333
#
# Stress axis : x y z
#
# Youngs Moduli (GPa) = -5.10203 -5.10203 106.74112
#
# Poissons Ratio (x) = 1.03941 0.30484
# Poissons Ratio (y) = 1.03941 0.30484
# Poissons Ratio (z) = -0.01457 -0.01457
#
# Static dielectric constant tensor:
#      x y z
#    x 3.872140 0.000000 0.000000 
#    y 0.000000 3.872140 0.000000 
#    z 0.000000 0.000000 4.023130 
# 
# 
# High freq. dielectric constant tensor:
#      x y z
#    x 1.791540 0.000000 0.000000 
#    y 0.000000 1.791540 0.000000 
#    z 0.000000 0.000000 1.828090 
# 
# From -- ./inp_files/6929.got.cif
#   From: 2010.03.12/outbox.cif.g09.slc.cpg/sg118_4_cif.got.tgz:6929.got - 2010.04.14 02:21:17.
