data_PCOD8310966
_publ_section_title
;
Structure prediction by ZEFSAII (Michael W. Deem and Ramdas Pophale) SiO2 
 PCOD8310966
Probable space group: I -4 M 2
;
_chemical_formula_sum "Si O2"
_cell_formula_units_Z 96
_cell_length_a 26.560620
_cell_length_b 26.560620
_cell_length_c 10.070437
_cell_angle_alpha 90.000000
_cell_angle_beta 90.000000
_cell_angle_gamma 90.000000
_cell_volume 7104.356294
_symmetry_space_group_name_H-M "I -4 M 2"
_symmetry_group_IT_number 119
_symmetry_cell_setting 'tetragonal'
loop_
_space_group_symop_operation_xyz
x,y,z
y,-x,-z
-x,-y,z
-y,x,-z
y,x,-z
-y,-x,-z
-x,y,z
x,-y,z
1/2+x,1/2+y,1/2+z
1/2+y,1/2-x,1/2-z
1/2-x,1/2-y,1/2+z
1/2-y,1/2+x,1/2-z
1/2+y,1/2+x,1/2-z
1/2-y,1/2-x,1/2-z
1/2-x,1/2+y,1/2+z
1/2+x,1/2-y,1/2+z
loop_
_atom_site_type_symbol
_atom_site_label
_atom_site_fract_x
_atom_site_fract_y
_atom_site_fract_z
Si Si1 0.790154 0.874914 0.995443
Si Si2 0.169807 0.748672 0.249998
Si Si3 0.440798 0.374511 0.905049
Si Si4 0.625087 0.290154 0.995439
Si Si5 0.246758 0.335320 0.750001
Si Si6 0.940798 0.125489 0.094950
O O1 0.751658 0.865549 0.877042
O O2 0.819854 0.926945 0.967651
O O3 0.831938 0.831938 0.000000
O O4 0.755620 0.872851 0.126315
O O5 0.194058 0.694058 0.250000
O O6 0.134450 0.751659 0.377036
O O7 0.212241 0.791470 0.249998
O O8 0.500000 0.381500 0.910052
O O9 0.426944 0.319855 0.967652
O O10 0.421792 0.378702 0.750000
O O11 0.417141 0.417141 0.000000
O O12 0.668064 0.331937 0.000000
O O13 0.627150 0.255619 0.126310
O O14 0.191264 0.308737 0.750000
O O15 0.000000 0.118499 0.089950
O O16 0.917141 0.082860 0.000000
#
# Coordination Sequence:
#
# PCOD8310966 Si02
#       6
#    16  16  16  16  16  16
#     4   9  16  26  39  57  77 101 121 152 193 234
#     4   9  14  22  37  56  77  99 122 141 177 232
#     4  10  21  35  48  61  76  97 129 172 219 259
#     4   9  16  26  39  57  77 101 121 152 193 234
#     4   9  16  24  37  58  83 103 122 145 177 228
#     4  10  21  35  48  61  76  97 129 172 219 259
#
# _framework density 13.512836
#
# number of rings (size 3 to 8) (size 9 to 14) (size 15 to 20)
#    0.000    2.667    1.667    1.000    7.000    5.000 
#    0.000    1.667    0.000    0.000    0.000    0.000 
#    0.000    0.000    0.000    0.000    0.000    0.000 
#
# Total GULP energy -594665.183272 kJ/mol
# GULP energy per Si atom -12388.857985 kJ/mol
# Density = 1.348208 g / cm^3
# Si number density = 13.512836 Si / 1000 Ang^3
#
#
#
# Elastic Constant Matrix: (Units=GPa)
#
#
# Indices 1 2 3 4 5 6 
#
# 1 37.4914 37.6712 36.9235 0.0000 0.0000 0.0000
# 2 37.6712 37.4913 36.9237 0.0000 0.0000 0.0000
# 3 36.9235 36.9237 130.5316 0.0000 0.0000 0.0000
# 4 0.0000 0.0000 0.0000 -2.1810 0.0000 0.0000
# 5 0.0000 0.0000 0.0000 0.0000 -2.1700 0.0000
# 6 0.0000 0.0000 0.0000 0.0000 0.0000 15.3851
#
#
#
# Elastic Compliance Matrix: (Units=1/GPa)
#
#
# Indices 1 2 3 4 5 6 
#
# 1 -2.770972 2.789409 -0.005219 0.000000 0.000000 0.000000
# 2 2.789409 -2.770994 -0.005205 0.000000 0.000000 0.000000
# 3 -0.005219 -0.005205 0.010610 0.000000 0.000000 0.000000
# 4 0.000000 0.000000 0.000000 -0.458508 0.000000 0.000000
# 5 0.000000 0.000000 0.000000 0.000000 -0.460833 0.000000
# 6 0.000000 0.000000 0.000000 0.000000 0.000000 0.064998
#
#
# Mechanical properties :
#
#
# Convention : Reuss Voigt Hill
#
# Bulk Modulus (GPa) = 37.57671 47.61682 42.59677
# Shear Modulus (GPa) = -0.41894 8.47322 4.02714
#
# Velocity S-wave (km/s) = -0.55741 2.50681 1.72821
# Velocity P-wave (km/s) = 5.23968 6.61011 5.96439
#
# Compressibility (1/GPa) = 0.02661223
#
# Stress axis : x y z
#
# Youngs Moduli (GPa) = -0.36088 -0.36088 94.25411
#
# Poissons Ratio (x) = 1.00665 0.49190
# Poissons Ratio (y) = 1.00665 0.49060
# Poissons Ratio (z) = -0.00188 -0.00188
#
# Static dielectric constant tensor:
#      x y z
#    x 2.466700 0.000000 0.000000 
#    y 0.000000 2.466700 0.000000 
#    z 0.000000 0.000000 3.104530 
# 
# 
# High freq. dielectric constant tensor:
#      x y z
#    x 1.472390 0.000000 0.000000 
#    y 0.000000 1.472390 0.000000 
#    z 0.000000 0.000000 1.541580 
# 
# From -- ./inp_files/2807.got.cif
#   From: 2010.03.12/outbox.cif.g09.slc.cpg/sg119_2_cif.got.tgz:2807.got - 2010.04.14 02:25:26.
