data_PCOD8310816
_publ_section_title
;
Structure prediction by ZEFSAII (Michael W. Deem and Ramdas Pophale) SiO2 
 PCOD8310816
Probable space group: I -4 M 2
;
_chemical_formula_sum "Si O2"
_cell_formula_units_Z 96
_cell_length_a 17.177236
_cell_length_b 17.177236
_cell_length_c 18.587807
_cell_angle_alpha 90.000000
_cell_angle_beta 90.000000
_cell_angle_gamma 90.000000
_cell_volume 5484.470685
_symmetry_space_group_name_H-M "I -4 M 2"
_symmetry_group_IT_number 119
_symmetry_cell_setting 'tetragonal'
loop_
_space_group_symop_operation_xyz
x,y,z
y,-x,-z
-x,-y,z
-y,x,-z
y,x,-z
-y,-x,-z
-x,y,z
x,-y,z
1/2+x,1/2+y,1/2+z
1/2+y,1/2-x,1/2-z
1/2-x,1/2-y,1/2+z
1/2-y,1/2+x,1/2-z
1/2+y,1/2+x,1/2-z
1/2-y,1/2-x,1/2-z
1/2-x,1/2+y,1/2+z
1/2+x,1/2-y,1/2+z
loop_
_atom_site_type_symbol
_atom_site_label
_atom_site_fract_x
_atom_site_fract_y
_atom_site_fract_z
Si Si1 0.339377 0.586913 0.207837
Si Si2 0.299453 0.799718 0.052930
Si Si3 0.412598 0.910630 0.968981
Si Si4 0.299159 0.714048 0.310282
Si Si5 0.665968 0.871207 0.674933
Si Si6 0.656909 0.410584 0.928167
O O1 0.356798 0.500000 0.236130
O O2 0.353220 0.647368 0.274076
O O3 0.251215 0.591089 0.178904
O O4 0.397324 0.604025 0.141923
O O5 0.256811 0.839282 0.121975
O O6 0.356043 0.731755 0.079929
O O7 0.234105 0.765896 0.000000
O O8 0.350235 0.865539 0.015997
O O9 0.500000 0.898348 0.999403
O O10 0.412651 0.881865 0.887041
O O11 0.388058 0.000000 0.970971
O O12 0.278039 0.778039 0.250000
O O13 0.220580 0.674537 0.340873
O O14 0.619040 0.880960 0.750000
O O15 0.683611 0.500000 0.931859
O O16 0.609130 0.390871 0.000000
#
# Coordination Sequence:
#
# PCOD8310816 Si02
#       6
#    16  16  16  16  16  16
#     4  10  19  32  52  81 111 139 168 209 264 323
#     4  11  19  37  57  76 100 141 188 220 256 317
#     4  11  23  35  50  79 115 145 177 225 276 317
#     4   9  17  34  54  76 100 133 179 217 251 302
#     4   9  17  32  53  76 107 144 172 205 252 325
#     4  11  21  32  51  77 108 144 174 208 261 324
#
# _framework density 17.503969000000001
#
# number of rings (size 3 to 8) (size 9 to 14) (size 15 to 20)
#    0.000    2.167    5.000    2.500    0.000    4.500 
#    0.000    1.667    0.000    0.000    0.000    1.167 
#    0.000    0.333    0.000    0.000    0.000    0.000 
#
# Total GULP energy -595057.335812 kJ/mol
# GULP energy per Si atom -12397.027829 kJ/mol
# Density = 1.746413 g / cm^3
# Si number density = 17.503969 Si / 1000 Ang^3
#
#
#
# Elastic Constant Matrix: (Units=GPa)
#
#
# Indices 1 2 3 4 5 6 
#
# 1 61.8018 27.2931 51.4828 0.0000 0.0000 0.0000
# 2 27.2931 61.8014 51.4823 0.0000 0.0000 0.0000
# 3 51.4828 51.4823 123.3442 0.0000 0.0000 0.0000
# 4 0.0000 0.0000 0.0000 18.3363 0.0000 0.0000
# 5 0.0000 0.0000 0.0000 0.0000 18.3356 0.0000
# 6 0.0000 0.0000 0.0000 0.0000 0.0000 20.1598
#
#
#
# Elastic Compliance Matrix: (Units=1/GPa)
#
#
# Indices 1 2 3 4 5 6 
#
# 1 0.025331 -0.003647 -0.009050 0.000000 0.000000 0.000000
# 2 -0.003647 0.025331 -0.009050 0.000000 0.000000 0.000000
# 3 -0.009050 -0.009050 0.015662 0.000000 0.000000 0.000000
# 4 0.000000 0.000000 0.000000 0.054536 0.000000 0.000000
# 5 0.000000 0.000000 0.000000 0.000000 0.054539 0.000000
# 6 0.000000 0.000000 0.000000 0.000000 0.000000 0.049604
#
#
# Mechanical properties :
#
#
# Convention : Reuss Voigt Hill
#
# Bulk Modulus (GPa) = 43.80656 56.38486 50.09571
# Shear Modulus (GPa) = 18.10880 19.14564 18.62722
#
# Velocity S-wave (km/s) = 3.21994 3.31084 3.26570
# Velocity P-wave (km/s) = 6.23739 6.84822 6.54992
#
# Compressibility (1/GPa) = 0.02282763
#
# Stress axis : x y z
#
# Youngs Moduli (GPa) = 39.47749 39.47751 63.84680
#
# Poissons Ratio (x) = 0.14399 0.57784
# Poissons Ratio (y) = 0.14399 0.57784
# Poissons Ratio (z) = 0.35729 0.35729
#
# Static dielectric constant tensor:
#      x y z
#    x 3.087700 0.000000 0.000000 
#    y 0.000000 3.087700 0.000000 
#    z 0.000000 0.000000 3.359340 
# 
# 
# High freq. dielectric constant tensor:
#      x y z
#    x 1.656160 0.000000 0.000000 
#    y 0.000000 1.656160 0.000000 
#    z 0.000000 0.000000 1.674820 
# 
# From -- ./inp_files/6639.got.cif
#   From: 2010.03.12/outbox.cif.g09.slc.cpg/sg119_4_cif.got.tgz:6639.got - 2010.04.14 02:25:26.
