data_PCOD8310740
_publ_section_title
;
Structure prediction by ZEFSAII (Michael W. Deem and Ramdas Pophale) SiO2 
 PCOD8310740
Probable space group: I -4 M 2
;
_chemical_formula_sum "Si O2"
_cell_formula_units_Z 80
_cell_length_a 13.715642
_cell_length_b 13.715642
_cell_length_c 25.907486
_cell_angle_alpha 90.000000
_cell_angle_beta 90.000000
_cell_angle_gamma 90.000000
_cell_volume 4873.686096
_symmetry_space_group_name_H-M "I -4 M 2"
_symmetry_group_IT_number 119
_symmetry_cell_setting 'tetragonal'
loop_
_space_group_symop_operation_xyz
x,y,z
y,-x,-z
-x,-y,z
-y,x,-z
y,x,-z
-y,-x,-z
-x,y,z
x,-y,z
1/2+x,1/2+y,1/2+z
1/2+y,1/2-x,1/2-z
1/2-x,1/2-y,1/2+z
1/2-y,1/2+x,1/2-z
1/2+y,1/2+x,1/2-z
1/2-y,1/2-x,1/2-z
1/2-x,1/2+y,1/2+z
1/2+x,1/2-y,1/2+z
loop_
_atom_site_type_symbol
_atom_site_label
_atom_site_fract_x
_atom_site_fract_y
_atom_site_fract_z
Si Si1 0.886856 0.888578 0.180583
Si Si2 0.888141 0.247718 0.723841
Si Si3 0.261030 0.612383 0.035149
Si Si4 0.109817 0.388283 0.948799
Si Si5 0.234110 0.737850 0.625133
O O1 0.843541 0.877499 0.237872
O O2 0.835290 0.812022 0.142264
O O3 0.000000 0.860863 0.182688
O O4 0.871449 0.000000 0.161111
O O5 0.845630 0.345630 0.750000
O O6 0.827305 0.220895 0.673036
O O7 0.000000 0.267979 0.709265
O O8 0.279740 0.500000 0.048924
O O9 0.247052 0.670983 0.087973
O O10 0.351131 0.648870 0.000000
O O11 0.162809 0.629146 0.003020
O O12 0.117378 0.500000 0.931578
O O13 0.154265 0.326752 0.902712
O O14 0.000000 0.353746 0.957387
#
# Coordination Sequence:
#
# PCOD8310740 Si02
#       5
#    16  16  16  16  16
#     4   9  18  32  48  67  93 123 153 187 231 281
#     4   9  18  31  46  67  94 120 148 185 230 279
#     4   9  19  33  47  67  95 126 159 193 231 276
#     4   9  17  30  48  69  94 120 146 184 234 282
#     4  10  18  30  49  71  92 119 156 195 229 271
#
# _framework density 16.414679
#
# number of rings (size 3 to 8) (size 9 to 14) (size 15 to 20)
#    0.000    2.800    0.000    1.200    0.000    3.600 
#    0.000    0.000    0.000    0.000    0.000    9.800 
#    0.000    0.000    0.000    0.000    0.000    0.000 
#
# Total GULP energy -496009.754396 kJ/mol
# GULP energy per Si atom -12400.243860 kJ/mol
# Density = 1.637732 g / cm^3
# Si number density = 16.414679 Si / 1000 Ang^3
#
#
#
# Elastic Constant Matrix: (Units=GPa)
#
#
# Indices 1 2 3 4 5 6 
#
# 1 118.7825 58.3114 57.9668 0.0000 0.0000 0.0000
# 2 58.3114 118.7839 57.9664 0.0000 0.0000 0.0000
# 3 57.9668 57.9664 100.1636 0.0000 0.0000 0.0000
# 4 0.0000 0.0000 0.0000 21.6089 0.0000 0.0000
# 5 0.0000 0.0000 0.0000 0.0000 21.6089 0.0000
# 6 0.0000 0.0000 0.0000 0.0000 0.0000 21.8500
#
#
#
# Elastic Compliance Matrix: (Units=1/GPa)
#
#
# Indices 1 2 3 4 5 6 
#
# 1 0.012814 -0.003723 -0.005261 0.000000 0.000000 0.000000
# 2 -0.003723 0.012814 -0.005261 0.000000 0.000000 0.000000
# 3 -0.005261 -0.005261 0.016073 0.000000 0.000000 0.000000
# 4 0.000000 0.000000 0.000000 0.046277 0.000000 0.000000
# 5 0.000000 0.000000 0.000000 0.000000 0.046277 0.000000
# 6 0.000000 0.000000 0.000000 0.000000 0.000000 0.045767
#
#
# Mechanical properties :
#
#
# Convention : Reuss Voigt Hill
#
# Bulk Modulus (GPa) = 75.69751 76.24659 75.97205
# Shear Modulus (GPa) = 23.48358 23.91259 23.69808
#
# Velocity S-wave (km/s) = 3.78649 3.82092 3.80374
# Velocity P-wave (km/s) = 8.08285 8.12508 8.10400
#
# Compressibility (1/GPa) = 0.01321047
#
# Stress axis : x y z
#
# Youngs Moduli (GPa) = 78.04061 78.04233 62.21629
#
# Poissons Ratio (x) = 0.29055 0.32733
# Poissons Ratio (y) = 0.29054 0.32731
# Poissons Ratio (z) = 0.41058 0.41057
#
# Static dielectric constant tensor:
#      x y z
#    x 3.106010 0.000000 0.000000 
#    y 0.000000 3.106010 0.000000 
#    z 0.000000 0.000000 3.072550 
# 
# 
# High freq. dielectric constant tensor:
#      x y z
#    x 1.629830 0.000000 0.000000 
#    y 0.000000 1.629830 0.000000 
#    z 0.000000 0.000000 1.632490 
# 
# From -- ./inp_files/7591.got.cif
#   From: 2010.03.12/outbox.cif.g09.slc.cpg/sg119_4_cif.got.tgz:7591.got - 2010.04.14 02:25:26.
