data_PCOD8310355
_publ_section_title
;
Structure prediction by ZEFSAII (Michael W. Deem and Ramdas Pophale) SiO2 
 PCOD8310355
Probable space group: P -4 B 2
;
_chemical_formula_sum "Si O2"
_cell_formula_units_Z 38
_cell_length_a 11.746127
_cell_length_b 11.746127
_cell_length_c 13.190854
_cell_angle_alpha 90.000000
_cell_angle_beta 90.000000
_cell_angle_gamma 90.000000
_cell_volume 1819.961906
_symmetry_space_group_name_H-M "P -4 B 2"
_symmetry_group_IT_number 117
_symmetry_cell_setting 'tetragonal'
loop_
_space_group_symop_operation_xyz
x,y,z
y,-x,-z
-x,-y,z
-y,x,-z
1/2+y,1/2+x,-z
1/2-y,1/2-x,-z
1/2-x,1/2+y,z
1/2+x,1/2-y,z
loop_
_atom_site_type_symbol
_atom_site_label
_atom_site_fract_x
_atom_site_fract_y
_atom_site_fract_z
Si Si1 0.398992 0.420002 0.246005
Si Si2 0.500000 0.000000 0.000000
Si Si3 0.372707 0.127294 0.500000
Si Si4 0.038341 0.660591 0.289439
Si Si5 0.641800 0.449163 0.446705
Si Si6 0.470630 0.842445 0.818296
O O1 0.500000 0.500000 0.201288
O O2 0.440551 0.291699 0.262512
O O3 0.356355 0.469043 0.351676
O O4 0.288004 0.428069 0.173465
O O5 0.505083 0.113407 0.931726
O O6 0.372787 0.032046 0.589177
O O7 0.373447 0.247291 0.556744
O O8 0.143361 0.588783 0.242821
O O9 0.919056 0.624797 0.238758
O O10 0.530882 0.366656 0.451761
#
# Coordination Sequence:
#
# PCOD8310355 Si02
#       6
#     8   2   4   8   8   8
#     4  12  23  40  67  98 137 177 227 273 327 408
#     4   8  20  52  76  90 136 166 206 296 364 390
#     4  12  20  35  58  89 130 186 230 264 303 388
#     4  10  23  39  62  96 136 176 225 275 321 389
#     4  11  21  38  51  85 132 185 220 258 324 363
#     4  10  24  45  71  98 125 177 219 278 356 400
#
# _framework density 20.879556999999998
#
# number of rings (size 3 to 8) (size 9 to 14) (size 15 to 20)
#    0.000    1.474    6.316    0.000    2.947    3.368 
#    0.000    4.211    0.000    0.000    0.000    0.000 
#    0.000    0.000    0.000    0.000    0.000    0.000 
#
# Total GULP energy -470773.926220 kJ/mol
# GULP energy per Si atom -12388.787532 kJ/mol
# Density = 2.083203 g / cm^3
# Si number density = 20.879557 Si / 1000 Ang^3
#
#
#
# Elastic Constant Matrix: (Units=GPa)
#
#
# Indices 1 2 3 4 5 6 
#
# 1 136.6335 64.1593 42.1563 0.0000 0.0000 0.0000
# 2 64.1593 136.6348 42.1561 0.0000 0.0000 0.0000
# 3 42.1563 42.1561 110.2535 0.0000 0.0000 0.0000
# 4 0.0000 0.0000 0.0000 21.4722 0.0000 0.0000
# 5 0.0000 0.0000 0.0000 0.0000 21.4723 0.0000
# 6 0.0000 0.0000 0.0000 0.0000 0.0000 27.9659
#
#
#
# Elastic Compliance Matrix: (Units=1/GPa)
#
#
# Indices 1 2 3 4 5 6 
#
# 1 0.009865 -0.003933 -0.002268 0.000000 0.000000 0.000000
# 2 -0.003933 0.009865 -0.002268 0.000000 0.000000 0.000000
# 3 -0.002268 -0.002268 0.010805 0.000000 0.000000 0.000000
# 4 0.000000 0.000000 0.000000 0.046572 0.000000 0.000000
# 5 0.000000 0.000000 0.000000 0.000000 0.046572 0.000000
# 6 0.000000 0.000000 0.000000 0.000000 0.000000 0.035758
#
#
# Mechanical properties :
#
#
# Convention : Reuss Voigt Hill
#
# Bulk Modulus (GPa) = 73.54839 75.60724 74.57782
# Shear Modulus (GPa) = 27.63841 29.85208 28.74524
#
# Velocity S-wave (km/s) = 3.64222 3.78528 3.71444
# Velocity P-wave (km/s) = 7.27937 7.44273 7.36150
#
# Compressibility (1/GPa) = 0.01359649
#
# Stress axis : x y z
#
# Youngs Moduli (GPa) = 101.36458 101.36579 92.55224
#
# Poissons Ratio (x) = 0.39863 0.20995
# Poissons Ratio (y) = 0.39862 0.20995
# Poissons Ratio (z) = 0.22994 0.22994
#
# Static dielectric constant tensor:
#      x y z
#    x 3.835280 0.000000 0.000000 
#    y 0.000000 3.835270 0.000000 
#    z 0.000000 0.000000 3.635390 
# 
# 
# High freq. dielectric constant tensor:
#      x y z
#    x 1.817280 0.000000 0.000000 
#    y 0.000000 1.817280 0.000000 
#    z 0.000000 0.000000 1.790880 
# 
# From -- ./inp_files/3148.got.cif
#   From: 2010.03.12/outbox.cif.g09.slc.cpg/sg117_2_cif.got.tgz:3148.got - 2010.04.14 02:19:01.
