data_PCOD8310119
_publ_section_title
;
Structure prediction by ZEFSAII (Michael W. Deem and Ramdas Pophale) SiO2 
 PCOD8310119
Probable space group: P -4 C 2
;
_chemical_formula_sum "Si O2"
_cell_formula_units_Z 32
_cell_length_a 13.899708
_cell_length_b 13.899708
_cell_length_c 9.365050
_cell_angle_alpha 90.000000
_cell_angle_beta 90.000000
_cell_angle_gamma 90.000000
_cell_volume 1809.345290
_symmetry_space_group_name_H-M "P -4 C 2"
_symmetry_group_IT_number 116
_symmetry_cell_setting 'tetragonal'
loop_
_space_group_symop_operation_xyz
x,y,z
y,-x,-z
-x,-y,z
-y,x,-z
y,x,1/2-z
-y,-x,1/2-z
-x,y,1/2+z
x,-y,1/2+z
loop_
_atom_site_type_symbol
_atom_site_label
_atom_site_fract_x
_atom_site_fract_y
_atom_site_fract_z
Si Si1 0.799595 0.912377 0.860407
Si Si2 0.105498 0.581954 0.526426
Si Si3 0.094821 0.410341 0.694107
Si Si4 0.213860 0.860974 0.889245
O O1 0.880603 0.880603 0.750000
O O2 0.697344 0.863481 0.816991
O O3 0.795893 0.026782 0.855940
O O4 0.829054 0.875162 0.014518
O O5 0.157715 0.490115 0.604652
O O6 0.086829 0.559221 0.360090
O O7 0.163621 0.682119 0.541015
O O8 0.007989 0.593894 0.616232
O O9 0.204275 0.795726 0.750000
#
# Coordination Sequence:
#
# PCOD8310119 Si02
#       4
#     8   8   8   8
#     4  11  22  38  50  76 107 145 184 218 258 302
#     4  10  20  34  53  76  96 134 173 226 276 308
#     4  10  20  33  55  72 101 129 176 225 274 313
#     4  11  24  34  54  74 108 146 185 218 254 311
#
# _framework density 17.685953999999999
#
# number of rings (size 3 to 8) (size 9 to 14) (size 15 to 20)
#    0.000    1.500    2.500    4.500   14.000    3.000 
#    0.000    0.000    0.000    0.000    0.000    0.000 
#    0.000    6.000    0.000    0.000    0.000    0.000 
#
# Total GULP energy -396464.391459 kJ/mol
# GULP energy per Si atom -12389.512233 kJ/mol
# Density = 1.764570 g / cm^3
# Si number density = 17.685954 Si / 1000 Ang^3
#
#
#
# Elastic Constant Matrix: (Units=GPa)
#
#
# Indices 1 2 3 4 5 6 
#
# 1 86.2481 4.0601 25.6290 0.0000 0.0000 0.0000
# 2 4.0601 86.2474 25.6319 0.0000 0.0000 0.0000
# 3 25.6290 25.6319 148.9736 0.0000 0.0000 0.0000
# 4 0.0000 0.0000 0.0000 22.0981 0.0000 0.0000
# 5 0.0000 0.0000 0.0000 0.0000 22.0984 0.0000
# 6 0.0000 0.0000 0.0000 0.0000 0.0000 2.6918
#
#
#
# Elastic Compliance Matrix: (Units=1/GPa)
#
#
# Indices 1 2 3 4 5 6 
#
# 1 0.012219 0.000052 -0.002111 0.000000 0.000000 0.000000
# 2 0.000052 0.012220 -0.002111 0.000000 0.000000 0.000000
# 3 -0.002111 -0.002111 0.007439 0.000000 0.000000 0.000000
# 4 0.000000 0.000000 0.000000 0.045253 0.000000 0.000000
# 5 0.000000 0.000000 0.000000 0.000000 0.045252 0.000000
# 6 0.000000 0.000000 0.000000 0.000000 0.000000 0.371505
#
#
# Mechanical properties :
#
#
# Convention : Reuss Voigt Hill
#
# Bulk Modulus (GPa) = 42.48594 48.01235 45.24915
# Shear Modulus (GPa) = 9.80248 27.12086 18.46167
#
# Velocity S-wave (km/s) = 2.35681 3.92020 3.23439
# Velocity P-wave (km/s) = 5.61076 6.90628 6.29195
#
# Compressibility (1/GPa) = 0.02353720
#
# Stress axis : x y z
#
# Youngs Moduli (GPa) = 81.83743 81.83573 134.42513
#
# Poissons Ratio (x) = -0.00427 0.28379
# Poissons Ratio (y) = -0.00427 0.28383
# Poissons Ratio (z) = 0.17277 0.17279
#
# Static dielectric constant tensor:
#      x y z
#    x 3.826130 0.000000 0.000000 
#    y 0.000000 3.826120 0.000000 
#    z 0.000000 0.000000 2.642590 
# 
# 
# High freq. dielectric constant tensor:
#      x y z
#    x 1.656580 0.000000 0.000000 
#    y 0.000000 1.656580 0.000000 
#    z 0.000000 0.000000 1.709820 
# 
# From -- ./inp_files/629.got.cif
#   From: 2010.03.12/outbox.cif.g09.slc.cpg/sg116_1_cif.got.tgz:629.got - 2010.04.14 02:15:44.
