data_PCOD8310172
_publ_section_title
;
Structure prediction by ZEFSAII (Michael W. Deem and Ramdas Pophale) SiO2 
 PCOD8310172
Probable space group: P -4 C 2
;
_chemical_formula_sum "Si O2"
_cell_formula_units_Z 42
_cell_length_a 14.453848
_cell_length_b 14.453848
_cell_length_c 8.820884
_cell_angle_alpha 90.000000
_cell_angle_beta 90.000000
_cell_angle_gamma 90.000000
_cell_volume 1842.803708
_symmetry_space_group_name_H-M "P -4 C 2"
_symmetry_group_IT_number 116
_symmetry_cell_setting 'tetragonal'
loop_
_space_group_symop_operation_xyz
x,y,z
y,-x,-z
-x,-y,z
-y,x,-z
y,x,1/2-z
-y,-x,1/2-z
-x,y,1/2+z
x,-y,1/2+z
loop_
_atom_site_type_symbol
_atom_site_label
_atom_site_fract_x
_atom_site_fract_y
_atom_site_fract_z
Si Si1 0.543469 0.390376 0.899825
Si Si2 0.579424 0.818456 0.325616
Si Si3 0.930309 0.174668 0.144966
Si Si4 0.000000 0.000000 0.000000
Si Si5 0.061294 0.721156 0.836216
Si Si6 0.566149 0.919654 0.628127
O O1 0.546678 0.453323 0.750000
O O2 0.576680 0.290666 0.845149
O O3 0.439297 0.390445 0.971610
O O4 0.666713 0.847658 0.221280
O O5 0.596209 0.855402 0.492245
O O6 0.483538 0.858634 0.257794
O O7 0.836116 0.163885 0.250000
O O8 0.029058 0.195161 0.228666
O O9 0.915828 0.246822 0.006788
O O10 0.935739 0.068643 0.093960
O O11 0.969574 0.657613 0.811417
O O12 0.500000 0.000000 0.564013
#
# Coordination Sequence:
#
# PCOD8310172 Si02
#       6
#     8   8   8   2   8   8
#     4  11  24  47  74 101 142 195 244 311 389 462
#     4  11  23  43  72 108 141 186 250 303 377 460
#     4  12  25  44  68  99 139 198 243 297 365 431
#     4  12  26  44  70  88 138 200 246 284 366 436
#     4  11  24  44  69 103 147 189 246 309 371 437
#     4  10  21  40  70 102 145 189 231 305 386 444
#
# _framework density 22.791357999999999
#
# number of rings (size 3 to 8) (size 9 to 14) (size 15 to 20)
#    0.000    0.952    3.810    4.286    2.667    0.000 
#    6.857    0.000    0.000    0.000    0.000    0.000 
#    0.000    0.000    0.000    0.000    0.000    0.000 
#
# Total GULP energy -520371.899399 kJ/mol
# GULP energy per Si atom -12389.807129 kJ/mol
# Density = 2.273948 g / cm^3
# Si number density = 22.791358 Si / 1000 Ang^3
#
#
#
# Elastic Constant Matrix: (Units=GPa)
#
#
# Indices 1 2 3 4 5 6 
#
# 1 120.4815 51.4845 53.2700 0.0000 0.0000 0.0000
# 2 51.4845 120.4799 53.2703 0.0000 0.0000 0.0000
# 3 53.2700 53.2703 131.7716 0.0000 0.0000 0.0000
# 4 0.0000 0.0000 0.0000 39.5695 0.0000 0.0000
# 5 0.0000 0.0000 0.0000 0.0000 39.5698 0.0000
# 6 0.0000 0.0000 0.0000 0.0000 0.0000 31.7602
#
#
#
# Elastic Compliance Matrix: (Units=1/GPa)
#
#
# Indices 1 2 3 4 5 6 
#
# 1 0.011126 -0.003368 -0.003136 0.000000 0.000000 0.000000
# 2 -0.003368 0.011126 -0.003136 0.000000 0.000000 0.000000
# 3 -0.003136 -0.003136 0.010125 0.000000 0.000000 0.000000
# 4 0.000000 0.000000 0.000000 0.025272 0.000000 0.000000
# 5 0.000000 0.000000 0.000000 0.000000 0.025272 0.000000
# 6 0.000000 0.000000 0.000000 0.000000 0.000000 0.031486
#
#
# Mechanical properties :
#
#
# Convention : Reuss Voigt Hill
#
# Bulk Modulus (GPa) = 76.36056 76.53140 76.44598
# Shear Modulus (GPa) = 36.21817 36.49377 36.35597
#
# Velocity S-wave (km/s) = 3.99070 4.00585 3.99828
# Velocity P-wave (km/s) = 7.40346 7.41942 7.41144
#
# Compressibility (1/GPa) = 0.01309576
#
# Stress axis : x y z
#
# Youngs Moduli (GPa) = 89.88126 89.87963 98.76831
#
# Poissons Ratio (x) = 0.30268 0.30977
# Poissons Ratio (y) = 0.30269 0.30978
# Poissons Ratio (z) = 0.28189 0.28190
#
# Static dielectric constant tensor:
#      x y z
#    x 4.210210 0.000000 0.000000 
#    y 0.000000 4.210210 0.000000 
#    z 0.000000 0.000000 4.275900 
# 
# 
# High freq. dielectric constant tensor:
#      x y z
#    x 1.890480 0.000000 0.000000 
#    y 0.000000 1.890480 0.000000 
#    z 0.000000 0.000000 1.916170 
# 
# From -- ./inp_files/860.got.cif
#   From: 2010.03.12/outbox.cif.g09.slc.cpg/sg116_1_cif.got.tgz:860.got - 2010.04.14 02:15:44.
