data_PCOD8310030
_publ_section_title
;
Structure prediction by ZEFSAII (Michael W. Deem and Ramdas Pophale) SiO2 
 PCOD8310030
Probable space group: P -4 M 2
;
_chemical_formula_sum "Si O2"
_cell_formula_units_Z 44
_cell_length_a 9.589998
_cell_length_b 9.589998
_cell_length_c 28.454226
_cell_angle_alpha 90.000000
_cell_angle_beta 90.000000
_cell_angle_gamma 90.000000
_cell_volume 2616.880011
_symmetry_space_group_name_H-M "P -4 M 2"
_symmetry_group_IT_number 115
_symmetry_cell_setting 'tetragonal'
loop_
_space_group_symop_operation_xyz
x,y,z
y,-x,-z
-x,-y,z
-y,x,-z
y,x,-z
-y,-x,-z
-x,y,z
x,-y,z
loop_
_atom_site_type_symbol
_atom_site_label
_atom_site_fract_x
_atom_site_fract_y
_atom_site_fract_z
Si Si1 0.154657 0.334145 0.365861
Si Si2 0.655061 0.333513 0.448507
Si Si3 0.339427 0.660574 0.000000
Si Si4 0.834057 0.842292 0.177819
Si Si5 0.166416 0.656028 0.262419
Si Si6 0.339077 0.837652 0.910136
O O1 0.148969 0.500000 0.369575
O O2 0.249614 0.270122 0.407167
O O3 0.215438 0.294094 0.314354
O O4 0.000000 0.271648 0.372369
O O5 0.712340 0.287661 0.500000
O O6 0.500000 0.274170 0.440470
O O7 0.652277 0.500000 0.446773
O O8 0.293053 0.753252 0.956014
O O9 0.500000 0.687466 0.013166
O O10 0.774370 0.763980 0.223933
O O11 0.783547 0.757577 0.132189
O O12 0.000000 0.843523 0.179683
O O13 0.775121 0.000000 0.176188
O O14 0.222753 0.500000 0.251254
O O15 0.000000 0.652083 0.261553
O O16 0.500000 0.808533 0.896753
O O17 0.314343 0.000000 0.920508
#
# Coordination Sequence:
#
# PCOD8310030 Si02
#       6
#     8   8   4   8   8   8
#     4   8  13  21  35  55  75  96 127 165 198 230
#     4   8  13  21  34  53  76 100 126 159 199 238
#     4   9  18  32  48  65  86 112 140 169 200 236
#     4   9  16  25  39  61  86 109 135 168 203 238
#     4   8  13  22  37  56  77 102 133 168 203 237
#     4   9  17  29  45  64  85 109 136 166 201 239
#
# _framework density 16.813915000000001
#
# number of rings (size 3 to 8) (size 9 to 14) (size 15 to 20)
#    0.000    3.545    0.000    2.182    0.000    2.909 
#    0.000    0.000    0.000    2.182    0.000    5.091 
#    0.000    0.000    0.000    0.000    0.000    0.000 
#
# Total GULP energy -545302.122317 kJ/mol
# GULP energy per Si atom -12393.230053 kJ/mol
# Density = 1.677565 g / cm^3
# Si number density = 16.813915 Si / 1000 Ang^3
#
#
#
# Elastic Constant Matrix: (Units=GPa)
#
#
# Indices 1 2 3 4 5 6 
#
# 1 55.1934 23.0387 63.3478 0.0000 0.0000 0.0000
# 2 23.0387 55.1931 63.3479 0.0000 0.0000 0.0000
# 3 63.3478 63.3479 187.8231 0.0000 0.0000 0.0000
# 4 0.0000 0.0000 0.0000 23.5472 0.0000 0.0000
# 5 0.0000 0.0000 0.0000 0.0000 23.5472 0.0000
# 6 0.0000 0.0000 0.0000 0.0000 0.0000 8.7468
#
#
#
# Elastic Compliance Matrix: (Units=1/GPa)
#
#
# Indices 1 2 3 4 5 6 
#
# 1 0.029634 -0.001466 -0.009500 0.000000 0.000000 0.000000
# 2 -0.001466 0.029634 -0.009501 0.000000 0.000000 0.000000
# 3 -0.009500 -0.009501 0.011733 0.000000 0.000000 0.000000
# 4 0.000000 0.000000 0.000000 0.042468 0.000000 0.000000
# 5 0.000000 0.000000 0.000000 0.000000 0.042468 0.000000
# 6 0.000000 0.000000 0.000000 0.000000 0.000000 0.114328
#
#
# Mechanical properties :
#
#
# Convention : Reuss Voigt Hill
#
# Bulk Modulus (GPa) = 33.25836 66.40868 49.83352
# Shear Modulus (GPa) = 15.56564 21.06659 18.31612
#
# Velocity S-wave (km/s) = 3.04593 3.54351 3.30410
# Velocity P-wave (km/s) = 5.67393 7.50493 6.65272
#
# Compressibility (1/GPa) = 0.03006763
#
# Stress axis : x y z
#
# Youngs Moduli (GPa) = 33.74508 33.74470 85.23203
#
# Poissons Ratio (x) = 0.04946 0.80974
# Poissons Ratio (y) = 0.04946 0.80975
# Poissons Ratio (z) = 0.32059 0.32059
#
# Static dielectric constant tensor:
#      x y z
#    x 2.932300 0.000000 0.000000 
#    y 0.000000 2.932300 0.000000 
#    z 0.000000 0.000000 3.495960 
# 
# 
# High freq. dielectric constant tensor:
#      x y z
#    x 1.605200 0.000000 0.000000 
#    y 0.000000 1.605200 0.000000 
#    z 0.000000 0.000000 1.665160 
# 
# From -- ./inp_files/5692.got.cif
#   From: 2010.03.12/outbox.cif.g09.slc.cpg/sg115_3_cif.got.tgz:5692.got - 2010.04.14 02:11:21.
