data_PCOD8310472
_publ_section_title
;
Structure prediction by ZEFSAII (Michael W. Deem and Ramdas Pophale) SiO2 
 PCOD8310472
Probable space group: P -4 N 2
;
_chemical_formula_sum "Si O2"
_cell_formula_units_Z 48
_cell_length_a 13.853871
_cell_length_b 13.853871
_cell_length_c 11.487253
_cell_angle_alpha 90.000000
_cell_angle_beta 90.000000
_cell_angle_gamma 90.000000
_cell_volume 2204.745501
_symmetry_space_group_name_H-M "P -4 N 2"
_symmetry_group_IT_number 118
_symmetry_cell_setting 'tetragonal'
loop_
_space_group_symop_operation_xyz
x,y,z
y,-x,-z
-x,-y,z
-y,x,-z
1/2+y,1/2+x,1/2-z
1/2-y,1/2-x,1/2-z
1/2-x,1/2+y,1/2+z
1/2+x,1/2-y,1/2+z
loop_
_atom_site_type_symbol
_atom_site_label
_atom_site_fract_x
_atom_site_fract_y
_atom_site_fract_z
Si Si1 0.636966 0.642675 0.263324
Si Si2 0.234227 0.806937 0.145619
Si Si3 0.272803 0.036226 0.758430
Si Si4 0.575061 0.919491 0.561213
Si Si5 0.281546 0.192942 0.425623
Si Si6 0.620944 0.530472 0.570827
O O1 0.698353 0.548783 0.236235
O O2 0.687635 0.710470 0.358505
O O3 0.629489 0.702503 0.142977
O O4 0.532183 0.609717 0.311715
O O5 0.313647 0.813647 0.250000
O O6 0.220748 0.910634 0.081588
O O7 0.137062 0.781065 0.217798
O O8 0.261527 0.726445 0.050194
O O9 0.340125 0.040945 0.644376
O O10 0.339511 0.012499 0.869925
O O11 0.623967 0.873120 0.446330
O O12 0.500000 0.000000 0.518857
O O13 0.611797 0.465093 0.451692
#
# Coordination Sequence:
#
# PCOD8310472 Si02
#       6
#     8   8   8   8   8   8
#     4  11  24  40  65  96 133 174 231 278 357 409
#     4  11  21  42  66  97 140 175 219 295 350 413
#     4  10  19  38  66  96 125 168 222 282 326 405
#     4  10  21  38  65  97 130 166 231 275 336 421
#     4  10  23  42  59  95 136 173 213 290 348 417
#     4  11  22  39  67  99 129 172 238 291 325 423
#
# _framework density 21.77122
#
# number of rings (size 3 to 8) (size 9 to 14) (size 15 to 20)
#    0.000    1.500    5.000    3.000    7.000    0.000 
#    3.000    1.667    0.000    0.000    0.000    0.000 
#    0.000    0.000    0.000    0.000    0.000    0.000 
#
# Total GULP energy -594652.603045 kJ/mol
# GULP energy per Si atom -12388.595897 kJ/mol
# Density = 2.172167 g / cm^3
# Si number density = 21.771220 Si / 1000 Ang^3
#
#
#
# Elastic Constant Matrix: (Units=GPa)
#
#
# Indices 1 2 3 4 5 6 
#
# 1 65.6313 32.7486 40.1439 0.0000 0.0000 0.0000
# 2 32.7486 65.6313 40.1439 0.0000 0.0000 0.0000
# 3 40.1439 40.1439 122.3203 0.0000 0.0000 0.0000
# 4 0.0000 0.0000 0.0000 33.7431 0.0000 0.0000
# 5 0.0000 0.0000 0.0000 0.0000 33.7431 0.0000
# 6 0.0000 0.0000 0.0000 0.0000 0.0000 29.8974
#
#
#
# Elastic Compliance Matrix: (Units=1/GPa)
#
#
# Indices 1 2 3 4 5 6 
#
# 1 0.022147 -0.008264 -0.004556 0.000000 0.000000 0.000000
# 2 -0.008264 0.022147 -0.004556 0.000000 0.000000 0.000000
# 3 -0.004556 -0.004556 0.011166 0.000000 0.000000 0.000000
# 4 0.000000 0.000000 0.000000 0.029636 0.000000 0.000000
# 5 0.000000 0.000000 0.000000 0.000000 0.029636 0.000000
# 6 0.000000 0.000000 0.000000 0.000000 0.000000 0.033448
#
#
# Mechanical properties :
#
#
# Convention : Reuss Voigt Hill
#
# Bulk Modulus (GPa) = 48.29290 53.29509 50.79400
# Shear Modulus (GPa) = 26.33874 28.84646 27.59260
#
# Velocity S-wave (km/s) = 3.48199 3.64398 3.56390
# Velocity P-wave (km/s) = 6.19643 6.49904 6.34954
#
# Compressibility (1/GPa) = 0.02070698
#
# Stress axis : x y z
#
# Youngs Moduli (GPa) = 45.15274 45.15274 89.55881
#
# Poissons Ratio (x) = 0.37314 0.40805
# Poissons Ratio (y) = 0.37314 0.40805
# Poissons Ratio (z) = 0.20573 0.20573
#
# Static dielectric constant tensor:
#      x y z
#    x 4.045590 0.000000 0.000000 
#    y 0.000000 4.045590 0.000000 
#    z 0.000000 0.000000 4.075270 
# 
# 
# High freq. dielectric constant tensor:
#      x y z
#    x 1.840920 0.000000 0.000000 
#    y 0.000000 1.840920 0.000000 
#    z 0.000000 0.000000 1.848100 
# 
# From -- ./inp_files/3321.got.cif
#   From: 2010.03.12/outbox.cif.g09.slc.cpg/sg118_2_cif.got.tgz:3321.got - 2010.04.14 02:21:17.
