data_PCOD8310372
_publ_section_title
;
Structure prediction by ZEFSAII (Michael W. Deem and Ramdas Pophale) SiO2 
 PCOD8310372
Probable space group: P -4 B 2
;
_chemical_formula_sum "Si O2"
_cell_formula_units_Z 48
_cell_length_a 14.577276
_cell_length_b 14.577276
_cell_length_c 10.147996
_cell_angle_alpha 90.000000
_cell_angle_beta 90.000000
_cell_angle_gamma 90.000000
_cell_volume 2156.418458
_symmetry_space_group_name_H-M "P -4 B 2"
_symmetry_group_IT_number 117
_symmetry_cell_setting 'tetragonal'
loop_
_space_group_symop_operation_xyz
x,y,z
y,-x,-z
-x,-y,z
-y,x,-z
1/2+y,1/2+x,-z
1/2-y,1/2-x,-z
1/2-x,1/2+y,z
1/2+x,1/2-y,z
loop_
_atom_site_type_symbol
_atom_site_label
_atom_site_fract_x
_atom_site_fract_y
_atom_site_fract_z
Si Si1 0.635354 0.528407 0.544342
Si Si2 0.542863 0.768631 0.091108
Si Si3 0.443180 0.751014 0.684873
Si Si4 0.701746 0.881328 0.187096
Si Si5 0.414379 0.559135 0.806239
Si Si6 0.667931 0.218791 0.147166
O O1 0.603276 0.445589 0.447412
O O2 0.726494 0.569880 0.472043
O O3 0.647487 0.488505 0.690150
O O4 0.612064 0.816721 0.195248
O O5 0.566684 0.659968 0.077870
O O6 0.440772 0.784102 0.140959
O O7 0.558665 0.806479 0.945799
O O8 0.541884 0.801527 0.698446
O O9 0.450936 0.657852 0.767931
O O10 0.358856 0.807450 0.745113
O O11 0.792016 0.816262 0.197807
O O12 0.500000 0.500000 0.853680
O O13 0.706835 0.206835 0.000000
#
# Coordination Sequence:
#
# PCOD8310372 Si02
#       6
#     8   8   8   8   8   8
#     4   9  17  34  60  92 122 157 207 261 317 383
#     4  11  24  39  61  88 132 168 208 271 325 391
#     4  11  21  38  64  88 126 168 209 264 317 388
#     4  11  23  42  59  93 130 163 217 265 326 400
#     4  11  19  39  64  93 125 162 210 269 334 380
#     4  12  22  40  60  91 129 163 214 264 322 400
#
# _framework density 22.259132999999999
#
# number of rings (size 3 to 8) (size 9 to 14) (size 15 to 20)
#    0.000    1.167    8.333    1.000    0.000    0.667 
#    0.000    1.667    0.000    0.000    0.000    2.333 
#    0.000    0.000    0.000    0.000    0.000    0.000 
#
# Total GULP energy -594894.125862 kJ/mol
# GULP energy per Si atom -12393.627622 kJ/mol
# Density = 2.220847 g / cm^3
# Si number density = 22.259133 Si / 1000 Ang^3
#
#
#
# Elastic Constant Matrix: (Units=GPa)
#
#
# Indices 1 2 3 4 5 6 
#
# 1 114.2298 27.2840 12.4600 0.0000 0.0000 0.0000
# 2 27.2840 114.2298 12.4600 0.0000 0.0000 0.0000
# 3 12.4600 12.4600 27.5325 0.0000 0.0000 0.0000
# 4 0.0000 0.0000 0.0000 22.2032 0.0000 0.0000
# 5 0.0000 0.0000 0.0000 0.0000 22.2032 0.0000
# 6 0.0000 0.0000 0.0000 0.0000 0.0000 38.0827
#
#
#
# Elastic Compliance Matrix: (Units=1/GPa)
#
#
# Indices 1 2 3 4 5 6 
#
# 1 0.009590 -0.001912 -0.003475 0.000000 0.000000 0.000000
# 2 -0.001912 0.009590 -0.003475 0.000000 0.000000 0.000000
# 3 -0.003475 -0.003475 0.039466 0.000000 0.000000 0.000000
# 4 0.000000 0.000000 0.000000 0.045039 0.000000 0.000000
# 5 0.000000 0.000000 0.000000 0.000000 0.045039 0.000000
# 6 0.000000 0.000000 0.000000 0.000000 0.000000 0.026259
#
#
# Mechanical properties :
#
#
# Convention : Reuss Voigt Hill
#
# Bulk Modulus (GPa) = 24.43613 40.04445 32.24029
# Shear Modulus (GPa) = 24.23126 30.08369 27.15748
#
# Velocity S-wave (km/s) = 3.30297 3.68029 3.49672
# Velocity P-wave (km/s) = 5.05450 6.00738 5.55142
#
# Compressibility (1/GPa) = 0.04092301
#
# Stress axis : x y z
#
# Youngs Moduli (GPa) = 104.27649 104.27649 25.33840
#
# Poissons Ratio (x) = 0.19933 0.08805
# Poissons Ratio (y) = 0.19933 0.08805
# Poissons Ratio (z) = 0.36235 0.36235
#
# Static dielectric constant tensor:
#      x y z
#    x 4.106100 0.000000 0.000000 
#    y 0.000000 4.106100 0.000000 
#    z 0.000000 0.000000 3.848550 
# 
# 
# High freq. dielectric constant tensor:
#      x y z
#    x 1.871470 0.000000 0.000000 
#    y 0.000000 1.871470 0.000000 
#    z 0.000000 0.000000 1.854010 
# 
# From -- ./inp_files/2792.got.cif
#   From: 2010.03.12/outbox.cif.g09.slc.cpg/sg117_2_cif.got.tgz:2792.got - 2010.04.14 02:19:01.
