data_PCOD8310566
_publ_section_title
;
Structure prediction by ZEFSAII (Michael W. Deem and Ramdas Pophale) SiO2 
 PCOD8310566
Probable space group: P -4 N 2
;
_chemical_formula_sum "Si O2"
_cell_formula_units_Z 30
_cell_length_a 11.284753
_cell_length_b 11.284753
_cell_length_c 10.208447
_cell_angle_alpha 90.000000
_cell_angle_beta 90.000000
_cell_angle_gamma 90.000000
_cell_volume 1300.001321
_symmetry_space_group_name_H-M "P -4 N 2"
_symmetry_group_IT_number 118
_symmetry_cell_setting 'tetragonal'
loop_
_space_group_symop_operation_xyz
x,y,z
y,-x,-z
-x,-y,z
-y,x,-z
1/2+y,1/2+x,1/2-z
1/2-y,1/2-x,1/2-z
1/2-x,1/2+y,1/2+z
1/2+x,1/2-y,1/2+z
loop_
_atom_site_type_symbol
_atom_site_label
_atom_site_fract_x
_atom_site_fract_y
_atom_site_fract_z
Si Si1 0.748093 0.521639 0.593936
Si Si2 0.500000 0.500000 0.500000
Si Si3 0.639620 0.196367 0.895223
Si Si4 0.264214 0.764214 0.250000
Si Si5 0.200830 0.623302 0.994187
O O1 0.615907 0.468597 0.584725
O O2 0.773013 0.614155 0.477722
O O3 0.749581 0.593332 0.731635
O O4 0.846416 0.419301 0.584699
O O5 0.639830 0.139830 0.750000
O O6 0.513284 0.201114 0.966619
O O7 0.691734 0.331686 0.899312
O O8 0.210465 0.695858 0.128067
#
# Coordination Sequence:
#
# PCOD8310566 Si02
#       5
#     8   2   8   4   8
#     4  11  23  43  70 100 132 180 239 293 356 433
#     4  12  20  44  76 100 130 180 248 292 352 426
#     4  11  25  43  68  99 137 186 232 293 366 436
#     4  10  22  42  70  96 132 180 234 296 347 429
#     4  11  24  44  66 102 138 181 239 291 358 444
#
# _framework density 23.076898
#
# number of rings (size 3 to 8) (size 9 to 14) (size 15 to 20)
#    0.000    1.067    5.333    2.400    0.000    5.867 
#    0.000    5.333    0.000    0.000    0.000    0.000 
#    0.000    0.000    0.000    0.000    0.000    0.000 
#
# Total GULP energy -371705.196726 kJ/mol
# GULP energy per Si atom -12390.173224 kJ/mol
# Density = 2.302437 g / cm^3
# Si number density = 23.076898 Si / 1000 Ang^3
#
#
#
# Elastic Constant Matrix: (Units=GPa)
#
#
# Indices 1 2 3 4 5 6 
#
# 1 146.9724 28.2275 9.8938 0.0000 0.0000 0.0000
# 2 28.2275 146.9724 9.8938 0.0000 0.0000 0.0000
# 3 9.8938 9.8938 36.2142 0.0000 0.0000 0.0000
# 4 0.0000 0.0000 0.0000 24.8792 0.0000 0.0000
# 5 0.0000 0.0000 0.0000 0.0000 24.8792 0.0000
# 6 0.0000 0.0000 0.0000 0.0000 0.0000 32.3272
#
#
#
# Elastic Compliance Matrix: (Units=1/GPa)
#
#
# Indices 1 2 3 4 5 6 
#
# 1 0.007155 -0.001266 -0.001609 0.000000 0.000000 0.000000
# 2 -0.001266 0.007155 -0.001609 0.000000 0.000000 0.000000
# 3 -0.001609 -0.001609 0.028493 0.000000 0.000000 0.000000
# 4 0.000000 0.000000 0.000000 0.040194 0.000000 0.000000
# 5 0.000000 0.000000 0.000000 0.000000 0.040194 0.000000
# 6 0.000000 0.000000 0.000000 0.000000 0.000000 0.030934
#
#
# Mechanical properties :
#
#
# Convention : Reuss Voigt Hill
#
# Bulk Modulus (GPa) = 29.55470 47.35434 38.45452
# Shear Modulus (GPa) = 28.67428 35.22670 31.95049
#
# Velocity S-wave (km/s) = 3.52881 3.91127 3.72495
# Velocity P-wave (km/s) = 5.42570 6.40017 5.93298
#
# Compressibility (1/GPa) = 0.03383557
#
# Stress axis : x y z
#
# Youngs Moduli (GPa) = 139.75349 139.75349 35.09677
#
# Poissons Ratio (x) = 0.17692 0.05647
# Poissons Ratio (y) = 0.17692 0.05647
# Poissons Ratio (z) = 0.22487 0.22487
#
# Static dielectric constant tensor:
#      x y z
#    x 4.463220 0.000000 0.000000 
#    y 0.000000 4.463220 0.000000 
#    z 0.000000 0.000000 4.308930 
# 
# 
# High freq. dielectric constant tensor:
#      x y z
#    x 1.919210 0.000000 0.000000 
#    y 0.000000 1.919210 0.000000 
#    z 0.000000 0.000000 1.901810 
# 
# From -- ./inp_files/2813.got.cif
#   From: 2010.03.12/outbox.cif.g09.slc.cpg/sg118_2_cif.got.tgz:2813.got - 2010.04.14 02:21:17.
