data_PCOD8310264
_publ_section_title
;
Structure prediction by ZEFSAII (Michael W. Deem and Ramdas Pophale) SiO2 
 PCOD8310264
Probable space group: P -4 C 2
;
_chemical_formula_sum "Si O2"
_cell_formula_units_Z 34
_cell_length_a 8.329821
_cell_length_b 8.329821
_cell_length_c 20.157766
_cell_angle_alpha 90.000000
_cell_angle_beta 90.000000
_cell_angle_gamma 90.000000
_cell_volume 1398.665097
_symmetry_space_group_name_H-M "P -4 C 2"
_symmetry_group_IT_number 116
_symmetry_cell_setting 'tetragonal'
loop_
_space_group_symop_operation_xyz
x,y,z
y,-x,-z
-x,-y,z
-y,x,-z
y,x,1/2-z
-y,-x,1/2-z
-x,y,1/2+z
x,-y,1/2+z
loop_
_atom_site_type_symbol
_atom_site_label
_atom_site_fract_x
_atom_site_fract_y
_atom_site_fract_z
Si Si1 0.268670 0.120657 0.841305
Si Si2 0.328060 0.067149 0.572157
Si Si3 0.323410 0.431143 0.184210
Si Si4 0.000000 0.000000 0.250000
Si Si5 0.835859 0.260343 0.567404
O O1 0.171757 0.277350 0.864431
O O2 0.431555 0.185508 0.807322
O O3 0.304077 0.013299 0.905825
O O4 0.164013 0.005316 0.792996
O O5 0.338386 0.175694 0.505620
O O6 0.500000 0.000000 0.590748
O O7 0.194524 0.929515 0.561378
O O8 0.500000 0.500000 0.177773
O O9 0.318023 0.318023 0.250000
O O10 0.296189 0.333244 0.116837
#
# Coordination Sequence:
#
# PCOD8310264 Si02
#       5
#     8   8   8   2   8
#     4  12  25  46  73 106 148 198 259 308 378 457
#     4  12  25  45  74 109 148 195 252 316 384 453
#     4  11  26  50  73 107 153 201 251 321 385 459
#     4  12  24  40  72 104 138 200 254 314 368 448
#     4  12  25  47  74 109 149 196 251 314 377 461
#
# _framework density 24.308893000000001
#
# number of rings (size 3 to 8) (size 9 to 14) (size 15 to 20)
#    0.000    0.235    4.706    4.941    1.647    0.000 
#    0.000    0.000    0.000    0.000    0.000    0.000 
#    0.000    0.000    0.000    0.000    0.000    0.000 
#
# Total GULP energy -421692.067147 kJ/mol
# GULP energy per Si atom -12402.707857 kJ/mol
# Density = 2.425356 g / cm^3
# Si number density = 24.308893 Si / 1000 Ang^3
#
#
#
# Elastic Constant Matrix: (Units=GPa)
#
#
# Indices 1 2 3 4 5 6 
#
# 1 102.4283 15.3243 44.0749 0.0000 0.0000 0.0000
# 2 15.3243 102.4283 44.0749 0.0000 0.0000 0.0000
# 3 44.0749 44.0749 137.8438 0.0000 0.0000 0.0000
# 4 0.0000 0.0000 0.0000 44.5053 0.0000 0.0000
# 5 0.0000 0.0000 0.0000 0.0000 44.5053 0.0000
# 6 0.0000 0.0000 0.0000 0.0000 0.0000 55.0078
#
#
#
# Elastic Compliance Matrix: (Units=1/GPa)
#
#
# Indices 1 2 3 4 5 6 
#
# 1 0.011323 -0.000158 -0.003570 0.000000 0.000000 0.000000
# 2 -0.000158 0.011323 -0.003570 0.000000 0.000000 0.000000
# 3 -0.003570 -0.003570 0.009538 0.000000 0.000000 0.000000
# 4 0.000000 0.000000 0.000000 0.022469 0.000000 0.000000
# 5 0.000000 0.000000 0.000000 0.000000 0.022469 0.000000
# 6 0.000000 0.000000 0.000000 0.000000 0.000000 0.018179
#
#
# Mechanical properties :
#
#
# Convention : Reuss Voigt Hill
#
# Bulk Modulus (GPa) = 56.85843 61.07206 58.96524
# Shear Modulus (GPa) = 43.19343 44.75211 43.97277
#
# Velocity S-wave (km/s) = 4.21985 4.29532 4.25775
# Velocity P-wave (km/s) = 6.86903 7.05532 6.96280
#
# Compressibility (1/GPa) = 0.01758754
#
# Stress axis : x y z
#
# Youngs Moduli (GPa) = 88.31845 88.31845 104.84928
#
# Poissons Ratio (x) = 0.01394 0.37430
# Poissons Ratio (y) = 0.01394 0.37430
# Poissons Ratio (z) = 0.31529 0.31529
#
# Static dielectric constant tensor:
#      x y z
#    x 4.372800 0.000000 0.000000 
#    y 0.000000 4.372800 0.000000 
#    z 0.000000 0.000000 4.646250 
# 
# 
# High freq. dielectric constant tensor:
#      x y z
#    x 1.964940 0.000000 0.000000 
#    y 0.000000 1.964940 0.000000 
#    z 0.000000 0.000000 1.972260 
# 
# From -- ./inp_files/3891.got.cif
#   From: 2010.03.12/outbox.cif.g09.slc.cpg/sg116_2_cif.got.tgz:3891.got - 2010.04.14 02:15:44.
