data_PCOD8310725
_publ_section_title
;
Structure prediction by ZEFSAII (Michael W. Deem and Ramdas Pophale) SiO2 
 PCOD8310725
Probable space group: I -4 M 2
;
_chemical_formula_sum "Si O2"
_cell_formula_units_Z 112
_cell_length_a 13.909858
_cell_length_b 13.909858
_cell_length_c 36.608761
_cell_angle_alpha 90.000000
_cell_angle_beta 90.000000
_cell_angle_gamma 90.000000
_cell_volume 7083.214989
_symmetry_space_group_name_H-M "I -4 M 2"
_symmetry_group_IT_number 119
_symmetry_cell_setting 'tetragonal'
loop_
_space_group_symop_operation_xyz
x,y,z
y,-x,-z
-x,-y,z
-y,x,-z
y,x,-z
-y,-x,-z
-x,y,z
x,-y,z
1/2+x,1/2+y,1/2+z
1/2+y,1/2-x,1/2-z
1/2-x,1/2-y,1/2+z
1/2-y,1/2+x,1/2-z
1/2+y,1/2+x,1/2-z
1/2-y,1/2-x,1/2-z
1/2-x,1/2+y,1/2+z
1/2+x,1/2-y,1/2+z
loop_
_atom_site_type_symbol
_atom_site_label
_atom_site_fract_x
_atom_site_fract_y
_atom_site_fract_z
Si Si1 0.113264 0.211207 0.680909
Si Si2 0.388685 0.293407 0.033903
Si Si3 0.609084 0.605904 0.315504
Si Si4 0.890286 0.392698 0.573319
Si Si5 0.765714 0.888434 0.744283
Si Si6 0.885965 0.893049 0.607740
Si Si7 0.300809 0.110144 0.149370
O O1 0.171779 0.161703 0.713064
O O2 0.149841 0.164437 0.643058
O O3 0.138966 0.324229 0.677718
O O4 0.000000 0.196713 0.687923
O O5 0.500000 0.319048 0.026162
O O6 0.372882 0.179315 0.039619
O O7 0.349753 0.345035 0.070352
O O8 0.325202 0.325202 0.000000
O O9 0.500000 0.613254 0.301087
O O10 0.628458 0.500000 0.332698
O O11 0.677018 0.623913 0.281486
O O12 0.628834 0.686718 0.346005
O O13 0.868096 0.500000 0.559084
O O14 0.824491 0.364425 0.607575
O O15 0.000000 0.382530 0.587284
O O16 0.663151 0.836850 0.750000
O O17 0.748045 0.000000 0.734340
O O18 0.000000 0.894162 0.607684
O O19 0.843089 0.000000 0.609735
O O20 0.329126 0.000000 0.158136
#
# Coordination Sequence:
#
# PCOD8310725 Si02
#       7
#    16  16  16  16  16  16  16
#     4  11  20  32  50  73 100 130 163 194 238 297
#     4  10  18  28  44  68  96 128 160 193 233 279
#     4   9  18  33  52  72  94 122 160 205 248 290
#     4   9  17  30  48  71  99 130 162 193 230 286
#     4  11  22  36  52  70  93 126 167 209 249 289
#     4   9  17  28  42  65  96 126 157 192 228 273
#     4  10  18  30  51  75  99 127 159 199 244 291
#
# _framework density 15.812028
#
# number of rings (size 3 to 8) (size 9 to 14) (size 15 to 20)
#    0.000    2.143    2.857    1.714    0.000    3.143 
#    0.000    0.000    0.000    0.857    0.000    0.000 
#    0.000    3.429    0.000    0.000    0.000    0.000 
#
# Total GULP energy -694264.010998 kJ/mol
# GULP energy per Si atom -12397.571625 kJ/mol
# Density = 1.577604 g / cm^3
# Si number density = 15.812028 Si / 1000 Ang^3
#
#
#
# Elastic Constant Matrix: (Units=GPa)
#
#
# Indices 1 2 3 4 5 6 
#
# 1 94.4020 42.0246 45.2057 0.0000 0.0000 0.0000
# 2 42.0246 94.4009 45.2054 0.0000 0.0000 0.0000
# 3 45.2057 45.2054 78.4370 0.0000 0.0000 0.0000
# 4 0.0000 0.0000 0.0000 25.0339 0.0000 0.0000
# 5 0.0000 0.0000 0.0000 0.0000 25.0340 0.0000
# 6 0.0000 0.0000 0.0000 0.0000 0.0000 20.1698
#
#
#
# Elastic Compliance Matrix: (Units=1/GPa)
#
#
# Indices 1 2 3 4 5 6 
#
# 1 0.015476 -0.003616 -0.006835 0.000000 0.000000 0.000000
# 2 -0.003616 0.015476 -0.006835 0.000000 0.000000 0.000000
# 3 -0.006835 -0.006835 0.020628 0.000000 0.000000 0.000000
# 4 0.000000 0.000000 0.000000 0.039946 0.000000 0.000000
# 5 0.000000 0.000000 0.000000 0.000000 0.039946 0.000000
# 6 0.000000 0.000000 0.000000 0.000000 0.000000 0.049579
#
#
# Mechanical properties :
#
#
# Convention : Reuss Voigt Hill
#
# Bulk Modulus (GPa) = 58.80060 59.12347 58.96203
# Shear Modulus (GPa) = 22.59456 23.03448 22.81452
#
# Velocity S-wave (km/s) = 3.78424 3.82091 3.80262
# Velocity P-wave (km/s) = 7.50746 7.54575 7.52663
#
# Compressibility (1/GPa) = 0.01700663
#
# Stress axis : x y z
#
# Youngs Moduli (GPa) = 64.61637 64.61575 48.47878
#
# Poissons Ratio (x) = 0.23367 0.33136
# Poissons Ratio (y) = 0.23368 0.33136
# Poissons Ratio (z) = 0.44166 0.44165
#
# Static dielectric constant tensor:
#      x y z
#    x 3.121570 0.000000 0.000000 
#    y 0.000000 3.121570 0.000000 
#    z 0.000000 0.000000 2.861890 
# 
# 
# High freq. dielectric constant tensor:
#      x y z
#    x 1.602670 0.000000 0.000000 
#    y 0.000000 1.602670 0.000000 
#    z 0.000000 0.000000 1.588340 
# 
# From -- ./inp_files/9599.got.cif
#   From: 2010.03.12/outbox.cif.g09.slc.cpg/sg119_5_cif.got.tgz:9599.got - 2010.04.14 02:25:26.
