data_PCOD8310676
_publ_section_title
;
Structure prediction by ZEFSAII (Michael W. Deem and Ramdas Pophale) SiO2 
 PCOD8310676
Probable space group: I -4 M 2
;
_chemical_formula_sum "Si O2"
_cell_formula_units_Z 60
_cell_length_a 15.792481
_cell_length_b 15.792481
_cell_length_c 13.216213
_cell_angle_alpha 90.000000
_cell_angle_beta 90.000000
_cell_angle_gamma 90.000000
_cell_volume 3296.155983
_symmetry_space_group_name_H-M "I -4 M 2"
_symmetry_group_IT_number 119
_symmetry_cell_setting 'tetragonal'
loop_
_space_group_symop_operation_xyz
x,y,z
y,-x,-z
-x,-y,z
-y,x,-z
y,x,-z
-y,-x,-z
-x,y,z
x,-y,z
1/2+x,1/2+y,1/2+z
1/2+y,1/2-x,1/2-z
1/2-x,1/2-y,1/2+z
1/2-y,1/2+x,1/2-z
1/2+y,1/2+x,1/2-z
1/2-y,1/2-x,1/2-z
1/2-x,1/2+y,1/2+z
1/2+x,1/2-y,1/2+z
loop_
_atom_site_type_symbol
_atom_site_label
_atom_site_fract_x
_atom_site_fract_y
_atom_site_fract_z
Si Si1 0.181084 0.000000 0.083420
Si Si2 0.335956 0.175328 0.934400
Si Si3 0.237890 0.676430 0.645105
Si Si4 0.500000 0.811429 0.828931
Si Si5 0.500000 0.500000 0.500000
Si Si6 0.000000 0.500000 0.250000
Si Si7 0.500000 0.788685 0.606757
O O1 0.217211 0.084224 0.139107
O O2 0.079580 0.000000 0.077675
O O3 0.207006 0.000000 0.965473
O O4 0.250965 0.193891 0.869211
O O5 0.418172 0.222266 0.890728
O O6 0.351222 0.076585 0.917904
O O7 0.328072 0.192859 0.053788
O O8 0.186906 0.686906 0.750000
O O9 0.500000 0.760425 0.723551
O O10 0.500000 0.912939 0.814434
#
# Coordination Sequence:
#
# PCOD8310676 Si02
#       7
#     8  16  16   8   2   2   8
#     4  10  22  35  58  82 114 153 200 250 305 364
#     4  10  20  31  51  79 106 144 190 237 291 352
#     4  10  21  38  54  76 111 154 199 240 292 362
#     4  12  18  29  50  79 115 143 180 238 297 346
#     4  12  20  36  56  92 120 142 204 272 316 344
#     4  12  20  28  48  88 114 140 180 236 296 332
#     4  10  16  30  48  74 107 140 174 229 292 341
#
# _framework density 18.203023999999999
#
# number of rings (size 3 to 8) (size 9 to 14) (size 15 to 20)
#    0.000    1.600    2.667    4.800    0.000    1.067 
#    0.000    0.000    0.000    2.000    0.000    0.000 
#    0.000    0.000    0.000    0.000    0.000    0.000 
#
# Total GULP energy -371729.658095 kJ/mol
# GULP energy per Si atom -12390.988603 kJ/mol
# Density = 1.816159 g / cm^3
# Si number density = 18.203024 Si / 1000 Ang^3
#
#
#
# Elastic Constant Matrix: (Units=GPa)
#
#
# Indices 1 2 3 4 5 6 
#
# 1 114.1231 31.4793 49.1148 0.0000 0.0000 0.0000
# 2 31.4793 114.1231 49.1148 0.0000 0.0000 0.0000
# 3 49.1148 49.1148 136.9098 0.0000 0.0000 0.0000
# 4 0.0000 0.0000 0.0000 25.0170 0.0000 0.0000
# 5 0.0000 0.0000 0.0000 0.0000 25.0170 0.0000
# 6 0.0000 0.0000 0.0000 0.0000 0.0000 15.7458
#
#
#
# Elastic Compliance Matrix: (Units=1/GPa)
#
#
# Indices 1 2 3 4 5 6 
#
# 1 0.010581 -0.001520 -0.003251 0.000000 0.000000 0.000000
# 2 -0.001520 0.010581 -0.003251 0.000000 0.000000 0.000000
# 3 -0.003251 -0.003251 0.009636 0.000000 0.000000 0.000000
# 4 0.000000 0.000000 0.000000 0.039973 0.000000 0.000000
# 5 0.000000 0.000000 0.000000 0.000000 0.039973 0.000000
# 6 0.000000 0.000000 0.000000 0.000000 0.000000 0.063509
#
#
# Mechanical properties :
#
#
# Convention : Reuss Voigt Hill
#
# Bulk Modulus (GPa) = 67.76858 69.39711 68.58285
# Shear Modulus (GPa) = 25.61319 28.85241 27.23280
#
# Velocity S-wave (km/s) = 3.75518 3.98557 3.87209
# Velocity P-wave (km/s) = 7.49079 7.70626 7.59929
#
# Compressibility (1/GPa) = 0.01475610
#
# Stress axis : x y z
#
# Youngs Moduli (GPa) = 94.51309 94.51309 103.77483
#
# Poissons Ratio (x) = 0.14362 0.33732
# Poissons Ratio (y) = 0.14362 0.33732
# Poissons Ratio (z) = 0.30722 0.30722
#
# Static dielectric constant tensor:
#      x y z
#    x 3.391140 0.000000 0.000000 
#    y 0.000000 3.391140 0.000000 
#    z 0.000000 0.000000 3.355260 
# 
# 
# High freq. dielectric constant tensor:
#      x y z
#    x 1.697230 0.000000 0.000000 
#    y 0.000000 1.697230 0.000000 
#    z 0.000000 0.000000 1.698200 
# 
# From -- ./inp_files/3842.got.cif
#   From: 2010.03.12/outbox.cif.g09.slc.cpg/sg119_2_cif.got.tgz:3842.got - 2010.04.14 02:25:26.
