data_PCOD8310776
_publ_section_title
;
Structure prediction by ZEFSAII (Michael W. Deem and Ramdas Pophale) SiO2 
 PCOD8310776
Probable space group: I -4 M 2
;
_chemical_formula_sum "Si O2"
_cell_formula_units_Z 96
_cell_length_a 20.188415
_cell_length_b 20.188415
_cell_length_c 12.758260
_cell_angle_alpha 90.000000
_cell_angle_beta 90.000000
_cell_angle_gamma 90.000000
_cell_volume 5199.910823
_symmetry_space_group_name_H-M "I -4 M 2"
_symmetry_group_IT_number 119
_symmetry_cell_setting 'tetragonal'
loop_
_space_group_symop_operation_xyz
x,y,z
y,-x,-z
-x,-y,z
-y,x,-z
y,x,-z
-y,-x,-z
-x,y,z
x,-y,z
1/2+x,1/2+y,1/2+z
1/2+y,1/2-x,1/2-z
1/2-x,1/2-y,1/2+z
1/2-y,1/2+x,1/2-z
1/2+y,1/2+x,1/2-z
1/2-y,1/2-x,1/2-z
1/2-x,1/2+y,1/2+z
1/2+x,1/2-y,1/2+z
loop_
_atom_site_type_symbol
_atom_site_label
_atom_site_fract_x
_atom_site_fract_y
_atom_site_fract_z
Si Si1 0.729630 0.180443 0.355506
Si Si2 0.927181 0.277227 0.119730
Si Si3 0.422261 0.670160 0.206539
Si Si4 0.792858 0.330970 0.087728
Si Si5 0.426316 0.693167 0.819738
Si Si6 0.426371 0.674173 0.450038
O O1 0.685279 0.185279 0.250000
O O2 0.768207 0.110597 0.352869
O O3 0.690394 0.178112 0.464643
O O4 0.775037 0.245946 0.361774
O O5 0.866085 0.327716 0.141434
O O6 0.922580 0.215652 0.199289
O O7 0.000000 0.312182 0.130857
O O8 0.919246 0.245701 0.004476
O O9 0.500000 0.661171 0.177381
O O10 0.378792 0.607478 0.168920
O O11 0.410943 0.683968 0.328616
O O12 0.753461 0.398549 0.109064
O O13 0.500000 0.681864 0.860110
O O14 0.376653 0.623348 0.500000
O O15 0.500000 0.645258 0.465897
#
# Coordination Sequence:
#
# PCOD8310776 Si02
#       6
#    16  16  16  16  16  16
#     4  10  20  33  52  77 100 134 179 220 270 320
#     4  10  19  31  50  77 106 135 172 220 275 328
#     4  10  20  33  49  74 110 144 180 225 270 318
#     4  10  20  33  53  74 100 134 173 225 271 321
#     4  10  20  34  51  75 104 140 185 219 261 321
#     4  10  19  29  46  72 105 143 176 214 263 318
#
# _framework density 18.461856000000001
#
# number of rings (size 3 to 8) (size 9 to 14) (size 15 to 20)
#    0.000    2.000    1.667    3.500    2.333    1.167 
#    0.000    1.667    0.000    0.500    0.000    7.000 
#    0.000    1.667    0.000    0.167    0.000    0.167 
#
# Total GULP energy -594727.200049 kJ/mol
# GULP energy per Si atom -12390.150001 kJ/mol
# Density = 1.841984 g / cm^3
# Si number density = 18.461856 Si / 1000 Ang^3
#
#
#
# Elastic Constant Matrix: (Units=GPa)
#
#
# Indices 1 2 3 4 5 6 
#
# 1 109.2517 52.5531 17.3299 0.0000 0.0000 0.0000
# 2 52.5531 109.2519 17.3297 0.0000 0.0000 0.0000
# 3 17.3299 17.3297 55.4516 0.0000 0.0000 0.0000
# 4 0.0000 0.0000 0.0000 20.6930 0.0000 0.0000
# 5 0.0000 0.0000 0.0000 0.0000 20.6934 0.0000
# 6 0.0000 0.0000 0.0000 0.0000 0.0000 19.5138
#
#
#
# Elastic Compliance Matrix: (Units=1/GPa)
#
#
# Indices 1 2 3 4 5 6 
#
# 1 0.012130 -0.005507 -0.002070 0.000000 0.000000 0.000000
# 2 -0.005507 0.012130 -0.002070 0.000000 0.000000 0.000000
# 3 -0.002070 -0.002070 0.019328 0.000000 0.000000 0.000000
# 4 0.000000 0.000000 0.000000 0.048326 0.000000 0.000000
# 5 0.000000 0.000000 0.000000 0.000000 0.048325 0.000000
# 6 0.000000 0.000000 0.000000 0.000000 0.000000 0.051246
#
#
# Mechanical properties :
#
#
# Convention : Reuss Voigt Hill
#
# Bulk Modulus (GPa) = 41.16103 49.82007 45.49055
# Shear Modulus (GPa) = 22.84394 24.62952 23.73673
#
# Velocity S-wave (km/s) = 3.52143 3.65646 3.58958
# Velocity P-wave (km/s) = 6.23518 6.69853 6.47100
#
# Compressibility (1/GPa) = 0.02429482
#
# Stress axis : x y z
#
# Youngs Moduli (GPa) = 82.43749 82.43769 51.73946
#
# Poissons Ratio (x) = 0.45396 0.10710
# Poissons Ratio (y) = 0.45396 0.10710
# Poissons Ratio (z) = 0.17065 0.17065
#
# Static dielectric constant tensor:
#      x y z
#    x 3.298820 0.000000 0.000000 
#    y 0.000000 3.298830 0.000000 
#    z 0.000000 0.000000 3.626460 
# 
# 
# High freq. dielectric constant tensor:
#      x y z
#    x 1.692010 0.000000 0.000000 
#    y 0.000000 1.692010 0.000000 
#    z 0.000000 0.000000 1.728320 
# 
# From -- ./inp_files/4222.got.cif
#   From: 2010.03.12/outbox.cif.g09.slc.cpg/sg119_3_cif.got.tgz:4222.got - 2010.04.14 02:25:26.
