data_PCOD8310405
_publ_section_title
;
Structure prediction by ZEFSAII (Michael W. Deem and Ramdas Pophale) SiO2 
 PCOD8310405
Probable space group: P -4 B 2
;
_chemical_formula_sum "Si O2"
_cell_formula_units_Z 38
_cell_length_a 13.506362
_cell_length_b 13.506362
_cell_length_c 9.526798
_cell_angle_alpha 90.000000
_cell_angle_beta 90.000000
_cell_angle_gamma 90.000000
_cell_volume 1737.895777
_symmetry_space_group_name_H-M "P -4 B 2"
_symmetry_group_IT_number 117
_symmetry_cell_setting 'tetragonal'
loop_
_space_group_symop_operation_xyz
x,y,z
y,-x,-z
-x,-y,z
-y,x,-z
1/2+y,1/2+x,-z
1/2-y,1/2-x,-z
1/2-x,1/2+y,z
1/2+x,1/2-y,z
loop_
_atom_site_type_symbol
_atom_site_label
_atom_site_fract_x
_atom_site_fract_y
_atom_site_fract_z
Si Si1 0.010195 0.638389 0.423817
Si Si2 0.500000 0.500000 0.000000
Si Si3 0.350399 0.465771 0.469790
Si Si4 0.146772 0.868608 0.173095
Si Si5 0.833389 0.666612 0.000000
Si Si6 0.166098 0.546481 0.879881
O O1 0.926465 0.573536 0.500000
O O2 0.979318 0.752444 0.437753
O O3 0.115187 0.615187 0.500000
O O4 0.029603 0.603400 0.262542
O O5 0.408629 0.456395 0.089615
O O6 0.399807 0.573044 0.438667
O O7 0.327626 0.410680 0.325391
O O8 0.079603 0.772326 0.175817
O O9 0.249206 0.824565 0.116036
O O10 0.940844 0.683440 0.057432
O O11 0.115387 0.615387 0.000000
#
# Coordination Sequence:
#
# PCOD8310405 Si02
#       6
#     8   2   8   8   4   8
#     4  11  27  48  71 107 146 200 255 309 385 461
#     4  12  24  44  70 100 152 192 256 334 372 452
#     4  11  24  46  72 106 150 197 252 313 380 453
#     4  12  25  45  74 111 146 198 256 318 388 460
#     4  12  27  46  74 109 150 196 250 320 388 461
#     4  12  27  49  74 110 149 197 253 319 388 460
#
# _framework density 21.865521000000001
#
# number of rings (size 3 to 8) (size 9 to 14) (size 15 to 20)
#    0.000    0.421    5.263    2.842    8.842    0.842 
#    3.789    0.000    0.000    0.000    0.000    0.000 
#    0.000    0.000    0.000    0.000    0.000    0.000 
#
# Total GULP energy -470891.226633 kJ/mol
# GULP energy per Si atom -12391.874385 kJ/mol
# Density = 2.181575 g / cm^3
# Si number density = 21.865521 Si / 1000 Ang^3
#
#
#
# Elastic Constant Matrix: (Units=GPa)
#
#
# Indices 1 2 3 4 5 6 
#
# 1 122.1191 22.6493 39.2474 0.0000 0.0000 0.0000
# 2 22.6493 122.1168 39.2444 0.0000 0.0000 0.0000
# 3 39.2474 39.2444 143.5997 0.0000 0.0000 0.0000
# 4 0.0000 0.0000 0.0000 33.3650 0.0000 0.0000
# 5 0.0000 0.0000 0.0000 0.0000 33.3673 0.0000
# 6 0.0000 0.0000 0.0000 0.0000 0.0000 37.9900
#
#
#
# Elastic Compliance Matrix: (Units=1/GPa)
#
#
# Indices 1 2 3 4 5 6 
#
# 1 0.009081 -0.000972 -0.002216 0.000000 0.000000 0.000000
# 2 -0.000972 0.009081 -0.002216 0.000000 0.000000 0.000000
# 3 -0.002216 -0.002216 0.008175 0.000000 0.000000 0.000000
# 4 0.000000 0.000000 0.000000 0.029972 0.000000 0.000000
# 5 0.000000 0.000000 0.000000 0.000000 0.029969 0.000000
# 6 0.000000 0.000000 0.000000 0.000000 0.000000 0.026323
#
#
# Mechanical properties :
#
#
# Convention : Reuss Voigt Hill
#
# Bulk Modulus (GPa) = 64.39690 65.56865 64.98277
# Shear Modulus (GPa) = 38.88416 40.05743 39.47079
#
# Velocity S-wave (km/s) = 4.22160 4.28482 4.25333
# Velocity P-wave (km/s) = 7.29917 7.38457 7.34199
#
# Compressibility (1/GPa) = 0.01552870
#
# Stress axis : x y z
#
# Youngs Moduli (GPa) = 110.11611 110.11547 122.32089
#
# Poissons Ratio (x) = 0.10704 0.27111
# Poissons Ratio (y) = 0.10704 0.27108
# Poissons Ratio (z) = 0.24406 0.24403
#
# Static dielectric constant tensor:
#      x y z
#    x 4.063540 0.000000 0.000000 
#    y 0.000000 4.063530 0.000000 
#    z 0.000000 0.000000 3.976300 
# 
# 
# High freq. dielectric constant tensor:
#      x y z
#    x 1.871220 0.000000 0.000000 
#    y 0.000000 1.871220 0.000000 
#    z 0.000000 0.000000 1.866040 
# 
# From -- ./inp_files/1639.got.cif
#   From: 2010.03.12/outbox.cif.g09.slc.cpg/sg117_1_cif.got.tgz:1639.got - 2010.04.14 02:19:01.
