data_PCOD8310164
_publ_section_title
;
Structure prediction by ZEFSAII (Michael W. Deem and Ramdas Pophale) SiO2 
 PCOD8310164
Probable space group: P -4 C 2
;
_chemical_formula_sum "Si O2"
_cell_formula_units_Z 38
_cell_length_a 14.237769
_cell_length_b 14.237769
_cell_length_c 9.198929
_cell_angle_alpha 90.000000
_cell_angle_beta 90.000000
_cell_angle_gamma 90.000000
_cell_volume 1864.752301
_symmetry_space_group_name_H-M "P -4 C 2"
_symmetry_group_IT_number 116
_symmetry_cell_setting 'tetragonal'
loop_
_space_group_symop_operation_xyz
x,y,z
y,-x,-z
-x,-y,z
-y,x,-z
y,x,1/2-z
-y,-x,1/2-z
-x,y,1/2+z
x,-y,1/2+z
loop_
_atom_site_type_symbol
_atom_site_label
_atom_site_fract_x
_atom_site_fract_y
_atom_site_fract_z
Si Si1 0.463512 0.227679 0.713513
Si Si2 0.895296 0.104705 0.250000
Si Si3 0.412349 0.060565 0.131968
Si Si4 0.522861 0.355051 0.964253
Si Si5 0.000000 0.000000 0.500000
Si Si6 0.319836 0.914440 0.333335
O O1 0.551099 0.157152 0.701325
O O2 0.438023 0.266339 0.554343
O O3 0.370656 0.178670 0.774955
O O4 0.491641 0.318048 0.807928
O O5 0.920876 0.043558 0.106884
O O6 0.788584 0.088516 0.294506
O O7 0.500000 0.000000 0.068992
O O8 0.362286 0.007352 0.262505
O O9 0.336926 0.079699 0.005788
O O10 0.433376 0.397180 0.051241
#
# Coordination Sequence:
#
# PCOD8310164 Si02
#       6
#     8   4   8   8   2   8
#     4  11  22  39  63  91 127 168 211 259 307 363
#     4  11  24  44  70  94 123 164 210 262 315 398
#     4  10  21  39  62  92 130 163 202 257 330 366
#     4  11  24  41  60  86 127 175 213 252 303 357
#     4  10  24  50  68  90 128 166 196 250 360 386
#     4  11  23  38  64  96 122 160 207 261 310 380
#
# _framework density 20.378042000000001
#
# number of rings (size 3 to 8) (size 9 to 14) (size 15 to 20)
#    0.000    1.263    2.105    4.421    5.895    1.684 
#    0.000    0.000    4.632    0.000    0.000    0.000 
#    0.000    0.000    0.000    0.000    0.000    0.000 
#
# Total GULP energy -471281.957902 kJ/mol
# GULP energy per Si atom -12402.156787 kJ/mol
# Density = 2.033166 g / cm^3
# Si number density = 20.378042 Si / 1000 Ang^3
#
#
#
# Elastic Constant Matrix: (Units=GPa)
#
#
# Indices 1 2 3 4 5 6 
#
# 1 101.9399 37.6487 32.7145 0.0000 0.0000 0.0000
# 2 37.6487 101.9402 32.7143 0.0000 0.0000 0.0000
# 3 32.7145 32.7143 70.9243 0.0000 0.0000 0.0000
# 4 0.0000 0.0000 0.0000 35.2775 0.0000 0.0000
# 5 0.0000 0.0000 0.0000 0.0000 35.2779 0.0000
# 6 0.0000 0.0000 0.0000 0.0000 0.0000 23.5699
#
#
#
# Elastic Compliance Matrix: (Units=1/GPa)
#
#
# Indices 1 2 3 4 5 6 
#
# 1 0.012347 -0.003207 -0.004216 0.000000 0.000000 0.000000
# 2 -0.003207 0.012347 -0.004216 0.000000 0.000000 0.000000
# 3 -0.004216 -0.004216 0.017989 0.000000 0.000000 0.000000
# 4 0.000000 0.000000 0.000000 0.028347 0.000000 0.000000
# 5 0.000000 0.000000 0.000000 0.000000 0.028346 0.000000
# 6 0.000000 0.000000 0.000000 0.000000 0.000000 0.042427
#
#
# Mechanical properties :
#
#
# Convention : Reuss Voigt Hill
#
# Bulk Modulus (GPa) = 51.53262 53.43993 52.48627
# Shear Modulus (GPa) = 29.14616 30.27351 29.70984
#
# Velocity S-wave (km/s) = 3.78600 3.85852 3.82243
# Velocity P-wave (km/s) = 6.66745 6.79206 6.73005
#
# Compressibility (1/GPa) = 0.01940518
#
# Stress axis : x y z
#
# Youngs Moduli (GPa) = 80.99052 80.99089 55.59027
#
# Poissons Ratio (x) = 0.25975 0.23436
# Poissons Ratio (y) = 0.25974 0.23436
# Poissons Ratio (z) = 0.34145 0.34145
#
# Static dielectric constant tensor:
#      x y z
#    x 3.737680 0.000000 0.000000 
#    y 0.000000 3.737640 0.000000 
#    z 0.000000 0.000000 3.625690 
# 
# 
# High freq. dielectric constant tensor:
#      x y z
#    x 1.794630 0.000000 0.000000 
#    y 0.000000 1.794630 0.000000 
#    z 0.000000 0.000000 1.806840 
# 
# From -- ./inp_files/729.got.cif
#   From: 2010.03.12/outbox.cif.g09.slc.cpg/sg116_1_cif.got.tgz:729.got - 2010.04.14 02:15:44.
