data_PCOD8310048
_publ_section_title
;
Structure prediction by ZEFSAII (Michael W. Deem and Ramdas Pophale) SiO2 
 PCOD8310048
Probable space group: P -4 M 2
;
_chemical_formula_sum "Si O2"
_cell_formula_units_Z 40
_cell_length_a 9.517680
_cell_length_b 9.517680
_cell_length_c 25.815935
_cell_angle_alpha 90.000000
_cell_angle_beta 90.000000
_cell_angle_gamma 90.000000
_cell_volume 2338.568292
_symmetry_space_group_name_H-M "P -4 M 2"
_symmetry_group_IT_number 115
_symmetry_cell_setting 'tetragonal'
loop_
_space_group_symop_operation_xyz
x,y,z
y,-x,-z
-x,-y,z
-y,x,-z
y,x,-z
-y,-x,-z
-x,y,z
x,-y,z
loop_
_atom_site_type_symbol
_atom_site_label
_atom_site_fract_x
_atom_site_fract_y
_atom_site_fract_z
Si Si1 0.158567 0.167365 0.750494
Si Si2 0.343749 0.832945 0.844043
Si Si3 0.164164 0.337034 0.347268
Si Si4 0.159740 0.665414 0.040295
Si Si5 0.332880 0.656303 0.556551
O O1 0.233979 0.227458 0.802087
O O2 0.245874 0.219921 0.700870
O O3 0.000000 0.226750 0.748022
O O4 0.157451 0.000000 0.752009
O O5 0.500000 0.773466 0.832055
O O6 0.295126 0.788766 0.901675
O O7 0.350333 0.000000 0.840923
O O8 0.199486 0.500000 0.336132
O O9 0.241210 0.278729 0.398419
O O10 0.000000 0.315010 0.356449
O O11 0.171790 0.500000 0.031710
O O12 0.000000 0.715896 0.031753
O O13 0.258585 0.741415 0.000000
O O14 0.285161 0.714840 0.500000
O O15 0.500000 0.650190 0.556296
O O16 0.271878 0.500000 0.566635
#
# Coordination Sequence:
#
# PCOD8310048 Si02
#       5
#     8   8   8   8   8
#     4   9  16  25  39  61  88 115 142 174 214 258
#     4   8  14  26  43  62  85 113 146 183 218 253
#     4   9  16  26  42  63  84 107 138 175 211 248
#     4   9  18  31  47  69  95 121 151 188 229 273
#     4   8  14  26  44  63  82 107 140 175 209 247
#
# _framework density 17.104479999999999
#
# number of rings (size 3 to 8) (size 9 to 14) (size 15 to 20)
#    0.000    3.400    0.000    2.400    0.000    3.600 
#    0.000    3.000    0.000    3.000    0.000    2.800 
#    0.000    0.000    0.000    0.000    0.000    0.000 
#
# Total GULP energy -495768.233617 kJ/mol
# GULP energy per Si atom -12394.205840 kJ/mol
# Density = 1.706555 g / cm^3
# Si number density = 17.104480 Si / 1000 Ang^3
#
#
#
# Elastic Constant Matrix: (Units=GPa)
#
#
# Indices 1 2 3 4 5 6 
#
# 1 53.0791 25.3296 60.6491 0.0000 0.0000 0.0000
# 2 25.3296 53.0816 60.6502 0.0000 0.0000 0.0000
# 3 60.6491 60.6502 180.5307 0.0000 0.0000 0.0000
# 4 0.0000 0.0000 0.0000 25.9750 0.0000 0.0000
# 5 0.0000 0.0000 0.0000 0.0000 25.9747 0.0000
# 6 0.0000 0.0000 0.0000 0.0000 0.0000 13.9585
#
#
#
# Elastic Compliance Matrix: (Units=1/GPa)
#
#
# Indices 1 2 3 4 5 6 
#
# 1 0.031295 -0.004741 -0.008921 0.000000 0.000000 0.000000
# 2 -0.004741 0.031294 -0.008921 0.000000 0.000000 0.000000
# 3 -0.008921 -0.008921 0.011533 0.000000 0.000000 0.000000
# 4 0.000000 0.000000 0.000000 0.038499 0.000000 0.000000
# 5 0.000000 0.000000 0.000000 0.000000 0.038499 0.000000
# 6 0.000000 0.000000 0.000000 0.000000 0.000000 0.071641
#
#
# Mechanical properties :
#
#
# Convention : Reuss Voigt Hill
#
# Bulk Modulus (GPa) = 34.53319 64.43880 49.48600
# Shear Modulus (GPa) = 18.01295 22.51911 20.26603
#
# Velocity S-wave (km/s) = 3.24869 3.63238 3.44588
# Velocity P-wave (km/s) = 5.85708 7.43960 6.69526
#
# Compressibility (1/GPa) = 0.02895765
#
# Stress axis : x y z
#
# Youngs Moduli (GPa) = 31.95358 31.95540 86.70634
#
# Poissons Ratio (x) = 0.15149 0.77351
# Poissons Ratio (y) = 0.15148 0.77348
# Poissons Ratio (z) = 0.28506 0.28506
#
# Static dielectric constant tensor:
#      x y z
#    x 3.037640 0.000000 0.000000 
#    y 0.000000 3.037630 0.000000 
#    z 0.000000 0.000000 3.554890 
# 
# 
# High freq. dielectric constant tensor:
#      x y z
#    x 1.624010 0.000000 0.000000 
#    y 0.000000 1.624010 0.000000 
#    z 0.000000 0.000000 1.676990 
# 
# From -- ./inp_files/5446.got.cif
#   From: 2010.03.12/outbox.cif.g09.slc.cpg/sg115_3_cif.got.tgz:5446.got - 2010.04.14 02:11:21.
