data_PCOD8310764
_publ_section_title
;
Structure prediction by ZEFSAII (Michael W. Deem and Ramdas Pophale) SiO2 
 PCOD8310764
Probable space group: I -4 M 2
;
_chemical_formula_sum "Si O2"
_cell_formula_units_Z 72
_cell_length_a 12.158296
_cell_length_b 12.158296
_cell_length_c 29.802590
_cell_angle_alpha 90.000000
_cell_angle_beta 90.000000
_cell_angle_gamma 90.000000
_cell_volume 4405.542881
_symmetry_space_group_name_H-M "I -4 M 2"
_symmetry_group_IT_number 119
_symmetry_cell_setting 'tetragonal'
loop_
_space_group_symop_operation_xyz
x,y,z
y,-x,-z
-x,-y,z
-y,x,-z
y,x,-z
-y,-x,-z
-x,y,z
x,-y,z
1/2+x,1/2+y,1/2+z
1/2+y,1/2-x,1/2-z
1/2-x,1/2-y,1/2+z
1/2-y,1/2+x,1/2-z
1/2+y,1/2+x,1/2-z
1/2-y,1/2-x,1/2-z
1/2-x,1/2+y,1/2+z
1/2+x,1/2-y,1/2+z
loop_
_atom_site_type_symbol
_atom_site_label
_atom_site_fract_x
_atom_site_fract_y
_atom_site_fract_z
Si Si1 0.000000 0.372024 0.845665
Si Si2 0.207223 0.239106 0.819524
Si Si3 0.765722 0.500000 0.559939
Si Si4 0.125663 0.127005 0.733753
Si Si5 0.378128 0.700100 0.587531
Si Si6 0.500000 0.130646 0.535457
O O1 0.105870 0.321622 0.822261
O O2 0.000000 0.347447 0.898331
O O3 0.000000 0.500000 0.836660
O O4 0.180870 0.148608 0.781928
O O5 0.312604 0.310125 0.806086
O O6 0.232269 0.179942 0.866231
O O7 0.689659 0.391439 0.560241
O O8 0.843989 0.500000 0.517089
O O9 0.000000 0.167318 0.734607
O O10 0.134553 0.000000 0.722488
O O11 0.500000 0.650981 0.597750
O O12 0.391648 0.811926 0.557868
O O13 0.500000 0.000000 0.544081
#
# Coordination Sequence:
#
# PCOD8310764 Si02
#       6
#     8  16   8  16  16   8
#     4  10  19  31  51  78 109 131 168 219 279 335
#     4  10  19  34  50  75 100 139 175 220 274 317
#     4  10  18  34  54  81 106 140 174 220 270 332
#     4  10  20  33  51  71 101 136 180 224 264 321
#     4   9  20  32  54  77 107 136 178 221 267 324
#     4  10  21  34  50  76 110 144 174 212 272 324
#
# _framework density 16.343049000000001
#
# number of rings (size 3 to 8) (size 9 to 14) (size 15 to 20)
#    0.667    1.556    1.111    2.667    0.000    0.889 
#    2.000    0.000    0.000    1.333    0.000    0.000 
#    0.000    8.889    0.000    0.000    0.000    0.000 
#
# Total GULP energy -446291.132409 kJ/mol
# GULP energy per Si atom -12396.975900 kJ/mol
# Density = 1.630585 g / cm^3
# Si number density = 16.343049 Si / 1000 Ang^3
#
#
#
# Elastic Constant Matrix: (Units=GPa)
#
#
# Indices 1 2 3 4 5 6 
#
# 1 90.7177 29.4712 33.9502 0.0000 0.0000 0.0000
# 2 29.4712 90.7177 33.9502 0.0000 0.0000 0.0000
# 3 33.9502 33.9502 81.7263 0.0000 0.0000 0.0000
# 4 0.0000 0.0000 0.0000 24.5727 0.0000 0.0000
# 5 0.0000 0.0000 0.0000 0.0000 24.5727 0.0000
# 6 0.0000 0.0000 0.0000 0.0000 0.0000 24.6685
#
#
#
# Elastic Compliance Matrix: (Units=1/GPa)
#
#
# Indices 1 2 3 4 5 6 
#
# 1 0.013600 -0.002728 -0.004516 0.000000 0.000000 0.000000
# 2 -0.002728 0.013600 -0.004516 0.000000 0.000000 0.000000
# 3 -0.004516 -0.004516 0.015988 0.000000 0.000000 0.000000
# 4 0.000000 0.000000 0.000000 0.040696 0.000000 0.000000
# 5 0.000000 0.000000 0.000000 0.000000 0.040696 0.000000
# 6 0.000000 0.000000 0.000000 0.000000 0.000000 0.040537
#
#
# Mechanical properties :
#
#
# Convention : Reuss Voigt Hill
#
# Bulk Modulus (GPa) = 50.84774 50.87834 50.86304
# Shear Modulus (GPa) = 25.61577 25.81545 25.71561
#
# Velocity S-wave (km/s) = 3.96331 3.97873 3.97103
# Velocity P-wave (km/s) = 7.21970 7.23230 7.22600
#
# Compressibility (1/GPa) = 0.01966656
#
# Stress axis : x y z
#
# Youngs Moduli (GPa) = 73.53175 73.53176 62.54617
#
# Poissons Ratio (x) = 0.20059 0.28247
# Poissons Ratio (y) = 0.20059 0.28247
# Poissons Ratio (z) = 0.33209 0.33209
#
# Static dielectric constant tensor:
#      x y z
#    x 2.985540 0.000000 0.000000 
#    y 0.000000 2.985540 0.000000 
#    z 0.000000 0.000000 3.010340 
# 
# 
# High freq. dielectric constant tensor:
#      x y z
#    x 1.623460 0.000000 0.000000 
#    y 0.000000 1.623460 0.000000 
#    z 0.000000 0.000000 1.633580 
# 
# From -- ./inp_files/10072.got.cif
#   From: 2010.03.12/outbox.cif.g09.slc.cpg/sg119_6_cif.got.tgz:10072.got - 2010.04.14 02:25:26.
