data_PCOD8310476
_publ_section_title
;
Structure prediction by ZEFSAII (Michael W. Deem and Ramdas Pophale) SiO2 
 PCOD8310476
Probable space group: P -4 N 2
;
_chemical_formula_sum "Si O2"
_cell_formula_units_Z 48
_cell_length_a 9.180323
_cell_length_b 9.180323
_cell_length_c 31.194900
_cell_angle_alpha 90.000000
_cell_angle_beta 90.000000
_cell_angle_gamma 90.000000
_cell_volume 2629.054089
_symmetry_space_group_name_H-M "P -4 N 2"
_symmetry_group_IT_number 118
_symmetry_cell_setting 'tetragonal'
loop_
_space_group_symop_operation_xyz
x,y,z
y,-x,-z
-x,-y,z
-y,x,-z
1/2+y,1/2+x,1/2-z
1/2-y,1/2-x,1/2-z
1/2-x,1/2+y,1/2+z
1/2+x,1/2-y,1/2+z
loop_
_atom_site_type_symbol
_atom_site_label
_atom_site_fract_x
_atom_site_fract_y
_atom_site_fract_z
Si Si1 0.326249 0.337445 0.453022
Si Si2 0.331335 0.671291 0.287747
Si Si3 0.326839 0.163124 0.372315
Si Si4 0.328709 0.668665 0.712253
Si Si5 0.162555 0.826249 0.046978
Si Si6 0.673162 0.163124 0.372315
O O1 0.262987 0.233427 0.415905
O O2 0.264664 0.500000 0.445155
O O3 0.500000 0.342421 0.451627
O O4 0.278037 0.278037 0.500000
O O5 0.234175 0.734175 0.250000
O O6 0.500000 0.710223 0.278984
O O7 0.307149 0.500000 0.291396
O O8 0.275328 0.742744 0.331798
O O9 0.275329 0.257256 0.331798
O O10 0.500000 0.161540 0.374666
O O11 0.264455 0.000000 0.367801
O O12 0.265825 0.765825 0.750000
O O13 0.266573 0.762987 0.084095
#
# Coordination Sequence:
#
# PCOD8310476 Si02
#       6
#     8   8   8   8   8   8
#     4   8  13  22  38  61  89 121 157 195 233 275
#     4  10  20  33  50  72  98 128 162 201 245 292
#     4   9  16  26  43  68  96 124 156 196 239 283
#     4  10  20  33  50  72  98 128 162 201 245 292
#     4   8  13  22  38  61  89 121 157 195 233 275
#     4   9  16  26  43  68  96 124 156 196 239 283
#
# _framework density 18.257517
#
# number of rings (size 3 to 8) (size 9 to 14) (size 15 to 20)
#    0.000    3.000    0.000    3.000    0.000    6.000 
#    0.000    0.000    0.000    2.000    0.000    4.667 
#    0.000    0.000    0.000    0.000    0.000    0.000 
#
# Total GULP energy -595029.639325 kJ/mol
# GULP energy per Si atom -12396.450819 kJ/mol
# Density = 1.821596 g / cm^3
# Si number density = 18.257517 Si / 1000 Ang^3
#
#
#
# Elastic Constant Matrix: (Units=GPa)
#
#
# Indices 1 2 3 4 5 6 
#
# 1 70.4754 30.6388 61.0413 0.0000 0.0000 0.0000
# 2 30.6388 70.4754 61.0413 0.0000 0.0000 0.0000
# 3 61.0413 61.0413 188.8713 0.0000 0.0000 0.0000
# 4 0.0000 0.0000 0.0000 26.0304 0.0000 0.0000
# 5 0.0000 0.0000 0.0000 0.0000 26.0304 0.0000
# 6 0.0000 0.0000 0.0000 0.0000 0.0000 13.7692
#
#
#
# Elastic Compliance Matrix: (Units=1/GPa)
#
#
# Indices 1 2 3 4 5 6 
#
# 1 0.020660 -0.004442 -0.005242 0.000000 0.000000 0.000000
# 2 -0.004442 0.020660 -0.005242 0.000000 0.000000 0.000000
# 3 -0.005242 -0.005242 0.008683 0.000000 0.000000 0.000000
# 4 0.000000 0.000000 0.000000 0.038417 0.000000 0.000000
# 5 0.000000 0.000000 0.000000 0.000000 0.038417 0.000000
# 6 0.000000 0.000000 0.000000 0.000000 0.000000 0.072626
#
#
# Mechanical properties :
#
#
# Convention : Reuss Voigt Hill
#
# Bulk Modulus (GPa) = 49.62039 70.58499 60.10269
# Shear Modulus (GPa) = 21.18365 24.97272 23.07818
#
# Velocity S-wave (km/s) = 3.40997 3.70240 3.55919
# Velocity P-wave (km/s) = 6.53765 7.55127 7.06267
#
# Compressibility (1/GPa) = 0.02015301
#
# Stress axis : x y z
#
# Youngs Moduli (GPa) = 48.40161 48.40161 115.17165
#
# Poissons Ratio (x) = 0.21500 0.60369
# Poissons Ratio (y) = 0.21500 0.60369
# Poissons Ratio (z) = 0.25370 0.25370
#
# Static dielectric constant tensor:
#      x y z
#    x 3.113050 0.000000 0.000000 
#    y 0.000000 3.113050 0.000000 
#    z 0.000000 0.000000 3.722240 
# 
# 
# High freq. dielectric constant tensor:
#      x y z
#    x 1.668800 0.000000 0.000000 
#    y 0.000000 1.668800 0.000000 
#    z 0.000000 0.000000 1.729070 
# 
# From -- ./inp_files/6865.got.cif
#   From: 2010.03.12/outbox.cif.g09.slc.cpg/sg118_4_cif.got.tgz:6865.got - 2010.04.14 02:21:17.
