data_PCOD8310169
_publ_section_title
;
Structure prediction by ZEFSAII (Michael W. Deem and Ramdas Pophale) SiO2 
 PCOD8310169
Probable space group: P -4 C 2
;
_chemical_formula_sum "Si O2"
_cell_formula_units_Z 40
_cell_length_a 14.222306
_cell_length_b 14.222306
_cell_length_c 8.712840
_cell_angle_alpha 90.000000
_cell_angle_beta 90.000000
_cell_angle_gamma 90.000000
_cell_volume 1762.380893
_symmetry_space_group_name_H-M "P -4 C 2"
_symmetry_group_IT_number 116
_symmetry_cell_setting 'tetragonal'
loop_
_space_group_symop_operation_xyz
x,y,z
y,-x,-z
-x,-y,z
-y,x,-z
y,x,1/2-z
-y,-x,1/2-z
-x,y,1/2+z
x,-y,1/2+z
loop_
_atom_site_type_symbol
_atom_site_label
_atom_site_fract_x
_atom_site_fract_y
_atom_site_fract_z
Si Si1 0.217613 0.489373 0.470835
Si Si2 0.349511 0.500597 0.716219
Si Si3 0.593671 0.056732 0.865097
Si Si4 0.884551 0.082500 0.433525
Si Si5 0.316197 0.896319 0.546413
O O1 0.322658 0.503960 0.537887
O O2 0.243672 0.500690 0.291119
O O3 0.141165 0.565868 0.520585
O O4 0.184897 0.384387 0.516203
O O5 0.408036 0.408036 0.750000
O O6 0.404662 0.595339 0.750000
O O7 0.657163 0.093148 0.725316
O O8 0.500000 0.000000 0.807667
O O9 0.662945 0.993903 0.963976
O O10 0.897313 0.102688 0.250000
O O11 0.791131 0.131411 0.504942
O O12 0.970983 0.123222 0.532892
#
# Coordination Sequence:
#
# PCOD8310169 Si02
#       5
#     8   8   8   8   8
#     4  11  22  42  67  98 134 176 225 277 339 393
#     4  11  24  44  66  93 135 183 221 267 335 400
#     4  10  21  39  66  98 140 178 218 279 359 398
#     4  11  24  46  70  95 138 186 224 278 356 416
#     4  11  23  41  68 100 132 175 229 281 334 413
#
# _framework density 22.696570999999999
#
# number of rings (size 3 to 8) (size 9 to 14) (size 15 to 20)
#    0.000    1.200    2.000    5.400    2.800    2.400 
#    7.200    0.000    0.000    0.000    0.000    0.000 
#    0.000    0.000    0.000    0.000    0.000    0.000 
#
# Total GULP energy -495758.288114 kJ/mol
# GULP energy per Si atom -12393.957203 kJ/mol
# Density = 2.264491 g / cm^3
# Si number density = 22.696571 Si / 1000 Ang^3
#
#
#
# Elastic Constant Matrix: (Units=GPa)
#
#
# Indices 1 2 3 4 5 6 
#
# 1 99.1011 26.9720 30.7313 0.0000 0.0000 0.0000
# 2 26.9720 99.1021 30.7320 0.0000 0.0000 0.0000
# 3 30.7313 30.7320 90.4111 0.0000 0.0000 0.0000
# 4 0.0000 0.0000 0.0000 34.0854 0.0000 0.0000
# 5 0.0000 0.0000 0.0000 0.0000 34.0844 0.0000
# 6 0.0000 0.0000 0.0000 0.0000 0.0000 16.2691
#
#
#
# Elastic Compliance Matrix: (Units=1/GPa)
#
#
# Indices 1 2 3 4 5 6 
#
# 1 0.011686 -0.002178 -0.003232 0.000000 0.000000 0.000000
# 2 -0.002178 0.011686 -0.003232 0.000000 0.000000 0.000000
# 3 -0.003232 -0.003232 0.013258 0.000000 0.000000 0.000000
# 4 0.000000 0.000000 0.000000 0.029338 0.000000 0.000000
# 5 0.000000 0.000000 0.000000 0.000000 0.029339 0.000000
# 6 0.000000 0.000000 0.000000 0.000000 0.000000 0.061466
#
#
# Mechanical properties :
#
#
# Convention : Reuss Voigt Hill
#
# Bulk Modulus (GPa) = 51.69117 51.72054 51.70585
# Shear Modulus (GPa) = 27.70025 30.23306 28.96666
#
# Velocity S-wave (km/s) = 3.49730 3.65369 3.57635
# Velocity P-wave (km/s) = 6.25559 6.37468 6.31542
#
# Compressibility (1/GPa) = 0.01934567
#
# Stress axis : x y z
#
# Youngs Moduli (GPa) = 85.57478 85.57535 75.42882
#
# Poissons Ratio (x) = 0.18641 0.24376
# Poissons Ratio (y) = 0.18641 0.24376
# Poissons Ratio (z) = 0.27654 0.27655
#
# Static dielectric constant tensor:
#      x y z
#    x 4.024800 0.000000 0.000000 
#    y 0.000000 4.024810 0.000000 
#    z 0.000000 0.000000 4.167670 
# 
# 
# High freq. dielectric constant tensor:
#      x y z
#    x 1.891640 0.000000 0.000000 
#    y 0.000000 1.891640 0.000000 
#    z 0.000000 0.000000 1.912640 
# 
# From -- ./inp_files/817.got.cif
#   From: 2010.03.12/outbox.cif.g09.slc.cpg/sg116_1_cif.got.tgz:817.got - 2010.04.14 02:15:44.
