data_PCOD8310348
_publ_section_title
;
Structure prediction by ZEFSAII (Michael W. Deem and Ramdas Pophale) SiO2 
 PCOD8310348
Probable space group: P -4 B 2
;
_chemical_formula_sum "Si O2"
_cell_formula_units_Z 40
_cell_length_a 10.740281
_cell_length_b 10.740281
_cell_length_c 15.860964
_cell_angle_alpha 90.000000
_cell_angle_beta 90.000000
_cell_angle_gamma 90.000000
_cell_volume 1829.619867
_symmetry_space_group_name_H-M "P -4 B 2"
_symmetry_group_IT_number 117
_symmetry_cell_setting 'tetragonal'
loop_
_space_group_symop_operation_xyz
x,y,z
y,-x,-z
-x,-y,z
-y,x,-z
1/2+y,1/2+x,-z
1/2-y,1/2-x,-z
1/2-x,1/2+y,z
1/2+x,1/2-y,z
loop_
_atom_site_type_symbol
_atom_site_label
_atom_site_fract_x
_atom_site_fract_y
_atom_site_fract_z
Si Si1 0.464531 0.300737 0.003631
Si Si2 0.591570 0.883760 0.316822
Si Si3 0.467084 0.784476 0.546334
Si Si4 0.556326 0.634278 0.392035
Si Si5 0.404632 0.112000 0.868347
O O1 0.473309 0.218232 0.920260
O O2 0.359730 0.401545 0.982995
O O3 0.428759 0.223249 0.086610
O O4 0.523575 0.749536 0.329153
O O5 0.661227 0.876692 0.226558
O O6 0.500000 0.000000 0.314289
O O7 0.675761 0.910922 0.399671
O O8 0.401650 0.901650 0.500000
O O9 0.508808 0.675463 0.483566
O O10 0.374342 0.708447 0.608265
O O11 0.500000 0.500000 0.363193
O O12 0.500000 0.000000 0.864742
#
# Coordination Sequence:
#
# PCOD8310348 Si02
#       5
#     8   8   8   8   8
#     4  10  22  43  72 100 131 177 220 269 341 427
#     4  11  25  44  68 102 134 185 236 296 362 428
#     4  12  22  42  71  93 134 186 244 287 354 425
#     4  12  25  44  64  99 137 181 238 303 353 417
#     4  10  24  43  69  99 138 174 225 282 348 420
#
# _framework density 21.862463999999999
#
# number of rings (size 3 to 8) (size 9 to 14) (size 15 to 20)
#    0.000    1.000    4.000    3.000    5.600    1.600 
#   10.800    0.000    4.400    0.000    0.000    0.000 
#    0.000    0.000    0.000    0.000    0.000    0.000 
#
# Total GULP energy -495687.579487 kJ/mol
# GULP energy per Si atom -12392.189487 kJ/mol
# Density = 2.181270 g / cm^3
# Si number density = 21.862464 Si / 1000 Ang^3
#
#
#
# Elastic Constant Matrix: (Units=GPa)
#
#
# Indices 1 2 3 4 5 6 
#
# 1 111.3644 32.6489 37.9511 0.0000 0.0000 0.0000
# 2 32.6489 111.3644 37.9511 0.0000 0.0000 0.0000
# 3 37.9511 37.9511 130.9456 0.0000 0.0000 0.0000
# 4 0.0000 0.0000 0.0000 15.1901 0.0000 0.0000
# 5 0.0000 0.0000 0.0000 0.0000 15.1901 0.0000
# 6 0.0000 0.0000 0.0000 0.0000 0.0000 28.5025
#
#
#
# Elastic Compliance Matrix: (Units=1/GPa)
#
#
# Indices 1 2 3 4 5 6 
#
# 1 0.010450 -0.002254 -0.002375 0.000000 0.000000 0.000000
# 2 -0.002254 0.010450 -0.002375 0.000000 0.000000 0.000000
# 3 -0.002375 -0.002375 0.009014 0.000000 0.000000 0.000000
# 4 0.000000 0.000000 0.000000 0.065832 0.000000 0.000000
# 5 0.000000 0.000000 0.000000 0.000000 0.065832 0.000000
# 6 0.000000 0.000000 0.000000 0.000000 0.000000 0.035085
#
#
# Mechanical properties :
#
#
# Convention : Reuss Voigt Hill
#
# Bulk Modulus (GPa) = 62.87811 63.41961 63.14886
# Shear Modulus (GPa) = 23.15099 28.11809 25.63454
#
# Velocity S-wave (km/s) = 3.25766 3.59016 3.42795
# Velocity P-wave (km/s) = 6.55538 6.80126 6.67945
#
# Compressibility (1/GPa) = 0.01590379
#
# Stress axis : x y z
#
# Youngs Moduli (GPa) = 95.69521 95.69521 110.94342
#
# Poissons Ratio (x) = 0.21571 0.26353
# Poissons Ratio (y) = 0.21571 0.26353
# Poissons Ratio (z) = 0.22731 0.22731
#
# Static dielectric constant tensor:
#      x y z
#    x 3.969700 0.000000 0.000000 
#    y 0.000000 3.969700 0.000000 
#    z 0.000000 0.000000 4.335330 
# 
# 
# High freq. dielectric constant tensor:
#      x y z
#    x 1.865030 0.000000 0.000000 
#    y 0.000000 1.865030 0.000000 
#    z 0.000000 0.000000 1.846550 
# 
# From -- ./inp_files/3121.got.cif
#   From: 2010.03.12/outbox.cif.g09.slc.cpg/sg117_2_cif.got.tgz:3121.got - 2010.04.14 02:19:01.
