data_PCOD8310142
_publ_section_title
;
Structure prediction by ZEFSAII (Michael W. Deem and Ramdas Pophale) SiO2 
 PCOD8310142
Probable space group: P -4 C 2
;
_chemical_formula_sum "Si O2"
_cell_formula_units_Z 48
_cell_length_a 11.989460
_cell_length_b 11.989460
_cell_length_c 16.762697
_cell_angle_alpha 90.000000
_cell_angle_beta 90.000000
_cell_angle_gamma 90.000000
_cell_volume 2409.589938
_symmetry_space_group_name_H-M "P -4 C 2"
_symmetry_group_IT_number 116
_symmetry_cell_setting 'tetragonal'
loop_
_space_group_symop_operation_xyz
x,y,z
y,-x,-z
-x,-y,z
-y,x,-z
y,x,1/2-z
-y,-x,1/2-z
-x,y,1/2+z
x,-y,1/2+z
loop_
_atom_site_type_symbol
_atom_site_label
_atom_site_fract_x
_atom_site_fract_y
_atom_site_fract_z
Si Si1 0.369854 0.200701 0.242054
Si Si2 0.350497 0.904791 0.456336
Si Si3 0.225871 0.306356 0.926747
Si Si4 0.407313 0.856114 0.917752
Si Si5 0.459860 0.625244 0.172083
Si Si6 0.372671 0.990178 0.620132
O O1 0.242767 0.242767 0.250000
O O2 0.420486 0.196084 0.330486
O O3 0.437226 0.291124 0.189496
O O4 0.365116 0.078395 0.202217
O O5 0.262385 0.821963 0.415357
O O6 0.472280 0.849409 0.458589
O O7 0.310721 0.927717 0.547457
O O8 0.357919 0.019269 0.406552
O O9 0.324786 0.388142 0.899526
O O10 0.115584 0.324016 0.872037
O O11 0.209096 0.326475 0.021379
O O12 0.500000 0.500000 0.149322
O O13 0.381832 0.618169 0.250000
O O14 0.500000 0.000000 0.592701
#
# Coordination Sequence:
#
# PCOD8310142 Si02
#       6
#     8   8   8   8   8   8
#     4  12  23  38  63  86 134 176 209 270 329 397
#     4  10  20  39  60  89 123 156 219 277 313 395
#     4  11  22  40  66  90 129 170 221 283 321 404
#     4  10  22  39  59  91 122 170 216 258 334 396
#     4  11  22  38  57  94 139 168 209 264 338 406
#     4  11  21  41  64  92 126 177 226 263 331 403
#
# _framework density 19.920400999999998
#
# number of rings (size 3 to 8) (size 9 to 14) (size 15 to 20)
#    0.000    1.167    6.667    2.000    2.333    1.333 
#    0.000    0.833    0.000   18.000    0.000    0.000 
#    0.000    0.000    0.000    0.000    0.000    0.000 
#
# Total GULP energy -595066.908964 kJ/mol
# GULP energy per Si atom -12397.227270 kJ/mol
# Density = 1.987506 g / cm^3
# Si number density = 19.920401 Si / 1000 Ang^3
#
#
#
# Elastic Constant Matrix: (Units=GPa)
#
#
# Indices 1 2 3 4 5 6 
#
# 1 108.6794 57.5589 32.0682 0.0000 0.0000 0.0000
# 2 57.5589 108.6790 32.0682 0.0000 0.0000 0.0000
# 3 32.0682 32.0682 81.9337 0.0000 0.0000 0.0000
# 4 0.0000 0.0000 0.0000 27.2444 0.0000 0.0000
# 5 0.0000 0.0000 0.0000 0.0000 27.2445 0.0000
# 6 0.0000 0.0000 0.0000 0.0000 0.0000 36.8883
#
#
#
# Elastic Compliance Matrix: (Units=1/GPa)
#
#
# Indices 1 2 3 4 5 6 
#
# 1 0.013324 -0.006238 -0.002773 0.000000 0.000000 0.000000
# 2 -0.006238 0.013324 -0.002773 0.000000 0.000000 0.000000
# 3 -0.002773 -0.002773 0.014376 0.000000 0.000000 0.000000
# 4 0.000000 0.000000 0.000000 0.036705 0.000000 0.000000
# 5 0.000000 0.000000 0.000000 0.000000 0.036705 0.000000
# 6 0.000000 0.000000 0.000000 0.000000 0.000000 0.027109
#
#
# Mechanical properties :
#
#
# Convention : Reuss Voigt Hill
#
# Bulk Modulus (GPa) = 57.29382 60.29808 58.79595
# Shear Modulus (GPa) = 29.25208 30.11524 29.68366
#
# Velocity S-wave (km/s) = 3.83619 3.89238 3.86439
# Velocity P-wave (km/s) = 6.96029 7.10887 7.03497
#
# Compressibility (1/GPa) = 0.01745389
#
# Stress axis : x y z
#
# Youngs Moduli (GPa) = 75.05526 75.05503 69.56149
#
# Poissons Ratio (x) = 0.46820 0.19291
# Poissons Ratio (y) = 0.46821 0.19291
# Poissons Ratio (z) = 0.20814 0.20814
#
# Static dielectric constant tensor:
#      x y z
#    x 3.614220 0.000000 0.000000 
#    y 0.000000 3.614220 0.000000 
#    z 0.000000 0.000000 3.469500 
# 
# 
# High freq. dielectric constant tensor:
#      x y z
#    x 1.767110 0.000000 0.000000 
#    y 0.000000 1.767110 0.000000 
#    z 0.000000 0.000000 1.771670 
# 
# From -- ./inp_files/3402.got.cif
#   From: 2010.03.12/outbox.cif.g09.slc.cpg/sg116_2_cif.got.tgz:3402.got - 2010.04.14 02:15:44.
