data_PCOD8310253
_publ_section_title
;
Structure prediction by ZEFSAII (Michael W. Deem and Ramdas Pophale) SiO2 
 PCOD8310253
Probable space group: P -4 C 2
;
_chemical_formula_sum "Si O2"
_cell_formula_units_Z 40
_cell_length_a 8.520746
_cell_length_b 8.520746
_cell_length_c 23.616342
_cell_angle_alpha 90.000000
_cell_angle_beta 90.000000
_cell_angle_gamma 90.000000
_cell_volume 1714.619933
_symmetry_space_group_name_H-M "P -4 C 2"
_symmetry_group_IT_number 116
_symmetry_cell_setting 'tetragonal'
loop_
_space_group_symop_operation_xyz
x,y,z
y,-x,-z
-x,-y,z
-y,x,-z
y,x,1/2-z
-y,-x,1/2-z
-x,y,1/2+z
x,-y,1/2+z
loop_
_atom_site_type_symbol
_atom_site_label
_atom_site_fract_x
_atom_site_fract_y
_atom_site_fract_z
Si Si1 0.340918 0.441879 0.188789
Si Si2 0.728670 0.378403 0.504292
Si Si3 0.326972 0.064889 0.597133
Si Si4 0.240873 0.830799 0.311928
Si Si5 0.854810 0.237423 0.613179
O O1 0.500000 0.500000 0.156838
O O2 0.386686 0.386686 0.250000
O O3 0.209752 0.576443 0.194596
O O4 0.276230 0.291281 0.157377
O O5 0.561376 0.292731 0.511119
O O6 0.813283 0.291410 0.452805
O O7 0.840157 0.357767 0.559934
O O8 0.311937 0.152662 0.657105
O O9 0.500000 0.000000 0.590595
O O10 0.192334 0.933793 0.591516
O O11 0.156203 0.843798 0.250000
O O12 0.229269 0.981624 0.353017
#
# Coordination Sequence:
#
# PCOD8310253 Si02
#       5
#     8   8   8   8   8
#     4  11  24  47  78 114 147 200 265 326 383 473
#     4  11  26  49  80 112 149 200 265 330 395 481
#     4  12  27  48  74 111 153 202 259 321 400 477
#     4  12  28  49  76 113 161 205 263 325 404 484
#     4  12  28  46  80 111 158 204 257 332 405 482
#
# _framework density 23.328785
#
# number of rings (size 3 to 8) (size 9 to 14) (size 15 to 20)
#    0.000    0.400    4.000    3.600    8.400    2.400 
#    0.000    0.000    0.000    0.000    0.000    0.000 
#    0.000    0.000    0.000    0.000    0.000    0.000 
#
# Total GULP energy -495985.951594 kJ/mol
# GULP energy per Si atom -12399.648790 kJ/mol
# Density = 2.327569 g / cm^3
# Si number density = 23.328785 Si / 1000 Ang^3
#
#
#
# Elastic Constant Matrix: (Units=GPa)
#
#
# Indices 1 2 3 4 5 6 
#
# 1 108.0852 42.1856 51.9085 0.0000 0.0000 0.0000
# 2 42.1856 108.0851 51.9086 0.0000 0.0000 0.0000
# 3 51.9085 51.9086 138.9509 0.0000 0.0000 0.0000
# 4 0.0000 0.0000 0.0000 37.9826 0.0000 0.0000
# 5 0.0000 0.0000 0.0000 0.0000 37.9826 0.0000
# 6 0.0000 0.0000 0.0000 0.0000 0.0000 41.6298
#
#
#
# Elastic Compliance Matrix: (Units=1/GPa)
#
#
# Indices 1 2 3 4 5 6 
#
# 1 0.012072 -0.003102 -0.003351 0.000000 0.000000 0.000000
# 2 -0.003102 0.012072 -0.003351 0.000000 0.000000 0.000000
# 3 -0.003351 -0.003351 0.009700 0.000000 0.000000 0.000000
# 4 0.000000 0.000000 0.000000 0.026328 0.000000 0.000000
# 5 0.000000 0.000000 0.000000 0.000000 0.026328 0.000000
# 6 0.000000 0.000000 0.000000 0.000000 0.000000 0.024021
#
#
# Mechanical properties :
#
#
# Convention : Reuss Voigt Hill
#
# Bulk Modulus (GPa) = 70.24294 71.90297 71.07296
# Shear Modulus (GPa) = 37.07129 37.46023 37.26576
#
# Velocity S-wave (km/s) = 3.99065 4.01153 4.00110
# Velocity P-wave (km/s) = 7.17001 7.23498 7.20257
#
# Compressibility (1/GPa) = 0.01423631
#
# Stress axis : x y z
#
# Youngs Moduli (GPa) = 82.83558 82.83538 103.08899
#
# Poissons Ratio (x) = 0.25700 0.34543
# Poissons Ratio (y) = 0.25700 0.34543
# Poissons Ratio (z) = 0.27757 0.27757
#
# Static dielectric constant tensor:
#      x y z
#    x 4.577150 0.000000 0.000000 
#    y 0.000000 4.577150 0.000000 
#    z 0.000000 0.000000 4.325710 
# 
# 
# High freq. dielectric constant tensor:
#      x y z
#    x 1.928180 0.000000 0.000000 
#    y 0.000000 1.928180 0.000000 
#    z 0.000000 0.000000 1.933380 
# 
# From -- ./inp_files/4454.got.cif
#   From: 2010.03.12/outbox.cif.g09.slc.cpg/sg116_3_cif.got.tgz:4454.got - 2010.04.14 02:15:44.
