data_PCOD8310055
_publ_section_title
;
Structure prediction by ZEFSAII (Michael W. Deem and Ramdas Pophale) SiO2 
 PCOD8310055
Probable space group: P -4 M 2
;
_chemical_formula_sum "Si O2"
_cell_formula_units_Z 40
_cell_length_a 13.527459
_cell_length_b 13.527459
_cell_length_c 12.201103
_cell_angle_alpha 90.000000
_cell_angle_beta 90.000000
_cell_angle_gamma 90.000000
_cell_volume 2232.706034
_symmetry_space_group_name_H-M "P -4 M 2"
_symmetry_group_IT_number 115
_symmetry_cell_setting 'tetragonal'
loop_
_space_group_symop_operation_xyz
x,y,z
y,-x,-z
-x,-y,z
-y,x,-z
y,x,-z
-y,-x,-z
-x,y,z
x,-y,z
loop_
_atom_site_type_symbol
_atom_site_label
_atom_site_fract_x
_atom_site_fract_y
_atom_site_fract_z
Si Si1 0.111291 0.387092 0.559700
Si Si2 0.229250 0.385417 0.977045
Si Si3 0.387641 0.713715 0.594344
Si Si4 0.213583 0.290368 0.753013
Si Si5 0.884694 0.778380 0.093532
O O1 0.131393 0.500000 0.597234
O O2 0.179201 0.360861 0.456026
O O3 0.132175 0.314413 0.661327
O O4 0.000000 0.370945 0.520072
O O5 0.231231 0.500000 0.008273
O O6 0.202029 0.370089 0.849976
O O7 0.336191 0.336191 0.000000
O O8 0.146747 0.330671 0.051310
O O9 0.367492 0.632509 0.500000
O O10 0.500000 0.705759 0.633316
O O11 0.322413 0.696546 0.701696
O O12 0.196808 0.178914 0.797575
O O13 0.000000 0.781661 0.122723
O O14 0.859052 0.859052 0.000000
#
# Coordination Sequence:
#
# PCOD8310055 Si02
#       5
#     8   8   8   8   8
#     4   9  17  30  49  72  96 123 157 197 240 284
#     4   9  19  34  50  71 100 131 163 199 240 288
#     4   9  18  32  47  67  97 129 159 193 232 278
#     4   9  18  31  50  72  96 124 159 199 239 284
#     4   9  20  36  52  72  98 128 162 201 247 295
#
# _framework density 17.915479999999999
#
# number of rings (size 3 to 8) (size 9 to 14) (size 15 to 20)
#    0.000    3.400    0.000    0.600    0.000    9.000 
#    0.000    0.000    0.000    0.000    0.000    0.000 
#    0.000    0.000    0.000    0.000    0.000    0.000 
#
# Total GULP energy -495878.448593 kJ/mol
# GULP energy per Si atom -12396.961215 kJ/mol
# Density = 1.787470 g / cm^3
# Si number density = 17.915480 Si / 1000 Ang^3
#
#
#
# Elastic Constant Matrix: (Units=GPa)
#
#
# Indices 1 2 3 4 5 6 
#
# 1 81.0455 12.8445 0.2938 0.0000 0.0000 0.0000
# 2 12.8445 81.0480 0.2935 0.0000 0.0000 0.0000
# 3 0.2938 0.2935 37.4899 0.0000 0.0000 0.0000
# 4 0.0000 0.0000 0.0000 13.3479 0.0000 0.0000
# 5 0.0000 0.0000 0.0000 0.0000 13.3479 0.0000
# 6 0.0000 0.0000 0.0000 0.0000 0.0000 13.1932
#
#
#
# Elastic Compliance Matrix: (Units=1/GPa)
#
#
# Indices 1 2 3 4 5 6 
#
# 1 0.012657 -0.002006 -0.000083 0.000000 0.000000 0.000000
# 2 -0.002006 0.012657 -0.000083 0.000000 0.000000 0.000000
# 3 -0.000083 -0.000083 0.026675 0.000000 0.000000 0.000000
# 4 0.000000 0.000000 0.000000 0.074918 0.000000 0.000000
# 5 0.000000 0.000000 0.000000 0.000000 0.074918 0.000000
# 6 0.000000 0.000000 0.000000 0.000000 0.000000 0.075797
#
#
# Mechanical properties :
#
#
# Convention : Reuss Voigt Hill
#
# Bulk Modulus (GPa) = 20.98912 25.16078 23.07495
# Shear Modulus (GPa) = 16.78712 20.38791 18.58751
#
# Velocity S-wave (km/s) = 3.06439 3.37709 3.22454
# Velocity P-wave (km/s) = 4.92562 5.41119 5.17411
#
# Compressibility (1/GPa) = 0.04764374
#
# Stress axis : x y z
#
# Youngs Moduli (GPa) = 79.00831 79.01067 37.48804
#
# Poissons Ratio (x) = 0.15846 0.00313
# Poissons Ratio (y) = 0.15846 0.00313
# Poissons Ratio (z) = 0.00660 0.00659
#
# Static dielectric constant tensor:
#      x y z
#    x 3.178360 0.000000 0.000000 
#    y 0.000000 3.178360 0.000000 
#    z 0.000000 0.000000 3.254460 
# 
# 
# High freq. dielectric constant tensor:
#      x y z
#    x 1.681370 0.000000 0.000000 
#    y 0.000000 1.681370 0.000000 
#    z 0.000000 0.000000 1.689660 
# 
# From -- ./inp_files/2711.got.cif
#   From: 2010.03.12/outbox.cif.g09.slc.cpg/sg115_2_cif.got.tgz:2711.got - 2010.04.14 02:11:21.
