data_PCOD8310066
_publ_section_title
;
Structure prediction by ZEFSAII (Michael W. Deem and Ramdas Pophale) SiO2 
 PCOD8310066
Probable space group: P -4 C 2
;
_chemical_formula_sum "Si O2"
_cell_formula_units_Z 40
_cell_length_a 12.428788
_cell_length_b 12.428788
_cell_length_c 14.021174
_cell_angle_alpha 90.000000
_cell_angle_beta 90.000000
_cell_angle_gamma 90.000000
_cell_volume 2165.917645
_symmetry_space_group_name_H-M "P -4 C 2"
_symmetry_group_IT_number 116
_symmetry_cell_setting 'tetragonal'
loop_
_space_group_symop_operation_xyz
x,y,z
y,-x,-z
-x,-y,z
-y,x,-z
y,x,1/2-z
-y,-x,1/2-z
-x,y,1/2+z
x,-y,1/2+z
loop_
_atom_site_type_symbol
_atom_site_label
_atom_site_fract_x
_atom_site_fract_y
_atom_site_fract_z
Si Si1 0.268556 0.276330 0.861934
Si Si2 0.272124 0.708374 0.854537
Si Si3 0.609697 0.518463 0.849915
Si Si4 0.881542 0.377044 0.003453
Si Si5 0.127493 0.372347 0.003618
O O1 0.256471 0.256471 0.750000
O O2 0.318646 0.390172 0.897921
O O3 0.343506 0.181997 0.901201
O O4 0.154040 0.290945 0.914965
O O5 0.244706 0.755295 0.750000
O O6 0.328268 0.593058 0.839595
O O7 0.348071 0.795026 0.906790
O O8 0.162296 0.691907 0.913855
O O9 0.500000 0.500000 0.910605
O O10 0.571971 0.571971 0.750000
O O11 0.862738 0.501692 0.978834
O O12 0.003837 0.347168 0.027301
#
# Coordination Sequence:
#
# PCOD8310066 Si02
#       5
#     8   8   8   8   8
#     4  10  21  36  57  82 113 156 194 230 289 345
#     4  11  21  36  57  87 116 156 196 240 289 347
#     4  10  17  29  51  83 120 143 181 221 278 355
#     4  10  22  38  55  83 120 156 197 238 286 349
#     4  10  22  38  55  83 120 157 196 237 288 346
#
# _framework density 18.467922999999999
#
# number of rings (size 3 to 8) (size 9 to 14) (size 15 to 20)
#    0.000    1.800    4.000    1.200    2.800    1.600 
#    0.000    4.000    0.000    9.600    0.000   11.200 
#    0.000    0.000    0.000    0.000    0.000    0.000 
#
# Total GULP energy -495592.703320 kJ/mol
# GULP energy per Si atom -12389.817583 kJ/mol
# Density = 1.842589 g / cm^3
# Si number density = 18.467923 Si / 1000 Ang^3
#
#
#
# Elastic Constant Matrix: (Units=GPa)
#
#
# Indices 1 2 3 4 5 6 
#
# 1 100.5310 36.0997 36.1081 0.0000 0.0000 0.0000
# 2 36.0997 100.5307 36.1081 0.0000 0.0000 0.0000
# 3 36.1081 36.1081 125.7670 0.0000 0.0000 0.0000
# 4 0.0000 0.0000 0.0000 18.2555 0.0000 0.0000
# 5 0.0000 0.0000 0.0000 0.0000 18.2555 0.0000
# 6 0.0000 0.0000 0.0000 0.0000 0.0000 22.6586
#
#
#
# Elastic Compliance Matrix: (Units=1/GPa)
#
#
# Indices 1 2 3 4 5 6 
#
# 1 0.012074 -0.003446 -0.002477 0.000000 0.000000 0.000000
# 2 -0.003446 0.012074 -0.002477 0.000000 0.000000 0.000000
# 3 -0.002477 -0.002477 0.009374 0.000000 0.000000 0.000000
# 4 0.000000 0.000000 0.000000 0.054778 0.000000 0.000000
# 5 0.000000 0.000000 0.000000 0.000000 0.054778 0.000000
# 6 0.000000 0.000000 0.000000 0.000000 0.000000 0.044133
#
#
# Mechanical properties :
#
#
# Convention : Reuss Voigt Hill
#
# Bulk Modulus (GPa) = 59.80345 60.38450 60.09397
# Shear Modulus (GPa) = 23.85652 26.40146 25.12899
#
# Velocity S-wave (km/s) = 3.59804 3.78509 3.69275
# Velocity P-wave (km/s) = 7.05080 7.20211 7.12686
#
# Compressibility (1/GPa) = 0.01672144
#
# Stress axis : x y z
#
# Youngs Moduli (GPa) = 82.81998 82.81981 106.68204
#
# Poissons Ratio (x) = 0.28540 0.26428
# Poissons Ratio (y) = 0.28540 0.26428
# Poissons Ratio (z) = 0.20516 0.20516
#
# Static dielectric constant tensor:
#      x y z
#    x 3.581750 0.000000 0.000000 
#    y 0.000000 3.581750 0.000000 
#    z 0.000000 0.000000 3.377300 
# 
# 
# High freq. dielectric constant tensor:
#      x y z
#    x 1.705470 0.000000 0.000000 
#    y 0.000000 1.705470 0.000000 
#    z 0.000000 0.000000 1.717120 
# 
# From -- ./inp_files/2559.got.cif
#   From: 2010.03.12/outbox.cif.g09.slc.cpg/sg116_2_cif.got.tgz:2559.got - 2010.04.14 02:15:44.
