data_PCOD8310285
_publ_section_title
;
Structure prediction by ZEFSAII (Michael W. Deem and Ramdas Pophale) SiO2 
 PCOD8310285
Probable space group: P -4 B 2
;
_chemical_formula_sum "Si O2"
_cell_formula_units_Z 64
_cell_length_a 26.428320
_cell_length_b 26.428320
_cell_length_c 5.305569
_cell_angle_alpha 90.000000
_cell_angle_beta 90.000000
_cell_angle_gamma 90.000000
_cell_volume 3705.707022
_symmetry_space_group_name_H-M "P -4 B 2"
_symmetry_group_IT_number 117
_symmetry_cell_setting 'tetragonal'
loop_
_space_group_symop_operation_xyz
x,y,z
y,-x,-z
-x,-y,z
-y,x,-z
1/2+y,1/2+x,-z
1/2-y,1/2-x,-z
1/2-x,1/2+y,z
1/2+x,1/2-y,z
loop_
_atom_site_type_symbol
_atom_site_label
_atom_site_fract_x
_atom_site_fract_y
_atom_site_fract_z
Si Si1 0.240660 0.941794 0.259177
Si Si2 0.895859 0.227748 0.243840
Si Si3 0.557919 0.738280 0.743652
Si Si4 0.568335 0.323424 0.241318
Si Si5 0.626230 0.460735 0.754428
Si Si6 0.076715 0.880456 0.745531
Si Si7 0.221957 0.765611 0.250139
Si Si8 0.805728 0.650891 0.250203
O O1 0.212739 0.928397 0.519133
O O2 0.291243 0.908183 0.248107
O O3 0.257276 0.000187 0.253613
O O4 0.206955 0.928407 0.017356
O O5 0.914153 0.258747 0.491958
O O6 0.922394 0.173518 0.240130
O O7 0.836295 0.219010 0.248349
O O8 0.913259 0.258540 0.993360
O O9 0.558727 0.677569 0.740434
O O10 0.518271 0.356957 0.251718
O O11 0.615296 0.362403 0.250460
O O12 0.593545 0.446914 0.505499
O O13 0.593805 0.448342 0.006148
O O14 0.233177 0.733177 0.500000
O O15 0.254035 0.817022 0.251764
O O16 0.233490 0.733490 0.000000
O O17 0.838159 0.661842 0.500000
O O18 0.837873 0.662128 0.000000
#
# Coordination Sequence:
#
# PCOD8310285 Si02
#       8
#     8   8   8   8   8   8   8   8
#     4  12  21  36  56  75 103 132 177 220 269 303
#     4  10  18  32  51  67 104 127 161 224 249 287
#     4  10  19  33  49  79  96 123 176 219 253 318
#     4  12  21  33  54  79  95 130 168 223 267 318
#     4  10  19  36  45  74 100 118 173 216 260 316
#     4  10  20  31  50  69 100 115 160 223 260 308
#     4  10  21  35  50  74 104 138 174 206 261 324
#     4  10  23  38  49  74 104 134 175 212 255 321
#
# _framework density 17.270658000000001
#
# number of rings (size 3 to 8) (size 9 to 14) (size 15 to 20)
#    0.000    1.500    5.000    2.250    7.000    0.000 
#    0.000    0.000    0.000    2.250    0.000    0.000 
#    0.000    0.000    0.000    0.000    0.000   43.750 
#
# Total GULP energy -793321.942052 kJ/mol
# GULP energy per Si atom -12395.655345 kJ/mol
# Density = 1.723135 g / cm^3
# Si number density = 17.270658 Si / 1000 Ang^3
#
#
#
# Elastic Constant Matrix: (Units=GPa)
#
#
# Indices 1 2 3 4 5 6 
#
# 1 36.6239 -1.5152 5.6368 0.0000 0.0000 0.0000
# 2 -1.5152 36.6243 5.6372 0.0000 0.0000 0.0000
# 3 5.6368 5.6372 153.9571 0.0000 0.0000 0.0000
# 4 0.0000 0.0000 0.0000 13.6309 0.0000 0.0000
# 5 0.0000 0.0000 0.0000 0.0000 13.6320 0.0000
# 6 0.0000 0.0000 0.0000 0.0000 0.0000 15.2889
#
#
#
# Elastic Compliance Matrix: (Units=1/GPa)
#
#
# Indices 1 2 3 4 5 6 
#
# 1 0.027521 0.001301 -0.001055 0.000000 0.000000 0.000000
# 2 0.001301 0.027521 -0.001055 0.000000 0.000000 0.000000
# 3 -0.001055 -0.001055 0.006573 0.000000 0.000000 0.000000
# 4 0.000000 0.000000 0.000000 0.073363 0.000000 0.000000
# 5 0.000000 0.000000 0.000000 0.000000 0.073357 0.000000
# 6 0.000000 0.000000 0.000000 0.000000 0.000000 0.065407
#
#
# Mechanical properties :
#
#
# Convention : Reuss Voigt Hill
#
# Bulk Modulus (GPa) = 16.66812 27.41366 22.04089
# Shear Modulus (GPa) = 16.92864 23.00680 19.96772
#
# Velocity S-wave (km/s) = 3.13421 3.65380 3.40393
# Velocity P-wave (km/s) = 4.77176 5.80584 5.31401
#
# Compressibility (1/GPa) = 0.05999478
#
# Stress axis : x y z
#
# Youngs Moduli (GPa) = 36.33613 36.33650 152.14695
#
# Poissons Ratio (x) = -0.04727 0.16055
# Poissons Ratio (y) = -0.04727 0.16056
# Poissons Ratio (z) = 0.03834 0.03835
#
# Static dielectric constant tensor:
#      x y z
#    x 2.926010 0.000000 0.000000 
#    y 0.000000 2.926010 0.000000 
#    z 0.000000 0.000000 6.277790 
# 
# 
# High freq. dielectric constant tensor:
#      x y z
#    x 1.621800 0.000000 0.000000 
#    y 0.000000 1.621800 0.000000 
#    z 0.000000 0.000000 1.713660 
# 
# From -- ./inp_files/973.got.cif
#   From: 2010.03.12/outbox.cif.g09.slc.cpg/sg117_1_cif.got.tgz:973.got - 2010.04.14 02:19:01.
