data_PCOD8310398
_publ_section_title
;
Structure prediction by ZEFSAII (Michael W. Deem and Ramdas Pophale) SiO2 
 PCOD8310398
Probable space group: P -4 B 2
;
_chemical_formula_sum "Si O2"
_cell_formula_units_Z 40
_cell_length_a 9.395089
_cell_length_b 9.395089
_cell_length_c 20.158140
_cell_angle_alpha 90.000000
_cell_angle_beta 90.000000
_cell_angle_gamma 90.000000
_cell_volume 1779.312600
_symmetry_space_group_name_H-M "P -4 B 2"
_symmetry_group_IT_number 117
_symmetry_cell_setting 'tetragonal'
loop_
_space_group_symop_operation_xyz
x,y,z
y,-x,-z
-x,-y,z
-y,x,-z
1/2+y,1/2+x,-z
1/2-y,1/2-x,-z
1/2-x,1/2+y,z
1/2+x,1/2-y,z
loop_
_atom_site_type_symbol
_atom_site_label
_atom_site_fract_x
_atom_site_fract_y
_atom_site_fract_z
Si Si1 0.797686 0.078246 0.024956
Si Si2 0.705804 0.428149 0.524145
Si Si3 0.756110 0.762059 0.752872
Si Si4 0.663401 0.999559 0.159550
Si Si5 0.837639 0.016501 0.666149
O O1 0.772867 0.037092 0.101016
O O2 0.657993 0.157993 0.000000
O O3 0.936820 0.178946 0.019639
O O4 0.567046 0.324523 0.521601
O O5 0.845616 0.345616 0.500000
O O6 0.744589 0.479987 0.598481
O O7 0.652415 0.783823 0.814913
O O8 0.796922 0.916981 0.727310
O O9 0.692264 0.676625 0.690395
O O10 0.892511 0.677528 0.779371
O O11 0.500000 0.000000 0.134819
O O12 0.000000 0.000000 0.646921
#
# Coordination Sequence:
#
# PCOD8310398 Si02
#       5
#     8   8   8   8   8
#     4  11  28  49  75 109 143 192 245 304 374 445
#     4  11  24  45  69 103 141 189 239 299 361 418
#     4  12  26  45  73 106 142 196 237 300 362 429
#     4  12  27  47  74 106 149 186 246 300 365 438
#     4  12  24  44  72 103 148 189 245 301 359 434
#
# _framework density 22.480591
#
# number of rings (size 3 to 8) (size 9 to 14) (size 15 to 20)
#    0.000    0.400    6.000    2.400    5.600    3.600 
#    0.000    0.000    0.000    0.000    0.000    0.000 
#    0.000    0.000    0.000    0.000    0.000    0.000 
#
# Total GULP energy -496236.618944 kJ/mol
# GULP energy per Si atom -12405.915474 kJ/mol
# Density = 2.242942 g / cm^3
# Si number density = 22.480591 Si / 1000 Ang^3
#
#
#
# Elastic Constant Matrix: (Units=GPa)
#
#
# Indices 1 2 3 4 5 6 
#
# 1 81.6860 24.7517 35.9062 0.0000 0.0000 0.0000
# 2 24.7517 81.6860 35.9062 0.0000 0.0000 0.0000
# 3 35.9062 35.9062 121.7923 0.0000 0.0000 0.0000
# 4 0.0000 0.0000 0.0000 29.6872 0.0000 0.0000
# 5 0.0000 0.0000 0.0000 0.0000 29.6872 0.0000
# 6 0.0000 0.0000 0.0000 0.0000 0.0000 43.9898
#
#
#
# Elastic Compliance Matrix: (Units=1/GPa)
#
#
# Indices 1 2 3 4 5 6 
#
# 1 0.014646 -0.002918 -0.003458 0.000000 0.000000 0.000000
# 2 -0.002918 0.014646 -0.003458 0.000000 0.000000 0.000000
# 3 -0.003458 -0.003458 0.010249 0.000000 0.000000 0.000000
# 4 0.000000 0.000000 0.000000 0.033684 0.000000 0.000000
# 5 0.000000 0.000000 0.000000 0.000000 0.033684 0.000000
# 6 0.000000 0.000000 0.000000 0.000000 0.000000 0.022733
#
#
# Mechanical properties :
#
#
# Convention : Reuss Voigt Hill
#
# Bulk Modulus (GPa) = 50.31446 53.14361 51.72903
# Shear Modulus (GPa) = 32.06475 33.24619 32.65547
#
# Velocity S-wave (km/s) = 3.78078 3.84980 3.81544
# Velocity P-wave (km/s) = 6.44119 6.59184 6.51695
#
# Compressibility (1/GPa) = 0.01987500
#
# Stress axis : x y z
#
# Youngs Moduli (GPa) = 68.27786 68.27786 97.56672
#
# Poissons Ratio (x) = 0.19924 0.33735
# Poissons Ratio (y) = 0.19924 0.33735
# Poissons Ratio (z) = 0.23608 0.23608
#
# Static dielectric constant tensor:
#      x y z
#    x 4.063640 0.000000 0.000000 
#    y 0.000000 4.063640 0.000000 
#    z 0.000000 0.000000 3.854860 
# 
# 
# High freq. dielectric constant tensor:
#      x y z
#    x 1.890150 0.000000 0.000000 
#    y 0.000000 1.890150 0.000000 
#    z 0.000000 0.000000 1.890000 
# 
# From -- ./inp_files/3527.got.cif
#   From: 2010.03.12/outbox.cif.g09.slc.cpg/sg117_2_cif.got.tgz:3527.got - 2010.04.14 02:19:01.
