data_PCOD8310102
_publ_section_title
;
Structure prediction by ZEFSAII (Michael W. Deem and Ramdas Pophale) SiO2 
 PCOD8310102
Probable space group: P -4 C 2
;
_chemical_formula_sum "Si O2"
_cell_formula_units_Z 32
_cell_length_a 9.605398
_cell_length_b 9.605398
_cell_length_c 15.296089
_cell_angle_alpha 90.000000
_cell_angle_beta 90.000000
_cell_angle_gamma 90.000000
_cell_volume 1411.273319
_symmetry_space_group_name_H-M "P -4 C 2"
_symmetry_group_IT_number 116
_symmetry_cell_setting 'tetragonal'
loop_
_space_group_symop_operation_xyz
x,y,z
y,-x,-z
-x,-y,z
-y,x,-z
y,x,1/2-z
-y,-x,1/2-z
-x,y,1/2+z
x,-y,1/2+z
loop_
_atom_site_type_symbol
_atom_site_label
_atom_site_fract_x
_atom_site_fract_y
_atom_site_fract_z
Si Si1 0.682241 0.317760 0.750000
Si Si2 0.000000 0.000000 0.250000
Si Si3 0.305588 0.005907 0.053923
Si Si4 0.477755 0.233294 0.611722
Si Si5 0.500000 0.500000 0.500000
Si Si6 0.206092 0.095310 0.375950
O O1 0.529627 0.288013 0.707364
O O2 0.790902 0.303000 0.671109
O O3 0.853994 0.009741 0.303526
O O4 0.341460 0.867192 0.111863
O O5 0.411441 0.133174 0.064599
O O6 0.157584 0.062067 0.085140
O O7 0.299895 0.973072 0.950637
O O8 0.445761 0.370936 0.556629
#
# Coordination Sequence:
#
# PCOD8310102 Si02
#       6
#     4   2   8   8   2   8
#     4   9  20  38  56  85 126 160 208 274 324 370
#     4  10  20  30  48  86 124 150 188 254 324 364
#     4  10  20  39  65  89 121 168 218 259 327 407
#     4  10  22  40  62  89 122 169 219 270 324 394
#     4  12  24  42  64  88 128 174 224 264 324 410
#     4  10  19  35  59  89 125 161 206 270 327 391
#
# _framework density 22.674558999999999
#
# number of rings (size 3 to 8) (size 9 to 14) (size 15 to 20)
#    0.000    2.000    0.000    4.500    0.000    0.500 
#    0.000   30.000    0.000    3.000    0.000    0.000 
#    0.000    0.000    0.000    0.000    0.000    0.000 
#
# Total GULP energy -396479.218686 kJ/mol
# GULP energy per Si atom -12389.975584 kJ/mol
# Density = 2.262295 g / cm^3
# Si number density = 22.674559 Si / 1000 Ang^3
#
#
#
# Elastic Constant Matrix: (Units=GPa)
#
#
# Indices 1 2 3 4 5 6 
#
# 1 68.6769 11.2792 23.5594 0.0000 0.0000 0.0000
# 2 11.2792 68.6772 23.5596 0.0000 0.0000 0.0000
# 3 23.5594 23.5596 124.3742 0.0000 0.0000 0.0000
# 4 0.0000 0.0000 0.0000 35.4165 0.0000 0.0000
# 5 0.0000 0.0000 0.0000 0.0000 35.4163 0.0000
# 6 0.0000 0.0000 0.0000 0.0000 0.0000 29.5284
#
#
#
# Elastic Compliance Matrix: (Units=1/GPa)
#
#
# Indices 1 2 3 4 5 6 
#
# 1 0.015750 -0.001672 -0.002667 0.000000 0.000000 0.000000
# 2 -0.001672 0.015750 -0.002667 0.000000 0.000000 0.000000
# 3 -0.002667 -0.002667 0.009051 0.000000 0.000000 0.000000
# 4 0.000000 0.000000 0.000000 0.028235 0.000000 0.000000
# 5 0.000000 0.000000 0.000000 0.000000 0.028236 0.000000
# 6 0.000000 0.000000 0.000000 0.000000 0.000000 0.033866
#
#
# Mechanical properties :
#
#
# Convention : Reuss Voigt Hill
#
# Bulk Modulus (GPa) = 37.67871 42.05832 39.86851
# Shear Modulus (GPa) = 32.52123 33.62757 33.07440
#
# Velocity S-wave (km/s) = 3.79127 3.85522 3.82338
# Velocity P-wave (km/s) = 5.98483 6.19725 6.09197
#
# Compressibility (1/GPa) = 0.02654019
#
# Stress axis : x y z
#
# Youngs Moduli (GPa) = 63.49063 63.49086 110.49035
#
# Poissons Ratio (x) = 0.10615 0.29465
# Poissons Ratio (y) = 0.10615 0.29466
# Poissons Ratio (z) = 0.16932 0.16932
#
# Static dielectric constant tensor:
#      x y z
#    x 4.208970 0.000000 0.000000 
#    y 0.000000 4.208960 0.000000 
#    z 0.000000 0.000000 4.317970 
# 
# 
# High freq. dielectric constant tensor:
#      x y z
#    x 1.884020 0.000000 0.000000 
#    y 0.000000 1.884020 0.000000 
#    z 0.000000 0.000000 1.892010 
# 
# From -- ./inp_files/2460.got.cif
#   From: 2010.03.12/outbox.cif.g09.slc.cpg/sg116_2_cif.got.tgz:2460.got - 2010.04.14 02:15:44.
