data_PCOD8310044
_publ_section_title
;
Structure prediction by ZEFSAII (Michael W. Deem and Ramdas Pophale) SiO2 
 PCOD8310044
Probable space group: P -4 M 2
;
_chemical_formula_sum "Si O2"
_cell_formula_units_Z 40
_cell_length_a 9.797262
_cell_length_b 9.797262
_cell_length_c 25.171878
_cell_angle_alpha 90.000000
_cell_angle_beta 90.000000
_cell_angle_gamma 90.000000
_cell_volume 2416.156508
_symmetry_space_group_name_H-M "P -4 M 2"
_symmetry_group_IT_number 115
_symmetry_cell_setting 'tetragonal'
loop_
_space_group_symop_operation_xyz
x,y,z
y,-x,-z
-x,-y,z
-y,x,-z
y,x,-z
-y,-x,-z
-x,y,z
x,-y,z
loop_
_atom_site_type_symbol
_atom_site_label
_atom_site_fract_x
_atom_site_fract_y
_atom_site_fract_z
Si Si1 0.157386 0.160121 0.134720
Si Si2 0.849145 0.162092 0.746269
Si Si3 0.660207 0.157452 0.537779
Si Si4 0.655913 0.343133 0.938258
Si Si5 0.838317 0.650509 0.342692
O O1 0.200691 0.201638 0.194673
O O2 0.248635 0.243417 0.094353
O O3 0.000000 0.197668 0.124406
O O4 0.181748 0.000000 0.125716
O O5 0.750296 0.226283 0.701576
O O6 0.000000 0.222502 0.736326
O O7 0.854873 0.000000 0.741214
O O8 0.746193 0.253808 0.500000
O O9 0.500000 0.182484 0.528481
O O10 0.701084 0.197364 0.598047
O O11 0.697170 0.000000 0.526203
O O12 0.500000 0.306216 0.924012
O O13 0.685990 0.500000 0.923960
O O14 0.683640 0.316361 0.000000
O O15 0.776559 0.500000 0.333043
O O16 0.000000 0.643780 0.336405
#
# Coordination Sequence:
#
# PCOD8310044 Si02
#       5
#     8   8   8   8   8
#     4   9  18  31  47  71 100 124 149 185 228 274
#     4   8  14  25  41  63  92 121 146 177 221 270
#     4   9  18  31  46  67  94 121 152 191 232 274
#     4   9  19  35  51  67  90 121 157 195 232 270
#     4   8  14  25  41  62  88 116 147 185 226 266
#
# _framework density 16.555219000000001
#
# number of rings (size 3 to 8) (size 9 to 14) (size 15 to 20)
#    0.000    3.400    0.000    3.000    0.000    3.600 
#    0.000    7.000    0.000    1.200    0.000    0.000 
#    0.000    0.000    0.000    0.000    0.000    0.000 
#
# Total GULP energy -495775.014336 kJ/mol
# GULP energy per Si atom -12394.375358 kJ/mol
# Density = 1.651754 g / cm^3
# Si number density = 16.555219 Si / 1000 Ang^3
#
#
#
# Elastic Constant Matrix: (Units=GPa)
#
#
# Indices 1 2 3 4 5 6 
#
# 1 70.8421 51.4818 70.9649 0.0000 0.0000 0.0000
# 2 51.4818 70.8402 70.9644 0.0000 0.0000 0.0000
# 3 70.9649 70.9644 128.8298 0.0000 0.0000 0.0000
# 4 0.0000 0.0000 0.0000 -12.0818 0.0000 0.0000
# 5 0.0000 0.0000 0.0000 0.0000 -12.0786 0.0000
# 6 0.0000 0.0000 0.0000 0.0000 0.0000 26.8616
#
#
#
# Elastic Compliance Matrix: (Units=1/GPa)
#
#
# Indices 1 2 3 4 5 6 
#
# 1 0.037153 -0.014500 -0.012478 0.000000 0.000000 0.000000
# 2 -0.014500 0.037155 -0.012479 0.000000 0.000000 0.000000
# 3 -0.012478 -0.012479 0.021510 0.000000 0.000000 0.000000
# 4 0.000000 0.000000 0.000000 -0.082769 0.000000 0.000000
# 5 0.000000 0.000000 0.000000 0.000000 -0.082791 0.000000
# 6 0.000000 0.000000 0.000000 0.000000 0.000000 0.037228
#
#
# Mechanical properties :
#
#
# Convention : Reuss Voigt Hill
#
# Bulk Modulus (GPa) = 59.16199 73.03715 66.09957
# Shear Modulus (GPa) = 96.08817 5.68030 50.88424
#
# Velocity S-wave (km/s) = 7.62673 1.85434 5.55003
# Velocity P-wave (km/s) = 10.64752 6.98554 9.00465
#
# Compressibility (1/GPa) = 0.01690274
#
# Stress axis : x y z
#
# Youngs Moduli (GPa) = 26.91538 26.91430 46.49078
#
# Poissons Ratio (x) = 0.39027 0.58013
# Poissons Ratio (y) = 0.39028 0.58016
# Poissons Ratio (z) = 0.33586 0.33586
#
# Static dielectric constant tensor:
#      x y z
#    x 3.015540 0.000000 0.000000 
#    y 0.000000 3.015540 0.000000 
#    z 0.000000 0.000000 3.251190 
# 
# 
# High freq. dielectric constant tensor:
#      x y z
#    x 1.616380 0.000000 0.000000 
#    y 0.000000 1.616380 0.000000 
#    z 0.000000 0.000000 1.646290 
# 
# From -- ./inp_files/5425.got.cif
#   From: 2010.03.12/outbox.cif.g09.slc.cpg/sg115_3_cif.got.tgz:5425.got - 2010.04.14 02:11:21.
