data_PCOD8310469
_publ_section_title
;
Structure prediction by ZEFSAII (Michael W. Deem and Ramdas Pophale) SiO2 
 PCOD8310469
Probable space group: P -4 N 2
;
_chemical_formula_sum "Si O2"
_cell_formula_units_Z 44
_cell_length_a 9.165924
_cell_length_b 9.165924
_cell_length_c 27.415952
_cell_angle_alpha 90.000000
_cell_angle_beta 90.000000
_cell_angle_gamma 90.000000
_cell_volume 2303.328254
_symmetry_space_group_name_H-M "P -4 N 2"
_symmetry_group_IT_number 118
_symmetry_cell_setting 'tetragonal'
loop_
_space_group_symop_operation_xyz
x,y,z
y,-x,-z
-x,-y,z
-y,x,-z
1/2+y,1/2+x,1/2-z
1/2-y,1/2-x,1/2-z
1/2-x,1/2+y,1/2+z
1/2+x,1/2-y,1/2+z
loop_
_atom_site_type_symbol
_atom_site_label
_atom_site_fract_x
_atom_site_fract_y
_atom_site_fract_z
Si Si1 0.000000 0.500000 0.942129
Si Si2 0.665225 0.470668 0.788354
Si Si3 0.865212 0.224602 0.814741
Si Si4 0.483083 0.267566 0.509615
Si Si5 0.138863 0.346331 0.859281
Si Si6 0.666741 0.475503 0.387476
O O1 0.863666 0.555991 0.908701
O O2 0.941970 0.371544 0.977124
O O3 0.500000 0.500000 0.805022
O O4 0.716619 0.307886 0.801911
O O5 0.679702 0.473278 0.729772
O O6 0.768451 0.587488 0.814868
O O7 0.806957 0.082714 0.842346
O O8 0.966269 0.332785 0.846527
O O9 0.343455 0.373833 0.512218
O O10 0.513480 0.228433 0.566660
O O11 0.202620 0.186413 0.869230
O O12 0.500000 0.500000 0.405724
#
# Coordination Sequence:
#
# PCOD8310469 Si02
#       6
#     4   8   8   8   8   8
#     4  12  22  36  59  92 114 145 204 248 294 358
#     4  11  22  37  56  88 123 154 189 243 301 354
#     4  10  21  38  62  85 113 156 203 239 288 357
#     4  11  20  37  60  83 114 150 193 244 291 348
#     4  11  20  37  60  86 114 148 192 248 294 349
#     4  10  19  37  62  86 110 154 202 243 290 350
#
# _framework density 19.102792999999998
#
# number of rings (size 3 to 8) (size 9 to 14) (size 15 to 20)
#    0.000    1.273    5.455    3.273    0.000    1.455 
#    3.273    0.000    0.000    2.182    0.000    0.000 
#    0.000    0.000    0.000    0.000    0.000    0.000 
#
# Total GULP energy -545385.567225 kJ/mol
# GULP energy per Si atom -12395.126528 kJ/mol
# Density = 1.905931 g / cm^3
# Si number density = 19.102793 Si / 1000 Ang^3
#
#
#
# Elastic Constant Matrix: (Units=GPa)
#
#
# Indices 1 2 3 4 5 6 
#
# 1 90.6680 44.6386 46.5725 0.0000 0.0000 0.0000
# 2 44.6386 90.6680 46.5725 0.0000 0.0000 0.0000
# 3 46.5725 46.5725 138.5855 0.0000 0.0000 0.0000
# 4 0.0000 0.0000 0.0000 28.3937 0.0000 0.0000
# 5 0.0000 0.0000 0.0000 0.0000 28.3937 0.0000
# 6 0.0000 0.0000 0.0000 0.0000 0.0000 14.3278
#
#
#
# Elastic Compliance Matrix: (Units=1/GPa)
#
#
# Indices 1 2 3 4 5 6 
#
# 1 0.015670 -0.006055 -0.003231 0.000000 0.000000 0.000000
# 2 -0.006055 0.015670 -0.003231 0.000000 0.000000 0.000000
# 3 -0.003231 -0.003231 0.009387 0.000000 0.000000 0.000000
# 4 0.000000 0.000000 0.000000 0.035219 0.000000 0.000000
# 5 0.000000 0.000000 0.000000 0.000000 0.035219 0.000000
# 6 0.000000 0.000000 0.000000 0.000000 0.000000 0.069794
#
#
# Mechanical properties :
#
#
# Convention : Reuss Voigt Hill
#
# Bulk Modulus (GPa) = 63.72380 66.16540 64.94460
# Shear Modulus (GPa) = 23.67133 26.36556 25.01844
#
# Velocity S-wave (km/s) = 3.52398 3.71913 3.62287
# Velocity P-wave (km/s) = 7.07027 7.29070 7.18133
#
# Compressibility (1/GPa) = 0.01569272
#
# Stress axis : x y z
#
# Youngs Moduli (GPa) = 63.81580 63.81580 106.52504
#
# Poissons Ratio (x) = 0.38641 0.34420
# Poissons Ratio (y) = 0.38641 0.34420
# Poissons Ratio (z) = 0.20620 0.20620
#
# Static dielectric constant tensor:
#      x y z
#    x 3.265320 0.000000 0.000000 
#    y 0.000000 3.265320 0.000000 
#    z 0.000000 0.000000 3.766770 
# 
# 
# High freq. dielectric constant tensor:
#      x y z
#    x 1.716870 0.000000 0.000000 
#    y 0.000000 1.716870 0.000000 
#    z 0.000000 0.000000 1.766740 
# 
# From -- ./inp_files/6767.got.cif
#   From: 2010.03.12/outbox.cif.g09.slc.cpg/sg118_4_cif.got.tgz:6767.got - 2010.04.14 02:21:17.
