data_PCOD8310662
_publ_section_title
;
Structure prediction by ZEFSAII (Michael W. Deem and Ramdas Pophale) SiO2 
 PCOD8310662
Probable space group: P -4 N 2
;
_chemical_formula_sum "Si O2"
_cell_formula_units_Z 20
_cell_length_a 5.118729
_cell_length_b 5.118729
_cell_length_c 31.549501
_cell_angle_alpha 90.000000
_cell_angle_beta 90.000000
_cell_angle_gamma 90.000000
_cell_volume 826.640672
_symmetry_space_group_name_H-M "P -4 N 2"
_symmetry_group_IT_number 118
_symmetry_cell_setting 'tetragonal'
loop_
_space_group_symop_operation_xyz
x,y,z
y,-x,-z
-x,-y,z
-y,x,-z
1/2+y,1/2+x,1/2-z
1/2-y,1/2-x,1/2-z
1/2-x,1/2+y,1/2+z
1/2+x,1/2-y,1/2+z
loop_
_atom_site_type_symbol
_atom_site_label
_atom_site_fract_x
_atom_site_fract_y
_atom_site_fract_z
Si Si1 0.160910 0.231321 0.063475
Si Si2 0.500000 0.500000 0.000000
Si Si3 0.500000 0.500000 0.191793
Si Si4 0.000000 0.500000 0.250000
Si Si5 0.500000 0.000000 0.364353
O O1 0.395712 0.274440 0.030731
O O2 0.000000 0.500000 0.071643
O O3 0.261823 0.107707 0.107395
O O4 0.000000 0.000000 0.041471
O O5 0.250946 0.469687 0.220963
O O6 0.424016 0.752839 0.164032
#
# Coordination Sequence:
#
# PCOD8310662 Si02
#       5
#     8   2   4   2   4
#     4  12  29  49  78 112 158 218 271 344 401 472
#     4  12  30  48  68 120 156 216 288 336 404 464
#     4  12  27  50  86 117 168 202 260 329 390 504
#     4  12  28  52  80 130 154 210 252 316 416 478
#     4  12  28  51  78 119 152 216 264 331 398 475
#
# _framework density 24.194312
#
# number of rings (size 3 to 8) (size 9 to 14) (size 15 to 20)
#    0.000    0.000    0.000    8.400   16.800    0.000 
#    0.000    0.000    0.000    0.000    0.000    0.000 
#    0.000    0.000    0.000    0.000    0.000    0.000 
#
# Total GULP energy -247922.430129 kJ/mol
# GULP energy per Si atom -12396.121506 kJ/mol
# Density = 2.413924 g / cm^3
# Si number density = 24.194312 Si / 1000 Ang^3
#
#
#
# Elastic Constant Matrix: (Units=GPa)
#
#
# Indices 1 2 3 4 5 6 
#
# 1 189.7278 66.4965 80.9978 0.0000 0.0000 0.0000
# 2 66.4965 189.7278 80.9978 0.0000 0.0000 0.0000
# 3 80.9978 80.9978 159.8975 0.0000 0.0000 0.0000
# 4 0.0000 0.0000 0.0000 -23.1766 0.0000 0.0000
# 5 0.0000 0.0000 0.0000 0.0000 -23.1766 0.0000
# 6 0.0000 0.0000 0.0000 0.0000 0.0000 60.4847
#
#
#
# Elastic Compliance Matrix: (Units=1/GPa)
#
#
# Indices 1 2 3 4 5 6 
#
# 1 0.006928 -0.001187 -0.002909 0.000000 0.000000 0.000000
# 2 -0.001187 0.006928 -0.002909 0.000000 0.000000 0.000000
# 3 -0.002909 -0.002909 0.009201 0.000000 0.000000 0.000000
# 4 0.000000 0.000000 0.000000 -0.043147 0.000000 0.000000
# 5 0.000000 0.000000 0.000000 0.000000 -0.043147 0.000000
# 6 0.000000 0.000000 0.000000 0.000000 0.000000 0.016533
#
#
# Mechanical properties :
#
#
# Convention : Reuss Voigt Hill
#
# Bulk Modulus (GPa) = 110.49694 110.70413 110.60053
# Shear Modulus (GPa) = -168.46442 23.55039 -72.45701
#
# Velocity S-wave (km/s) = -8.35350 3.12330 -5.47841
# Velocity P-wave (km/s) = 6.87542 7.67217 2.40736
#
# Compressibility (1/GPa) = 0.00905002
#
# Stress axis : x y z
#
# Youngs Moduli (GPa) = 144.33607 144.33607 108.68733
#
# Poissons Ratio (x) = 0.17126 0.31612
# Poissons Ratio (y) = 0.17126 0.31612
# Poissons Ratio (z) = 0.41981 0.41981
#
# Static dielectric constant tensor:
#      x y z
#    x 4.546410 0.000000 0.000000 
#    y 0.000000 4.546410 0.000000 
#    z 0.000000 0.000000 4.572230 
# 
# 
# High freq. dielectric constant tensor:
#      x y z
#    x 1.980120 0.000000 0.000000 
#    y 0.000000 1.980120 0.000000 
#    z 0.000000 0.000000 1.976950 
# 
# From -- ./inp_files/6340.got.cif
#   From: 2010.03.12/outbox.cif.g09.slc.cpg/sg118_4_cif.got.tgz:6340.got - 2010.04.14 02:21:17.
