data_PCOD8310258
_publ_section_title
;
Structure prediction by ZEFSAII (Michael W. Deem and Ramdas Pophale) SiO2 
 PCOD8310258
Probable space group: P -4 C 2
;
_chemical_formula_sum "Si O2"
_cell_formula_units_Z 40
_cell_length_a 14.569515
_cell_length_b 14.569515
_cell_length_c 8.731244
_cell_angle_alpha 90.000000
_cell_angle_beta 90.000000
_cell_angle_gamma 90.000000
_cell_volume 1853.387864
_symmetry_space_group_name_H-M "P -4 C 2"
_symmetry_group_IT_number 116
_symmetry_cell_setting 'tetragonal'
loop_
_space_group_symop_operation_xyz
x,y,z
y,-x,-z
-x,-y,z
-y,x,-z
y,x,1/2-z
-y,-x,1/2-z
-x,y,1/2+z
x,-y,1/2+z
loop_
_atom_site_type_symbol
_atom_site_label
_atom_site_fract_x
_atom_site_fract_y
_atom_site_fract_z
Si Si1 0.937497 0.589146 0.930101
Si Si2 0.746291 0.428882 0.596873
Si Si3 0.730934 0.610693 0.450837
Si Si4 0.090279 0.317152 0.608646
Si Si5 0.890341 0.944964 0.909010
O O1 0.904971 0.634338 0.772630
O O2 0.000000 0.500000 0.897659
O O3 0.848844 0.564251 0.030160
O O4 0.994376 0.662576 0.026581
O O5 0.696622 0.523799 0.550077
O O6 0.690388 0.343726 0.527932
O O7 0.747534 0.422086 0.778474
O O8 0.827233 0.648133 0.506552
O O9 0.099640 0.208227 0.619381
O O10 0.944302 0.944302 0.750000
O O11 0.949468 0.885389 0.031857
#
# Coordination Sequence:
#
# PCOD8310258 Si02
#       5
#     8   8   8   8   8
#     4  12  25  44  70 105 146 185 240 296 364 425
#     4  11  26  48  72 107 140 189 235 297 362 427
#     4  11  26  47  73 104 145 182 242 294 355 438
#     4  12  26  42  70 103 139 192 237 300 358 429
#     4  11  25  46  67  98 139 189 242 295 360 434
#
# _framework density 21.582101000000002
#
# number of rings (size 3 to 8) (size 9 to 14) (size 15 to 20)
#    0.000    0.600    2.000    5.400    5.600    2.800 
#    3.600    2.000    0.000    0.000    0.000    0.000 
#    0.000    0.000    0.000    0.000    0.000    0.000 
#
# Total GULP energy -496100.671101 kJ/mol
# GULP energy per Si atom -12402.516778 kJ/mol
# Density = 2.153298 g / cm^3
# Si number density = 21.582101 Si / 1000 Ang^3
#
#
#
# Elastic Constant Matrix: (Units=GPa)
#
#
# Indices 1 2 3 4 5 6 
#
# 1 129.1801 34.5695 49.2503 0.0000 0.0000 0.0000
# 2 34.5695 129.1801 49.2503 0.0000 0.0000 0.0000
# 3 49.2503 49.2503 112.0068 0.0000 0.0000 0.0000
# 4 0.0000 0.0000 0.0000 33.8849 0.0000 0.0000
# 5 0.0000 0.0000 0.0000 0.0000 33.8849 0.0000
# 6 0.0000 0.0000 0.0000 0.0000 0.0000 32.5259
#
#
#
# Elastic Compliance Matrix: (Units=1/GPa)
#
#
# Indices 1 2 3 4 5 6 
#
# 1 0.009436 -0.001133 -0.003651 0.000000 0.000000 0.000000
# 2 -0.001133 0.009436 -0.003651 0.000000 0.000000 0.000000
# 3 -0.003651 -0.003651 0.012139 0.000000 0.000000 0.000000
# 4 0.000000 0.000000 0.000000 0.029512 0.000000 0.000000
# 5 0.000000 0.000000 0.000000 0.000000 0.029512 0.000000
# 6 0.000000 0.000000 0.000000 0.000000 0.000000 0.030745
#
#
# Mechanical properties :
#
#
# Convention : Reuss Voigt Hill
#
# Bulk Modulus (GPa) = 70.71577 70.72301 70.71939
# Shear Modulus (GPa) = 35.12138 35.87892 35.50015
#
# Velocity S-wave (km/s) = 4.03840 4.08173 4.06012
# Velocity P-wave (km/s) = 7.38796 7.41987 7.40393
#
# Compressibility (1/GPa) = 0.01414112
#
# Stress axis : x y z
#
# Youngs Moduli (GPa) = 105.97335 105.97335 82.38116
#
# Poissons Ratio (x) = 0.12010 0.30077
# Poissons Ratio (y) = 0.12010 0.30077
# Poissons Ratio (z) = 0.38690 0.38690
#
# Static dielectric constant tensor:
#      x y z
#    x 4.158320 0.000000 0.000000 
#    y 0.000000 4.158320 0.000000 
#    z 0.000000 0.000000 4.085860 
# 
# 
# High freq. dielectric constant tensor:
#      x y z
#    x 1.855020 0.000000 0.000000 
#    y 0.000000 1.855020 0.000000 
#    z 0.000000 0.000000 1.863490 
# 
# From -- ./inp_files/778.got.cif
#   From: 2010.03.12/outbox.cif.g09.slc.cpg/sg116_1_cif.got.tgz:778.got - 2010.04.14 02:15:44.
