data_PCOD8310588
_publ_section_title
;
Structure prediction by ZEFSAII (Michael W. Deem and Ramdas Pophale) SiO2 
 PCOD8310588
Probable space group: P -4 N 2
;
_chemical_formula_sum "Si O2"
_cell_formula_units_Z 56
_cell_length_a 11.553292
_cell_length_b 11.553292
_cell_length_c 20.195229
_cell_angle_alpha 90.000000
_cell_angle_beta 90.000000
_cell_angle_gamma 90.000000
_cell_volume 2695.630006
_symmetry_space_group_name_H-M "P -4 N 2"
_symmetry_group_IT_number 118
_symmetry_cell_setting 'tetragonal'
loop_
_space_group_symop_operation_xyz
x,y,z
y,-x,-z
-x,-y,z
-y,x,-z
1/2+y,1/2+x,1/2-z
1/2-y,1/2-x,1/2-z
1/2-x,1/2+y,1/2+z
1/2+x,1/2-y,1/2+z
loop_
_atom_site_type_symbol
_atom_site_label
_atom_site_fract_x
_atom_site_fract_y
_atom_site_fract_z
Si Si1 0.842078 0.532203 0.691254
Si Si2 0.365214 0.867681 0.671981
Si Si3 0.387345 0.359136 0.008936
Si Si4 0.838698 0.271168 0.639054
Si Si5 0.623323 0.875134 0.827955
Si Si6 0.635142 0.508781 0.781129
Si Si7 0.674405 0.255279 0.116971
O O1 0.933141 0.566859 0.750000
O O2 0.864328 0.404106 0.660287
O O3 0.710441 0.547116 0.717296
O O4 0.863147 0.623075 0.631518
O O5 0.353578 0.853578 0.750000
O O6 0.295861 0.764530 0.634970
O O7 0.495698 0.855188 0.647295
O O8 0.325630 0.997148 0.650388
O O9 0.397233 0.266227 0.069170
O O10 0.359546 0.491076 0.031750
O O11 0.282287 0.326303 0.960592
O O12 0.885322 0.187607 0.697370
O O13 0.631759 0.868242 0.750000
O O14 0.727560 0.804803 0.859456
O O15 0.500000 0.500000 0.762075
O O16 0.653697 0.595429 0.842386
#
# Coordination Sequence:
#
# PCOD8310588 Si02
#       7
#     8   8   8   8   8   8   8
#     4  10  25  42  63  96 139 171 215 274 339 414
#     4   9  18  32  56  90 125 158 204 259 328 381
#     4  11  23  43  65  89 118 158 223 280 324 391
#     4  12  23  39  63  93 127 171 213 272 326 400
#     4   9  17  33  57  89 126 160 201 267 324 387
#     4  11  21  38  67  99 122 163 212 273 335 379
#     4  11  22  39  60  90 126 167 210 267 324 391
#
# _framework density 20.774366000000001
#
# number of rings (size 3 to 8) (size 9 to 14) (size 15 to 20)
#    0.000    1.571    1.429    6.000    0.000    7.429 
#    2.571    0.000    0.000    0.000    0.000    0.000 
#    0.000    0.000    0.000    0.000    0.000    0.000 
#
# Total GULP energy -693905.861821 kJ/mol
# GULP energy per Si atom -12391.176104 kJ/mol
# Density = 2.072708 g / cm^3
# Si number density = 20.774366 Si / 1000 Ang^3
#
#
#
# Elastic Constant Matrix: (Units=GPa)
#
#
# Indices 1 2 3 4 5 6 
#
# 1 125.0816 53.3645 40.8601 0.0000 0.0000 0.0000
# 2 53.3645 125.0823 40.8601 0.0000 0.0000 0.0000
# 3 40.8601 40.8601 64.1490 0.0000 0.0000 0.0000
# 4 0.0000 0.0000 0.0000 29.2193 0.0000 0.0000
# 5 0.0000 0.0000 0.0000 0.0000 29.2193 0.0000
# 6 0.0000 0.0000 0.0000 0.0000 0.0000 27.2418
#
#
#
# Elastic Compliance Matrix: (Units=1/GPa)
#
#
# Indices 1 2 3 4 5 6 
#
# 1 0.010928 -0.003016 -0.005039 0.000000 0.000000 0.000000
# 2 -0.003016 0.010928 -0.005039 0.000000 0.000000 0.000000
# 3 -0.005039 -0.005039 0.022009 0.000000 0.000000 0.000000
# 4 0.000000 0.000000 0.000000 0.034224 0.000000 0.000000
# 5 0.000000 0.000000 0.000000 0.000000 0.034224 0.000000
# 6 0.000000 0.000000 0.000000 0.000000 0.000000 0.036708
#
#
# Mechanical properties :
#
#
# Convention : Reuss Voigt Hill
#
# Bulk Modulus (GPa) = 56.57948 64.94249 60.76098
# Shear Modulus (GPa) = 27.60889 29.08463 28.34676
#
# Velocity S-wave (km/s) = 3.64948 3.74575 3.69793
# Velocity P-wave (km/s) = 6.71213 7.07363 6.89525
#
# Compressibility (1/GPa) = 0.01767425
#
# Stress axis : x y z
#
# Youngs Moduli (GPa) = 91.51046 91.51113 45.43698
#
# Poissons Ratio (x) = 0.27599 0.22898
# Poissons Ratio (y) = 0.27599 0.22898
# Poissons Ratio (z) = 0.46116 0.46116
#
# Static dielectric constant tensor:
#      x y z
#    x 3.961020 0.000000 0.000000 
#    y 0.000000 3.961020 0.000000 
#    z 0.000000 0.000000 3.349950 
# 
# 
# High freq. dielectric constant tensor:
#      x y z
#    x 1.819470 0.000000 0.000000 
#    y 0.000000 1.819470 0.000000 
#    z 0.000000 0.000000 1.768670 
# 
# From -- ./inp_files/5714.got.cif
#   From: 2010.03.12/outbox.cif.g09.slc.cpg/sg118_3_cif.got.tgz:5714.got - 2010.04.14 02:21:17.
