data_PCOD8310632
_publ_section_title
;
Structure prediction by ZEFSAII (Michael W. Deem and Ramdas Pophale) SiO2 
 PCOD8310632
Probable space group: P -4 N 2
;
_chemical_formula_sum "Si O2"
_cell_formula_units_Z 40
_cell_length_a 9.305215
_cell_length_b 9.305215
_cell_length_c 20.144791
_cell_angle_alpha 90.000000
_cell_angle_beta 90.000000
_cell_angle_gamma 90.000000
_cell_volume 1744.277546
_symmetry_space_group_name_H-M "P -4 N 2"
_symmetry_group_IT_number 118
_symmetry_cell_setting 'tetragonal'
loop_
_space_group_symop_operation_xyz
x,y,z
y,-x,-z
-x,-y,z
-y,x,-z
1/2+y,1/2+x,1/2-z
1/2-y,1/2-x,1/2-z
1/2-x,1/2+y,1/2+z
1/2+x,1/2-y,1/2+z
loop_
_atom_site_type_symbol
_atom_site_label
_atom_site_fract_x
_atom_site_fract_y
_atom_site_fract_z
Si Si1 0.428432 0.355787 0.108122
Si Si2 0.863166 0.585312 0.398920
Si Si3 0.392474 0.392754 0.627900
Si Si4 0.735761 0.995613 0.253345
Si Si5 0.899693 0.619598 0.550791
O O1 0.500000 0.500000 0.083867
O O2 0.255712 0.358592 0.116464
O O3 0.504769 0.315470 0.176840
O O4 0.489046 0.252185 0.049958
O O5 0.743122 0.494802 0.360113
O O6 0.853396 0.567694 0.478171
O O7 0.000000 0.500000 0.371622
O O8 0.500000 0.500000 0.587607
O O9 0.351315 0.476266 0.695588
O O10 0.247717 0.350908 0.589446
O O11 0.619924 0.119924 0.250000
O O12 0.660555 0.839446 0.250000
O O13 0.000000 0.500000 0.586997
#
# Coordination Sequence:
#
# PCOD8310632 Si02
#       5
#     8   8   8   8   8
#     4  12  26  45  75 106 147 203 251 311 381 455
#     4  11  28  45  70 112 154 192 249 316 394 455
#     4  12  25  44  72 105 146 194 250 318 381 447
#     4  11  23  45  74 105 141 194 258 311 371 463
#     4  11  25  44  71 106 149 199 248 303 376 475
#
# _framework density 22.932130000000001
#
# number of rings (size 3 to 8) (size 9 to 14) (size 15 to 20)
#    0.000    0.600    2.000    5.400   11.200    0.000 
#    0.000    0.000    0.000    0.000    0.000    0.000 
#    0.000    0.000    0.000    0.000    0.000    0.000 
#
# Total GULP energy -495619.006880 kJ/mol
# GULP energy per Si atom -12390.475172 kJ/mol
# Density = 2.287994 g / cm^3
# Si number density = 22.932130 Si / 1000 Ang^3
#
#
#
# Elastic Constant Matrix: (Units=GPa)
#
#
# Indices 1 2 3 4 5 6 
#
# 1 180.7351 78.2271 19.6253 0.0000 0.0000 0.0000
# 2 78.2271 180.7359 19.6253 0.0000 0.0000 0.0000
# 3 19.6253 19.6253 58.9946 0.0000 0.0000 0.0000
# 4 0.0000 0.0000 0.0000 20.9251 0.0000 0.0000
# 5 0.0000 0.0000 0.0000 0.0000 20.9250 0.0000
# 6 0.0000 0.0000 0.0000 0.0000 0.0000 57.8593
#
#
#
# Elastic Compliance Matrix: (Units=1/GPa)
#
#
# Indices 1 2 3 4 5 6 
#
# 1 0.006911 -0.002844 -0.001353 0.000000 0.000000 0.000000
# 2 -0.002844 0.006911 -0.001353 0.000000 0.000000 0.000000
# 3 -0.001353 -0.001353 0.017851 0.000000 0.000000 0.000000
# 4 0.000000 0.000000 0.000000 0.047789 0.000000 0.000000
# 5 0.000000 0.000000 0.000000 0.000000 0.047790 0.000000
# 6 0.000000 0.000000 0.000000 0.000000 0.000000 0.017283
#
#
# Mechanical properties :
#
#
# Convention : Reuss Voigt Hill
#
# Bulk Modulus (GPa) = 48.60802 72.82455 60.71628
# Shear Modulus (GPa) = 30.77064 40.14109 35.45586
#
# Velocity S-wave (km/s) = 3.66705 4.18835 3.93634
# Velocity P-wave (km/s) = 6.25877 7.43070 6.86977
#
# Compressibility (1/GPa) = 0.02057274
#
# Stress axis : x y z
#
# Youngs Moduli (GPa) = 144.69752 144.69819 56.02007
#
# Poissons Ratio (x) = 0.41157 0.07578
# Poissons Ratio (y) = 0.41157 0.07578
# Poissons Ratio (z) = 0.19575 0.19575
#
# Static dielectric constant tensor:
#      x y z
#    x 4.486870 0.000000 0.000000 
#    y 0.000000 4.486870 0.000000 
#    z 0.000000 0.000000 3.948640 
# 
# 
# High freq. dielectric constant tensor:
#      x y z
#    x 1.925460 0.000000 0.000000 
#    y 0.000000 1.925460 0.000000 
#    z 0.000000 0.000000 1.884390 
# 
# From -- ./inp_files/6009.got.cif
#   From: 2010.03.12/outbox.cif.g09.slc.cpg/sg118_4_cif.got.tgz:6009.got - 2010.04.14 02:21:17.
