data_PCOD8310352
_publ_section_title
;
Structure prediction by ZEFSAII (Michael W. Deem and Ramdas Pophale) SiO2 
 PCOD8310352
Probable space group: P -4 B 2
;
_chemical_formula_sum "Si O2"
_cell_formula_units_Z 60
_cell_length_a 11.479611
_cell_length_b 11.479611
_cell_length_c 20.310873
_cell_angle_alpha 90.000000
_cell_angle_beta 90.000000
_cell_angle_gamma 90.000000
_cell_volume 2676.596675
_symmetry_space_group_name_H-M "P -4 B 2"
_symmetry_group_IT_number 117
_symmetry_cell_setting 'tetragonal'
loop_
_space_group_symop_operation_xyz
x,y,z
y,-x,-z
-x,-y,z
-y,x,-z
1/2+y,1/2+x,-z
1/2-y,1/2-x,-z
1/2-x,1/2+y,z
1/2+x,1/2-y,z
loop_
_atom_site_type_symbol
_atom_site_label
_atom_site_fract_x
_atom_site_fract_y
_atom_site_fract_z
Si Si1 0.956621 0.283202 0.320138
Si Si2 0.395773 0.651635 0.503011
Si Si3 0.911226 0.804787 0.084052
Si Si4 0.500000 0.000000 0.252644
Si Si5 0.221011 0.286346 0.607392
Si Si6 0.615926 0.437184 0.800724
Si Si7 0.044698 0.717743 0.966504
Si Si8 0.181199 0.401308 0.156336
O O1 0.925195 0.414153 0.298416
O O2 0.836254 0.243496 0.354919
O O3 0.970165 0.206390 0.255266
O O4 0.087970 0.291236 0.354501
O O5 0.524729 0.644836 0.470980
O O6 0.307119 0.674228 0.443153
O O7 0.390161 0.750081 0.560998
O O8 0.845895 0.918237 0.057358
O O9 0.822750 0.729650 0.128372
O O10 0.022284 0.841380 0.127181
O O11 0.947024 0.727804 0.021809
O O12 0.582513 0.081365 0.209733
O O13 0.500000 0.500000 0.777920
O O14 0.584547 0.302117 0.806209
O O15 0.993556 0.654919 0.902112
O O16 0.151093 0.651093 0.000000
#
# Coordination Sequence:
#
# PCOD8310352 Si02
#       8
#     8   8   8   4   8   8   8   8
#     4  12  28  47  74 108 150 198 251 303 368 442
#     4  10  22  46  78 112 155 196 242 304 364 436
#     4  12  25  45  64 102 132 177 235 303 377 447
#     4  12  28  46  71 101 150 186 242 304 374 440
#     4  11  25  47  73 116 149 199 249 305 362 440
#     4  12  27  47  73  99 140 190 243 302 363 448
#     4  12  25  41  70  95 132 175 235 307 376 455
#     4  12  26  47  68 100 138 187 238 306 382 450
#
# _framework density 22.416526999999999
#
# number of rings (size 3 to 8) (size 9 to 14) (size 15 to 20)
#    0.000    0.400    4.000    4.400    5.600    1.600 
#    0.000    0.000    0.000    0.000    0.000    0.000 
#    0.000    0.000    0.000    0.000    0.000    0.000 
#
# Total GULP energy -743283.707362 kJ/mol
# GULP energy per Si atom -12388.061789 kJ/mol
# Density = 2.236551 g / cm^3
# Si number density = 22.416527 Si / 1000 Ang^3
#
#
#
# Elastic Constant Matrix: (Units=GPa)
#
#
# Indices 1 2 3 4 5 6 
#
# 1 102.1002 30.0792 37.2047 0.0000 0.0000 0.0000
# 2 30.0792 102.1002 37.2047 0.0000 0.0000 0.0000
# 3 37.2047 37.2047 98.1654 0.0000 0.0000 0.0000
# 4 0.0000 0.0000 0.0000 44.7667 0.0000 0.0000
# 5 0.0000 0.0000 0.0000 0.0000 44.7667 0.0000
# 6 0.0000 0.0000 0.0000 0.0000 0.0000 32.1181
#
#
#
# Elastic Compliance Matrix: (Units=1/GPa)
#
#
# Indices 1 2 3 4 5 6 
#
# 1 0.011751 -0.002134 -0.003645 0.000000 0.000000 0.000000
# 2 -0.002134 0.011751 -0.003645 0.000000 0.000000 0.000000
# 3 -0.003645 -0.003645 0.012950 0.000000 0.000000 0.000000
# 4 0.000000 0.000000 0.000000 0.022338 0.000000 0.000000
# 5 0.000000 0.000000 0.000000 0.000000 0.022338 0.000000
# 6 0.000000 0.000000 0.000000 0.000000 0.000000 0.031135
#
#
# Mechanical properties :
#
#
# Convention : Reuss Voigt Hill
#
# Bulk Modulus (GPa) = 56.80328 56.81587 56.80958
# Shear Modulus (GPa) = 36.50198 37.52209 37.01204
#
# Velocity S-wave (km/s) = 4.03966 4.09572 4.06779
# Velocity P-wave (km/s) = 6.86683 6.91138 6.88914
#
# Compressibility (1/GPa) = 0.01760462
#
# Stress axis : x y z
#
# Youngs Moduli (GPa) = 85.09827 85.09827 77.22129
#
# Poissons Ratio (x) = 0.18158 0.28147
# Poissons Ratio (y) = 0.18158 0.28147
# Poissons Ratio (z) = 0.31018 0.31018
#
# Static dielectric constant tensor:
#      x y z
#    x 3.761360 0.000000 0.000000 
#    y 0.000000 3.761360 0.000000 
#    z 0.000000 0.000000 4.221280 
# 
# 
# High freq. dielectric constant tensor:
#      x y z
#    x 1.887830 0.000000 0.000000 
#    y 0.000000 1.887830 0.000000 
#    z 0.000000 0.000000 1.891570 
# 
# From -- ./inp_files/3502.got.cif
#   From: 2010.03.12/outbox.cif.g09.slc.cpg/sg117_2_cif.got.tgz:3502.got - 2010.04.14 02:19:01.
