data_PCOD8310794
_publ_section_title
;
Structure prediction by ZEFSAII (Michael W. Deem and Ramdas Pophale) SiO2 
 PCOD8310794
Probable space group: I -4 M 2
;
_chemical_formula_sum "Si O2"
_cell_formula_units_Z 112
_cell_length_a 16.514244
_cell_length_b 16.514244
_cell_length_c 22.647492
_cell_angle_alpha 90.000000
_cell_angle_beta 90.000000
_cell_angle_gamma 90.000000
_cell_volume 6176.429791
_symmetry_space_group_name_H-M "I -4 M 2"
_symmetry_group_IT_number 119
_symmetry_cell_setting 'tetragonal'
loop_
_space_group_symop_operation_xyz
x,y,z
y,-x,-z
-x,-y,z
-y,x,-z
y,x,-z
-y,-x,-z
-x,y,z
x,-y,z
1/2+x,1/2+y,1/2+z
1/2+y,1/2-x,1/2-z
1/2-x,1/2-y,1/2+z
1/2-y,1/2+x,1/2-z
1/2+y,1/2+x,1/2-z
1/2-y,1/2-x,1/2-z
1/2-x,1/2+y,1/2+z
1/2+x,1/2-y,1/2+z
loop_
_atom_site_type_symbol
_atom_site_label
_atom_site_fract_x
_atom_site_fract_y
_atom_site_fract_z
Si Si1 0.695611 0.844393 0.919322
Si Si2 0.091792 0.333046 0.305696
Si Si3 0.861344 0.089980 0.936753
Si Si4 0.694743 0.589230 0.668262
Si Si5 0.595238 0.096034 0.470856
Si Si6 0.713392 0.812162 0.385354
Si Si7 0.686434 0.312911 0.777641
O O1 0.651146 0.858589 0.858024
O O2 0.767451 0.909433 0.919213
O O3 0.735604 0.753493 0.924758
O O4 0.633475 0.866621 0.970474
O O5 0.110185 0.389815 0.250000
O O6 0.105702 0.237877 0.292549
O O7 0.000000 0.346296 0.325811
O O8 0.913460 0.130717 0.885136
O O9 0.894499 0.000000 0.943867
O O10 0.866433 0.133568 0.000000
O O11 0.729314 0.500000 0.677507
O O12 0.767871 0.646685 0.653259
O O13 0.658765 0.618747 0.731147
O O14 0.500000 0.123257 0.460168
O O15 0.660350 0.122949 0.421320
O O16 0.597978 0.000000 0.475689
O O17 0.775088 0.852691 0.337664
O O18 0.749314 0.249314 0.750000
#
# Coordination Sequence:
#
# PCOD8310794 Si02
#       7
#    16  16  16  16  16  16  16
#     4  10  20  35  54  72  95 133 178 213 243 297
#     4  10  20  34  51  72 100 132 168 210 256 307
#     4  11  22  34  50  72 101 136 168 201 244 296
#     4  10  19  31  50  74  99 129 165 206 248 289
#     4  11  22  33  49  77 110 135 158 204 269 322
#     4   9  18  35  54  71  95 132 175 210 243 297
#     4   8  17  33  52  72  94 127 171 210 243 288
#
# _framework density 18.133452999999999
#
# number of rings (size 3 to 8) (size 9 to 14) (size 15 to 20)
#    0.000    2.143    0.000    6.429    0.000    4.571 
#    0.000    0.000    0.000    0.000    0.000    7.000 
#    0.000   14.857    0.000    0.000    0.000    0.000 
#
# Total GULP energy -693809.703779 kJ/mol
# GULP energy per Si atom -12389.458996 kJ/mol
# Density = 1.809218 g / cm^3
# Si number density = 18.133453 Si / 1000 Ang^3
#
#
#
# Elastic Constant Matrix: (Units=GPa)
#
#
# Indices 1 2 3 4 5 6 
#
# 1 80.8923 26.4171 34.0355 0.0000 0.0000 0.0000
# 2 26.4171 80.8926 34.0355 0.0000 0.0000 0.0000
# 3 34.0355 34.0355 101.0006 0.0000 0.0000 0.0000
# 4 0.0000 0.0000 0.0000 6.9549 0.0000 0.0000
# 5 0.0000 0.0000 0.0000 0.0000 6.9551 0.0000
# 6 0.0000 0.0000 0.0000 0.0000 0.0000 16.1388
#
#
#
# Elastic Compliance Matrix: (Units=1/GPa)
#
#
# Indices 1 2 3 4 5 6 
#
# 1 0.015105 -0.003252 -0.003994 0.000000 0.000000 0.000000
# 2 -0.003252 0.015105 -0.003994 0.000000 0.000000 0.000000
# 3 -0.003994 -0.003994 0.012593 0.000000 0.000000 0.000000
# 4 0.000000 0.000000 0.000000 0.143784 0.000000 0.000000
# 5 0.000000 0.000000 0.000000 0.000000 0.143779 0.000000
# 6 0.000000 0.000000 0.000000 0.000000 0.000000 0.061962
#
#
# Mechanical properties :
#
#
# Convention : Reuss Voigt Hill
#
# Bulk Modulus (GPa) = 49.20921 50.19574 49.70248
# Shear Modulus (GPa) = 11.86010 17.22959 14.54484
#
# Velocity S-wave (km/s) = 2.56021 3.08580 2.83521
# Velocity P-wave (km/s) = 5.99464 6.35906 6.17954
#
# Compressibility (1/GPa) = 0.02032140
#
# Stress axis : x y z
#
# Youngs Moduli (GPa) = 66.20447 66.20468 79.41041
#
# Poissons Ratio (x) = 0.21531 0.31717
# Poissons Ratio (y) = 0.21531 0.31717
# Poissons Ratio (z) = 0.26443 0.26443
#
# Static dielectric constant tensor:
#      x y z
#    x 3.303860 0.000000 0.000000 
#    y 0.000000 3.303870 0.000000 
#    z 0.000000 0.000000 3.680780 
# 
# 
# High freq. dielectric constant tensor:
#      x y z
#    x 1.686350 0.000000 0.000000 
#    y 0.000000 1.686350 0.000000 
#    z 0.000000 0.000000 1.713290 
# 
# From -- ./inp_files/8000.got.cif
#   From: 2010.03.12/outbox.cif.g09.slc.cpg/sg119_4_cif.got.tgz:8000.got - 2010.04.14 02:25:26.
