data_PCOD8310200
_publ_section_title
;
Structure prediction by ZEFSAII (Michael W. Deem and Ramdas Pophale) SiO2 
 PCOD8310200
Probable space group: P -4 C 2
;
_chemical_formula_sum "Si O2"
_cell_formula_units_Z 36
_cell_length_a 11.664210
_cell_length_b 11.664210
_cell_length_c 12.305662
_cell_angle_alpha 90.000000
_cell_angle_beta 90.000000
_cell_angle_gamma 90.000000
_cell_volume 1674.232014
_symmetry_space_group_name_H-M "P -4 C 2"
_symmetry_group_IT_number 116
_symmetry_cell_setting 'tetragonal'
loop_
_space_group_symop_operation_xyz
x,y,z
y,-x,-z
-x,-y,z
-y,x,-z
y,x,1/2-z
-y,-x,1/2-z
-x,y,1/2+z
x,-y,1/2+z
loop_
_atom_site_type_symbol
_atom_site_label
_atom_site_fract_x
_atom_site_fract_y
_atom_site_fract_z
Si Si1 0.232501 0.029388 0.127598
Si Si2 0.190503 0.361614 0.207236
Si Si3 0.500000 0.500000 0.000000
Si Si4 0.693163 0.421682 0.149385
Si Si5 0.000000 0.000000 0.750000
Si Si6 0.799999 0.760973 0.983949
O O1 0.322814 0.088000 0.211435
O O2 0.209459 0.106841 0.021158
O O3 0.111447 0.003477 0.178424
O O4 0.275283 0.903729 0.094908
O O5 0.310376 0.310376 0.250000
O O6 0.203174 0.499490 0.197227
O O7 0.170721 0.315026 0.087667
O O8 0.614120 0.500825 0.072943
O O9 0.620483 0.379518 0.250000
O O10 0.738951 0.317522 0.078356
#
# Coordination Sequence:
#
# PCOD8310200 Si02
#       6
#     8   8   2   8   2   8
#     4  11  24  42  74 105 145 186 243 303 362 439
#     4  10  22  46  69 106 144 184 243 310 354 418
#     4  12  22  44  76  98 140 188 250 300 352 434
#     4  12  26  42  75 105 140 193 247 296 363 440
#     4  12  20  42  80 100 128 190 240 298 344 440
#     4  11  24  44  69 105 142 191 235 295 367 432
#
# _framework density 21.502396999999998
#
# number of rings (size 3 to 8) (size 9 to 14) (size 15 to 20)
#    0.000    0.889    5.556    3.000    4.667    0.000 
#    0.000    6.667    0.000    0.000    0.000    0.000 
#    0.000    0.000    0.000    0.000    0.000    0.000 
#
# Total GULP energy -446243.658874 kJ/mol
# GULP energy per Si atom -12395.657191 kJ/mol
# Density = 2.145346 g / cm^3
# Si number density = 21.502397 Si / 1000 Ang^3
#
#
#
# Elastic Constant Matrix: (Units=GPa)
#
#
# Indices 1 2 3 4 5 6 
#
# 1 135.4694 48.3006 59.2269 0.0000 0.0000 0.0000
# 2 48.3006 135.4695 59.2262 0.0000 0.0000 0.0000
# 3 59.2269 59.2262 122.5997 0.0000 0.0000 0.0000
# 4 0.0000 0.0000 0.0000 22.1977 0.0000 0.0000
# 5 0.0000 0.0000 0.0000 0.0000 22.1972 0.0000
# 6 0.0000 0.0000 0.0000 0.0000 0.0000 32.3994
#
#
#
# Elastic Compliance Matrix: (Units=1/GPa)
#
#
# Indices 1 2 3 4 5 6 
#
# 1 0.009687 -0.001785 -0.003818 0.000000 0.000000 0.000000
# 2 -0.001785 0.009687 -0.003817 0.000000 0.000000 0.000000
# 3 -0.003818 -0.003817 0.011845 0.000000 0.000000 0.000000
# 4 0.000000 0.000000 0.000000 0.045050 0.000000 0.000000
# 5 0.000000 0.000000 0.000000 0.000000 0.045051 0.000000
# 6 0.000000 0.000000 0.000000 0.000000 0.000000 0.030865
#
#
# Mechanical properties :
#
#
# Convention : Reuss Voigt Hill
#
# Bulk Modulus (GPa) = 80.77849 80.78286 80.78067
# Shear Modulus (GPa) = 28.54686 30.47785 29.51236
#
# Velocity S-wave (km/s) = 3.64760 3.76894 3.70877
# Velocity P-wave (km/s) = 7.44236 7.52268 7.48263
#
# Compressibility (1/GPa) = 0.01237953
#
# Stress axis : x y z
#
# Youngs Moduli (GPa) = 103.22969 103.23039 84.42392
#
# Poissons Ratio (x) = 0.18425 0.32229
# Poissons Ratio (y) = 0.18425 0.32228
# Poissons Ratio (z) = 0.39408 0.39407
#
# Static dielectric constant tensor:
#      x y z
#    x 3.831620 0.000000 0.000000 
#    y 0.000000 3.831620 0.000000 
#    z 0.000000 0.000000 4.221370 
# 
# 
# High freq. dielectric constant tensor:
#      x y z
#    x 1.839620 0.000000 0.000000 
#    y 0.000000 1.839620 0.000000 
#    z 0.000000 0.000000 1.864770 
# 
# From -- ./inp_files/2504.got.cif
#   From: 2010.03.12/outbox.cif.g09.slc.cpg/sg116_2_cif.got.tgz:2504.got - 2010.04.14 02:15:44.
