data_PCOD8310179
_publ_section_title
;
Structure prediction by ZEFSAII (Michael W. Deem and Ramdas Pophale) SiO2 
 PCOD8310179
Probable space group: P -4 C 2
;
_chemical_formula_sum "Si O2"
_cell_formula_units_Z 48
_cell_length_a 9.271470
_cell_length_b 9.271470
_cell_length_c 26.850598
_cell_angle_alpha 90.000000
_cell_angle_beta 90.000000
_cell_angle_gamma 90.000000
_cell_volume 2308.081592
_symmetry_space_group_name_H-M "P -4 C 2"
_symmetry_group_IT_number 116
_symmetry_cell_setting 'tetragonal'
loop_
_space_group_symop_operation_xyz
x,y,z
y,-x,-z
-x,-y,z
-y,x,-z
y,x,1/2-z
-y,-x,1/2-z
-x,y,1/2+z
x,-y,1/2+z
loop_
_atom_site_type_symbol
_atom_site_label
_atom_site_fract_x
_atom_site_fract_y
_atom_site_fract_z
Si Si1 0.917308 0.791920 0.515055
Si Si2 0.306163 0.414276 0.475574
Si Si3 0.238448 0.620170 0.184467
Si Si4 0.521221 0.829866 0.709030
Si Si5 0.653716 0.666902 0.365764
Si Si6 0.991435 0.661111 0.113062
O O1 0.847739 0.654314 0.488079
O O2 0.939625 0.769080 0.573589
O O3 0.069676 0.814994 0.488405
O O4 0.312837 0.572439 0.499317
O O5 0.327326 0.425459 0.416149
O O6 0.211313 0.519887 0.232803
O O7 0.323693 0.769994 0.190813
O O8 0.330226 0.516914 0.147509
O O9 0.083119 0.665726 0.163743
O O10 0.396197 0.747069 0.679496
O O11 0.500000 0.000000 0.699960
O O12 0.709753 0.829296 0.375018
O O13 0.000000 0.500000 0.090343
#
# Coordination Sequence:
#
# PCOD8310179 Si02
#       6
#     8   8   8   8   8   8
#     4  11  24  42  61  92 133 172 220 265 324 400
#     4  11  25  40  62  93 126 167 219 273 320 394
#     4  10  23  42  70  93 130 171 214 276 334 398
#     4  11  24  42  64 102 130 164 219 277 332 393
#     4  11  22  41  65  97 121 171 219 266 333 386
#     4  10  21  42  69  91 126 180 218 264 338 398
#
# _framework density 20.796491
#
# number of rings (size 3 to 8) (size 9 to 14) (size 15 to 20)
#    0.000    1.333    1.667    4.500    7.000    2.667 
#    0.000    0.000    0.000    2.000    0.000    0.000 
#    0.000    0.000    0.000    0.000    0.000    0.000 
#
# Total GULP energy -595238.156720 kJ/mol
# GULP energy per Si atom -12400.794932 kJ/mol
# Density = 2.074916 g / cm^3
# Si number density = 20.796491 Si / 1000 Ang^3
#
#
#
# Elastic Constant Matrix: (Units=GPa)
#
#
# Indices 1 2 3 4 5 6 
#
# 1 84.7102 30.5466 42.2439 0.0000 0.0000 0.0000
# 2 30.5466 84.7102 42.2439 0.0000 0.0000 0.0000
# 3 42.2439 42.2439 144.0749 0.0000 0.0000 0.0000
# 4 0.0000 0.0000 0.0000 35.9374 0.0000 0.0000
# 5 0.0000 0.0000 0.0000 0.0000 35.9374 0.0000
# 6 0.0000 0.0000 0.0000 0.0000 0.0000 37.1696
#
#
#
# Elastic Compliance Matrix: (Units=1/GPa)
#
#
# Indices 1 2 3 4 5 6 
#
# 1 0.014757 -0.003705 -0.003240 0.000000 0.000000 0.000000
# 2 -0.003705 0.014757 -0.003240 0.000000 0.000000 0.000000
# 3 -0.003240 -0.003240 0.008841 0.000000 0.000000 0.000000
# 4 0.000000 0.000000 0.000000 0.027826 0.000000 0.000000
# 5 0.000000 0.000000 0.000000 0.000000 0.027826 0.000000
# 6 0.000000 0.000000 0.000000 0.000000 0.000000 0.026904
#
#
# Mechanical properties :
#
#
# Convention : Reuss Voigt Hill
#
# Bulk Modulus (GPa) = 55.60921 60.39602 58.00261
# Shear Modulus (GPa) = 33.94937 35.03962 34.49449
#
# Velocity S-wave (km/s) = 4.04475 4.10918 4.07709
# Velocity P-wave (km/s) = 6.97217 7.18459 7.07918
#
# Compressibility (1/GPa) = 0.01798263
#
# Stress axis : x y z
#
# Youngs Moduli (GPa) = 67.76398 67.76398 113.10854
#
# Poissons Ratio (x) = 0.25110 0.36652
# Poissons Ratio (y) = 0.25110 0.36652
# Poissons Ratio (z) = 0.21958 0.21958
#
# Static dielectric constant tensor:
#      x y z
#    x 3.773160 0.000000 0.000000 
#    y 0.000000 3.773160 0.000000 
#    z 0.000000 0.000000 3.861210 
# 
# 
# High freq. dielectric constant tensor:
#      x y z
#    x 1.810840 0.000000 0.000000 
#    y 0.000000 1.810840 0.000000 
#    z 0.000000 0.000000 1.822710 
# 
# From -- ./inp_files/5229.got.cif
#   From: 2010.03.12/outbox.cif.g09.slc.cpg/sg116_3_cif.got.tgz:5229.got - 2010.04.14 02:15:44.
