data_PCOD8310306
_publ_section_title
;
Structure prediction by ZEFSAII (Michael W. Deem and Ramdas Pophale) SiO2 
 PCOD8310306
Probable space group: P -4 B 2
;
_chemical_formula_sum "Si O2"
_cell_formula_units_Z 42
_cell_length_a 15.916946
_cell_length_b 15.916946
_cell_length_c 7.865590
_cell_angle_alpha 90.000000
_cell_angle_beta 90.000000
_cell_angle_gamma 90.000000
_cell_volume 1992.740698
_symmetry_space_group_name_H-M "P -4 B 2"
_symmetry_group_IT_number 117
_symmetry_cell_setting 'tetragonal'
loop_
_space_group_symop_operation_xyz
x,y,z
y,-x,-z
-x,-y,z
-y,x,-z
1/2+y,1/2+x,-z
1/2-y,1/2-x,-z
1/2-x,1/2+y,z
1/2+x,1/2-y,z
loop_
_atom_site_type_symbol
_atom_site_label
_atom_site_fract_x
_atom_site_fract_y
_atom_site_fract_z
Si Si1 0.865025 0.941862 0.755243
Si Si2 0.176998 0.721724 0.317910
Si Si3 0.640001 0.965817 0.248461
Si Si4 0.218206 0.281795 0.000000
Si Si5 0.791636 0.044137 0.070989
Si Si6 0.000000 0.500000 0.500000
Si Si7 0.500000 0.000000 0.000000
Si Si8 0.000000 0.000000 0.500000
O O1 0.787984 0.897977 0.659773
O O2 0.928701 0.873035 0.826124
O O3 0.916769 0.998361 0.620077
O O4 0.824308 0.990788 0.912640
O O5 0.222521 0.722521 0.500000
O O6 0.135401 0.633698 0.270494
O O7 0.241870 0.744206 0.170342
O O8 0.589934 0.005759 0.406097
O O9 0.735854 0.993657 0.210816
O O10 0.587793 0.000591 0.093069
O O11 0.119762 0.263037 0.006195
#
# Coordination Sequence:
#
# PCOD8310306 Si02
#       8
#     8   8   8   4   8   2   2   2
#     4  11  26  43  69 100 132 183 225 289 350 417
#     4  11  24  43  69  96 133 184 228 281 341 430
#     4  11  21  40  64  96 134 177 222 279 346 410
#     4  10  24  44  68 102 130 180 232 286 350 408
#     4  11  23  45  70  95 133 182 230 286 345 432
#     4  10  24  38  60 106 140 170 224 286 356 402
#     4  10  20  34  64  94 132 174 220 280 334 414
#     4  12  28  42  68 108 140 178 224 300 360 398
#
# _framework density 21.076498999999998
#
# number of rings (size 3 to 8) (size 9 to 14) (size 15 to 20)
#    0.000    1.143    0.952    5.714    5.333    1.524 
#    6.857    0.000    0.000    0.000    0.000    0.000 
#    0.000    0.000    0.000    0.000    0.000    0.000 
#
# Total GULP energy -520527.326967 kJ/mol
# GULP energy per Si atom -12393.507785 kJ/mol
# Density = 2.102853 g / cm^3
# Si number density = 21.076499 Si / 1000 Ang^3
#
#
#
# Elastic Constant Matrix: (Units=GPa)
#
#
# Indices 1 2 3 4 5 6 
#
# 1 118.6100 48.3680 64.9195 0.0000 0.0000 0.0000
# 2 48.3680 118.6110 64.9191 0.0000 0.0000 0.0000
# 3 64.9195 64.9191 143.7133 0.0000 0.0000 0.0000
# 4 0.0000 0.0000 0.0000 -7.2187 0.0000 0.0000
# 5 0.0000 0.0000 0.0000 0.0000 -7.2125 0.0000
# 6 0.0000 0.0000 0.0000 0.0000 0.0000 36.6498
#
#
#
# Elastic Compliance Matrix: (Units=1/GPa)
#
#
# Indices 1 2 3 4 5 6 
#
# 1 0.011734 -0.002503 -0.004170 0.000000 0.000000 0.000000
# 2 -0.002503 0.011734 -0.004170 0.000000 0.000000 0.000000
# 3 -0.004170 -0.004170 0.010726 0.000000 0.000000 0.000000
# 4 0.000000 0.000000 0.000000 -0.138530 0.000000 0.000000
# 5 0.000000 0.000000 0.000000 0.000000 -0.138649 0.000000
# 6 0.000000 0.000000 0.000000 0.000000 0.000000 0.027285
#
#
# Mechanical properties :
#
#
# Convention : Reuss Voigt Hill
#
# Bulk Modulus (GPa) = 79.94746 81.92750 80.93748
# Shear Modulus (GPa) = -26.33726 17.95891 -4.18918
#
# Velocity S-wave (km/s) = -3.53881 2.92221 -1.41135
# Velocity P-wave (km/s) = 4.61702 7.09518 5.98575
#
# Compressibility (1/GPa) = 0.01250821
#
# Stress axis : x y z
#
# Youngs Moduli (GPa) = 85.22277 85.22410 93.23354
#
# Poissons Ratio (x) = 0.21328 0.38879
# Poissons Ratio (y) = 0.21327 0.38878
# Poissons Ratio (z) = 0.35539 0.35538
#
# Static dielectric constant tensor:
#      x y z
#    x 3.985340 0.000000 0.000000 
#    y 0.000000 3.985330 0.000000 
#    z 0.000000 0.000000 3.919870 
# 
# 
# High freq. dielectric constant tensor:
#      x y z
#    x 1.834890 0.000000 0.000000 
#    y 0.000000 1.834890 0.000000 
#    z 0.000000 0.000000 1.834440 
# 
# From -- ./inp_files/1834.got.cif
#   From: 2010.03.12/outbox.cif.g09.slc.cpg/sg117_1_cif.got.tgz:1834.got - 2010.04.14 02:19:01.
