data_PCOD8310260
_publ_section_title
;
Structure prediction by ZEFSAII (Michael W. Deem and Ramdas Pophale) SiO2 
 PCOD8310260
Probable space group: P -4 C 2
;
_chemical_formula_sum "Si O2"
_cell_formula_units_Z 24
_cell_length_a 10.187740
_cell_length_b 10.187740
_cell_length_c 8.925068
_cell_angle_alpha 90.000000
_cell_angle_beta 90.000000
_cell_angle_gamma 90.000000
_cell_volume 926.333221
_symmetry_space_group_name_H-M "P -4 C 2"
_symmetry_group_IT_number 116
_symmetry_cell_setting 'tetragonal'
loop_
_space_group_symop_operation_xyz
x,y,z
y,-x,-z
-x,-y,z
-y,x,-z
y,x,1/2-z
-y,-x,1/2-z
-x,y,1/2+z
x,-y,1/2+z
loop_
_atom_site_type_symbol
_atom_site_label
_atom_site_fract_x
_atom_site_fract_y
_atom_site_fract_z
Si Si1 0.938549 0.839234 0.405785
Si Si2 0.297385 0.562207 0.496872
Si Si3 0.128608 0.429876 0.270872
O O1 0.915451 0.915451 0.250000
O O2 0.904130 0.686240 0.387728
O O3 0.090594 0.852001 0.462230
O O4 0.418094 0.653504 0.452114
O O5 0.204615 0.546309 0.354593
O O6 0.217358 0.626552 0.635404
O O7 0.000000 0.500000 0.202767
#
# Coordination Sequence:
#
# PCOD8310260 Si02
#       3
#     8   8   8
#     4  11  26  50  77 111 156 208 258 317 396 466
#     4  11  25  50  77 109 152 205 256 321 393 457
#     4  12  28  46  78 117 153 204 261 323 385 464
#
# _framework density 25.908602999999999
#
# number of rings (size 3 to 8) (size 9 to 14) (size 15 to 20)
#    0.000    0.667    0.000    7.000   14.000    2.667 
#    0.000    0.000    0.000    0.000    0.000    0.000 
#    0.000    0.000    0.000    0.000    0.000    0.000 
#
# Total GULP energy -297579.964528 kJ/mol
# GULP energy per Si atom -12399.165189 kJ/mol
# Density = 2.584963 g / cm^3
# Si number density = 25.908603 Si / 1000 Ang^3
#
#
#
# Elastic Constant Matrix: (Units=GPa)
#
#
# Indices 1 2 3 4 5 6 
#
# 1 96.3129 14.0248 13.5717 0.0000 0.0000 0.0000
# 2 14.0248 96.3129 13.5717 0.0000 0.0000 0.0000
# 3 13.5717 13.5717 110.2190 0.0000 0.0000 0.0000
# 4 0.0000 0.0000 0.0000 49.4520 0.0000 0.0000
# 5 0.0000 0.0000 0.0000 0.0000 49.4520 0.0000
# 6 0.0000 0.0000 0.0000 0.0000 0.0000 33.7412
#
#
#
# Elastic Compliance Matrix: (Units=1/GPa)
#
#
# Indices 1 2 3 4 5 6 
#
# 1 0.010749 -0.001403 -0.001151 0.000000 0.000000 0.000000
# 2 -0.001403 0.010749 -0.001151 0.000000 0.000000 0.000000
# 3 -0.001151 -0.001151 0.009356 0.000000 0.000000 0.000000
# 4 0.000000 0.000000 0.000000 0.020222 0.000000 0.000000
# 5 0.000000 0.000000 0.000000 0.000000 0.020222 0.000000
# 6 0.000000 0.000000 0.000000 0.000000 0.000000 0.029637
#
#
# Mechanical properties :
#
#
# Convention : Reuss Voigt Hill
#
# Bulk Modulus (GPa) = 42.65242 42.79788 42.72515
# Shear Modulus (GPa) = 43.04401 43.97415 43.50908
#
# Velocity S-wave (km/s) = 4.08042 4.12428 4.10241
# Velocity P-wave (km/s) = 6.22079 6.26372 6.24229
#
# Compressibility (1/GPa) = 0.02344533
#
# Stress axis : x y z
#
# Youngs Moduli (GPa) = 93.02921 93.02921 106.88030
#
# Poissons Ratio (x) = 0.13053 0.12300
# Poissons Ratio (y) = 0.13053 0.12300
# Poissons Ratio (z) = 0.10706 0.10706
#
# Static dielectric constant tensor:
#      x y z
#    x 4.723520 0.000000 0.000000 
#    y 0.000000 4.723520 0.000000 
#    z 0.000000 0.000000 4.565740 
# 
# 
# High freq. dielectric constant tensor:
#      x y z
#    x 2.043170 0.000000 0.000000 
#    y 0.000000 2.043170 0.000000 
#    z 0.000000 0.000000 2.025320 
# 
# From -- ./inp_files/484.got.cif
#   From: 2010.03.12/outbox.cif.g09.slc.cpg/sg116_1_cif.got.tgz:484.got - 2010.04.14 02:15:44.
