data_PCOD8310076
_publ_section_title
;
Structure prediction by ZEFSAII (Michael W. Deem and Ramdas Pophale) SiO2 
 PCOD8310076
Probable space group: P -4 C 2
;
_chemical_formula_sum "Si O2"
_cell_formula_units_Z 40
_cell_length_a 20.535810
_cell_length_b 20.535810
_cell_length_c 5.186735
_cell_angle_alpha 90.000000
_cell_angle_beta 90.000000
_cell_angle_gamma 90.000000
_cell_volume 2187.347251
_symmetry_space_group_name_H-M "P -4 C 2"
_symmetry_group_IT_number 116
_symmetry_cell_setting 'tetragonal'
loop_
_space_group_symop_operation_xyz
x,y,z
y,-x,-z
-x,-y,z
-y,x,-z
y,x,1/2-z
-y,-x,1/2-z
-x,y,1/2+z
x,-y,1/2+z
loop_
_atom_site_type_symbol
_atom_site_label
_atom_site_fract_x
_atom_site_fract_y
_atom_site_fract_z
Si Si1 0.189574 0.299228 0.256088
Si Si2 0.246983 0.354792 0.756996
Si Si3 0.349289 0.457975 0.712140
Si Si4 0.033027 0.128829 0.181239
Si Si5 0.719043 0.964075 0.295069
O O1 0.231184 0.231184 0.250000
O O2 0.198923 0.337666 0.522791
O O3 0.113095 0.289173 0.223619
O O4 0.210421 0.347305 0.027388
O O5 0.307013 0.307013 0.750000
O O6 0.276882 0.427016 0.734619
O O7 0.405074 0.405074 0.750000
O O8 0.357209 0.486697 0.426778
O O9 0.106836 0.106836 0.250000
O O10 0.024091 0.205058 0.186875
O O11 0.986421 0.099655 0.404612
O O12 0.688067 0.996960 0.551808
#
# Coordination Sequence:
#
# PCOD8310076 Si02
#       5
#     8   8   8   8   8
#     4  10  18  32  53  72  97 132 169 209 263 320
#     4   9  19  33  51  76 101 132 174 218 253 285
#     4  11  22  36  54  79 116 153 184 215 240 271
#     4  10  20  31  42  57  80 112 151 192 234 285
#     4  10  20  32  46  68  96 121 152 200 257 319
#
# _framework density 18.286992000000001
#
# number of rings (size 3 to 8) (size 9 to 14) (size 15 to 20)
#    0.000    2.000    0.000    4.200    0.000    5.600 
#    0.000    6.000    0.000    0.000    0.000    0.000 
#    0.000   56.000    0.000    0.000    0.000    0.000 
#
# Total GULP energy -495722.517597 kJ/mol
# GULP energy per Si atom -12393.062940 kJ/mol
# Density = 1.824537 g / cm^3
# Si number density = 18.286992 Si / 1000 Ang^3
#
#
#
# Elastic Constant Matrix: (Units=GPa)
#
#
# Indices 1 2 3 4 5 6 
#
# 1 25.9243 56.8435 23.1643 0.0000 0.0000 0.0000
# 2 56.8435 25.9243 23.1643 0.0000 0.0000 0.0000
# 3 23.1643 23.1643 109.6027 0.0000 0.0000 0.0000
# 4 0.0000 0.0000 0.0000 285.2160 0.0000 0.0000
# 5 0.0000 0.0000 0.0000 0.0000 285.2160 0.0000
# 6 0.0000 0.0000 0.0000 0.0000 0.0000 28.1259
#
#
#
# Elastic Compliance Matrix: (Units=1/GPa)
#
#
# Indices 1 2 3 4 5 6 
#
# 1 -0.009320 0.023023 -0.002896 0.000000 0.000000 0.000000
# 2 0.023023 -0.009320 -0.002896 0.000000 0.000000 0.000000
# 3 -0.002896 -0.002896 0.010348 0.000000 0.000000 0.000000
# 4 0.000000 0.000000 0.000000 0.003506 0.000000 0.000000
# 5 0.000000 0.000000 0.000000 0.000000 0.003506 0.000000
# 6 0.000000 0.000000 0.000000 0.000000 0.000000 0.035554
#
#
# Mechanical properties :
#
#
# Convention : Reuss Voigt Hill
#
# Bulk Modulus (GPa) = 38.21211 40.86616 39.53914
# Shear Modulus (GPa) = 585.63834 123.59687 354.61760
#
# Velocity S-wave (km/s) = 17.91490 8.23007 13.94055
# Velocity P-wave (km/s) = 21.18646 10.61639 16.75670
#
# Compressibility (1/GPa) = 0.02616971
#
# Stress axis : x y z
#
# Youngs Moduli (GPa) = -107.30038 -107.30038 96.63670
#
# Poissons Ratio (x) = 2.47034 0.27987
# Poissons Ratio (y) = 2.47034 0.27987
# Poissons Ratio (z) = -0.31075 -0.31075
#
# Static dielectric constant tensor:
#      x y z
#    x 3.156960 0.000000 0.000000 
#    y 0.000000 3.156960 0.000000 
#    z 0.000000 0.000000 4.348250 
# 
# 
# High freq. dielectric constant tensor:
#      x y z
#    x 1.682030 0.000000 0.000000 
#    y 0.000000 1.682030 0.000000 
#    z 0.000000 0.000000 1.737800 
# 
# From -- ./inp_files/120.got.cif
#   From: 2010.03.12/outbox.cif.g09.slc.cpg/sg116_1_cif.got.tgz:120.got - 2010.04.14 02:15:44.
