data_PCOD8310419
_publ_section_title
;
Structure prediction by ZEFSAII (Michael W. Deem and Ramdas Pophale) SiO2 
 PCOD8310419
Probable space group: P -4 B 2
;
_chemical_formula_sum "Si O2"
_cell_formula_units_Z 40
_cell_length_a 9.623640
_cell_length_b 9.623640
_cell_length_c 20.010248
_cell_angle_alpha 90.000000
_cell_angle_beta 90.000000
_cell_angle_gamma 90.000000
_cell_volume 1853.238050
_symmetry_space_group_name_H-M "P -4 B 2"
_symmetry_group_IT_number 117
_symmetry_cell_setting 'tetragonal'
loop_
_space_group_symop_operation_xyz
x,y,z
y,-x,-z
-x,-y,z
-y,x,-z
1/2+y,1/2+x,-z
1/2-y,1/2-x,-z
1/2-x,1/2+y,z
1/2+x,1/2-y,z
loop_
_atom_site_type_symbol
_atom_site_label
_atom_site_fract_x
_atom_site_fract_y
_atom_site_fract_z
Si Si1 0.000000 0.500000 0.500000
Si Si2 0.337174 0.983653 0.779113
Si Si3 0.031185 0.764369 0.593325
Si Si4 0.788220 0.288220 0.000000
Si Si5 0.721976 0.716645 0.311375
Si Si6 0.529183 0.330507 0.085993
Si Si7 0.500000 0.500000 0.500000
O O1 0.992797 0.629226 0.550468
O O2 0.330917 0.853425 0.730872
O O3 0.230625 0.970642 0.840193
O O4 0.500000 0.000000 0.800873
O O5 0.272625 0.110968 0.740157
O O6 0.163567 0.746292 0.637352
O O7 0.911572 0.822131 0.642326
O O8 0.075858 0.883615 0.542818
O O9 0.678002 0.286573 0.059125
O O10 0.930509 0.261506 0.039016
O O11 0.500000 0.500000 0.083898
#
# Coordination Sequence:
#
# PCOD8310419 Si02
#       7
#     2   8   8   4   8   8   2
#     4  12  24  44  68 104 148 176 252 302 356 440
#     4  12  28  48  72 111 144 191 245 298 356 428
#     4  12  24  43  69 101 141 190 236 302 362 434
#     4  12  24  50  72 106 148 188 238 296 364 414
#     4  12  25  47  72 103 145 190 242 298 368 426
#     4  12  28  48  74 108 148 188 243 300 350 430
#     4  12  24  40  64 104 132 192 236 282 376 424
#
# _framework density 21.583843999999999
#
# number of rings (size 3 to 8) (size 9 to 14) (size 15 to 20)
#    0.000    0.000    4.000    6.000    5.600    3.200 
#    0.000    0.000    0.000    0.000    0.000    0.000 
#    0.000    0.000    0.000    0.000    0.000    0.000 
#
# Total GULP energy -495647.459048 kJ/mol
# GULP energy per Si atom -12391.186476 kJ/mol
# Density = 2.153472 g / cm^3
# Si number density = 21.583844 Si / 1000 Ang^3
#
#
#
# Elastic Constant Matrix: (Units=GPa)
#
#
# Indices 1 2 3 4 5 6 
#
# 1 29.4291 68.3923 31.1073 0.0000 0.0000 0.0000
# 2 68.3923 29.4291 31.1073 0.0000 0.0000 0.0000
# 3 31.1073 31.1073 127.2427 0.0000 0.0000 0.0000
# 4 0.0000 0.0000 0.0000 109.1819 0.0000 0.0000
# 5 0.0000 0.0000 0.0000 0.0000 109.1819 0.0000
# 6 0.0000 0.0000 0.0000 0.0000 0.0000 32.2282
#
#
#
# Elastic Compliance Matrix: (Units=1/GPa)
#
#
# Indices 1 2 3 4 5 6 
#
# 1 -0.006780 0.018885 -0.002959 0.000000 0.000000 0.000000
# 2 0.018885 -0.006780 -0.002959 0.000000 0.000000 0.000000
# 3 -0.002959 -0.002959 0.009306 0.000000 0.000000 0.000000
# 4 0.000000 0.000000 0.000000 0.009159 0.000000 0.000000
# 5 0.000000 0.000000 0.000000 0.000000 0.009159 0.000000
# 6 0.000000 0.000000 0.000000 0.000000 0.000000 0.031029
#
#
# Mechanical properties :
#
#
# Convention : Reuss Voigt Hill
#
# Bulk Modulus (GPa) = 46.12883 49.70164 47.91523
# Shear Modulus (GPa) = 189.49745 53.81800 121.65773
#
# Velocity S-wave (km/s) = 9.38012 4.99885 7.51582
# Velocity P-wave (km/s) = 11.77853 7.50968 9.87747
#
# Compressibility (1/GPa) = 0.02167842
#
# Stress axis : x y z
#
# Youngs Moduli (GPa) = -147.48831 -147.48831 107.45839
#
# Poissons Ratio (x) = 2.78532 0.31800
# Poissons Ratio (y) = 2.78532 0.31800
# Poissons Ratio (z) = -0.43646 -0.43646
#
# Static dielectric constant tensor:
#      x y z
#    x 4.274410 0.000000 0.000000 
#    y 0.000000 4.274410 0.000000 
#    z 0.000000 0.000000 4.299730 
# 
# 
# High freq. dielectric constant tensor:
#      x y z
#    x 1.860700 0.000000 0.000000 
#    y 0.000000 1.860700 0.000000 
#    z 0.000000 0.000000 1.878890 
# 
# From -- ./inp_files/3541.got.cif
#   From: 2010.03.12/outbox.cif.g09.slc.cpg/sg117_2_cif.got.tgz:3541.got - 2010.04.14 02:19:01.
