data_PCOD8310766
_publ_section_title
;
Structure prediction by ZEFSAII (Michael W. Deem and Ramdas Pophale) SiO2 
 PCOD8310766
Probable space group: I -4 M 2
;
_chemical_formula_sum "Si O2"
_cell_formula_units_Z 112
_cell_length_a 14.233830
_cell_length_b 14.233830
_cell_length_c 27.129839
_cell_angle_alpha 90.000000
_cell_angle_beta 90.000000
_cell_angle_gamma 90.000000
_cell_volume 5496.557375
_symmetry_space_group_name_H-M "I -4 M 2"
_symmetry_group_IT_number 119
_symmetry_cell_setting 'tetragonal'
loop_
_space_group_symop_operation_xyz
x,y,z
y,-x,-z
-x,-y,z
-y,x,-z
y,x,-z
-y,-x,-z
-x,y,z
x,-y,z
1/2+x,1/2+y,1/2+z
1/2+y,1/2-x,1/2-z
1/2-x,1/2-y,1/2+z
1/2-y,1/2+x,1/2-z
1/2+y,1/2+x,1/2-z
1/2-y,1/2-x,1/2-z
1/2-x,1/2+y,1/2+z
1/2+x,1/2-y,1/2+z
loop_
_atom_site_type_symbol
_atom_site_label
_atom_site_fract_x
_atom_site_fract_y
_atom_site_fract_z
Si Si1 0.395342 0.296594 0.563876
Si Si2 0.105749 0.713768 0.962699
Si Si3 0.397079 0.826905 0.658894
Si Si4 0.105902 0.700651 0.796036
Si Si5 0.166459 0.895044 0.769207
Si Si6 0.888830 0.716521 0.614851
Si Si7 0.396667 0.301960 0.843754
O O1 0.500000 0.339597 0.556872
O O2 0.318421 0.378263 0.559172
O O3 0.377882 0.216966 0.521654
O O4 0.384987 0.250942 0.616898
O O5 0.177433 0.638328 0.939094
O O6 0.000000 0.682707 0.949594
O O7 0.500000 0.876854 0.654339
O O8 0.390533 0.773230 0.711088
O O9 0.311774 0.899254 0.654159
O O10 0.165650 0.665650 0.750000
O O11 0.105865 0.814551 0.796268
O O12 0.149847 0.661043 0.845743
O O13 0.000000 0.663538 0.791944
O O14 0.165023 0.872872 0.711279
O O15 0.124747 0.000000 0.779448
O O16 0.848662 0.821900 0.619545
O O17 0.000000 0.716456 0.622455
O O18 0.500000 0.336706 0.859706
#
# Coordination Sequence:
#
# PCOD8310766 Si02
#       7
#    16  16  16  16  16  16  16
#     4   9  18  34  61  93 124 156 195 242 299 366
#     4  10  20  36  60  89 124 162 199 244 300 362
#     4  10  18  34  60  89 121 154 188 237 302 369
#     4  12  23  37  57  83 117 156 201 250 300 353
#     4  10  20  36  61  88 120 158 196 241 300 370
#     4  12  25  42  61  83 117 163 212 260 307 356
#     4  11  22  38  60  86 117 156 203 250 303 364
#
# _framework density 20.376391999999999
#
# number of rings (size 3 to 8) (size 9 to 14) (size 15 to 20)
#    0.000    1.429    4.286    1.286    0.000    3.000 
#    0.000    3.571    0.000    9.429    0.000    0.000 
#    0.000    0.000    0.000    0.000    0.000    0.000 
#
# Total GULP energy -694258.582059 kJ/mol
# GULP energy per Si atom -12397.474680 kJ/mol
# Density = 2.033001 g / cm^3
# Si number density = 20.376392 Si / 1000 Ang^3
#
#
#
# Elastic Constant Matrix: (Units=GPa)
#
#
# Indices 1 2 3 4 5 6 
#
# 1 114.7258 33.3388 16.7313 0.0000 0.0000 0.0000
# 2 33.3388 114.7258 16.7313 0.0000 0.0000 0.0000
# 3 16.7313 16.7313 49.1411 0.0000 0.0000 0.0000
# 4 0.0000 0.0000 0.0000 21.4411 0.0000 0.0000
# 5 0.0000 0.0000 0.0000 0.0000 21.4411 0.0000
# 6 0.0000 0.0000 0.0000 0.0000 0.0000 10.9488
#
#
#
# Elastic Compliance Matrix: (Units=1/GPa)
#
#
# Indices 1 2 3 4 5 6 
#
# 1 0.009802 -0.002485 -0.002491 0.000000 0.000000 0.000000
# 2 -0.002485 0.009802 -0.002491 0.000000 0.000000 0.000000
# 3 -0.002491 -0.002491 0.022046 0.000000 0.000000 0.000000
# 4 0.000000 0.000000 0.000000 0.046639 0.000000 0.000000
# 5 0.000000 0.000000 0.000000 0.000000 0.046639 0.000000
# 6 0.000000 0.000000 0.000000 0.000000 0.000000 0.091334
#
#
# Mechanical properties :
#
#
# Convention : Reuss Voigt Hill
#
# Bulk Modulus (GPa) = 37.43241 45.79951 41.61596
# Shear Modulus (GPa) = 19.99182 24.88562 22.43872
#
# Velocity S-wave (km/s) = 3.13569 3.49850 3.32205
# Velocity P-wave (km/s) = 5.61431 6.23256 5.93150
#
# Compressibility (1/GPa) = 0.02671481
#
# Stress axis : x y z
#
# Youngs Moduli (GPa) = 102.02107 102.02107 45.35977
#
# Poissons Ratio (x) = 0.25353 0.11300
# Poissons Ratio (y) = 0.25353 0.11300
# Poissons Ratio (z) = 0.25415 0.25415
#
# Static dielectric constant tensor:
#      x y z
#    x 3.652120 0.000000 0.000000 
#    y 0.000000 3.652120 0.000000 
#    z 0.000000 0.000000 3.781240 
# 
# 
# High freq. dielectric constant tensor:
#      x y z
#    x 1.784850 0.000000 0.000000 
#    y 0.000000 1.784850 0.000000 
#    z 0.000000 0.000000 1.791520 
# 
# From -- ./inp_files/9592.got.cif
#   From: 2010.03.12/outbox.cif.g09.slc.cpg/sg119_5_cif.got.tgz:9592.got - 2010.04.14 02:25:26.
