data_PCOD8310230
_publ_section_title
;
Structure prediction by ZEFSAII (Michael W. Deem and Ramdas Pophale) SiO2 
 PCOD8310230
Probable space group: P -4 C 2
;
_chemical_formula_sum "Si O2"
_cell_formula_units_Z 38
_cell_length_a 10.641208
_cell_length_b 10.641208
_cell_length_c 16.987161
_cell_angle_alpha 90.000000
_cell_angle_beta 90.000000
_cell_angle_gamma 90.000000
_cell_volume 1923.546403
_symmetry_space_group_name_H-M "P -4 C 2"
_symmetry_group_IT_number 116
_symmetry_cell_setting 'tetragonal'
loop_
_space_group_symop_operation_xyz
x,y,z
y,-x,-z
-x,-y,z
-y,x,-z
y,x,1/2-z
-y,-x,1/2-z
-x,y,1/2+z
x,-y,1/2+z
loop_
_atom_site_type_symbol
_atom_site_label
_atom_site_fract_x
_atom_site_fract_y
_atom_site_fract_z
Si Si1 0.494643 0.768778 0.725336
Si Si2 0.848133 0.334671 0.138703
Si Si3 0.937662 0.260229 0.756443
Si Si4 0.000000 0.500000 0.522955
Si Si5 0.668443 0.110611 0.107679
Si Si6 0.500000 0.500000 0.250000
O O1 0.592769 0.763659 0.797751
O O2 0.365012 0.829782 0.753643
O O3 0.542773 0.852094 0.653972
O O4 0.486927 0.624604 0.695667
O O5 0.892157 0.435979 0.074932
O O6 0.764841 0.226723 0.096824
O O7 0.964824 0.273527 0.184963
O O8 0.876180 0.123821 0.750000
O O9 0.002002 0.263967 0.842114
O O10 0.060404 0.616457 0.474996
#
# Coordination Sequence:
#
# PCOD8310230 Si02
#       6
#     8   8   8   4   8   2
#     4  11  19  39  64  92 123 155 201 266 315 357
#     4  11  23  42  62  88 126 165 207 259 315 375
#     4  11  21  38  70  95 120 161 213 261 314 373
#     4  12  24  42  60  88 132 178 200 248 328 386
#     4  11  23  42  62  88 126 165 207 259 315 375
#     4  12  20  32  72 106 116 140 220 286 304 364
#
# _framework density 19.755178999999998
#
# number of rings (size 3 to 8) (size 9 to 14) (size 15 to 20)
#    0.000    0.842    7.368    3.158    0.000    3.368 
#    3.789    0.000    0.000    0.000    0.000    0.000 
#    0.000    0.000    0.000    0.000    0.000    0.000 
#
# Total GULP energy -471104.851418 kJ/mol
# GULP energy per Si atom -12397.496090 kJ/mol
# Density = 1.971022 g / cm^3
# Si number density = 19.755179 Si / 1000 Ang^3
#
#
#
# Elastic Constant Matrix: (Units=GPa)
#
#
# Indices 1 2 3 4 5 6 
#
# 1 99.3213 43.9671 28.8857 0.0000 0.0000 0.0000
# 2 43.9671 99.3228 28.8851 0.0000 0.0000 0.0000
# 3 28.8857 28.8851 78.8561 0.0000 0.0000 0.0000
# 4 0.0000 0.0000 0.0000 2.8428 0.0000 0.0000
# 5 0.0000 0.0000 0.0000 0.0000 2.8426 0.0000
# 6 0.0000 0.0000 0.0000 0.0000 0.0000 51.8834
#
#
#
# Elastic Compliance Matrix: (Units=1/GPa)
#
#
# Indices 1 2 3 4 5 6 
#
# 1 0.013127 -0.004939 -0.002999 0.000000 0.000000 0.000000
# 2 -0.004939 0.013127 -0.002999 0.000000 0.000000 0.000000
# 3 -0.002999 -0.002999 0.014879 0.000000 0.000000 0.000000
# 4 0.000000 0.000000 0.000000 0.351765 0.000000 0.000000
# 5 0.000000 0.000000 0.000000 0.000000 0.351793 0.000000
# 6 0.000000 0.000000 0.000000 0.000000 0.000000 0.019274
#
#
# Mechanical properties :
#
#
# Convention : Reuss Voigt Hill
#
# Bulk Modulus (GPa) = 51.92766 53.44178 52.68472
# Shear Modulus (GPa) = 6.31108 23.23124 14.77116
#
# Velocity S-wave (km/s) = 1.78930 3.43294 2.73740
# Velocity P-wave (km/s) = 5.53276 6.54402 6.05952
#
# Compressibility (1/GPa) = 0.01925756
#
# Stress axis : x y z
#
# Youngs Moduli (GPa) = 76.17974 76.18146 67.21018
#
# Poissons Ratio (x) = 0.37622 0.20160
# Poissons Ratio (y) = 0.37622 0.20158
# Poissons Ratio (z) = 0.22850 0.22849
#
# Static dielectric constant tensor:
#      x y z
#    x 3.704220 0.000000 0.000000 
#    y 0.000000 3.704220 0.000000 
#    z 0.000000 0.000000 3.354460 
# 
# 
# High freq. dielectric constant tensor:
#      x y z
#    x 1.784160 0.000000 0.000000 
#    y 0.000000 1.784160 0.000000 
#    z 0.000000 0.000000 1.734530 
# 
# From -- ./inp_files/2622.got.cif
#   From: 2010.03.12/outbox.cif.g09.slc.cpg/sg116_2_cif.got.tgz:2622.got - 2010.04.14 02:15:44.
