data_PCOD8310584
_publ_section_title
;
Structure prediction by ZEFSAII (Michael W. Deem and Ramdas Pophale) SiO2 
 PCOD8310584
Probable space group: P -4 N 2
;
_chemical_formula_sum "Si O2"
_cell_formula_units_Z 40
_cell_length_a 14.100465
_cell_length_b 14.100465
_cell_length_c 9.378352
_cell_angle_alpha 90.000000
_cell_angle_beta 90.000000
_cell_angle_gamma 90.000000
_cell_volume 1864.633141
_symmetry_space_group_name_H-M "P -4 N 2"
_symmetry_group_IT_number 118
_symmetry_cell_setting 'tetragonal'
loop_
_space_group_symop_operation_xyz
x,y,z
y,-x,-z
-x,-y,z
-y,x,-z
1/2+y,1/2+x,1/2-z
1/2-y,1/2-x,1/2-z
1/2-x,1/2+y,1/2+z
1/2+x,1/2-y,1/2+z
loop_
_atom_site_type_symbol
_atom_site_label
_atom_site_fract_x
_atom_site_fract_y
_atom_site_fract_z
Si Si1 0.623433 0.724030 0.768071
Si Si2 0.279491 0.779491 0.750000
Si Si3 0.000000 0.500000 0.250000
Si Si4 0.000000 0.000000 0.500000
Si Si5 0.582777 0.687705 0.095302
Si Si6 0.224031 0.428961 0.717773
Si Si7 0.966601 0.692145 0.095650
O O1 0.677188 0.822813 0.750000
O O2 0.684923 0.638690 0.704136
O O3 0.525339 0.728101 0.681162
O O4 0.600440 0.711356 0.932428
O O5 0.295154 0.676406 0.814089
O O6 0.295983 0.854553 0.876552
O O7 0.998901 0.410790 0.144725
O O8 0.951767 0.078206 0.603870
O O9 0.502793 0.758468 0.154814
O O10 0.129581 0.370420 0.750000
O O11 0.207985 0.485887 0.571340
#
# Coordination Sequence:
#
# PCOD8310584 Si02
#       7
#     8   4   2   2   8   8   8
#     4  11  24  46  73  99 142 189 234 291 369 429
#     4  11  26  43  75 102 145 190 244 298 363 426
#     4  10  24  44  74 100 138 200 236 278 370 432
#     4  12  24  48  76 102 136 208 248 286 364 452
#     4  12  26  47  73 104 144 195 245 299 367 441
#     4  11  27  45  70 106 145 182 241 301 358 432
#     4  11  25  45  71 105 143 185 240 298 354 435
#
# _framework density 21.451941999999999
#
# number of rings (size 3 to 8) (size 9 to 14) (size 15 to 20)
#    0.000    0.800    3.000    3.600   11.200    0.000 
#    0.000    0.000    0.000    0.000    0.000    0.000 
#    0.000    0.000    0.000    0.000    0.000    0.000 
#
# Total GULP energy -496200.053698 kJ/mol
# GULP energy per Si atom -12405.001342 kJ/mol
# Density = 2.140312 g / cm^3
# Si number density = 21.451942 Si / 1000 Ang^3
#
#
#
# Elastic Constant Matrix: (Units=GPa)
#
#
# Indices 1 2 3 4 5 6 
#
# 1 134.3925 57.0283 50.9170 0.0000 0.0000 0.0000
# 2 57.0283 134.3899 50.9159 0.0000 0.0000 0.0000
# 3 50.9170 50.9159 138.0484 0.0000 0.0000 0.0000
# 4 0.0000 0.0000 0.0000 39.3259 0.0000 0.0000
# 5 0.0000 0.0000 0.0000 0.0000 39.3253 0.0000
# 6 0.0000 0.0000 0.0000 0.0000 0.0000 38.7922
#
#
#
# Elastic Compliance Matrix: (Units=1/GPa)
#
#
# Indices 1 2 3 4 5 6 
#
# 1 0.009713 -0.003213 -0.002397 0.000000 0.000000 0.000000
# 2 -0.003213 0.009713 -0.002397 0.000000 0.000000 0.000000
# 3 -0.002397 -0.002397 0.009012 0.000000 0.000000 0.000000
# 4 0.000000 0.000000 0.000000 0.025429 0.000000 0.000000
# 5 0.000000 0.000000 0.000000 0.000000 0.025429 0.000000
# 6 0.000000 0.000000 0.000000 0.000000 0.000000 0.025778
#
#
# Mechanical properties :
#
#
# Convention : Reuss Voigt Hill
#
# Bulk Modulus (GPa) = 80.50083 80.50591 80.50337
# Shear Modulus (GPa) = 39.92664 40.01997 39.97331
#
# Velocity S-wave (km/s) = 4.31886 4.32390 4.32138
# Velocity P-wave (km/s) = 7.90428 7.90811 7.90619
#
# Compressibility (1/GPa) = 0.01242223
#
# Stress axis : x y z
#
# Youngs Moduli (GPa) = 102.95825 102.95666 110.96145
#
# Poissons Ratio (x) = 0.33084 0.26600
# Poissons Ratio (y) = 0.33084 0.26599
# Poissons Ratio (z) = 0.24681 0.24680
#
# Static dielectric constant tensor:
#      x y z
#    x 4.023510 0.000000 0.000000 
#    y 0.000000 4.023520 0.000000 
#    z 0.000000 0.000000 3.610090 
# 
# 
# High freq. dielectric constant tensor:
#      x y z
#    x 1.852930 0.000000 0.000000 
#    y 0.000000 1.852930 0.000000 
#    z 0.000000 0.000000 1.839290 
# 
# From -- ./inp_files/1961.got.cif
#   From: 2010.03.12/outbox.cif.g09.slc.cpg/sg118_1_cif.got.tgz:1961.got - 2010.04.14 02:21:17.
