data_PCOD8310851
_publ_section_title
;
Structure prediction by ZEFSAII (Michael W. Deem and Ramdas Pophale) SiO2 
 PCOD8310851
Probable space group: I -4 M 2
;
_chemical_formula_sum "Si O2"
_cell_formula_units_Z 88
_cell_length_a 15.105670
_cell_length_b 15.105670
_cell_length_c 22.724988
_cell_angle_alpha 90.000000
_cell_angle_beta 90.000000
_cell_angle_gamma 90.000000
_cell_volume 5185.416535
_symmetry_space_group_name_H-M "I -4 M 2"
_symmetry_group_IT_number 119
_symmetry_cell_setting 'tetragonal'
loop_
_space_group_symop_operation_xyz
x,y,z
y,-x,-z
-x,-y,z
-y,x,-z
y,x,-z
-y,-x,-z
-x,y,z
x,-y,z
1/2+x,1/2+y,1/2+z
1/2+y,1/2-x,1/2-z
1/2-x,1/2-y,1/2+z
1/2-y,1/2+x,1/2-z
1/2+y,1/2+x,1/2-z
1/2-y,1/2-x,1/2-z
1/2-x,1/2+y,1/2+z
1/2+x,1/2-y,1/2+z
loop_
_atom_site_type_symbol
_atom_site_label
_atom_site_fract_x
_atom_site_fract_y
_atom_site_fract_z
Si Si1 0.682489 0.846926 0.348462
Si Si2 0.098290 0.257846 0.263418
Si Si3 0.103454 0.500000 0.925451
Si Si4 0.902007 0.000000 0.419201
Si Si5 0.634463 0.308474 0.887565
Si Si6 0.746355 0.500000 0.017474
Si Si7 0.213946 0.901631 0.233570
O O1 0.758533 0.800829 0.389011
O O2 0.729947 0.894302 0.293465
O O3 0.614894 0.774502 0.323626
O O4 0.626544 0.914363 0.387197
O O5 0.157541 0.342460 0.250000
O O6 0.094315 0.244391 0.333141
O O7 0.136270 0.170426 0.232096
O O8 0.000000 0.275620 0.239002
O O9 0.000000 0.500000 0.941522
O O10 0.158086 0.500000 0.986494
O O11 0.889464 0.087456 0.379683
O O12 0.830912 0.000000 0.470327
O O13 0.000000 0.000000 0.446788
O O14 0.590043 0.265740 0.945210
O O15 0.173816 0.000000 0.228826
#
# Coordination Sequence:
#
# PCOD8310851 Si02
#       7
#    16  16   8   8  16   8  16
#     4  10  19  35  53  76 112 148 186 223 275 342
#     4  11  22  39  58  81 112 148 192 237 281 332
#     4  12  24  36  52  80 114 156 196 230 268 334
#     4  12  22  30  54  90 116 148 180 214 288 368
#     4  11  21  35  52  79 112 144 183 233 282 336
#     4  12  24  34  54  78 120 146 190 228 290 334
#     4  10  19  34  57  83 111 147 177 231 292 338
#
# _framework density 16.970669999999998
#
# number of rings (size 3 to 8) (size 9 to 14) (size 15 to 20)
#    0.000    1.091    8.182    1.091    5.091    0.545 
#    0.000    0.909    0.000    0.000    0.000    0.000 
#    0.000    0.000    0.000    0.000    0.000    0.000 
#
# Total GULP energy -545507.529303 kJ/mol
# GULP energy per Si atom -12397.898393 kJ/mol
# Density = 1.693204 g / cm^3
# Si number density = 16.970670 Si / 1000 Ang^3
#
#
#
# Elastic Constant Matrix: (Units=GPa)
#
#
# Indices 1 2 3 4 5 6 
#
# 1 132.9931 53.0672 42.0327 0.0000 0.0000 0.0000
# 2 53.0672 132.9923 42.0323 0.0000 0.0000 0.0000
# 3 42.0327 42.0323 72.8702 0.0000 0.0000 0.0000
# 4 0.0000 0.0000 0.0000 21.9786 0.0000 0.0000
# 5 0.0000 0.0000 0.0000 0.0000 21.9790 0.0000
# 6 0.0000 0.0000 0.0000 0.0000 0.0000 11.6501
#
#
#
# Elastic Compliance Matrix: (Units=1/GPa)
#
#
# Indices 1 2 3 4 5 6 
#
# 1 0.009890 -0.002621 -0.004193 0.000000 0.000000 0.000000
# 2 -0.002621 0.009890 -0.004193 0.000000 0.000000 0.000000
# 3 -0.004193 -0.004193 0.018560 0.000000 0.000000 0.000000
# 4 0.000000 0.000000 0.000000 0.045499 0.000000 0.000000
# 5 0.000000 0.000000 0.000000 0.000000 0.045498 0.000000
# 6 0.000000 0.000000 0.000000 0.000000 0.000000 0.085836
#
#
# Mechanical properties :
#
#
# Convention : Reuss Voigt Hill
#
# Bulk Modulus (GPa) = 61.24972 68.12445 64.68709
# Shear Modulus (GPa) = 20.60749 24.56976 22.58862
#
# Velocity S-wave (km/s) = 3.48846 3.80910 3.65230
# Velocity P-wave (km/s) = 7.23849 7.71850 7.48234
#
# Compressibility (1/GPa) = 0.01632660
#
# Stress axis : x y z
#
# Youngs Moduli (GPa) = 101.10887 101.10868 53.87921
#
# Poissons Ratio (x) = 0.26504 0.22591
# Poissons Ratio (y) = 0.26504 0.22591
# Poissons Ratio (z) = 0.42394 0.42393
#
# Static dielectric constant tensor:
#      x y z
#    x 3.242210 0.000000 0.000000 
#    y 0.000000 3.242210 0.000000 
#    z 0.000000 0.000000 3.113530 
# 
# 
# High freq. dielectric constant tensor:
#      x y z
#    x 1.648530 0.000000 0.000000 
#    y 0.000000 1.648530 0.000000 
#    z 0.000000 0.000000 1.636180 
# 
# From -- ./inp_files/8728.got.cif
#   From: 2010.03.12/outbox.cif.g09.slc.cpg/sg119_5_cif.got.tgz:8728.got - 2010.04.14 02:25:26.
