data_PCOD8310238
_publ_section_title
;
Structure prediction by ZEFSAII (Michael W. Deem and Ramdas Pophale) SiO2 
 PCOD8310238
Probable space group: P -4 C 2
;
_chemical_formula_sum "Si O2"
_cell_formula_units_Z 24
_cell_length_a 9.196439
_cell_length_b 9.196439
_cell_length_c 13.305687
_cell_angle_alpha 90.000000
_cell_angle_beta 90.000000
_cell_angle_gamma 90.000000
_cell_volume 1125.321696
_symmetry_space_group_name_H-M "P -4 C 2"
_symmetry_group_IT_number 116
_symmetry_cell_setting 'tetragonal'
loop_
_space_group_symop_operation_xyz
x,y,z
y,-x,-z
-x,-y,z
-y,x,-z
y,x,1/2-z
-y,-x,1/2-z
-x,y,1/2+z
x,-y,1/2+z
loop_
_atom_site_type_symbol
_atom_site_label
_atom_site_fract_x
_atom_site_fract_y
_atom_site_fract_z
Si Si1 0.722913 0.600760 0.496416
Si Si2 0.113934 0.683380 0.794514
Si Si3 0.604913 0.185361 0.290334
O O1 0.689592 0.428117 0.496075
O O2 0.827533 0.650472 0.405828
O O3 0.824818 0.640735 0.591707
O O4 0.160801 0.839200 0.750000
O O5 0.187652 0.567899 0.719502
O O6 0.940126 0.673614 0.781231
O O7 0.660981 0.339020 0.250000
#
# Coordination Sequence:
#
# PCOD8310238 Si02
#       3
#     8   8   8
#     4  11  22  39  71 100 130 175 224 277 335 388
#     4  11  24  41  65  98 134 173 220 273 328 393
#     4  11  24  41  65  98 134 173 220 273 328 393
#
# _framework density 21.327234000000001
#
# number of rings (size 3 to 8) (size 9 to 14) (size 15 to 20)
#    0.000    1.000    6.667    0.000    0.000    9.333 
#    0.000    0.000    0.000    4.000    0.000    0.000 
#    0.000    0.000    0.000    0.000    0.000    0.000 
#
# Total GULP energy -297379.184456 kJ/mol
# GULP energy per Si atom -12390.799352 kJ/mol
# Density = 2.127869 g / cm^3
# Si number density = 21.327234 Si / 1000 Ang^3
#
#
#
# Elastic Constant Matrix: (Units=GPa)
#
#
# Indices 1 2 3 4 5 6 
#
# 1 47.7550 8.4691 15.2513 0.0000 0.0000 0.0000
# 2 8.4691 47.7497 15.2499 0.0000 0.0000 0.0000
# 3 15.2513 15.2499 166.6057 0.0000 0.0000 0.0000
# 4 0.0000 0.0000 0.0000 29.8409 0.0000 0.0000
# 5 0.0000 0.0000 0.0000 0.0000 29.8414 0.0000
# 6 0.0000 0.0000 0.0000 0.0000 0.0000 29.7878
#
#
#
# Elastic Compliance Matrix: (Units=1/GPa)
#
#
# Indices 1 2 3 4 5 6 
#
# 1 0.022085 -0.003370 -0.001713 0.000000 0.000000 0.000000
# 2 -0.003370 0.022087 -0.001713 0.000000 0.000000 0.000000
# 3 -0.001713 -0.001713 0.006316 0.000000 0.000000 0.000000
# 4 0.000000 0.000000 0.000000 0.033511 0.000000 0.000000
# 5 0.000000 0.000000 0.000000 0.000000 0.033510 0.000000
# 6 0.000000 0.000000 0.000000 0.000000 0.000000 0.033571
#
#
# Mechanical properties :
#
#
# Convention : Reuss Voigt Hill
#
# Bulk Modulus (GPa) = 27.10359 37.78342 32.44351
# Shear Modulus (GPa) = 28.25307 32.77003 30.51155
#
# Velocity S-wave (km/s) = 3.64365 3.92412 3.78648
# Velocity P-wave (km/s) = 5.51703 6.18758 5.86190
#
# Compressibility (1/GPa) = 0.03689548
#
# Stress axis : x y z
#
# Youngs Moduli (GPa) = 45.27956 45.27464 158.33198
#
# Poissons Ratio (x) = 0.15257 0.27126
# Poissons Ratio (y) = 0.15259 0.27126
# Poissons Ratio (z) = 0.07757 0.07757
#
# Static dielectric constant tensor:
#      x y z
#    x 3.714580 0.000000 0.000000 
#    y 0.000000 3.714590 0.000000 
#    z 0.000000 0.000000 4.028080 
# 
# 
# High freq. dielectric constant tensor:
#      x y z
#    x 1.823570 0.000000 0.000000 
#    y 0.000000 1.823570 0.000000 
#    z 0.000000 0.000000 1.852450 
# 
# From -- ./inp_files/1393.got.cif
#   From: 2010.03.12/outbox.cif.g09.slc.cpg/sg116_1_cif.got.tgz:1393.got - 2010.04.14 02:15:44.
