data_PCOD8310971
_publ_section_title
;
Structure prediction by ZEFSAII (Michael W. Deem and Ramdas Pophale) SiO2 
 PCOD8310971
Probable space group: I -4 M 2
;
_chemical_formula_sum "Si O2"
_cell_formula_units_Z 42
_cell_length_a 7.920598
_cell_length_b 7.920598
_cell_length_c 31.314228
_cell_angle_alpha 90.000000
_cell_angle_beta 90.000000
_cell_angle_gamma 90.000000
_cell_volume 1964.525421
_symmetry_space_group_name_H-M "I -4 M 2"
_symmetry_group_IT_number 119
_symmetry_cell_setting 'tetragonal'
loop_
_space_group_symop_operation_xyz
x,y,z
y,-x,-z
-x,-y,z
-y,x,-z
y,x,-z
-y,-x,-z
-x,y,z
x,-y,z
1/2+x,1/2+y,1/2+z
1/2+y,1/2-x,1/2-z
1/2-x,1/2-y,1/2+z
1/2-y,1/2+x,1/2-z
1/2+y,1/2+x,1/2-z
1/2-y,1/2-x,1/2-z
1/2-x,1/2+y,1/2+z
1/2+x,1/2-y,1/2+z
loop_
_atom_site_type_symbol
_atom_site_label
_atom_site_fract_x
_atom_site_fract_y
_atom_site_fract_z
Si Si1 0.694474 0.691596 0.632551
Si Si2 0.810397 0.312230 0.457364
Si Si3 0.688092 0.500000 0.813106
Si Si4 0.500000 0.000000 0.250000
O O1 0.500000 0.758130 0.638354
O O2 0.707993 0.500000 0.648563
O O3 0.747600 0.697147 0.582517
O O4 0.829007 0.799090 0.659099
O O5 0.798557 0.201444 0.500000
O O6 0.757111 0.500000 0.471213
O O7 0.000000 0.303687 0.439966
O O8 0.500000 0.500000 0.792670
O O9 0.828974 0.500000 0.776951
#
# Coordination Sequence:
#
# PCOD8310971 Si02
#       4
#    16  16   8   2
#     4  10  21  41  69  98 134 180 229 281 344 410
#     4  10  21  35  53  84 126 174 228 282 332 394
#     4  12  26  46  76 104 138 180 222 286 348 422
#     4  12  28  52  68 112 140 172 236 284 352 428
#
# _framework density 21.379208999999999
#
# number of rings (size 3 to 8) (size 9 to 14) (size 15 to 20)
#    0.000    1.524    1.905    2.286    2.667    6.095 
#    0.000    0.000    0.000    0.000    0.000    0.000 
#    0.000    0.000    0.000    0.000    0.000    0.000 
#
# Total GULP energy -260322.786020 kJ/mol
# GULP energy per Si atom -12396.323144 kJ/mol
# Density = 2.133055 g / cm^3
# Si number density = 21.379209 Si / 1000 Ang^3
#
#
#
# Elastic Constant Matrix: (Units=GPa)
#
#
# Indices 1 2 3 4 5 6 
#
# 1 116.5053 39.3919 50.0286 0.0000 0.0000 0.0000
# 2 39.3919 116.5058 50.0290 0.0000 0.0000 0.0000
# 3 50.0286 50.0290 105.4313 0.0000 0.0000 0.0000
# 4 0.0000 0.0000 0.0000 19.2001 0.0000 0.0000
# 5 0.0000 0.0000 0.0000 0.0000 19.2002 0.0000
# 6 0.0000 0.0000 0.0000 0.0000 0.0000 22.7828
#
#
#
# Elastic Compliance Matrix: (Units=1/GPa)
#
#
# Indices 1 2 3 4 5 6 
#
# 1 0.011096 -0.001872 -0.004377 0.000000 0.000000 0.000000
# 2 -0.001872 0.011096 -0.004377 0.000000 0.000000 0.000000
# 3 -0.004377 -0.004377 0.013638 0.000000 0.000000 0.000000
# 4 0.000000 0.000000 0.000000 0.052083 0.000000 0.000000
# 5 0.000000 0.000000 0.000000 0.000000 0.052083 0.000000
# 6 0.000000 0.000000 0.000000 0.000000 0.000000 0.043893
#
#
# Mechanical properties :
#
#
# Convention : Reuss Voigt Hill
#
# Bulk Modulus (GPa) = 68.59323 68.59349 68.59336
# Shear Modulus (GPa) = 23.80962 25.50282 24.65622
#
# Velocity S-wave (km/s) = 3.34081 3.45756 3.39968
# Velocity P-wave (km/s) = 6.85821 6.93494 6.89668
#
# Compressibility (1/GPa) = 0.01457870
#
# Stress axis : x y z
#
# Youngs Moduli (GPa) = 90.12502 90.12513 73.32197
#
# Poissons Ratio (x) = 0.16873 0.32091
# Poissons Ratio (y) = 0.16873 0.32091
# Poissons Ratio (z) = 0.39445 0.39445
#
# Static dielectric constant tensor:
#      x y z
#    x 3.901580 0.000000 0.000000 
#    y 0.000000 3.901580 0.000000 
#    z 0.000000 0.000000 3.592580 
# 
# 
# High freq. dielectric constant tensor:
#      x y z
#    x 1.841800 0.000000 0.000000 
#    y 0.000000 1.841800 0.000000 
#    z 0.000000 0.000000 1.818330 
# 
# From -- ./inp_files/9129.got.cif
#   From: 2010.03.12/outbox.cif.g09.slc.cpg/sg119_5_cif.got.tgz:9129.got - 2010.04.14 02:25:26.
