data_PCOD8310481
_publ_section_title
;
Structure prediction by ZEFSAII (Michael W. Deem and Ramdas Pophale) SiO2 
 PCOD8310481
Probable space group: P -4 N 2
;
_chemical_formula_sum "Si O2"
_cell_formula_units_Z 54
_cell_length_a 11.983626
_cell_length_b 11.983626
_cell_length_c 18.014110
_cell_angle_alpha 90.000000
_cell_angle_beta 90.000000
_cell_angle_gamma 90.000000
_cell_volume 2586.957557
_symmetry_space_group_name_H-M "P -4 N 2"
_symmetry_group_IT_number 118
_symmetry_cell_setting 'tetragonal'
loop_
_space_group_symop_operation_xyz
x,y,z
y,-x,-z
-x,-y,z
-y,x,-z
1/2+y,1/2+x,1/2-z
1/2-y,1/2-x,1/2-z
1/2-x,1/2+y,1/2+z
1/2+x,1/2-y,1/2+z
loop_
_atom_site_type_symbol
_atom_site_label
_atom_site_fract_x
_atom_site_fract_y
_atom_site_fract_z
Si Si1 0.426675 0.892973 0.994403
Si Si2 0.058694 0.891749 0.729882
Si Si3 0.000000 0.000000 0.126592
Si Si4 0.500000 0.500000 0.000000
Si Si5 0.399126 0.209121 0.890974
Si Si6 0.449580 0.692653 0.098144
Si Si7 0.259126 0.522426 0.416000
Si Si8 0.526412 0.206284 0.751737
O O1 0.483391 0.824002 0.928268
O O2 0.500000 0.000000 0.015188
O O3 0.302097 0.929354 0.967066
O O4 0.423510 0.815743 0.067160
O O5 0.023489 0.892482 0.818312
O O6 0.191629 0.897150 0.717698
O O7 0.007562 0.790783 0.680018
O O8 0.000000 0.000000 0.692643
O O9 0.978453 0.106538 0.072416
O O10 0.527386 0.613909 0.046523
O O11 0.377519 0.337627 0.898113
O O12 0.297758 0.142432 0.930873
O O13 0.418058 0.183683 0.803423
O O14 0.240558 0.508104 0.329466
O O15 0.592851 0.092851 0.750000
#
# Coordination Sequence:
#
# PCOD8310481 Si02
#       8
#     8   8   4   2   8   8   8   8
#     4  10  23  37  53  83 122 156 197 245 298 361
#     4   9  18  32  54  85 113 142 186 241 302 350
#     4   8  17  38  58  82 116 148 197 258 292 366
#     4  12  18  28  56  84 100 152 178 248 296 322
#     4  11  20  32  54  88 111 153 192 250 305 343
#     4  12  20  35  56  82 121 147 202 243 292 366
#     4  10  20  35  55  81 117 149 199 239 303 362
#     4  11  19  31  56  87 119 145 180 248 313 356
#
# _framework density 20.873942
#
# number of rings (size 3 to 8) (size 9 to 14) (size 15 to 20)
#    0.444    1.185    5.185    0.444    0.000    0.593 
#    0.000    2.963    3.259    0.000    0.000    0.000 
#    0.000    0.000    0.000    0.000    0.000    0.000 
#
# Total GULP energy -669010.473651 kJ/mol
# GULP energy per Si atom -12389.082845 kJ/mol
# Density = 2.082643 g / cm^3
# Si number density = 20.873942 Si / 1000 Ang^3
#
#
#
# Elastic Constant Matrix: (Units=GPa)
#
#
# Indices 1 2 3 4 5 6 
#
# 1 60.3820 45.4467 16.5301 0.0000 0.0000 0.0000
# 2 45.4467 60.3820 16.5301 0.0000 0.0000 0.0000
# 3 16.5301 16.5301 41.2942 0.0000 0.0000 0.0000
# 4 0.0000 0.0000 0.0000 26.8437 0.0000 0.0000
# 5 0.0000 0.0000 0.0000 0.0000 26.8437 0.0000
# 6 0.0000 0.0000 0.0000 0.0000 0.0000 13.8314
#
#
#
# Elastic Compliance Matrix: (Units=1/GPa)
#
#
# Indices 1 2 3 4 5 6 
#
# 1 0.038878 -0.028078 -0.004323 0.000000 0.000000 0.000000
# 2 -0.028078 0.038878 -0.004323 0.000000 0.000000 0.000000
# 3 -0.004323 -0.004323 0.027678 0.000000 0.000000 0.000000
# 4 0.000000 0.000000 0.000000 0.037253 0.000000 0.000000
# 5 0.000000 0.000000 0.000000 0.000000 0.037253 0.000000
# 6 0.000000 0.000000 0.000000 0.000000 0.000000 0.072299
#
#
# Mechanical properties :
#
#
# Convention : Reuss Voigt Hill
#
# Bulk Modulus (GPa) = 31.26512 35.45243 33.35878
# Shear Modulus (GPa) = 14.86556 19.07385 16.96971
#
# Velocity S-wave (km/s) = 2.67153 3.02613 2.85434
# Velocity P-wave (km/s) = 4.95244 5.40656 5.18447
#
# Compressibility (1/GPa) = 0.03198452
#
# Stress axis : x y z
#
# Youngs Moduli (GPa) = 25.72167 25.72167 36.13033
#
# Poissons Ratio (x) = 0.72221 0.15620
# Poissons Ratio (y) = 0.72221 0.15620
# Poissons Ratio (z) = 0.11120 0.11120
#
# Static dielectric constant tensor:
#      x y z
#    x 3.748060 0.000000 0.000000 
#    y 0.000000 3.748060 0.000000 
#    z 0.000000 0.000000 3.797730 
# 
# 
# High freq. dielectric constant tensor:
#      x y z
#    x 1.799650 0.000000 0.000000 
#    y 0.000000 1.799650 0.000000 
#    z 0.000000 0.000000 1.805630 
# 
# From -- ./inp_files/5744.got.cif
#   From: 2010.03.12/outbox.cif.g09.slc.cpg/sg118_3_cif.got.tgz:5744.got - 2010.04.14 02:21:17.
