data_PCOD8310488
_publ_section_title
;
Structure prediction by ZEFSAII (Michael W. Deem and Ramdas Pophale) SiO2 
 PCOD8310488
Probable space group: P -4 N 2
;
_chemical_formula_sum "Si O2"
_cell_formula_units_Z 36
_cell_length_a 14.649102
_cell_length_b 14.649102
_cell_length_c 8.573195
_cell_angle_alpha 90.000000
_cell_angle_beta 90.000000
_cell_angle_gamma 90.000000
_cell_volume 1839.774978
_symmetry_space_group_name_H-M "P -4 N 2"
_symmetry_group_IT_number 118
_symmetry_cell_setting 'tetragonal'
loop_
_space_group_symop_operation_xyz
x,y,z
y,-x,-z
-x,-y,z
-y,x,-z
1/2+y,1/2+x,1/2-z
1/2-y,1/2-x,1/2-z
1/2-x,1/2+y,1/2+z
1/2+x,1/2-y,1/2+z
loop_
_atom_site_type_symbol
_atom_site_label
_atom_site_fract_x
_atom_site_fract_y
_atom_site_fract_z
Si Si1 0.547778 0.739534 0.967554
Si Si2 0.372336 0.672185 0.826043
Si Si3 0.763737 0.663089 0.476556
Si Si4 0.717337 0.782664 0.750000
Si Si5 0.057812 0.417484 0.568436
O O1 0.478545 0.675587 0.871599
O O2 0.626398 0.777692 0.853696
O O3 0.581226 0.676910 0.112001
O O4 0.495728 0.824246 0.041672
O O5 0.367814 0.682044 0.638098
O O6 0.317538 0.753068 0.905054
O O7 0.719690 0.692481 0.641054
O O8 0.839878 0.583461 0.496138
O O9 0.066358 0.433643 0.750000
O O10 0.000000 0.500000 0.490951
#
# Coordination Sequence:
#
# PCOD8310488 Si02
#       5
#     8   8   8   4   8
#     4  10  22  39  60  91 117 169 203 261 308 377
#     4   9  20  38  60  82 120 160 207 244 314 372
#     4   9  18  37  57  84 121 162 192 251 313 376
#     4  10  20  36  60  88 126 158 212 246 306 380
#     4  10  21  35  59  92 125 153 201 261 315 375
#
# _framework density 19.567609000000001
#
# number of rings (size 3 to 8) (size 9 to 14) (size 15 to 20)
#    0.000    2.444    1.111    0.000    3.111    7.556 
#    0.000    0.000    0.000    0.000    0.000    0.000 
#    0.000    0.000    0.000    0.000    0.000    0.000 
#
# Total GULP energy -446210.805667 kJ/mol
# GULP energy per Si atom -12394.744602 kJ/mol
# Density = 1.952307 g / cm^3
# Si number density = 19.567609 Si / 1000 Ang^3
#
#
#
# Elastic Constant Matrix: (Units=GPa)
#
#
# Indices 1 2 3 4 5 6 
#
# 1 87.6403 47.3404 46.7526 0.0000 0.0000 0.0000
# 2 47.3404 87.6395 46.7527 0.0000 0.0000 0.0000
# 3 46.7526 46.7527 126.3445 0.0000 0.0000 0.0000
# 4 0.0000 0.0000 0.0000 29.7579 0.0000 0.0000
# 5 0.0000 0.0000 0.0000 0.0000 29.7577 0.0000
# 6 0.0000 0.0000 0.0000 0.0000 0.0000 35.0240
#
#
#
# Elastic Compliance Matrix: (Units=1/GPa)
#
#
# Indices 1 2 3 4 5 6 
#
# 1 0.017388 -0.007426 -0.003686 0.000000 0.000000 0.000000
# 2 -0.007426 0.017388 -0.003686 0.000000 0.000000 0.000000
# 3 -0.003686 -0.003686 0.010643 0.000000 0.000000 0.000000
# 4 0.000000 0.000000 0.000000 0.033605 0.000000 0.000000
# 5 0.000000 0.000000 0.000000 0.000000 0.033605 0.000000
# 6 0.000000 0.000000 0.000000 0.000000 0.000000 0.028552
#
#
# Mechanical properties :
#
#
# Convention : Reuss Voigt Hill
#
# Bulk Modulus (GPa) = 63.20383 64.81285 64.00834
# Shear Modulus (GPa) = 28.40066 29.62649 29.01358
#
# Velocity S-wave (km/s) = 3.81387 3.89531 3.85481
# Velocity P-wave (km/s) = 7.19476 7.30929 7.25225
#
# Compressibility (1/GPa) = 0.01582183
#
# Stress axis : x y z
#
# Youngs Moduli (GPa) = 57.51066 57.50993 93.95740
#
# Poissons Ratio (x) = 0.42707 0.34636
# Poissons Ratio (y) = 0.42707 0.34637
# Poissons Ratio (z) = 0.21201 0.21201
#
# Static dielectric constant tensor:
#      x y z
#    x 3.722480 0.000000 0.000000 
#    y 0.000000 3.722460 0.000000 
#    z 0.000000 0.000000 3.895420 
# 
# 
# High freq. dielectric constant tensor:
#      x y z
#    x 1.750920 0.000000 0.000000 
#    y 0.000000 1.750920 0.000000 
#    z 0.000000 0.000000 1.766330 
# 
# From -- ./inp_files/1749.got.cif
#   From: 2010.03.12/outbox.cif.g09.slc.cpg/sg118_1_cif.got.tgz:1749.got - 2010.04.14 02:21:17.
