data_PCOD8310281
_publ_section_title
;
Structure prediction by ZEFSAII (Michael W. Deem and Ramdas Pophale) SiO2 
 PCOD8310281
Probable space group: P -4 B 2
;
_chemical_formula_sum "Si O2"
_cell_formula_units_Z 42
_cell_length_a 13.314763
_cell_length_b 13.314763
_cell_length_c 14.858274
_cell_angle_alpha 90.000000
_cell_angle_beta 90.000000
_cell_angle_gamma 90.000000
_cell_volume 2634.118108
_symmetry_space_group_name_H-M "P -4 B 2"
_symmetry_group_IT_number 117
_symmetry_cell_setting 'tetragonal'
loop_
_space_group_symop_operation_xyz
x,y,z
y,-x,-z
-x,-y,z
-y,x,-z
1/2+y,1/2+x,-z
1/2-y,1/2-x,-z
1/2-x,1/2+y,z
1/2+x,1/2-y,z
loop_
_atom_site_type_symbol
_atom_site_label
_atom_site_fract_x
_atom_site_fract_y
_atom_site_fract_z
Si Si1 0.718769 0.374329 0.291100
Si Si2 0.746085 0.077648 0.386293
Si Si3 0.918685 0.739292 0.405927
Si Si4 0.000000 0.000000 0.000000
Si Si5 0.774856 0.894968 0.706832
Si Si6 0.604400 0.535270 0.827304
O O1 0.765799 0.477395 0.327583
O O2 0.646907 0.331989 0.369346
O O3 0.812259 0.305358 0.263167
O O4 0.650858 0.379805 0.201267
O O5 0.764923 0.058218 0.491055
O O6 0.642048 0.138513 0.382385
O O7 0.840815 0.134959 0.344857
O O8 0.026473 0.724728 0.360911
O O9 0.905110 0.029568 0.936343
O O10 0.810368 0.957744 0.794362
O O11 0.500000 0.500000 0.781441
#
# Coordination Sequence:
#
# PCOD8310281 Si02
#       6
#     8   8   8   2   8   8
#     4  10  19  31  49  68  96 129 160 197 237 280
#     4  10  17  31  44  65  97 131 168 206 237 266
#     4   9  20  28  44  68  94 131 171 203 236 273
#     4   8  16  32  60  76  94 112 152 192 236 284
#     4  10  19  32  46  71  97 124 164 197 233 288
#     4   9  17  34  55  72  91 123 148 193 240 282
#
# _framework density 15.944615000000001
#
# number of rings (size 3 to 8) (size 9 to 14) (size 15 to 20)
#    0.571    1.905    1.905    1.143    0.000    3.048 
#    0.000    4.762    0.000    0.000    0.000    0.000 
#    0.000    9.143    0.000    0.000    0.000    0.000 
#
# Total GULP energy -520483.375034 kJ/mol
# GULP energy per Si atom -12392.461310 kJ/mol
# Density = 1.590832 g / cm^3
# Si number density = 15.944615 Si / 1000 Ang^3
#
#
#
# Elastic Constant Matrix: (Units=GPa)
#
#
# Indices 1 2 3 4 5 6 
#
# 1 90.2910 41.1803 46.9151 0.0000 0.0000 0.0000
# 2 41.1803 90.2910 46.9151 0.0000 0.0000 0.0000
# 3 46.9151 46.9151 117.0221 0.0000 0.0000 0.0000
# 4 0.0000 0.0000 0.0000 19.1818 0.0000 0.0000
# 5 0.0000 0.0000 0.0000 0.0000 19.1818 0.0000
# 6 0.0000 0.0000 0.0000 0.0000 0.0000 22.0073
#
#
#
# Elastic Compliance Matrix: (Units=1/GPa)
#
#
# Indices 1 2 3 4 5 6 
#
# 1 0.015509 -0.004854 -0.004272 0.000000 0.000000 0.000000
# 2 -0.004854 0.015509 -0.004272 0.000000 0.000000 0.000000
# 3 -0.004272 -0.004272 0.011970 0.000000 0.000000 0.000000
# 4 0.000000 0.000000 0.000000 0.052133 0.000000 0.000000
# 5 0.000000 0.000000 0.000000 0.000000 0.052133 0.000000
# 6 0.000000 0.000000 0.000000 0.000000 0.000000 0.045439
#
#
# Mechanical properties :
#
#
# Convention : Reuss Voigt Hill
#
# Bulk Modulus (GPa) = 61.75251 63.06948 62.41100
# Shear Modulus (GPa) = 22.23367 22.91375 22.57371
#
# Velocity S-wave (km/s) = 3.73826 3.79500 3.76674
# Velocity P-wave (km/s) = 7.57933 7.67098 7.62529
#
# Compressibility (1/GPa) = 0.01619367
#
# Stress axis : x y z
#
# Youngs Moduli (GPa) = 64.48072 64.48072 83.53908
#
# Poissons Ratio (x) = 0.31297 0.35685
# Poissons Ratio (y) = 0.31297 0.35685
# Poissons Ratio (z) = 0.27544 0.27544
#
# Static dielectric constant tensor:
#      x y z
#    x 3.012390 0.000000 0.000000 
#    y 0.000000 3.012390 0.000000 
#    z 0.000000 0.000000 2.786010 
# 
# 
# High freq. dielectric constant tensor:
#      x y z
#    x 1.613290 0.000000 0.000000 
#    y 0.000000 1.613290 0.000000 
#    z 0.000000 0.000000 1.587620 
# 
# From -- ./inp_files/3321.got.cif
#   From: 2010.03.12/outbox.cif.g09.slc.cpg/sg117_2_cif.got.tgz:3321.got - 2010.04.14 02:19:01.
