data_PCOD8310878
_publ_section_title
;
Structure prediction by ZEFSAII (Michael W. Deem and Ramdas Pophale) SiO2 
 PCOD8310878
Probable space group: I -4 M 2
;
_chemical_formula_sum "Si O2"
_cell_formula_units_Z 80
_cell_length_a 27.081172
_cell_length_b 27.081172
_cell_length_c 6.233666
_cell_angle_alpha 90.000000
_cell_angle_beta 90.000000
_cell_angle_gamma 90.000000
_cell_volume 4571.707540
_symmetry_space_group_name_H-M "I -4 M 2"
_symmetry_group_IT_number 119
_symmetry_cell_setting 'tetragonal'
loop_
_space_group_symop_operation_xyz
x,y,z
y,-x,-z
-x,-y,z
-y,x,-z
y,x,-z
-y,-x,-z
-x,y,z
x,-y,z
1/2+x,1/2+y,1/2+z
1/2+y,1/2-x,1/2-z
1/2-x,1/2-y,1/2+z
1/2-y,1/2+x,1/2-z
1/2+y,1/2+x,1/2-z
1/2-y,1/2-x,1/2-z
1/2-x,1/2+y,1/2+z
1/2+x,1/2-y,1/2+z
loop_
_atom_site_type_symbol
_atom_site_label
_atom_site_fract_x
_atom_site_fract_y
_atom_site_fract_z
Si Si1 0.646976 0.723580 0.010115
Si Si2 0.554617 0.945384 0.250000
Si Si3 0.444692 0.155076 0.075497
Si Si4 0.556618 0.759175 0.772645
Si Si5 0.617977 0.214827 0.396329
Si Si6 0.692771 0.807230 0.750000
O O1 0.647646 0.745465 0.251345
O O2 0.667602 0.667602 0.000000
O O3 0.590541 0.724378 0.923733
O O4 0.684063 0.753409 0.851352
O O5 0.500000 0.939638 0.355010
O O6 0.561656 0.904476 0.060885
O O7 0.500000 0.168054 0.154869
O O8 0.406544 0.173544 0.251593
O O9 0.435785 0.183681 0.851105
O O10 0.500000 0.741344 0.787806
O O11 0.575748 0.756046 0.529430
O O12 0.654095 0.185166 0.556279
#
# Coordination Sequence:
#
# PCOD8310878 Si02
#       6
#    16   8  16  16  16   8
#     4  10  22  35  52  76 107 141 173 212 255 317
#     4   9  18  30  45  64  89 126 170 224 284 329
#     4   9  18  31  50  67  90 124 169 221 272 322
#     4   9  19  35  53  77 101 133 176 218 260 308
#     4  10  20  32  50  72  96 132 170 216 259 311
#     4  10  22  30  47  72 101 139 170 214 252 316
#
# _framework density 17.498932
#
# number of rings (size 3 to 8) (size 9 to 14) (size 15 to 20)
#    0.000    2.500    0.000    1.200   11.200    3.200 
#    0.000    0.000    0.000    1.200    0.000    5.600 
#    0.000    0.400    0.000    0.400    0.000    0.000 
#
# Total GULP energy -495649.247538 kJ/mol
# GULP energy per Si atom -12391.231188 kJ/mol
# Density = 1.745910 g / cm^3
# Si number density = 17.498932 Si / 1000 Ang^3
#
#
#
# Elastic Constant Matrix: (Units=GPa)
#
#
# Indices 1 2 3 4 5 6 
#
# 1 85.4366 51.5538 31.6317 0.0000 0.0000 0.0000
# 2 51.5538 85.4369 31.6316 0.0000 0.0000 0.0000
# 3 31.6317 31.6316 86.4520 0.0000 0.0000 0.0000
# 4 0.0000 0.0000 0.0000 13.5251 0.0000 0.0000
# 5 0.0000 0.0000 0.0000 0.0000 13.5255 0.0000
# 6 0.0000 0.0000 0.0000 0.0000 0.0000 25.3587
#
#
#
# Elastic Compliance Matrix: (Units=1/GPa)
#
#
# Indices 1 2 3 4 5 6 
#
# 1 0.019149 -0.010365 -0.003214 0.000000 0.000000 0.000000
# 2 -0.010365 0.019149 -0.003214 0.000000 0.000000 0.000000
# 3 -0.003214 -0.003214 0.013919 0.000000 0.000000 0.000000
# 4 0.000000 0.000000 0.000000 0.073937 0.000000 0.000000
# 5 0.000000 0.000000 0.000000 0.000000 0.073934 0.000000
# 6 0.000000 0.000000 0.000000 0.000000 0.000000 0.039434
#
#
# Mechanical properties :
#
#
# Convention : Reuss Voigt Hill
#
# Bulk Modulus (GPa) = 53.67342 54.10663 53.89002
# Shear Modulus (GPa) = 17.90080 19.98242 18.94161
#
# Velocity S-wave (km/s) = 3.20185 3.38290 3.29362
# Velocity P-wave (km/s) = 6.66394 6.80042 6.73253
#
# Compressibility (1/GPa) = 0.01863120
#
# Stress axis : x y z
#
# Youngs Moduli (GPa) = 52.22272 52.22299 71.84423
#
# Poissons Ratio (x) = 0.54128 0.23091
# Poissons Ratio (y) = 0.54127 0.23090
# Poissons Ratio (z) = 0.16784 0.16784
#
# Static dielectric constant tensor:
#      x y z
#    x 3.148570 0.000000 0.000000 
#    y 0.000000 3.148560 0.000000 
#    z 0.000000 0.000000 3.368020 
# 
# 
# High freq. dielectric constant tensor:
#      x y z
#    x 1.652350 0.000000 0.000000 
#    y 0.000000 1.652350 0.000000 
#    z 0.000000 0.000000 1.673190 
# 
# From -- ./inp_files/1046.got.cif
#   From: 2010.03.12/outbox.cif.g09.slc.cpg/sg119_1_cif.got.tgz:1046.got - 2010.04.14 02:25:26.
