data_PCOD8310300
_publ_section_title
;
Structure prediction by ZEFSAII (Michael W. Deem and Ramdas Pophale) SiO2 
 PCOD8310300
Probable space group: P -4 B 2
;
_chemical_formula_sum "Si O2"
_cell_formula_units_Z 36
_cell_length_a 13.163513
_cell_length_b 13.163513
_cell_length_c 8.732914
_cell_angle_alpha 90.000000
_cell_angle_beta 90.000000
_cell_angle_gamma 90.000000
_cell_volume 1513.222523
_symmetry_space_group_name_H-M "P -4 B 2"
_symmetry_group_IT_number 117
_symmetry_cell_setting 'tetragonal'
loop_
_space_group_symop_operation_xyz
x,y,z
y,-x,-z
-x,-y,z
-y,x,-z
1/2+y,1/2+x,-z
1/2-y,1/2-x,-z
1/2-x,1/2+y,z
1/2+x,1/2-y,z
loop_
_atom_site_type_symbol
_atom_site_label
_atom_site_fract_x
_atom_site_fract_y
_atom_site_fract_z
Si Si1 0.307076 0.002694 0.749321
Si Si2 0.861218 0.638783 0.500000
Si Si3 0.144474 0.644474 0.000000
Si Si4 0.161795 0.138844 0.213836
Si Si5 0.830199 0.862421 0.560309
Si Si6 0.000000 0.000000 0.314578
O O1 0.377810 0.951647 0.620807
O O2 0.233341 0.913940 0.809085
O O3 0.255435 0.105087 0.680483
O O4 0.369950 0.047640 0.890134
O O5 0.871347 0.747795 0.589813
O O6 0.136799 0.753245 0.915959
O O7 0.210913 0.140546 0.384860
O O8 0.089625 0.039635 0.203557
O O9 0.912989 0.952019 0.575252
#
# Coordination Sequence:
#
# PCOD8310300 Si02
#       6
#     8   4   4   8   8   4
#     4  10  22  40  67  96 131 184 224 273 344 406
#     4  10  20  38  70 102 134 178 234 286 332 400
#     4  12  26  42  64 100 146 182 220 274 350 424
#     4  10  21  39  68 101 133 168 219 289 346 399
#     4  10  19  39  73 103 125 164 227 294 340 388
#     4  10  19  38  75 110 123 156 239 302 331 386
#
# _framework density 23.790288
#
# number of rings (size 3 to 8) (size 9 to 14) (size 15 to 20)
#    0.000    1.778    0.000    7.333    0.000    3.556 
#    0.000    5.556    0.000   41.333    0.000    0.000 
#    0.000    0.000    0.000    0.000    0.000    0.000 
#
# Total GULP energy -446081.197721 kJ/mol
# GULP energy per Si atom -12391.144381 kJ/mol
# Density = 2.373614 g / cm^3
# Si number density = 23.790288 Si / 1000 Ang^3
#
#
#
# Elastic Constant Matrix: (Units=GPa)
#
#
# Indices 1 2 3 4 5 6 
#
# 1 82.3000 27.9480 65.3811 0.0000 0.0000 0.0000
# 2 27.9480 82.3004 65.3808 0.0000 0.0000 0.0000
# 3 65.3811 65.3808 137.2732 0.0000 0.0000 0.0000
# 4 0.0000 0.0000 0.0000 37.9193 0.0000 0.0000
# 5 0.0000 0.0000 0.0000 0.0000 37.9193 0.0000
# 6 0.0000 0.0000 0.0000 0.0000 0.0000 35.2380
#
#
#
# Elastic Compliance Matrix: (Units=1/GPa)
#
#
# Indices 1 2 3 4 5 6 
#
# 1 0.019623 0.001224 -0.009929 0.000000 0.000000 0.000000
# 2 0.001224 0.019623 -0.009929 0.000000 0.000000 0.000000
# 3 -0.009929 -0.009929 0.016743 0.000000 0.000000 0.000000
# 4 0.000000 0.000000 0.000000 0.026372 0.000000 0.000000
# 5 0.000000 0.000000 0.000000 0.000000 0.026372 0.000000
# 6 0.000000 0.000000 0.000000 0.000000 0.000000 0.028378
#
#
# Mechanical properties :
#
#
# Convention : Reuss Voigt Hill
#
# Bulk Modulus (GPa) = 53.41728 68.81038 61.11383
# Shear Modulus (GPa) = 27.68267 31.75958 29.72113
#
# Velocity S-wave (km/s) = 3.41488 3.65770 3.53837
# Velocity P-wave (km/s) = 6.16852 6.84287 6.51443
#
# Compressibility (1/GPa) = 0.01872053
#
# Stress axis : x y z
#
# Youngs Moduli (GPa) = 50.96085 50.96159 59.72695
#
# Poissons Ratio (x) = -0.06239 0.59304
# Poissons Ratio (y) = -0.06239 0.59303
# Poissons Ratio (z) = 0.50600 0.50600
#
# Static dielectric constant tensor:
#      x y z
#    x 4.367870 0.000000 0.000000 
#    y 0.000000 4.367860 0.000000 
#    z 0.000000 0.000000 4.057330 
# 
# 
# High freq. dielectric constant tensor:
#      x y z
#    x 1.940960 0.000000 0.000000 
#    y 0.000000 1.940960 0.000000 
#    z 0.000000 0.000000 1.922140 
# 
# From -- ./inp_files/1635.got.cif
#   From: 2010.03.12/outbox.cif.g09.slc.cpg/sg117_1_cif.got.tgz:1635.got - 2010.04.14 02:19:01.
