data_PCOD8310670
_publ_section_title
;
Structure prediction by ZEFSAII (Michael W. Deem and Ramdas Pophale) SiO2 
 PCOD8310670
Probable space group: P -4 N 2
;
_chemical_formula_sum "Si O2"
_cell_formula_units_Z 48
_cell_length_a 7.735683
_cell_length_b 7.735683
_cell_length_c 38.302312
_cell_angle_alpha 90.000000
_cell_angle_beta 90.000000
_cell_angle_gamma 90.000000
_cell_volume 2292.040665
_symmetry_space_group_name_H-M "P -4 N 2"
_symmetry_group_IT_number 118
_symmetry_cell_setting 'tetragonal'
loop_
_space_group_symop_operation_xyz
x,y,z
y,-x,-z
-x,-y,z
-y,x,-z
1/2+y,1/2+x,1/2-z
1/2-y,1/2-x,1/2-z
1/2-x,1/2+y,1/2+z
1/2+x,1/2-y,1/2+z
loop_
_atom_site_type_symbol
_atom_site_label
_atom_site_fract_x
_atom_site_fract_y
_atom_site_fract_z
Si Si1 0.297873 0.500000 0.801907
Si Si2 0.000000 0.207999 0.620314
Si Si3 0.198784 0.801217 0.000000
Si Si4 0.803469 0.309106 0.425352
Si Si5 0.299358 0.799358 0.750000
Si Si6 0.700642 0.799358 0.750000
Si Si7 0.696531 0.190895 0.925352
O O1 0.500000 0.500000 0.806890
O O2 0.215065 0.500000 0.840442
O O3 0.243419 0.675451 0.781872
O O4 0.243419 0.324549 0.781872
O O5 0.829725 0.282925 0.600765
O O6 0.170276 0.282925 0.600765
O O7 0.000000 0.000000 0.618913
O O8 0.296913 0.738708 0.965181
O O9 0.261292 0.703088 0.034819
O O10 0.000000 0.761978 0.992710
O O11 0.712700 0.500000 0.422561
O O12 1.000000 0.330112 0.413970
O O13 0.500000 0.768923 0.739192
#
# Coordination Sequence:
#
# PCOD8310670 Si02
#       7
#     8   8   8   8   4   4   8
#     4   9  18  33  55  81 112 143 179 228 271 331
#     4   9  18  32  50  78 108 137 173 219 274 321
#     4   9  18  32  49  66  92 134 175 220 268 313
#     4   9  18  31  48  73 101 133 176 221 268 320
#     4   9  18  33  56  84 108 141 186 223 270 328
#     4   9  18  33  56  84 108 141 186 223 270 328
#     4   9  18  31  48  73 101 133 176 221 268 320
#
# _framework density 20.942036000000002
#
# number of rings (size 3 to 8) (size 9 to 14) (size 15 to 20)
#    0.000    3.000    0.000    0.000    2.333    1.667 
#    0.000    6.667    7.333    0.000    0.000    0.000 
#    0.000    0.000    0.000    0.000    0.000    0.000 
#
# Total GULP energy -594765.285206 kJ/mol
# GULP energy per Si atom -12390.943442 kJ/mol
# Density = 2.089437 g / cm^3
# Si number density = 20.942036 Si / 1000 Ang^3
#
#
#
# Elastic Constant Matrix: (Units=GPa)
#
#
# Indices 1 2 3 4 5 6 
#
# 1 78.7412 27.3649 62.4518 0.0000 0.0000 0.0000
# 2 27.3649 78.7417 62.4517 0.0000 0.0000 0.0000
# 3 62.4518 62.4517 190.3371 0.0000 0.0000 0.0000
# 4 0.0000 0.0000 0.0000 6.5843 0.0000 0.0000
# 5 0.0000 0.0000 0.0000 0.0000 6.5844 0.0000
# 6 0.0000 0.0000 0.0000 0.0000 0.0000 9.7795
#
#
#
# Elastic Compliance Matrix: (Units=1/GPa)
#
#
# Indices 1 2 3 4 5 6 
#
# 1 0.017410 -0.002054 -0.005038 0.000000 0.000000 0.000000
# 2 -0.002054 0.017410 -0.005038 0.000000 0.000000 0.000000
# 3 -0.005038 -0.005038 0.008560 0.000000 0.000000 0.000000
# 4 0.000000 0.000000 0.000000 0.151876 0.000000 0.000000
# 5 0.000000 0.000000 0.000000 0.000000 0.151873 0.000000
# 6 0.000000 0.000000 0.000000 0.000000 0.000000 0.102255
#
#
# Mechanical properties :
#
#
# Convention : Reuss Voigt Hill
#
# Bulk Modulus (GPa) = 52.30768 72.48409 62.39588
# Shear Modulus (GPa) = 10.41627 17.62642 14.02135
#
# Velocity S-wave (km/s) = 2.23263 2.90431 2.59034
# Velocity P-wave (km/s) = 5.62830 6.77743 6.22942
#
# Compressibility (1/GPa) = 0.01911765
#
# Stress axis : x y z
#
# Youngs Moduli (GPa) = 57.43894 57.43948 116.82180
#
# Poissons Ratio (x) = 0.11800 0.58858
# Poissons Ratio (y) = 0.11800 0.58857
# Poissons Ratio (z) = 0.28939 0.28939
#
# Static dielectric constant tensor:
#      x y z
#    x 3.724460 0.000000 0.000000 
#    y 0.000000 3.724460 0.000000 
#    z 0.000000 0.000000 4.028550 
# 
# 
# High freq. dielectric constant tensor:
#      x y z
#    x 1.804920 0.000000 0.000000 
#    y 0.000000 1.804920 0.000000 
#    z 0.000000 0.000000 1.809590 
# 
# From -- ./inp_files/6904.got.cif
#   From: 2010.03.12/outbox.cif.g09.slc.cpg/sg118_4_cif.got.tgz:6904.got - 2010.04.14 02:21:17.
