data_PCOD8310667
_publ_section_title
;
Structure prediction by ZEFSAII (Michael W. Deem and Ramdas Pophale) SiO2 
 PCOD8310667
Probable space group: P -4 N 2
;
_chemical_formula_sum "Si O2"
_cell_formula_units_Z 24
_cell_length_a 7.050170
_cell_length_b 7.050170
_cell_length_c 18.143569
_cell_angle_alpha 90.000000
_cell_angle_beta 90.000000
_cell_angle_gamma 90.000000
_cell_volume 901.824229
_symmetry_space_group_name_H-M "P -4 N 2"
_symmetry_group_IT_number 118
_symmetry_cell_setting 'tetragonal'
loop_
_space_group_symop_operation_xyz
x,y,z
y,-x,-z
-x,-y,z
-y,x,-z
1/2+y,1/2+x,1/2-z
1/2-y,1/2-x,1/2-z
1/2-x,1/2+y,1/2+z
1/2+x,1/2-y,1/2+z
loop_
_atom_site_type_symbol
_atom_site_label
_atom_site_fract_x
_atom_site_fract_y
_atom_site_fract_z
Si Si1 0.305122 0.435250 0.805912
Si Si2 0.725191 0.845748 0.924761
Si Si3 0.748871 0.833402 0.086841
O O1 0.500000 0.500000 0.764669
O O2 0.161434 0.338567 0.750000
O O3 0.384103 0.288108 0.867295
O O4 0.196805 0.609070 0.844731
O O5 0.948290 0.807496 0.914718
O O6 0.693765 0.068459 0.905949
O O7 0.652255 0.794739 0.007062
#
# Coordination Sequence:
#
# PCOD8310667 Si02
#       3
#     8   8   8
#     4  12  29  48  72 111 163 215 268 328 414 488
#     4   9  21  45  77 118 144 194 265 324 396 482
#     4   9  21  45  80 109 152 196 256 333 392 477
#
# _framework density 26.612722000000002
#
# number of rings (size 3 to 8) (size 9 to 14) (size 15 to 20)
#    0.000    2.000    0.000    3.000    9.333    4.000 
#    0.000    1.667    0.000    0.000    0.000    0.000 
#    0.000    0.000    0.000    0.000    0.000    0.000 
#
# Total GULP energy -297580.113337 kJ/mol
# GULP energy per Si atom -12399.171389 kJ/mol
# Density = 2.655215 g / cm^3
# Si number density = 26.612722 Si / 1000 Ang^3
#
#
#
# Elastic Constant Matrix: (Units=GPa)
#
#
# Indices 1 2 3 4 5 6 
#
# 1 89.9510 33.2040 47.1882 0.0000 0.0000 0.0000
# 2 33.2040 89.9508 47.1888 0.0000 0.0000 0.0000
# 3 47.1882 47.1888 124.4827 0.0000 0.0000 0.0000
# 4 0.0000 0.0000 0.0000 30.4644 0.0000 0.0000
# 5 0.0000 0.0000 0.0000 0.0000 30.4627 0.0000
# 6 0.0000 0.0000 0.0000 0.0000 0.0000 43.3270
#
#
#
# Elastic Compliance Matrix: (Units=1/GPa)
#
#
# Indices 1 2 3 4 5 6 
#
# 1 0.014533 -0.003089 -0.004338 0.000000 0.000000 0.000000
# 2 -0.003089 0.014533 -0.004338 0.000000 0.000000 0.000000
# 3 -0.004338 -0.004338 0.011322 0.000000 0.000000 0.000000
# 4 0.000000 0.000000 0.000000 0.032825 0.000000 0.000000
# 5 0.000000 0.000000 0.000000 0.000000 0.032827 0.000000
# 6 0.000000 0.000000 0.000000 0.000000 0.000000 0.023080
#
#
# Mechanical properties :
#
#
# Convention : Reuss Voigt Hill
#
# Bulk Modulus (GPa) = 59.31923 62.17185 60.74554
# Shear Modulus (GPa) = 31.59123 32.63770 32.11447
#
# Velocity S-wave (km/s) = 3.44913 3.50579 3.47758
# Velocity P-wave (km/s) = 6.18063 6.30871 6.24500
#
# Compressibility (1/GPa) = 0.01685794
#
# Stress axis : x y z
#
# Youngs Moduli (GPa) = 68.80789 68.80730 88.32084
#
# Poissons Ratio (x) = 0.21254 0.38316
# Poissons Ratio (y) = 0.21254 0.38317
# Poissons Ratio (z) = 0.29851 0.29851
#
# Static dielectric constant tensor:
#      x y z
#    x 5.012690 0.000000 0.000000 
#    y 0.000000 5.012690 0.000000 
#    z 0.000000 0.000000 5.114220 
# 
# 
# High freq. dielectric constant tensor:
#      x y z
#    x 2.075380 0.000000 0.000000 
#    y 0.000000 2.075380 0.000000 
#    z 0.000000 0.000000 2.058690 
# 
# From -- ./inp_files/4467.got.cif
#   From: 2010.03.12/outbox.cif.g09.slc.cpg/sg118_3_cif.got.tgz:4467.got - 2010.04.14 02:21:17.
