data_PCOD8310955
_publ_section_title
;
Structure prediction by ZEFSAII (Michael W. Deem and Ramdas Pophale) SiO2 
 PCOD8310955
Probable space group: I -4 M 2
;
_chemical_formula_sum "Si O2"
_cell_formula_units_Z 112
_cell_length_a 31.014133
_cell_length_b 31.014133
_cell_length_c 5.484890
_cell_angle_alpha 90.000000
_cell_angle_beta 90.000000
_cell_angle_gamma 90.000000
_cell_volume 5275.786498
_symmetry_space_group_name_H-M "I -4 M 2"
_symmetry_group_IT_number 119
_symmetry_cell_setting 'tetragonal'
loop_
_space_group_symop_operation_xyz
x,y,z
y,-x,-z
-x,-y,z
-y,x,-z
y,x,-z
-y,-x,-z
-x,y,z
x,-y,z
1/2+x,1/2+y,1/2+z
1/2+y,1/2-x,1/2-z
1/2-x,1/2-y,1/2+z
1/2-y,1/2+x,1/2-z
1/2+y,1/2+x,1/2-z
1/2-y,1/2-x,1/2-z
1/2-x,1/2+y,1/2+z
1/2+x,1/2-y,1/2+z
loop_
_atom_site_type_symbol
_atom_site_label
_atom_site_fract_x
_atom_site_fract_y
_atom_site_fract_z
Si Si1 0.828220 0.608160 0.849364
Si Si2 0.385025 0.049000 0.652528
Si Si3 0.156745 0.913996 0.489960
Si Si4 0.752331 0.104903 0.644246
Si Si5 0.700823 0.952426 0.959255
Si Si6 0.302596 0.733817 0.746336
Si Si7 0.949946 0.120579 0.007895
O O1 0.847708 0.652293 0.750000
O O2 0.797558 0.582406 0.668426
O O3 0.867528 0.577131 0.928582
O O4 0.793465 0.622540 0.045011
O O5 0.428626 0.071374 0.750000
O O6 0.347088 0.048742 0.848996
O O7 0.396153 0.000000 0.570558
O O8 0.131169 0.868832 0.500000
O O9 0.208082 0.906110 0.465506
O O10 0.147304 0.938653 0.745984
O O11 0.145803 0.940303 0.244484
O O12 0.739942 0.060575 0.781629
O O13 0.765895 0.146149 0.800957
O O14 0.710823 0.000000 0.060133
O O15 0.289031 0.710969 0.500000
O O16 0.281212 0.781212 0.750000
O O17 0.290993 0.709008 0.000000
O O18 0.000000 0.108863 0.015366
O O19 0.924210 0.075791 0.000000
#
# Coordination Sequence:
#
# PCOD8310955 Si02
#       7
#    16  16  16  16  16  16  16
#     4  11  23  39  65  91 122 164 214 272 334 395
#     4  10  20  38  60  86 120 159 201 257 328 401
#     4  10  23  43  64  94 136 182 222 267 332 397
#     4  11  26  39  65  93 124 170 221 270 319 398
#     4  10  23  41  61  90 124 160 207 265 328 389
#     4  10  24  42  64  94 132 169 215 276 337 392
#     4  10  22  42  69 100 135 176 223 274 332 395
#
# _framework density 21.229064000000001
#
# number of rings (size 3 to 8) (size 9 to 14) (size 15 to 20)
#    0.000    1.714    1.429    1.286    6.000    4.286 
#    0.000    0.000    0.000    2.571    0.000    0.000 
#    0.000    0.000    0.000    0.000    0.000    0.000 
#
# Total GULP energy -693818.519884 kJ/mol
# GULP energy per Si atom -12389.616427 kJ/mol
# Density = 2.118075 g / cm^3
# Si number density = 21.229064 Si / 1000 Ang^3
#
#
#
# Elastic Constant Matrix: (Units=GPa)
#
#
# Indices 1 2 3 4 5 6 
#
# 1 62.2711 117.5352 32.9715 0.0000 0.0000 0.0000
# 2 117.5352 62.2405 32.9622 0.0000 0.0000 0.0000
# 3 32.9715 32.9622 114.1263 0.0000 0.0000 0.0000
# 4 0.0000 0.0000 0.0000 19.0940 0.0000 0.0000
# 5 0.0000 0.0000 0.0000 0.0000 19.0995 0.0000
# 6 0.0000 0.0000 0.0000 0.0000 0.0000 17.6729
#
#
#
# Elastic Compliance Matrix: (Units=1/GPa)
#
#
# Indices 1 2 3 4 5 6 
#
# 1 -0.005933 0.012155 -0.001797 0.000000 0.000000 0.000000
# 2 0.012155 -0.005936 -0.001797 0.000000 0.000000 0.000000
# 3 -0.001797 -0.001797 0.009800 0.000000 0.000000 0.000000
# 4 0.000000 0.000000 0.000000 0.052373 0.000000 0.000000
# 5 0.000000 0.000000 0.000000 0.000000 0.052357 0.000000
# 6 0.000000 0.000000 0.000000 0.000000 0.000000 0.056584
#
#
# Mechanical properties :
#
#
# Convention : Reuss Voigt Hill
#
# Bulk Modulus (GPa) = 66.42590 67.28618 66.85604
# Shear Modulus (GPa) = 33.98108 14.85120 24.41614
#
# Velocity S-wave (km/s) = 4.00520 2.64781 3.39503
# Velocity P-wave (km/s) = 7.26270 6.41186 6.85050
#
# Compressibility (1/GPa) = 0.01505437
#
# Stress axis : x y z
#
# Youngs Moduli (GPa) = -168.54808 -168.46728 102.03658
#
# Poissons Ratio (x) = 2.04780 0.18333
# Poissons Ratio (y) = 2.04878 0.18340
# Poissons Ratio (z) = -0.30283 -0.30279
#
# Static dielectric constant tensor:
#      x y z
#    x 3.826700 0.000000 0.000000 
#    y 0.000000 3.826600 0.000000 
#    z 0.000000 0.000000 4.314160 
# 
# 
# High freq. dielectric constant tensor:
#      x y z
#    x 1.833860 0.000000 0.000000 
#    y 0.000000 1.833860 0.000000 
#    z 0.000000 0.000000 1.829070 
# 
# From -- ./inp_files/1240.got.cif
#   From: 2010.03.12/outbox.cif.g09.slc.cpg/sg119_1_cif.got.tgz:1240.got - 2010.04.14 02:25:26.
