data_PCOD8310756
_publ_section_title
;
Structure prediction by ZEFSAII (Michael W. Deem and Ramdas Pophale) SiO2 
 PCOD8310756
Probable space group: I -4 M 2
;
_chemical_formula_sum "Si O2"
_cell_formula_units_Z 120
_cell_length_a 13.966600
_cell_length_b 13.966600
_cell_length_c 32.061625
_cell_angle_alpha 90.000000
_cell_angle_beta 90.000000
_cell_angle_gamma 90.000000
_cell_volume 6254.130235
_symmetry_space_group_name_H-M "I -4 M 2"
_symmetry_group_IT_number 119
_symmetry_cell_setting 'tetragonal'
loop_
_space_group_symop_operation_xyz
x,y,z
y,-x,-z
-x,-y,z
-y,x,-z
y,x,-z
-y,-x,-z
-x,y,z
x,-y,z
1/2+x,1/2+y,1/2+z
1/2+y,1/2-x,1/2-z
1/2-x,1/2-y,1/2+z
1/2-y,1/2+x,1/2-z
1/2+y,1/2+x,1/2-z
1/2-y,1/2-x,1/2-z
1/2-x,1/2+y,1/2+z
1/2+x,1/2-y,1/2+z
loop_
_atom_site_type_symbol
_atom_site_label
_atom_site_fract_x
_atom_site_fract_y
_atom_site_fract_z
Si Si1 0.273273 0.890517 0.552729
Si Si2 0.888891 0.388920 0.136073
Si Si3 0.887141 0.785060 0.596751
Si Si4 0.213135 0.203958 0.679281
Si Si5 0.285006 0.714995 0.500000
Si Si6 0.894872 0.789867 0.831143
Si Si7 0.108267 0.893523 0.249469
Si Si8 0.890575 0.255511 0.920713
O O1 0.349982 0.872401 0.589395
O O2 0.166232 0.859503 0.566270
O O3 0.303698 0.824955 0.513742
O O4 0.272642 0.000000 0.537884
O O5 0.880361 0.500000 0.148259
O O6 0.821426 0.329990 0.167892
O O7 0.000000 0.354959 0.139099
O O8 0.863199 0.823323 0.643418
O O9 0.846782 0.678182 0.587619
O O10 0.000000 0.787733 0.588636
O O11 0.210352 0.318792 0.682756
O O12 0.184392 0.165918 0.724351
O O13 0.356310 0.695681 0.461248
O O14 0.879992 0.880582 0.800538
O O15 0.881166 0.815441 0.880376
O O16 0.000000 0.744516 0.824694
O O17 0.000000 0.877049 0.261713
O O18 0.142259 0.000000 0.262290
O O19 0.000000 0.290394 0.926718
#
# Coordination Sequence:
#
# PCOD8310756 Si02
#       8
#    16  16  16  16   8  16  16  16
#     4   9  19  34  50  72 106 144 178 213 257 316
#     4   9  18  33  53  78 109 144 179 213 256 315
#     4   9  18  32  51  77 108 142 177 211 255 311
#     4  10  18  32  54  80 109 141 177 219 261 301
#     4  10  20  34  54  80 104 130 172 224 270 318
#     4   9  19  36  54  72 100 139 178 215 259 309
#     4  10  20  33  52  80 111 142 176 213 254 306
#     4   9  19  36  55  74 100 135 174 220 271 319
#
# _framework density 19.187321000000001
#
# number of rings (size 3 to 8) (size 9 to 14) (size 15 to 20)
#    0.000    2.667    0.000    2.000    0.000    4.267 
#    0.000    0.667    0.000    2.200    0.000   11.200 
#    0.000    0.000    0.000    0.000    0.000    0.000 
#
# Total GULP energy -743445.576636 kJ/mol
# GULP energy per Si atom -12390.759611 kJ/mol
# Density = 1.914365 g / cm^3
# Si number density = 19.187321 Si / 1000 Ang^3
#
#
#
# Elastic Constant Matrix: (Units=GPa)
#
#
# Indices 1 2 3 4 5 6 
#
# 1 90.2214 41.1822 49.4537 0.0000 0.0000 0.0000
# 2 41.1822 90.2223 49.4535 0.0000 0.0000 0.0000
# 3 49.4537 49.4535 122.5713 0.0000 0.0000 0.0000
# 4 0.0000 0.0000 0.0000 21.9741 0.0000 0.0000
# 5 0.0000 0.0000 0.0000 0.0000 21.9740 0.0000
# 6 0.0000 0.0000 0.0000 0.0000 0.0000 17.0139
#
#
#
# Elastic Compliance Matrix: (Units=1/GPa)
#
#
# Indices 1 2 3 4 5 6 
#
# 1 0.015661 -0.004731 -0.004410 0.000000 0.000000 0.000000
# 2 -0.004731 0.015660 -0.004410 0.000000 0.000000 0.000000
# 3 -0.004410 -0.004410 0.011717 0.000000 0.000000 0.000000
# 4 0.000000 0.000000 0.000000 0.045508 0.000000 0.000000
# 5 0.000000 0.000000 0.000000 0.000000 0.045508 0.000000
# 6 0.000000 0.000000 0.000000 0.000000 0.000000 0.058776
#
#
# Mechanical properties :
#
#
# Convention : Reuss Voigt Hill
#
# Bulk Modulus (GPa) = 62.74774 64.79930 63.77352
# Shear Modulus (GPa) = 22.19827 23.05409 22.62618
#
# Velocity S-wave (km/s) = 3.40505 3.47007 3.43771
# Velocity P-wave (km/s) = 6.94499 7.06402 7.00476
#
# Compressibility (1/GPa) = 0.01593683
#
# Stress axis : x y z
#
# Youngs Moduli (GPa) = 63.85485 63.85569 85.34782
#
# Poissons Ratio (x) = 0.30212 0.37635
# Poissons Ratio (y) = 0.30211 0.37634
# Poissons Ratio (z) = 0.28158 0.28157
#
# Static dielectric constant tensor:
#      x y z
#    x 3.454020 0.000000 0.000000 
#    y 0.000000 3.454020 0.000000 
#    z 0.000000 0.000000 3.615870 
# 
# 
# High freq. dielectric constant tensor:
#      x y z
#    x 1.730760 0.000000 0.000000 
#    y 0.000000 1.730760 0.000000 
#    z 0.000000 0.000000 1.753690 
# 
# From -- ./inp_files/10532.got.cif
#   From: 2010.03.12/outbox.cif.g09.slc.cpg/sg119_6_cif.got.tgz:10532.got - 2010.04.14 02:25:26.
