data_PCOD8310009
_publ_section_title
;
Structure prediction by ZEFSAII (Michael W. Deem and Ramdas Pophale) SiO2 
 PCOD8310009
Probable space group: P -4 M 2
;
_chemical_formula_sum "Si O2"
_cell_formula_units_Z 28
_cell_length_a 9.176167
_cell_length_b 9.176167
_cell_length_c 18.086373
_cell_angle_alpha 90.000000
_cell_angle_beta 90.000000
_cell_angle_gamma 90.000000
_cell_volume 1522.909517
_symmetry_space_group_name_H-M "P -4 M 2"
_symmetry_group_IT_number 115
_symmetry_cell_setting 'tetragonal'
loop_
_space_group_symop_operation_xyz
x,y,z
y,-x,-z
-x,-y,z
-y,x,-z
y,x,-z
-y,-x,-z
-x,y,z
x,-y,z
loop_
_atom_site_type_symbol
_atom_site_label
_atom_site_fract_x
_atom_site_fract_y
_atom_site_fract_z
Si Si1 0.171005 0.329512 0.433321
Si Si2 0.831478 0.671906 0.695591
Si Si3 0.660910 0.827000 0.139598
Si Si4 0.830791 0.169210 0.000000
O O1 0.245584 0.245584 0.500000
O O2 0.204153 0.500000 0.441452
O O3 0.236693 0.272792 0.356884
O O4 0.000000 0.297059 0.434919
O O5 0.807307 0.500000 0.683532
O O6 0.785316 0.718588 0.778820
O O7 0.000000 0.711322 0.679589
O O8 0.500000 0.761913 0.127989
O O9 0.655597 0.000000 0.134811
O O10 0.761205 0.762496 0.074331
O O11 0.000000 0.203661 0.005480
#
# Coordination Sequence:
#
# PCOD8310009 Si02
#       4
#     8   8   8   4
#     4  11  24  39  55  78 106 134 167 206 249 300
#     4   9  18  34  56  79 102 132 172 213 253 301
#     4   8  15  29  48  70  98 131 164 201 248 297
#     4   9  16  26  44  71  98 126 166 209 244 286
#
# _framework density 18.385857999999999
#
# number of rings (size 3 to 8) (size 9 to 14) (size 15 to 20)
#    0.000    2.714    0.000    3.429    0.000    7.429 
#    0.000    4.286    0.000    5.571    0.000    0.000 
#    0.000    0.000    0.000    0.000    0.000    0.000 
#
# Total GULP energy -347100.364082 kJ/mol
# GULP energy per Si atom -12396.441574 kJ/mol
# Density = 1.834401 g / cm^3
# Si number density = 18.385858 Si / 1000 Ang^3
#
#
#
# Elastic Constant Matrix: (Units=GPa)
#
#
# Indices 1 2 3 4 5 6 
#
# 1 68.3708 54.1008 67.8083 0.0000 0.0000 0.0000
# 2 54.1008 68.3702 67.8083 0.0000 0.0000 0.0000
# 3 67.8083 67.8083 180.8130 0.0000 0.0000 0.0000
# 4 0.0000 0.0000 0.0000 -13.7254 0.0000 0.0000
# 5 0.0000 0.0000 0.0000 0.0000 -13.7389 0.0000
# 6 0.0000 0.0000 0.0000 0.0000 0.0000 23.5432
#
#
#
# Elastic Compliance Matrix: (Units=1/GPa)
#
#
# Indices 1 2 3 4 5 6 
#
# 1 0.042021 -0.028057 -0.005237 0.000000 0.000000 0.000000
# 2 -0.028057 0.042022 -0.005237 0.000000 0.000000 0.000000
# 3 -0.005237 -0.005237 0.009458 0.000000 0.000000 0.000000
# 4 0.000000 0.000000 0.000000 -0.072858 0.000000 0.000000
# 5 0.000000 0.000000 0.000000 0.000000 -0.072786 0.000000
# 6 0.000000 0.000000 0.000000 0.000000 0.000000 0.042475
#
#
# Mechanical properties :
#
#
# Convention : Reuss Voigt Hill
#
# Bulk Modulus (GPa) = 60.82977 77.44321 69.13649
# Shear Modulus (GPa) = 68.61157 7.73821 38.17489
#
# Velocity S-wave (km/s) = 6.11544 2.05376 4.56161
# Velocity P-wave (km/s) = 9.11162 6.91639 8.08882
#
# Compressibility (1/GPa) = 0.01643932
#
# Stress axis : x y z
#
# Youngs Moduli (GPa) = 23.79764 23.79724 105.72650
#
# Poissons Ratio (x) = 0.66769 0.55365
# Poissons Ratio (y) = 0.66770 0.55368
# Poissons Ratio (z) = 0.12462 0.12462
#
# Static dielectric constant tensor:
#      x y z
#    x 3.289630 0.000000 0.000000 
#    y 0.000000 3.289650 0.000000 
#    z 0.000000 0.000000 3.917720 
# 
# 
# High freq. dielectric constant tensor:
#      x y z
#    x 1.694170 0.000000 0.000000 
#    y 0.000000 1.694170 0.000000 
#    z 0.000000 0.000000 1.734460 
# 
# From -- ./inp_files/4024.got.cif
#   From: 2010.03.12/outbox.cif.g09.slc.cpg/sg115_3_cif.got.tgz:4024.got - 2010.04.14 02:11:21.
