data_PCOD8310510
_publ_section_title
;
Structure prediction by ZEFSAII (Michael W. Deem and Ramdas Pophale) SiO2 
 PCOD8310510
Probable space group: P -4 N 2
;
_chemical_formula_sum "Si O2"
_cell_formula_units_Z 46
_cell_length_a 11.741462
_cell_length_b 11.741462
_cell_length_c 14.929504
_cell_angle_alpha 90.000000
_cell_angle_beta 90.000000
_cell_angle_gamma 90.000000
_cell_volume 2058.210234
_symmetry_space_group_name_H-M "P -4 N 2"
_symmetry_group_IT_number 118
_symmetry_cell_setting 'tetragonal'
loop_
_space_group_symop_operation_xyz
x,y,z
y,-x,-z
-x,-y,z
-y,x,-z
1/2+y,1/2+x,1/2-z
1/2-y,1/2-x,1/2-z
1/2-x,1/2+y,1/2+z
1/2+x,1/2-y,1/2+z
loop_
_atom_site_type_symbol
_atom_site_label
_atom_site_fract_x
_atom_site_fract_y
_atom_site_fract_z
Si Si1 0.280030 0.060875 0.644045
Si Si2 0.428042 0.111881 0.490569
Si Si3 0.216078 0.283923 0.750000
Si Si4 0.500000 0.000000 0.750000
Si Si5 0.392914 0.432351 0.247169
Si Si6 0.005350 0.161350 0.050611
Si Si7 0.961731 0.308904 0.800732
O O1 0.307636 0.079901 0.538432
O O2 0.227909 0.178893 0.681880
O O3 0.395388 0.011398 0.683899
O O4 0.196798 0.958063 0.668559
O O5 0.498675 0.201409 0.551543
O O6 0.408290 0.181092 0.399206
O O7 0.500000 0.000000 0.468926
O O8 0.214797 0.402776 0.695447
O O9 0.500000 0.500000 0.210369
O O10 0.366712 0.483684 0.345056
O O11 0.404513 0.297022 0.250200
O O12 0.887619 0.106862 0.011677
O O13 0.925111 0.425111 0.750000
#
# Coordination Sequence:
#
# PCOD8310510 Si02
#       7
#     8   8   4   2   8   8   8
#     4  11  25  41  72 108 146 188 234 316 385 444
#     4  12  26  45  70 107 149 188 243 312 379 448
#     4  11  23  45  73 100 148 190 247 305 379 445
#     4  10  20  44  62 104 148 182 226 288 384 454
#     4  12  23  44  73 104 142 188 245 304 373 452
#     4  11  21  39  72 111 134 175 252 310 359 424
#     4  12  27  47  72 102 142 201 251 304 367 457
#
# _framework density 22.349513000000002
#
# number of rings (size 3 to 8) (size 9 to 14) (size 15 to 20)
#    0.000    0.522    6.087    3.391    3.652    0.000 
#    0.000    0.000    0.000    0.000    0.000    0.000 
#    0.000    0.000    0.000    0.000    0.000    0.000 
#
# Total GULP energy -570001.172883 kJ/mol
# GULP energy per Si atom -12391.329845 kJ/mol
# Density = 2.229864 g / cm^3
# Si number density = 22.349513 Si / 1000 Ang^3
#
#
#
# Elastic Constant Matrix: (Units=GPa)
#
#
# Indices 1 2 3 4 5 6 
#
# 1 103.9800 63.4294 27.5214 0.0000 0.0000 0.0000
# 2 63.4294 103.9772 27.5209 0.0000 0.0000 0.0000
# 3 27.5214 27.5209 88.1377 0.0000 0.0000 0.0000
# 4 0.0000 0.0000 0.0000 19.0899 0.0000 0.0000
# 5 0.0000 0.0000 0.0000 0.0000 19.0904 0.0000
# 6 0.0000 0.0000 0.0000 0.0000 0.0000 45.2271
#
#
#
# Elastic Compliance Matrix: (Units=1/GPa)
#
#
# Indices 1 2 3 4 5 6 
#
# 1 0.015659 -0.009002 -0.002079 0.000000 0.000000 0.000000
# 2 -0.009002 0.015659 -0.002079 0.000000 0.000000 0.000000
# 3 -0.002079 -0.002079 0.012644 0.000000 0.000000 0.000000
# 4 0.000000 0.000000 0.000000 0.052384 0.000000 0.000000
# 5 0.000000 0.000000 0.000000 0.000000 0.052382 0.000000
# 6 0.000000 0.000000 0.000000 0.000000 0.000000 0.022111
#
#
# Mechanical properties :
#
#
# Convention : Reuss Voigt Hill
#
# Bulk Modulus (GPa) = 56.67893 59.22649 57.95271
# Shear Modulus (GPa) = 24.62581 28.52303 26.57442
#
# Velocity S-wave (km/s) = 3.32301 3.57631 3.45198
# Velocity P-wave (km/s) = 6.33550 6.60386 6.47107
#
# Compressibility (1/GPa) = 0.01764324
#
# Stress axis : x y z
#
# Youngs Moduli (GPa) = 63.86140 63.85971 79.08900
#
# Poissons Ratio (x) = 0.57488 0.16440
# Poissons Ratio (y) = 0.57490 0.16440
# Poissons Ratio (z) = 0.13274 0.13274
#
# Static dielectric constant tensor:
#      x y z
#    x 4.521000 0.000000 0.000000 
#    y 0.000000 4.521000 0.000000 
#    z 0.000000 0.000000 3.989380 
# 
# 
# High freq. dielectric constant tensor:
#      x y z
#    x 1.883530 0.000000 0.000000 
#    y 0.000000 1.883530 0.000000 
#    z 0.000000 0.000000 1.866050 
# 
# From -- ./inp_files/4970.got.cif
#   From: 2010.03.12/outbox.cif.g09.slc.cpg/sg118_3_cif.got.tgz:4970.got - 2010.04.14 02:21:17.
