data_PCOD8310453
_publ_section_title
;
Structure prediction by ZEFSAII (Michael W. Deem and Ramdas Pophale) SiO2 
 PCOD8310453
Probable space group: P -4 N 2
;
_chemical_formula_sum "Si O2"
_cell_formula_units_Z 48
_cell_length_a 14.307638
_cell_length_b 14.307638
_cell_length_c 11.407140
_cell_angle_alpha 90.000000
_cell_angle_beta 90.000000
_cell_angle_gamma 90.000000
_cell_volume 2335.138577
_symmetry_space_group_name_H-M "P -4 N 2"
_symmetry_group_IT_number 118
_symmetry_cell_setting 'tetragonal'
loop_
_space_group_symop_operation_xyz
x,y,z
y,-x,-z
-x,-y,z
-y,x,-z
1/2+y,1/2+x,1/2-z
1/2-y,1/2-x,1/2-z
1/2-x,1/2+y,1/2+z
1/2+x,1/2-y,1/2+z
loop_
_atom_site_type_symbol
_atom_site_label
_atom_site_fract_x
_atom_site_fract_y
_atom_site_fract_z
Si Si1 0.728570 0.286151 0.459175
Si Si2 0.307808 0.061374 0.545723
Si Si3 0.109916 0.933421 0.938365
Si Si4 0.500000 0.000000 0.045605
Si Si5 0.585757 0.270086 0.119652
Si Si6 0.903966 0.596035 0.750000
Si Si7 0.076717 0.822802 0.247679
O O1 0.832860 0.308978 0.502873
O O2 0.648703 0.313825 0.552926
O O3 0.723268 0.175668 0.442699
O O4 0.710128 0.343589 0.340914
O O5 0.414715 0.027895 0.539026
O O6 0.269769 0.049349 0.678524
O O7 0.235630 0.002704 0.465609
O O8 0.130251 0.987752 0.816772
O O9 0.005794 0.886937 0.948929
O O10 0.579891 0.034276 0.134085
O O11 0.569504 0.204238 0.231588
O O12 0.602970 0.376686 0.161445
#
# Coordination Sequence:
#
# PCOD8310453 Si02
#       7
#     8   8   8   4   8   4   8
#     4  10  20  40  64  88 119 166 208 259 311 378
#     4  10  21  36  61  93 126 164 203 260 322 389
#     4   9  20  39  62  92 117 156 219 260 300 365
#     4   9  20  34  55  94 126 152 219 254 321 370
#     4  10  18  36  63  88 119 167 208 244 320 371
#     4   9  16  32  58  84 116 161 208 260 288 369
#     4  10  20  40  65  83 123 170 207 250 325 381
#
# _framework density 20.555526
#
# number of rings (size 3 to 8) (size 9 to 14) (size 15 to 20)
#    0.000    2.333    1.667    1.500    0.000    5.333 
#    3.000   19.167   22.000    4.500    0.000    0.000 
#    0.000    0.000    0.000    0.000    0.000    0.000 
#
# Total GULP energy -594696.968294 kJ/mol
# GULP energy per Si atom -12389.520173 kJ/mol
# Density = 2.050874 g / cm^3
# Si number density = 20.555526 Si / 1000 Ang^3
#
#
#
# Elastic Constant Matrix: (Units=GPa)
#
#
# Indices 1 2 3 4 5 6 
#
# 1 124.3061 53.7539 47.5304 0.0000 0.0000 0.0000
# 2 53.7539 124.3069 47.5303 0.0000 0.0000 0.0000
# 3 47.5304 47.5303 70.5889 0.0000 0.0000 0.0000
# 4 0.0000 0.0000 0.0000 31.7513 0.0000 0.0000
# 5 0.0000 0.0000 0.0000 0.0000 31.7512 0.0000
# 6 0.0000 0.0000 0.0000 0.0000 0.0000 30.3945
#
#
#
# Elastic Compliance Matrix: (Units=1/GPa)
#
#
# Indices 1 2 3 4 5 6 
#
# 1 0.011471 -0.002703 -0.005904 0.000000 0.000000 0.000000
# 2 -0.002703 0.011471 -0.005904 0.000000 0.000000 0.000000
# 3 -0.005904 -0.005904 0.022117 0.000000 0.000000 0.000000
# 4 0.000000 0.000000 0.000000 0.031495 0.000000 0.000000
# 5 0.000000 0.000000 0.000000 0.000000 0.031495 0.000000
# 6 0.000000 0.000000 0.000000 0.000000 0.000000 0.032901
#
#
# Mechanical properties :
#
#
# Convention : Reuss Voigt Hill
#
# Bulk Modulus (GPa) = 62.35298 68.53677 65.44487
# Shear Modulus (GPa) = 28.51989 30.13853 29.32921
#
# Velocity S-wave (km/s) = 3.72890 3.83325 3.78144
# Velocity P-wave (km/s) = 6.99567 7.28055 7.13953
#
# Compressibility (1/GPa) = 0.01603773
#
# Stress axis : x y z
#
# Youngs Moduli (GPa) = 87.17690 87.17782 45.21395
#
# Poissons Ratio (x) = 0.23564 0.26694
# Poissons Ratio (y) = 0.23563 0.26693
# Poissons Ratio (z) = 0.51468 0.51468
#
# Static dielectric constant tensor:
#      x y z
#    x 3.963830 0.000000 0.000000 
#    y 0.000000 3.963870 0.000000 
#    z 0.000000 0.000000 3.513970 
# 
# 
# High freq. dielectric constant tensor:
#      x y z
#    x 1.805300 0.000000 0.000000 
#    y 0.000000 1.805300 0.000000 
#    z 0.000000 0.000000 1.774740 
# 
# From -- ./inp_files/3377.got.cif
#   From: 2010.03.12/outbox.cif.g09.slc.cpg/sg118_2_cif.got.tgz:3377.got - 2010.04.14 02:21:17.
