data_PCOD8310736
_publ_section_title
;
Structure prediction by ZEFSAII (Michael W. Deem and Ramdas Pophale) SiO2 
 PCOD8310736
Probable space group: I -4 M 2
;
_chemical_formula_sum "Si O2"
_cell_formula_units_Z 96
_cell_length_a 21.816046
_cell_length_b 21.816046
_cell_length_c 11.858206
_cell_angle_alpha 90.000000
_cell_angle_beta 90.000000
_cell_angle_gamma 90.000000
_cell_volume 5643.792940
_symmetry_space_group_name_H-M "I -4 M 2"
_symmetry_group_IT_number 119
_symmetry_cell_setting 'tetragonal'
loop_
_space_group_symop_operation_xyz
x,y,z
y,-x,-z
-x,-y,z
-y,x,-z
y,x,-z
-y,-x,-z
-x,y,z
x,-y,z
1/2+x,1/2+y,1/2+z
1/2+y,1/2-x,1/2-z
1/2-x,1/2-y,1/2+z
1/2-y,1/2+x,1/2-z
1/2+y,1/2+x,1/2-z
1/2-y,1/2-x,1/2-z
1/2-x,1/2+y,1/2+z
1/2+x,1/2-y,1/2+z
loop_
_atom_site_type_symbol
_atom_site_label
_atom_site_fract_x
_atom_site_fract_y
_atom_site_fract_z
Si Si1 0.739417 0.139903 0.046988
Si Si2 0.430562 0.261656 0.110223
Si Si3 0.072223 0.153945 0.072320
Si Si4 0.432812 0.842597 0.291475
Si Si5 0.667900 0.328675 0.257662
Si Si6 0.245666 0.668114 0.063280
O O1 0.683197 0.108296 0.108454
O O2 0.780657 0.177221 0.138371
O O3 0.781999 0.089405 0.988119
O O4 0.708931 0.184792 0.954922
O O5 0.500000 0.287108 0.090198
O O6 0.433686 0.201629 0.185259
O O7 0.389221 0.310961 0.177672
O O8 0.400161 0.241583 0.990868
O O9 0.104134 0.152057 0.194468
O O10 0.000000 0.148866 0.087115
O O11 0.096312 0.096312 0.000000
O O12 0.500000 0.853506 0.341016
O O13 0.407225 0.907225 0.250000
O O14 0.733566 0.333320 0.194042
O O15 0.301855 0.698146 0.000000
#
# Coordination Sequence:
#
# PCOD8310736 Si02
#       6
#    16  16  16  16  16  16
#     4  10  19  33  49  73 103 130 160 202 256 309
#     4   9  18  31  48  70 100 131 165 202 250 302
#     4  10  21  36  52  72  99 132 169 210 256 305
#     4  10  18  30  48  70  97 131 164 199 240 290
#     4   9  20  32  49  75  99 131 166 207 254 300
#     4  10  18  29  50  74  99 129 164 205 250 306
#
# _framework density 17.009837000000001
#
# number of rings (size 3 to 8) (size 9 to 14) (size 15 to 20)
#    0.000    2.333    1.667    2.000    0.000    8.333 
#    0.000    0.000    0.000    0.000    0.000    0.000 
#    0.000    0.000    0.000    0.333    0.000    0.000 
#
# Total GULP energy -594891.774881 kJ/mol
# GULP energy per Si atom -12393.578643 kJ/mol
# Density = 1.697112 g / cm^3
# Si number density = 17.009837 Si / 1000 Ang^3
#
#
#
# Elastic Constant Matrix: (Units=GPa)
#
#
# Indices 1 2 3 4 5 6 
#
# 1 102.4089 54.7561 38.5366 0.0000 0.0000 0.0000
# 2 54.7561 102.4093 38.5368 0.0000 0.0000 0.0000
# 3 38.5366 38.5368 61.5504 0.0000 0.0000 0.0000
# 4 0.0000 0.0000 0.0000 14.0963 0.0000 0.0000
# 5 0.0000 0.0000 0.0000 0.0000 14.0968 0.0000
# 6 0.0000 0.0000 0.0000 0.0000 0.0000 11.3197
#
#
#
# Elastic Compliance Matrix: (Units=1/GPa)
#
#
# Indices 1 2 3 4 5 6 
#
# 1 0.015083 -0.005902 -0.005749 0.000000 0.000000 0.000000
# 2 -0.005902 0.015083 -0.005749 0.000000 0.000000 0.000000
# 3 -0.005749 -0.005749 0.023446 0.000000 0.000000 0.000000
# 4 0.000000 0.000000 0.000000 0.070940 0.000000 0.000000
# 5 0.000000 0.000000 0.000000 0.000000 0.070938 0.000000
# 6 0.000000 0.000000 0.000000 0.000000 0.000000 0.088342
#
#
# Mechanical properties :
#
#
# Convention : Reuss Voigt Hill
#
# Bulk Modulus (GPa) = 53.15150 58.89195 56.02172
# Shear Modulus (GPa) = 15.38921 16.87182 16.13052
#
# Velocity S-wave (km/s) = 3.01113 3.15284 3.08280
# Velocity P-wave (km/s) = 6.58821 6.92469 6.75854
#
# Compressibility (1/GPa) = 0.01881414
#
# Stress axis : x y z
#
# Youngs Moduli (GPa) = 66.29763 66.29768 42.65204
#
# Poissons Ratio (x) = 0.39126 0.24520
# Poissons Ratio (y) = 0.39126 0.24520
# Poissons Ratio (z) = 0.38113 0.38114
#
# Static dielectric constant tensor:
#      x y z
#    x 3.201580 0.000000 0.000000 
#    y 0.000000 3.201580 0.000000 
#    z 0.000000 0.000000 3.393150 
# 
# 
# High freq. dielectric constant tensor:
#      x y z
#    x 1.643600 0.000000 0.000000 
#    y 0.000000 1.643600 0.000000 
#    z 0.000000 0.000000 1.647480 
# 
# From -- ./inp_files/4179.got.cif
#   From: 2010.03.12/outbox.cif.g09.slc.cpg/sg119_3_cif.got.tgz:4179.got - 2010.04.14 02:25:26.
