data_PCOD8310967
_publ_section_title
;
Structure prediction by ZEFSAII (Michael W. Deem and Ramdas Pophale) SiO2 
 PCOD8310967
Probable space group: I -4 M 2
;
_chemical_formula_sum "Si O2"
_cell_formula_units_Z 112
_cell_length_a 14.607270
_cell_length_b 14.607270
_cell_length_c 25.377161
_cell_angle_alpha 90.000000
_cell_angle_beta 90.000000
_cell_angle_gamma 90.000000
_cell_volume 5414.784145
_symmetry_space_group_name_H-M "I -4 M 2"
_symmetry_group_IT_number 119
_symmetry_cell_setting 'tetragonal'
loop_
_space_group_symop_operation_xyz
x,y,z
y,-x,-z
-x,-y,z
-y,x,-z
y,x,-z
-y,-x,-z
-x,y,z
x,-y,z
1/2+x,1/2+y,1/2+z
1/2+y,1/2-x,1/2-z
1/2-x,1/2-y,1/2+z
1/2-y,1/2+x,1/2-z
1/2+y,1/2+x,1/2-z
1/2-y,1/2-x,1/2-z
1/2-x,1/2+y,1/2+z
1/2+x,1/2-y,1/2+z
loop_
_atom_site_type_symbol
_atom_site_label
_atom_site_fract_x
_atom_site_fract_y
_atom_site_fract_z
Si Si1 0.604068 0.656977 0.244265
Si Si2 0.400698 0.211589 0.788422
Si Si3 0.396747 0.603052 0.937464
Si Si4 0.147497 0.402139 0.803955
Si Si5 0.766717 0.267719 0.439682
Si Si6 0.397207 0.724818 0.359767
Si Si7 0.395309 0.104012 0.892358
O O1 0.500000 0.621544 0.235147
O O2 0.678136 0.590232 0.216995
O O3 0.623136 0.750544 0.213931
O O4 0.623263 0.665636 0.307059
O O5 0.500000 0.169359 0.773708
O O6 0.322112 0.177889 0.750000
O O7 0.373874 0.175353 0.845674
O O8 0.500000 0.629571 0.917752
O O9 0.371565 0.500000 0.917171
O O10 0.320865 0.676877 0.918041
O O11 0.396714 0.603287 0.000000
O O12 0.143983 0.500000 0.832973
O O13 0.090261 0.409740 0.750000
O O14 0.105333 0.331230 0.844708
O O15 0.739590 0.260411 0.500000
O O16 0.677508 0.292081 0.404945
O O17 0.833006 0.356649 0.439130
O O18 0.500000 0.702009 0.380612
O O19 0.500000 0.107706 0.910684
O O20 0.367710 0.000000 0.877140
#
# Coordination Sequence:
#
# PCOD8310967 Si02
#       7
#    16  16  16  16  16  16  16
#     4   9  18  34  56  81 112 148 182 222 281 352
#     4  11  21  34  57  87 118 152 190 233 285 350
#     4   8  15  30  52  77 104 134 175 233 300 365
#     4   9  16  28  49  74 103 141 177 209 257 329
#     4  11  22  36  58  81 106 150 204 253 297 341
#     4  10  21  35  51  76 110 146 186 234 286 338
#     4  10  22  40  61  87 120 155 192 238 294 353
#
# _framework density 20.684113
#
# number of rings (size 3 to 8) (size 9 to 14) (size 15 to 20)
#    0.000    2.286    0.000    5.571    0.000    3.714 
#    0.000    0.714    0.000    2.143    0.000    1.000 
#    0.000    0.000    0.000    0.000    0.000    0.000 
#
# Total GULP energy -693915.469881 kJ/mol
# GULP energy per Si atom -12391.347676 kJ/mol
# Density = 2.063704 g / cm^3
# Si number density = 20.684113 Si / 1000 Ang^3
#
#
#
# Elastic Constant Matrix: (Units=GPa)
#
#
# Indices 1 2 3 4 5 6 
#
# 1 103.2455 46.5828 42.7303 0.0000 0.0000 0.0000
# 2 46.5828 103.2475 42.7296 0.0000 0.0000 0.0000
# 3 42.7303 42.7296 72.3569 0.0000 0.0000 0.0000
# 4 0.0000 0.0000 0.0000 32.9760 0.0000 0.0000
# 5 0.0000 0.0000 0.0000 0.0000 32.9718 0.0000
# 6 0.0000 0.0000 0.0000 0.0000 0.0000 26.1961
#
#
#
# Elastic Compliance Matrix: (Units=1/GPa)
#
#
# Indices 1 2 3 4 5 6 
#
# 1 0.013856 -0.003792 -0.005944 0.000000 0.000000 0.000000
# 2 -0.003792 0.013856 -0.005943 0.000000 0.000000 0.000000
# 3 -0.005944 -0.005943 0.020840 0.000000 0.000000 0.000000
# 4 0.000000 0.000000 0.000000 0.030325 0.000000 0.000000
# 5 0.000000 0.000000 0.000000 0.000000 0.030329 0.000000
# 6 0.000000 0.000000 0.000000 0.000000 0.000000 0.038174
#
#
# Mechanical properties :
#
#
# Convention : Reuss Voigt Hill
#
# Bulk Modulus (GPa) = 58.15639 60.32613 59.24126
# Shear Modulus (GPa) = 27.10484 28.21594 27.66039
#
# Velocity S-wave (km/s) = 3.62390 3.69743 3.66085
# Velocity P-wave (km/s) = 6.75927 6.88888 6.82438
#
# Compressibility (1/GPa) = 0.01719501
#
# Stress axis : x y z
#
# Youngs Moduli (GPa) = 72.16889 72.17161 47.98450
#
# Poissons Ratio (x) = 0.27366 0.28520
# Poissons Ratio (y) = 0.27365 0.28518
# Poissons Ratio (z) = 0.42895 0.42893
#
# Static dielectric constant tensor:
#      x y z
#    x 3.740440 0.000000 0.000000 
#    y 0.000000 3.740390 0.000000 
#    z 0.000000 0.000000 3.361010 
# 
# 
# High freq. dielectric constant tensor:
#      x y z
#    x 1.809600 0.000000 0.000000 
#    y 0.000000 1.809600 0.000000 
#    z 0.000000 0.000000 1.770990 
# 
# From -- ./inp_files/9650.got.cif
#   From: 2010.03.12/outbox.cif.g09.slc.cpg/sg119_5_cif.got.tgz:9650.got - 2010.04.14 02:25:26.
