data_PCOD8310516
_publ_section_title
;
Structure prediction by ZEFSAII (Michael W. Deem and Ramdas Pophale) SiO2 
 PCOD8310516
Probable space group: P -4 N 2
;
_chemical_formula_sum "Si O2"
_cell_formula_units_Z 42
_cell_length_a 11.784266
_cell_length_b 11.784266
_cell_length_c 15.346915
_cell_angle_alpha 90.000000
_cell_angle_beta 90.000000
_cell_angle_gamma 90.000000
_cell_volume 2131.209591
_symmetry_space_group_name_H-M "P -4 N 2"
_symmetry_group_IT_number 118
_symmetry_cell_setting 'tetragonal'
loop_
_space_group_symop_operation_xyz
x,y,z
y,-x,-z
-x,-y,z
-y,x,-z
1/2+y,1/2+x,1/2-z
1/2-y,1/2-x,1/2-z
1/2-x,1/2+y,1/2+z
1/2+x,1/2-y,1/2+z
loop_
_atom_site_type_symbol
_atom_site_label
_atom_site_fract_x
_atom_site_fract_y
_atom_site_fract_z
Si Si1 0.867408 0.967253 0.887375
Si Si2 0.296579 0.312568 0.468317
Si Si3 0.000000 0.500000 0.750000
Si Si4 0.895988 0.068280 0.286986
Si Si5 0.082589 0.718781 0.811168
Si Si6 0.647105 0.607223 0.974115
O O1 0.842510 0.943020 0.784720
O O2 0.782913 0.068144 0.917029
O O3 0.836611 0.852748 0.938485
O O4 0.000000 0.000000 0.904708
O O5 0.380950 0.236246 0.410363
O O6 0.176966 0.247789 0.479287
O O7 0.002539 0.388938 0.811403
O O8 0.832098 0.122932 0.369379
O O9 0.825936 0.979628 0.229187
O O10 0.000000 0.000000 0.331370
O O11 0.191578 0.691578 0.750000
O O12 0.658859 0.475129 0.999646
#
# Coordination Sequence:
#
# PCOD8310516 Si02
#       6
#     8   8   2   8   8   8
#     4  11  21  39  64  92 121 161 212 264 313 375
#     4  12  21  39  64  92 123 164 211 264 320 376
#     4   8  24  36  52 100 132 150 204 280 324 372
#     4  11  20  40  65  86 125 171 210 259 309 392
#     4  10  21  37  61  91 124 160 205 262 328 365
#     4  11  25  42  61  92 130 168 212 257 321 391
#
# _framework density 19.707118000000001
#
# number of rings (size 3 to 8) (size 9 to 14) (size 15 to 20)
#    0.571    0.571    7.619    1.143    0.000    3.810 
#    0.000    0.000    0.000    0.000    0.000    2.667 
#    0.000    0.000    0.000    0.000    0.000    0.000 
#
# Total GULP energy -520470.396255 kJ/mol
# GULP energy per Si atom -12392.152292 kJ/mol
# Density = 1.966226 g / cm^3
# Si number density = 19.707118 Si / 1000 Ang^3
#
#
#
# Elastic Constant Matrix: (Units=GPa)
#
#
# Indices 1 2 3 4 5 6 
#
# 1 65.7219 34.8220 19.5601 0.0000 0.0000 0.0000
# 2 34.8220 65.7219 19.5601 0.0000 0.0000 0.0000
# 3 19.5601 19.5601 131.7258 0.0000 0.0000 0.0000
# 4 0.0000 0.0000 0.0000 18.3944 0.0000 0.0000
# 5 0.0000 0.0000 0.0000 0.0000 18.3944 0.0000
# 6 0.0000 0.0000 0.0000 0.0000 0.0000 39.7534
#
#
#
# Elastic Compliance Matrix: (Units=1/GPa)
#
#
# Indices 1 2 3 4 5 6 
#
# 1 0.021459 -0.010903 -0.001567 0.000000 0.000000 0.000000
# 2 -0.010903 0.021459 -0.001567 0.000000 0.000000 0.000000
# 3 -0.001567 -0.001567 0.008057 0.000000 0.000000 0.000000
# 4 0.000000 0.000000 0.000000 0.054364 0.000000 0.000000
# 5 0.000000 0.000000 0.000000 0.000000 0.054364 0.000000
# 6 0.000000 0.000000 0.000000 0.000000 0.000000 0.025155
#
#
# Mechanical properties :
#
#
# Convention : Reuss Voigt Hill
#
# Bulk Modulus (GPa) = 43.67039 45.67268 44.67154
# Shear Modulus (GPa) = 22.66868 27.92360 25.29614
#
# Velocity S-wave (km/s) = 3.39526 3.76830 3.58663
# Velocity P-wave (km/s) = 6.13010 6.49303 6.31417
#
# Compressibility (1/GPa) = 0.02289881
#
# Stress axis : x y z
#
# Youngs Moduli (GPa) = 46.60016 46.60016 124.11521
#
# Poissons Ratio (x) = 0.50810 0.19454
# Poissons Ratio (y) = 0.50810 0.19454
# Poissons Ratio (z) = 0.07304 0.07304
#
# Static dielectric constant tensor:
#      x y z
#    x 3.471180 0.000000 0.000000 
#    y 0.000000 3.471180 0.000000 
#    z 0.000000 0.000000 3.909040 
# 
# 
# High freq. dielectric constant tensor:
#      x y z
#    x 1.746360 0.000000 0.000000 
#    y 0.000000 1.746360 0.000000 
#    z 0.000000 0.000000 1.784010 
# 
# From -- ./inp_files/4856.got.cif
#   From: 2010.03.12/outbox.cif.g09.slc.cpg/sg118_3_cif.got.tgz:4856.got - 2010.04.14 02:21:17.
