data_PCOD8310186
_publ_section_title
;
Structure prediction by ZEFSAII (Michael W. Deem and Ramdas Pophale) SiO2 
 PCOD8310186
Probable space group: P -4 C 2
;
_chemical_formula_sum "Si O2"
_cell_formula_units_Z 34
_cell_length_a 11.333629
_cell_length_b 11.333629
_cell_length_c 14.072517
_cell_angle_alpha 90.000000
_cell_angle_beta 90.000000
_cell_angle_gamma 90.000000
_cell_volume 1807.630940
_symmetry_space_group_name_H-M "P -4 C 2"
_symmetry_group_IT_number 116
_symmetry_cell_setting 'tetragonal'
loop_
_space_group_symop_operation_xyz
x,y,z
y,-x,-z
-x,-y,z
-y,x,-z
y,x,1/2-z
-y,-x,1/2-z
-x,y,1/2+z
x,-y,1/2+z
loop_
_atom_site_type_symbol
_atom_site_label
_atom_site_fract_x
_atom_site_fract_y
_atom_site_fract_z
Si Si1 0.391387 0.229893 0.807455
Si Si2 0.415400 0.105349 0.623483
Si Si3 0.860678 0.152819 0.356913
Si Si4 0.000000 0.000000 0.500000
Si Si5 0.478593 0.686637 0.983739
O O1 0.344559 0.344559 0.750000
O O2 0.448716 0.140794 0.731394
O O3 0.280722 0.171452 0.863196
O O4 0.494080 0.263462 0.879519
O O5 0.276400 0.071907 0.620999
O O6 0.434989 0.211811 0.551947
O O7 0.500000 0.000000 0.590540
O O8 0.891440 0.108561 0.250000
O O9 0.899584 0.056570 0.433699
O O10 0.593417 0.626419 0.029595
#
# Coordination Sequence:
#
# PCOD8310186 Si02
#       5
#     8   8   8   2   8
#     4   9  19  42  55  80 126 155 185 244 301 343
#     4  10  22  39  61  85 121 158 196 247 299 356
#     4   9  21  41  58  86 122 155 194 247 305 344
#     4  12  22  36  72  86 112 164 206 252 284 370
#     4  11  21  36  64  92 118 156 199 237 300 370
#
# _framework density 18.809149999999999
#
# number of rings (size 3 to 8) (size 9 to 14) (size 15 to 20)
#    0.000    2.588    4.706    0.353    3.294    1.882 
#    4.235    0.000   10.353    0.000    0.000    0.000 
#    0.000    0.000    0.000    0.000    0.000    0.000 
#
# Total GULP energy -421485.915119 kJ/mol
# GULP energy per Si atom -12396.644562 kJ/mol
# Density = 1.876634 g / cm^3
# Si number density = 18.809150 Si / 1000 Ang^3
#
#
#
# Elastic Constant Matrix: (Units=GPa)
#
#
# Indices 1 2 3 4 5 6 
#
# 1 40.4632 37.5238 34.3297 0.0000 0.0000 0.0000
# 2 37.5238 40.4634 34.3299 0.0000 0.0000 0.0000
# 3 34.3297 34.3299 104.9082 0.0000 0.0000 0.0000
# 4 0.0000 0.0000 0.0000 4.3297 0.0000 0.0000
# 5 0.0000 0.0000 0.0000 0.0000 4.3287 0.0000
# 6 0.0000 0.0000 0.0000 0.0000 0.0000 17.4637
#
#
#
# Elastic Compliance Matrix: (Units=1/GPa)
#
#
# Indices 1 2 3 4 5 6 
#
# 1 0.179104 -0.161092 -0.005894 0.000000 0.000000 0.000000
# 2 -0.161092 0.179104 -0.005894 0.000000 0.000000 0.000000
# 3 -0.005894 -0.005894 0.013390 0.000000 0.000000 0.000000
# 4 0.000000 0.000000 0.000000 0.230961 0.000000 0.000000
# 5 0.000000 0.000000 0.000000 0.000000 0.231015 0.000000
# 6 0.000000 0.000000 0.000000 0.000000 0.000000 0.057262
#
#
# Mechanical properties :
#
#
# Convention : Reuss Voigt Hill
#
# Bulk Modulus (GPa) = 38.70447 44.24461 41.47454
# Shear Modulus (GPa) = 4.01540 10.53453 7.27496
#
# Velocity S-wave (km/s) = 1.46268 2.36916 1.96880
# Velocity P-wave (km/s) = 4.84507 5.57296 5.22171
#
# Compressibility (1/GPa) = 0.02583681
#
# Stress axis : x y z
#
# Youngs Moduli (GPa) = 5.58336 5.58336 74.68443
#
# Poissons Ratio (x) = 0.89943 0.44017
# Poissons Ratio (y) = 0.89943 0.44022
# Poissons Ratio (z) = 0.03291 0.03291
#
# Static dielectric constant tensor:
#      x y z
#    x 3.345060 0.000000 0.000000 
#    y 0.000000 3.345060 0.000000 
#    z 0.000000 0.000000 3.726000 
# 
# 
# High freq. dielectric constant tensor:
#      x y z
#    x 1.716300 0.000000 0.000000 
#    y 0.000000 1.716300 0.000000 
#    z 0.000000 0.000000 1.737770 
# 
# From -- ./inp_files/2467.got.cif
#   From: 2010.03.12/outbox.cif.g09.slc.cpg/sg116_2_cif.got.tgz:2467.got - 2010.04.14 02:15:44.
