data_PCOD8310575
_publ_section_title
;
Structure prediction by ZEFSAII (Michael W. Deem and Ramdas Pophale) SiO2 
 PCOD8310575
Probable space group: P -4 N 2
;
_chemical_formula_sum "Si O2"
_cell_formula_units_Z 28
_cell_length_a 9.122639
_cell_length_b 9.122639
_cell_length_c 16.036614
_cell_angle_alpha 90.000000
_cell_angle_beta 90.000000
_cell_angle_gamma 90.000000
_cell_volume 1334.607787
_symmetry_space_group_name_H-M "P -4 N 2"
_symmetry_group_IT_number 118
_symmetry_cell_setting 'tetragonal'
loop_
_space_group_symop_operation_xyz
x,y,z
y,-x,-z
-x,-y,z
-y,x,-z
1/2+y,1/2+x,1/2-z
1/2-y,1/2-x,1/2-z
1/2-x,1/2+y,1/2+z
1/2+x,1/2-y,1/2+z
loop_
_atom_site_type_symbol
_atom_site_label
_atom_site_fract_x
_atom_site_fract_y
_atom_site_fract_z
Si Si1 0.787242 0.160651 0.112374
Si Si2 0.500000 0.500000 0.275071
Si Si3 0.709795 0.971972 0.314943
Si Si4 0.588256 0.857730 0.480123
O O1 0.645777 0.180147 0.171728
O O2 0.929208 0.129363 0.169432
O O3 0.767140 0.024697 0.049309
O O4 0.815709 0.305636 0.058356
O O5 0.434123 0.371851 0.217466
O O6 0.590621 0.909380 0.250000
O O7 0.696118 0.893279 0.403752
O O8 0.500000 0.000000 0.509578
#
# Coordination Sequence:
#
# PCOD8310575 Si02
#       4
#     8   4   8   8
#     4  11  23  42  69 100 133 179 228 272 341 412
#     4  12  24  37  73  96 130 174 232 274 325 414
#     4  11  25  46  70  98 136 181 223 279 348 404
#     4  10  23  41  70  94 139 176 226 278 345 408
#
# _framework density 20.979946000000002
#
# number of rings (size 3 to 8) (size 9 to 14) (size 15 to 20)
#    0.000    1.143    2.857    2.571    8.000    4.571 
#    0.000    0.000    0.000    0.000    0.000    0.000 
#    0.000    0.000    0.000    0.000    0.000    0.000 
#
# Total GULP energy -347214.867890 kJ/mol
# GULP energy per Si atom -12400.530996 kJ/mol
# Density = 2.093219 g / cm^3
# Si number density = 20.979946 Si / 1000 Ang^3
#
#
#
# Elastic Constant Matrix: (Units=GPa)
#
#
# Indices 1 2 3 4 5 6 
#
# 1 136.4788 67.0052 82.0513 0.0000 0.0000 0.0000
# 2 67.0052 136.4775 82.0517 0.0000 0.0000 0.0000
# 3 82.0513 82.0517 151.2937 0.0000 0.0000 0.0000
# 4 0.0000 0.0000 0.0000 45.6230 0.0000 0.0000
# 5 0.0000 0.0000 0.0000 0.0000 45.6229 0.0000
# 6 0.0000 0.0000 0.0000 0.0000 0.0000 25.5282
#
#
#
# Elastic Compliance Matrix: (Units=1/GPa)
#
#
# Indices 1 2 3 4 5 6 
#
# 1 0.011564 -0.002830 -0.004737 0.000000 0.000000 0.000000
# 2 -0.002830 0.011565 -0.004737 0.000000 0.000000 0.000000
# 3 -0.004737 -0.004737 0.011748 0.000000 0.000000 0.000000
# 4 0.000000 0.000000 0.000000 0.021919 0.000000 0.000000
# 5 0.000000 0.000000 0.000000 0.000000 0.021919 0.000000
# 6 0.000000 0.000000 0.000000 0.000000 0.000000 0.039172
#
#
# Mechanical properties :
#
#
# Convention : Reuss Voigt Hill
#
# Bulk Modulus (GPa) = 97.38213 98.49625 97.93919
# Shear Modulus (GPa) = 34.26595 36.23096 35.24845
#
# Velocity S-wave (km/s) = 4.04576 4.16015 4.10335
# Velocity P-wave (km/s) = 8.26691 8.37410 8.32067
#
# Compressibility (1/GPa) = 0.01026882
#
# Stress axis : x y z
#
# Youngs Moduli (GPa) = 86.47285 86.47129 85.12176
#
# Poissons Ratio (x) = 0.24468 0.40323
# Poissons Ratio (y) = 0.24469 0.40324
# Poissons Ratio (z) = 0.40963 0.40963
#
# Static dielectric constant tensor:
#      x y z
#    x 3.831580 0.000000 0.000000 
#    y 0.000000 3.831560 0.000000 
#    z 0.000000 0.000000 3.869970 
# 
# 
# High freq. dielectric constant tensor:
#      x y z
#    x 1.814090 0.000000 0.000000 
#    y 0.000000 1.814090 0.000000 
#    z 0.000000 0.000000 1.835720 
# 
# From -- ./inp_files/4576.got.cif
#   From: 2010.03.12/outbox.cif.g09.slc.cpg/sg118_3_cif.got.tgz:4576.got - 2010.04.14 02:21:17.
