data_PCOD8310201
_publ_section_title
;
Structure prediction by ZEFSAII (Michael W. Deem and Ramdas Pophale) SiO2 
 PCOD8310201
Probable space group: P -4 C 2
;
_chemical_formula_sum "Si O2"
_cell_formula_units_Z 54
_cell_length_a 17.472391
_cell_length_b 17.472391
_cell_length_c 9.272943
_cell_angle_alpha 90.000000
_cell_angle_beta 90.000000
_cell_angle_gamma 90.000000
_cell_volume 2830.885278
_symmetry_space_group_name_H-M "P -4 C 2"
_symmetry_group_IT_number 116
_symmetry_cell_setting 'tetragonal'
loop_
_space_group_symop_operation_xyz
x,y,z
y,-x,-z
-x,-y,z
-y,x,-z
y,x,1/2-z
-y,-x,1/2-z
-x,y,1/2+z
x,-y,1/2+z
loop_
_atom_site_type_symbol
_atom_site_label
_atom_site_fract_x
_atom_site_fract_y
_atom_site_fract_z
Si Si1 0.340899 0.768221 0.829897
Si Si2 0.000000 0.000000 0.000000
Si Si3 0.181728 0.501073 0.767291
Si Si4 0.523820 0.082904 0.985943
Si Si5 0.913561 0.086440 0.750000
Si Si6 0.776214 0.334280 0.332432
Si Si7 0.928263 0.739409 0.205573
Si Si8 0.063543 0.307950 0.901190
O O1 0.302250 0.697751 0.750000
O O2 0.430600 0.764620 0.787535
O O3 0.301444 0.846654 0.774980
O O4 0.334300 0.754959 0.999504
O O5 0.942749 0.046196 0.895879
O O6 0.150883 0.518139 0.927189
O O7 0.101892 0.500550 0.676875
O O8 0.224378 0.419383 0.763058
O O9 0.613835 0.086696 0.016101
O O10 0.500000 0.000000 0.034700
O O11 0.823740 0.071838 0.727706
O O12 0.712352 0.287649 0.250000
O O13 0.858767 0.291198 0.310620
O O14 0.991745 0.690054 0.293486
O O15 0.951151 0.748639 0.036261
#
# Coordination Sequence:
#
# PCOD8310201 Si02
#       8
#     8   2   8   8   4   8   8   8
#     4  11  23  41  63  91 126 162 211 255 315 382
#     4  10  24  42  60  82 108 154 232 270 324 370
#     4  11  21  41  59  91 126 164 210 254 312 390
#     4  11  22  34  59  87 128 165 203 245 312 382
#     4  11  22  42  62  82 112 162 211 276 320 362
#     4  10  24  42  61  93 124 163 211 255 316 378
#     4  11  21  40  59  87 122 160 211 262 318 376
#     4  10  23  39  55  90 123 157 212 252 308 378
#
# _framework density 19.075306000000001
#
# number of rings (size 3 to 8) (size 9 to 14) (size 15 to 20)
#    0.000    1.333    5.185    2.222    6.222    1.185 
#    8.000    0.000    0.000    0.444    0.000    2.074 
#    0.000    0.000    0.000    0.000    0.000    0.000 
#
# Total GULP energy -669321.680938 kJ/mol
# GULP energy per Si atom -12394.845943 kJ/mol
# Density = 1.903189 g / cm^3
# Si number density = 19.075306 Si / 1000 Ang^3
#
#
#
# Elastic Constant Matrix: (Units=GPa)
#
#
# Indices 1 2 3 4 5 6 
#
# 1 98.6260 50.3555 52.5823 0.0000 0.0000 0.0000
# 2 50.3555 98.6298 52.5820 0.0000 0.0000 0.0000
# 3 52.5823 52.5820 78.4353 0.0000 0.0000 0.0000
# 4 0.0000 0.0000 0.0000 15.1506 0.0000 0.0000
# 5 0.0000 0.0000 0.0000 0.0000 15.1309 0.0000
# 6 0.0000 0.0000 0.0000 0.0000 0.0000 32.6081
#
#
#
# Elastic Compliance Matrix: (Units=1/GPa)
#
#
# Indices 1 2 3 4 5 6 
#
# 1 0.016729 -0.003987 -0.008542 0.000000 0.000000 0.000000
# 2 -0.003987 0.016728 -0.008541 0.000000 0.000000 0.000000
# 3 -0.008542 -0.008541 0.024202 0.000000 0.000000 0.000000
# 4 0.000000 0.000000 0.000000 0.066004 0.000000 0.000000
# 5 0.000000 0.000000 0.000000 0.000000 0.066090 0.000000
# 6 0.000000 0.000000 0.000000 0.000000 0.000000 0.030667
#
#
# Mechanical properties :
#
#
# Convention : Reuss Voigt Hill
#
# Bulk Modulus (GPa) = 64.44143 65.19230 64.81686
# Shear Modulus (GPa) = 18.67517 20.58933 19.63225
#
# Velocity S-wave (km/s) = 3.13233 3.28894 3.21159
# Velocity P-wave (km/s) = 6.85113 6.97663 6.91416
#
# Compressibility (1/GPa) = 0.01551797
#
# Stress axis : x y z
#
# Youngs Moduli (GPa) = 59.77538 59.77939 41.31863
#
# Poissons Ratio (x) = 0.23834 0.35296
# Poissons Ratio (y) = 0.23833 0.35292
# Poissons Ratio (z) = 0.51062 0.51060
#
# Static dielectric constant tensor:
#      x y z
#    x 7.178940 0.000000 0.000000 
#    y 0.000000 7.175220 0.000000 
#    z 0.000000 0.000000 3.715930 
# 
# 
# High freq. dielectric constant tensor:
#      x y z
#    x 1.730050 0.000000 0.000000 
#    y 0.000000 1.730050 0.000000 
#    z 0.000000 0.000000 1.755770 
# 
# From -- ./inp_files/1036.got.cif
#   From: 2010.03.12/outbox.cif.g09.slc.cpg/sg116_1_cif.got.tgz:1036.got - 2010.04.14 02:15:44.
