data_PCOD8310149
_publ_section_title
;
Structure prediction by ZEFSAII (Michael W. Deem and Ramdas Pophale) SiO2 
 PCOD8310149
Probable space group: P -4 C 2
;
_chemical_formula_sum "Si O2"
_cell_formula_units_Z 40
_cell_length_a 9.081477
_cell_length_b 9.081477
_cell_length_c 22.993264
_cell_angle_alpha 90.000000
_cell_angle_beta 90.000000
_cell_angle_gamma 90.000000
_cell_volume 1896.328624
_symmetry_space_group_name_H-M "P -4 C 2"
_symmetry_group_IT_number 116
_symmetry_cell_setting 'tetragonal'
loop_
_space_group_symop_operation_xyz
x,y,z
y,-x,-z
-x,-y,z
-y,x,-z
y,x,1/2-z
-y,-x,1/2-z
-x,y,1/2+z
x,-y,1/2+z
loop_
_atom_site_type_symbol
_atom_site_label
_atom_site_fract_x
_atom_site_fract_y
_atom_site_fract_z
Si Si1 0.500000 0.500000 0.617546
Si Si2 0.500000 0.000000 0.144548
Si Si3 0.129937 0.269701 0.504469
Si Si4 0.307636 0.739403 0.682881
Si Si5 0.425685 0.213381 0.551608
Si Si6 0.856910 0.073187 0.902560
O O1 0.387370 0.592894 0.657835
O O2 0.426143 0.382008 0.574213
O O3 0.599740 0.890462 0.182050
O O4 0.397855 0.893920 0.105855
O O5 0.290731 0.194408 0.508552
O O6 0.154713 0.437066 0.485404
O O7 0.063760 0.180042 0.450049
O O8 0.041891 0.252628 0.564930
O O9 0.278756 0.721245 0.750000
O O10 0.159344 0.760981 0.645370
O O11 0.000000 0.000000 0.871823
#
# Coordination Sequence:
#
# PCOD8310149 Si02
#       6
#     4   4   8   8   8   8
#     4  10  21  45  70  98 134 180 228 292 356 408
#     4  10  20  42  66  88 132 180 216 274 354 400
#     4  12  21  38  64  99 141 177 220 282 340 428
#     4  11  25  47  71  98 133 178 241 295 347 416
#     4  11  22  37  64 102 139 176 223 277 354 417
#     4  12  23  42  66  97 138 185 225 279 352 423
#
# _framework density 21.093388999999998
#
# number of rings (size 3 to 8) (size 9 to 14) (size 15 to 20)
#    0.000    0.800    6.000    3.900    0.000    0.400 
#    3.600    0.000    4.400    0.000    0.000    0.000 
#    0.000    0.000    0.000    0.000    0.000    0.000 
#
# Total GULP energy -495634.544656 kJ/mol
# GULP energy per Si atom -12390.863616 kJ/mol
# Density = 2.104538 g / cm^3
# Si number density = 21.093389 Si / 1000 Ang^3
#
#
#
# Elastic Constant Matrix: (Units=GPa)
#
#
# Indices 1 2 3 4 5 6 
#
# 1 94.0296 90.5198 48.8172 0.0000 0.0000 0.0000
# 2 90.5198 94.0314 48.8179 0.0000 0.0000 0.0000
# 3 48.8172 48.8179 99.8940 0.0000 0.0000 0.0000
# 4 0.0000 0.0000 0.0000 15.9409 0.0000 0.0000
# 5 0.0000 0.0000 0.0000 0.0000 15.9398 0.0000
# 6 0.0000 0.0000 0.0000 0.0000 0.0000 40.8424
#
#
#
# Elastic Compliance Matrix: (Units=1/GPa)
#
#
# Indices 1 2 3 4 5 6 
#
# 1 0.146075 -0.138766 -0.003571 0.000000 0.000000 0.000000
# 2 -0.138766 0.146073 -0.003572 0.000000 0.000000 0.000000
# 3 -0.003571 -0.003572 0.013501 0.000000 0.000000 0.000000
# 4 0.000000 0.000000 0.000000 0.062732 0.000000 0.000000
# 5 0.000000 0.000000 0.000000 0.000000 0.062736 0.000000
# 6 0.000000 0.000000 0.000000 0.000000 0.000000 0.024484
#
#
# Mechanical properties :
#
#
# Convention : Reuss Voigt Hill
#
# Bulk Modulus (GPa) = 72.29753 73.80718 73.05235
# Shear Modulus (GPa) = 6.64869 21.19798 13.92334
#
# Velocity S-wave (km/s) = 1.77732 3.17355 2.57199
# Velocity P-wave (km/s) = 6.20977 6.96385 6.59759
#
# Compressibility (1/GPa) = 0.01383173
#
# Stress axis : x y z
#
# Youngs Moduli (GPa) = 6.84581 6.84591 74.06745
#
# Poissons Ratio (x) = 0.94998 0.26449
# Poissons Ratio (y) = 0.94996 0.26455
# Poissons Ratio (z) = 0.02445 0.02445
#
# Static dielectric constant tensor:
#      x y z
#    x 4.128640 0.000000 0.000000 
#    y 0.000000 4.128640 0.000000 
#    z 0.000000 0.000000 3.542230 
# 
# 
# High freq. dielectric constant tensor:
#      x y z
#    x 1.844210 0.000000 0.000000 
#    y 0.000000 1.844210 0.000000 
#    z 0.000000 0.000000 1.795530 
# 
# From -- ./inp_files/4878.got.cif
#   From: 2010.03.12/outbox.cif.g09.slc.cpg/sg116_3_cif.got.tgz:4878.got - 2010.04.14 02:15:44.
