data_PCOD8310820
_publ_section_title
;
Structure prediction by ZEFSAII (Michael W. Deem and Ramdas Pophale) SiO2 
 PCOD8310820
Probable space group: I -4 M 2
;
_chemical_formula_sum "Si O2"
_cell_formula_units_Z 112
_cell_length_a 18.367380
_cell_length_b 18.367380
_cell_length_c 18.400294
_cell_angle_alpha 90.000000
_cell_angle_beta 90.000000
_cell_angle_gamma 90.000000
_cell_volume 6207.535108
_symmetry_space_group_name_H-M "I -4 M 2"
_symmetry_group_IT_number 119
_symmetry_cell_setting 'tetragonal'
loop_
_space_group_symop_operation_xyz
x,y,z
y,-x,-z
-x,-y,z
-y,x,-z
y,x,-z
-y,-x,-z
-x,y,z
x,-y,z
1/2+x,1/2+y,1/2+z
1/2+y,1/2-x,1/2-z
1/2-x,1/2-y,1/2+z
1/2-y,1/2+x,1/2-z
1/2+y,1/2+x,1/2-z
1/2-y,1/2-x,1/2-z
1/2-x,1/2+y,1/2+z
1/2+x,1/2-y,1/2+z
loop_
_atom_site_type_symbol
_atom_site_label
_atom_site_fract_x
_atom_site_fract_y
_atom_site_fract_z
Si Si1 0.170936 0.584443 0.866699
Si Si2 0.702905 0.082501 0.934157
Si Si3 0.686491 0.080095 0.533068
Si Si4 0.148995 0.082458 0.572451
Si Si5 0.828680 0.799050 0.681947
Si Si6 0.192085 0.790558 0.156061
Si Si7 0.282347 0.919473 0.105189
O O1 0.149883 0.500000 0.851039
O O2 0.234251 0.611207 0.811432
O O3 0.102010 0.638688 0.860261
O O4 0.199705 0.597469 0.948395
O O5 0.629874 0.129395 0.923845
O O6 0.766673 0.120129 0.887311
O O7 0.691886 0.000000 0.905587
O O8 0.720562 0.082744 0.018573
O O9 0.764531 0.086123 0.569109
O O10 0.653049 0.000000 0.541280
O O11 0.109958 0.109958 0.500000
O O12 0.130843 0.135367 0.639764
O O13 0.122430 0.000000 0.588103
O O14 0.799400 0.826769 0.759141
O O15 0.758095 0.766037 0.640113
O O16 0.216144 0.869670 0.129898
O O17 0.266604 0.000000 0.134136
#
# Coordination Sequence:
#
# PCOD8310820 Si02
#       7
#    16  16  16  16  16  16  16
#     4   9  17  30  51  78 107 138 173 214 264 324
#     4  10  19  32  54  80 105 135 174 223 269 309
#     4   9  17  30  51  77 105 140 172 207 260 314
#     4  11  21  34  54  79 108 141 179 218 258 309
#     4  10  20  33  52  75 103 142 182 216 260 312
#     4  10  20  34  52  75 104 138 180 224 259 314
#     4   9  19  33  52  79 106 137 175 220 273 322
#
# _framework density 18.042587000000001
#
# number of rings (size 3 to 8) (size 9 to 14) (size 15 to 20)
#    0.000    2.286    2.857    0.429    0.000    1.857 
#    0.000    2.857    0.000    0.429    0.000    8.000 
#    0.000    0.000    0.000    0.000    0.000    0.000 
#
# Total GULP energy -694113.794420 kJ/mol
# GULP energy per Si atom -12394.889186 kJ/mol
# Density = 1.800152 g / cm^3
# Si number density = 18.042587 Si / 1000 Ang^3
#
#
#
# Elastic Constant Matrix: (Units=GPa)
#
#
# Indices 1 2 3 4 5 6 
#
# 1 110.3566 44.0118 28.0830 0.0000 0.0000 0.0000
# 2 44.0118 110.3566 28.0830 0.0000 0.0000 0.0000
# 3 28.0830 28.0830 36.3882 0.0000 0.0000 0.0000
# 4 0.0000 0.0000 0.0000 15.2478 0.0000 0.0000
# 5 0.0000 0.0000 0.0000 0.0000 15.2478 0.0000
# 6 0.0000 0.0000 0.0000 0.0000 0.0000 21.4195
#
#
#
# Elastic Compliance Matrix: (Units=1/GPa)
#
#
# Indices 1 2 3 4 5 6 
#
# 1 0.012040 -0.003033 -0.006951 0.000000 0.000000 0.000000
# 2 -0.003033 0.012040 -0.006951 0.000000 0.000000 0.000000
# 3 -0.006951 -0.006951 0.038211 0.000000 0.000000 0.000000
# 4 0.000000 0.000000 0.000000 0.065583 0.000000 0.000000
# 5 0.000000 0.000000 0.000000 0.000000 0.065583 0.000000
# 6 0.000000 0.000000 0.000000 0.000000 0.000000 0.046686
#
#
# Mechanical properties :
#
#
# Convention : Reuss Voigt Hill
#
# Bulk Modulus (GPa) = 35.18668 50.82856 43.00762
# Shear Modulus (GPa) = 17.63740 20.84460 19.24100
#
# Velocity S-wave (km/s) = 3.12996 3.40266 3.26915
# Velocity P-wave (km/s) = 5.71021 6.60833 6.17562
#
# Compressibility (1/GPa) = 0.02841985
#
# Stress axis : x y z
#
# Youngs Moduli (GPa) = 83.05642 83.05642 26.17041
#
# Poissons Ratio (x) = 0.25189 0.18192
# Poissons Ratio (y) = 0.25189 0.18192
# Poissons Ratio (z) = 0.57736 0.57736
#
# Static dielectric constant tensor:
#      x y z
#    x 3.352180 0.000000 0.000000 
#    y 0.000000 3.352180 0.000000 
#    z 0.000000 0.000000 3.138400 
# 
# 
# High freq. dielectric constant tensor:
#      x y z
#    x 1.689480 0.000000 0.000000 
#    y 0.000000 1.689480 0.000000 
#    z 0.000000 0.000000 1.681910 
# 
# From -- ./inp_files/8053.got.cif
#   From: 2010.03.12/outbox.cif.g09.slc.cpg/sg119_5_cif.got.tgz:8053.got - 2010.04.14 02:25:26.
