data_PCOD8310620
_publ_section_title
;
Structure prediction by ZEFSAII (Michael W. Deem and Ramdas Pophale) SiO2 
 PCOD8310620
Probable space group: P -4 N 2
;
_chemical_formula_sum "Si O2"
_cell_formula_units_Z 34
_cell_length_a 11.427471
_cell_length_b 11.427471
_cell_length_c 11.387174
_cell_angle_alpha 90.000000
_cell_angle_beta 90.000000
_cell_angle_gamma 90.000000
_cell_volume 1487.017955
_symmetry_space_group_name_H-M "P -4 N 2"
_symmetry_group_IT_number 118
_symmetry_cell_setting 'tetragonal'
loop_
_space_group_symop_operation_xyz
x,y,z
y,-x,-z
-x,-y,z
-y,x,-z
1/2+y,1/2+x,1/2-z
1/2-y,1/2-x,1/2-z
1/2-x,1/2+y,1/2+z
1/2+x,1/2-y,1/2+z
loop_
_atom_site_type_symbol
_atom_site_label
_atom_site_fract_x
_atom_site_fract_y
_atom_site_fract_z
Si Si1 0.585000 0.167704 0.562973
Si Si2 0.000000 0.500000 0.250000
Si Si3 0.094810 0.914329 0.811866
Si Si4 0.948504 0.835355 0.443088
Si Si5 0.008862 0.329472 0.805462
O O1 0.613996 0.302031 0.596047
O O2 0.704370 0.097722 0.540148
O O3 0.508422 0.160428 0.446074
O O4 0.504614 0.113731 0.666305
O O5 0.145892 0.972906 0.694601
O O6 0.025784 0.799989 0.769718
O O7 0.000000 0.000000 0.872056
O O8 0.071945 0.852751 0.509127
O O9 0.135479 0.364522 0.750000
O O10 0.913700 0.413700 0.750000
#
# Coordination Sequence:
#
# PCOD8310620 Si02
#       5
#     8   2   8   8   8
#     4  12  27  47  77 114 155 199 253 330 379 467
#     4  12  24  48  70 112 146 192 254 310 400 444
#     4  12  26  50  72 113 156 199 253 317 385 457
#     4  11  22  46  79 109 152 202 254 303 381 466
#     4  11  26  49  77 107 149 202 257 312 386 457
#
# _framework density 22.864553000000001
#
# number of rings (size 3 to 8) (size 9 to 14) (size 15 to 20)
#    0.000    0.471    4.706    4.235    3.294    3.765 
#    2.118    0.000    0.000    0.000    0.000    0.000 
#    0.000    0.000    0.000    0.000    0.000    0.000 
#
# Total GULP energy -421644.449029 kJ/mol
# GULP energy per Si atom -12401.307324 kJ/mol
# Density = 2.281251 g / cm^3
# Si number density = 22.864553 Si / 1000 Ang^3
#
#
#
# Elastic Constant Matrix: (Units=GPa)
#
#
# Indices 1 2 3 4 5 6 
#
# 1 108.0167 66.8096 26.4572 0.0000 0.0000 0.0000
# 2 66.8096 108.0173 26.4560 0.0000 0.0000 0.0000
# 3 26.4572 26.4560 136.6924 0.0000 0.0000 0.0000
# 4 0.0000 0.0000 0.0000 17.8396 0.0000 0.0000
# 5 0.0000 0.0000 0.0000 0.0000 17.8401 0.0000
# 6 0.0000 0.0000 0.0000 0.0000 0.0000 34.1282
#
#
#
# Elastic Compliance Matrix: (Units=1/GPa)
#
#
# Indices 1 2 3 4 5 6 
#
# 1 0.015172 -0.009096 -0.001176 0.000000 0.000000 0.000000
# 2 -0.009096 0.015172 -0.001176 0.000000 0.000000 0.000000
# 3 -0.001176 -0.001176 0.007771 0.000000 0.000000 0.000000
# 4 0.000000 0.000000 0.000000 0.056055 0.000000 0.000000
# 5 0.000000 0.000000 0.000000 0.000000 0.056053 0.000000
# 6 0.000000 0.000000 0.000000 0.000000 0.000000 0.029301
#
#
# Mechanical properties :
#
#
# Convention : Reuss Voigt Hill
#
# Bulk Modulus (GPa) = 65.70839 65.79690 65.75264
# Shear Modulus (GPa) = 24.09725 29.49514 26.79620
#
# Velocity S-wave (km/s) = 3.24992 3.59555 3.42709
# Velocity P-wave (km/s) = 6.54852 6.78797 6.66932
#
# Compressibility (1/GPa) = 0.01521876
#
# Stress axis : x y z
#
# Youngs Moduli (GPa) = 65.91193 65.91254 128.68497
#
# Poissons Ratio (x) = 0.59953 0.15135
# Poissons Ratio (y) = 0.59952 0.15132
# Poissons Ratio (z) = 0.07752 0.07750
#
# Static dielectric constant tensor:
#      x y z
#    x 4.660230 0.000000 0.000000 
#    y 0.000000 4.660210 0.000000 
#    z 0.000000 0.000000 4.224310 
# 
# 
# High freq. dielectric constant tensor:
#      x y z
#    x 1.898750 0.000000 0.000000 
#    y 0.000000 1.898750 0.000000 
#    z 0.000000 0.000000 1.920670 
# 
# From -- ./inp_files/3045.got.cif
#   From: 2010.03.12/outbox.cif.g09.slc.cpg/sg118_2_cif.got.tgz:3045.got - 2010.04.14 02:21:17.
