data_PCOD8310383
_publ_section_title
;
Structure prediction by ZEFSAII (Michael W. Deem and Ramdas Pophale) SiO2 
 PCOD8310383
Probable space group: P -4 B 2
;
_chemical_formula_sum "Si O2"
_cell_formula_units_Z 26
_cell_length_a 16.036234
_cell_length_b 16.036234
_cell_length_c 4.941763
_cell_angle_alpha 90.000000
_cell_angle_beta 90.000000
_cell_angle_gamma 90.000000
_cell_volume 1270.827731
_symmetry_space_group_name_H-M "P -4 B 2"
_symmetry_group_IT_number 117
_symmetry_cell_setting 'tetragonal'
loop_
_space_group_symop_operation_xyz
x,y,z
y,-x,-z
-x,-y,z
-y,x,-z
1/2+y,1/2+x,-z
1/2-y,1/2-x,-z
1/2-x,1/2+y,z
1/2+x,1/2-y,z
loop_
_atom_site_type_symbol
_atom_site_label
_atom_site_fract_x
_atom_site_fract_y
_atom_site_fract_z
Si Si1 0.316174 0.998781 0.155000
Si Si2 0.826185 0.250785 0.757509
Si Si3 0.601623 0.229594 0.366646
Si Si4 0.500000 0.000000 0.000000
O O1 0.265483 0.974852 0.426269
O O2 0.275637 0.088257 0.094229
O O3 0.417071 0.002957 0.189749
O O4 0.297841 0.933288 0.920742
O O5 0.810939 0.310939 0.500000
O O6 0.816092 0.153943 0.662333
O O7 0.758846 0.258846 0.000000
O O8 0.660920 0.160920 0.500000
#
# Coordination Sequence:
#
# PCOD8310383 Si02
#       4
#     8   8   8   2
#     4  12  24  38  63  91 132 160 205 270 320 392
#     4  11  23  40  62  90 125 173 221 256 312 399
#     4  11  22  40  59  87 125 172 208 253 317 386
#     4  12  24  38  60 106 132 158 196 258 364 374
#
# _framework density 20.459106999999999
#
# number of rings (size 3 to 8) (size 9 to 14) (size 15 to 20)
#    0.000    0.615    4.615    5.538    0.000    1.231 
#    0.000    0.000    0.000    5.538    0.000    0.000 
#    0.000    0.000    0.000    0.000    0.000    0.000 
#
# Total GULP energy -322205.741311 kJ/mol
# GULP energy per Si atom -12392.528512 kJ/mol
# Density = 2.041254 g / cm^3
# Si number density = 20.459107 Si / 1000 Ang^3
#
#
#
# Elastic Constant Matrix: (Units=GPa)
#
#
# Indices 1 2 3 4 5 6 
#
# 1 97.0341 72.4465 27.4086 0.0000 0.0000 0.0000
# 2 72.4465 97.0341 27.4086 0.0000 0.0000 0.0000
# 3 27.4086 27.4086 80.3123 0.0000 0.0000 0.0000
# 4 0.0000 0.0000 0.0000 30.3025 0.0000 0.0000
# 5 0.0000 0.0000 0.0000 0.0000 30.3025 0.0000
# 6 0.0000 0.0000 0.0000 0.0000 0.0000 38.4792
#
#
#
# Elastic Compliance Matrix: (Units=1/GPa)
#
#
# Indices 1 2 3 4 5 6 
#
# 1 0.023652 -0.017019 -0.002264 0.000000 0.000000 0.000000
# 2 -0.017019 0.023652 -0.002264 0.000000 0.000000 0.000000
# 3 -0.002264 -0.002264 0.013996 0.000000 0.000000 0.000000
# 4 0.000000 0.000000 0.000000 0.033001 0.000000 0.000000
# 5 0.000000 0.000000 0.000000 0.000000 0.033001 0.000000
# 6 0.000000 0.000000 0.000000 0.000000 0.000000 0.025988
#
#
# Mechanical properties :
#
#
# Convention : Reuss Voigt Hill
#
# Bulk Modulus (GPa) = 54.92297 58.76753 56.84525
# Shear Modulus (GPa) = 24.69739 29.62462 27.16101
#
# Velocity S-wave (km/s) = 3.47819 3.80938 3.64754
# Velocity P-wave (km/s) = 6.56002 6.93795 6.75163
#
# Compressibility (1/GPa) = 0.01820732
#
# Stress axis : x y z
#
# Youngs Moduli (GPa) = 42.28026 42.28026 71.44723
#
# Poissons Ratio (x) = 0.71958 0.16172
# Poissons Ratio (y) = 0.71958 0.16172
# Poissons Ratio (z) = 0.09570 0.09570
#
# Static dielectric constant tensor:
#      x y z
#    x 3.687680 0.000000 0.000000 
#    y 0.000000 3.687680 0.000000 
#    z 0.000000 0.000000 4.006310 
# 
# 
# High freq. dielectric constant tensor:
#      x y z
#    x 1.781980 0.000000 0.000000 
#    y 0.000000 1.781980 0.000000 
#    z 0.000000 0.000000 1.818800 
# 
# From -- ./inp_files/292.got.cif
#   From: 2010.03.12/outbox.cif.g09.slc.cpg/sg117_1_cif.got.tgz:292.got - 2010.04.14 02:19:01.
