data_PCOD8310730
_publ_section_title
;
Structure prediction by ZEFSAII (Michael W. Deem and Ramdas Pophale) SiO2 
 PCOD8310730
Probable space group: I -4 M 2
;
_chemical_formula_sum "Si O2"
_cell_formula_units_Z 128
_cell_length_a 21.414024
_cell_length_b 21.414024
_cell_length_c 17.849747
_cell_angle_alpha 90.000000
_cell_angle_beta 90.000000
_cell_angle_gamma 90.000000
_cell_volume 8185.187550
_symmetry_space_group_name_H-M "I -4 M 2"
_symmetry_group_IT_number 119
_symmetry_cell_setting 'tetragonal'
loop_
_space_group_symop_operation_xyz
x,y,z
y,-x,-z
-x,-y,z
-y,x,-z
y,x,-z
-y,-x,-z
-x,y,z
x,-y,z
1/2+x,1/2+y,1/2+z
1/2+y,1/2-x,1/2-z
1/2-x,1/2-y,1/2+z
1/2-y,1/2+x,1/2-z
1/2+y,1/2+x,1/2-z
1/2-y,1/2-x,1/2-z
1/2-x,1/2+y,1/2+z
1/2+x,1/2-y,1/2+z
loop_
_atom_site_type_symbol
_atom_site_label
_atom_site_fract_x
_atom_site_fract_y
_atom_site_fract_z
Si Si1 0.250936 0.431444 0.719334
Si Si2 0.931214 0.630970 0.317444
Si Si3 0.068556 0.249063 0.219334
Si Si4 0.130968 0.568786 0.817444
Si Si5 0.812644 0.374097 0.414111
Si Si6 0.687356 0.874097 0.085889
Si Si7 0.803635 0.803634 0.732313
Si Si8 0.235435 0.235435 0.416338
O O1 0.284466 0.500000 0.722785
O O2 0.199562 0.428306 0.783498
O O3 0.222204 0.425405 0.636112
O O4 0.293772 0.372215 0.734780
O O5 0.916396 0.583605 0.250000
O O6 0.928306 0.699564 0.283498
O O7 0.884216 0.629106 0.387159
O O8 0.000000 0.615222 0.348707
O O9 0.074595 0.277796 0.136112
O O10 0.127785 0.206227 0.234780
O O11 0.000000 0.215533 0.222785
O O12 0.115220 0.500000 0.848707
O O13 0.083603 0.583603 0.750000
O O14 0.129105 0.615783 0.887159
O O15 0.811224 0.395819 0.500000
O O16 0.777411 0.308421 0.402729
O O17 0.722589 0.808421 0.097271
O O18 0.750000 0.750001 0.750000
O O19 0.805453 0.805453 0.641753
O O20 0.215304 0.215304 0.500000
#
# Coordination Sequence:
#
# PCOD8310730 Si02
#       8
#    16  16  16  16  16  16  16  16
#     4  10  19  30  47  71  95 124 161 201 245 291
#     4   9  17  29  43  62  88 120 159 200 237 281
#     4  10  19  30  47  71  95 124 161 201 245 291
#     4   9  17  29  43  62  88 120 159 200 237 281
#     4  10  18  29  45  67  96 126 154 196 250 291
#     4  10  18  29  45  67  96 126 154 196 250 291
#     4  12  16  32  56  71  94 131 164 200 241 291
#     4  10  18  28  48  76  98 120 156 199 244 291
#
# _framework density 15.638005
#
# number of rings (size 3 to 8) (size 9 to 14) (size 15 to 20)
#    0.000    2.000    5.000    0.750    0.000    1.250 
#    0.000    0.000    0.000    1.125    0.000    7.000 
#    0.000    0.000    0.000    8.125    0.000    0.000 
#
# Total GULP energy -792947.666723 kJ/mol
# GULP energy per Si atom -12389.807293 kJ/mol
# Density = 1.560241 g / cm^3
# Si number density = 15.638005 Si / 1000 Ang^3
#
#
#
# Elastic Constant Matrix: (Units=GPa)
#
#
# Indices 1 2 3 4 5 6 
#
# 1 80.3731 53.0731 23.6345 0.0000 0.0000 0.0000
# 2 53.0731 80.3743 23.6336 0.0000 0.0000 0.0000
# 3 23.6345 23.6336 87.4208 0.0000 0.0000 0.0000
# 4 0.0000 0.0000 0.0000 13.9396 0.0000 0.0000
# 5 0.0000 0.0000 0.0000 0.0000 13.9397 0.0000
# 6 0.0000 0.0000 0.0000 0.0000 0.0000 14.2259
#
#
#
# Elastic Compliance Matrix: (Units=1/GPa)
#
#
# Indices 1 2 3 4 5 6 
#
# 1 0.022458 -0.014171 -0.002241 0.000000 0.000000 0.000000
# 2 -0.014171 0.022458 -0.002240 0.000000 0.000000 0.000000
# 3 -0.002241 -0.002240 0.012650 0.000000 0.000000 0.000000
# 4 0.000000 0.000000 0.000000 0.071738 0.000000 0.000000
# 5 0.000000 0.000000 0.000000 0.000000 0.071738 0.000000
# 6 0.000000 0.000000 0.000000 0.000000 0.000000 0.070294
#
#
# Mechanical properties :
#
#
# Convention : Reuss Voigt Hill
#
# Bulk Modulus (GPa) = 49.35104 49.87231 49.61167
# Shear Modulus (GPa) = 15.85314 18.27616 17.06465
#
# Velocity S-wave (km/s) = 3.18741 3.42234 3.30696
# Velocity P-wave (km/s) = 6.72109 6.89764 6.80994
#
# Compressibility (1/GPa) = 0.02026300
#
# Stress axis : x y z
#
# Youngs Moduli (GPa) = 44.52665 44.52766 79.04937
#
# Poissons Ratio (x) = 0.63100 0.17712
# Poissons Ratio (y) = 0.63099 0.17708
# Poissons Ratio (z) = 0.09977 0.09975
#
# Static dielectric constant tensor:
#      x y z
#    x 2.952170 0.000000 0.000000 
#    y 0.000000 2.952170 0.000000 
#    z 0.000000 0.000000 3.119470 
# 
# 
# High freq. dielectric constant tensor:
#      x y z
#    x 1.579850 0.000000 0.000000 
#    y 0.000000 1.579850 0.000000 
#    z 0.000000 0.000000 1.606520 
# 
# From -- ./inp_files/6942.got.cif
#   From: 2010.03.12/outbox.cif.g09.slc.cpg/sg119_4_cif.got.tgz:6942.got - 2010.04.14 02:25:26.
