data_PCOD8310087
_publ_section_title
;
Structure prediction by ZEFSAII (Michael W. Deem and Ramdas Pophale) SiO2 
 PCOD8310087
Probable space group: P -4 C 2
;
_chemical_formula_sum "Si O2"
_cell_formula_units_Z 56
_cell_length_a 20.552085
_cell_length_b 20.552085
_cell_length_c 9.149569
_cell_angle_alpha 90.000000
_cell_angle_beta 90.000000
_cell_angle_gamma 90.000000
_cell_volume 3864.669961
_symmetry_space_group_name_H-M "P -4 C 2"
_symmetry_group_IT_number 116
_symmetry_cell_setting 'tetragonal'
loop_
_space_group_symop_operation_xyz
x,y,z
y,-x,-z
-x,-y,z
-y,x,-z
y,x,1/2-z
-y,-x,1/2-z
-x,y,1/2+z
x,-y,1/2+z
loop_
_atom_site_type_symbol
_atom_site_label
_atom_site_fract_x
_atom_site_fract_y
_atom_site_fract_z
Si Si1 0.703550 0.123030 0.426807
Si Si2 0.123052 0.697007 0.403826
Si Si3 0.152586 0.932404 0.821786
Si Si4 0.779743 0.993782 0.047886
Si Si5 0.202942 0.784593 0.593748
Si Si6 0.931245 0.434242 0.053304
Si Si7 0.068575 0.561190 0.399686
O O1 0.709376 0.145052 0.260535
O O2 0.739952 0.054861 0.446349
O O3 0.738558 0.178908 0.515722
O O4 0.628201 0.114634 0.474285
O O5 0.181665 0.720586 0.506641
O O6 0.115964 0.620754 0.434890
O O7 0.055807 0.734357 0.430322
O O8 0.080356 0.919645 0.750000
O O9 0.202185 0.959127 0.699138
O O10 0.171355 0.861442 0.885349
O O11 0.155301 0.983242 0.956880
O O12 0.233623 0.766378 0.750000
O O13 0.941496 0.447281 0.225749
O O14 0.899387 0.497015 0.973345
O O15 0.000162 0.422896 0.975709
#
# Coordination Sequence:
#
# PCOD8310087 Si02
#       7
#     8   8   8   8   8   8   8
#     4  11  19  32  46  68  89 113 142 181 229 263
#     4  10  21  31  48  66  89 115 146 180 226 266
#     4  10  20  33  47  67  80 101 138 177 226 282
#     4  11  18  31  47  65  83 106 133 177 224 270
#     4  10  20  31  48  69  88 104 144 187 221 270
#     4  10  20  29  45  63  93 120 147 180 215 270
#     4  10  19  31  42  66  90 122 149 176 217 265
#
# _framework density 14.490242
#
# number of rings (size 3 to 8) (size 9 to 14) (size 15 to 20)
#    0.000    1.714    5.714    2.143    0.000    2.286 
#    0.000    0.714    0.000    1.286    0.000    0.000 
#    0.000    0.000    0.000    0.000    0.000    0.714 
#
# Total GULP energy -693876.990084 kJ/mol
# GULP energy per Si atom -12390.660537 kJ/mol
# Density = 1.445726 g / cm^3
# Si number density = 14.490242 Si / 1000 Ang^3
#
#
#
# Elastic Constant Matrix: (Units=GPa)
#
#
# Indices 1 2 3 4 5 6 
#
# 1 66.9431 44.3591 47.4777 0.0000 0.0000 0.0000
# 2 44.3591 66.9432 47.4777 0.0000 0.0000 0.0000
# 3 47.4777 47.4777 103.0520 0.0000 0.0000 0.0000
# 4 0.0000 0.0000 0.0000 23.6878 0.0000 0.0000
# 5 0.0000 0.0000 0.0000 0.0000 23.6880 0.0000
# 6 0.0000 0.0000 0.0000 0.0000 0.0000 6.9163
#
#
#
# Elastic Compliance Matrix: (Units=1/GPa)
#
#
# Indices 1 2 3 4 5 6 
#
# 1 0.029541 -0.014738 -0.006820 0.000000 0.000000 0.000000
# 2 -0.014738 0.029541 -0.006820 0.000000 0.000000 0.000000
# 3 -0.006820 -0.006820 0.015988 0.000000 0.000000 0.000000
# 4 0.000000 0.000000 0.000000 0.042216 0.000000 0.000000
# 5 0.000000 0.000000 0.000000 0.000000 0.042216 0.000000
# 6 0.000000 0.000000 0.000000 0.000000 0.000000 0.144586
#
#
# Mechanical properties :
#
#
# Convention : Reuss Voigt Hill
#
# Bulk Modulus (GPa) = 54.60319 57.28527 55.94423
# Shear Modulus (GPa) = 13.62593 17.36667 15.49630
#
# Velocity S-wave (km/s) = 3.06984 3.46570 3.27376
# Velocity P-wave (km/s) = 7.09435 7.45884 7.27888
#
# Compressibility (1/GPa) = 0.01831395
#
# Stress axis : x y z
#
# Youngs Moduli (GPa) = 33.85130 33.85136 62.54736
#
# Poissons Ratio (x) = 0.49891 0.42657
# Poissons Ratio (y) = 0.49891 0.42657
# Poissons Ratio (z) = 0.23086 0.23086
#
# Static dielectric constant tensor:
#      x y z
#    x 2.766630 0.000000 0.000000 
#    y 0.000000 2.766630 0.000000 
#    z 0.000000 0.000000 3.140490 
# 
# 
# High freq. dielectric constant tensor:
#      x y z
#    x 1.521130 0.000000 0.000000 
#    y 0.000000 1.521130 0.000000 
#    z 0.000000 0.000000 1.580240 
# 
# From -- ./inp_files/1114.got.cif
#   From: 2010.03.12/outbox.cif.g09.slc.cpg/sg116_1_cif.got.tgz:1114.got - 2010.04.14 02:15:44.
