data_PCOD8310333
_publ_section_title
;
Structure prediction by ZEFSAII (Michael W. Deem and Ramdas Pophale) SiO2 
 PCOD8310333
Probable space group: P -4 B 2
;
_chemical_formula_sum "Si O2"
_cell_formula_units_Z 32
_cell_length_a 13.792846
_cell_length_b 13.792846
_cell_length_c 8.248053
_cell_angle_alpha 90.000000
_cell_angle_beta 90.000000
_cell_angle_gamma 90.000000
_cell_volume 1569.131054
_symmetry_space_group_name_H-M "P -4 B 2"
_symmetry_group_IT_number 117
_symmetry_cell_setting 'tetragonal'
loop_
_space_group_symop_operation_xyz
x,y,z
y,-x,-z
-x,-y,z
-y,x,-z
1/2+y,1/2+x,-z
1/2-y,1/2-x,-z
1/2-x,1/2+y,z
1/2+x,1/2-y,z
loop_
_atom_site_type_symbol
_atom_site_label
_atom_site_fract_x
_atom_site_fract_y
_atom_site_fract_z
Si Si1 0.818911 0.502091 0.763576
Si Si2 0.162753 0.337248 0.500000
Si Si3 0.500000 0.500000 0.000000
Si Si4 0.200825 0.764232 0.245187
Si Si5 0.838954 0.130315 0.914303
Si Si6 0.500000 0.000000 0.000000
O O1 0.839108 0.565516 0.605167
O O2 0.790467 0.395907 0.699048
O O3 0.732940 0.543297 0.872646
O O4 0.908778 0.497818 0.883096
O O5 0.166596 0.241727 0.613280
O O6 0.585481 0.447709 0.104727
O O7 0.279614 0.679696 0.206064
O O8 0.181290 0.834777 0.095671
#
# Coordination Sequence:
#
# PCOD8310333 Si02
#       6
#     8   4   2   8   8   2
#     4  11  23  42  62  95 125 169 213 269 329 386
#     4  10  24  43  58  89 132 164 212 256 328 408
#     4  12  20  36  72 102 120 164 216 282 304 396
#     4  10  21  43  63  88 130 168 205 273 326 387
#     4  10  21  40  65  96 121 159 219 266 318 376
#     4  12  24  38  72  92 120 170 228 280 320 386
#
# _framework density 20.393450999999999
#
# number of rings (size 3 to 8) (size 9 to 14) (size 15 to 20)
#    0.000    1.500    2.500    4.500    0.000    2.500 
#    9.000    0.000    0.000    1.500    0.000    0.000 
#    0.000    0.000    0.000    0.000    0.000    0.000 
#
# Total GULP energy -396724.487863 kJ/mol
# GULP energy per Si atom -12397.640246 kJ/mol
# Density = 2.034703 g / cm^3
# Si number density = 20.393451 Si / 1000 Ang^3
#
#
#
# Elastic Constant Matrix: (Units=GPa)
#
#
# Indices 1 2 3 4 5 6 
#
# 1 148.0740 70.4322 54.7952 0.0000 0.0000 0.0000
# 2 70.4322 148.0749 54.7951 0.0000 0.0000 0.0000
# 3 54.7952 54.7951 121.3778 0.0000 0.0000 0.0000
# 4 0.0000 0.0000 0.0000 21.2517 0.0000 0.0000
# 5 0.0000 0.0000 0.0000 0.0000 21.2513 0.0000
# 6 0.0000 0.0000 0.0000 0.0000 0.0000 40.2037
#
#
#
# Elastic Compliance Matrix: (Units=1/GPa)
#
#
# Indices 1 2 3 4 5 6 
#
# 1 0.009398 -0.003482 -0.002671 0.000000 0.000000 0.000000
# 2 -0.003482 0.009398 -0.002671 0.000000 0.000000 0.000000
# 3 -0.002671 -0.002671 0.010650 0.000000 0.000000 0.000000
# 4 0.000000 0.000000 0.000000 0.047055 0.000000 0.000000
# 5 0.000000 0.000000 0.000000 0.000000 0.047056 0.000000
# 6 0.000000 0.000000 0.000000 0.000000 0.000000 0.024873
#
#
# Mechanical properties :
#
#
# Convention : Reuss Voigt Hill
#
# Bulk Modulus (GPa) = 84.75174 86.39685 85.57430
# Shear Modulus (GPa) = 29.41009 32.37494 30.89252
#
# Velocity S-wave (km/s) = 3.80166 3.98869 3.89630
# Velocity P-wave (km/s) = 7.80505 7.97934 7.89267
#
# Compressibility (1/GPa) = 0.01179917
#
# Stress axis : x y z
#
# Youngs Moduli (GPa) = 106.40749 106.40829 93.89575
#
# Poissons Ratio (x) = 0.37049 0.25077
# Poissons Ratio (y) = 0.37049 0.25077
# Poissons Ratio (z) = 0.28419 0.28419
#
# Static dielectric constant tensor:
#      x y z
#    x 3.890450 0.000000 0.000000 
#    y 0.000000 3.890450 0.000000 
#    z 0.000000 0.000000 3.649560 
# 
# 
# High freq. dielectric constant tensor:
#      x y z
#    x 1.807020 0.000000 0.000000 
#    y 0.000000 1.807020 0.000000 
#    z 0.000000 0.000000 1.783160 
# 
# From -- ./inp_files/1536.got.cif
#   From: 2010.03.12/outbox.cif.g09.slc.cpg/sg117_1_cif.got.tgz:1536.got - 2010.04.14 02:19:01.
