data_PCOD8310799
_publ_section_title
;
Structure prediction by ZEFSAII (Michael W. Deem and Ramdas Pophale) SiO2 
 PCOD8310799
Probable space group: I -4 M 2
;
_chemical_formula_sum "Si O2"
_cell_formula_units_Z 88
_cell_length_a 17.366713
_cell_length_b 17.366713
_cell_length_c 16.016183
_cell_angle_alpha 90.000000
_cell_angle_beta 90.000000
_cell_angle_gamma 90.000000
_cell_volume 4830.524364
_symmetry_space_group_name_H-M "I -4 M 2"
_symmetry_group_IT_number 119
_symmetry_cell_setting 'tetragonal'
loop_
_space_group_symop_operation_xyz
x,y,z
y,-x,-z
-x,-y,z
-y,x,-z
y,x,-z
-y,-x,-z
-x,y,z
x,-y,z
1/2+x,1/2+y,1/2+z
1/2+y,1/2-x,1/2-z
1/2-x,1/2-y,1/2+z
1/2-y,1/2+x,1/2-z
1/2+y,1/2+x,1/2-z
1/2-y,1/2-x,1/2-z
1/2-x,1/2+y,1/2+z
1/2+x,1/2-y,1/2+z
loop_
_atom_site_type_symbol
_atom_site_label
_atom_site_fract_x
_atom_site_fract_y
_atom_site_fract_z
Si Si1 0.314259 0.185742 0.750000
Si Si2 0.413743 0.840327 0.594648
Si Si3 0.411606 0.412608 0.736099
Si Si4 0.673444 0.671414 0.870450
Si Si5 0.410000 0.771111 0.999563
Si Si6 0.832772 0.084912 0.928114
O O1 0.387589 0.175090 0.689747
O O2 0.308193 0.261541 0.805632
O O3 0.500000 0.877754 0.594617
O O4 0.355088 0.890998 0.539208
O O5 0.417864 0.757065 0.553743
O O6 0.500000 0.393773 0.756758
O O7 0.400047 0.500000 0.706248
O O8 0.363324 0.399376 0.820126
O O9 0.381066 0.356265 0.662455
O O10 0.750688 0.640582 0.917535
O O11 0.609636 0.704216 0.933852
O O12 0.500000 0.768893 0.021655
O O13 0.869962 0.000000 0.934672
O O14 0.861829 0.138172 0.000000
#
# Coordination Sequence:
#
# PCOD8310799 Si02
#       6
#     8  16  16  16  16  16
#     4  10  20  34  58  81 108 145 188 232 290 346
#     4  10  22  37  56  82 111 148 188 237 289 335
#     4  10  19  31  51  78 110 146 180 220 277 341
#     4  10  20  35  56  80 110 145 181 233 280 338
#     4  10  22  37  56  81 110 147 191 234 280 337
#     4  10  20  33  51  77 113 147 184 226 279 339
#
# _framework density 18.217483999999999
#
# number of rings (size 3 to 8) (size 9 to 14) (size 15 to 20)
#    0.000    2.000    1.818    1.636    5.091    4.182 
#    0.000    0.000    0.000    5.455    0.000    0.000 
#    0.000    0.000    0.000    0.000    0.000    0.000 
#
# Total GULP energy -545329.619587 kJ/mol
# GULP energy per Si atom -12393.854991 kJ/mol
# Density = 1.817602 g / cm^3
# Si number density = 18.217484 Si / 1000 Ang^3
#
#
#
# Elastic Constant Matrix: (Units=GPa)
#
#
# Indices 1 2 3 4 5 6 
#
# 1 87.1050 39.0819 40.4114 0.0000 0.0000 0.0000
# 2 39.0819 87.1047 40.4089 0.0000 0.0000 0.0000
# 3 40.4114 40.4089 95.6803 0.0000 0.0000 0.0000
# 4 0.0000 0.0000 0.0000 27.2219 0.0000 0.0000
# 5 0.0000 0.0000 0.0000 0.0000 27.2231 0.0000
# 6 0.0000 0.0000 0.0000 0.0000 0.0000 23.6445
#
#
#
# Elastic Compliance Matrix: (Units=1/GPa)
#
#
# Indices 1 2 3 4 5 6 
#
# 1 0.015844 -0.004980 -0.004588 0.000000 0.000000 0.000000
# 2 -0.004980 0.015843 -0.004588 0.000000 0.000000 0.000000
# 3 -0.004588 -0.004588 0.014327 0.000000 0.000000 0.000000
# 4 0.000000 0.000000 0.000000 0.036735 0.000000 0.000000
# 5 0.000000 0.000000 0.000000 0.000000 0.036734 0.000000
# 6 0.000000 0.000000 0.000000 0.000000 0.000000 0.042293
#
#
# Mechanical properties :
#
#
# Convention : Reuss Voigt Hill
#
# Bulk Modulus (GPa) = 56.49290 56.63270 56.56280
# Shear Modulus (GPa) = 25.51172 25.61708 25.56440
#
# Velocity S-wave (km/s) = 3.74625 3.75398 3.75011
# Velocity P-wave (km/s) = 7.05621 7.06713 7.06167
#
# Compressibility (1/GPa) = 0.01770134
#
# Stress axis : x y z
#
# Youngs Moduli (GPa) = 63.11720 63.11876 69.79836
#
# Poissons Ratio (x) = 0.31433 0.32027
# Poissons Ratio (y) = 0.31432 0.32022
# Poissons Ratio (z) = 0.28961 0.28957
#
# Static dielectric constant tensor:
#      x y z
#    x 3.354930 0.000000 0.000000 
#    y 0.000000 3.354950 0.000000 
#    z 0.000000 0.000000 3.535800 
# 
# 
# High freq. dielectric constant tensor:
#      x y z
#    x 1.698280 0.000000 0.000000 
#    y 0.000000 1.698280 0.000000 
#    z 0.000000 0.000000 1.707270 
# 
# From -- ./inp_files/5378.got.cif
#   From: 2010.03.12/outbox.cif.g09.slc.cpg/sg119_3_cif.got.tgz:5378.got - 2010.04.14 02:25:26.
