data_PCOD8310972
_publ_section_title
;
Structure prediction by ZEFSAII (Michael W. Deem and Ramdas Pophale) SiO2 
 PCOD8310972
Probable space group: I -4 M 2
;
_chemical_formula_sum "Si O2"
_cell_formula_units_Z 96
_cell_length_a 24.955304
_cell_length_b 24.955304
_cell_length_c 8.932001
_cell_angle_alpha 90.000000
_cell_angle_beta 90.000000
_cell_angle_gamma 90.000000
_cell_volume 5562.557233
_symmetry_space_group_name_H-M "I -4 M 2"
_symmetry_group_IT_number 119
_symmetry_cell_setting 'tetragonal'
loop_
_space_group_symop_operation_xyz
x,y,z
y,-x,-z
-x,-y,z
-y,x,-z
y,x,-z
-y,-x,-z
-x,y,z
x,-y,z
1/2+x,1/2+y,1/2+z
1/2+y,1/2-x,1/2-z
1/2-x,1/2-y,1/2+z
1/2-y,1/2+x,1/2-z
1/2+y,1/2+x,1/2-z
1/2-y,1/2-x,1/2-z
1/2-x,1/2+y,1/2+z
1/2+x,1/2-y,1/2+z
loop_
_atom_site_type_symbol
_atom_site_label
_atom_site_fract_x
_atom_site_fract_y
_atom_site_fract_z
Si Si1 0.722179 0.560075 0.842189
Si Si2 0.939462 0.774716 0.302994
Si Si3 0.245722 0.666346 0.328750
Si Si4 0.058872 0.881554 0.117836
Si Si5 0.603549 0.558762 0.862533
Si Si6 0.251567 0.833523 0.180939
O O1 0.745717 0.500000 0.805723
O O2 0.661451 0.563480 0.783959
O O3 0.753648 0.607342 0.756709
O O4 0.719943 0.568830 0.020302
O O5 0.892987 0.736987 0.239547
O O6 0.928229 0.829163 0.212885
O O7 0.000000 0.753813 0.268526
O O8 0.199804 0.699804 0.250000
O O9 0.237032 0.661878 0.505418
O O10 0.302969 0.694875 0.290357
O O11 0.059251 0.930058 0.236419
O O12 0.000000 0.879102 0.041321
O O13 0.106534 0.893467 0.000000
O O14 0.594290 0.500000 0.930794
O O15 0.599932 0.599932 0.000000
O O16 0.300068 0.800068 0.250000
#
# Coordination Sequence:
#
# PCOD8310972 Si02
#       6
#    16  16  16  16  16  16
#     4  10  21  36  53  74 100 133 171 213 262 318
#     4  10  21  36  53  73 101 134 169 212 264 320
#     4  10  21  35  54  80 106 135 172 215 266 315
#     4  11  23  35  46  64  91 128 173 223 274 315
#     4  11  21  33  48  66  89 126 174 220 267 312
#     4  10  21  35  55  80 104 135 173 217 264 313
#
# _framework density 17.25825
#
# number of rings (size 3 to 8) (size 9 to 14) (size 15 to 20)
#    0.000    1.667    1.667    3.000    4.667    4.000 
#    0.000    0.000    0.000    0.000    0.000    0.000 
#    0.000    0.667    0.000    7.000    0.000    3.000 
#
# Total GULP energy -594722.322285 kJ/mol
# GULP energy per Si atom -12390.048381 kJ/mol
# Density = 1.721897 g / cm^3
# Si number density = 17.258250 Si / 1000 Ang^3
#
#
#
# Elastic Constant Matrix: (Units=GPa)
#
#
# Indices 1 2 3 4 5 6 
#
# 1 93.9774 45.1754 43.6814 0.0000 0.0000 0.0000
# 2 45.1754 93.9777 43.6814 0.0000 0.0000 0.0000
# 3 43.6814 43.6814 90.9247 0.0000 0.0000 0.0000
# 4 0.0000 0.0000 0.0000 29.2308 0.0000 0.0000
# 5 0.0000 0.0000 0.0000 0.0000 29.2304 0.0000
# 6 0.0000 0.0000 0.0000 0.0000 0.0000 22.2069
#
#
#
# Elastic Compliance Matrix: (Units=1/GPa)
#
#
# Indices 1 2 3 4 5 6 
#
# 1 0.015390 -0.005101 -0.004943 0.000000 0.000000 0.000000
# 2 -0.005101 0.015390 -0.004943 0.000000 0.000000 0.000000
# 3 -0.004943 -0.004943 0.015748 0.000000 0.000000 0.000000
# 4 0.000000 0.000000 0.000000 0.034210 0.000000 0.000000
# 5 0.000000 0.000000 0.000000 0.000000 0.034211 0.000000
# 6 0.000000 0.000000 0.000000 0.000000 0.000000 0.045031
#
#
# Mechanical properties :
#
#
# Convention : Reuss Voigt Hill
#
# Bulk Modulus (GPa) = 60.40818 60.43959 60.42389
# Shear Modulus (GPa) = 25.57888 25.88973 25.73431
#
# Velocity S-wave (km/s) = 3.85401 3.87736 3.86571
# Velocity P-wave (km/s) = 7.40831 7.42576 7.41704
#
# Compressibility (1/GPa) = 0.01655405
#
# Stress axis : x y z
#
# Youngs Moduli (GPa) = 64.97546 64.97573 63.50076
#
# Poissons Ratio (x) = 0.33141 0.31391
# Poissons Ratio (y) = 0.33141 0.31391
# Poissons Ratio (z) = 0.32120 0.32120
#
# Static dielectric constant tensor:
#      x y z
#    x 3.090020 0.000000 0.000000 
#    y 0.000000 3.090020 0.000000 
#    z 0.000000 0.000000 3.299560 
# 
# 
# High freq. dielectric constant tensor:
#      x y z
#    x 1.638770 0.000000 0.000000 
#    y 0.000000 1.638770 0.000000 
#    z 0.000000 0.000000 1.684770 
# 
# From -- ./inp_files/2657.got.cif
#   From: 2010.03.12/outbox.cif.g09.slc.cpg/sg119_2_cif.got.tgz:2657.got - 2010.04.14 02:25:26.
