data_PCOD8310423
_publ_section_title
;
Structure prediction by ZEFSAII (Michael W. Deem and Ramdas Pophale) SiO2 
 PCOD8310423
Probable space group: P -4 B 2
;
_chemical_formula_sum "Si O2"
_cell_formula_units_Z 22
_cell_length_a 9.756230
_cell_length_b 9.756230
_cell_length_c 9.663951
_cell_angle_alpha 90.000000
_cell_angle_beta 90.000000
_cell_angle_gamma 90.000000
_cell_volume 919.853742
_symmetry_space_group_name_H-M "P -4 B 2"
_symmetry_group_IT_number 117
_symmetry_cell_setting 'tetragonal'
loop_
_space_group_symop_operation_xyz
x,y,z
y,-x,-z
-x,-y,z
-y,x,-z
1/2+y,1/2+x,-z
1/2-y,1/2-x,-z
1/2-x,1/2+y,z
1/2+x,1/2-y,z
loop_
_atom_site_type_symbol
_atom_site_label
_atom_site_fract_x
_atom_site_fract_y
_atom_site_fract_z
Si Si1 0.307976 0.678331 0.366656
Si Si2 0.500000 0.000000 0.000000
Si Si3 0.434566 0.753356 0.814030
Si Si4 0.500000 0.500000 0.500000
Si Si5 0.500000 0.500000 0.000000
O O1 0.226113 0.726113 0.500000
O O2 0.250620 0.531101 0.319640
O O3 0.301546 0.784711 0.239366
O O4 0.465147 0.637378 0.409133
O O5 0.497304 0.135159 0.910148
O O6 0.427629 0.611665 0.900335
#
# Coordination Sequence:
#
# PCOD8310423 Si02
#       5
#     8   2   8   2   2
#     4  12  27  47  80 111 151 202 249 318 391 450
#     4  12  28  44  66 116 148 208 260 314 364 452
#     4  12  27  46  78 107 159 199 264 309 382 456
#     4  12  26  52  72 118 156 198 240 316 414 436
#     4  12  26  52  78 108 156 218 248 314 380 448
#
# _framework density 23.916844999999999
#
# number of rings (size 3 to 8) (size 9 to 14) (size 15 to 20)
#    0.000    0.000    3.636    5.455    5.091    0.000 
#    0.000    0.000    0.000    0.000    0.000    0.000 
#    0.000    0.000    0.000    0.000    0.000    0.000 
#
# Total GULP energy -272713.403344 kJ/mol
# GULP energy per Si atom -12396.063788 kJ/mol
# Density = 2.386241 g / cm^3
# Si number density = 23.916845 Si / 1000 Ang^3
#
#
#
# Elastic Constant Matrix: (Units=GPa)
#
#
# Indices 1 2 3 4 5 6 
#
# 1 129.1913 53.7741 54.0589 0.0000 0.0000 0.0000
# 2 53.7741 129.1913 54.0589 0.0000 0.0000 0.0000
# 3 54.0589 54.0589 126.8343 0.0000 0.0000 0.0000
# 4 0.0000 0.0000 0.0000 738.6847 0.0000 0.0000
# 5 0.0000 0.0000 0.0000 0.0000 738.6847 0.0000
# 6 0.0000 0.0000 0.0000 0.0000 0.0000 45.9765
#
#
#
# Elastic Compliance Matrix: (Units=1/GPa)
#
#
# Indices 1 2 3 4 5 6 
#
# 1 0.010283 -0.002977 -0.003114 0.000000 0.000000 0.000000
# 2 -0.002977 0.010283 -0.003114 0.000000 0.000000 0.000000
# 3 -0.003114 -0.003114 0.010539 0.000000 0.000000 0.000000
# 4 0.000000 0.000000 0.000000 0.001354 0.000000 0.000000
# 5 0.000000 0.000000 0.000000 0.000000 0.001354 0.000000
# 6 0.000000 0.000000 0.000000 0.000000 0.000000 0.021750
#
#
# Mechanical properties :
#
#
# Convention : Reuss Voigt Hill
#
# Bulk Modulus (GPa) = 78.77352 78.77785 78.77569
# Shear Modulus (GPa) = 63.93715 319.55751 191.74733
#
# Velocity S-wave (km/s) = 5.17602 11.57160 8.96362
# Velocity P-wave (km/s) = 8.29032 14.54461 11.83797
#
# Compressibility (1/GPa) = 0.01269462
#
# Stress axis : x y z
#
# Youngs Moduli (GPa) = 97.25243 97.25243 94.88986
#
# Poissons Ratio (x) = 0.28953 0.29546
# Poissons Ratio (y) = 0.28953 0.29546
# Poissons Ratio (z) = 0.30282 0.30282
#
# Static dielectric constant tensor:
#      x y z
#    x 2.649130 0.000000 0.000000 
#    y 0.000000 2.649130 0.000000 
#    z 0.000000 0.000000 5.085390 
# 
# 
# High freq. dielectric constant tensor:
#      x y z
#    x 1.950760 0.000000 0.000000 
#    y 0.000000 1.950760 0.000000 
#    z 0.000000 0.000000 1.975030 
# 
# From -- ./inp_files/2258.got.cif
#   From: 2010.03.12/outbox.cif.g09.slc.cpg/sg117_2_cif.got.tgz:2258.got - 2010.04.14 02:19:01.
