data_PCOD8310836
_publ_section_title
;
Structure prediction by ZEFSAII (Michael W. Deem and Ramdas Pophale) SiO2 
 PCOD8310836
Probable space group: I -4 M 2
;
_chemical_formula_sum "Si O2"
_cell_formula_units_Z 112
_cell_length_a 14.198856
_cell_length_b 14.198856
_cell_length_c 30.366163
_cell_angle_alpha 90.000000
_cell_angle_beta 90.000000
_cell_angle_gamma 90.000000
_cell_volume 6122.046563
_symmetry_space_group_name_H-M "I -4 M 2"
_symmetry_group_IT_number 119
_symmetry_cell_setting 'tetragonal'
loop_
_space_group_symop_operation_xyz
x,y,z
y,-x,-z
-x,-y,z
-y,x,-z
y,x,-z
-y,-x,-z
-x,y,z
x,-y,z
1/2+x,1/2+y,1/2+z
1/2+y,1/2-x,1/2-z
1/2-x,1/2-y,1/2+z
1/2-y,1/2+x,1/2-z
1/2+y,1/2+x,1/2-z
1/2-y,1/2-x,1/2-z
1/2-x,1/2+y,1/2+z
1/2+x,1/2-y,1/2+z
loop_
_atom_site_type_symbol
_atom_site_label
_atom_site_fract_x
_atom_site_fract_y
_atom_site_fract_z
Si Si1 0.606665 0.389199 0.292968
Si Si2 0.103555 0.888353 0.890367
Si Si3 0.388116 0.713734 0.789746
Si Si4 0.391441 0.103916 0.835984
Si Si5 0.793509 0.392461 0.429210
Si Si6 0.216109 0.888189 0.538733
Si Si7 0.111789 0.894837 0.374864
O O1 0.500000 0.366129 0.278752
O O2 0.623493 0.500000 0.294412
O O3 0.627631 0.346958 0.341583
O O4 0.676379 0.344011 0.256246
O O5 0.183474 0.860742 0.925779
O O6 0.000000 0.851920 0.905973
O O7 0.100747 0.000000 0.885450
O O8 0.500000 0.703414 0.788211
O O9 0.358340 0.822270 0.798801
O O10 0.348904 0.650794 0.830057
O O11 0.500000 0.120933 0.848892
O O12 0.334364 0.116387 0.880418
O O13 0.374739 0.000000 0.815610
O O14 0.803967 0.500000 0.446576
O O15 0.847253 0.322686 0.462414
O O16 0.154501 0.845500 0.500000
O O17 0.168699 0.855267 0.584246
O O18 0.219556 0.000000 0.533117
O O19 0.000000 0.898880 0.374141
O O20 0.153561 0.000000 0.379859
#
# Coordination Sequence:
#
# PCOD8310836 Si02
#       7
#    16  16  16  16  16  16  16
#     4   8  13  22  39  64  93 125 164 210 256 296
#     4   8  15  29  49  72  95 123 165 216 264 303
#     4   9  14  22  38  63  93 127 167 208 245 286
#     4   9  16  26  41  61  90 132 176 209 239 288
#     4  10  19  33  54  74  96 132 175 213 254 311
#     4  11  22  36  53  75 102 132 166 206 258 321
#     4   9  16  26  42  65  93 126 163 202 247 298
#
# _framework density 18.294536000000001
#
# number of rings (size 3 to 8) (size 9 to 14) (size 15 to 20)
#    0.000    2.857    1.429    2.143    0.000    3.286 
#    0.000    1.429    0.000    3.429    0.000   12.000 
#    0.000    0.000    0.000    0.000    0.000    4.000 
#
# Total GULP energy -694006.703893 kJ/mol
# GULP energy per Si atom -12392.976855 kJ/mol
# Density = 1.825290 g / cm^3
# Si number density = 18.294536 Si / 1000 Ang^3
#
#
#
# Elastic Constant Matrix: (Units=GPa)
#
#
# Indices 1 2 3 4 5 6 
#
# 1 88.1785 30.6790 27.8939 0.0000 0.0000 0.0000
# 2 30.6790 88.1781 27.8938 0.0000 0.0000 0.0000
# 3 27.8939 27.8938 43.5703 0.0000 0.0000 0.0000
# 4 0.0000 0.0000 0.0000 22.7098 0.0000 0.0000
# 5 0.0000 0.0000 0.0000 0.0000 22.7098 0.0000
# 6 0.0000 0.0000 0.0000 0.0000 0.0000 12.3651
#
#
#
# Elastic Compliance Matrix: (Units=1/GPa)
#
#
# Indices 1 2 3 4 5 6 
#
# 1 0.014710 -0.002682 -0.007700 0.000000 0.000000 0.000000
# 2 -0.002682 0.014710 -0.007700 0.000000 0.000000 0.000000
# 3 -0.007700 -0.007700 0.032811 0.000000 0.000000 0.000000
# 4 0.000000 0.000000 0.000000 0.044034 0.000000 0.000000
# 5 0.000000 0.000000 0.000000 0.000000 0.044034 0.000000
# 6 0.000000 0.000000 0.000000 0.000000 0.000000 0.080873
#
#
# Mechanical properties :
#
#
# Convention : Reuss Voigt Hill
#
# Bulk Modulus (GPa) = 38.36493 43.65115 41.00804
# Shear Modulus (GPa) = 18.11440 20.45428 19.28434
#
# Velocity S-wave (km/s) = 3.15008 3.34736 3.25022
# Velocity P-wave (km/s) = 5.85209 6.23312 6.04561
#
# Compressibility (1/GPa) = 0.02606547
#
# Stress axis : x y z
#
# Youngs Moduli (GPa) = 67.98303 67.98277 30.47780
#
# Poissons Ratio (x) = 0.18233 0.23468
# Poissons Ratio (y) = 0.18233 0.23468
# Poissons Ratio (z) = 0.52348 0.52348
#
# Static dielectric constant tensor:
#      x y z
#    x 3.431140 0.000000 0.000000 
#    y 0.000000 3.431140 0.000000 
#    z 0.000000 0.000000 3.293310 
# 
# 
# High freq. dielectric constant tensor:
#      x y z
#    x 1.684140 0.000000 0.000000 
#    y 0.000000 1.684140 0.000000 
#    z 0.000000 0.000000 1.691330 
# 
# From -- ./inp_files/10460.got.cif
#   From: 2010.03.12/outbox.cif.g09.slc.cpg/sg119_6_cif.got.tgz:10460.got - 2010.04.14 02:25:26.
