data_PCOD8310156
_publ_section_title
;
Structure prediction by ZEFSAII (Michael W. Deem and Ramdas Pophale) SiO2 
 PCOD8310156
Probable space group: P -4 C 2
;
_chemical_formula_sum "Si O2"
_cell_formula_units_Z 40
_cell_length_a 15.103393
_cell_length_b 15.103393
_cell_length_c 9.040006
_cell_angle_alpha 90.000000
_cell_angle_beta 90.000000
_cell_angle_gamma 90.000000
_cell_volume 2062.138189
_symmetry_space_group_name_H-M "P -4 C 2"
_symmetry_group_IT_number 116
_symmetry_cell_setting 'tetragonal'
loop_
_space_group_symop_operation_xyz
x,y,z
y,-x,-z
-x,-y,z
-y,x,-z
y,x,1/2-z
-y,-x,1/2-z
-x,y,1/2+z
x,-y,1/2+z
loop_
_atom_site_type_symbol
_atom_site_label
_atom_site_fract_x
_atom_site_fract_y
_atom_site_fract_z
Si Si1 0.638822 0.497900 0.476691
Si Si2 0.321639 0.994839 0.495839
Si Si3 0.567459 0.924349 0.745351
Si Si4 0.761565 0.445703 0.727280
Si Si5 0.124504 0.267856 0.243655
O O1 0.572951 0.416935 0.433969
O O2 0.723477 0.460161 0.564028
O O3 0.676299 0.547330 0.332648
O O4 0.361468 0.924837 0.378141
O O5 0.265746 0.938364 0.612720
O O6 0.394524 0.051748 0.584484
O O7 0.263675 0.065774 0.404968
O O8 0.523981 0.828954 0.733365
O O9 0.500000 0.000000 0.794331
O O10 0.810971 0.352512 0.744214
O O11 0.178669 0.178669 0.250000
#
# Coordination Sequence:
#
# PCOD8310156 Si02
#       5
#     8   8   8   8   8
#     4  11  24  40  53  74 116 168 209 240 276 323
#     4  10  21  38  60  87 122 154 186 229 304 358
#     4  11  20  33  59  89 119 153 185 235 300 367
#     4  12  22  34  61  85 113 149 202 243 288 343
#     4  11  23  39  61  90 119 146 190 245 297 354
#
# _framework density 19.397344
#
# number of rings (size 3 to 8) (size 9 to 14) (size 15 to 20)
#    0.000    1.000    4.000    5.400    0.000    1.600 
#    0.000    6.000    0.000    1.800    0.000    0.000 
#    0.000    0.000    0.000    0.000    0.000    0.000 
#
# Total GULP energy -495963.715698 kJ/mol
# GULP energy per Si atom -12399.092892 kJ/mol
# Density = 1.935319 g / cm^3
# Si number density = 19.397344 Si / 1000 Ang^3
#
#
#
# Elastic Constant Matrix: (Units=GPa)
#
#
# Indices 1 2 3 4 5 6 
#
# 1 97.7657 55.5062 35.4906 0.0000 0.0000 0.0000
# 2 55.5062 97.7657 35.4906 0.0000 0.0000 0.0000
# 3 35.4906 35.4906 101.9184 0.0000 0.0000 0.0000
# 4 0.0000 0.0000 0.0000 16.1204 0.0000 0.0000
# 5 0.0000 0.0000 0.0000 0.0000 16.1204 0.0000
# 6 0.0000 0.0000 0.0000 0.0000 0.0000 40.5106
#
#
#
# Elastic Compliance Matrix: (Units=1/GPa)
#
#
# Indices 1 2 3 4 5 6 
#
# 1 0.015721 -0.007942 -0.002709 0.000000 0.000000 0.000000
# 2 -0.007942 0.015721 -0.002709 0.000000 0.000000 0.000000
# 3 -0.002709 -0.002709 0.011698 0.000000 0.000000 0.000000
# 4 0.000000 0.000000 0.000000 0.062033 0.000000 0.000000
# 5 0.000000 0.000000 0.000000 0.000000 0.062033 0.000000
# 6 0.000000 0.000000 0.000000 0.000000 0.000000 0.024685
#
#
# Mechanical properties :
#
#
# Convention : Reuss Voigt Hill
#
# Bulk Modulus (GPa) = 60.89838 61.15828 61.02833
# Shear Modulus (GPa) = 22.31295 25.94778 24.13036
#
# Velocity S-wave (km/s) = 3.39530 3.66142 3.53087
# Velocity P-wave (km/s) = 6.84355 7.03366 6.93925
#
# Compressibility (1/GPa) = 0.01642080
#
# Stress axis : x y z
#
# Youngs Moduli (GPa) = 63.60893 63.60893 85.48254
#
# Poissons Ratio (x) = 0.50520 0.23155
# Poissons Ratio (y) = 0.50520 0.23155
# Poissons Ratio (z) = 0.17230 0.17230
#
# Static dielectric constant tensor:
#      x y z
#    x 3.620050 0.000000 0.000000 
#    y 0.000000 3.620050 0.000000 
#    z 0.000000 0.000000 3.577940 
# 
# 
# High freq. dielectric constant tensor:
#      x y z
#    x 1.741580 0.000000 0.000000 
#    y 0.000000 1.741580 0.000000 
#    z 0.000000 0.000000 1.769060 
# 
# From -- ./inp_files/792.got.cif
#   From: 2010.03.12/outbox.cif.g09.slc.cpg/sg116_1_cif.got.tgz:792.got - 2010.04.14 02:15:44.
