data_PCOD8310188
_publ_section_title
;
Structure prediction by ZEFSAII (Michael W. Deem and Ramdas Pophale) SiO2 
 PCOD8310188
Probable space group: P -4 C 2
;
_chemical_formula_sum "Si O2"
_cell_formula_units_Z 46
_cell_length_a 15.413474
_cell_length_b 15.413474
_cell_length_c 10.074275
_cell_angle_alpha 90.000000
_cell_angle_beta 90.000000
_cell_angle_gamma 90.000000
_cell_volume 2393.397704
_symmetry_space_group_name_H-M "P -4 C 2"
_symmetry_group_IT_number 116
_symmetry_cell_setting 'tetragonal'
loop_
_space_group_symop_operation_xyz
x,y,z
y,-x,-z
-x,-y,z
-y,x,-z
y,x,1/2-z
-y,-x,1/2-z
-x,y,1/2+z
x,-y,1/2+z
loop_
_atom_site_type_symbol
_atom_site_label
_atom_site_fract_x
_atom_site_fract_y
_atom_site_fract_z
Si Si1 0.500000 0.500000 0.250000
Si Si2 0.827261 0.548720 0.795883
Si Si3 0.735991 0.264009 0.750000
Si Si4 0.971951 0.402878 0.098462
Si Si5 0.359616 0.901162 0.672883
Si Si6 0.378495 0.277929 0.503959
Si Si7 0.328627 0.456385 0.616424
O O1 0.498914 0.580482 0.347899
O O2 0.883460 0.592825 0.681442
O O3 0.863827 0.456712 0.844366
O O4 0.730220 0.534640 0.745247
O O5 0.814186 0.620150 0.915572
O O6 0.718337 0.170480 0.680082
O O7 0.732246 0.340267 0.642270
O O8 0.000000 0.500000 0.058485
O O9 0.042072 0.355082 0.192751
O O10 0.957709 0.347446 0.962669
O O11 0.329199 0.355866 0.576196
O O12 0.482462 0.294446 0.500517
#
# Coordination Sequence:
#
# PCOD8310188 Si02
#       7
#     2   8   4   8   8   8   8
#     4  12  22  38  44  70 104 176 230 272 294 350
#     4  11  21  38  58  81 115 157 222 261 310 360
#     4  12  25  38  60  89 128 157 202 267 330 368
#     4  10  22  40  66  90 116 162 214 261 316 383
#     4  11  24  40  63  90 121 160 205 264 319 384
#     4  12  23  36  53  77 118 167 213 269 304 358
#     4  12  23  35  51  73 112 169 224 264 302 357
#
# _framework density 19.219539000000001
#
# number of rings (size 3 to 8) (size 9 to 14) (size 15 to 20)
#    0.000    0.696    3.478    6.261    4.870    0.000 
#    0.000    0.000    0.000    0.000    0.000    0.000 
#    0.000    2.087    0.000    0.000    0.000    0.000 
#
# Total GULP energy -570090.211302 kJ/mol
# GULP energy per Si atom -12393.265463 kJ/mol
# Density = 1.917579 g / cm^3
# Si number density = 19.219539 Si / 1000 Ang^3
#
#
#
# Elastic Constant Matrix: (Units=GPa)
#
#
# Indices 1 2 3 4 5 6 
#
# 1 70.4531 26.3795 41.5900 0.0000 0.0000 0.0000
# 2 26.3795 70.4527 41.5899 0.0000 0.0000 0.0000
# 3 41.5900 41.5899 121.6747 0.0000 0.0000 0.0000
# 4 0.0000 0.0000 0.0000 32.5571 0.0000 0.0000
# 5 0.0000 0.0000 0.0000 0.0000 32.5569 0.0000
# 6 0.0000 0.0000 0.0000 0.0000 0.0000 18.7317
#
#
#
# Elastic Compliance Matrix: (Units=1/GPa)
#
#
# Indices 1 2 3 4 5 6 
#
# 1 0.018655 -0.004035 -0.004997 0.000000 0.000000 0.000000
# 2 -0.004035 0.018655 -0.004997 0.000000 0.000000 0.000000
# 3 -0.004997 -0.004997 0.011635 0.000000 0.000000 0.000000
# 4 0.000000 0.000000 0.000000 0.030715 0.000000 0.000000
# 5 0.000000 0.000000 0.000000 0.000000 0.030715 0.000000
# 6 0.000000 0.000000 0.000000 0.000000 0.000000 0.053386
#
#
# Mechanical properties :
#
#
# Convention : Reuss Voigt Hill
#
# Bulk Modulus (GPa) = 47.88004 53.52216 50.70110
# Shear Modulus (GPa) = 25.15332 26.97052 26.06192
#
# Velocity S-wave (km/s) = 3.62157 3.75011 3.68640
# Velocity P-wave (km/s) = 6.51567 6.83076 6.67508
#
# Compressibility (1/GPa) = 0.02088553
#
# Stress axis : x y z
#
# Youngs Moduli (GPa) = 53.60616 53.60586 85.94848
#
# Poissons Ratio (x) = 0.21629 0.42950
# Poissons Ratio (y) = 0.21629 0.42951
# Poissons Ratio (z) = 0.26788 0.26788
#
# Static dielectric constant tensor:
#      x y z
#    x 3.590800 0.000000 0.000000 
#    y 0.000000 3.590780 0.000000 
#    z 0.000000 0.000000 3.889040 
# 
# 
# High freq. dielectric constant tensor:
#      x y z
#    x 1.713410 0.000000 0.000000 
#    y 0.000000 1.713410 0.000000 
#    z 0.000000 0.000000 1.781440 
# 
# From -- ./inp_files/989.got.cif
#   From: 2010.03.12/outbox.cif.g09.slc.cpg/sg116_1_cif.got.tgz:989.got - 2010.04.14 02:15:44.
