data_PCOD8310442
_publ_section_title
;
Structure prediction by ZEFSAII (Michael W. Deem and Ramdas Pophale) SiO2 
 PCOD8310442
Probable space group: P -4 N 2
;
_chemical_formula_sum "Si O2"
_cell_formula_units_Z 64
_cell_length_a 11.943422
_cell_length_b 11.943422
_cell_length_c 24.634656
_cell_angle_alpha 90.000000
_cell_angle_beta 90.000000
_cell_angle_gamma 90.000000
_cell_volume 3514.018612
_symmetry_space_group_name_H-M "P -4 N 2"
_symmetry_group_IT_number 118
_symmetry_cell_setting 'tetragonal'
loop_
_space_group_symop_operation_xyz
x,y,z
y,-x,-z
-x,-y,z
-y,x,-z
1/2+y,1/2+x,1/2-z
1/2-y,1/2-x,1/2-z
1/2-x,1/2+y,1/2+z
1/2+x,1/2-y,1/2+z
loop_
_atom_site_type_symbol
_atom_site_label
_atom_site_fract_x
_atom_site_fract_y
_atom_site_fract_z
Si Si1 0.129817 0.820473 0.660253
Si Si2 0.179370 0.973430 0.503236
Si Si3 0.210902 0.037032 0.619015
Si Si4 0.651948 0.237249 0.307804
Si Si5 0.619455 0.450504 0.726931
Si Si6 0.130103 0.288635 0.191519
Si Si7 0.921369 0.738303 0.607858
Si Si8 0.392652 0.138493 0.687568
O O1 0.085426 0.808097 0.721163
O O2 0.261516 0.791593 0.652604
O O3 0.051726 0.738671 0.625025
O O4 0.122063 0.948880 0.642112
O O5 0.266618 0.923404 0.458228
O O6 0.085242 0.881658 0.519247
O O7 0.246621 0.006254 0.557488
O O8 0.139564 0.148460 0.625376
O O9 0.325385 0.042994 0.654183
O O10 0.677256 0.177256 0.250000
O O11 0.534683 0.301987 0.306608
O O12 0.643989 0.147320 0.358192
O O13 0.744406 0.330242 0.320919
O O14 0.500000 0.500000 0.744106
O O15 0.593166 0.340524 0.692445
O O16 0.161593 0.338408 0.250000
O O17 0.021793 0.354400 0.167547
O O18 0.395666 0.104335 0.750000
#
# Coordination Sequence:
#
# PCOD8310442 Si02
#       8
#     8   8   8   8   8   8   8   8
#     4  11  20  30  48  76 107 144 172 212 272 333
#     4   9  16  28  48  78 108 135 176 223 272 329
#     4  10  19  29  51  79 108 146 178 213 278 332
#     4  10  19  30  51  79 101 139 186 222 266 323
#     4  11  19  33  53  71 106 144 184 220 259 331
#     4  10  22  33  47  75 107 143 181 218 272 328
#     4  10  18  31  49  77 111 135 181 223 268 326
#     4  10  19  32  47  76 111 142 173 220 266 328
#
# _framework density 18.212765999999998
#
# number of rings (size 3 to 8) (size 9 to 14) (size 15 to 20)
#    0.000    1.875    3.750    2.625    1.750    1.750 
#    0.000    0.625    0.000    0.000    6.500    0.000 
#    0.000    0.000    0.000    0.000    0.000    0.000 
#
# Total GULP energy -793059.615188 kJ/mol
# GULP energy per Si atom -12391.556487 kJ/mol
# Density = 1.817131 g / cm^3
# Si number density = 18.212766 Si / 1000 Ang^3
#
#
#
# Elastic Constant Matrix: (Units=GPa)
#
#
# Indices 1 2 3 4 5 6 
#
# 1 73.7849 18.2953 24.6594 0.0000 0.0000 0.0000
# 2 18.2953 73.7846 24.6595 0.0000 0.0000 0.0000
# 3 24.6594 24.6595 86.8023 0.0000 0.0000 0.0000
# 4 0.0000 0.0000 0.0000 20.1967 0.0000 0.0000
# 5 0.0000 0.0000 0.0000 0.0000 20.1967 0.0000
# 6 0.0000 0.0000 0.0000 0.0000 0.0000 23.2356
#
#
#
# Elastic Compliance Matrix: (Units=1/GPa)
#
#
# Indices 1 2 3 4 5 6 
#
# 1 0.015415 -0.002606 -0.003639 0.000000 0.000000 0.000000
# 2 -0.002606 0.015415 -0.003639 0.000000 0.000000 0.000000
# 3 -0.003639 -0.003639 0.013588 0.000000 0.000000 0.000000
# 4 0.000000 0.000000 0.000000 0.049513 0.000000 0.000000
# 5 0.000000 0.000000 0.000000 0.000000 0.049513 0.000000
# 6 0.000000 0.000000 0.000000 0.000000 0.000000 0.043037
#
#
# Mechanical properties :
#
#
# Convention : Reuss Voigt Hill
#
# Bulk Modulus (GPa) = 40.56696 41.06668 40.81682
# Shear Modulus (GPa) = 23.31361 23.84297 23.57829
#
# Velocity S-wave (km/s) = 3.58169 3.62212 3.60196
# Velocity P-wave (km/s) = 6.27909 6.33169 6.30544
#
# Compressibility (1/GPa) = 0.02465060
#
# Stress axis : x y z
#
# Youngs Moduli (GPa) = 64.87082 64.87042 73.59447
#
# Poissons Ratio (x) = 0.16906 0.26780
# Poissons Ratio (y) = 0.16906 0.26781
# Poissons Ratio (z) = 0.23606 0.23606
#
# Static dielectric constant tensor:
#      x y z
#    x 3.363580 0.000000 0.000000 
#    y 0.000000 3.363580 0.000000 
#    z 0.000000 0.000000 3.221820 
# 
# 
# High freq. dielectric constant tensor:
#      x y z
#    x 1.694180 0.000000 0.000000 
#    y 0.000000 1.694180 0.000000 
#    z 0.000000 0.000000 1.673960 
# 
# From -- ./inp_files/6579.got.cif
#   From: 2010.03.12/outbox.cif.g09.slc.cpg/sg118_4_cif.got.tgz:6579.got - 2010.04.14 02:21:17.
