data_PCOD8310831
_publ_section_title
;
Structure prediction by ZEFSAII (Michael W. Deem and Ramdas Pophale) SiO2 
 PCOD8310831
Probable space group: I -4 M 2
;
_chemical_formula_sum "Si O2"
_cell_formula_units_Z 112
_cell_length_a 13.829521
_cell_length_b 13.829521
_cell_length_c 32.344062
_cell_angle_alpha 90.000000
_cell_angle_beta 90.000000
_cell_angle_gamma 90.000000
_cell_volume 6185.984637
_symmetry_space_group_name_H-M "I -4 M 2"
_symmetry_group_IT_number 119
_symmetry_cell_setting 'tetragonal'
loop_
_space_group_symop_operation_xyz
x,y,z
y,-x,-z
-x,-y,z
-y,x,-z
y,x,-z
-y,-x,-z
-x,y,z
x,-y,z
1/2+x,1/2+y,1/2+z
1/2+y,1/2-x,1/2-z
1/2-x,1/2-y,1/2+z
1/2-y,1/2+x,1/2-z
1/2+y,1/2+x,1/2-z
1/2-y,1/2-x,1/2-z
1/2-x,1/2+y,1/2+z
1/2+x,1/2-y,1/2+z
loop_
_atom_site_type_symbol
_atom_site_label
_atom_site_fract_x
_atom_site_fract_y
_atom_site_fract_z
Si Si1 0.103988 0.109339 0.289359
Si Si2 0.203419 0.193204 0.216627
Si Si3 0.785582 0.388634 0.598734
Si Si4 0.611791 0.766799 0.494877
Si Si5 0.893397 0.613643 0.430013
Si Si6 0.612653 0.727100 0.631134
Si Si7 0.613013 0.201959 0.171142
O O1 0.143282 0.113601 0.242038
O O2 0.185288 0.143708 0.322320
O O3 0.000000 0.164831 0.294292
O O4 0.083220 0.000000 0.299687
O O5 0.220829 0.279172 0.250000
O O6 0.139112 0.234227 0.179297
O O7 0.307426 0.148114 0.200723
O O8 0.795242 0.500000 0.611392
O O9 0.810108 0.372358 0.550773
O O10 0.676333 0.355799 0.609209
O O11 0.866222 0.328030 0.624046
O O12 0.665694 0.665694 0.500000
O O13 0.500000 0.743888 0.503480
O O14 0.653590 0.843199 0.528138
O O15 0.904651 0.500000 0.434709
O O16 0.829418 0.639076 0.389938
O O17 0.000000 0.661054 0.425172
O O18 0.500000 0.700794 0.625111
O O19 0.500000 0.181437 0.182869
#
# Coordination Sequence:
#
# PCOD8310831 Si02
#       7
#    16  16  16  16  16  16  16
#     4   9  17  32  55  78 101 135 178 221 266 317
#     4   9  18  32  49  73 104 133 169 218 265 313
#     4  10  21  34  51  78 110 143 178 218 263 319
#     4  10  19  33  54  77 108 142 175 216 266 323
#     4   9  18  33  52  74 101 137 179 219 263 319
#     4  10  19  33  52  75 105 139 173 217 268 321
#     4   9  19  35  52  73 105 143 182 223 267 320
#
# _framework density 18.105445
#
# number of rings (size 3 to 8) (size 9 to 14) (size 15 to 20)
#    0.000    2.571    1.429    0.429    0.000    3.571 
#    0.000   13.571    0.000    0.857    0.000    0.000 
#    0.000    1.429    0.000    0.000    0.000    0.000 
#
# Total GULP energy -693765.089988 kJ/mol
# GULP energy per Si atom -12388.662321 kJ/mol
# Density = 1.806424 g / cm^3
# Si number density = 18.105445 Si / 1000 Ang^3
#
#
#
# Elastic Constant Matrix: (Units=GPa)
#
#
# Indices 1 2 3 4 5 6 
#
# 1 87.9271 25.3209 39.1245 0.0000 0.0000 0.0000
# 2 25.3209 87.9272 39.1248 0.0000 0.0000 0.0000
# 3 39.1245 39.1248 114.5694 0.0000 0.0000 0.0000
# 4 0.0000 0.0000 0.0000 24.7028 0.0000 0.0000
# 5 0.0000 0.0000 0.0000 0.0000 24.7028 0.0000
# 6 0.0000 0.0000 0.0000 0.0000 0.0000 16.0275
#
#
#
# Elastic Compliance Matrix: (Units=1/GPa)
#
#
# Indices 1 2 3 4 5 6 
#
# 1 0.013765 -0.002208 -0.003947 0.000000 0.000000 0.000000
# 2 -0.002208 0.013765 -0.003947 0.000000 0.000000 0.000000
# 3 -0.003947 -0.003947 0.011424 0.000000 0.000000 0.000000
# 4 0.000000 0.000000 0.000000 0.040481 0.000000 0.000000
# 5 0.000000 0.000000 0.000000 0.000000 0.040481 0.000000
# 6 0.000000 0.000000 0.000000 0.000000 0.000000 0.062393
#
#
# Mechanical properties :
#
#
# Convention : Reuss Voigt Hill
#
# Bulk Modulus (GPa) = 53.32927 55.28491 54.30709
# Shear Modulus (GPa) = 23.95073 25.54353 24.74713
#
# Velocity S-wave (km/s) = 3.64104 3.76016 3.70108
# Velocity P-wave (km/s) = 6.86986 7.03228 6.95155
#
# Compressibility (1/GPa) = 0.01875143
#
# Stress axis : x y z
#
# Youngs Moduli (GPa) = 72.64810 72.64791 87.53600
#
# Poissons Ratio (x) = 0.16039 0.34548
# Poissons Ratio (y) = 0.16039 0.34548
# Poissons Ratio (z) = 0.28672 0.28672
#
# Static dielectric constant tensor:
#      x y z
#    x 3.614260 0.000000 0.000000 
#    y 0.000000 3.614270 0.000000 
#    z 0.000000 0.000000 3.509730 
# 
# 
# High freq. dielectric constant tensor:
#      x y z
#    x 1.684160 0.000000 0.000000 
#    y 0.000000 1.684160 0.000000 
#    z 0.000000 0.000000 1.707540 
# 
# From -- ./inp_files/10511.got.cif
#   From: 2010.03.12/outbox.cif.g09.slc.cpg/sg119_6_cif.got.tgz:10511.got - 2010.04.14 02:25:26.
