data_PCOD8310946
_publ_section_title
;
Structure prediction by ZEFSAII (Michael W. Deem and Ramdas Pophale) SiO2 
 PCOD8310946
Probable space group: I -4 M 2
;
_chemical_formula_sum "Si O2"
_cell_formula_units_Z 112
_cell_length_a 14.420164
_cell_length_b 14.420164
_cell_length_c 26.940086
_cell_angle_alpha 90.000000
_cell_angle_beta 90.000000
_cell_angle_gamma 90.000000
_cell_volume 5601.951919
_symmetry_space_group_name_H-M "I -4 M 2"
_symmetry_group_IT_number 119
_symmetry_cell_setting 'tetragonal'
loop_
_space_group_symop_operation_xyz
x,y,z
y,-x,-z
-x,-y,z
-y,x,-z
y,x,-z
-y,-x,-z
-x,y,z
x,-y,z
1/2+x,1/2+y,1/2+z
1/2+y,1/2-x,1/2-z
1/2-x,1/2-y,1/2+z
1/2-y,1/2+x,1/2-z
1/2+y,1/2+x,1/2-z
1/2-y,1/2-x,1/2-z
1/2-x,1/2+y,1/2+z
1/2+x,1/2-y,1/2+z
loop_
_atom_site_type_symbol
_atom_site_label
_atom_site_fract_x
_atom_site_fract_y
_atom_site_fract_z
Si Si1 0.603456 0.103290 0.529523
Si Si2 0.103925 0.772902 0.535439
Si Si3 0.199665 0.395831 0.861771
Si Si4 0.103035 0.831572 0.729874
Si Si5 0.212764 0.895460 0.156628
Si Si6 0.296882 0.103825 0.705228
Si Si7 0.222384 0.608177 0.375889
O O1 0.500000 0.113718 0.509112
O O2 0.667170 0.116774 0.481803
O O3 0.623784 0.183657 0.569169
O O4 0.618377 0.000000 0.553258
O O5 0.164819 0.835182 0.500000
O O6 0.129885 0.773265 0.594013
O O7 0.000000 0.809484 0.528093
O O8 0.159626 0.500000 0.871952
O O9 0.247589 0.393858 0.808522
O O10 0.119630 0.318689 0.860952
O O11 0.123049 0.792449 0.784553
O O12 0.186085 0.900875 0.715376
O O13 0.000000 0.879198 0.727711
O O14 0.140624 0.829078 0.127547
O O15 0.183679 0.000000 0.143330
O O16 0.351004 0.148996 0.750000
O O17 0.321717 0.163433 0.657433
O O18 0.332839 0.000000 0.697237
O O19 0.213223 0.500000 0.359534
#
# Coordination Sequence:
#
# PCOD8310946 Si02
#       7
#    16  16  16  16  16  16  16
#     4   9  19  37  60  84 111 145 186 233 287 345
#     4  10  21  36  57  84 115 151 189 234 287 342
#     4  10  20  37  60  85 115 148 191 245 293 340
#     4  10  21  39  60  81 115 157 194 234 283 343
#     4  11  22  37  59  84 114 154 195 233 285 345
#     4  12  23  36  57  84 116 152 193 242 288 336
#     4  11  22  38  58  83 116 153 191 234 286 343
#
# _framework density 19.993030000000001
#
# number of rings (size 3 to 8) (size 9 to 14) (size 15 to 20)
#    0.000    1.571    2.857    2.143    0.000    3.143 
#    0.000    2.857    0.000    5.143    0.000    0.000 
#    0.000    3.429    0.000    0.000    0.000    0.000 
#
# Total GULP energy -694148.395129 kJ/mol
# GULP energy per Si atom -12395.507056 kJ/mol
# Density = 1.994753 g / cm^3
# Si number density = 19.993030 Si / 1000 Ang^3
#
#
#
# Elastic Constant Matrix: (Units=GPa)
#
#
# Indices 1 2 3 4 5 6 
#
# 1 95.0960 31.2664 18.6744 0.0000 0.0000 0.0000
# 2 31.2664 95.0990 18.6761 0.0000 0.0000 0.0000
# 3 18.6744 18.6761 58.0484 0.0000 0.0000 0.0000
# 4 0.0000 0.0000 0.0000 21.6613 0.0000 0.0000
# 5 0.0000 0.0000 0.0000 0.0000 21.6617 0.0000
# 6 0.0000 0.0000 0.0000 0.0000 0.0000 21.9938
#
#
#
# Elastic Compliance Matrix: (Units=1/GPa)
#
#
# Indices 1 2 3 4 5 6 
#
# 1 0.012206 -0.003461 -0.002813 0.000000 0.000000 0.000000
# 2 -0.003461 0.012206 -0.002814 0.000000 0.000000 0.000000
# 3 -0.002813 -0.002814 0.019037 0.000000 0.000000 0.000000
# 4 0.000000 0.000000 0.000000 0.046165 0.000000 0.000000
# 5 0.000000 0.000000 0.000000 0.000000 0.046165 0.000000
# 6 0.000000 0.000000 0.000000 0.000000 0.000000 0.045467
#
#
# Mechanical properties :
#
#
# Convention : Reuss Voigt Hill
#
# Bulk Modulus (GPa) = 39.56667 42.83080 41.19874
# Shear Modulus (GPa) = 24.05628 25.03845 24.54736
#
# Velocity S-wave (km/s) = 3.47253 3.54271 3.50779
# Velocity P-wave (km/s) = 5.99259 6.18092 6.08748
#
# Compressibility (1/GPa) = 0.02527380
#
# Stress axis : x y z
#
# Youngs Moduli (GPa) = 81.92738 81.92915 52.52846
#
# Poissons Ratio (x) = 0.28352 0.14778
# Poissons Ratio (y) = 0.28351 0.14780
# Poissons Ratio (z) = 0.23049 0.23052
#
# Static dielectric constant tensor:
#      x y z
#    x 3.841970 0.000000 0.000000 
#    y 0.000000 3.841950 0.000000 
#    z 0.000000 0.000000 3.701320 
# 
# 
# High freq. dielectric constant tensor:
#      x y z
#    x 1.776040 0.000000 0.000000 
#    y 0.000000 1.776040 0.000000 
#    z 0.000000 0.000000 1.778880 
# 
# From -- ./inp_files/8807.got.cif
#   From: 2010.03.12/outbox.cif.g09.slc.cpg/sg119_5_cif.got.tgz:8807.got - 2010.04.14 02:25:26.
