data_PCOD8310599
_publ_section_title
;
Structure prediction by ZEFSAII (Michael W. Deem and Ramdas Pophale) SiO2 
 PCOD8310599
Probable space group: P -4 N 2
;
_chemical_formula_sum "Si O2"
_cell_formula_units_Z 20
_cell_length_a 11.991005
_cell_length_b 11.991005
_cell_length_c 6.846151
_cell_angle_alpha 90.000000
_cell_angle_beta 90.000000
_cell_angle_gamma 90.000000
_cell_volume 984.368351
_symmetry_space_group_name_H-M "P -4 N 2"
_symmetry_group_IT_number 118
_symmetry_cell_setting 'tetragonal'
loop_
_space_group_symop_operation_xyz
x,y,z
y,-x,-z
-x,-y,z
-y,x,-z
1/2+y,1/2+x,1/2-z
1/2-y,1/2-x,1/2-z
1/2-x,1/2+y,1/2+z
1/2+x,1/2-y,1/2+z
loop_
_atom_site_type_symbol
_atom_site_label
_atom_site_fract_x
_atom_site_fract_y
_atom_site_fract_z
Si Si1 0.398493 0.353930 0.462831
Si Si2 0.398460 0.646044 0.962828
Si Si3 0.250022 0.249979 0.750000
O O1 0.355204 0.468628 0.563423
O O2 0.342999 0.342954 0.249998
O O3 0.357191 0.253329 0.604075
O O4 0.531339 0.644798 0.936562
O O5 0.357142 0.746641 0.104062
#
# Coordination Sequence:
#
# PCOD8310599 Si02
#       3
#     8   8   4
#     4  11  20  38  62  88 116 145 197 250 283 330
#     4  11  20  38  62  88 116 145 197 250 283 330
#     4  12  22  34  64  88 112 162 182 242 296 332
#
# _framework density 20.317596999999999
#
# number of rings (size 3 to 8) (size 9 to 14) (size 15 to 20)
#    0.000    0.800    8.000    3.600    0.000    0.000 
#    0.000    0.000    0.000    7.200    0.000    0.000 
#    0.000    0.000    0.000    0.000    0.000    0.000 
#
# Total GULP energy -247805.045847 kJ/mol
# GULP energy per Si atom -12390.252292 kJ/mol
# Density = 2.027135 g / cm^3
# Si number density = 20.317597 Si / 1000 Ang^3
#
#
#
# Elastic Constant Matrix: (Units=GPa)
#
#
# Indices 1 2 3 4 5 6 
#
# 1 55.7321 44.6285 37.9077 0.0000 0.0000 0.0000
# 2 44.6285 55.7321 37.9077 0.0000 0.0000 0.0000
# 3 37.9077 37.9077 158.8854 0.0000 0.0000 0.0000
# 4 0.0000 0.0000 0.0000 41.0050 0.0000 0.0000
# 5 0.0000 0.0000 0.0000 0.0000 41.0050 0.0000
# 6 0.0000 0.0000 0.0000 0.0000 0.0000 36.4807
#
#
#
# Elastic Compliance Matrix: (Units=1/GPa)
#
#
# Indices 1 2 3 4 5 6 
#
# 1 0.051108 -0.038953 -0.002900 0.000000 0.000000 0.000000
# 2 -0.038953 0.051108 -0.002900 0.000000 0.000000 0.000000
# 3 -0.002900 -0.002900 0.007678 0.000000 0.000000 0.000000
# 4 0.000000 0.000000 0.000000 0.024387 0.000000 0.000000
# 5 0.000000 0.000000 0.000000 0.000000 0.024387 0.000000
# 6 0.000000 0.000000 0.000000 0.000000 0.000000 0.027412
#
#
# Mechanical properties :
#
#
# Convention : Reuss Voigt Hill
#
# Bulk Modulus (GPa) = 49.04996 56.80415 52.92706
# Shear Modulus (GPa) = 17.70659 33.69184 25.69922
#
# Velocity S-wave (km/s) = 2.95530 4.07659 3.56037
# Velocity P-wave (km/s) = 5.98658 7.08357 6.55805
#
# Compressibility (1/GPa) = 0.02038738
#
# Stress axis : x y z
#
# Youngs Moduli (GPa) = 19.56654 19.56654 130.24880
#
# Poissons Ratio (x) = 0.76217 0.37772
# Poissons Ratio (y) = 0.76217 0.37772
# Poissons Ratio (z) = 0.05674 0.05674
#
# Static dielectric constant tensor:
#      x y z
#    x 3.390530 0.000000 0.000000 
#    y 0.000000 3.390530 0.000000 
#    z 0.000000 0.000000 4.023660 
# 
# 
# High freq. dielectric constant tensor:
#      x y z
#    x 1.745940 0.000000 0.000000 
#    y 0.000000 1.745940 0.000000 
#    z 0.000000 0.000000 1.845070 
# 
# From -- ./inp_files/148.got.cif
#   From: 2010.03.12/outbox.cif.g09.slc.cpg/sg118_1_cif.got.tgz:148.got - 2010.04.14 02:21:17.
