data_PCOD8310583
_publ_section_title
;
Structure prediction by ZEFSAII (Michael W. Deem and Ramdas Pophale) SiO2 
 PCOD8310583
Probable space group: P -4 N 2
;
_chemical_formula_sum "Si O2"
_cell_formula_units_Z 34
_cell_length_a 7.716384
_cell_length_b 7.716384
_cell_length_c 27.460089
_cell_angle_alpha 90.000000
_cell_angle_beta 90.000000
_cell_angle_gamma 90.000000
_cell_volume 1635.044602
_symmetry_space_group_name_H-M "P -4 N 2"
_symmetry_group_IT_number 118
_symmetry_cell_setting 'tetragonal'
loop_
_space_group_symop_operation_xyz
x,y,z
y,-x,-z
-x,-y,z
-y,x,-z
1/2+y,1/2+x,1/2-z
1/2-y,1/2-x,1/2-z
1/2-x,1/2+y,1/2+z
1/2+x,1/2-y,1/2+z
loop_
_atom_site_type_symbol
_atom_site_label
_atom_site_fract_x
_atom_site_fract_y
_atom_site_fract_z
Si Si1 0.000000 0.500000 0.250000
Si Si2 1.000000 0.790440 0.328689
Si Si3 0.303367 0.191320 0.104179
Si Si4 0.696633 0.191320 0.104179
Si Si5 0.199450 0.199450 0.000000
O O1 1.000000 0.319630 0.279512
O O2 0.831347 0.725261 0.358740
O O3 0.168652 0.725261 0.358740
O O4 0.000000 0.000000 0.319332
O O5 0.500000 0.167367 0.119206
O O6 0.294795 0.263957 0.048836
O O7 0.210984 1.000000 0.108117
O O8 0.705204 0.263957 0.048836
O O9 1.000000 0.239832 0.009123
#
# Coordination Sequence:
#
# PCOD8310583 Si02
#       5
#     2   8   8   8   8
#     4  12  28  44  68  96 108 164 220 260 324 350
#     4  10  24  44  62  90 122 152 210 262 306 365
#     4   9  19  36  57  85 122 162 197 243 302 365
#     4   9  19  36  57  85 122 162 197 243 302 365
#     4   9  18  30  49  84 122 160 199 234 293 360
#
# _framework density 20.794540999999999
#
# number of rings (size 3 to 8) (size 9 to 14) (size 15 to 20)
#    0.000    2.588    0.000    0.000    6.588    1.882 
#    0.000    0.000    0.000    0.000    0.000    0.000 
#    0.000    0.000    0.000    0.000    0.000    0.000 
#
# Total GULP energy -421221.099470 kJ/mol
# GULP energy per Si atom -12388.855867 kJ/mol
# Density = 2.074721 g / cm^3
# Si number density = 20.794541 Si / 1000 Ang^3
#
#
#
# Elastic Constant Matrix: (Units=GPa)
#
#
# Indices 1 2 3 4 5 6 
#
# 1 82.0745 34.8991 60.6896 0.0000 0.0000 0.0000
# 2 34.8991 82.0745 60.6896 0.0000 0.0000 0.0000
# 3 60.6896 60.6896 143.0969 0.0000 0.0000 0.0000
# 4 0.0000 0.0000 0.0000 41.2540 0.0000 0.0000
# 5 0.0000 0.0000 0.0000 0.0000 41.2540 0.0000
# 6 0.0000 0.0000 0.0000 0.0000 0.0000 13.9454
#
#
#
# Elastic Compliance Matrix: (Units=1/GPa)
#
#
# Indices 1 2 3 4 5 6 
#
# 1 0.018233 -0.002965 -0.006476 0.000000 0.000000 0.000000
# 2 -0.002965 0.018233 -0.006476 0.000000 0.000000 0.000000
# 3 -0.006476 -0.006476 0.012481 0.000000 0.000000 0.000000
# 4 0.000000 0.000000 0.000000 0.024240 0.000000 0.000000
# 5 0.000000 0.000000 0.000000 0.000000 0.024240 0.000000
# 6 0.000000 0.000000 0.000000 0.000000 0.000000 0.071708
#
#
# Mechanical properties :
#
#
# Convention : Reuss Voigt Hill
#
# Bulk Modulus (GPa) = 58.42627 68.86695 63.64661
# Shear Modulus (GPa) = 24.19294 29.35519 26.77407
#
# Velocity S-wave (km/s) = 3.41461 3.76131 3.59214
# Velocity P-wave (km/s) = 6.61090 7.21477 6.91943
#
# Compressibility (1/GPa) = 0.01711559
#
# Stress axis : x y z
#
# Youngs Moduli (GPa) = 54.84575 54.84575 80.12147
#
# Poissons Ratio (x) = 0.16259 0.51883
# Poissons Ratio (y) = 0.16259 0.51883
# Poissons Ratio (z) = 0.35516 0.35516
#
# Static dielectric constant tensor:
#      x y z
#    x 3.902070 0.000000 0.000000 
#    y 0.000000 3.902070 0.000000 
#    z 0.000000 0.000000 3.816470 
# 
# 
# High freq. dielectric constant tensor:
#      x y z
#    x 1.808830 0.000000 0.000000 
#    y 0.000000 1.808830 0.000000 
#    z 0.000000 0.000000 1.794900 
# 
# From -- ./inp_files/5441.got.cif
#   From: 2010.03.12/outbox.cif.g09.slc.cpg/sg118_3_cif.got.tgz:5441.got - 2010.04.14 02:21:17.
