data_PCOD8310148
_publ_section_title
;
Structure prediction by ZEFSAII (Michael W. Deem and Ramdas Pophale) SiO2 
 PCOD8310148
Probable space group: P -4 C 2
;
_chemical_formula_sum "Si O2"
_cell_formula_units_Z 48
_cell_length_a 9.035088
_cell_length_b 9.035088
_cell_length_c 24.750321
_cell_angle_alpha 90.000000
_cell_angle_beta 90.000000
_cell_angle_gamma 90.000000
_cell_volume 2020.438380
_symmetry_space_group_name_H-M "P -4 C 2"
_symmetry_group_IT_number 116
_symmetry_cell_setting 'tetragonal'
loop_
_space_group_symop_operation_xyz
x,y,z
y,-x,-z
-x,-y,z
-y,x,-z
y,x,1/2-z
-y,-x,1/2-z
-x,y,1/2+z
x,-y,1/2+z
loop_
_atom_site_type_symbol
_atom_site_label
_atom_site_fract_x
_atom_site_fract_y
_atom_site_fract_z
Si Si1 0.670208 0.764542 0.055458
Si Si2 0.347305 0.692158 0.060830
Si Si3 0.367201 0.901037 0.861591
Si Si4 0.846545 0.826191 0.689224
Si Si5 0.340537 0.447074 0.667838
Si Si6 0.165994 0.965834 0.084330
O O1 0.504415 0.764064 0.079327
O O2 0.805720 0.710934 0.092353
O O3 0.716926 0.936571 0.049969
O O4 0.651976 0.664741 0.001925
O O5 0.335060 0.550896 0.101129
O O6 0.206000 0.796340 0.071222
O O7 0.434912 0.786941 0.816514
O O8 0.500000 0.000000 0.886775
O O9 0.249791 0.004683 0.832517
O O10 0.877895 0.877895 0.750000
O O11 0.702652 0.716359 0.688886
O O12 0.817642 0.969803 0.650511
O O13 0.500000 0.500000 0.690298
O O14 0.000000 0.000000 0.064720
#
# Coordination Sequence:
#
# PCOD8310148 Si02
#       6
#     8   8   8   8   8   8
#     4  12  24  42  67 102 141 190 239 281 355 425
#     4  11  26  39  67 101 141 186 240 287 349 440
#     4  10  21  40  69 100 139 184 229 296 356 417
#     4  10  23  45  72 101 135 189 245 299 365 433
#     4  10  20  41  71 101 147 184 227 303 359 417
#     4  11  25  45  65  97 138 188 234 305 351 419
#
# _framework density 23.757218000000002
#
# number of rings (size 3 to 8) (size 9 to 14) (size 15 to 20)
#    0.000    1.333    3.333    1.500    2.333    2.000 
#    0.000   10.000    7.333    0.000    0.000    0.000 
#    0.000    0.000    0.000    0.000    0.000    0.000 
#
# Total GULP energy -594711.574557 kJ/mol
# GULP energy per Si atom -12389.824470 kJ/mol
# Density = 2.370315 g / cm^3
# Si number density = 23.757218 Si / 1000 Ang^3
#
#
#
# Elastic Constant Matrix: (Units=GPa)
#
#
# Indices 1 2 3 4 5 6 
#
# 1 115.3895 33.6638 14.0021 0.0000 0.0000 0.0000
# 2 33.6638 115.3895 14.0021 0.0000 0.0000 0.0000
# 3 14.0021 14.0021 99.8806 0.0000 0.0000 0.0000
# 4 0.0000 0.0000 0.0000 15.3376 0.0000 0.0000
# 5 0.0000 0.0000 0.0000 0.0000 15.3376 0.0000
# 6 0.0000 0.0000 0.0000 0.0000 0.0000 37.1395
#
#
#
# Elastic Compliance Matrix: (Units=1/GPa)
#
#
# Indices 1 2 3 4 5 6 
#
# 1 0.009563 -0.002673 -0.000966 0.000000 0.000000 0.000000
# 2 -0.002673 0.009563 -0.000966 0.000000 0.000000 0.000000
# 3 -0.000966 -0.000966 0.010283 0.000000 0.000000 0.000000
# 4 0.000000 0.000000 0.000000 0.065199 0.000000 0.000000
# 5 0.000000 0.000000 0.000000 0.000000 0.065199 0.000000
# 6 0.000000 0.000000 0.000000 0.000000 0.000000 0.026926
#
#
# Mechanical properties :
#
#
# Convention : Reuss Voigt Hill
#
# Bulk Modulus (GPa) = 49.50518 50.44397 49.97457
# Shear Modulus (GPa) = 24.66989 31.49571 28.08280
#
# Velocity S-wave (km/s) = 3.22594 3.64501 3.44186
# Velocity P-wave (km/s) = 5.89566 6.24452 6.07259
#
# Compressibility (1/GPa) = 0.02019991
#
# Stress axis : x y z
#
# Youngs Moduli (GPa) = 104.56673 104.56673 97.24992
#
# Poissons Ratio (x) = 0.27948 0.09394
# Poissons Ratio (y) = 0.27948 0.09394
# Poissons Ratio (z) = 0.10101 0.10101
#
# Static dielectric constant tensor:
#      x y z
#    x 4.490140 0.000000 0.000000 
#    y 0.000000 4.490140 0.000000 
#    z 0.000000 0.000000 4.083930 
# 
# 
# High freq. dielectric constant tensor:
#      x y z
#    x 1.952830 0.000000 0.000000 
#    y 0.000000 1.952830 0.000000 
#    z 0.000000 0.000000 1.903860 
# 
# From -- ./inp_files/5223.got.cif
#   From: 2010.03.12/outbox.cif.g09.slc.cpg/sg116_3_cif.got.tgz:5223.got - 2010.04.14 02:15:44.
