data_PCOD8310223
_publ_section_title
;
Structure prediction by ZEFSAII (Michael W. Deem and Ramdas Pophale) SiO2 
 PCOD8310223
Probable space group: P -4 C 2
;
_chemical_formula_sum "Si O2"
_cell_formula_units_Z 36
_cell_length_a 9.044955
_cell_length_b 9.044955
_cell_length_c 19.346890
_cell_angle_alpha 90.000000
_cell_angle_beta 90.000000
_cell_angle_gamma 90.000000
_cell_volume 1582.792499
_symmetry_space_group_name_H-M "P -4 C 2"
_symmetry_group_IT_number 116
_symmetry_cell_setting 'tetragonal'
loop_
_space_group_symop_operation_xyz
x,y,z
y,-x,-z
-x,-y,z
-y,x,-z
y,x,1/2-z
-y,-x,1/2-z
-x,y,1/2+z
x,-y,1/2+z
loop_
_atom_site_type_symbol
_atom_site_label
_atom_site_fract_x
_atom_site_fract_y
_atom_site_fract_z
Si Si1 0.657853 0.754518 0.445008
Si Si2 0.167212 0.999980 0.885640
Si Si3 0.298281 0.331150 0.598296
Si Si4 0.834735 0.554105 0.348996
Si Si5 0.809734 0.809734 0.250000
O O1 0.718662 0.921218 0.438332
O O2 0.505941 0.735181 0.401476
O O3 0.633277 0.713992 0.524225
O O4 0.789701 0.658991 0.412459
O O5 0.164202 0.927542 0.810038
O O6 0.229509 0.163303 0.879610
O O7 0.000000 0.000000 0.915357
O O8 0.422269 0.286001 0.654368
O O9 0.829610 0.642482 0.277039
O O10 0.000000 0.500000 0.364320
#
# Coordination Sequence:
#
# PCOD8310223 Si02
#       5
#     8   8   8   8   4
#     4  11  25  42  69 108 152 187 239 298 383 451
#     4  11  26  46  73 104 144 197 250 308 365 439
#     4  12  24  43  73 109 150 190 240 307 379 450
#     4  11  25  45  73 104 143 201 241 307 367 443
#     4  10  25  52  69 102 146 186 260 296 366 436
#
# _framework density 22.744613000000001
#
# number of rings (size 3 to 8) (size 9 to 14) (size 15 to 20)
#    0.000    0.889    2.222    4.333    6.222    3.556 
#    0.000   15.556    0.000    0.000    0.000    0.000 
#    0.000    0.000    0.000    0.000    0.000    0.000 
#
# Total GULP energy -446437.702329 kJ/mol
# GULP energy per Si atom -12401.047287 kJ/mol
# Density = 2.269284 g / cm^3
# Si number density = 22.744613 Si / 1000 Ang^3
#
#
#
# Elastic Constant Matrix: (Units=GPa)
#
#
# Indices 1 2 3 4 5 6 
#
# 1 140.9384 33.7814 20.1776 0.0000 0.0000 0.0000
# 2 33.7814 140.9384 20.1776 0.0000 0.0000 0.0000
# 3 20.1776 20.1776 44.7337 0.0000 0.0000 0.0000
# 4 0.0000 0.0000 0.0000 30.1787 0.0000 0.0000
# 5 0.0000 0.0000 0.0000 0.0000 30.1787 0.0000
# 6 0.0000 0.0000 0.0000 0.0000 0.0000 50.0236
#
#
#
# Elastic Compliance Matrix: (Units=1/GPa)
#
#
# Indices 1 2 3 4 5 6 
#
# 1 0.007861 -0.001472 -0.002882 0.000000 0.000000 0.000000
# 2 -0.001472 0.007861 -0.002882 0.000000 0.000000 0.000000
# 3 -0.002882 -0.002882 0.024954 0.000000 0.000000 0.000000
# 4 0.000000 0.000000 0.000000 0.033136 0.000000 0.000000
# 5 0.000000 0.000000 0.000000 0.000000 0.033136 0.000000
# 6 0.000000 0.000000 0.000000 0.000000 0.000000 0.019991
#
#
# Mechanical properties :
#
#
# Convention : Reuss Voigt Hill
#
# Bulk Modulus (GPa) = 38.16066 52.76484 45.46275
# Shear Modulus (GPa) = 33.30151 38.90780 36.10466
#
# Velocity S-wave (km/s) = 3.83057 4.14047 3.98853
# Velocity P-wave (km/s) = 6.03147 6.79023 6.42207
#
# Compressibility (1/GPa) = 0.02620500
#
# Stress axis : x y z
#
# Youngs Moduli (GPa) = 127.21691 127.21691 40.07331
#
# Poissons Ratio (x) = 0.18720 0.11549
# Poissons Ratio (y) = 0.18720 0.11549
# Poissons Ratio (z) = 0.36662 0.36662
#
# Static dielectric constant tensor:
#      x y z
#    x 4.328320 0.000000 0.000000 
#    y 0.000000 4.328320 0.000000 
#    z 0.000000 0.000000 3.885170 
# 
# 
# High freq. dielectric constant tensor:
#      x y z
#    x 1.914430 0.000000 0.000000 
#    y 0.000000 1.914430 0.000000 
#    z 0.000000 0.000000 1.876290 
# 
# From -- ./inp_files/3869.got.cif
#   From: 2010.03.12/outbox.cif.g09.slc.cpg/sg116_2_cif.got.tgz:3869.got - 2010.04.14 02:15:44.
