data_PCOD8310174
_publ_section_title
;
Structure prediction by ZEFSAII (Michael W. Deem and Ramdas Pophale) SiO2 
 PCOD8310174
Probable space group: P -4 C 2
;
_chemical_formula_sum "Si O2"
_cell_formula_units_Z 56
_cell_length_a 11.535428
_cell_length_b 11.535428
_cell_length_c 19.392199
_cell_angle_alpha 90.000000
_cell_angle_beta 90.000000
_cell_angle_gamma 90.000000
_cell_volume 2580.444275
_symmetry_space_group_name_H-M "P -4 C 2"
_symmetry_group_IT_number 116
_symmetry_cell_setting 'tetragonal'
loop_
_space_group_symop_operation_xyz
x,y,z
y,-x,-z
-x,-y,z
-y,x,-z
y,x,1/2-z
-y,-x,1/2-z
-x,y,1/2+z
x,-y,1/2+z
loop_
_atom_site_type_symbol
_atom_site_label
_atom_site_fract_x
_atom_site_fract_y
_atom_site_fract_z
Si Si1 0.271639 0.679380 0.435392
Si Si2 0.185962 0.708461 0.934021
Si Si3 0.520423 0.739220 0.304328
Si Si4 0.967289 0.377755 0.492416
Si Si5 0.305773 0.083156 0.364626
Si Si6 0.327532 0.539847 0.851219
Si Si7 0.162864 0.731259 0.181732
O O1 0.338821 0.744345 0.497554
O O2 0.166112 0.627903 0.476658
O O3 0.345379 0.576880 0.397218
O O4 0.212282 0.772187 0.383256
O O5 0.211611 0.837175 0.904475
O O6 0.217161 0.613503 0.876584
O O7 0.050231 0.714366 0.953616
O O8 0.618531 0.837554 0.313392
O O9 0.501094 0.703308 0.225720
O O10 0.557963 0.623836 0.348657
O O11 0.401580 0.794898 0.329484
O O12 0.982112 0.376643 0.575299
O O13 0.000000 0.500000 0.461398
O O14 0.252582 0.976845 0.319775
O O15 0.208191 0.791810 0.250000
#
# Coordination Sequence:
#
# PCOD8310174 Si02
#       7
#     8   8   8   8   8   8   8
#     4  11  23  38  62  97 128 166 220 274 334 400
#     4  10  22  40  68  95 128 171 221 282 336 394
#     4  10  22  40  66  91 133 177 217 268 342 404
#     4  11  20  38  68  92 127 169 220 277 330 403
#     4  10  23  41  66  96 130 174 222 274 332 402
#     4  10  21  41  61  97 129 171 218 271 334 403
#     4  12  23  40  63  96 131 174 223 272 331 407
#
# _framework density 21.701691
#
# number of rings (size 3 to 8) (size 9 to 14) (size 15 to 20)
#    0.000    1.429    4.286    1.286    0.000    2.857 
#    2.571    0.714    0.000    0.857    0.000    0.000 
#    0.000    0.000    0.000    0.000    0.000    0.000 
#
# Total GULP energy -693795.236282 kJ/mol
# GULP energy per Si atom -12389.200648 kJ/mol
# Density = 2.165230 g / cm^3
# Si number density = 21.701691 Si / 1000 Ang^3
#
#
#
# Elastic Constant Matrix: (Units=GPa)
#
#
# Indices 1 2 3 4 5 6 
#
# 1 86.8118 15.7556 21.5654 0.0000 0.0000 0.0000
# 2 15.7556 86.8125 21.5656 0.0000 0.0000 0.0000
# 3 21.5654 21.5656 75.1034 0.0000 0.0000 0.0000
# 4 0.0000 0.0000 0.0000 20.3434 0.0000 0.0000
# 5 0.0000 0.0000 0.0000 0.0000 20.3434 0.0000
# 6 0.0000 0.0000 0.0000 0.0000 0.0000 19.0523
#
#
#
# Elastic Compliance Matrix: (Units=1/GPa)
#
#
# Indices 1 2 3 4 5 6 
#
# 1 0.012581 -0.001492 -0.003184 0.000000 0.000000 0.000000
# 2 -0.001492 0.012581 -0.003184 0.000000 0.000000 0.000000
# 3 -0.003184 -0.003184 0.015144 0.000000 0.000000 0.000000
# 4 0.000000 0.000000 0.000000 0.049156 0.000000 0.000000
# 5 0.000000 0.000000 0.000000 0.000000 0.049156 0.000000
# 6 0.000000 0.000000 0.000000 0.000000 0.000000 0.052487
#
#
# Mechanical properties :
#
#
# Convention : Reuss Voigt Hill
#
# Bulk Modulus (GPa) = 40.67589 40.72232 40.69911
# Shear Modulus (GPa) = 23.25362 24.60389 23.92876
#
# Velocity S-wave (km/s) = 3.27695 3.37075 3.32418
# Velocity P-wave (km/s) = 5.75341 5.82705 5.79035
#
# Compressibility (1/GPa) = 0.02458459
#
# Stress axis : x y z
#
# Youngs Moduli (GPa) = 79.48512 79.48570 66.03487
#
# Poissons Ratio (x) = 0.11862 0.21026
# Poissons Ratio (y) = 0.11862 0.21026
# Poissons Ratio (z) = 0.25308 0.25308
#
# Static dielectric constant tensor:
#      x y z
#    x 4.317480 0.000000 0.000000 
#    y 0.000000 4.317470 0.000000 
#    z 0.000000 0.000000 4.028830 
# 
# 
# High freq. dielectric constant tensor:
#      x y z
#    x 1.842650 0.000000 0.000000 
#    y 0.000000 1.842650 0.000000 
#    z 0.000000 0.000000 1.860050 
# 
# From -- ./inp_files/4139.got.cif
#   From: 2010.03.12/outbox.cif.g09.slc.cpg/sg116_3_cif.got.tgz:4139.got - 2010.04.14 02:15:44.
