data_PCOD8310192
_publ_section_title
;
Structure prediction by ZEFSAII (Michael W. Deem and Ramdas Pophale) SiO2 
 PCOD8310192
Probable space group: P -4 C 2
;
_chemical_formula_sum "Si O2"
_cell_formula_units_Z 40
_cell_length_a 11.266440
_cell_length_b 11.266440
_cell_length_c 14.939000
_cell_angle_alpha 90.000000
_cell_angle_beta 90.000000
_cell_angle_gamma 90.000000
_cell_volume 1896.247161
_symmetry_space_group_name_H-M "P -4 C 2"
_symmetry_group_IT_number 116
_symmetry_cell_setting 'tetragonal'
loop_
_space_group_symop_operation_xyz
x,y,z
y,-x,-z
-x,-y,z
-y,x,-z
y,x,1/2-z
-y,-x,1/2-z
-x,y,1/2+z
x,-y,1/2+z
loop_
_atom_site_type_symbol
_atom_site_label
_atom_site_fract_x
_atom_site_fract_y
_atom_site_fract_z
Si Si1 0.281164 0.245394 0.092495
Si Si2 0.137563 0.137563 0.750000
Si Si3 0.865929 0.503939 0.325985
Si Si4 0.862444 0.137557 0.750000
Si Si5 0.716930 0.263667 0.110601
Si Si6 0.669477 0.478033 0.684176
O O1 0.388692 0.154269 0.105672
O O2 0.175831 0.212110 0.161897
O O3 0.323470 0.381311 0.105810
O O4 0.248901 0.234765 0.989190
O O5 0.227402 0.169868 0.830296
O O6 0.000105 0.160978 0.772295
O O7 0.834376 0.383138 0.375925
O O8 0.791873 0.526762 0.236925
O O9 0.000000 0.500000 0.293963
O O10 0.657613 0.390423 0.140567
O O11 0.559684 0.440317 0.750000
#
# Coordination Sequence:
#
# PCOD8310192 Si02
#       6
#     8   4   8   4   8   8
#     4  11  24  42  69  97 135 176 220 278 341 403
#     4  11  26  42  69  92 134 178 229 288 332 407
#     4  11  22  41  67  95 131 175 221 269 328 396
#     4  11  24  48  64  93 132 184 228 275 350 398
#     4  12  24  42  67 104 133 172 225 283 332 408
#     4  10  22  42  67  97 136 179 214 269 341 402
#
# _framework density 21.094294999999999
#
# number of rings (size 3 to 8) (size 9 to 14) (size 15 to 20)
#    0.000    1.000    5.000    2.400    0.000    8.800 
#    0.000    8.000    0.000    0.000    0.000    0.000 
#    0.000    0.000    0.000    0.000    0.000    0.000 
#
# Total GULP energy -495865.962040 kJ/mol
# GULP energy per Si atom -12396.649051 kJ/mol
# Density = 2.104628 g / cm^3
# Si number density = 21.094295 Si / 1000 Ang^3
#
#
#
# Elastic Constant Matrix: (Units=GPa)
#
#
# Indices 1 2 3 4 5 6 
#
# 1 119.2804 37.3618 34.8159 0.0000 0.0000 0.0000
# 2 37.3618 119.2783 34.8158 0.0000 0.0000 0.0000
# 3 34.8159 34.8158 152.6219 0.0000 0.0000 0.0000
# 4 0.0000 0.0000 0.0000 15.6059 0.0000 0.0000
# 5 0.0000 0.0000 0.0000 0.0000 15.6054 0.0000
# 6 0.0000 0.0000 0.0000 0.0000 0.0000 33.1625
#
#
#
# Elastic Compliance Matrix: (Units=1/GPa)
#
#
# Indices 1 2 3 4 5 6 
#
# 1 0.009656 -0.002551 -0.001621 0.000000 0.000000 0.000000
# 2 -0.002551 0.009656 -0.001621 0.000000 0.000000 0.000000
# 3 -0.001621 -0.001621 0.007292 0.000000 0.000000 0.000000
# 4 0.000000 0.000000 0.000000 0.064078 0.000000 0.000000
# 5 0.000000 0.000000 0.000000 0.000000 0.064080 0.000000
# 6 0.000000 0.000000 0.000000 0.000000 0.000000 0.030155
#
#
# Mechanical properties :
#
#
# Convention : Reuss Voigt Hill
#
# Bulk Modulus (GPa) = 66.58757 67.24085 66.91421
# Shear Modulus (GPa) = 24.81292 31.82057 28.31674
#
# Velocity S-wave (km/s) = 3.43342 3.88814 3.66784
# Velocity P-wave (km/s) = 6.88135 7.21820 7.05179
#
# Compressibility (1/GPa) = 0.01501782
#
# Stress axis : x y z
#
# Youngs Moduli (GPa) = 103.56434 103.56246 137.14518
#
# Poissons Ratio (x) = 0.26424 0.22226
# Poissons Ratio (y) = 0.26424 0.22227
# Poissons Ratio (z) = 0.16784 0.16784
#
# Static dielectric constant tensor:
#      x y z
#    x 3.846280 0.000000 0.000000 
#    y 0.000000 3.846260 0.000000 
#    z 0.000000 0.000000 3.625480 
# 
# 
# High freq. dielectric constant tensor:
#      x y z
#    x 1.837410 0.000000 0.000000 
#    y 0.000000 1.837410 0.000000 
#    z 0.000000 0.000000 1.809530 
# 
# From -- ./inp_files/2632.got.cif
#   From: 2010.03.12/outbox.cif.g09.slc.cpg/sg116_2_cif.got.tgz:2632.got - 2010.04.14 02:15:44.
