data_PCOD8310482
_publ_section_title
;
Structure prediction by ZEFSAII (Michael W. Deem and Ramdas Pophale) SiO2 
 PCOD8310482
Probable space group: P -4 N 2
;
_chemical_formula_sum "Si O2"
_cell_formula_units_Z 48
_cell_length_a 11.351566
_cell_length_b 11.351566
_cell_length_c 19.455284
_cell_angle_alpha 90.000000
_cell_angle_beta 90.000000
_cell_angle_gamma 90.000000
_cell_volume 2506.969971
_symmetry_space_group_name_H-M "P -4 N 2"
_symmetry_group_IT_number 118
_symmetry_cell_setting 'tetragonal'
loop_
_space_group_symop_operation_xyz
x,y,z
y,-x,-z
-x,-y,z
-y,x,-z
1/2+y,1/2+x,1/2-z
1/2-y,1/2-x,1/2-z
1/2-x,1/2+y,1/2+z
1/2+x,1/2-y,1/2+z
loop_
_atom_site_type_symbol
_atom_site_label
_atom_site_fract_x
_atom_site_fract_y
_atom_site_fract_z
Si Si1 0.633380 0.550005 0.930175
Si Si2 0.423268 0.278890 0.817318
Si Si3 0.679492 0.204231 0.824427
Si Si4 0.772956 0.440151 0.332855
Si Si5 0.331160 0.570824 0.475749
Si Si6 0.247495 0.176519 0.457202
O O1 0.500000 0.500000 0.943091
O O2 0.637144 0.613656 0.856762
O O3 0.739102 0.454537 0.925885
O O4 0.677293 0.636137 0.991057
O O5 0.560471 0.277108 0.835486
O O6 0.404142 0.297949 0.736139
O O7 0.371603 0.157127 0.846445
O O8 0.738559 0.238559 0.750000
O O9 0.752623 0.233725 0.892676
O O10 0.659829 0.063520 0.821536
O O11 0.679210 0.447591 0.394204
O O12 0.444369 0.653888 0.488140
O O13 0.210865 0.633200 0.502342
#
# Coordination Sequence:
#
# PCOD8310482 Si02
#       6
#     8   8   8   8   8   8
#     4  12  21  36  60  91 120 152 192 243 302 356
#     4  10  20  36  61  87 122 154 195 250 301 348
#     4  10  20  35  57  90 120 155 197 245 298 344
#     4  10  20  38  60  87 117 158 202 244 295 353
#     4  11  24  43  61  83 118 158 200 243 292 361
#     4  12  21  38  60  87 121 152 193 247 295 355
#
# _framework density 19.146619999999999
#
# number of rings (size 3 to 8) (size 9 to 14) (size 15 to 20)
#    0.000    1.167    6.667    0.500    0.000    2.000 
#    6.000    0.833    0.000    0.000    0.000    2.333 
#    0.000    0.000    0.000    0.000    0.000    0.000 
#
# Total GULP energy -594734.993897 kJ/mol
# GULP energy per Si atom -12390.312373 kJ/mol
# Density = 1.910304 g / cm^3
# Si number density = 19.146620 Si / 1000 Ang^3
#
#
#
# Elastic Constant Matrix: (Units=GPa)
#
#
# Indices 1 2 3 4 5 6 
#
# 1 63.3603 22.1443 34.5777 0.0000 0.0000 0.0000
# 2 22.1443 63.3603 34.5777 0.0000 0.0000 0.0000
# 3 34.5777 34.5777 133.4081 0.0000 0.0000 0.0000
# 4 0.0000 0.0000 0.0000 28.4315 0.0000 0.0000
# 5 0.0000 0.0000 0.0000 0.0000 28.4315 0.0000
# 6 0.0000 0.0000 0.0000 0.0000 0.0000 34.2945
#
#
#
# Elastic Compliance Matrix: (Units=1/GPa)
#
#
# Indices 1 2 3 4 5 6 
#
# 1 0.019530 -0.004733 -0.003835 0.000000 0.000000 0.000000
# 2 -0.004733 0.019530 -0.003835 0.000000 0.000000 0.000000
# 3 -0.003835 -0.003835 0.009484 0.000000 0.000000 0.000000
# 4 0.000000 0.000000 0.000000 0.035172 0.000000 0.000000
# 5 0.000000 0.000000 0.000000 0.000000 0.035172 0.000000
# 6 0.000000 0.000000 0.000000 0.000000 0.000000 0.029159
#
#
# Mechanical properties :
#
#
# Convention : Reuss Voigt Hill
#
# Bulk Modulus (GPa) = 42.12779 49.19200 45.65989
# Shear Modulus (GPa) = 27.66009 29.48677 28.57343
#
# Velocity S-wave (km/s) = 3.80497 3.92861 3.86728
# Velocity P-wave (km/s) = 6.43073 6.80637 6.62121
#
# Compressibility (1/GPa) = 0.02373730
#
# Stress axis : x y z
#
# Youngs Moduli (GPa) = 51.20373 51.20373 105.44193
#
# Poissons Ratio (x) = 0.24233 0.40440
# Poissons Ratio (y) = 0.24233 0.40440
# Poissons Ratio (z) = 0.19638 0.19638
#
# Static dielectric constant tensor:
#      x y z
#    x 3.383510 0.000000 0.000000 
#    y 0.000000 3.383510 0.000000 
#    z 0.000000 0.000000 3.822850 
# 
# 
# High freq. dielectric constant tensor:
#      x y z
#    x 1.721000 0.000000 0.000000 
#    y 0.000000 1.721000 0.000000 
#    z 0.000000 0.000000 1.770750 
# 
# From -- ./inp_files/4911.got.cif
#   From: 2010.03.12/outbox.cif.g09.slc.cpg/sg118_3_cif.got.tgz:4911.got - 2010.04.14 02:21:17.
