data_PCOD8310929
_publ_section_title
;
Structure prediction by ZEFSAII (Michael W. Deem and Ramdas Pophale) SiO2 
 PCOD8310929
Probable space group: I -4 M 2
;
_chemical_formula_sum "Si O2"
_cell_formula_units_Z 80
_cell_length_a 13.623174
_cell_length_b 13.623174
_cell_length_c 22.262160
_cell_angle_alpha 90.000000
_cell_angle_beta 90.000000
_cell_angle_gamma 90.000000
_cell_volume 4131.653639
_symmetry_space_group_name_H-M "I -4 M 2"
_symmetry_group_IT_number 119
_symmetry_cell_setting 'tetragonal'
loop_
_space_group_symop_operation_xyz
x,y,z
y,-x,-z
-x,-y,z
-y,x,-z
y,x,-z
-y,-x,-z
-x,y,z
x,-y,z
1/2+x,1/2+y,1/2+z
1/2+y,1/2-x,1/2-z
1/2-x,1/2-y,1/2+z
1/2-y,1/2+x,1/2-z
1/2+y,1/2+x,1/2-z
1/2-y,1/2-x,1/2-z
1/2-x,1/2+y,1/2+z
1/2+x,1/2-y,1/2+z
loop_
_atom_site_type_symbol
_atom_site_label
_atom_site_fract_x
_atom_site_fract_y
_atom_site_fract_z
Si Si1 0.614182 0.304184 0.667340
Si Si2 0.110550 0.736745 0.502253
Si Si3 0.608337 0.384610 0.207311
Si Si4 0.279801 0.614371 0.552439
Si Si5 0.610809 0.793713 0.864527
O O1 0.500000 0.326700 0.657756
O O2 0.654140 0.346126 0.730233
O O3 0.675063 0.358863 0.616237
O O4 0.630941 0.186601 0.665835
O O5 0.152529 0.847472 0.500000
O O6 0.330275 0.824034 0.454164
O O7 0.115753 0.691484 0.435686
O O8 0.000000 0.739634 0.526896
O O9 0.500000 0.337664 0.195944
O O10 0.596608 0.500000 0.212098
O O11 0.682078 0.357685 0.152949
O O12 0.353851 0.646150 0.500000
O O13 0.259582 0.500000 0.547864
O O14 0.500000 0.815644 0.840866
#
# Coordination Sequence:
#
# PCOD8310929 Si02
#       5
#    16  16  16  16  16
#     4  11  21  36  57  85 117 150 193 242 291 349
#     4  10  21  38  58  82 114 151 194 241 289 342
#     4   9  19  35  56  82 110 141 182 234 289 344
#     4  11  22  37  56  82 116 153 193 237 287 344
#     4  10  20  36  56  80 111 150 192 235 291 353
#
# _framework density 19.362707
#
# number of rings (size 3 to 8) (size 9 to 14) (size 15 to 20)
#    0.000    1.800    4.000    1.800    0.000    4.000 
#    0.000    4.000    0.000    3.600    0.000    0.000 
#    0.000    1.600    0.000    0.000    0.000    0.000 
#
# Total GULP energy -495955.050355 kJ/mol
# GULP energy per Si atom -12398.876259 kJ/mol
# Density = 1.931864 g / cm^3
# Si number density = 19.362707 Si / 1000 Ang^3
#
#
#
# Elastic Constant Matrix: (Units=GPa)
#
#
# Indices 1 2 3 4 5 6 
#
# 1 107.9221 35.2756 11.1164 0.0000 0.0000 0.0000
# 2 35.2756 107.9232 11.1180 0.0000 0.0000 0.0000
# 3 11.1164 11.1180 43.5474 0.0000 0.0000 0.0000
# 4 0.0000 0.0000 0.0000 27.0207 0.0000 0.0000
# 5 0.0000 0.0000 0.0000 0.0000 27.0212 0.0000
# 6 0.0000 0.0000 0.0000 0.0000 0.0000 18.4982
#
#
#
# Elastic Compliance Matrix: (Units=1/GPa)
#
#
# Indices 1 2 3 4 5 6 
#
# 1 0.010518 -0.003247 -0.001856 0.000000 0.000000 0.000000
# 2 -0.003247 0.010518 -0.001857 0.000000 0.000000 0.000000
# 3 -0.001856 -0.001857 0.023911 0.000000 0.000000 0.000000
# 4 0.000000 0.000000 0.000000 0.037009 0.000000 0.000000
# 5 0.000000 0.000000 0.000000 0.000000 0.037008 0.000000
# 6 0.000000 0.000000 0.000000 0.000000 0.000000 0.054059
#
#
# Mechanical properties :
#
#
# Convention : Reuss Voigt Hill
#
# Bulk Modulus (GPa) = 32.22791 41.60142 36.91467
# Shear Modulus (GPa) = 25.34391 27.96687 26.65539
#
# Velocity S-wave (km/s) = 3.62180 3.80461 3.71433
# Velocity P-wave (km/s) = 5.84554 6.38999 6.12382
#
# Compressibility (1/GPa) = 0.03102901
#
# Stress axis : x y z
#
# Youngs Moduli (GPa) = 95.07159 95.07183 41.82122
#
# Poissons Ratio (x) = 0.30868 0.07763
# Poissons Ratio (y) = 0.30868 0.07765
# Poissons Ratio (z) = 0.17646 0.17651
#
# Static dielectric constant tensor:
#      x y z
#    x 3.628530 0.000000 0.000000 
#    y 0.000000 3.628540 0.000000 
#    z 0.000000 0.000000 3.543350 
# 
# 
# High freq. dielectric constant tensor:
#      x y z
#    x 1.743760 0.000000 0.000000 
#    y 0.000000 1.743760 0.000000 
#    z 0.000000 0.000000 1.755700 
# 
# From -- ./inp_files/10116.got.cif
#   From: 2010.03.12/outbox.cif.g09.slc.cpg/sg119_6_cif.got.tgz:10116.got - 2010.04.14 02:25:26.
