data_PCOD8310774
_publ_section_title
;
Structure prediction by ZEFSAII (Michael W. Deem and Ramdas Pophale) SiO2 
 PCOD8310774
Probable space group: I -4 M 2
;
_chemical_formula_sum "Si O2"
_cell_formula_units_Z 88
_cell_length_a 14.207132
_cell_length_b 14.207132
_cell_length_c 26.296536
_cell_angle_alpha 90.000000
_cell_angle_beta 90.000000
_cell_angle_gamma 90.000000
_cell_volume 5307.761188
_symmetry_space_group_name_H-M "I -4 M 2"
_symmetry_group_IT_number 119
_symmetry_cell_setting 'tetragonal'
loop_
_space_group_symop_operation_xyz
x,y,z
y,-x,-z
-x,-y,z
-y,x,-z
y,x,-z
-y,-x,-z
-x,y,z
x,-y,z
1/2+x,1/2+y,1/2+z
1/2+y,1/2-x,1/2-z
1/2-x,1/2-y,1/2+z
1/2-y,1/2+x,1/2-z
1/2+y,1/2+x,1/2-z
1/2-y,1/2-x,1/2-z
1/2-x,1/2+y,1/2+z
1/2+x,1/2-y,1/2+z
loop_
_atom_site_type_symbol
_atom_site_label
_atom_site_fract_x
_atom_site_fract_y
_atom_site_fract_z
Si Si1 0.392464 0.890298 0.976655
Si Si2 0.892869 0.391380 0.190807
Si Si3 0.726427 0.895037 0.073025
Si Si4 0.298568 0.231114 0.891345
Si Si5 0.611132 0.396013 0.943887
Si Si6 0.102064 0.102064 0.000000
O O1 0.500000 0.853794 0.970502
O O2 0.322037 0.836877 0.938827
O O3 0.385812 0.000000 0.962925
O O4 0.359978 0.873525 0.034741
O O5 0.876147 0.500000 0.175933
O O6 0.874476 0.374476 0.250000
O O7 0.819453 0.327006 0.160690
O O8 0.000000 0.363247 0.176916
O O9 0.737034 0.811119 0.113811
O O10 0.823321 0.888136 0.043719
O O11 0.713970 0.000000 0.097614
O O12 0.355641 0.327454 0.899183
O O13 0.500000 0.402194 0.943766
O O14 0.653689 0.500000 0.933907
O O15 0.642580 0.357421 0.000000
O O16 0.000000 0.112946 0.026543
#
# Coordination Sequence:
#
# PCOD8310774 Si02
#       6
#    16  16  16  16  16   8
#     4  10  19  29  43  67  97 124 152 191 234 273
#     4   9  19  35  53  74  97 116 140 185 243 291
#     4  10  20  31  41  63  96 127 158 190 225 267
#     4  12  19  28  49  70  87 123 164 196 225 275
#     4   9  18  30  43  65  99 131 158 190 228 275
#     4   9  16  28  42  54  80 121 156 182 212 255
#
# _framework density 16.579494
#
# number of rings (size 3 to 8) (size 9 to 14) (size 15 to 20)
#    0.000    2.091    1.818    4.364    0.000    4.364 
#    0.000    0.000    0.000    1.091    0.000    2.545 
#    0.000    0.000    0.000    1.636    0.000    0.182 
#
# Total GULP energy -545308.009204 kJ/mol
# GULP energy per Si atom -12393.363846 kJ/mol
# Density = 1.654176 g / cm^3
# Si number density = 16.579494 Si / 1000 Ang^3
#
#
#
# Elastic Constant Matrix: (Units=GPa)
#
#
# Indices 1 2 3 4 5 6 
#
# 1 82.2483 30.9789 34.0679 0.0000 0.0000 0.0000
# 2 30.9789 82.2481 34.0677 0.0000 0.0000 0.0000
# 3 34.0679 34.0677 58.0321 0.0000 0.0000 0.0000
# 4 0.0000 0.0000 0.0000 22.2200 0.0000 0.0000
# 5 0.0000 0.0000 0.0000 0.0000 22.2200 0.0000
# 6 0.0000 0.0000 0.0000 0.0000 0.0000 22.8288
#
#
#
# Elastic Compliance Matrix: (Units=1/GPa)
#
#
# Indices 1 2 3 4 5 6 
#
# 1 0.016580 -0.002924 -0.008017 0.000000 0.000000 0.000000
# 2 -0.002924 0.016580 -0.008017 0.000000 0.000000 0.000000
# 3 -0.008017 -0.008017 0.026644 0.000000 0.000000 0.000000
# 4 0.000000 0.000000 0.000000 0.045004 0.000000 0.000000
# 5 0.000000 0.000000 0.000000 0.000000 0.045005 0.000000
# 6 0.000000 0.000000 0.000000 0.000000 0.000000 0.043804
#
#
# Mechanical properties :
#
#
# Convention : Reuss Voigt Hill
#
# Bulk Modulus (GPa) = 45.68448 46.75082 46.21765
# Shear Modulus (GPa) = 20.93533 21.68136 21.30834
#
# Velocity S-wave (km/s) = 3.55734 3.62017 3.58889
# Velocity P-wave (km/s) = 6.66990 6.76264 6.71643
#
# Compressibility (1/GPa) = 0.02188927
#
# Stress axis : x y z
#
# Youngs Moduli (GPa) = 60.31213 60.31216 37.53146
#
# Poissons Ratio (x) = 0.17638 0.30088
# Poissons Ratio (y) = 0.17638 0.30088
# Poissons Ratio (z) = 0.48351 0.48350
#
# Static dielectric constant tensor:
#      x y z
#    x 3.362140 0.000000 0.000000 
#    y 0.000000 3.362140 0.000000 
#    z 0.000000 0.000000 2.636700 
# 
# 
# High freq. dielectric constant tensor:
#      x y z
#    x 1.650430 0.000000 0.000000 
#    y 0.000000 1.650430 0.000000 
#    z 0.000000 0.000000 1.568610 
# 
# From -- ./inp_files/8697.got.cif
#   From: 2010.03.12/outbox.cif.g09.slc.cpg/sg119_5_cif.got.tgz:8697.got - 2010.04.14 02:25:26.
