data_PCOD8310787
_publ_section_title
;
Structure prediction by ZEFSAII (Michael W. Deem and Ramdas Pophale) SiO2 
 PCOD8310787
Probable space group: I -4 M 2
;
_chemical_formula_sum "Si O2"
_cell_formula_units_Z 128
_cell_length_a 17.456647
_cell_length_b 17.456647
_cell_length_c 24.944054
_cell_angle_alpha 90.000000
_cell_angle_beta 90.000000
_cell_angle_gamma 90.000000
_cell_volume 7601.314434
_symmetry_space_group_name_H-M "I -4 M 2"
_symmetry_group_IT_number 119
_symmetry_cell_setting 'tetragonal'
loop_
_space_group_symop_operation_xyz
x,y,z
y,-x,-z
-x,-y,z
-y,x,-z
y,x,-z
-y,-x,-z
-x,y,z
x,-y,z
1/2+x,1/2+y,1/2+z
1/2+y,1/2-x,1/2-z
1/2-x,1/2-y,1/2+z
1/2-y,1/2+x,1/2-z
1/2+y,1/2+x,1/2-z
1/2-y,1/2-x,1/2-z
1/2-x,1/2+y,1/2+z
1/2+x,1/2-y,1/2+z
loop_
_atom_site_type_symbol
_atom_site_label
_atom_site_fract_x
_atom_site_fract_y
_atom_site_fract_z
Si Si1 0.864668 0.413724 0.121775
Si Si2 0.313923 0.914572 0.790078
Si Si3 0.409873 0.818445 0.294327
Si Si4 0.813177 0.813255 0.240635
Si Si5 0.810789 0.911996 0.656755
Si Si6 0.826314 0.410024 0.004546
Si Si7 0.912252 0.167306 0.458190
Si Si8 0.588710 0.910384 0.100542
O O1 0.894432 0.500000 0.130673
O O2 0.919131 0.354365 0.152352
O O3 0.779638 0.405412 0.146130
O O4 0.871702 0.391713 0.059289
O O5 0.366260 0.866260 0.750000
O O6 0.229387 0.877024 0.795703
O O7 0.304048 0.000000 0.766731
O O8 0.500000 0.822455 0.285724
O O9 0.370737 0.870737 0.250000
O O10 0.384572 0.728366 0.289168
O O11 0.386110 0.855064 0.351281
O O12 0.744964 0.755037 0.250000
O O13 0.854848 0.837847 0.296179
O O14 0.851339 0.881208 0.601656
O O15 0.833888 0.000000 0.670788
O O16 0.821094 0.500000 0.995771
O O17 0.741137 0.374412 0.012372
O O18 0.867678 0.376813 0.951944
O O19 0.902412 0.097589 0.500000
O O20 0.000000 0.187901 0.447812
O O21 0.500000 0.887910 0.113449
O O22 0.593800 0.000000 0.088721
#
# Coordination Sequence:
#
# PCOD8310787 Si02
#       8
#    16  16  16  16  16  16  16  16
#     4   9  16  28  45  67  99 132 163 197 232 276
#     4  11  20  29  44  69 100 133 167 204 240 276
#     4  10  21  35  52  74  95 118 152 203 255 301
#     4  10  19  31  48  69  94 128 164 197 239 291
#     4   9  16  31  49  64  93 135 166 194 240 286
#     4   8  16  30  46  67  94 125 158 187 228 289
#     4   9  18  30  46  66  90 125 163 201 238 273
#     4   9  17  31  51  72  96 124 150 184 240 304
#
# _framework density 16.839193999999999
#
# number of rings (size 3 to 8) (size 9 to 14) (size 15 to 20)
#    0.000    2.625    2.500    2.625    0.000    4.125 
#    0.000    3.125    0.000    2.250    0.000    0.000 
#    0.000    0.000    0.000    0.000    0.000    9.500 
#
# Total GULP energy -792901.886053 kJ/mol
# GULP energy per Si atom -12389.091970 kJ/mol
# Density = 1.680087 g / cm^3
# Si number density = 16.839194 Si / 1000 Ang^3
#
#
#
# Elastic Constant Matrix: (Units=GPa)
#
#
# Indices 1 2 3 4 5 6 
#
# 1 49.8618 37.1625 44.2127 0.0000 0.0000 0.0000
# 2 37.1625 49.8637 44.2129 0.0000 0.0000 0.0000
# 3 44.2127 44.2129 134.7743 0.0000 0.0000 0.0000
# 4 0.0000 0.0000 0.0000 25.0052 0.0000 0.0000
# 5 0.0000 0.0000 0.0000 0.0000 25.0049 0.0000
# 6 0.0000 0.0000 0.0000 0.0000 0.0000 18.6384
#
#
#
# Elastic Compliance Matrix: (Units=1/GPa)
#
#
# Indices 1 2 3 4 5 6 
#
# 1 0.047989 -0.030751 -0.005655 0.000000 0.000000 0.000000
# 2 -0.030751 0.047986 -0.005654 0.000000 0.000000 0.000000
# 3 -0.005655 -0.005654 0.011130 0.000000 0.000000 0.000000
# 4 0.000000 0.000000 0.000000 0.039992 0.000000 0.000000
# 5 0.000000 0.000000 0.000000 0.000000 0.039992 0.000000
# 6 0.000000 0.000000 0.000000 0.000000 0.000000 0.053653
#
#
# Mechanical properties :
#
#
# Convention : Reuss Voigt Hill
#
# Bulk Modulus (GPa) = 43.50719 53.96402 48.73561
# Shear Modulus (GPa) = 15.03655 20.99045 18.01350
#
# Velocity S-wave (km/s) = 2.99147 3.53444 3.27423
# Velocity P-wave (km/s) = 6.15019 6.98374 6.58018
#
# Compressibility (1/GPa) = 0.02298470
#
# Stress axis : x y z
#
# Youngs Moduli (GPa) = 20.83823 20.83927 89.84999
#
# Poissons Ratio (x) = 0.64083 0.50808
# Poissons Ratio (y) = 0.64080 0.50802
# Poissons Ratio (z) = 0.11783 0.11783
#
# Static dielectric constant tensor:
#      x y z
#    x 3.201180 0.000000 0.000000 
#    y 0.000000 3.201160 0.000000 
#    z 0.000000 0.000000 3.485860 
# 
# 
# High freq. dielectric constant tensor:
#      x y z
#    x 1.622860 0.000000 0.000000 
#    y 0.000000 1.622860 0.000000 
#    z 0.000000 0.000000 1.655260 
# 
# From -- ./inp_files/9039.got.cif
#   From: 2010.03.12/outbox.cif.g09.slc.cpg/sg119_5_cif.got.tgz:9039.got - 2010.04.14 02:25:26.
