data_PCOD8310511
_publ_section_title
;
Structure prediction by ZEFSAII (Michael W. Deem and Ramdas Pophale) SiO2 
 PCOD8310511
Probable space group: P -4 N 2
;
_chemical_formula_sum "Si O2"
_cell_formula_units_Z 42
_cell_length_a 8.685665
_cell_length_b 8.685665
_cell_length_c 27.111964
_cell_angle_alpha 90.000000
_cell_angle_beta 90.000000
_cell_angle_gamma 90.000000
_cell_volume 2045.347616
_symmetry_space_group_name_H-M "P -4 N 2"
_symmetry_group_IT_number 118
_symmetry_cell_setting 'tetragonal'
loop_
_space_group_symop_operation_xyz
x,y,z
y,-x,-z
-x,-y,z
-y,x,-z
1/2+y,1/2+x,1/2-z
1/2-y,1/2-x,1/2-z
1/2-x,1/2+y,1/2+z
1/2+x,1/2-y,1/2+z
loop_
_atom_site_type_symbol
_atom_site_label
_atom_site_fract_x
_atom_site_fract_y
_atom_site_fract_z
Si Si1 0.000000 0.000000 0.500000
Si Si2 0.197745 0.268661 0.527312
Si Si3 0.502704 0.248550 0.331095
Si Si4 0.500000 0.000000 0.250000
Si Si5 0.500000 0.000000 0.750000
Si Si6 0.994707 0.243471 0.167999
Si Si7 0.171720 0.479578 0.439655
Si Si8 0.500000 0.000000 0.410723
O O1 0.093149 0.866921 0.470771
O O2 0.233592 0.336323 0.472403
O O3 0.365120 0.271321 0.552460
O O4 0.066766 0.365001 0.555497
O O5 0.506525 0.152874 0.281604
O O6 0.671276 0.324114 0.340772
O O7 0.387478 0.384677 0.320363
O O8 0.445007 0.141986 0.376442
O O9 0.352588 0.004773 0.784924
O O10 0.055484 0.327548 0.118536
O O11 0.000000 0.500000 0.458794
#
# Coordination Sequence:
#
# PCOD8310511 Si02
#       8
#     2   8   8   2   2   8   8   4
#     4  12  24  40  64  88 132 176 216 272 316 400
#     4  12  25  42  66  95 136 177 219 273 336 399
#     4  10  23  40  67  89 127 157 219 266 337 388
#     4  10  20  44  64  90 116 160 200 278 328 398
#     4  12  24  42  68  90 136 170 228 268 338 384
#     4  11  24  41  63  96 125 174 215 279 323 401
#     4  12  25  42  65  98 135 175 224 271 335 400
#     4  11  22  42  64  98 124 174 214 275 328 402
#
# _framework density 20.534407999999999
#
# number of rings (size 3 to 8) (size 9 to 14) (size 15 to 20)
#    0.000    0.762    5.714    1.143    5.333    0.381 
#    0.000    0.000    0.000    0.000    0.000    0.000 
#    0.000    0.000    0.000    0.000    0.000    0.000 
#
# Total GULP energy -520606.349792 kJ/mol
# GULP energy per Si atom -12395.389281 kJ/mol
# Density = 2.048767 g / cm^3
# Si number density = 20.534408 Si / 1000 Ang^3
#
#
#
# Elastic Constant Matrix: (Units=GPa)
#
#
# Indices 1 2 3 4 5 6 
#
# 1 94.2034 26.2122 38.3916 0.0000 0.0000 0.0000
# 2 26.2122 94.2034 38.3916 0.0000 0.0000 0.0000
# 3 38.3916 38.3916 143.8770 0.0000 0.0000 0.0000
# 4 0.0000 0.0000 0.0000 24.6319 0.0000 0.0000
# 5 0.0000 0.0000 0.0000 0.0000 24.6319 0.0000
# 6 0.0000 0.0000 0.0000 0.0000 0.0000 33.0102
#
#
#
# Elastic Compliance Matrix: (Units=1/GPa)
#
#
# Indices 1 2 3 4 5 6 
#
# 1 0.012358 -0.002350 -0.002670 0.000000 0.000000 0.000000
# 2 -0.002350 0.012358 -0.002670 0.000000 0.000000 0.000000
# 3 -0.002670 -0.002670 0.008375 0.000000 0.000000 0.000000
# 4 0.000000 0.000000 0.000000 0.040598 0.000000 0.000000
# 5 0.000000 0.000000 0.000000 0.000000 0.040598 0.000000
# 6 0.000000 0.000000 0.000000 0.000000 0.000000 0.030294
#
#
# Mechanical properties :
#
#
# Convention : Reuss Voigt Hill
#
# Bulk Modulus (GPa) = 56.46904 59.80826 58.13865
# Shear Modulus (GPa) = 30.14509 31.74068 30.94288
#
# Velocity S-wave (km/s) = 3.83564 3.93584 3.88607
# Velocity P-wave (km/s) = 6.86845 7.06000 6.96488
#
# Compressibility (1/GPa) = 0.01770882
#
# Stress axis : x y z
#
# Youngs Moduli (GPa) = 80.92225 80.92225 119.39654
#
# Poissons Ratio (x) = 0.19019 0.31883
# Poissons Ratio (y) = 0.19019 0.31883
# Poissons Ratio (z) = 0.21609 0.21609
#
# Static dielectric constant tensor:
#      x y z
#    x 3.793160 0.000000 0.000000 
#    y 0.000000 3.793160 0.000000 
#    z 0.000000 0.000000 3.701850 
# 
# 
# High freq. dielectric constant tensor:
#      x y z
#    x 1.807250 0.000000 0.000000 
#    y 0.000000 1.807250 0.000000 
#    z 0.000000 0.000000 1.806930 
# 
# From -- ./inp_files/6550.got.cif
#   From: 2010.03.12/outbox.cif.g09.slc.cpg/sg118_4_cif.got.tgz:6550.got - 2010.04.14 02:21:17.
