data_PCOD8310621
_publ_section_title
;
Structure prediction by ZEFSAII (Michael W. Deem and Ramdas Pophale) SiO2 
 PCOD8310621
Probable space group: P -4 N 2
;
_chemical_formula_sum "Si O2"
_cell_formula_units_Z 48
_cell_length_a 8.131243
_cell_length_b 8.131243
_cell_length_c 31.677805
_cell_angle_alpha 90.000000
_cell_angle_beta 90.000000
_cell_angle_gamma 90.000000
_cell_volume 2094.445004
_symmetry_space_group_name_H-M "P -4 N 2"
_symmetry_group_IT_number 118
_symmetry_cell_setting 'tetragonal'
loop_
_space_group_symop_operation_xyz
x,y,z
y,-x,-z
-x,-y,z
-y,x,-z
1/2+y,1/2+x,1/2-z
1/2-y,1/2-x,1/2-z
1/2-x,1/2+y,1/2+z
1/2+x,1/2-y,1/2+z
loop_
_atom_site_type_symbol
_atom_site_label
_atom_site_fract_x
_atom_site_fract_y
_atom_site_fract_z
Si Si1 0.810660 0.307252 0.701970
Si Si2 0.179367 0.346703 0.673095
Si Si3 0.083308 0.157390 0.432668
Si Si4 0.917224 0.656749 0.580989
Si Si5 0.189189 0.509510 0.151267
Si Si6 0.151455 0.225783 0.998103
O O1 0.765928 0.265928 0.750000
O O2 0.732648 0.489328 0.692006
O O3 0.005043 0.321071 0.695300
O O4 0.741900 0.158085 0.674091
O O5 0.173214 0.391535 0.623779
O O6 0.275275 0.173385 0.679178
O O7 0.148510 0.294729 0.464956
O O8 0.967057 0.227356 0.395121
O O9 0.231391 0.072961 0.407090
O O10 0.000000 0.000000 0.456508
O O11 0.790191 0.729412 0.546007
O O12 0.000000 0.500000 0.558731
O O13 0.000000 0.500000 0.141761
O O14 0.954630 0.223542 0.994324
#
# Coordination Sequence:
#
# PCOD8310621 Si02
#       6
#     8   8   8   8   8   8
#     4  11  24  49  78 109 142 192 245 298 368 449
#     4  11  22  47  78 104 138 190 242 299 365 433
#     4  12  25  45  70  97 137 190 242 293 358 427
#     4  12  22  42  72  98 136 187 241 289 360 427
#     4  12  27  47  72 110 151 189 239 305 367 449
#     4  11  28  45  66 104 142 183 238 308 359 426
#
# _framework density 22.917767000000001
#
# number of rings (size 3 to 8) (size 9 to 14) (size 15 to 20)
#    0.000    0.500    6.667    1.500    4.667    1.667 
#    9.000    0.000    0.000    0.000    0.000    0.000 
#    0.000    0.000    0.000    0.000    0.000    0.000 
#
# Total GULP energy -594809.442195 kJ/mol
# GULP energy per Si atom -12391.863379 kJ/mol
# Density = 2.286561 g / cm^3
# Si number density = 22.917767 Si / 1000 Ang^3
#
#
#
# Elastic Constant Matrix: (Units=GPa)
#
#
# Indices 1 2 3 4 5 6 
#
# 1 106.5906 28.6257 19.3221 0.0000 0.0000 0.0000
# 2 28.6257 106.5906 19.3221 0.0000 0.0000 0.0000
# 3 19.3221 19.3221 123.1765 0.0000 0.0000 0.0000
# 4 0.0000 0.0000 0.0000 25.4827 0.0000 0.0000
# 5 0.0000 0.0000 0.0000 0.0000 25.4827 0.0000
# 6 0.0000 0.0000 0.0000 0.0000 0.0000 27.3624
#
#
#
# Elastic Compliance Matrix: (Units=1/GPa)
#
#
# Indices 1 2 3 4 5 6 
#
# 1 0.010284 -0.002542 -0.001215 0.000000 0.000000 0.000000
# 2 -0.002542 0.010284 -0.001215 0.000000 0.000000 0.000000
# 3 -0.001215 -0.001215 0.008499 0.000000 0.000000 0.000000
# 4 0.000000 0.000000 0.000000 0.039242 0.000000 0.000000
# 5 0.000000 0.000000 0.000000 0.000000 0.039242 0.000000
# 6 0.000000 0.000000 0.000000 0.000000 0.000000 0.036547
#
#
# Mechanical properties :
#
#
# Convention : Reuss Voigt Hill
#
# Bulk Modulus (GPa) = 52.28320 52.32193 52.30257
# Shear Modulus (GPa) = 31.16879 33.60476 32.38678
#
# Velocity S-wave (km/s) = 3.69186 3.83341 3.76330
# Velocity P-wave (km/s) = 6.40593 6.51715 6.46178
#
# Compressibility (1/GPa) = 0.01912660
#
# Stress axis : x y z
#
# Youngs Moduli (GPa) = 97.23395 97.23395 117.65437
#
# Poissons Ratio (x) = 0.24715 0.14290
# Poissons Ratio (y) = 0.24715 0.14290
# Poissons Ratio (z) = 0.11810 0.11810
#
# Static dielectric constant tensor:
#      x y z
#    x 4.423750 0.000000 0.000000 
#    y 0.000000 4.423750 0.000000 
#    z 0.000000 0.000000 3.893200 
# 
# 
# High freq. dielectric constant tensor:
#      x y z
#    x 1.910250 0.000000 0.000000 
#    y 0.000000 1.910250 0.000000 
#    z 0.000000 0.000000 1.897800 
# 
# From -- ./inp_files/6848.got.cif
#   From: 2010.03.12/outbox.cif.g09.slc.cpg/sg118_4_cif.got.tgz:6848.got - 2010.04.14 02:21:17.
