data_PCOD8310665
_publ_section_title
;
Structure prediction by ZEFSAII (Michael W. Deem and Ramdas Pophale) SiO2 
 PCOD8310665
Probable space group: P -4 N 2
;
_chemical_formula_sum "Si O2"
_cell_formula_units_Z 20
_cell_length_a 5.073620
_cell_length_b 5.073620
_cell_length_c 32.287076
_cell_angle_alpha 90.000000
_cell_angle_beta 90.000000
_cell_angle_gamma 90.000000
_cell_volume 831.121638
_symmetry_space_group_name_H-M "P -4 N 2"
_symmetry_group_IT_number 118
_symmetry_cell_setting 'tetragonal'
loop_
_space_group_symop_operation_xyz
x,y,z
y,-x,-z
-x,-y,z
-y,x,-z
1/2+y,1/2+x,1/2-z
1/2-y,1/2-x,1/2-z
1/2-x,1/2+y,1/2+z
1/2+x,1/2-y,1/2+z
loop_
_atom_site_type_symbol
_atom_site_label
_atom_site_fract_x
_atom_site_fract_y
_atom_site_fract_z
Si Si1 0.000000 0.500000 0.250000
Si Si2 0.741190 0.179684 0.571095
Si Si3 0.000000 0.000000 0.000000
Si Si4 0.500000 0.500000 0.807597
Si Si5 0.000000 0.500000 0.636193
O O1 0.250942 0.470522 0.221281
O O2 0.692082 0.318290 0.527158
O O3 0.763775 0.408400 0.605812
O O4 0.500000 0.000000 0.585138
O O5 0.000000 0.000000 0.567910
O O6 0.248366 0.428403 0.835518
#
# Coordination Sequence:
#
# PCOD8310665 Si02
#       5
#     2   8   2   4   4
#     4  12  28  52  80 130 154 210 252 316 416 478
#     4  12  30  52  79 118 159 220 274 346 403 476
#     4  12  32  44  82 108 172 212 296 332 418 456
#     4  12  28  50  87 115 170 198 264 325 395 502
#     4  12  28  55  82 121 158 216 268 331 404 473
#
# _framework density 24.063866000000001
#
# number of rings (size 3 to 8) (size 9 to 14) (size 15 to 20)
#    0.000    0.000    2.000    4.800   11.200    3.200 
#    0.000    0.000    0.000    0.000    0.000    0.000 
#    0.000    0.000    0.000    0.000    0.000    0.000 
#
# Total GULP energy -248007.609444 kJ/mol
# GULP energy per Si atom -12400.380472 kJ/mol
# Density = 2.400910 g / cm^3
# Si number density = 24.063866 Si / 1000 Ang^3
#
#
#
# Elastic Constant Matrix: (Units=GPa)
#
#
# Indices 1 2 3 4 5 6 
#
# 1 204.4228 87.3455 102.9192 0.0000 0.0000 0.0000
# 2 87.3455 204.4228 102.9192 0.0000 0.0000 0.0000
# 3 102.9192 102.9192 200.2561 0.0000 0.0000 0.0000
# 4 0.0000 0.0000 0.0000 166.3550 0.0000 0.0000
# 5 0.0000 0.0000 0.0000 0.0000 166.3550 0.0000
# 6 0.0000 0.0000 0.0000 0.0000 0.0000 49.2955
#
#
#
# Elastic Compliance Matrix: (Units=1/GPa)
#
#
# Indices 1 2 3 4 5 6 
#
# 1 0.006959 -0.001582 -0.002763 0.000000 0.000000 0.000000
# 2 -0.001582 0.006959 -0.002763 0.000000 0.000000 0.000000
# 3 -0.002763 -0.002763 0.007834 0.000000 0.000000 0.000000
# 4 0.000000 0.000000 0.000000 0.006011 0.000000 0.000000
# 5 0.000000 0.000000 0.000000 0.000000 0.006011 0.000000
# 6 0.000000 0.000000 0.000000 0.000000 0.000000 0.020286
#
#
# Mechanical properties :
#
#
# Convention : Reuss Voigt Hill
#
# Bulk Modulus (GPa) = 132.72690 132.82994 132.77842
# Shear Modulus (GPa) = 70.63132 97.46227 84.04679
#
# Velocity S-wave (km/s) = 5.42359 6.37098 5.91628
# Velocity P-wave (km/s) = 9.72092 10.46126 10.09788
#
# Compressibility (1/GPa) = 0.00753427
#
# Stress axis : x y z
#
# Youngs Moduli (GPa) = 143.69583 143.69583 127.64806
#
# Poissons Ratio (x) = 0.22736 0.35274
# Poissons Ratio (y) = 0.22736 0.35274
# Poissons Ratio (z) = 0.39709 0.39709
#
# Static dielectric constant tensor:
#      x y z
#    x 4.519750 0.000000 0.000000 
#    y 0.000000 4.519750 0.000000 
#    z 0.000000 0.000000 4.781570 
# 
# 
# High freq. dielectric constant tensor:
#      x y z
#    x 1.971960 0.000000 0.000000 
#    y 0.000000 1.971960 0.000000 
#    z 0.000000 0.000000 1.976610 
# 
# From -- ./inp_files/6341.got.cif
#   From: 2010.03.12/outbox.cif.g09.slc.cpg/sg118_4_cif.got.tgz:6341.got - 2010.04.14 02:21:17.
