data_PCOD8310471
_publ_section_title
;
Structure prediction by ZEFSAII (Michael W. Deem and Ramdas Pophale) SiO2 
 PCOD8310471
Probable space group: P -4 N 2
;
_chemical_formula_sum "Si O2"
_cell_formula_units_Z 40
_cell_length_a 14.953089
_cell_length_b 14.953089
_cell_length_c 8.717276
_cell_angle_alpha 90.000000
_cell_angle_beta 90.000000
_cell_angle_gamma 90.000000
_cell_volume 1949.138200
_symmetry_space_group_name_H-M "P -4 N 2"
_symmetry_group_IT_number 118
_symmetry_cell_setting 'tetragonal'
loop_
_space_group_symop_operation_xyz
x,y,z
y,-x,-z
-x,-y,z
-y,x,-z
1/2+y,1/2+x,1/2-z
1/2-y,1/2-x,1/2-z
1/2-x,1/2+y,1/2+z
1/2+x,1/2-y,1/2+z
loop_
_atom_site_type_symbol
_atom_site_label
_atom_site_fract_x
_atom_site_fract_y
_atom_site_fract_z
Si Si1 0.581471 0.137949 0.084660
Si Si2 0.912118 0.886577 0.968857
Si Si3 0.306760 0.328158 0.825089
Si Si4 0.102883 0.279354 0.156426
Si Si5 0.318729 0.061599 0.638529
O O1 0.589392 0.089392 0.250000
O O2 0.602299 0.246169 0.078305
O O3 0.650276 0.082992 0.979366
O O4 0.481555 0.130926 0.009878
O O5 0.880156 0.867902 0.796859
O O6 0.870563 0.815713 0.086261
O O7 0.018737 0.878078 0.971830
O O8 0.229623 0.270378 0.750000
O O9 0.371626 0.260671 0.919074
O O10 0.189591 0.310410 0.250000
O O11 0.016545 0.272804 0.263257
O O12 0.387832 0.112169 0.750000
#
# Coordination Sequence:
#
# PCOD8310471 Si02
#       5
#     8   8   8   8   8
#     4  10  20  38  64  90 122 165 203 267 307 367
#     4  11  21  37  61  89 123 162 207 260 311 371
#     4  10  19  38  62  83 123 164 205 254 310 370
#     4  10  20  38  62  87 120 164 209 250 317 369
#     4  10  22  40  63  89 122 168 211 254 316 384
#
# _framework density 20.521889000000002
#
# number of rings (size 3 to 8) (size 9 to 14) (size 15 to 20)
#    0.000    1.800    6.000    0.000    0.000    3.600 
#    7.200    2.000    0.000    0.000    0.000    0.000 
#    0.000    0.000    0.000    0.000    0.000    0.000 
#
# Total GULP energy -495673.330209 kJ/mol
# GULP energy per Si atom -12391.833255 kJ/mol
# Density = 2.047518 g / cm^3
# Si number density = 20.521889 Si / 1000 Ang^3
#
#
#
# Elastic Constant Matrix: (Units=GPa)
#
#
# Indices 1 2 3 4 5 6 
#
# 1 76.0426 33.3447 20.8647 0.0000 0.0000 0.0000
# 2 33.3447 76.0491 20.8669 0.0000 0.0000 0.0000
# 3 20.8647 20.8669 82.9466 0.0000 0.0000 0.0000
# 4 0.0000 0.0000 0.0000 25.9222 0.0000 0.0000
# 5 0.0000 0.0000 0.0000 0.0000 25.9264 0.0000
# 6 0.0000 0.0000 0.0000 0.0000 0.0000 31.2687
#
#
#
# Elastic Compliance Matrix: (Units=1/GPa)
#
#
# Indices 1 2 3 4 5 6 
#
# 1 0.016766 -0.006653 -0.002544 0.000000 0.000000 0.000000
# 2 -0.006653 0.016765 -0.002544 0.000000 0.000000 0.000000
# 3 -0.002544 -0.002544 0.013336 0.000000 0.000000 0.000000
# 4 0.000000 0.000000 0.000000 0.038577 0.000000 0.000000
# 5 0.000000 0.000000 0.000000 0.000000 0.038571 0.000000
# 6 0.000000 0.000000 0.000000 0.000000 0.000000 0.031981
#
#
# Mechanical properties :
#
#
# Convention : Reuss Voigt Hill
#
# Bulk Modulus (GPa) = 42.76296 42.79900 42.78098
# Shear Modulus (GPa) = 26.69924 27.28759 26.99342
#
# Velocity S-wave (km/s) = 3.61087 3.65044 3.63071
# Velocity P-wave (km/s) = 6.18607 6.21837 6.20224
#
# Compressibility (1/GPa) = 0.02338473
#
# Stress axis : x y z
#
# Youngs Moduli (GPa) = 59.64490 59.64945 74.98648
#
# Poissons Ratio (x) = 0.39686 0.19073
# Poissons Ratio (y) = 0.39683 0.19076
# Poissons Ratio (z) = 0.15171 0.15174
#
# Static dielectric constant tensor:
#      x y z
#    x 3.877730 0.000000 0.000000 
#    y 0.000000 3.877730 0.000000 
#    z 0.000000 0.000000 3.797010 
# 
# 
# High freq. dielectric constant tensor:
#      x y z
#    x 1.800190 0.000000 0.000000 
#    y 0.000000 1.800190 0.000000 
#    z 0.000000 0.000000 1.787050 
# 
# From -- ./inp_files/1892.got.cif
#   From: 2010.03.12/outbox.cif.g09.slc.cpg/sg118_1_cif.got.tgz:1892.got - 2010.04.14 02:21:17.
