data_PCOD8310012
_publ_section_title
;
Structure prediction by ZEFSAII (Michael W. Deem and Ramdas Pophale) SiO2 
 PCOD8310012
Probable space group: P -4 M 2
;
_chemical_formula_sum "Si O2"
_cell_formula_units_Z 44
_cell_length_a 9.249467
_cell_length_b 9.249467
_cell_length_c 28.395218
_cell_angle_alpha 90.000000
_cell_angle_beta 90.000000
_cell_angle_gamma 90.000000
_cell_volume 2429.285857
_symmetry_space_group_name_H-M "P -4 M 2"
_symmetry_group_IT_number 115
_symmetry_cell_setting 'tetragonal'
loop_
_space_group_symop_operation_xyz
x,y,z
y,-x,-z
-x,-y,z
-y,x,-z
y,x,-z
-y,-x,-z
-x,y,z
x,-y,z
loop_
_atom_site_type_symbol
_atom_site_label
_atom_site_fract_x
_atom_site_fract_y
_atom_site_fract_z
Si Si1 0.670125 0.830063 0.957903
Si Si2 0.328628 0.159230 0.228256
Si Si3 0.331787 0.168024 0.591922
Si Si4 0.167924 0.167924 0.500000
Si Si5 0.331900 0.332036 0.316805
Si Si6 0.667793 0.170209 0.122919
O O1 0.500000 0.797868 0.959932
O O2 0.734481 0.770884 0.909394
O O3 0.701991 0.000000 0.962093
O O4 0.747869 0.747869 0.000000
O O5 0.500000 0.152519 0.231324
O O6 0.266978 0.261417 0.269337
O O7 0.287418 0.214569 0.176127
O O8 0.263212 0.000000 0.236385
O O9 0.500000 0.200897 0.584849
O O10 0.250876 0.227015 0.545762
O O11 0.269619 0.250762 0.637464
O O12 0.299749 0.000000 0.599618
O O13 0.000000 0.200127 0.507953
O O14 0.500000 0.296662 0.323063
O O15 0.300696 0.500000 0.311599
O O16 0.500000 0.207160 0.112703
O O17 0.694149 0.000000 0.114245
#
# Coordination Sequence:
#
# PCOD8310012 Si02
#       6
#     8   8   8   4   8   8
#     4  11  24  39  55  78 106 135 170 210 251 298
#     4   8  15  29  49  73 100 128 159 197 238 280
#     4   9  18  32  47  64  90 122 152 186 234 285
#     4   9  18  32  48  65  86 114 150 191 232 278
#     4   9  17  29  46  69  95 123 157 194 231 275
#     4   9  18  34  56  80 105 134 169 208 250 296
#
# _framework density 18.11232
#
# number of rings (size 3 to 8) (size 9 to 14) (size 15 to 20)
#    0.000    2.818    0.000    2.182    0.000    6.182 
#    0.000    2.727    0.000    3.273    0.000    0.000 
#    0.000    0.000    0.000    0.000    0.000    0.000 
#
# Total GULP energy -545519.912153 kJ/mol
# GULP energy per Si atom -12398.179822 kJ/mol
# Density = 1.807110 g / cm^3
# Si number density = 18.112320 Si / 1000 Ang^3
#
#
#
# Elastic Constant Matrix: (Units=GPa)
#
#
# Indices 1 2 3 4 5 6 
#
# 1 68.4144 48.8604 73.3218 0.0000 0.0000 0.0000
# 2 48.8604 68.4144 73.3218 0.0000 0.0000 0.0000
# 3 73.3218 73.3218 193.8043 0.0000 0.0000 0.0000
# 4 0.0000 0.0000 0.0000 20.6135 0.0000 0.0000
# 5 0.0000 0.0000 0.0000 0.0000 20.6135 0.0000
# 6 0.0000 0.0000 0.0000 0.0000 0.0000 22.3200
#
#
#
# Elastic Compliance Matrix: (Units=1/GPa)
#
#
# Indices 1 2 3 4 5 6 
#
# 1 0.033661 -0.017479 -0.006122 0.000000 0.000000 0.000000
# 2 -0.017479 0.033661 -0.006122 0.000000 0.000000 0.000000
# 3 -0.006122 -0.006122 0.009792 0.000000 0.000000 0.000000
# 4 0.000000 0.000000 0.000000 0.048512 0.000000 0.000000
# 5 0.000000 0.000000 0.000000 0.000000 0.048512 0.000000
# 6 0.000000 0.000000 0.000000 0.000000 0.000000 0.044803
#
#
# Mechanical properties :
#
#
# Convention : Reuss Voigt Hill
#
# Bulk Modulus (GPa) = 56.59927 80.18232 68.39080
# Shear Modulus (GPa) = 17.58844 21.71804 19.65324
#
# Velocity S-wave (km/s) = 3.11959 3.46652 3.29762
# Velocity P-wave (km/s) = 6.65527 7.77097 7.23466
#
# Compressibility (1/GPa) = 0.01766807
#
# Stress axis : x y z
#
# Youngs Moduli (GPa) = 29.70768 29.70768 102.12084
#
# Poissons Ratio (x) = 0.51926 0.62521
# Poissons Ratio (y) = 0.51926 0.62521
# Poissons Ratio (z) = 0.18188 0.18188
#
# Static dielectric constant tensor:
#      x y z
#    x 3.248970 0.000000 0.000000 
#    y 0.000000 3.248970 0.000000 
#    z 0.000000 0.000000 3.744970 
# 
# 
# High freq. dielectric constant tensor:
#      x y z
#    x 1.685790 0.000000 0.000000 
#    y 0.000000 1.685790 0.000000 
#    z 0.000000 0.000000 1.719460 
# 
# From -- ./inp_files/5768.got.cif
#   From: 2010.03.12/outbox.cif.g09.slc.cpg/sg115_3_cif.got.tgz:5768.got - 2010.04.14 02:11:21.
