data_PCOD8310941
_publ_section_title
;
Structure prediction by ZEFSAII (Michael W. Deem and Ramdas Pophale) SiO2 
 PCOD8310941
Probable space group: I -4 M 2
;
_chemical_formula_sum "Si O2"
_cell_formula_units_Z 64
_cell_length_a 10.892323
_cell_length_b 10.892323
_cell_length_c 27.152403
_cell_angle_alpha 90.000000
_cell_angle_beta 90.000000
_cell_angle_gamma 90.000000
_cell_volume 3221.434413
_symmetry_space_group_name_H-M "I -4 M 2"
_symmetry_group_IT_number 119
_symmetry_cell_setting 'tetragonal'
loop_
_space_group_symop_operation_xyz
x,y,z
y,-x,-z
-x,-y,z
-y,x,-z
y,x,-z
-y,-x,-z
-x,y,z
x,-y,z
1/2+x,1/2+y,1/2+z
1/2+y,1/2-x,1/2-z
1/2-x,1/2-y,1/2+z
1/2-y,1/2+x,1/2-z
1/2+y,1/2+x,1/2-z
1/2-y,1/2-x,1/2-z
1/2-x,1/2+y,1/2+z
1/2+x,1/2-y,1/2+z
loop_
_atom_site_type_symbol
_atom_site_label
_atom_site_fract_x
_atom_site_fract_y
_atom_site_fract_z
Si Si1 0.000000 0.500000 0.535449
Si Si2 0.243718 0.139576 0.706959
Si Si3 0.761224 0.645045 0.096852
Si Si4 0.248876 0.500000 0.796205
Si Si5 0.500000 0.000000 0.250000
Si Si6 0.500000 0.226112 0.539781
Si Si7 0.500000 0.500000 0.500000
Si Si8 0.500000 0.743587 0.088761
O O1 0.873013 0.500000 0.504671
O O2 0.000000 0.617258 0.570924
O O3 0.344730 0.155271 0.750000
O O4 0.274732 0.196130 0.653231
O O5 0.119395 0.194830 0.729736
O O6 0.220435 0.000000 0.695743
O O7 0.777721 0.500000 0.092846
O O8 0.629046 0.680363 0.071805
O O9 0.874480 0.706730 0.069336
O O10 0.106146 0.500000 0.789181
O O11 0.277481 0.500000 0.853340
O O12 0.500000 0.370817 0.528584
#
# Coordination Sequence:
#
# PCOD8310941 Si02
#       8
#     4  16  16   8   2   8   2   8
#     4  12  23  42  68  91 127 162 212 257 320 388
#     4  10  21  36  59  88 122 162 205 251 302 365
#     4  10  21  41  64  91 125 162 210 264 316 361
#     4  10  20  37  56  86 122 156 201 253 306 352
#     4  12  18  32  60  76 116 156 204 234 300 360
#     4  12  24  45  66  93 128 165 203 263 319 387
#     4  12  28  44  68  92 132 168 204 244 344 392
#     4  10  22  38  64  90 121 161 210 255 312 376
#
# _framework density 19.866925999999999
#
# number of rings (size 3 to 8) (size 9 to 14) (size 15 to 20)
#    0.000    1.500    2.500    2.625    1.750    3.250 
#    0.000    2.500    2.750    0.000    0.000    0.000 
#    0.000    0.000    0.000    0.000    0.000    0.000 
#
# Total GULP energy -396455.918834 kJ/mol
# GULP energy per Si atom -12389.247464 kJ/mol
# Density = 1.982171 g / cm^3
# Si number density = 19.866926 Si / 1000 Ang^3
#
#
#
# Elastic Constant Matrix: (Units=GPa)
#
#
# Indices 1 2 3 4 5 6 
#
# 1 133.8423 47.9029 37.2251 0.0000 0.0000 0.0000
# 2 47.9029 133.8434 37.2252 0.0000 0.0000 0.0000
# 3 37.2251 37.2252 53.8792 0.0000 0.0000 0.0000
# 4 0.0000 0.0000 0.0000 45.3109 0.0000 0.0000
# 5 0.0000 0.0000 0.0000 0.0000 45.3228 0.0000
# 6 0.0000 0.0000 0.0000 0.0000 0.0000 35.1158
#
#
#
# Elastic Compliance Matrix: (Units=1/GPa)
#
#
# Indices 1 2 3 4 5 6 
#
# 1 0.009655 -0.001981 -0.005302 0.000000 0.000000 0.000000
# 2 -0.001981 0.009655 -0.005302 0.000000 0.000000 0.000000
# 3 -0.005302 -0.005302 0.025886 0.000000 0.000000 0.000000
# 4 0.000000 0.000000 0.000000 0.022070 0.000000 0.000000
# 5 0.000000 0.000000 0.000000 0.000000 0.022064 0.000000
# 6 0.000000 0.000000 0.000000 0.000000 0.000000 0.028477
#
#
# Mechanical properties :
#
#
# Convention : Reuss Voigt Hill
#
# Bulk Modulus (GPa) = 49.93397 62.91903 56.42650
# Shear Modulus (GPa) = 33.41060 38.43066 35.92063
#
# Velocity S-wave (km/s) = 4.10533 4.40296 4.25674
# Velocity P-wave (km/s) = 6.90365 7.58861 7.25422
#
# Compressibility (1/GPa) = 0.02002645
#
# Stress axis : x y z
#
# Youngs Moduli (GPa) = 103.57200 103.57293 38.63032
#
# Poissons Ratio (x) = 0.20517 0.20482
# Poissons Ratio (y) = 0.20517 0.20482
# Poissons Ratio (z) = 0.54915 0.54915
#
# Static dielectric constant tensor:
#      x y z
#    x 3.835440 0.000000 0.000000 
#    y 0.000000 3.835440 0.000000 
#    z 0.000000 0.000000 3.577530 
# 
# 
# High freq. dielectric constant tensor:
#      x y z
#    x 1.785850 0.000000 0.000000 
#    y 0.000000 1.785850 0.000000 
#    z 0.000000 0.000000 1.764130 
# 
# From -- ./inp_files/8585.got.cif
#   From: 2010.03.12/outbox.cif.g09.slc.cpg/sg119_5_cif.got.tgz:8585.got - 2010.04.14 02:25:26.
