data_PCOD8310977
_publ_section_title
;
Structure prediction by ZEFSAII (Michael W. Deem and Ramdas Pophale) SiO2 
 PCOD8310977
Probable space group: I -4 M 2
;
_chemical_formula_sum "Si O2"
_cell_formula_units_Z 48
_cell_length_a 9.321381
_cell_length_b 9.321381
_cell_length_c 31.027339
_cell_angle_alpha 90.000000
_cell_angle_beta 90.000000
_cell_angle_gamma 90.000000
_cell_volume 2695.907891
_symmetry_space_group_name_H-M "I -4 M 2"
_symmetry_group_IT_number 119
_symmetry_cell_setting 'tetragonal'
loop_
_space_group_symop_operation_xyz
x,y,z
y,-x,-z
-x,-y,z
-y,x,-z
y,x,-z
-y,-x,-z
-x,y,z
x,-y,z
1/2+x,1/2+y,1/2+z
1/2+y,1/2-x,1/2-z
1/2-x,1/2-y,1/2+z
1/2-y,1/2+x,1/2-z
1/2+y,1/2+x,1/2-z
1/2-y,1/2-x,1/2-z
1/2-x,1/2+y,1/2+z
1/2+x,1/2-y,1/2+z
loop_
_atom_site_type_symbol
_atom_site_label
_atom_site_fract_x
_atom_site_fract_y
_atom_site_fract_z
Si Si1 0.329014 0.159671 0.203170
Si Si2 0.833613 0.668712 0.463299
Si Si3 0.832597 0.835730 0.378348
O O1 0.500000 0.156284 0.203744
O O2 0.278959 0.221042 0.250000
O O3 0.272316 0.258168 0.164409
O O4 0.267751 0.000000 0.195535
O O5 0.735939 0.735939 0.500000
O O6 0.805680 0.500000 0.460808
O O7 0.784680 0.738964 0.418420
O O8 0.000000 0.703891 0.472995
O O9 0.000000 0.824687 0.369943
O O10 0.785821 0.000000 0.387581
#
# Coordination Sequence:
#
# PCOD8310977 Si02
#       3
#    16  16  16
#     4   8  14  26  45  68  93 122 157 195 233 276
#     4  10  21  36  53  73  98 128 162 201 245 293
#     4   9  17  30  49  71  94 122 158 198 237 281
#
# _framework density 17.804763999999999
#
# number of rings (size 3 to 8) (size 9 to 14) (size 15 to 20)
#    0.000    3.000    0.000    2.000    0.000    3.333 
#    0.000    5.000    0.000    2.000    0.000    0.000 
#    0.000    0.000    0.000    0.000    0.000    0.000 
#
# Total GULP energy -297527.482345 kJ/mol
# GULP energy per Si atom -12396.978431 kJ/mol
# Density = 1.776424 g / cm^3
# Si number density = 17.804764 Si / 1000 Ang^3
#
#
#
# Elastic Constant Matrix: (Units=GPa)
#
#
# Indices 1 2 3 4 5 6 
#
# 1 62.1930 37.7153 71.8649 0.0000 0.0000 0.0000
# 2 37.7153 62.1928 71.8648 0.0000 0.0000 0.0000
# 3 71.8649 71.8648 195.2633 0.0000 0.0000 0.0000
# 4 0.0000 0.0000 0.0000 31.2459 0.0000 0.0000
# 5 0.0000 0.0000 0.0000 0.0000 31.2460 0.0000
# 6 0.0000 0.0000 0.0000 0.0000 0.0000 17.5752
#
#
#
# Elastic Compliance Matrix: (Units=1/GPa)
#
#
# Indices 1 2 3 4 5 6 
#
# 1 0.031063 -0.009791 -0.007829 0.000000 0.000000 0.000000
# 2 -0.009791 0.031063 -0.007829 0.000000 0.000000 0.000000
# 3 -0.007829 -0.007829 0.010884 0.000000 0.000000 0.000000
# 4 0.000000 0.000000 0.000000 0.032004 0.000000 0.000000
# 5 0.000000 0.000000 0.000000 0.000000 0.032004 0.000000
# 6 0.000000 0.000000 0.000000 0.000000 0.000000 0.056898
#
#
# Mechanical properties :
#
#
# Convention : Reuss Voigt Hill
#
# Bulk Modulus (GPa) = 45.22366 75.83768 60.53067
# Shear Modulus (GPa) = 19.82674 25.22703 22.52688
#
# Velocity S-wave (km/s) = 3.34063 3.76822 3.56085
# Velocity P-wave (km/s) = 6.35096 7.84978 7.13981
#
# Compressibility (1/GPa) = 0.02211232
#
# Stress axis : x y z
#
# Youngs Moduli (GPa) = 32.19286 32.19269 91.87725
#
# Poissons Ratio (x) = 0.31519 0.71931
# Poissons Ratio (y) = 0.31519 0.71931
# Poissons Ratio (z) = 0.25204 0.25204
#
# Static dielectric constant tensor:
#      x y z
#    x 3.154510 0.000000 0.000000 
#    y 0.000000 3.154510 0.000000 
#    z 0.000000 0.000000 3.655930 
# 
# 
# High freq. dielectric constant tensor:
#      x y z
#    x 1.664860 0.000000 0.000000 
#    y 0.000000 1.664860 0.000000 
#    z 0.000000 0.000000 1.706060 
# 
# From -- ./inp_files/9778.got.cif
#   From: 2010.03.12/outbox.cif.g09.slc.cpg/sg119_5_cif.got.tgz:9778.got - 2010.04.14 02:25:26.
