data_PCOD8310569
_publ_section_title
;
Structure prediction by ZEFSAII (Michael W. Deem and Ramdas Pophale) SiO2 
 PCOD8310569
Probable space group: P -4 N 2
;
_chemical_formula_sum "Si O2"
_cell_formula_units_Z 20
_cell_length_a 9.001106
_cell_length_b 9.001106
_cell_length_c 9.980998
_cell_angle_alpha 90.000000
_cell_angle_beta 90.000000
_cell_angle_gamma 90.000000
_cell_volume 808.659552
_symmetry_space_group_name_H-M "P -4 N 2"
_symmetry_group_IT_number 118
_symmetry_cell_setting 'tetragonal'
loop_
_space_group_symop_operation_xyz
x,y,z
y,-x,-z
-x,-y,z
-y,x,-z
1/2+y,1/2+x,1/2-z
1/2-y,1/2-x,1/2-z
1/2-x,1/2+y,1/2+z
1/2+x,1/2-y,1/2+z
loop_
_atom_site_type_symbol
_atom_site_label
_atom_site_fract_x
_atom_site_fract_y
_atom_site_fract_z
Si Si1 0.075257 0.692581 0.892345
Si Si2 0.000000 0.000000 0.500000
Si Si3 0.000000 0.000000 0.000000
Si Si4 0.254112 0.317445 0.894957
O O1 0.141473 0.641473 0.750000
O O2 0.913172 0.614892 0.923143
O O3 0.031097 0.866955 0.895585
O O4 0.195791 0.675111 0.007485
O O5 0.958087 0.862557 0.596675
O O6 0.256986 0.243015 0.750000
#
# Coordination Sequence:
#
# PCOD8310569 Si02
#       4
#     8   2   2   8
#     4  10  22  44  73 103 144 187 231 290 352 412
#     4  12  28  46  72 106 140 182 236 290 348 426
#     4   8  20  42  72 110 144 186 236 290 348 414
#     4  11  26  46  72 106 141 184 235 289 350 415
#
# _framework density 24.732285000000001
#
# number of rings (size 3 to 8) (size 9 to 14) (size 15 to 20)
#    0.000    1.600    0.000    2.400    0.000   26.400 
#    0.000    2.000    0.000    0.000    0.000    0.000 
#    0.000    0.000    0.000    0.000    0.000    0.000 
#
# Total GULP energy -247783.476963 kJ/mol
# GULP energy per Si atom -12389.173848 kJ/mol
# Density = 2.467599 g / cm^3
# Si number density = 24.732285 Si / 1000 Ang^3
#
#
#
# Elastic Constant Matrix: (Units=GPa)
#
#
# Indices 1 2 3 4 5 6 
#
# 1 90.8230 104.3390 76.8121 0.0000 0.0000 0.0000
# 2 104.3390 90.8226 76.8118 0.0000 0.0000 0.0000
# 3 76.8121 76.8118 167.6041 0.0000 0.0000 0.0000
# 4 0.0000 0.0000 0.0000 40.8928 0.0000 0.0000
# 5 0.0000 0.0000 0.0000 0.0000 40.8926 0.0000
# 6 0.0000 0.0000 0.0000 0.0000 0.0000 63.6311
#
#
#
# Elastic Compliance Matrix: (Units=1/GPa)
#
#
# Indices 1 2 3 4 5 6 
#
# 1 -0.032985 0.041001 -0.003673 0.000000 0.000000 0.000000
# 2 0.041001 -0.032985 -0.003674 0.000000 0.000000 0.000000
# 3 -0.003673 -0.003674 0.009334 0.000000 0.000000 0.000000
# 4 0.000000 0.000000 0.000000 0.024454 0.000000 0.000000
# 5 0.000000 0.000000 0.000000 0.000000 0.024454 0.000000
# 6 0.000000 0.000000 0.000000 0.000000 0.000000 0.015716
#
#
# Mechanical properties :
#
#
# Convention : Reuss Voigt Hill
#
# Bulk Modulus (GPa) = 93.71440 96.13060 94.92250
# Shear Modulus (GPa) = -89.66564 35.16909 -27.24827
#
# Velocity S-wave (km/s) = -6.02770 3.77502 -3.32283
# Velocity P-wave (km/s) = 3.23581 7.61275 4.87255
#
# Compressibility (1/GPa) = 0.01067072
#
# Stress axis : x y z
#
# Youngs Moduli (GPa) = -30.31682 -30.31679 107.14070
#
# Poissons Ratio (x) = 1.24301 0.39357
# Poissons Ratio (y) = 1.24301 0.39359
# Poissons Ratio (z) = -0.11137 -0.11137
#
# Static dielectric constant tensor:
#      x y z
#    x 5.251630 0.000000 0.000000 
#    y 0.000000 5.251630 0.000000 
#    z 0.000000 0.000000 4.146060 
# 
# 
# High freq. dielectric constant tensor:
#      x y z
#    x 2.013950 0.000000 0.000000 
#    y 0.000000 2.013950 0.000000 
#    z 0.000000 0.000000 1.965930 
# 
# From -- ./inp_files/1300.got.cif
#   From: 2010.03.12/outbox.cif.g09.slc.cpg/sg118_1_cif.got.tgz:1300.got - 2010.04.14 02:21:17.
