data_PCOD8310628
_publ_section_title
;
Structure prediction by ZEFSAII (Michael W. Deem and Ramdas Pophale) SiO2 
 PCOD8310628
Probable space group: P -4 N 2
;
_chemical_formula_sum "Si O2"
_cell_formula_units_Z 32
_cell_length_a 7.718616
_cell_length_b 7.718616
_cell_length_c 22.685063
_cell_angle_alpha 90.000000
_cell_angle_beta 90.000000
_cell_angle_gamma 90.000000
_cell_volume 1351.508746
_symmetry_space_group_name_H-M "P -4 N 2"
_symmetry_group_IT_number 118
_symmetry_cell_setting 'tetragonal'
loop_
_space_group_symop_operation_xyz
x,y,z
y,-x,-z
-x,-y,z
-y,x,-z
1/2+y,1/2+x,1/2-z
1/2-y,1/2-x,1/2-z
1/2-x,1/2+y,1/2+z
1/2+x,1/2-y,1/2+z
loop_
_atom_site_type_symbol
_atom_site_label
_atom_site_fract_x
_atom_site_fract_y
_atom_site_fract_z
Si Si1 0.844232 0.239549 0.000201
Si Si2 0.372657 0.795966 0.316629
Si Si3 0.681778 0.922274 0.616839
Si Si4 0.277028 0.147867 0.372215
O O1 0.802982 0.343216 0.941496
O O2 0.752800 0.336460 0.055371
O O3 0.049820 0.234113 0.008961
O O4 0.360585 0.860585 0.250000
O O5 0.230568 0.650360 0.333699
O O6 0.570488 0.747635 0.335421
O O7 0.297269 0.948741 0.356887
O O8 0.500000 0.000000 0.600730
O O9 0.797228 0.079997 0.643242
#
# Coordination Sequence:
#
# PCOD8310628 Si02
#       4
#     8   8   8   8
#     4  11  23  43  70 107 160 194 238 306 385 456
#     4  11  27  53  72 102 151 203 256 310 373 446
#     4  12  26  45  70 115 143 193 247 309 377 450
#     4  11  24  46  75 106 144 197 250 304 374 441
#
# _framework density 23.677240999999999
#
# number of rings (size 3 to 8) (size 9 to 14) (size 15 to 20)
#    0.000    0.750    5.000    2.250    7.000    1.500 
#   13.500    0.000    0.000    0.000    0.000    0.000 
#    0.000    0.000    0.000    0.000    0.000    0.000 
#
# Total GULP energy -396533.689730 kJ/mol
# GULP energy per Si atom -12391.677804 kJ/mol
# Density = 2.362335 g / cm^3
# Si number density = 23.677241 Si / 1000 Ang^3
#
#
#
# Elastic Constant Matrix: (Units=GPa)
#
#
# Indices 1 2 3 4 5 6 
#
# 1 96.2386 27.2494 29.5035 0.0000 0.0000 0.0000
# 2 27.2494 96.2386 29.5035 0.0000 0.0000 0.0000
# 3 29.5035 29.5035 115.3885 0.0000 0.0000 0.0000
# 4 0.0000 0.0000 0.0000 26.4835 0.0000 0.0000
# 5 0.0000 0.0000 0.0000 0.0000 26.4835 0.0000
# 6 0.0000 0.0000 0.0000 0.0000 0.0000 34.7486
#
#
#
# Elastic Compliance Matrix: (Units=1/GPa)
#
#
# Indices 1 2 3 4 5 6 
#
# 1 0.011860 -0.002635 -0.002359 0.000000 0.000000 0.000000
# 2 -0.002635 0.011860 -0.002359 0.000000 0.000000 0.000000
# 3 -0.002359 -0.002359 0.009873 0.000000 0.000000 0.000000
# 4 0.000000 0.000000 0.000000 0.037759 0.000000 0.000000
# 5 0.000000 0.000000 0.000000 0.000000 0.037759 0.000000
# 6 0.000000 0.000000 0.000000 0.000000 0.000000 0.028778
#
#
# Mechanical properties :
#
#
# Convention : Reuss Voigt Hill
#
# Bulk Modulus (GPa) = 52.94446 53.37539 53.15993
# Shear Modulus (GPa) = 31.46824 32.31707 31.89265
#
# Velocity S-wave (km/s) = 3.64957 3.69846 3.67410
# Velocity P-wave (km/s) = 6.33787 6.38984 6.36391
#
# Compressibility (1/GPa) = 0.01888772
#
# Stress axis : x y z
#
# Youngs Moduli (GPa) = 84.31683 84.31683 101.29068
#
# Poissons Ratio (x) = 0.22217 0.23892
# Poissons Ratio (y) = 0.22217 0.23892
# Poissons Ratio (z) = 0.19888 0.19888
#
# Static dielectric constant tensor:
#      x y z
#    x 4.909370 0.000000 0.000000 
#    y 0.000000 4.909370 0.000000 
#    z 0.000000 0.000000 4.088710 
# 
# 
# High freq. dielectric constant tensor:
#      x y z
#    x 1.941130 0.000000 0.000000 
#    y 0.000000 1.941130 0.000000 
#    z 0.000000 0.000000 1.930600 
# 
# From -- ./inp_files/5325.got.cif
#   From: 2010.03.12/outbox.cif.g09.slc.cpg/sg118_3_cif.got.tgz:5325.got - 2010.04.14 02:21:17.
