data_PCOD8310891
_publ_section_title
;
Structure prediction by ZEFSAII (Michael W. Deem and Ramdas Pophale) SiO2 
 PCOD8310891
Probable space group: I -4 M 2
;
_chemical_formula_sum "Si O2"
_cell_formula_units_Z 112
_cell_length_a 14.589607
_cell_length_b 14.589607
_cell_length_c 27.181461
_cell_angle_alpha 90.000000
_cell_angle_beta 90.000000
_cell_angle_gamma 90.000000
_cell_volume 5785.754253
_symmetry_space_group_name_H-M "I -4 M 2"
_symmetry_group_IT_number 119
_symmetry_cell_setting 'tetragonal'
loop_
_space_group_symop_operation_xyz
x,y,z
y,-x,-z
-x,-y,z
-y,x,-z
y,x,-z
-y,-x,-z
-x,y,z
x,-y,z
1/2+x,1/2+y,1/2+z
1/2+y,1/2-x,1/2-z
1/2-x,1/2-y,1/2+z
1/2-y,1/2+x,1/2-z
1/2+y,1/2+x,1/2-z
1/2-y,1/2-x,1/2-z
1/2-x,1/2+y,1/2+z
1/2+x,1/2-y,1/2+z
loop_
_atom_site_type_symbol
_atom_site_label
_atom_site_fract_x
_atom_site_fract_y
_atom_site_fract_z
Si Si1 0.102392 0.336108 0.457335
Si Si2 0.104910 0.751048 0.765527
Si Si3 0.601191 0.743606 0.612433
Si Si4 0.600105 0.800190 0.067201
Si Si5 0.607815 0.758141 0.726491
Si Si6 0.747175 0.398928 0.618862
Si Si7 0.130108 0.901170 0.556781
O O1 0.169982 0.396645 0.424441
O O2 0.140952 0.321186 0.512839
O O3 0.098012 0.237405 0.432459
O O4 0.000000 0.380112 0.457674
O O5 0.156587 0.656587 0.750000
O O6 0.168560 0.838958 0.750974
O O7 0.094213 0.758851 0.823327
O O8 0.000000 0.754745 0.743038
O O9 0.500000 0.701537 0.610429
O O10 0.624959 0.771132 0.668282
O O11 0.668796 0.663763 0.594432
O O12 0.500000 0.843083 0.069587
O O13 0.656266 0.852849 0.107939
O O14 0.592445 0.691710 0.081322
O O15 0.500000 0.749262 0.739306
O O16 0.649555 0.850446 0.750000
O O17 0.739777 0.500000 0.595177
O O18 0.103866 0.896135 0.500000
O O19 0.090983 0.000000 0.576873
#
# Coordination Sequence:
#
# PCOD8310891 Si02
#       7
#    16  16  16  16  16  16  16
#     4   9  18  32  50  74 104 139 175 210 254 306
#     4   9  19  36  58  82 105 133 171 215 264 315
#     4  10  20  35  56  78 102 135 175 216 258 303
#     4  10  20  33  51  75 104 139 175 213 261 313
#     4   9  19  35  55  82 110 138 172 212 259 309
#     4  10  21  37  55  76 103 134 170 217 265 305
#     4   9  16  28  48  73 100 131 169 211 253 300
#
# _framework density 19.357890000000001
#
# number of rings (size 3 to 8) (size 9 to 14) (size 15 to 20)
#    0.000    2.571    1.429    1.286    0.000    4.143 
#    0.000    7.143    0.000    0.000    0.000    4.000 
#    0.000    0.000    0.000    0.000    0.000    0.000 
#
# Total GULP energy -693736.979883 kJ/mol
# GULP energy per Si atom -12388.160355 kJ/mol
# Density = 1.931383 g / cm^3
# Si number density = 19.357890 Si / 1000 Ang^3
#
#
#
# Elastic Constant Matrix: (Units=GPa)
#
#
# Indices 1 2 3 4 5 6 
#
# 1 123.3119 55.4530 20.5098 0.0000 0.0000 0.0000
# 2 55.4530 123.3100 20.5100 0.0000 0.0000 0.0000
# 3 20.5098 20.5100 14.5161 0.0000 0.0000 0.0000
# 4 0.0000 0.0000 0.0000 21.8514 0.0000 0.0000
# 5 0.0000 0.0000 0.0000 0.0000 21.8507 0.0000
# 6 0.0000 0.0000 0.0000 0.0000 0.0000 -8.3936
#
#
#
# Elastic Compliance Matrix: (Units=1/GPa)
#
#
# Indices 1 2 3 4 5 6 
#
# 1 0.011507 -0.003229 -0.011695 0.000000 0.000000 0.000000
# 2 -0.003229 0.011507 -0.011696 0.000000 0.000000 0.000000
# 3 -0.011695 -0.011696 0.101939 0.000000 0.000000 0.000000
# 4 0.000000 0.000000 0.000000 0.045764 0.000000 0.000000
# 5 0.000000 0.000000 0.000000 0.000000 0.045765 0.000000
# 6 0.000000 0.000000 0.000000 0.000000 0.000000 -0.119139
#
#
# Mechanical properties :
#
#
# Convention : Reuss Voigt Hill
#
# Bulk Modulus (GPa) = 13.94470 50.45374 32.19922
# Shear Modulus (GPa) = 28.65506 18.03936 23.34721
#
# Velocity S-wave (km/s) = 3.85161 3.05599 3.47664
# Velocity P-wave (km/s) = 5.19607 6.21067 5.72589
#
# Compressibility (1/GPa) = 0.07171185
#
# Stress axis : x y z
#
# Youngs Moduli (GPa) = 86.90334 86.90108 9.80977
#
# Poissons Ratio (x) = 0.28065 0.11473
# Poissons Ratio (y) = 0.28065 0.11474
# Poissons Ratio (z) = 1.01637 1.01640
#
# Static dielectric constant tensor:
#      x y z
#    x 3.816780 0.000000 0.000000 
#    y 0.000000 3.816760 0.000000 
#    z 0.000000 0.000000 3.187910 
# 
# 
# High freq. dielectric constant tensor:
#      x y z
#    x 1.756880 0.000000 0.000000 
#    y 0.000000 1.756880 0.000000 
#    z 0.000000 0.000000 1.713910 
# 
# From -- ./inp_files/10512.got.cif
#   From: 2010.03.12/outbox.cif.g09.slc.cpg/sg119_6_cif.got.tgz:10512.got - 2010.04.14 02:25:26.
