data_PCOD8310664
_publ_section_title
;
Structure prediction by ZEFSAII (Michael W. Deem and Ramdas Pophale) SiO2 
 PCOD8310664
Probable space group: P -4 N 2
;
_chemical_formula_sum "Si O2"
_cell_formula_units_Z 20
_cell_length_a 5.054318
_cell_length_b 5.054318
_cell_length_c 31.657101
_cell_angle_alpha 90.000000
_cell_angle_beta 90.000000
_cell_angle_gamma 90.000000
_cell_volume 808.716432
_symmetry_space_group_name_H-M "P -4 N 2"
_symmetry_group_IT_number 118
_symmetry_cell_setting 'tetragonal'
loop_
_space_group_symop_operation_xyz
x,y,z
y,-x,-z
-x,-y,z
-y,x,-z
1/2+y,1/2+x,1/2-z
1/2-y,1/2-x,1/2-z
1/2-x,1/2+y,1/2+z
1/2+x,1/2-y,1/2+z
loop_
_atom_site_type_symbol
_atom_site_label
_atom_site_fract_x
_atom_site_fract_y
_atom_site_fract_z
Si Si1 0.000000 0.000000 0.808850
Si Si2 0.334693 0.772741 0.118685
Si Si3 0.000000 0.500000 0.250000
Si Si4 0.500000 0.500000 0.000000
Si Si5 0.500000 0.000000 0.556071
O O1 0.910905 0.752529 0.837543
O O2 0.750617 0.042871 0.779460
O O3 0.500000 0.500000 0.126273
O O4 0.085217 0.732918 0.087888
O O5 0.500000 0.000000 0.094804
O O6 0.588928 0.251147 0.971734
#
# Coordination Sequence:
#
# PCOD8310664 Si02
#       5
#     4   8   2   2   4
#     4  12  30  50  79 121 162 212 274 327 417 468
#     4  12  27  52  87 117 157 220 274 334 392 502
#     4  12  30  52  80 116 174 210 256 354 402 480
#     4  12  32  48  86 116 176 208 264 348 414 476
#     4  12  29  56  78 127 162 218 274 333 414 476
#
# _framework density 24.730544999999999
#
# number of rings (size 3 to 8) (size 9 to 14) (size 15 to 20)
#    0.000    0.000    2.000    6.000   11.200    4.000 
#    0.000    0.000    0.000    0.000    0.000    0.000 
#    0.000    0.000    0.000    0.000    0.000    0.000 
#
# Total GULP energy -247779.397707 kJ/mol
# GULP energy per Si atom -12388.969885 kJ/mol
# Density = 2.467426 g / cm^3
# Si number density = 24.730545 Si / 1000 Ang^3
#
#
#
# Elastic Constant Matrix: (Units=GPa)
#
#
# Indices 1 2 3 4 5 6 
#
# 1 206.4418 85.3084 89.6004 0.0000 0.0000 0.0000
# 2 85.3084 206.4418 89.6004 0.0000 0.0000 0.0000
# 3 89.6004 89.6004 171.7910 0.0000 0.0000 0.0000
# 4 0.0000 0.0000 0.0000 118.5592 0.0000 0.0000
# 5 0.0000 0.0000 0.0000 0.0000 118.5592 0.0000
# 6 0.0000 0.0000 0.0000 0.0000 0.0000 55.1108
#
#
#
# Elastic Compliance Matrix: (Units=1/GPa)
#
#
# Indices 1 2 3 4 5 6 
#
# 1 0.006649 -0.001606 -0.002630 0.000000 0.000000 0.000000
# 2 -0.001606 0.006649 -0.002630 0.000000 0.000000 0.000000
# 3 -0.002630 -0.002630 0.008565 0.000000 0.000000 0.000000
# 4 0.000000 0.000000 0.000000 0.008435 0.000000 0.000000
# 5 0.000000 0.000000 0.000000 0.000000 0.008435 0.000000
# 6 0.000000 0.000000 0.000000 0.000000 0.000000 0.018145
#
#
# Mechanical properties :
#
#
# Convention : Reuss Voigt Hill
#
# Bulk Modulus (GPa) = 123.00410 123.74368 123.37389
# Shear Modulus (GPa) = 68.19276 79.79019 73.99147
#
# Velocity S-wave (km/s) = 5.25682 5.68629 5.47577
# Velocity P-wave (km/s) = 9.31081 9.65698 9.48548
#
# Compressibility (1/GPa) = 0.00812981
#
# Stress axis : x y z
#
# Youngs Moduli (GPa) = 150.39164 150.39164 116.75599
#
# Poissons Ratio (x) = 0.24154 0.30711
# Poissons Ratio (y) = 0.24154 0.30711
# Poissons Ratio (z) = 0.39559 0.39559
#
# Static dielectric constant tensor:
#      x y z
#    x 4.006400 0.000000 0.000000 
#    y 0.000000 4.006400 0.000000 
#    z 0.000000 0.000000 4.820710 
# 
# 
# High freq. dielectric constant tensor:
#      x y z
#    x 1.999810 0.000000 0.000000 
#    y 0.000000 1.999810 0.000000 
#    z 0.000000 0.000000 1.997220 
# 
# From -- ./inp_files/6345.got.cif
#   From: 2010.03.12/outbox.cif.g09.slc.cpg/sg118_4_cif.got.tgz:6345.got - 2010.04.14 02:21:17.
