data_PCOD8310934
_publ_section_title
;
Structure prediction by ZEFSAII (Michael W. Deem and Ramdas Pophale) SiO2 
 PCOD8310934
Probable space group: I -4 M 2
;
_chemical_formula_sum "Si O2"
_cell_formula_units_Z 88
_cell_length_a 14.495939
_cell_length_b 14.495939
_cell_length_c 21.386185
_cell_angle_alpha 90.000000
_cell_angle_beta 90.000000
_cell_angle_gamma 90.000000
_cell_volume 4493.927119
_symmetry_space_group_name_H-M "I -4 M 2"
_symmetry_group_IT_number 119
_symmetry_cell_setting 'tetragonal'
loop_
_space_group_symop_operation_xyz
x,y,z
y,-x,-z
-x,-y,z
-y,x,-z
y,x,-z
-y,-x,-z
-x,y,z
x,-y,z
1/2+x,1/2+y,1/2+z
1/2+y,1/2-x,1/2-z
1/2-x,1/2-y,1/2+z
1/2-y,1/2+x,1/2-z
1/2+y,1/2+x,1/2-z
1/2-y,1/2-x,1/2-z
1/2-x,1/2+y,1/2+z
1/2+x,1/2-y,1/2+z
loop_
_atom_site_type_symbol
_atom_site_label
_atom_site_fract_x
_atom_site_fract_y
_atom_site_fract_z
Si Si1 0.221862 0.606688 0.700368
Si Si2 0.603478 0.603478 0.500000
Si Si3 0.899119 0.221417 0.211875
Si Si4 0.896309 0.708701 0.939776
Si Si5 0.186651 0.396538 0.159396
Si Si6 0.247655 0.106809 0.521612
O O1 0.224562 0.500000 0.719905
O O2 0.161353 0.661353 0.750000
O O3 0.325161 0.644502 0.695313
O O4 0.178417 0.620761 0.631718
O O5 0.614595 0.500000 0.471133
O O6 0.620089 0.680559 0.446492
O O7 0.888383 0.317575 0.173412
O O8 0.890938 0.237783 0.286062
O O9 0.000000 0.182398 0.195062
O O10 0.000000 0.683694 0.959831
O O11 0.832143 0.651235 0.985012
O O12 0.141695 0.500000 0.157513
O O13 0.238621 0.374685 0.094964
O O14 0.152280 0.152280 0.500000
O O15 0.242130 0.000000 0.505018
#
# Coordination Sequence:
#
# PCOD8310934 Si02
#       6
#    16   8  16  16  16  16
#     4  11  24  42  61  83 114 152 200 248 292 340
#     4   9  18  34  60  92 125 156 182 222 289 362
#     4  10  20  36  61  90 123 154 185 231 287 352
#     4  10  22  39  60  88 118 148 191 242 290 346
#     4   9  19  37  59  87 121 152 190 232 280 348
#     4  11  23  39  60  85 118 156 198 245 291 339
#
# _framework density 19.581983000000001
#
# number of rings (size 3 to 8) (size 9 to 14) (size 15 to 20)
#    0.000    1.909    2.727    1.091    0.000    3.636 
#    0.000    7.273    0.000    3.273    0.000    0.000 
#    0.000    0.000    0.000    0.000    0.000    0.000 
#
# Total GULP energy -545467.188404 kJ/mol
# GULP energy per Si atom -12396.981555 kJ/mol
# Density = 1.953741 g / cm^3
# Si number density = 19.581983 Si / 1000 Ang^3
#
#
#
# Elastic Constant Matrix: (Units=GPa)
#
#
# Indices 1 2 3 4 5 6 
#
# 1 120.5796 63.3974 50.6581 0.0000 0.0000 0.0000
# 2 63.3974 120.5796 50.6581 0.0000 0.0000 0.0000
# 3 50.6581 50.6581 102.5592 0.0000 0.0000 0.0000
# 4 0.0000 0.0000 0.0000 17.9727 0.0000 0.0000
# 5 0.0000 0.0000 0.0000 0.0000 17.9727 0.0000
# 6 0.0000 0.0000 0.0000 0.0000 0.0000 15.4123
#
#
#
# Elastic Compliance Matrix: (Units=1/GPa)
#
#
# Indices 1 2 3 4 5 6 
#
# 1 0.012477 -0.005011 -0.003688 0.000000 0.000000 0.000000
# 2 -0.005011 0.012477 -0.003688 0.000000 0.000000 0.000000
# 3 -0.003688 -0.003688 0.013394 0.000000 0.000000 0.000000
# 4 0.000000 0.000000 0.000000 0.055640 0.000000 0.000000
# 5 0.000000 0.000000 0.000000 0.000000 0.055640 0.000000
# 6 0.000000 0.000000 0.000000 0.000000 0.000000 0.064883
#
#
# Mechanical properties :
#
#
# Convention : Reuss Voigt Hill
#
# Bulk Modulus (GPa) = 73.66636 74.79398 74.23017
# Shear Modulus (GPa) = 20.50783 22.20521 21.35652
#
# Velocity S-wave (km/s) = 3.23968 3.37109 3.30604
# Velocity P-wave (km/s) = 7.18994 7.30962 7.25002
#
# Compressibility (1/GPa) = 0.01357472
#
# Stress axis : x y z
#
# Youngs Moduli (GPa) = 80.14620 80.14620 74.66174
#
# Poissons Ratio (x) = 0.40159 0.27535
# Poissons Ratio (y) = 0.40159 0.27535
# Poissons Ratio (z) = 0.29558 0.29558
#
# Static dielectric constant tensor:
#      x y z
#    x 3.607090 0.000000 0.000000 
#    y 0.000000 3.607090 0.000000 
#    z 0.000000 0.000000 3.623160 
# 
# 
# High freq. dielectric constant tensor:
#      x y z
#    x 1.758140 0.000000 0.000000 
#    y 0.000000 1.758140 0.000000 
#    z 0.000000 0.000000 1.768850 
# 
# From -- ./inp_files/7680.got.cif
#   From: 2010.03.12/outbox.cif.g09.slc.cpg/sg119_4_cif.got.tgz:7680.got - 2010.04.14 02:25:26.
