data_PCOD8310255
_publ_section_title
;
Structure prediction by ZEFSAII (Michael W. Deem and Ramdas Pophale) SiO2 
 PCOD8310255
Probable space group: P -4 C 2
;
_chemical_formula_sum "Si O2"
_cell_formula_units_Z 32
_cell_length_a 8.830864
_cell_length_b 8.830864
_cell_length_c 18.837380
_cell_angle_alpha 90.000000
_cell_angle_beta 90.000000
_cell_angle_gamma 90.000000
_cell_volume 1469.017237
_symmetry_space_group_name_H-M "P -4 C 2"
_symmetry_group_IT_number 116
_symmetry_cell_setting 'tetragonal'
loop_
_space_group_symop_operation_xyz
x,y,z
y,-x,-z
-x,-y,z
-y,x,-z
y,x,1/2-z
-y,-x,1/2-z
-x,y,1/2+z
x,-y,1/2+z
loop_
_atom_site_type_symbol
_atom_site_label
_atom_site_fract_x
_atom_site_fract_y
_atom_site_fract_z
Si Si1 0.555744 0.666130 0.820561
Si Si2 0.329581 0.048098 0.068102
Si Si3 0.139801 0.753954 0.086808
Si Si4 0.250432 0.164393 0.324485
O O1 0.500000 0.500000 0.841095
O O2 0.658471 0.658471 0.750000
O O3 0.655936 0.721400 0.885262
O O4 0.420143 0.783511 0.806559
O O5 0.199834 0.922874 0.077721
O O6 0.500000 0.000000 0.087333
O O7 0.286396 0.183981 0.120412
O O8 0.323459 0.096218 0.986713
O O9 0.001911 0.751415 0.141936
O O10 0.158943 0.158943 0.250000
#
# Coordination Sequence:
#
# PCOD8310255 Si02
#       4
#     8   8   8   8
#     4  11  24  49  74 112 152 197 251 319 375 458
#     4  12  27  48  73 110 149 201 254 314 384 456
#     4  12  27  48  76 106 156 202 254 318 378 462
#     4  12  26  46  76 110 150 197 256 309 382 454
#
# _framework density 21.783269000000001
#
# number of rings (size 3 to 8) (size 9 to 14) (size 15 to 20)
#    0.000    0.250    5.000    4.500    3.500    1.000 
#    0.000    0.000    0.000    0.000    0.000    0.000 
#    0.000    0.000    0.000    0.000    0.000    0.000 
#
# Total GULP energy -396997.301548 kJ/mol
# GULP energy per Si atom -12406.165673 kJ/mol
# Density = 2.173369 g / cm^3
# Si number density = 21.783269 Si / 1000 Ang^3
#
#
#
# Elastic Constant Matrix: (Units=GPa)
#
#
# Indices 1 2 3 4 5 6 
#
# 1 102.7821 27.2498 48.8850 0.0000 0.0000 0.0000
# 2 27.2498 102.7821 48.8850 0.0000 0.0000 0.0000
# 3 48.8850 48.8850 164.5989 0.0000 0.0000 0.0000
# 4 0.0000 0.0000 0.0000 31.0984 0.0000 0.0000
# 5 0.0000 0.0000 0.0000 0.0000 31.0984 0.0000
# 6 0.0000 0.0000 0.0000 0.0000 0.0000 48.5352
#
#
#
# Elastic Compliance Matrix: (Units=1/GPa)
#
#
# Indices 1 2 3 4 5 6 
#
# 1 0.011570 -0.001669 -0.002941 0.000000 0.000000 0.000000
# 2 -0.001669 0.011570 -0.002941 0.000000 0.000000 0.000000
# 3 -0.002941 -0.002941 0.007822 0.000000 0.000000 0.000000
# 4 0.000000 0.000000 0.000000 0.032156 0.000000 0.000000
# 5 0.000000 0.000000 0.000000 0.000000 0.032156 0.000000
# 6 0.000000 0.000000 0.000000 0.000000 0.000000 0.020604
#
#
# Mechanical properties :
#
#
# Convention : Reuss Voigt Hill
#
# Bulk Modulus (GPa) = 63.04235 68.91142 65.97689
# Shear Modulus (GPa) = 36.69273 38.48926 37.59099
#
# Velocity S-wave (km/s) = 4.10865 4.20803 4.15864
# Velocity P-wave (km/s) = 7.17716 7.43732 7.30840
#
# Compressibility (1/GPa) = 0.01586235
#
# Stress axis : x y z
#
# Youngs Moduli (GPa) = 86.42709 86.42709 127.84258
#
# Poissons Ratio (x) = 0.14424 0.37595
# Poissons Ratio (y) = 0.14424 0.37595
# Poissons Ratio (z) = 0.25416 0.25416
#
# Static dielectric constant tensor:
#      x y z
#    x 4.023720 0.000000 0.000000 
#    y 0.000000 4.023720 0.000000 
#    z 0.000000 0.000000 4.080090 
# 
# 
# High freq. dielectric constant tensor:
#      x y z
#    x 1.866860 0.000000 0.000000 
#    y 0.000000 1.866860 0.000000 
#    z 0.000000 0.000000 1.868360 
# 
# From -- ./inp_files/3764.got.cif
#   From: 2010.03.12/outbox.cif.g09.slc.cpg/sg116_2_cif.got.tgz:3764.got - 2010.04.14 02:15:44.
