data_PCOD8310096
_publ_section_title
;
Structure prediction by ZEFSAII (Michael W. Deem and Ramdas Pophale) SiO2 
 PCOD8310096
Probable space group: P -4 C 2
;
_chemical_formula_sum "Si O2"
_cell_formula_units_Z 64
_cell_length_a 11.727019
_cell_length_b 11.727019
_cell_length_c 23.385087
_cell_angle_alpha 90.000000
_cell_angle_beta 90.000000
_cell_angle_gamma 90.000000
_cell_volume 3215.986726
_symmetry_space_group_name_H-M "P -4 C 2"
_symmetry_group_IT_number 116
_symmetry_cell_setting 'tetragonal'
loop_
_space_group_symop_operation_xyz
x,y,z
y,-x,-z
-x,-y,z
-y,x,-z
y,x,1/2-z
-y,-x,1/2-z
-x,y,1/2+z
x,-y,1/2+z
loop_
_atom_site_type_symbol
_atom_site_label
_atom_site_fract_x
_atom_site_fract_y
_atom_site_fract_z
Si Si1 0.387312 0.962060 0.855886
Si Si2 0.639307 0.619491 0.350797
Si Si3 0.426898 0.232010 0.444498
Si Si4 0.632698 0.381938 0.183733
Si Si5 0.761206 0.869893 0.514433
Si Si6 0.180000 0.200296 0.186429
Si Si7 0.875820 0.059664 0.580872
Si Si8 0.338918 0.192622 0.911837
O O1 0.418548 0.847672 0.889237
O O2 0.280879 0.931404 0.817357
O O3 0.500000 0.000000 0.819463
O O4 0.360557 0.060534 0.900622
O O5 0.628098 0.649528 0.419491
O O6 0.518658 0.640299 0.319462
O O7 0.668543 0.486152 0.341850
O O8 0.737517 0.697976 0.322372
O O9 0.367097 0.174484 0.499740
O O10 0.563045 0.245814 0.454004
O O11 0.651321 0.348680 0.250000
O O12 0.733720 0.325952 0.146263
O O13 0.822601 0.885183 0.453660
O O14 0.816853 0.776809 0.554269
O O15 0.775453 0.985762 0.550787
O O16 0.159837 0.159837 0.250000
O O17 0.165936 0.092132 0.144205
O O18 0.000000 0.000000 0.579726
#
# Coordination Sequence:
#
# PCOD8310096 Si02
#       8
#     8   8   8   8   8   8   8   8
#     4   9  17  35  58  82 110 152 203 237 286 360
#     4   9  17  34  63  89 118 157 212 241 298 368
#     4   9  19  35  58  85 112 151 200 254 297 357
#     4  10  19  34  56  91 124 168 201 247 301 373
#     4  12  20  38  61  85 116 152 205 252 302 367
#     4  11  22  39  63  93 121 154 199 257 310 365
#     4  12  23  39  66  87 111 158 207 254 309 369
#     4  10  22  35  56  84 119 158 201 244 304 365
#
# _framework density 19.900580000000001
#
# number of rings (size 3 to 8) (size 9 to 14) (size 15 to 20)
#    0.000    1.750    3.750    3.750    0.000    1.250 
#    2.250    0.000    0.000    0.000    0.000    0.000 
#    0.000    0.000    0.000    0.000    0.000    0.000 
#
# Total GULP energy -792913.671962 kJ/mol
# GULP energy per Si atom -12389.276124 kJ/mol
# Density = 1.985529 g / cm^3
# Si number density = 19.900580 Si / 1000 Ang^3
#
#
#
# Elastic Constant Matrix: (Units=GPa)
#
#
# Indices 1 2 3 4 5 6 
#
# 1 47.1546 16.8092 16.6687 0.0000 0.0000 0.0000
# 2 16.8092 47.1548 16.6687 0.0000 0.0000 0.0000
# 3 16.6687 16.6687 79.2771 0.0000 0.0000 0.0000
# 4 0.0000 0.0000 0.0000 20.3632 0.0000 0.0000
# 5 0.0000 0.0000 0.0000 0.0000 20.3632 0.0000
# 6 0.0000 0.0000 0.0000 0.0000 0.0000 28.4521
#
#
#
# Elastic Compliance Matrix: (Units=1/GPa)
#
#
# Indices 1 2 3 4 5 6 
#
# 1 0.025256 -0.007698 -0.003692 0.000000 0.000000 0.000000
# 2 -0.007698 0.025256 -0.003692 0.000000 0.000000 0.000000
# 3 -0.003692 -0.003692 0.014166 0.000000 0.000000 0.000000
# 4 0.000000 0.000000 0.000000 0.049108 0.000000 0.000000
# 5 0.000000 0.000000 0.000000 0.000000 0.049108 0.000000
# 6 0.000000 0.000000 0.000000 0.000000 0.000000 0.035147
#
#
# Mechanical properties :
#
#
# Convention : Reuss Voigt Hill
#
# Bulk Modulus (GPa) = 28.97258 30.43109 29.70183
# Shear Modulus (GPa) = 20.85861 22.06503 21.46182
#
# Velocity S-wave (km/s) = 3.24101 3.33342 3.28754
# Velocity P-wave (km/s) = 5.34751 5.49002 5.41923
#
# Compressibility (1/GPa) = 0.03451540
#
# Stress axis : x y z
#
# Youngs Moduli (GPa) = 39.59469 39.59483 70.58947
#
# Poissons Ratio (x) = 0.30480 0.26060
# Poissons Ratio (y) = 0.30480 0.26060
# Poissons Ratio (z) = 0.14617 0.14617
#
# Static dielectric constant tensor:
#      x y z
#    x 3.898020 0.000000 0.000000 
#    y 0.000000 3.898020 0.000000 
#    z 0.000000 0.000000 3.402000 
# 
# 
# High freq. dielectric constant tensor:
#      x y z
#    x 1.774380 0.000000 0.000000 
#    y 0.000000 1.774380 0.000000 
#    z 0.000000 0.000000 1.749490 
# 
# From -- ./inp_files/4654.got.cif
#   From: 2010.03.12/outbox.cif.g09.slc.cpg/sg116_3_cif.got.tgz:4654.got - 2010.04.14 02:15:44.
