data_PCOD8310157
_publ_section_title
;
Structure prediction by ZEFSAII (Michael W. Deem and Ramdas Pophale) SiO2 
 PCOD8310157
Probable space group: P -4 C 2
;
_chemical_formula_sum "Si O2"
_cell_formula_units_Z 56
_cell_length_a 12.059613
_cell_length_b 12.059613
_cell_length_c 19.662112
_cell_angle_alpha 90.000000
_cell_angle_beta 90.000000
_cell_angle_gamma 90.000000
_cell_volume 2859.544821
_symmetry_space_group_name_H-M "P -4 C 2"
_symmetry_group_IT_number 116
_symmetry_cell_setting 'tetragonal'
loop_
_space_group_symop_operation_xyz
x,y,z
y,-x,-z
-x,-y,z
-y,x,-z
y,x,1/2-z
-y,-x,1/2-z
-x,y,1/2+z
x,-y,1/2+z
loop_
_atom_site_type_symbol
_atom_site_label
_atom_site_fract_x
_atom_site_fract_y
_atom_site_fract_z
Si Si1 0.877933 0.452771 0.093799
Si Si2 0.733868 0.904171 0.262484
Si Si3 0.664222 0.155023 0.265085
Si Si4 0.531840 0.879006 0.177699
Si Si5 0.015304 0.825016 0.497452
Si Si6 0.862887 0.344451 0.950727
Si Si7 0.175241 0.310792 0.089354
O O1 0.832965 0.389026 0.160028
O O2 0.805300 0.559779 0.072474
O O3 0.000000 0.500000 0.109185
O O4 0.870248 0.370388 0.030266
O O5 0.859820 0.859820 0.250000
O O6 0.652461 0.846652 0.206951
O O7 0.692193 0.855726 0.332590
O O8 0.724662 0.036239 0.257043
O O9 0.757877 0.242124 0.250000
O O10 0.570693 0.189468 0.208552
O O11 0.544940 0.876598 0.095446
O O12 0.500000 0.000000 0.204779
O O13 0.070101 0.744374 0.552209
O O14 0.912584 0.894560 0.531937
O O15 0.961813 0.747297 0.437738
O O16 0.745895 0.289972 0.931868
#
# Coordination Sequence:
#
# PCOD8310157 Si02
#       7
#     8   8   8   8   8   8   8
#     4  12  21  41  66  87 126 174 216 262 330 388
#     4  11  20  40  63  88 124 167 206 256 323 388
#     4  11  24  42  64  93 129 173 215 266 319 393
#     4  10  21  38  60  90 122 157 216 263 298 369
#     4   9  19  35  52  85 127 159 188 242 317 389
#     4  11  22  36  62  96 118 163 211 267 314 382
#     4  11  21  38  63  86 120 169 208 251 327 391
#
# _framework density 19.583535000000001
#
# number of rings (size 3 to 8) (size 9 to 14) (size 15 to 20)
#    0.000    1.286    5.714    0.857    0.000    1.429 
#   12.857    1.429    0.000    6.000    0.000    0.000 
#    0.000    0.000    0.000    0.000    0.000    0.000 
#
# Total GULP energy -693869.024283 kJ/mol
# GULP energy per Si atom -12390.518291 kJ/mol
# Density = 1.953896 g / cm^3
# Si number density = 19.583535 Si / 1000 Ang^3
#
#
#
# Elastic Constant Matrix: (Units=GPa)
#
#
# Indices 1 2 3 4 5 6 
#
# 1 103.5701 58.3309 40.0998 0.0000 0.0000 0.0000
# 2 58.3309 103.5720 40.1009 0.0000 0.0000 0.0000
# 3 40.0998 40.1009 95.0477 0.0000 0.0000 0.0000
# 4 0.0000 0.0000 0.0000 28.8026 0.0000 0.0000
# 5 0.0000 0.0000 0.0000 0.0000 28.8018 0.0000
# 6 0.0000 0.0000 0.0000 0.0000 0.0000 15.5326
#
#
#
# Elastic Compliance Matrix: (Units=1/GPa)
#
#
# Indices 1 2 3 4 5 6 
#
# 1 0.014956 -0.007148 -0.003294 0.000000 0.000000 0.000000
# 2 -0.007148 0.014956 -0.003294 0.000000 0.000000 0.000000
# 3 -0.003294 -0.003294 0.013301 0.000000 0.000000 0.000000
# 4 0.000000 0.000000 0.000000 0.034719 0.000000 0.000000
# 5 0.000000 0.000000 0.000000 0.000000 0.034720 0.000000
# 6 0.000000 0.000000 0.000000 0.000000 0.000000 0.064381
#
#
# Mechanical properties :
#
#
# Convention : Reuss Voigt Hill
#
# Bulk Modulus (GPa) = 63.53127 64.36146 63.94636
# Shear Modulus (GPa) = 23.83749 25.53793 24.68771
#
# Velocity S-wave (km/s) = 3.49265 3.61508 3.55440
# Velocity P-wave (km/s) = 6.98401 7.09659 7.04052
#
# Compressibility (1/GPa) = 0.01574028
#
# Stress axis : x y z
#
# Youngs Moduli (GPa) = 66.86068 66.86144 75.18336
#
# Poissons Ratio (x) = 0.47792 0.24768
# Poissons Ratio (y) = 0.47791 0.24769
# Poissons Ratio (z) = 0.22026 0.22027
#
# Static dielectric constant tensor:
#      x y z
#    x 3.783540 0.000000 0.000000 
#    y 0.000000 3.783540 0.000000 
#    z 0.000000 0.000000 3.499510 
# 
# 
# High freq. dielectric constant tensor:
#      x y z
#    x 1.754430 0.000000 0.000000 
#    y 0.000000 1.754430 0.000000 
#    z 0.000000 0.000000 1.760290 
# 
# From -- ./inp_files/4156.got.cif
#   From: 2010.03.12/outbox.cif.g09.slc.cpg/sg116_3_cif.got.tgz:4156.got - 2010.04.14 02:15:44.
