data_PCOD8310897
_publ_section_title
;
Structure prediction by ZEFSAII (Michael W. Deem and Ramdas Pophale) SiO2 
 PCOD8310897
Probable space group: I -4 M 2
;
_chemical_formula_sum "Si O2"
_cell_formula_units_Z 112
_cell_length_a 23.234557
_cell_length_b 23.234557
_cell_length_c 11.949848
_cell_angle_alpha 90.000000
_cell_angle_beta 90.000000
_cell_angle_gamma 90.000000
_cell_volume 6451.061380
_symmetry_space_group_name_H-M "I -4 M 2"
_symmetry_group_IT_number 119
_symmetry_cell_setting 'tetragonal'
loop_
_space_group_symop_operation_xyz
x,y,z
y,-x,-z
-x,-y,z
-y,x,-z
y,x,-z
-y,-x,-z
-x,y,z
x,-y,z
1/2+x,1/2+y,1/2+z
1/2+y,1/2-x,1/2-z
1/2-x,1/2-y,1/2+z
1/2-y,1/2+x,1/2-z
1/2+y,1/2+x,1/2-z
1/2-y,1/2-x,1/2-z
1/2-x,1/2+y,1/2+z
1/2+x,1/2-y,1/2+z
loop_
_atom_site_type_symbol
_atom_site_label
_atom_site_fract_x
_atom_site_fract_y
_atom_site_fract_z
Si Si1 0.935760 0.623754 0.845896
Si Si2 0.754561 0.565382 0.548010
Si Si3 0.717029 0.664858 0.682444
Si Si4 0.183755 0.258858 0.578043
Si Si5 0.320813 0.130300 0.610446
Si Si6 0.756882 0.624818 0.322625
Si Si7 0.935876 0.434087 0.068764
O O1 0.889347 0.610654 0.750000
O O2 0.917662 0.681835 0.908887
O O3 0.000000 0.628672 0.794661
O O4 0.933726 0.572034 0.935024
O O5 0.738717 0.500000 0.573932
O O6 0.709580 0.604531 0.616692
O O7 0.753114 0.574330 0.414220
O O8 0.763279 0.700731 0.611582
O O9 0.735240 0.653722 0.810204
O O10 0.655176 0.695198 0.684467
O O11 0.206887 0.206887 0.500000
O O12 0.131829 0.293184 0.513690
O O13 0.326329 0.197752 0.639918
O O14 0.277543 0.100736 0.700912
O O15 0.383823 0.101743 0.623030
O O16 0.926784 0.500000 0.102192
O O17 0.000000 0.413164 0.110581
#
# Coordination Sequence:
#
# PCOD8310897 Si02
#       7
#    16  16  16  16  16  16  16
#     4  10  20  34  48  65  91 130 181 236 278 311
#     4  11  23  35  51  76 107 139 176 220 274 329
#     4  11  20  32  54  78 108 134 168 222 276 342
#     4  11  17  31  51  81 107 129 174 228 285 343
#     4  11  20  33  52  76 101 132 178 236 289 326
#     4  11  20  34  54  71  99 136 170 218 277 337
#     4  10  21  36  51  68  97 143 197 241 272 308
#
# _framework density 17.361484000000001
#
# number of rings (size 3 to 8) (size 9 to 14) (size 15 to 20)
#    0.000    1.286    5.714    1.714    4.000    1.286 
#    0.000    2.143    0.000    3.429    0.000    0.000 
#    0.000    4.571    0.000    0.000    0.000    0.000 
#
# Total GULP energy -694163.669488 kJ/mol
# GULP energy per Si atom -12395.779812 kJ/mol
# Density = 1.732197 g / cm^3
# Si number density = 17.361484 Si / 1000 Ang^3
#
#
#
# Elastic Constant Matrix: (Units=GPa)
#
#
# Indices 1 2 3 4 5 6 
#
# 1 74.9509 45.0745 38.5803 0.0000 0.0000 0.0000
# 2 45.0745 74.9508 38.5801 0.0000 0.0000 0.0000
# 3 38.5803 38.5801 114.9070 0.0000 0.0000 0.0000
# 4 0.0000 0.0000 0.0000 17.2687 0.0000 0.0000
# 5 0.0000 0.0000 0.0000 0.0000 17.2689 0.0000
# 6 0.0000 0.0000 0.0000 0.0000 0.0000 24.3446
#
#
#
# Elastic Compliance Matrix: (Units=1/GPa)
#
#
# Indices 1 2 3 4 5 6 
#
# 1 0.022048 -0.011423 -0.003567 0.000000 0.000000 0.000000
# 2 -0.011423 0.022048 -0.003567 0.000000 0.000000 0.000000
# 3 -0.003567 -0.003567 0.011098 0.000000 0.000000 0.000000
# 4 0.000000 0.000000 0.000000 0.057908 0.000000 0.000000
# 5 0.000000 0.000000 0.000000 0.000000 0.057908 0.000000
# 6 0.000000 0.000000 0.000000 0.000000 0.000000 0.041077
#
#
# Mechanical properties :
#
#
# Convention : Reuss Voigt Hill
#
# Bulk Modulus (GPa) = 55.31387 56.58650 55.95018
# Shear Modulus (GPa) = 19.59024 21.28135 20.43579
#
# Velocity S-wave (km/s) = 3.36277 3.50491 3.43458
# Velocity P-wave (km/s) = 6.85616 7.00308 6.93001
#
# Compressibility (1/GPa) = 0.01807865
#
# Stress axis : x y z
#
# Youngs Moduli (GPa) = 45.35533 45.35537 90.10499
#
# Poissons Ratio (x) = 0.51810 0.32144
# Poissons Ratio (y) = 0.51810 0.32143
# Poissons Ratio (z) = 0.16180 0.16180
#
# Static dielectric constant tensor:
#      x y z
#    x 2.998820 0.000000 0.000000 
#    y 0.000000 2.998820 0.000000 
#    z 0.000000 0.000000 3.527430 
# 
# 
# High freq. dielectric constant tensor:
#      x y z
#    x 1.633130 0.000000 0.000000 
#    y 0.000000 1.633130 0.000000 
#    z 0.000000 0.000000 1.690790 
# 
# From -- ./inp_files/4395.got.cif
#   From: 2010.03.12/outbox.cif.g09.slc.cpg/sg119_3_cif.got.tgz:4395.got - 2010.04.14 02:25:26.
