data_PCOD8310447
_publ_section_title
;
Structure prediction by ZEFSAII (Michael W. Deem and Ramdas Pophale) SiO2 
 PCOD8310447
Probable space group: P -4 N 2
;
_chemical_formula_sum "Si O2"
_cell_formula_units_Z 56
_cell_length_a 15.215782
_cell_length_b 15.215782
_cell_length_c 14.121890
_cell_angle_alpha 90.000000
_cell_angle_beta 90.000000
_cell_angle_gamma 90.000000
_cell_volume 3269.500282
_symmetry_space_group_name_H-M "P -4 N 2"
_symmetry_group_IT_number 118
_symmetry_cell_setting 'tetragonal'
loop_
_space_group_symop_operation_xyz
x,y,z
y,-x,-z
-x,-y,z
-y,x,-z
1/2+y,1/2+x,1/2-z
1/2-y,1/2-x,1/2-z
1/2-x,1/2+y,1/2+z
1/2+x,1/2-y,1/2+z
loop_
_atom_site_type_symbol
_atom_site_label
_atom_site_fract_x
_atom_site_fract_y
_atom_site_fract_z
Si Si1 0.058494 0.295727 0.563836
Si Si2 0.075691 0.572226 0.855346
Si Si3 0.476436 0.629752 0.955176
Si Si4 0.940710 0.695491 0.926688
Si Si5 0.467440 0.632008 0.537934
Si Si6 0.142373 0.219490 0.746839
Si Si7 0.983601 0.102050 0.240787
O O1 0.040582 0.231478 0.476391
O O2 0.125372 0.371542 0.531907
O O3 0.098197 0.235925 0.646336
O O4 0.965786 0.338261 0.593856
O O5 0.102939 0.602939 0.750000
O O6 0.000000 0.500000 0.847083
O O7 0.037811 0.653417 0.916559
O O8 0.475054 0.625655 0.841626
O O9 0.568847 0.599941 0.000868
O O10 0.912516 0.724923 0.822339
O O11 0.941444 0.773864 0.999685
O O12 0.562580 0.604576 0.498052
O O13 0.465978 0.644443 0.651608
O O14 0.243448 0.256553 0.750000
O O15 0.135693 0.116420 0.767146
O O16 0.000000 0.000000 0.223999
#
# Coordination Sequence:
#
# PCOD8310447 Si02
#       7
#     8   8   8   8   8   8   8
#     4  10  19  34  54  80 113 141 176 223 270 316
#     4   9  16  30  54  81 109 145 179 217 266 314
#     4  11  21  36  57  81 106 141 181 218 267 325
#     4  10  19  34  54  80 113 141 176 223 270 316
#     4  11  21  36  57  81 106 141 181 218 267 325
#     4  10  18  31  56  81 106 136 179 227 263 313
#     4  12  20  36  58  78 107 143 179 219 264 333
#
# _framework density 17.127998999999999
#
# number of rings (size 3 to 8) (size 9 to 14) (size 15 to 20)
#    0.000    1.571    7.143    0.000    0.000    0.000 
#    5.143    0.714    0.000    0.000    0.000    3.000 
#    0.000    0.000    0.000    0.000    0.000    0.000 
#
# Total GULP energy -694256.088072 kJ/mol
# GULP energy per Si atom -12397.430144 kJ/mol
# Density = 1.708902 g / cm^3
# Si number density = 17.127999 Si / 1000 Ang^3
#
#
#
# Elastic Constant Matrix: (Units=GPa)
#
#
# Indices 1 2 3 4 5 6 
#
# 1 73.0747 37.3060 28.7914 0.0000 0.0000 0.0000
# 2 37.3060 73.0751 28.7919 0.0000 0.0000 0.0000
# 3 28.7914 28.7919 87.5018 0.0000 0.0000 0.0000
# 4 0.0000 0.0000 0.0000 18.3707 0.0000 0.0000
# 5 0.0000 0.0000 0.0000 0.0000 18.3700 0.0000
# 6 0.0000 0.0000 0.0000 0.0000 0.0000 17.7548
#
#
#
# Elastic Compliance Matrix: (Units=1/GPa)
#
#
# Indices 1 2 3 4 5 6 
#
# 1 0.019447 -0.008510 -0.003599 0.000000 0.000000 0.000000
# 2 -0.008510 0.019447 -0.003599 0.000000 0.000000 0.000000
# 3 -0.003599 -0.003599 0.013797 0.000000 0.000000 0.000000
# 4 0.000000 0.000000 0.000000 0.054435 0.000000 0.000000
# 5 0.000000 0.000000 0.000000 0.000000 0.054437 0.000000
# 6 0.000000 0.000000 0.000000 0.000000 0.000000 0.056323
#
#
# Mechanical properties :
#
#
# Convention : Reuss Voigt Hill
#
# Bulk Modulus (GPa) = 47.00215 47.04779 47.02497
# Shear Modulus (GPa) = 19.50139 20.14989 19.82564
#
# Velocity S-wave (km/s) = 3.37793 3.43363 3.40589
# Velocity P-wave (km/s) = 6.53568 6.57630 6.55602
#
# Compressibility (1/GPa) = 0.02127562
#
# Stress axis : x y z
#
# Youngs Moduli (GPa) = 51.42155 51.42160 72.48181
#
# Poissons Ratio (x) = 0.43761 0.26083
# Poissons Ratio (y) = 0.43761 0.26084
# Poissons Ratio (z) = 0.18505 0.18505
#
# Static dielectric constant tensor:
#      x y z
#    x 3.172260 0.000000 0.000000 
#    y 0.000000 3.172250 0.000000 
#    z 0.000000 0.000000 3.232330 
# 
# 
# High freq. dielectric constant tensor:
#      x y z
#    x 1.649040 0.000000 0.000000 
#    y 0.000000 1.649040 0.000000 
#    z 0.000000 0.000000 1.657270 
# 
# From -- ./inp_files/4258.got.cif
#   From: 2010.03.12/outbox.cif.g09.slc.cpg/sg118_3_cif.got.tgz:4258.got - 2010.04.14 02:21:17.
