data_PCOD8310049
_publ_section_title
;
Structure prediction by ZEFSAII (Michael W. Deem and Ramdas Pophale) SiO2 
 PCOD8310049
Probable space group: P -4 M 2
;
_chemical_formula_sum "Si O2"
_cell_formula_units_Z 40
_cell_length_a 9.669021
_cell_length_b 9.669021
_cell_length_c 25.614475
_cell_angle_alpha 90.000000
_cell_angle_beta 90.000000
_cell_angle_gamma 90.000000
_cell_volume 2394.696425
_symmetry_space_group_name_H-M "P -4 M 2"
_symmetry_group_IT_number 115
_symmetry_cell_setting 'tetragonal'
loop_
_space_group_symop_operation_xyz
x,y,z
y,-x,-z
-x,-y,z
-y,x,-z
y,x,-z
-y,-x,-z
-x,y,z
x,-y,z
loop_
_atom_site_type_symbol
_atom_site_label
_atom_site_fract_x
_atom_site_fract_y
_atom_site_fract_z
Si Si1 0.160604 0.160422 0.750403
Si Si2 0.347259 0.835907 0.844370
Si Si3 0.339367 0.160572 0.348120
Si Si4 0.159199 0.662305 0.039077
Si Si5 0.346100 0.664424 0.557154
O O1 0.240763 0.218485 0.800967
O O2 0.209745 0.250234 0.701230
O O3 0.000000 0.182931 0.762002
O O4 0.194693 0.000000 0.739086
O O5 0.500000 0.776459 0.831677
O O6 0.300289 0.789983 0.902256
O O7 0.353217 0.000000 0.843636
O O8 0.500000 0.193108 0.336809
O O9 0.281805 0.243522 0.398074
O O10 0.315623 0.000000 0.360056
O O11 0.177945 0.500000 0.028722
O O12 0.000000 0.705879 0.030876
O O13 0.253562 0.746438 0.000000
O O14 0.289389 0.710612 0.500000
O O15 0.500000 0.724582 0.567652
O O16 0.352511 0.500000 0.557301
#
# Coordination Sequence:
#
# PCOD8310049 Si02
#       5
#     8   8   8   8   8
#     4   9  17  29  45  64  86 113 144 176 212 256
#     4   8  15  29  47  65  87 115 146 181 219 257
#     4   9  17  29  44  62  86 114 140 170 212 256
#     4   9  18  32  49  70  95 122 153 189 229 273
#     4   8  14  26  44  63  82 107 140 175 209 247
#
# _framework density 16.703579999999999
#
# number of rings (size 3 to 8) (size 9 to 14) (size 15 to 20)
#    0.000    3.400    0.000    1.800    0.000    2.000 
#    0.000    4.000    0.000    4.800    0.000    0.000 
#    0.000    0.000    0.000    0.000    0.000    0.000 
#
# Total GULP energy -495809.533167 kJ/mol
# GULP energy per Si atom -12395.238329 kJ/mol
# Density = 1.666556 g / cm^3
# Si number density = 16.703580 Si / 1000 Ang^3
#
#
#
# Elastic Constant Matrix: (Units=GPa)
#
#
# Indices 1 2 3 4 5 6 
#
# 1 54.3103 33.9629 69.8178 0.0000 0.0000 0.0000
# 2 33.9629 54.3123 69.8183 0.0000 0.0000 0.0000
# 3 69.8178 69.8183 181.0198 0.0000 0.0000 0.0000
# 4 0.0000 0.0000 0.0000 31.8611 0.0000 0.0000
# 5 0.0000 0.0000 0.0000 0.0000 31.8611 0.0000
# 6 0.0000 0.0000 0.0000 0.0000 0.0000 18.0940
#
#
#
# Elastic Compliance Matrix: (Units=1/GPa)
#
#
# Indices 1 2 3 4 5 6 
#
# 1 0.039101 -0.010044 -0.011207 0.000000 0.000000 0.000000
# 2 -0.010044 0.039098 -0.011206 0.000000 0.000000 0.000000
# 3 -0.011207 -0.011206 0.014169 0.000000 0.000000 0.000000
# 4 0.000000 0.000000 0.000000 0.031386 0.000000 0.000000
# 5 0.000000 0.000000 0.000000 0.000000 0.031386 0.000000
# 6 0.000000 0.000000 0.000000 0.000000 0.000000 0.055267
#
#
# Mechanical properties :
#
#
# Convention : Reuss Voigt Hill
#
# Bulk Modulus (GPa) = 36.42537 70.76004 53.59271
# Shear Modulus (GPa) = 17.57640 24.09945 20.83792
#
# Velocity S-wave (km/s) = 3.24736 3.80250 3.53585
# Velocity P-wave (km/s) = 5.99289 7.85703 6.98740
#
# Compressibility (1/GPa) = 0.02745339
#
# Stress axis : x y z
#
# Youngs Moduli (GPa) = 25.57505 25.57654 70.57839
#
# Poissons Ratio (x) = 0.25690 0.79095
# Poissons Ratio (y) = 0.25689 0.79090
# Poissons Ratio (z) = 0.28661 0.28661
#
# Static dielectric constant tensor:
#      x y z
#    x 3.077440 0.000000 0.000000 
#    y 0.000000 3.077440 0.000000 
#    z 0.000000 0.000000 3.454860 
# 
# 
# High freq. dielectric constant tensor:
#      x y z
#    x 1.621150 0.000000 0.000000 
#    y 0.000000 1.621150 0.000000 
#    z 0.000000 0.000000 1.654390 
# 
# From -- ./inp_files/5421.got.cif
#   From: 2010.03.12/outbox.cif.g09.slc.cpg/sg115_3_cif.got.tgz:5421.got - 2010.04.14 02:11:21.
