data_PCOD8310734
_publ_section_title
;
Structure prediction by ZEFSAII (Michael W. Deem and Ramdas Pophale) SiO2 
 PCOD8310734
Probable space group: I -4 M 2
;
_chemical_formula_sum "Si O2"
_cell_formula_units_Z 96
_cell_length_a 17.925196
_cell_length_b 17.925196
_cell_length_c 17.253446
_cell_angle_alpha 90.000000
_cell_angle_beta 90.000000
_cell_angle_gamma 90.000000
_cell_volume 5543.750484
_symmetry_space_group_name_H-M "I -4 M 2"
_symmetry_group_IT_number 119
_symmetry_cell_setting 'tetragonal'
loop_
_space_group_symop_operation_xyz
x,y,z
y,-x,-z
-x,-y,z
-y,x,-z
y,x,-z
-y,-x,-z
-x,y,z
x,-y,z
1/2+x,1/2+y,1/2+z
1/2+y,1/2-x,1/2-z
1/2-x,1/2-y,1/2+z
1/2-y,1/2+x,1/2-z
1/2+y,1/2+x,1/2-z
1/2-y,1/2-x,1/2-z
1/2-x,1/2+y,1/2+z
1/2+x,1/2-y,1/2+z
loop_
_atom_site_type_symbol
_atom_site_label
_atom_site_fract_x
_atom_site_fract_y
_atom_site_fract_z
Si Si1 0.704611 0.664881 0.120137
Si Si2 0.914987 0.417608 0.471297
Si Si3 0.410530 0.583020 0.583018
Si Si4 0.631416 0.177687 0.671225
Si Si5 0.670124 0.583825 0.273301
Si Si6 0.740584 0.086760 0.470624
O O1 0.783304 0.700518 0.147388
O O2 0.663699 0.627598 0.193015
O O3 0.645876 0.726447 0.090413
O O4 0.723205 0.602847 0.054906
O O5 0.900163 0.500000 0.509326
O O6 0.865860 0.411023 0.395132
O O7 0.898220 0.348999 0.529710
O O8 0.000000 0.410665 0.443815
O O9 0.382428 0.617573 0.500000
O O10 0.500000 0.586544 0.583387
O O11 0.380218 0.500000 0.587980
O O12 0.376790 0.621814 0.659099
O O13 0.629949 0.129949 0.750000
O O14 0.581817 0.248589 0.689949
O O15 0.642664 0.500000 0.256779
O O16 0.758057 0.000000 0.449077
#
# Coordination Sequence:
#
# PCOD8310734 Si02
#       6
#    16  16  16  16  16  16
#     4   9  18  31  46  67  95 128 163 198 244 293
#     4   9  17  29  46  69  96 125 159 197 239 290
#     4   8  15  29  45  62  88 119 148 183 232 280
#     4   9  18  30  44  65  95 128 154 188 238 293
#     4  10  18  29  48  70  92 123 159 195 232 283
#     4   9  17  31  49  67  93 130 166 204 247 289
#
# _framework density 17.316797000000001
#
# number of rings (size 3 to 8) (size 9 to 14) (size 15 to 20)
#    0.000    3.000    0.000    1.500    0.000    5.333 
#    6.000    0.833    0.000    8.000    0.000    3.500 
#    0.000    0.000    0.000    0.000    0.000    0.000 
#
# Total GULP energy -594630.862555 kJ/mol
# GULP energy per Si atom -12388.142970 kJ/mol
# Density = 1.727738 g / cm^3
# Si number density = 17.316797 Si / 1000 Ang^3
#
#
#
# Elastic Constant Matrix: (Units=GPa)
#
#
# Indices 1 2 3 4 5 6 
#
# 1 54.5807 46.8150 36.3461 0.0000 0.0000 0.0000
# 2 46.8150 54.5806 36.3461 0.0000 0.0000 0.0000
# 3 36.3461 36.3461 105.0769 0.0000 0.0000 0.0000
# 4 0.0000 0.0000 0.0000 23.2144 0.0000 0.0000
# 5 0.0000 0.0000 0.0000 0.0000 23.2144 0.0000
# 6 0.0000 0.0000 0.0000 0.0000 0.0000 22.0734
#
#
#
# Elastic Compliance Matrix: (Units=1/GPa)
#
#
# Indices 1 2 3 4 5 6 
#
# 1 0.070943 -0.057829 -0.004536 0.000000 0.000000 0.000000
# 2 -0.057829 0.070943 -0.004536 0.000000 0.000000 0.000000
# 3 -0.004536 -0.004536 0.012655 0.000000 0.000000 0.000000
# 4 0.000000 0.000000 0.000000 0.043077 0.000000 0.000000
# 5 0.000000 0.000000 0.000000 0.000000 0.043077 0.000000
# 6 0.000000 0.000000 0.000000 0.000000 0.000000 0.045303
#
#
# Mechanical properties :
#
#
# Convention : Reuss Voigt Hill
#
# Bulk Modulus (GPa) = 48.21869 50.36139 49.29004
# Shear Modulus (GPa) = 11.71745 20.01584 15.86665
#
# Velocity S-wave (km/s) = 2.60408 3.40349 3.03026
# Velocity P-wave (km/s) = 6.07841 6.67761 6.38504
#
# Compressibility (1/GPa) = 0.02073885
#
# Stress axis : x y z
#
# Youngs Moduli (GPa) = 14.09580 14.09575 79.01979
#
# Poissons Ratio (x) = 0.81514 0.35845
# Poissons Ratio (y) = 0.81514 0.35847
# Poissons Ratio (z) = 0.06394 0.06394
#
# Static dielectric constant tensor:
#      x y z
#    x 3.589020 0.000000 0.000000 
#    y 0.000000 3.589030 0.000000 
#    z 0.000000 0.000000 3.332400 
# 
# 
# High freq. dielectric constant tensor:
#      x y z
#    x 1.656350 0.000000 0.000000 
#    y 0.000000 1.656350 0.000000 
#    z 0.000000 0.000000 1.659000 
# 
# From -- ./inp_files/6606.got.cif
#   From: 2010.03.12/outbox.cif.g09.slc.cpg/sg119_4_cif.got.tgz:6606.got - 2010.04.14 02:25:26.
