data_PCOD8310217
_publ_section_title
;
Structure prediction by ZEFSAII (Michael W. Deem and Ramdas Pophale) SiO2 
 PCOD8310217
Probable space group: P -4 C 2
;
_chemical_formula_sum "Si O2"
_cell_formula_units_Z 34
_cell_length_a 11.504315
_cell_length_b 11.504315
_cell_length_c 11.101082
_cell_angle_alpha 90.000000
_cell_angle_beta 90.000000
_cell_angle_gamma 90.000000
_cell_volume 1469.220028
_symmetry_space_group_name_H-M "P -4 C 2"
_symmetry_group_IT_number 116
_symmetry_cell_setting 'tetragonal'
loop_
_space_group_symop_operation_xyz
x,y,z
y,-x,-z
-x,-y,z
-y,x,-z
y,x,1/2-z
-y,-x,1/2-z
-x,y,1/2+z
x,-y,1/2+z
loop_
_atom_site_type_symbol
_atom_site_label
_atom_site_fract_x
_atom_site_fract_y
_atom_site_fract_z
Si Si1 0.057232 0.197692 0.334418
Si Si2 0.700327 0.565948 0.845345
Si Si3 0.338183 0.763469 0.524687
Si Si4 0.000000 0.000000 0.500000
Si Si5 0.393514 0.082089 0.808024
O O1 0.092258 0.092258 0.250000
O O2 0.179484 0.256424 0.375004
O O3 0.985631 0.126333 0.435190
O O4 0.974975 0.285516 0.261387
O O5 0.594807 0.594807 0.750000
O O6 0.723436 0.667673 0.941956
O O7 0.814907 0.555164 0.768999
O O8 0.689742 0.444081 0.915164
O O9 0.366962 0.874990 0.442536
O O10 0.500000 0.000000 0.826772
#
# Coordination Sequence:
#
# PCOD8310217 Si02
#       5
#     8   8   8   2   8
#     4  12  26  43  72 106 144 191 245 300 368 450
#     4  10  24  46  68 103 141 185 243 303 366 453
#     4  11  25  43  72 102 143 188 244 300 382 431
#     4  12  26  48  72 106 160 200 238 300 388 442
#     4  11  24  44  72 104 143 188 244 303 363 446
#
# _framework density 23.141532999999999
#
# number of rings (size 3 to 8) (size 9 to 14) (size 15 to 20)
#    0.000    0.941    2.353    3.176    6.588    4.235 
#    0.000    3.529    0.000    0.000    0.000    0.000 
#    0.000    0.000    0.000    0.000    0.000    0.000 
#
# Total GULP energy -421321.129669 kJ/mol
# GULP energy per Si atom -12391.797931 kJ/mol
# Density = 2.308886 g / cm^3
# Si number density = 23.141533 Si / 1000 Ang^3
#
#
#
# Elastic Constant Matrix: (Units=GPa)
#
#
# Indices 1 2 3 4 5 6 
#
# 1 31.0326 52.4989 16.5183 0.0000 0.0000 0.0000
# 2 52.4989 31.0326 16.5183 0.0000 0.0000 0.0000
# 3 16.5183 16.5183 83.8076 0.0000 0.0000 0.0000
# 4 0.0000 0.0000 0.0000 -157.7656 0.0000 0.0000
# 5 0.0000 0.0000 0.0000 0.0000 -157.7656 0.0000
# 6 0.0000 0.0000 0.0000 0.0000 0.0000 50.4558
#
#
#
# Elastic Compliance Matrix: (Units=1/GPa)
#
#
# Indices 1 2 3 4 5 6 
#
# 1 -0.016800 0.029784 -0.002559 0.000000 0.000000 0.000000
# 2 0.029784 -0.016800 -0.002559 0.000000 0.000000 0.000000
# 3 -0.002559 -0.002559 0.012941 0.000000 0.000000 0.000000
# 4 0.000000 0.000000 0.000000 -0.006339 0.000000 0.000000
# 5 0.000000 0.000000 0.000000 0.000000 -0.006339 0.000000
# 6 0.000000 0.000000 0.000000 0.000000 0.000000 0.019819
#
#
# Mechanical properties :
#
#
# Convention : Reuss Voigt Hill
#
# Bulk Modulus (GPa) = 34.87728 35.21595 35.04661
# Shear Modulus (GPa) = -93.82163 -48.99259 -71.40711
#
# Velocity S-wave (km/s) = -6.37421 -4.60617 -5.56091
# Velocity P-wave (km/s) = 6.25060 3.61087 5.10433
#
# Compressibility (1/GPa) = 0.02867196
#
# Stress axis : x y z
#
# Youngs Moduli (GPa) = -59.52206 -59.52206 77.27470
#
# Poissons Ratio (x) = 1.77281 0.19775
# Poissons Ratio (y) = 1.77281 0.19775
# Poissons Ratio (z) = -0.15232 -0.15232
#
# Static dielectric constant tensor:
#      x y z
#    x 4.314440 0.000000 0.000000 
#    y 0.000000 4.314440 0.000000 
#    z 0.000000 0.000000 4.756530 
# 
# 
# High freq. dielectric constant tensor:
#      x y z
#    x 1.915970 0.000000 0.000000 
#    y 0.000000 1.915970 0.000000 
#    z 0.000000 0.000000 1.933890 
# 
# From -- ./inp_files/1608.got.cif
#   From: 2010.03.12/outbox.cif.g09.slc.cpg/sg116_1_cif.got.tgz:1608.got - 2010.04.14 02:15:44.
