data_PCOD8310040
_publ_section_title
;
Structure prediction by ZEFSAII (Michael W. Deem and Ramdas Pophale) SiO2 
 PCOD8310040
Probable space group: P -4 M 2
;
_chemical_formula_sum "Si O2"
_cell_formula_units_Z 44
_cell_length_a 15.457249
_cell_length_b 15.457249
_cell_length_c 12.617816
_cell_angle_alpha 90.000000
_cell_angle_beta 90.000000
_cell_angle_gamma 90.000000
_cell_volume 3014.731203
_symmetry_space_group_name_H-M "P -4 M 2"
_symmetry_group_IT_number 115
_symmetry_cell_setting 'tetragonal'
loop_
_space_group_symop_operation_xyz
x,y,z
y,-x,-z
-x,-y,z
-y,x,-z
y,x,-z
-y,-x,-z
-x,y,z
x,-y,z
loop_
_atom_site_type_symbol
_atom_site_label
_atom_site_fract_x
_atom_site_fract_y
_atom_site_fract_z
Si Si1 0.103026 0.596249 0.516488
Si Si2 0.740625 0.100648 0.636796
Si Si3 0.900338 0.783064 0.134423
Si Si4 0.099176 0.099176 0.500000
Si Si5 0.403941 0.102934 0.245683
Si Si6 0.743465 0.900913 0.095901
O O1 0.136539 0.500000 0.486578
O O2 0.145104 0.665803 0.434941
O O3 0.133089 0.621027 0.635510
O O4 0.000000 0.596989 0.512634
O O5 0.729808 0.126581 0.760166
O O6 0.837604 0.123876 0.597219
O O7 0.725488 0.000000 0.623197
O O8 0.837220 0.864388 0.125479
O O9 0.000000 0.816098 0.143669
O O10 0.888827 0.723449 0.029787
O O11 0.000000 0.113535 0.537986
O O12 0.500000 0.137563 0.216484
O O13 0.334315 0.142978 0.163026
O O14 0.404449 0.000000 0.238357
O O15 0.749056 0.000000 0.127978
#
# Coordination Sequence:
#
# PCOD8310040 Si02
#       6
#     8   8   8   4   8   8
#     4   8  14  25  40  56  72  91 120 162 208 245
#     4   9  17  27  38  52  74  99 129 165 198 234
#     4   9  18  29  37  52  77 105 136 166 191 232
#     4   9  18  28  36  52  78 106 136 167 194 222
#     4   8  14  25  41  58  71  87 122 169 207 239
#     4   9  17  28  41  53  72 103 137 172 205 228
#
# _framework density 14.595000000000001
#
# number of rings (size 3 to 8) (size 9 to 14) (size 15 to 20)
#    0.000    3.364    0.000    1.091    2.545    1.091 
#    0.000    4.545    0.000    5.455    0.000    0.000 
#    0.000    0.000    0.000    0.000    0.000   17.727 
#
# Total GULP energy -545078.451224 kJ/mol
# GULP energy per Si atom -12388.146619 kJ/mol
# Density = 1.456178 g / cm^3
# Si number density = 14.595000 Si / 1000 Ang^3
#
#
#
# Elastic Constant Matrix: (Units=GPa)
#
#
# Indices 1 2 3 4 5 6 
#
# 1 61.3417 17.3578 49.5770 0.0000 0.0000 0.0000
# 2 17.3578 61.3417 49.5770 0.0000 0.0000 0.0000
# 3 49.5770 49.5770 133.2290 0.0000 0.0000 0.0000
# 4 0.0000 0.0000 0.0000 17.2154 0.0000 0.0000
# 5 0.0000 0.0000 0.0000 0.0000 17.2154 0.0000
# 6 0.0000 0.0000 0.0000 0.0000 0.0000 2.6404
#
#
#
# Elastic Compliance Matrix: (Units=1/GPa)
#
#
# Indices 1 2 3 4 5 6 
#
# 1 0.023329 0.000593 -0.008902 0.000000 0.000000 0.000000
# 2 0.000593 0.023329 -0.008902 0.000000 0.000000 0.000000
# 3 -0.008902 -0.008902 0.014131 0.000000 0.000000 0.000000
# 4 0.000000 0.000000 0.000000 0.058088 0.000000 0.000000
# 5 0.000000 0.000000 0.000000 0.000000 0.058088 0.000000
# 6 0.000000 0.000000 0.000000 0.000000 0.000000 0.378734
#
#
# Mechanical properties :
#
#
# Convention : Reuss Voigt Hill
#
# Bulk Modulus (GPa) = 37.92522 54.32622 46.12572
# Shear Modulus (GPa) = 8.34853 16.70760 12.52806
#
# Velocity S-wave (km/s) = 2.39427 3.38708 2.93299
# Velocity P-wave (km/s) = 5.80387 7.25257 6.56828
#
# Compressibility (1/GPa) = 0.02636768
#
# Stress axis : x y z
#
# Youngs Moduli (GPa) = 42.86542 42.86542 70.76663
#
# Poissons Ratio (x) = -0.02543 0.62995
# Poissons Ratio (y) = -0.02543 0.62995
# Poissons Ratio (z) = 0.38158 0.38158
#
# Static dielectric constant tensor:
#      x y z
#    x 2.694310 0.000000 0.000000 
#    y 0.000000 2.694310 0.000000 
#    z 0.000000 0.000000 3.185130 
# 
# 
# High freq. dielectric constant tensor:
#      x y z
#    x 1.516020 0.000000 0.000000 
#    y 0.000000 1.516020 0.000000 
#    z 0.000000 0.000000 1.572150 
# 
# From -- ./inp_files/2849.got.cif
#   From: 2010.03.12/outbox.cif.g09.slc.cpg/sg115_2_cif.got.tgz:2849.got - 2010.04.14 02:11:21.
