data_PCOD8310170
_publ_section_title
;
Structure prediction by ZEFSAII (Michael W. Deem and Ramdas Pophale) SiO2 
 PCOD8310170
Probable space group: P -4 C 2
;
_chemical_formula_sum "Si O2"
_cell_formula_units_Z 56
_cell_length_a 15.681425
_cell_length_b 15.681425
_cell_length_c 11.059889
_cell_angle_alpha 90.000000
_cell_angle_beta 90.000000
_cell_angle_gamma 90.000000
_cell_volume 2719.705120
_symmetry_space_group_name_H-M "P -4 C 2"
_symmetry_group_IT_number 116
_symmetry_cell_setting 'tetragonal'
loop_
_space_group_symop_operation_xyz
x,y,z
y,-x,-z
-x,-y,z
-y,x,-z
y,x,1/2-z
-y,-x,1/2-z
-x,y,1/2+z
x,-y,1/2+z
loop_
_atom_site_type_symbol
_atom_site_label
_atom_site_fract_x
_atom_site_fract_y
_atom_site_fract_z
Si Si1 0.071412 0.334972 0.991492
Si Si2 0.399668 0.806797 0.197018
Si Si3 0.549888 0.912639 0.291002
Si Si4 0.234746 0.800693 0.881168
Si Si5 0.391869 0.703420 0.959083
Si Si6 0.266214 0.422180 0.567205
Si Si7 0.347071 0.880861 0.565113
O O1 0.096355 0.418509 0.070968
O O2 0.108829 0.247016 0.050337
O O3 0.111505 0.346365 0.855861
O O4 0.970026 0.330669 0.001204
O O5 0.487964 0.835649 0.258697
O O6 0.362709 0.753629 0.312982
O O7 0.413548 0.742943 0.088688
O O8 0.632697 0.904122 0.204154
O O9 0.500000 0.000000 0.265401
O O10 0.191632 0.808369 0.750000
O O11 0.330595 0.761445 0.875156
O O12 0.173582 0.738734 0.956914
O O13 0.483923 0.697797 0.895184
O O14 0.342000 0.615682 0.983974
O O15 0.175320 0.423608 0.493341
#
# Coordination Sequence:
#
# PCOD8310170 Si02
#       7
#     8   8   8   8   8   8   8
#     4  11  24  38  61  93 128 161 202 252 313 382
#     4  11  21  36  56  85 121 157 198 261 312 368
#     4  12  22  33  58  91 131 160 201 249 313 374
#     4  10  21  40  61  87 123 166 205 249 311 378
#     4  10  23  38  57  85 118 163 215 263 309 363
#     4  11  23  39  60  82 120 165 216 260 312 359
#     4  11  23  39  60  94 124 163 203 250 311 378
#
# _framework density 20.590468999999999
#
# number of rings (size 3 to 8) (size 9 to 14) (size 15 to 20)
#    0.000    1.143    4.286    3.000    2.000    0.286 
#    0.000    0.000    0.000    2.143    0.000    1.000 
#    0.000    0.000    0.000    0.000    0.000    0.000 
#
# Total GULP energy -693738.969784 kJ/mol
# GULP energy per Si atom -12388.195889 kJ/mol
# Density = 2.054360 g / cm^3
# Si number density = 20.590469 Si / 1000 Ang^3
#
#
#
# Elastic Constant Matrix: (Units=GPa)
#
#
# Indices 1 2 3 4 5 6 
#
# 1 95.9637 44.9321 18.4883 0.0000 0.0000 0.0000
# 2 44.9321 95.9636 18.4882 0.0000 0.0000 0.0000
# 3 18.4883 18.4882 89.9820 0.0000 0.0000 0.0000
# 4 0.0000 0.0000 0.0000 26.1793 0.0000 0.0000
# 5 0.0000 0.0000 0.0000 0.0000 26.1794 0.0000
# 6 0.0000 0.0000 0.0000 0.0000 0.0000 21.5774
#
#
#
# Elastic Compliance Matrix: (Units=1/GPa)
#
#
# Indices 1 2 3 4 5 6 
#
# 1 0.013549 -0.006047 -0.001541 0.000000 0.000000 0.000000
# 2 -0.006047 0.013549 -0.001541 0.000000 0.000000 0.000000
# 3 -0.001541 -0.001541 0.011747 0.000000 0.000000 0.000000
# 4 0.000000 0.000000 0.000000 0.038198 0.000000 0.000000
# 5 0.000000 0.000000 0.000000 0.000000 0.038198 0.000000
# 6 0.000000 0.000000 0.000000 0.000000 0.000000 0.046345
#
#
# Mechanical properties :
#
#
# Convention : Reuss Voigt Hill
#
# Bulk Modulus (GPa) = 48.57887 49.52517 49.05202
# Shear Modulus (GPa) = 26.78002 28.12060 27.45031
#
# Velocity S-wave (km/s) = 3.61030 3.69956 3.65520
# Velocity P-wave (km/s) = 6.40493 6.50797 6.45666
#
# Compressibility (1/GPa) = 0.02058508
#
# Stress axis : x y z
#
# Youngs Moduli (GPa) = 73.80702 73.80693 85.12998
#
# Poissons Ratio (x) = 0.44630 0.13122
# Poissons Ratio (y) = 0.44630 0.13122
# Poissons Ratio (z) = 0.11377 0.11377
#
# Static dielectric constant tensor:
#      x y z
#    x 3.762050 0.000000 0.000000 
#    y 0.000000 3.762050 0.000000 
#    z 0.000000 0.000000 3.857620 
# 
# 
# High freq. dielectric constant tensor:
#      x y z
#    x 1.783810 0.000000 0.000000 
#    y 0.000000 1.783810 0.000000 
#    z 0.000000 0.000000 1.813180 
# 
# From -- ./inp_files/1997.got.cif
#   From: 2010.03.12/outbox.cif.g09.slc.cpg/sg116_1_cif.got.tgz:1997.got - 2010.04.14 02:15:44.
