data_PCOD8310648
_publ_section_title
;
Structure prediction by ZEFSAII (Michael W. Deem and Ramdas Pophale) SiO2 
 PCOD8310648
Probable space group: P -4 N 2
;
_chemical_formula_sum "Si O2"
_cell_formula_units_Z 28
_cell_length_a 10.466907
_cell_length_b 10.466907
_cell_length_c 10.037647
_cell_angle_alpha 90.000000
_cell_angle_beta 90.000000
_cell_angle_gamma 90.000000
_cell_volume 1099.685882
_symmetry_space_group_name_H-M "P -4 N 2"
_symmetry_group_IT_number 118
_symmetry_cell_setting 'tetragonal'
loop_
_space_group_symop_operation_xyz
x,y,z
y,-x,-z
-x,-y,z
-y,x,-z
1/2+y,1/2+x,1/2-z
1/2-y,1/2-x,1/2-z
1/2-x,1/2+y,1/2+z
1/2+x,1/2-y,1/2+z
loop_
_atom_site_type_symbol
_atom_site_label
_atom_site_fract_x
_atom_site_fract_y
_atom_site_fract_z
Si Si1 0.078537 0.825914 0.444908
Si Si2 0.532472 0.276195 0.665109
Si Si3 0.775903 0.400469 0.580403
Si Si4 0.000000 0.500000 0.750000
Si Si5 0.000000 0.500000 0.250000
O O1 0.674189 0.678783 0.319479
O O2 0.051532 0.828997 0.286837
O O3 0.946402 0.832257 0.526030
O O4 0.144779 0.697396 0.489847
O O5 0.480689 0.315369 0.519413
O O6 0.515304 0.122872 0.656026
O O7 0.869818 0.494805 0.662562
#
# Coordination Sequence:
#
# PCOD8310648 Si02
#       5
#     8   8   8   2   2
#     4  11  25  48  79 116 161 214 265 340 412 499
#     4  12  27  50  79 118 155 214 271 339 414 491
#     4  12  28  50  82 116 163 207 281 340 414 504
#     4  12  28  48  72 126 156 220 270 346 406 498
#     4  12  20  48  78 104 152 200 270 316 404 490
#
# _framework density 25.461818000000001
#
# number of rings (size 3 to 8) (size 9 to 14) (size 15 to 20)
#    0.000    0.286    2.857    5.143    4.000    7.429 
#    0.000    0.000    0.000    0.000    0.000    0.000 
#    0.000    0.000    0.000    0.000    0.000    0.000 
#
# Total GULP energy -347096.500992 kJ/mol
# GULP energy per Si atom -12396.303607 kJ/mol
# Density = 2.540387 g / cm^3
# Si number density = 25.461818 Si / 1000 Ang^3
#
#
#
# Elastic Constant Matrix: (Units=GPa)
#
#
# Indices 1 2 3 4 5 6 
#
# 1 106.1131 57.9759 27.3765 0.0000 0.0000 0.0000
# 2 57.9759 106.1131 27.3765 0.0000 0.0000 0.0000
# 3 27.3765 27.3765 141.6568 0.0000 0.0000 0.0000
# 4 0.0000 0.0000 0.0000 33.0365 0.0000 0.0000
# 5 0.0000 0.0000 0.0000 0.0000 33.0365 0.0000
# 6 0.0000 0.0000 0.0000 0.0000 0.0000 58.3585
#
#
#
# Elastic Compliance Matrix: (Units=1/GPa)
#
#
# Indices 1 2 3 4 5 6 
#
# 1 0.013644 -0.007130 -0.001259 0.000000 0.000000 0.000000
# 2 -0.007130 0.013644 -0.001259 0.000000 0.000000 0.000000
# 3 -0.001259 -0.001259 0.007546 0.000000 0.000000 0.000000
# 4 0.000000 0.000000 0.000000 0.030270 0.000000 0.000000
# 5 0.000000 0.000000 0.000000 0.000000 0.030270 0.000000
# 6 0.000000 0.000000 0.000000 0.000000 0.000000 0.017135
#
#
# Mechanical properties :
#
#
# Convention : Reuss Voigt Hill
#
# Bulk Modulus (GPa) = 64.35510 64.37118 64.36314
# Shear Modulus (GPa) = 36.50068 40.96325 38.73196
#
# Velocity S-wave (km/s) = 3.79033 4.01535 3.90446
# Velocity P-wave (km/s) = 6.66974 6.84352 6.75719
#
# Compressibility (1/GPa) = 0.01553878
#
# Stress axis : x y z
#
# Youngs Moduli (GPa) = 73.29152 73.29152 132.52181
#
# Poissons Ratio (x) = 0.52255 0.16684
# Poissons Ratio (y) = 0.52255 0.16684
# Poissons Ratio (z) = 0.09227 0.09227
#
# Static dielectric constant tensor:
#      x y z
#    x 4.720240 0.000000 0.000000 
#    y 0.000000 4.720240 0.000000 
#    z 0.000000 0.000000 4.846720 
# 
# 
# High freq. dielectric constant tensor:
#      x y z
#    x 2.018360 0.000000 0.000000 
#    y 0.000000 2.018360 0.000000 
#    z 0.000000 0.000000 2.029930 
# 
# From -- ./inp_files/2829.got.cif
#   From: 2010.03.12/outbox.cif.g09.slc.cpg/sg118_2_cif.got.tgz:2829.got - 2010.04.14 02:21:17.
