data_PCOD8310838
_publ_section_title
;
Structure prediction by ZEFSAII (Michael W. Deem and Ramdas Pophale) SiO2 
 PCOD8310838
Probable space group: I -4 M 2
;
_chemical_formula_sum "Si O2"
_cell_formula_units_Z 88
_cell_length_a 14.455960
_cell_length_b 14.455960
_cell_length_c 22.098102
_cell_angle_alpha 90.000000
_cell_angle_beta 90.000000
_cell_angle_gamma 90.000000
_cell_volume 4617.945993
_symmetry_space_group_name_H-M "I -4 M 2"
_symmetry_group_IT_number 119
_symmetry_cell_setting 'tetragonal'
loop_
_space_group_symop_operation_xyz
x,y,z
y,-x,-z
-x,-y,z
-y,x,-z
y,x,-z
-y,-x,-z
-x,y,z
x,-y,z
1/2+x,1/2+y,1/2+z
1/2+y,1/2-x,1/2-z
1/2-x,1/2-y,1/2+z
1/2-y,1/2+x,1/2-z
1/2+y,1/2+x,1/2-z
1/2-y,1/2-x,1/2-z
1/2-x,1/2+y,1/2+z
1/2+x,1/2-y,1/2+z
loop_
_atom_site_type_symbol
_atom_site_label
_atom_site_fract_x
_atom_site_fract_y
_atom_site_fract_z
Si Si1 0.895317 0.756905 0.101410
Si Si2 0.271569 0.104221 0.550998
Si Si3 0.106779 0.106779 0.000000
Si Si4 0.391829 0.741524 0.739906
Si Si5 0.603948 0.718707 0.079717
Si Si6 0.758738 0.391209 0.786757
O O1 0.842545 0.662794 0.089578
O O2 0.856637 0.838496 0.058766
O O3 0.883567 0.787788 0.170158
O O4 0.000000 0.735817 0.084715
O O5 0.168958 0.129706 0.573462
O O6 0.284728 0.120640 0.478709
O O7 0.291444 0.000000 0.569359
O O8 0.000000 0.125790 0.986386
O O9 0.500000 0.749525 0.759876
O O10 0.339916 0.839916 0.750000
O O11 0.340087 0.658197 0.774658
O O12 0.500000 0.679415 0.079180
O O13 0.621798 0.777044 0.141221
O O14 0.754950 0.500000 0.769124
O O15 0.841235 0.341235 0.750000
#
# Coordination Sequence:
#
# PCOD8310838 Si02
#       6
#    16  16   8  16  16  16
#     4  10  21  35  52  77 106 133 169 214 254 304
#     4  10  19  33  54  76 104 139 167 204 259 309
#     4   9  18  34  56  78 100 129 164 208 264 313
#     4  10  22  38  54  77 108 141 180 222 262 308
#     4   9  19  34  52  77 105 132 170 216 257 303
#     4  10  21  37  56  79 108 141 178 219 261 310
#
# _framework density 19.056090999999999
#
# number of rings (size 3 to 8) (size 9 to 14) (size 15 to 20)
#    0.000    2.273    0.000    3.273    0.000    5.091 
#    0.000   10.000    0.000    3.273    0.000    0.000 
#    0.000    0.000    0.000    0.000    0.000    0.000 
#
# Total GULP energy -545421.009406 kJ/mol
# GULP energy per Si atom -12395.932032 kJ/mol
# Density = 1.901272 g / cm^3
# Si number density = 19.056091 Si / 1000 Ang^3
#
#
#
# Elastic Constant Matrix: (Units=GPa)
#
#
# Indices 1 2 3 4 5 6 
#
# 1 78.9076 35.4041 21.8234 0.0000 0.0000 0.0000
# 2 35.4041 78.9076 21.8234 0.0000 0.0000 0.0000
# 3 21.8234 21.8234 88.8218 0.0000 0.0000 0.0000
# 4 0.0000 0.0000 0.0000 25.0364 0.0000 0.0000
# 5 0.0000 0.0000 0.0000 0.0000 25.0364 0.0000
# 6 0.0000 0.0000 0.0000 0.0000 0.0000 15.8687
#
#
#
# Elastic Compliance Matrix: (Units=1/GPa)
#
#
# Indices 1 2 3 4 5 6 
#
# 1 0.016320 -0.006667 -0.002372 0.000000 0.000000 0.000000
# 2 -0.006667 0.016320 -0.002372 0.000000 0.000000 0.000000
# 3 -0.002372 -0.002372 0.012424 0.000000 0.000000 0.000000
# 4 0.000000 0.000000 0.000000 0.039942 0.000000 0.000000
# 5 0.000000 0.000000 0.000000 0.000000 0.039942 0.000000
# 6 0.000000 0.000000 0.000000 0.000000 0.000000 0.063017
#
#
# Mechanical properties :
#
#
# Convention : Reuss Voigt Hill
#
# Bulk Modulus (GPa) = 44.95641 44.97101 44.96371
# Shear Modulus (GPa) = 22.91473 24.36071 23.63772
#
# Velocity S-wave (km/s) = 3.47145 3.57931 3.52579
# Velocity P-wave (km/s) = 6.30165 6.38220 6.34205
#
# Compressibility (1/GPa) = 0.02224377
#
# Stress axis : x y z
#
# Youngs Moduli (GPa) = 61.27392 61.27392 80.48911
#
# Poissons Ratio (x) = 0.40848 0.19091
# Poissons Ratio (y) = 0.40848 0.19091
# Poissons Ratio (z) = 0.14534 0.14534
#
# Static dielectric constant tensor:
#      x y z
#    x 3.451700 0.000000 0.000000 
#    y 0.000000 3.451700 0.000000 
#    z 0.000000 0.000000 3.795190 
# 
# 
# High freq. dielectric constant tensor:
#      x y z
#    x 1.730790 0.000000 0.000000 
#    y 0.000000 1.730790 0.000000 
#    z 0.000000 0.000000 1.759770 
# 
# From -- ./inp_files/7683.got.cif
#   From: 2010.03.12/outbox.cif.g09.slc.cpg/sg119_4_cif.got.tgz:7683.got - 2010.04.14 02:25:26.
