data_PCOD8310598
_publ_section_title
;
Structure prediction by ZEFSAII (Michael W. Deem and Ramdas Pophale) SiO2 
 PCOD8310598
Probable space group: P -4 N 2
;
_chemical_formula_sum "Si O2"
_cell_formula_units_Z 56
_cell_length_a 13.909061
_cell_length_b 13.909061
_cell_length_c 13.065358
_cell_angle_alpha 90.000000
_cell_angle_beta 90.000000
_cell_angle_gamma 90.000000
_cell_volume 2527.650001
_symmetry_space_group_name_H-M "P -4 N 2"
_symmetry_group_IT_number 118
_symmetry_cell_setting 'tetragonal'
loop_
_space_group_symop_operation_xyz
x,y,z
y,-x,-z
-x,-y,z
-y,x,-z
1/2+y,1/2+x,1/2-z
1/2-y,1/2-x,1/2-z
1/2-x,1/2+y,1/2+z
1/2+x,1/2-y,1/2+z
loop_
_atom_site_type_symbol
_atom_site_label
_atom_site_fract_x
_atom_site_fract_y
_atom_site_fract_z
Si Si1 0.047397 0.308007 0.447371
Si Si2 0.277480 0.831720 0.359032
Si Si3 0.126174 0.950663 0.262292
Si Si4 0.861899 0.063517 0.031369
Si Si5 0.930783 0.709228 0.121822
Si Si6 0.837946 0.352640 0.371151
Si Si7 0.147327 0.928719 0.698505
O O1 0.096621 0.326904 0.558375
O O2 0.105714 0.379314 0.371637
O O3 0.061833 0.196301 0.412952
O O4 0.934290 0.331110 0.437383
O O5 0.334597 0.834597 0.250000
O O6 0.173782 0.877477 0.339836
O O7 0.249041 0.722910 0.395897
O O8 0.170050 0.942835 0.148902
O O9 0.017696 0.913682 0.258663
O O10 0.147909 0.059849 0.303399
O O11 0.771580 0.111690 0.973063
O O12 0.957573 0.124451 0.015721
O O13 0.905289 0.766648 0.224526
O O14 0.043180 0.698407 0.098653
O O15 0.856382 0.356382 0.250000
#
# Coordination Sequence:
#
# PCOD8310598 Si02
#       7
#     8   8   8   8   8   8   8
#     4  12  26  41  65 101 134 186 238 287 354 428
#     4  11  25  45  67  93 141 192 238 283 352 434
#     4  11  21  39  64  92 137 172 222 290 354 417
#     4  11  20  36  63  95 127 170 219 274 350 429
#     4  12  23  39  66  97 140 169 229 295 350 414
#     4  11  24  44  68  97 137 184 234 293 361 426
#     4  11  21  37  63 100 128 172 222 294 355 410
#
# _framework density 22.154966999999999
#
# number of rings (size 3 to 8) (size 9 to 14) (size 15 to 20)
#    0.000    0.714    5.714    3.429    4.000    0.571 
#    0.000    1.429    0.000    5.143    0.000    0.000 
#    0.000    0.000    0.000    0.000    0.000    0.000 
#
# Total GULP energy -693960.123700 kJ/mol
# GULP energy per Si atom -12392.145066 kJ/mol
# Density = 2.210454 g / cm^3
# Si number density = 22.154967 Si / 1000 Ang^3
#
#
#
# Elastic Constant Matrix: (Units=GPa)
#
#
# Indices 1 2 3 4 5 6 
#
# 1 71.8095 -4.0192 18.7581 0.0000 0.0000 0.0000
# 2 -4.0192 71.8095 18.7581 0.0000 0.0000 0.0000
# 3 18.7581 18.7581 84.2581 0.0000 0.0000 0.0000
# 4 0.0000 0.0000 0.0000 31.6683 0.0000 0.0000
# 5 0.0000 0.0000 0.0000 0.0000 31.6683 0.0000
# 6 0.0000 0.0000 0.0000 0.0000 0.0000 20.7903
#
#
#
# Elastic Compliance Matrix: (Units=1/GPa)
#
#
# Indices 1 2 3 4 5 6 
#
# 1 0.015006 0.001818 -0.003746 0.000000 0.000000 0.000000
# 2 0.001818 0.015006 -0.003746 0.000000 0.000000 0.000000
# 3 -0.003746 -0.003746 0.013536 0.000000 0.000000 0.000000
# 4 0.000000 0.000000 0.000000 0.031577 0.000000 0.000000
# 5 0.000000 0.000000 0.000000 0.000000 0.031577 0.000000
# 6 0.000000 0.000000 0.000000 0.000000 0.000000 0.048099
#
#
# Mechanical properties :
#
#
# Convention : Reuss Voigt Hill
#
# Bulk Modulus (GPa) = 31.05362 32.76343 31.90853
# Shear Modulus (GPa) = 28.26752 29.78405 29.02579
#
# Velocity S-wave (km/s) = 3.57585 3.67052 3.62349
# Velocity P-wave (km/s) = 5.57637 5.72573 5.65154
#
# Compressibility (1/GPa) = 0.03220236
#
# Stress axis : x y z
#
# Youngs Moduli (GPa) = 66.64041 66.64041 73.87713
#
# Poissons Ratio (x) = -0.12117 0.27671
# Poissons Ratio (y) = -0.12117 0.27671
# Poissons Ratio (z) = 0.24960 0.24960
#
# Static dielectric constant tensor:
#      x y z
#    x 4.101050 0.000000 0.000000 
#    y 0.000000 4.101050 0.000000 
#    z 0.000000 0.000000 3.997770 
# 
# 
# High freq. dielectric constant tensor:
#      x y z
#    x 1.870480 0.000000 0.000000 
#    y 0.000000 1.870480 0.000000 
#    z 0.000000 0.000000 1.862620 
# 
# From -- ./inp_files/3448.got.cif
#   From: 2010.03.12/outbox.cif.g09.slc.cpg/sg118_2_cif.got.tgz:3448.got - 2010.04.14 02:21:17.
