data_PCOD8310984
_publ_section_title
;
Structure prediction by ZEFSAII (Michael W. Deem and Ramdas Pophale) SiO2 
 PCOD8310984
Probable space group: I -4 M 2
;
_chemical_formula_sum "Si O2"
_cell_formula_units_Z 88
_cell_length_a 14.099709
_cell_length_b 14.099709
_cell_length_c 20.995359
_cell_angle_alpha 90.000000
_cell_angle_beta 90.000000
_cell_angle_gamma 90.000000
_cell_volume 4173.915032
_symmetry_space_group_name_H-M "I -4 M 2"
_symmetry_group_IT_number 119
_symmetry_cell_setting 'tetragonal'
loop_
_space_group_symop_operation_xyz
x,y,z
y,-x,-z
-x,-y,z
-y,x,-z
y,x,-z
-y,-x,-z
-x,y,z
x,-y,z
1/2+x,1/2+y,1/2+z
1/2+y,1/2-x,1/2-z
1/2-x,1/2-y,1/2+z
1/2-y,1/2+x,1/2-z
1/2+y,1/2+x,1/2-z
1/2-y,1/2-x,1/2-z
1/2-x,1/2+y,1/2+z
1/2+x,1/2-y,1/2+z
loop_
_atom_site_type_symbol
_atom_site_label
_atom_site_fract_x
_atom_site_fract_y
_atom_site_fract_z
Si Si1 0.606527 0.610793 0.698138
Si Si2 0.157024 0.712817 0.862225
Si Si3 0.351404 0.611543 0.844537
Si Si4 0.760700 0.391505 0.498211
Si Si5 0.100067 0.399934 0.750000
Si Si6 0.767615 0.104249 0.543482
O O1 0.500000 0.640343 0.679975
O O2 0.623719 0.500000 0.683847
O O3 0.674843 0.673798 0.652181
O O4 0.623291 0.633793 0.772088
O O5 0.245228 0.642709 0.860300
O O6 0.094677 0.683522 0.801453
O O7 0.107152 0.697930 0.929972
O O8 0.368060 0.500000 0.860075
O O9 0.413155 0.681744 0.888445
O O10 0.656007 0.343994 0.500000
O O11 0.755650 0.500000 0.473083
O O12 0.829618 0.326865 0.453557
O O13 0.108034 0.500000 0.787528
O O14 0.845449 0.154552 0.500000
O O15 0.740405 0.000000 0.516767
#
# Coordination Sequence:
#
# PCOD8310984 Si02
#       6
#    16  16  16  16   8  16
#     4  10  21  36  58  89 121 155 197 249 309 366
#     4  12  21  38  60  86 121 161 201 258 306 368
#     4  11  21  38  63  91 125 160 199 253 315 375
#     4  11  25  44  63  88 122 165 216 264 308 362
#     4  11  22  34  56  90 124 158 189 230 308 392
#     4  11  23  40  62  91 124 161 202 249 307 372
#
# _framework density 21.083321999999999
#
# number of rings (size 3 to 8) (size 9 to 14) (size 15 to 20)
#    0.000    1.000    5.455    3.273    0.000    4.000 
#    0.000    0.000    0.000    0.000    0.000    0.000 
#    0.000    1.455    0.000    0.000    0.000    0.000 
#
# Total GULP energy -545163.432016 kJ/mol
# GULP energy per Si atom -12390.078000 kJ/mol
# Density = 2.103534 g / cm^3
# Si number density = 21.083322 Si / 1000 Ang^3
#
#
#
# Elastic Constant Matrix: (Units=GPa)
#
#
# Indices 1 2 3 4 5 6 
#
# 1 124.3792 37.8913 12.1671 0.0000 0.0000 0.0000
# 2 37.8913 124.3803 12.1675 0.0000 0.0000 0.0000
# 3 12.1671 12.1675 57.2370 0.0000 0.0000 0.0000
# 4 0.0000 0.0000 0.0000 21.1569 0.0000 0.0000
# 5 0.0000 0.0000 0.0000 0.0000 21.1579 0.0000
# 6 0.0000 0.0000 0.0000 0.0000 0.0000 18.8767
#
#
#
# Elastic Compliance Matrix: (Units=1/GPa)
#
#
# Indices 1 2 3 4 5 6 
#
# 1 0.008964 -0.002598 -0.001353 0.000000 0.000000 0.000000
# 2 -0.002598 0.008964 -0.001353 0.000000 0.000000 0.000000
# 3 -0.001353 -0.001353 0.018047 0.000000 0.000000 0.000000
# 4 0.000000 0.000000 0.000000 0.047266 0.000000 0.000000
# 5 0.000000 0.000000 0.000000 0.000000 0.047264 0.000000
# 6 0.000000 0.000000 0.000000 0.000000 0.000000 0.052975
#
#
# Mechanical properties :
#
#
# Convention : Reuss Voigt Hill
#
# Bulk Modulus (GPa) = 39.42470 47.82758 43.62614
# Shear Modulus (GPa) = 24.68609 28.48969 26.58789
#
# Velocity S-wave (km/s) = 3.42553 3.67998 3.55503
# Velocity P-wave (km/s) = 5.86393 6.38675 6.13092
#
# Compressibility (1/GPa) = 0.02536481
#
# Stress axis : x y z
#
# Youngs Moduli (GPa) = 111.55881 111.55968 55.41239
#
# Poissons Ratio (x) = 0.28988 0.07498
# Poissons Ratio (y) = 0.28987 0.07498
# Poissons Ratio (z) = 0.15095 0.15096
#
# Static dielectric constant tensor:
#      x y z
#    x 3.990170 0.000000 0.000000 
#    y 0.000000 3.990160 0.000000 
#    z 0.000000 0.000000 4.236750 
# 
# 
# High freq. dielectric constant tensor:
#      x y z
#    x 1.821400 0.000000 0.000000 
#    y 0.000000 1.821400 0.000000 
#    z 0.000000 0.000000 1.823460 
# 
# From -- ./inp_files/7711.got.cif
#   From: 2010.03.12/outbox.cif.g09.slc.cpg/sg119_4_cif.got.tgz:7711.got - 2010.04.14 02:25:26.
