data_PCOD8310792
_publ_section_title
;
Structure prediction by ZEFSAII (Michael W. Deem and Ramdas Pophale) SiO2 
 PCOD8310792
Probable space group: I -4 M 2
;
_chemical_formula_sum "Si O2"
_cell_formula_units_Z 128
_cell_length_a 23.700991
_cell_length_b 23.700991
_cell_length_c 12.349818
_cell_angle_alpha 90.000000
_cell_angle_beta 90.000000
_cell_angle_gamma 90.000000
_cell_volume 6937.349397
_symmetry_space_group_name_H-M "I -4 M 2"
_symmetry_group_IT_number 119
_symmetry_cell_setting 'tetragonal'
loop_
_space_group_symop_operation_xyz
x,y,z
y,-x,-z
-x,-y,z
-y,x,-z
y,x,-z
-y,-x,-z
-x,y,z
x,-y,z
1/2+x,1/2+y,1/2+z
1/2+y,1/2-x,1/2-z
1/2-x,1/2-y,1/2+z
1/2-y,1/2+x,1/2-z
1/2+y,1/2+x,1/2-z
1/2-y,1/2-x,1/2-z
1/2-x,1/2+y,1/2+z
1/2+x,1/2-y,1/2+z
loop_
_atom_site_type_symbol
_atom_site_label
_atom_site_fract_x
_atom_site_fract_y
_atom_site_fract_z
Si Si1 0.434599 0.782337 0.250608
Si Si2 0.063398 0.839215 0.741166
Si Si3 0.937606 0.848693 0.992269
Si Si4 0.245906 0.065998 0.622803
Si Si5 0.933568 0.749474 0.136363
Si Si6 0.933765 0.342724 0.966115
Si Si7 0.065496 0.656225 0.533361
Si Si8 0.065900 0.882304 0.395606
O O1 0.500000 0.769810 0.272255
O O2 0.409907 0.721801 0.207527
O O3 0.409606 0.807810 0.362464
O O4 0.424880 0.827788 0.157771
O O5 0.062013 0.830268 0.868937
O O6 0.100274 0.892901 0.703283
O O7 0.000000 0.848486 0.694251
O O8 0.000000 0.858892 0.036673
O O9 0.907880 0.907880 0.000000
O O10 0.907333 0.801221 0.066840
O O11 0.252089 0.092954 0.743078
O O12 0.293732 0.090645 0.542861
O O13 0.183223 0.077722 0.576319
O O14 0.256638 0.000000 0.630754
O O15 0.000000 0.759665 0.143162
O O16 0.920658 0.691607 0.075055
O O17 0.901853 0.401516 0.983904
O O18 0.000000 0.355787 0.951135
O O19 0.000000 0.644847 0.507929
O O20 0.080351 0.919650 0.500000
O O21 0.000000 0.891647 0.362801
#
# Coordination Sequence:
#
# PCOD8310792 Si02
#       8
#    16  16  16  16  16  16  16  16
#     4   9  17  33  53  77 106 141 186 220 254 317
#     4  10  19  32  52  76 103 138 183 228 268 315
#     4  10  19  31  49  74 102 133 172 223 276 321
#     4   9  19  35  53  75 104 141 187 224 260 319
#     4   9  17  33  54  74 100 138 184 223 257 315
#     4  10  19  33  56  83 108 140 177 217 272 332
#     4  10  20  33  53  82 112 140 173 220 273 329
#     4  11  22  35  52  78 110 149 188 227 277 328
#
# _framework density 18.450851
#
# number of rings (size 3 to 8) (size 9 to 14) (size 15 to 20)
#    0.000    2.250    1.250    2.250    0.000    5.250 
#    0.000    1.250    0.000    4.500    6.500    3.500 
#    0.000    0.000    0.000    0.000    0.000    0.000 
#
# Total GULP energy -793175.037779 kJ/mol
# GULP energy per Si atom -12393.359965 kJ/mol
# Density = 1.840886 g / cm^3
# Si number density = 18.450851 Si / 1000 Ang^3
#
#
#
# Elastic Constant Matrix: (Units=GPa)
#
#
# Indices 1 2 3 4 5 6 
#
# 1 83.8657 50.4971 24.0508 0.0000 0.0000 0.0000
# 2 50.4971 83.8647 24.0499 0.0000 0.0000 0.0000
# 3 24.0508 24.0499 79.0459 0.0000 0.0000 0.0000
# 4 0.0000 0.0000 0.0000 23.2835 0.0000 0.0000
# 5 0.0000 0.0000 0.0000 0.0000 23.2836 0.0000
# 6 0.0000 0.0000 0.0000 0.0000 0.0000 8.7289
#
#
#
# Elastic Compliance Matrix: (Units=1/GPa)
#
#
# Indices 1 2 3 4 5 6 
#
# 1 0.019160 -0.010808 -0.002541 0.000000 0.000000 0.000000
# 2 -0.010808 0.019161 -0.002541 0.000000 0.000000 0.000000
# 3 -0.002541 -0.002541 0.014197 0.000000 0.000000 0.000000
# 4 0.000000 0.000000 0.000000 0.042949 0.000000 0.000000
# 5 0.000000 0.000000 0.000000 0.000000 0.042949 0.000000
# 6 0.000000 0.000000 0.000000 0.000000 0.000000 0.114563
#
#
# Mechanical properties :
#
#
# Convention : Reuss Voigt Hill
#
# Bulk Modulus (GPa) = 48.22328 49.33021 48.77675
# Shear Modulus (GPa) = 17.14253 20.93775 19.04014
#
# Velocity S-wave (km/s) = 3.05141 3.37231 3.21586
# Velocity P-wave (km/s) = 6.21350 6.47745 6.34685
#
# Compressibility (1/GPa) = 0.02073687
#
# Stress axis : x y z
#
# Youngs Moduli (GPa) = 52.19081 52.19050 70.43602
#
# Poissons Ratio (x) = 0.56409 0.17901
# Poissons Ratio (y) = 0.56409 0.17899
# Poissons Ratio (z) = 0.13264 0.13262
#
# Static dielectric constant tensor:
#      x y z
#    x 3.271450 0.000000 0.000000 
#    y 0.000000 3.271450 0.000000 
#    z 0.000000 0.000000 3.796510 
# 
# 
# High freq. dielectric constant tensor:
#      x y z
#    x 1.690610 0.000000 0.000000 
#    y 0.000000 1.690610 0.000000 
#    z 0.000000 0.000000 1.728790 
# 
# From -- ./inp_files/4447.got.cif
#   From: 2010.03.12/outbox.cif.g09.slc.cpg/sg119_3_cif.got.tgz:4447.got - 2010.04.14 02:25:26.
