data_PCOD8310714
_publ_section_title
;
Structure prediction by ZEFSAII (Michael W. Deem and Ramdas Pophale) SiO2 
 PCOD8310714
Probable space group: I -4 M 2
;
_chemical_formula_sum "Si O2"
_cell_formula_units_Z 96
_cell_length_a 13.805207
_cell_length_b 13.805207
_cell_length_c 37.336616
_cell_angle_alpha 90.000000
_cell_angle_beta 90.000000
_cell_angle_gamma 90.000000
_cell_volume 7115.751928
_symmetry_space_group_name_H-M "I -4 M 2"
_symmetry_group_IT_number 119
_symmetry_cell_setting 'tetragonal'
loop_
_space_group_symop_operation_xyz
x,y,z
y,-x,-z
-x,-y,z
-y,x,-z
y,x,-z
-y,-x,-z
-x,y,z
x,-y,z
1/2+x,1/2+y,1/2+z
1/2+y,1/2-x,1/2-z
1/2-x,1/2-y,1/2+z
1/2-y,1/2+x,1/2-z
1/2+y,1/2+x,1/2-z
1/2-y,1/2-x,1/2-z
1/2-x,1/2+y,1/2+z
1/2+x,1/2-y,1/2+z
loop_
_atom_site_type_symbol
_atom_site_label
_atom_site_fract_x
_atom_site_fract_y
_atom_site_fract_z
Si Si1 0.615663 0.391296 0.038925
Si Si2 0.385642 0.731119 0.750108
Si Si3 0.275317 0.114415 0.219181
Si Si4 0.289710 0.387459 0.891704
Si Si5 0.107743 0.388349 0.851764
Si Si6 0.112876 0.109111 0.320237
O O1 0.500000 0.391073 0.038493
O O2 0.654293 0.500000 0.045380
O O3 0.660033 0.325268 0.070957
O O4 0.649687 0.350314 0.000000
O O5 0.500000 0.737162 0.741716
O O6 0.339145 0.839145 0.750000
O O7 0.331108 0.664404 0.720669
O O8 0.361727 0.681095 0.788028
O O9 0.344105 0.155896 0.250000
O O10 0.323190 0.141822 0.181375
O O11 0.264602 0.000000 0.223809
O O12 0.316158 0.500000 0.893893
O O13 0.175319 0.368694 0.886290
O O14 0.342953 0.345615 0.856533
O O15 0.115528 0.500000 0.839394
O O16 0.000000 0.361372 0.864117
O O17 0.000000 0.102555 0.326118
O O18 0.153804 0.000000 0.312344
#
# Coordination Sequence:
#
# PCOD8310714 Si02
#       6
#    16  16  16  16  16  16
#     4   8  13  20  30  47  71  95 117 141 171 209
#     4  10  20  31  41  53  70  94 127 165 199 227
#     4  10  18  27  40  57  77 100 125 153 187 226
#     4   9  14  21  34  49  70  99 122 140 168 207
#     4   9  17  26  35  51  75 101 127 150 172 207
#     4   9  16  25  38  56  74  91 115 147 182 221
#
# _framework density 13.491196
#
# number of rings (size 3 to 8) (size 9 to 14) (size 15 to 20)
#    0.000    2.833    0.000    4.000    0.000    5.333 
#    0.000    0.000    0.000    0.000    0.000    0.000 
#    0.000    5.333    0.000   20.333    0.000    1.000 
#
# Total GULP energy -594792.071059 kJ/mol
# GULP energy per Si atom -12391.501480 kJ/mol
# Density = 1.346049 g / cm^3
# Si number density = 13.491196 Si / 1000 Ang^3
#
#
#
# Elastic Constant Matrix: (Units=GPa)
#
#
# Indices 1 2 3 4 5 6 
#
# 1 58.1043 30.0222 41.7053 0.0000 0.0000 0.0000
# 2 30.0222 58.1062 41.7050 0.0000 0.0000 0.0000
# 3 41.7053 41.7050 99.7499 0.0000 0.0000 0.0000
# 4 0.0000 0.0000 0.0000 13.2255 0.0000 0.0000
# 5 0.0000 0.0000 0.0000 0.0000 13.2255 0.0000
# 6 0.0000 0.0000 0.0000 0.0000 0.0000 15.1574
#
#
#
# Elastic Compliance Matrix: (Units=1/GPa)
#
#
# Indices 1 2 3 4 5 6 
#
# 1 0.027194 -0.008415 -0.007851 0.000000 0.000000 0.000000
# 2 -0.008415 0.027193 -0.007851 0.000000 0.000000 0.000000
# 3 -0.007851 -0.007851 0.016590 0.000000 0.000000 0.000000
# 4 0.000000 0.000000 0.000000 0.075612 0.000000 0.000000
# 5 0.000000 0.000000 0.000000 0.000000 0.075612 0.000000
# 6 0.000000 0.000000 0.000000 0.000000 0.000000 0.065974
#
#
# Mechanical properties :
#
#
# Convention : Reuss Voigt Hill
#
# Bulk Modulus (GPa) = 43.97163 49.20283 46.58723
# Shear Modulus (GPa) = 14.53532 15.15687 14.84610
#
# Velocity S-wave (km/s) = 3.28593 3.35545 3.32087
# Velocity P-wave (km/s) = 6.86003 7.18064 7.02216
#
# Compressibility (1/GPa) = 0.02274194
#
# Stress axis : x y z
#
# Youngs Moduli (GPa) = 36.77275 36.77469 60.27710
#
# Poissons Ratio (x) = 0.30947 0.47326
# Poissons Ratio (y) = 0.30946 0.47322
# Poissons Ratio (z) = 0.28872 0.28871
#
# Static dielectric constant tensor:
#      x y z
#    x 2.635360 0.000000 0.000000 
#    y 0.000000 2.635360 0.000000 
#    z 0.000000 0.000000 2.809690 
# 
# 
# High freq. dielectric constant tensor:
#      x y z
#    x 1.492950 0.000000 0.000000 
#    y 0.000000 1.492950 0.000000 
#    z 0.000000 0.000000 1.499820 
# 
# From -- ./inp_files/10339.got.cif
#   From: 2010.03.12/outbox.cif.g09.slc.cpg/sg119_6_cif.got.tgz:10339.got - 2010.04.14 02:25:26.
