data_PCOD8310213
_publ_section_title
;
Structure prediction by ZEFSAII (Michael W. Deem and Ramdas Pophale) SiO2 
 PCOD8310213
Probable space group: P -4 C 2
;
_chemical_formula_sum "Si O2"
_cell_formula_units_Z 38
_cell_length_a 14.408757
_cell_length_b 14.408757
_cell_length_c 8.015676
_cell_angle_alpha 90.000000
_cell_angle_beta 90.000000
_cell_angle_gamma 90.000000
_cell_volume 1664.152756
_symmetry_space_group_name_H-M "P -4 C 2"
_symmetry_group_IT_number 116
_symmetry_cell_setting 'tetragonal'
loop_
_space_group_symop_operation_xyz
x,y,z
y,-x,-z
-x,-y,z
-y,x,-z
y,x,1/2-z
-y,-x,1/2-z
-x,y,1/2+z
x,-y,1/2+z
loop_
_atom_site_type_symbol
_atom_site_label
_atom_site_fract_x
_atom_site_fract_y
_atom_site_fract_z
Si Si1 0.219054 0.367596 0.190025
Si Si2 0.500000 0.500000 0.500000
Si Si3 0.916961 0.222061 0.806419
Si Si4 0.884373 0.261363 0.190661
Si Si5 0.797464 0.564886 0.817822
Si Si6 0.606736 0.606736 0.750000
O O1 0.313533 0.313533 0.250000
O O2 0.132438 0.297418 0.187432
O O3 0.186873 0.454069 0.307755
O O4 0.231452 0.405374 0.003904
O O5 0.534207 0.587905 0.603128
O O6 0.878403 0.121598 0.750000
O O7 0.026679 0.217873 0.781427
O O8 0.892013 0.250048 0.993787
O O9 0.792195 0.207806 0.250000
O O10 0.880232 0.370493 0.245068
O O11 0.711901 0.589047 0.694818
#
# Coordination Sequence:
#
# PCOD8310213 Si02
#       6
#     8   2   8   8   8   4
#     4  11  26  44  65  97 135 177 233 278 333 394
#     4  10  24  38  56  86 128 174 236 270 324 378
#     4  11  25  46  73 102 134 172 217 274 334 400
#     4  12  24  46  72 102 137 171 218 270 335 402
#     4  12  25  41  66  94 135 181 223 279 335 390
#     4  11  24  38  58  90 127 178 218 280 321 384
#
# _framework density 22.834441999999999
#
# number of rings (size 3 to 8) (size 9 to 14) (size 15 to 20)
#    0.000    0.632    1.053    7.579    8.842    1.263 
#    0.000    6.316    0.000    0.000    0.000    0.000 
#    0.000    0.000    0.000    0.000    0.000    0.000 
#
# Total GULP energy -471103.266935 kJ/mol
# GULP energy per Si atom -12397.454393 kJ/mol
# Density = 2.278247 g / cm^3
# Si number density = 22.834442 Si / 1000 Ang^3
#
#
#
# Elastic Constant Matrix: (Units=GPa)
#
#
# Indices 1 2 3 4 5 6 
#
# 1 114.1573 32.4687 20.4783 0.0000 0.0000 0.0000
# 2 32.4687 114.1579 20.4775 0.0000 0.0000 0.0000
# 3 20.4783 20.4775 108.1042 0.0000 0.0000 0.0000
# 4 0.0000 0.0000 0.0000 29.9457 0.0000 0.0000
# 5 0.0000 0.0000 0.0000 0.0000 29.9457 0.0000
# 6 0.0000 0.0000 0.0000 0.0000 0.0000 34.1045
#
#
#
# Elastic Compliance Matrix: (Units=1/GPa)
#
#
# Indices 1 2 3 4 5 6 
#
# 1 0.009721 -0.002520 -0.001364 0.000000 0.000000 0.000000
# 2 -0.002520 0.009721 -0.001364 0.000000 0.000000 0.000000
# 3 -0.001364 -0.001364 0.009767 0.000000 0.000000 0.000000
# 4 0.000000 0.000000 0.000000 0.033394 0.000000 0.000000
# 5 0.000000 0.000000 0.000000 0.000000 0.033394 0.000000
# 6 0.000000 0.000000 0.000000 0.000000 0.000000 0.029322
#
#
# Mechanical properties :
#
#
# Convention : Reuss Voigt Hill
#
# Bulk Modulus (GPa) = 53.43893 53.69648 53.56770
# Shear Modulus (GPa) = 35.19802 36.33217 35.76509
#
# Velocity S-wave (km/s) = 3.93038 3.99320 3.96192
# Velocity P-wave (km/s) = 6.63708 6.69533 6.66627
#
# Compressibility (1/GPa) = 0.01871295
#
# Stress axis : x y z
#
# Youngs Moduli (GPa) = 102.86627 102.86712 102.38429
#
# Poissons Ratio (x) = 0.25925 0.13967
# Poissons Ratio (y) = 0.25925 0.13965
# Poissons Ratio (z) = 0.14032 0.14031
#
# Static dielectric constant tensor:
#      x y z
#    x 4.233330 0.000000 0.000000 
#    y 0.000000 4.233300 0.000000 
#    z 0.000000 0.000000 4.110500 
# 
# 
# High freq. dielectric constant tensor:
#      x y z
#    x 1.899210 0.000000 0.000000 
#    y 0.000000 1.899210 0.000000 
#    z 0.000000 0.000000 1.910510 
# 
# From -- ./inp_files/727.got.cif
#   From: 2010.03.12/outbox.cif.g09.slc.cpg/sg116_1_cif.got.tgz:727.got - 2010.04.14 02:15:44.
