data_PCOD8310524
_publ_section_title
;
Structure prediction by ZEFSAII (Michael W. Deem and Ramdas Pophale) SiO2 
 PCOD8310524
Probable space group: P -4 N 2
;
_chemical_formula_sum "Si O2"
_cell_formula_units_Z 48
_cell_length_a 14.270595
_cell_length_b 14.270595
_cell_length_c 11.299301
_cell_angle_alpha 90.000000
_cell_angle_beta 90.000000
_cell_angle_gamma 90.000000
_cell_volume 2301.101311
_symmetry_space_group_name_H-M "P -4 N 2"
_symmetry_group_IT_number 118
_symmetry_cell_setting 'tetragonal'
loop_
_space_group_symop_operation_xyz
x,y,z
y,-x,-z
-x,-y,z
-y,x,-z
1/2+y,1/2+x,1/2-z
1/2-y,1/2-x,1/2-z
1/2-x,1/2+y,1/2+z
1/2+x,1/2-y,1/2+z
loop_
_atom_site_type_symbol
_atom_site_label
_atom_site_fract_x
_atom_site_fract_y
_atom_site_fract_z
Si Si1 0.680623 0.044988 0.809042
Si Si2 0.885426 0.333762 0.002626
Si Si3 0.675537 0.031337 0.197417
Si Si4 0.717361 0.449509 0.100664
Si Si5 0.795815 0.078495 0.405454
Si Si6 0.170875 0.257955 0.992066
O O1 0.587097 0.087097 0.750000
O O2 0.650250 0.961417 0.895309
O O3 0.751298 0.009225 0.711119
O O4 0.738697 0.123397 0.879620
O O5 0.806045 0.410204 0.026803
O O6 0.837351 0.231524 0.012842
O O7 0.935136 0.350281 0.873434
O O8 0.582589 0.082589 0.250000
O O9 0.744239 0.014109 0.308004
O O10 0.740138 0.094667 0.112030
O O11 0.646067 0.373036 0.153222
O O12 0.660612 0.511119 0.005117
O O13 0.726936 0.146178 0.477573
#
# Coordination Sequence:
#
# PCOD8310524 Si02
#       6
#     8   8   8   8   8   8
#     4  11  21  39  65  94 121 153 201 263 304 354
#     4  10  22  38  63  92 118 159 203 249 308 363
#     4   9  19  38  60  85 120 158 198 250 302 362
#     4  11  23  38  60  89 121 160 200 251 303 364
#     4  10  21  39  57  83 122 163 202 239 304 366
#     4   9  19  40  61  83 121 162 200 244 304 371
#
# _framework density 20.859577000000002
#
# number of rings (size 3 to 8) (size 9 to 14) (size 15 to 20)
#    0.000    2.000    1.667    1.500    0.000    6.333 
#    0.000    2.500    0.000   16.000    0.000    0.000 
#    0.000    0.000    0.000    0.000    0.000    0.000 
#
# Total GULP energy -594937.815354 kJ/mol
# GULP energy per Si atom -12394.537820 kJ/mol
# Density = 2.081210 g / cm^3
# Si number density = 20.859577 Si / 1000 Ang^3
#
#
#
# Elastic Constant Matrix: (Units=GPa)
#
#
# Indices 1 2 3 4 5 6 
#
# 1 67.5732 22.9137 36.0503 0.0000 0.0000 0.0000
# 2 22.9137 67.5732 36.0503 0.0000 0.0000 0.0000
# 3 36.0503 36.0503 115.9071 0.0000 0.0000 0.0000
# 4 0.0000 0.0000 0.0000 28.3350 0.0000 0.0000
# 5 0.0000 0.0000 0.0000 0.0000 28.3350 0.0000
# 6 0.0000 0.0000 0.0000 0.0000 0.0000 25.1987
#
#
#
# Elastic Compliance Matrix: (Units=1/GPa)
#
#
# Indices 1 2 3 4 5 6 
#
# 1 0.018542 -0.003850 -0.004570 0.000000 0.000000 0.000000
# 2 -0.003850 0.018542 -0.004570 0.000000 0.000000 0.000000
# 3 -0.004570 -0.004570 0.011470 0.000000 0.000000 0.000000
# 4 0.000000 0.000000 0.000000 0.035292 0.000000 0.000000
# 5 0.000000 0.000000 0.000000 0.000000 0.035292 0.000000
# 6 0.000000 0.000000 0.000000 0.000000 0.000000 0.039685
#
#
# Mechanical properties :
#
#
# Convention : Reuss Voigt Hill
#
# Bulk Modulus (GPa) = 44.29440 49.00914 46.65177
# Shear Modulus (GPa) = 25.99741 26.77635 26.38688
#
# Velocity S-wave (km/s) = 3.53414 3.58669 3.56051
# Velocity P-wave (km/s) = 6.15907 6.37952 6.27026
#
# Compressibility (1/GPa) = 0.02257622
#
# Stress axis : x y z
#
# Youngs Moduli (GPa) = 53.93128 53.93128 87.18195
#
# Poissons Ratio (x) = 0.20761 0.39840
# Poissons Ratio (y) = 0.20761 0.39840
# Poissons Ratio (z) = 0.24646 0.24646
#
# Static dielectric constant tensor:
#      x y z
#    x 3.664440 0.000000 0.000000 
#    y 0.000000 3.664440 0.000000 
#    z 0.000000 0.000000 3.956420 
# 
# 
# High freq. dielectric constant tensor:
#      x y z
#    x 1.805410 0.000000 0.000000 
#    y 0.000000 1.805410 0.000000 
#    z 0.000000 0.000000 1.831870 
# 
# From -- ./inp_files/3347.got.cif
#   From: 2010.03.12/outbox.cif.g09.slc.cpg/sg118_2_cif.got.tgz:3347.got - 2010.04.14 02:21:17.
