data_PCOD8310114
_publ_section_title
;
Structure prediction by ZEFSAII (Michael W. Deem and Ramdas Pophale) SiO2 
 PCOD8310114
Probable space group: P -4 C 2
;
_chemical_formula_sum "Si O2"
_cell_formula_units_Z 38
_cell_length_a 11.476045
_cell_length_b 11.476045
_cell_length_c 13.775262
_cell_angle_alpha 90.000000
_cell_angle_beta 90.000000
_cell_angle_gamma 90.000000
_cell_volume 1814.196617
_symmetry_space_group_name_H-M "P -4 C 2"
_symmetry_group_IT_number 116
_symmetry_cell_setting 'tetragonal'
loop_
_space_group_symop_operation_xyz
x,y,z
y,-x,-z
-x,-y,z
-y,x,-z
y,x,1/2-z
-y,-x,1/2-z
-x,y,1/2+z
x,-y,1/2+z
loop_
_atom_site_type_symbol
_atom_site_label
_atom_site_fract_x
_atom_site_fract_y
_atom_site_fract_z
Si Si1 0.228643 0.939650 0.655773
Si Si2 0.399736 0.912870 0.038589
Si Si3 0.392351 0.392351 0.250000
Si Si4 0.000000 0.000000 0.750000
Si Si5 0.468186 0.348628 0.562289
Si Si6 0.161848 0.319193 0.158196
O O1 0.108662 0.002240 0.678733
O O2 0.304659 0.928610 0.753827
O O3 0.208258 0.806766 0.618208
O O4 0.283823 0.029289 0.580669
O O5 0.427918 0.783837 0.077647
O O6 0.500000 0.000000 0.070230
O O7 0.387229 0.908169 0.923371
O O8 0.396789 0.497314 0.329987
O O9 0.271484 0.397312 0.190320
O O10 0.362367 0.424714 0.515529
#
# Coordination Sequence:
#
# PCOD8310114 Si02
#       6
#     8   8   4   2   8   8
#     4   9  21  41  64  96 135 169 216 281 342 400
#     4  12  24  40  71 100 135 173 235 271 335 423
#     4  10  19  45  68  84 136 180 216 295 340 379
#     4   8  18  44  66  98 128 176 222 264 346 426
#     4  11  25  45  66  98 134 179 237 283 343 404
#     4   9  20  40  66  94 135 175 215 280 349 388
#
# _framework density 20.945910000000001
#
# number of rings (size 3 to 8) (size 9 to 14) (size 15 to 20)
#    0.000    2.316    2.105    2.526    0.000    7.579 
#    0.000    3.158    0.000    0.000    0.000    0.000 
#    0.000    0.000    0.000    0.000    0.000    0.000 
#
# Total GULP energy -470882.049983 kJ/mol
# GULP energy per Si atom -12391.632894 kJ/mol
# Density = 2.089824 g / cm^3
# Si number density = 20.945910 Si / 1000 Ang^3
#
#
#
# Elastic Constant Matrix: (Units=GPa)
#
#
# Indices 1 2 3 4 5 6 
#
# 1 55.4328 20.3329 7.0899 0.0000 0.0000 0.0000
# 2 20.3329 55.4328 7.0899 0.0000 0.0000 0.0000
# 3 7.0899 7.0899 88.9557 0.0000 0.0000 0.0000
# 4 0.0000 0.0000 0.0000 28.8576 0.0000 0.0000
# 5 0.0000 0.0000 0.0000 0.0000 28.8576 0.0000
# 6 0.0000 0.0000 0.0000 0.0000 0.0000 41.8331
#
#
#
# Elastic Compliance Matrix: (Units=1/GPa)
#
#
# Indices 1 2 3 4 5 6 
#
# 1 0.020944 -0.007546 -0.001068 0.000000 0.000000 0.000000
# 2 -0.007546 0.020944 -0.001068 0.000000 0.000000 0.000000
# 3 -0.001068 -0.001068 0.011412 0.000000 0.000000 0.000000
# 4 0.000000 0.000000 0.000000 0.034653 0.000000 0.000000
# 5 0.000000 0.000000 0.000000 0.000000 0.034653 0.000000
# 6 0.000000 0.000000 0.000000 0.000000 0.000000 0.023905
#
#
# Mechanical properties :
#
#
# Convention : Reuss Voigt Hill
#
# Bulk Modulus (GPa) = 29.46625 29.87187 29.66906
# Shear Modulus (GPa) = 28.21889 30.93021 29.57455
#
# Velocity S-wave (km/s) = 3.67444 3.84692 3.76167
# Velocity P-wave (km/s) = 5.66572 5.83302 5.74997
#
# Compressibility (1/GPa) = 0.03393713
#
# Stress axis : x y z
#
# Youngs Moduli (GPa) = 47.74579 47.74579 87.62876
#
# Poissons Ratio (x) = 0.36028 0.09358
# Poissons Ratio (y) = 0.36028 0.09358
# Poissons Ratio (z) = 0.05099 0.05099
#
# Static dielectric constant tensor:
#      x y z
#    x 3.712390 0.000000 0.000000 
#    y 0.000000 3.712390 0.000000 
#    z 0.000000 0.000000 3.806210 
# 
# 
# High freq. dielectric constant tensor:
#      x y z
#    x 1.814880 0.000000 0.000000 
#    y 0.000000 1.814880 0.000000 
#    z 0.000000 0.000000 1.819860 
# 
# From -- ./inp_files/2635.got.cif
#   From: 2010.03.12/outbox.cif.g09.slc.cpg/sg116_2_cif.got.tgz:2635.got - 2010.04.14 02:15:44.
