data_PCOD8310825
_publ_section_title
;
Structure prediction by ZEFSAII (Michael W. Deem and Ramdas Pophale) SiO2 
 PCOD8310825
Probable space group: I -4 M 2
;
_chemical_formula_sum "Si O2"
_cell_formula_units_Z 112
_cell_length_a 14.211930
_cell_length_b 14.211930
_cell_length_c 27.008805
_cell_angle_alpha 90.000000
_cell_angle_beta 90.000000
_cell_angle_gamma 90.000000
_cell_volume 5455.210191
_symmetry_space_group_name_H-M "I -4 M 2"
_symmetry_group_IT_number 119
_symmetry_cell_setting 'tetragonal'
loop_
_space_group_symop_operation_xyz
x,y,z
y,-x,-z
-x,-y,z
-y,x,-z
y,x,-z
-y,-x,-z
-x,y,z
x,-y,z
1/2+x,1/2+y,1/2+z
1/2+y,1/2-x,1/2-z
1/2-x,1/2-y,1/2+z
1/2-y,1/2+x,1/2-z
1/2+y,1/2+x,1/2-z
1/2-y,1/2-x,1/2-z
1/2-x,1/2+y,1/2+z
1/2+x,1/2-y,1/2+z
loop_
_atom_site_type_symbol
_atom_site_label
_atom_site_fract_x
_atom_site_fract_y
_atom_site_fract_z
Si Si1 0.605448 0.611091 0.265950
Si Si2 0.389221 0.215504 0.791400
Si Si3 0.394751 0.604803 0.941212
Si Si4 0.102654 0.611476 0.696621
Si Si5 0.763126 0.272299 0.443143
Si Si6 0.390253 0.722702 0.363731
Si Si7 0.390058 0.107639 0.887133
O O1 0.500000 0.645726 0.251536
O O2 0.608686 0.500000 0.272415
O O3 0.677647 0.643396 0.222366
O O4 0.636336 0.653083 0.318803
O O5 0.500000 0.208544 0.793070
O O6 0.356016 0.143985 0.750000
O O7 0.351095 0.178133 0.844141
O O8 0.500000 0.633121 0.921928
O O9 0.369508 0.500000 0.921522
O O10 0.316317 0.678515 0.922852
O O11 0.395729 0.604272 0.000000
O O12 0.094724 0.500000 0.701574
O O13 0.145000 0.645000 0.750000
O O14 0.172346 0.638733 0.652766
O O15 0.000000 0.655468 0.685034
O O16 0.735101 0.264900 0.500000
O O17 0.669293 0.297338 0.412689
O O18 0.835183 0.359907 0.436561
O O19 0.500000 0.713292 0.377384
O O20 0.500000 0.119441 0.897168
O O21 0.365677 0.000000 0.873545
#
# Coordination Sequence:
#
# PCOD8310825 Si02
#       7
#    16  16  16  16  16  16  16
#     4   9  19  37  59  81 109 146 184 225 277 338
#     4  10  19  32  55  87 119 149 185 230 284 351
#     4   8  15  31  55  79 102 131 174 233 298 358
#     4   8  15  30  51  74 103 137 169 206 258 322
#     4  11  23  37  56  79 108 150 200 250 292 338
#     4  10  21  35  52  78 110 146 189 235 283 335
#     4  10  22  40  61  86 117 151 187 233 293 354
#
# _framework density 20.530830999999999
#
# number of rings (size 3 to 8) (size 9 to 14) (size 15 to 20)
#    0.000    2.571    0.000    2.571    0.000    5.857 
#    0.000    0.714    0.000    4.286    0.000    1.000 
#    0.000    0.000    0.000    0.000    0.000    0.000 
#
# Total GULP energy -694084.182974 kJ/mol
# GULP energy per Si atom -12394.360410 kJ/mol
# Density = 2.048410 g / cm^3
# Si number density = 20.530831 Si / 1000 Ang^3
#
#
#
# Elastic Constant Matrix: (Units=GPa)
#
#
# Indices 1 2 3 4 5 6 
#
# 1 68.8155 62.5811 51.3928 0.0000 0.0000 0.0000
# 2 62.5811 68.8224 51.3921 0.0000 0.0000 0.0000
# 3 51.3928 51.3921 100.0619 0.0000 0.0000 0.0000
# 4 0.0000 0.0000 0.0000 28.4995 0.0000 0.0000
# 5 0.0000 0.0000 0.0000 0.0000 28.4995 0.0000
# 6 0.0000 0.0000 0.0000 0.0000 0.0000 28.1279
#
#
#
# Elastic Compliance Matrix: (Units=1/GPa)
#
#
# Indices 1 2 3 4 5 6 
#
# 1 0.086524 -0.073795 -0.006538 0.000000 0.000000 0.000000
# 2 -0.073795 0.086508 -0.006529 0.000000 0.000000 0.000000
# 3 -0.006538 -0.006529 0.016705 0.000000 0.000000 0.000000
# 4 0.000000 0.000000 0.000000 0.035088 0.000000 0.000000
# 5 0.000000 0.000000 0.000000 0.000000 0.035088 0.000000
# 6 0.000000 0.000000 0.000000 0.000000 0.000000 0.035552
#
#
# Mechanical properties :
#
#
# Convention : Reuss Voigt Hill
#
# Bulk Modulus (GPa) = 62.44953 63.15909 62.80431
# Shear Modulus (GPa) = 10.53676 21.84764 16.19220
#
# Velocity S-wave (km/s) = 2.26789 3.26565 2.81139
# Velocity P-wave (km/s) = 6.11075 6.71187 6.41835
#
# Compressibility (1/GPa) = 0.01601293
#
# Stress axis : x y z
#
# Youngs Moduli (GPa) = 11.55746 11.55957 59.86128
#
# Poissons Ratio (x) = 0.85304 0.39139
# Poissons Ratio (y) = 0.85288 0.39083
# Poissons Ratio (z) = 0.07557 0.07547
#
# Static dielectric constant tensor:
#      x y z
#    x 3.911420 0.000000 0.000000 
#    y 0.000000 3.911410 0.000000 
#    z 0.000000 0.000000 3.460640 
# 
# 
# High freq. dielectric constant tensor:
#      x y z
#    x 1.807260 0.000000 0.000000 
#    y 0.000000 1.807260 0.000000 
#    z 0.000000 0.000000 1.769280 
# 
# From -- ./inp_files/9651.got.cif
#   From: 2010.03.12/outbox.cif.g09.slc.cpg/sg119_5_cif.got.tgz:9651.got - 2010.04.14 02:25:26.
