data_PCOD8310976
_publ_section_title
;
Structure prediction by ZEFSAII (Michael W. Deem and Ramdas Pophale) SiO2 
 PCOD8310976
Probable space group: I -4 M 2
;
_chemical_formula_sum "Si O2"
_cell_formula_units_Z 64
_cell_length_a 20.343496
_cell_length_b 20.343496
_cell_length_c 8.373737
_cell_angle_alpha 90.000000
_cell_angle_beta 90.000000
_cell_angle_gamma 90.000000
_cell_volume 3465.536620
_symmetry_space_group_name_H-M "I -4 M 2"
_symmetry_group_IT_number 119
_symmetry_cell_setting 'tetragonal'
loop_
_space_group_symop_operation_xyz
x,y,z
y,-x,-z
-x,-y,z
-y,x,-z
y,x,-z
-y,-x,-z
-x,y,z
x,-y,z
1/2+x,1/2+y,1/2+z
1/2+y,1/2-x,1/2-z
1/2-x,1/2-y,1/2+z
1/2-y,1/2+x,1/2-z
1/2+y,1/2+x,1/2-z
1/2-y,1/2-x,1/2-z
1/2-x,1/2+y,1/2+z
1/2+x,1/2-y,1/2+z
loop_
_atom_site_type_symbol
_atom_site_label
_atom_site_fract_x
_atom_site_fract_y
_atom_site_fract_z
Si Si1 0.808979 0.691021 0.750000
Si Si2 0.073091 0.795113 0.207924
Si Si3 0.071413 0.105128 0.669486
Si Si4 0.750885 0.575958 0.938150
Si Si5 0.696842 0.696842 0.500000
O O1 0.804772 0.622675 0.851059
O O2 0.749096 0.704493 0.635574
O O3 0.070039 0.873765 0.226484
O O4 0.093560 0.758576 0.373687
O O5 0.000000 0.771215 0.155824
O O6 0.124520 0.784999 0.066931
O O7 0.069504 0.069504 0.500000
O O8 0.088653 0.182206 0.650951
O O9 0.000000 0.096787 0.751185
O O10 0.773308 0.500000 0.920951
#
# Coordination Sequence:
#
# PCOD8310976 Si02
#       5
#     8  16  16  16   8
#     4  12  22  36  60  79 108 142 186 239 272 332
#     4  10  21  36  51  76 117 151 183 229 272 320
#     4   9  16  29  48  73 105 145 191 221 249 302
#     4   9  19  36  57  80 108 142 180 227 284 332
#     4  12  24  34  52  83 108 144 199 228 272 312
#
# _framework density 18.467558
#
# number of rings (size 3 to 8) (size 9 to 14) (size 15 to 20)
#    0.000    2.000    2.500    3.750    1.750    3.750 
#    0.000    0.000    0.000    0.375    0.000    0.000 
#    0.000    2.000    0.000    0.000    0.000    0.000 
#
# Total GULP energy -396470.204043 kJ/mol
# GULP energy per Si atom -12389.693876 kJ/mol
# Density = 1.842552 g / cm^3
# Si number density = 18.467558 Si / 1000 Ang^3
#
#
#
# Elastic Constant Matrix: (Units=GPa)
#
#
# Indices 1 2 3 4 5 6 
#
# 1 83.0600 51.6959 48.9045 0.0000 0.0000 0.0000
# 2 51.6959 83.0604 48.9039 0.0000 0.0000 0.0000
# 3 48.9045 48.9039 89.6874 0.0000 0.0000 0.0000
# 4 0.0000 0.0000 0.0000 42.0591 0.0000 0.0000
# 5 0.0000 0.0000 0.0000 0.0000 42.0586 0.0000
# 6 0.0000 0.0000 0.0000 0.0000 0.0000 23.8262
#
#
#
# Elastic Compliance Matrix: (Units=1/GPa)
#
#
# Indices 1 2 3 4 5 6 
#
# 1 0.022083 -0.009801 -0.006697 0.000000 0.000000 0.000000
# 2 -0.009801 0.022082 -0.006697 0.000000 0.000000 0.000000
# 3 -0.006697 -0.006697 0.018453 0.000000 0.000000 0.000000
# 4 0.000000 0.000000 0.000000 0.023776 0.000000 0.000000
# 5 0.000000 0.000000 0.000000 0.000000 0.023776 0.000000
# 6 0.000000 0.000000 0.000000 0.000000 0.000000 0.041971
#
#
# Mechanical properties :
#
#
# Convention : Reuss Voigt Hill
#
# Bulk Modulus (GPa) = 61.61869 61.64627 61.63248
# Shear Modulus (GPa) = 24.51708 28.67567 26.59637
#
# Velocity S-wave (km/s) = 3.64754 3.94478 3.79907
# Velocity P-wave (km/s) = 7.15386 7.36218 7.25877
#
# Compressibility (1/GPa) = 0.01622884
#
# Stress axis : x y z
#
# Youngs Moduli (GPa) = 45.28453 45.28526 54.19184
#
# Poissons Ratio (x) = 0.44384 0.36292
# Poissons Ratio (y) = 0.44383 0.36290
# Poissons Ratio (z) = 0.30327 0.30326
#
# Static dielectric constant tensor:
#      x y z
#    x 3.343870 0.000000 0.000000 
#    y 0.000000 3.343870 0.000000 
#    z 0.000000 0.000000 1.960300 
# 
# 
# High freq. dielectric constant tensor:
#      x y z
#    x 1.696890 0.000000 0.000000 
#    y 0.000000 1.696890 0.000000 
#    z 0.000000 0.000000 1.711940 
# 
# From -- ./inp_files/2331.got.cif
#   From: 2010.03.12/outbox.cif.g09.slc.cpg/sg119_2_cif.got.tgz:2331.got - 2010.04.14 02:25:26.
