data_PCOD8310353
_publ_section_title
;
Structure prediction by ZEFSAII (Michael W. Deem and Ramdas Pophale) SiO2 
 PCOD8310353
Probable space group: P -4 B 2
;
_chemical_formula_sum "Si O2"
_cell_formula_units_Z 28
_cell_length_a 14.203310
_cell_length_b 14.203310
_cell_length_c 6.756656
_cell_angle_alpha 90.000000
_cell_angle_beta 90.000000
_cell_angle_gamma 90.000000
_cell_volume 1363.047343
_symmetry_space_group_name_H-M "P -4 B 2"
_symmetry_group_IT_number 117
_symmetry_cell_setting 'tetragonal'
loop_
_space_group_symop_operation_xyz
x,y,z
y,-x,-z
-x,-y,z
-y,x,-z
1/2+y,1/2+x,-z
1/2-y,1/2-x,-z
1/2-x,1/2+y,z
1/2+x,1/2-y,z
loop_
_atom_site_type_symbol
_atom_site_label
_atom_site_fract_x
_atom_site_fract_y
_atom_site_fract_z
Si Si1 0.000000 0.500000 0.000000
Si Si2 0.819032 0.016418 0.755570
Si Si3 0.703142 0.356758 0.442477
Si Si4 0.941103 0.308867 0.912322
Si Si5 0.500000 0.500000 0.000000
O O1 0.996368 0.406676 0.859317
O O2 0.799951 0.110337 0.627063
O O3 0.824278 0.921809 0.626895
O O4 0.917802 0.036109 0.859504
O O5 0.740029 0.005042 0.921586
O O6 0.781756 0.281756 0.500000
O O7 0.743104 0.427577 0.276040
O O8 0.837784 0.337784 0.000000
#
# Coordination Sequence:
#
# PCOD8310353 Si02
#       5
#     2   8   8   8   2
#     4   8  20  44  70  92 128 182 210 282 334 412
#     4  12  25  43  68  99 136 182 229 290 347 424
#     4  12  25  44  69 103 137 179 235 293 351 426
#     4  10  22  47  67  94 139 176 224 281 349 412
#     4  12  24  46  64  96 142 184 220 286 356 404
#
# _framework density 20.542207999999999
#
# number of rings (size 3 to 8) (size 9 to 14) (size 15 to 20)
#    0.857    0.000    5.714    1.714    0.000    2.286 
#    2.571    5.000    0.000    0.000    0.000    0.000 
#    0.000    0.000    0.000    0.000    0.000    0.000 
#
# Total GULP energy -347081.978554 kJ/mol
# GULP energy per Si atom -12395.784948 kJ/mol
# Density = 2.049545 g / cm^3
# Si number density = 20.542208 Si / 1000 Ang^3
#
#
#
# Elastic Constant Matrix: (Units=GPa)
#
#
# Indices 1 2 3 4 5 6 
#
# 1 110.6960 37.8730 38.4777 0.0000 0.0000 0.0000
# 2 37.8730 110.6960 38.4777 0.0000 0.0000 0.0000
# 3 38.4777 38.4777 87.4478 0.0000 0.0000 0.0000
# 4 0.0000 0.0000 0.0000 27.0052 0.0000 0.0000
# 5 0.0000 0.0000 0.0000 0.0000 27.0052 0.0000
# 6 0.0000 0.0000 0.0000 0.0000 0.0000 42.9877
#
#
#
# Elastic Compliance Matrix: (Units=1/GPa)
#
#
# Indices 1 2 3 4 5 6 
#
# 1 0.011225 -0.002507 -0.003836 0.000000 0.000000 0.000000
# 2 -0.002507 0.011225 -0.003836 0.000000 0.000000 0.000000
# 3 -0.003836 -0.003836 0.014811 0.000000 0.000000 0.000000
# 4 0.000000 0.000000 0.000000 0.037030 0.000000 0.000000
# 5 0.000000 0.000000 0.000000 0.000000 0.037030 0.000000
# 6 0.000000 0.000000 0.000000 0.000000 0.000000 0.023262
#
#
# Mechanical properties :
#
#
# Convention : Reuss Voigt Hill
#
# Bulk Modulus (GPa) = 59.16094 59.83295 59.49694
# Shear Modulus (GPa) = 31.13812 32.33375 31.73593
#
# Velocity S-wave (km/s) = 3.89757 3.97169 3.93480
# Velocity P-wave (km/s) = 7.00835 7.08678 7.04767
#
# Compressibility (1/GPa) = 0.01690304
#
# Stress axis : x y z
#
# Youngs Moduli (GPa) = 89.08806 89.08806 67.51722
#
# Poissons Ratio (x) = 0.22335 0.25899
# Poissons Ratio (y) = 0.22335 0.25899
# Poissons Ratio (z) = 0.34173 0.34173
#
# Static dielectric constant tensor:
#      x y z
#    x 3.672990 0.000000 0.000000 
#    y 0.000000 3.672990 0.000000 
#    z 0.000000 0.000000 3.682690 
# 
# 
# High freq. dielectric constant tensor:
#      x y z
#    x 1.805990 0.000000 0.000000 
#    y 0.000000 1.805990 0.000000 
#    z 0.000000 0.000000 1.796010 
# 
# From -- ./inp_files/320.got.cif
#   From: 2010.03.12/outbox.cif.g09.slc.cpg/sg117_1_cif.got.tgz:320.got - 2010.04.14 02:19:01.
