data_PCOD8310347
_publ_section_title
;
Structure prediction by ZEFSAII (Michael W. Deem and Ramdas Pophale) SiO2 
 PCOD8310347
Probable space group: P -4 B 2
;
_chemical_formula_sum "Si O2"
_cell_formula_units_Z 34
_cell_length_a 16.288449
_cell_length_b 16.288449
_cell_length_c 6.379369
_cell_angle_alpha 90.000000
_cell_angle_beta 90.000000
_cell_angle_gamma 90.000000
_cell_volume 1692.533169
_symmetry_space_group_name_H-M "P -4 B 2"
_symmetry_group_IT_number 117
_symmetry_cell_setting 'tetragonal'
loop_
_space_group_symop_operation_xyz
x,y,z
y,-x,-z
-x,-y,z
-y,x,-z
1/2+y,1/2+x,-z
1/2-y,1/2-x,-z
1/2-x,1/2+y,z
1/2+x,1/2-y,z
loop_
_atom_site_type_symbol
_atom_site_label
_atom_site_fract_x
_atom_site_fract_y
_atom_site_fract_z
Si Si1 0.503742 0.286827 0.647197
Si Si2 0.504979 0.874793 0.414792
Si Si3 0.500000 0.500000 0.000000
Si Si4 0.293821 0.077079 0.950798
Si Si5 0.630604 0.417780 0.710674
O O1 0.524812 0.212726 0.495059
O O2 0.459320 0.247756 0.844826
O O3 0.588037 0.329224 0.715369
O O4 0.451677 0.358377 0.527728
O O5 0.439021 0.939021 0.500000
O O6 0.594012 0.905989 0.500000
O O7 0.515565 0.860899 0.162474
O O8 0.481207 0.420800 0.144449
O O9 0.337571 0.162430 0.000000
O O10 0.222061 0.097497 0.789806
#
# Coordination Sequence:
#
# PCOD8310347 Si02
#       5
#     8   8   2   8   8
#     4  11  23  43  64  96 130 175 218 282 335 407
#     4  10  22  42  66  95 128 172 226 277 328 405
#     4  12  20  42  64  96 126 180 232 286 332 408
#     4  11  23  43  67  93 135 177 216 276 352 400
#     4  11  24  39  66  94 133 171 227 275 341 405
#
# _framework density 20.088234
#
# number of rings (size 3 to 8) (size 9 to 14) (size 15 to 20)
#    0.000    1.176    4.706    1.412    0.000    0.941 
#    8.471    0.000    0.000    0.000    0.000    0.000 
#    0.000    0.000    0.000    0.000    0.000    0.000 
#
# Total GULP energy -421319.193261 kJ/mol
# GULP energy per Si atom -12391.740978 kJ/mol
# Density = 2.004251 g / cm^3
# Si number density = 20.088234 Si / 1000 Ang^3
#
#
#
# Elastic Constant Matrix: (Units=GPa)
#
#
# Indices 1 2 3 4 5 6 
#
# 1 108.6921 54.6402 52.2714 0.0000 0.0000 0.0000
# 2 54.6402 108.6912 52.2707 0.0000 0.0000 0.0000
# 3 52.2714 52.2707 133.5975 0.0000 0.0000 0.0000
# 4 0.0000 0.0000 0.0000 39.5304 0.0000 0.0000
# 5 0.0000 0.0000 0.0000 0.0000 39.5329 0.0000
# 6 0.0000 0.0000 0.0000 0.0000 0.0000 42.4339
#
#
#
# Elastic Compliance Matrix: (Units=1/GPa)
#
#
# Indices 1 2 3 4 5 6 
#
# 1 0.013334 -0.005166 -0.003196 0.000000 0.000000 0.000000
# 2 -0.005166 0.013334 -0.003196 0.000000 0.000000 0.000000
# 3 -0.003196 -0.003196 0.009986 0.000000 0.000000 0.000000
# 4 0.000000 0.000000 0.000000 0.025297 0.000000 0.000000
# 5 0.000000 0.000000 0.000000 0.000000 0.025295 0.000000
# 6 0.000000 0.000000 0.000000 0.000000 0.000000 0.023566
#
#
# Mechanical properties :
#
#
# Convention : Reuss Voigt Hill
#
# Bulk Modulus (GPa) = 73.86202 74.37171 74.11686
# Shear Modulus (GPa) = 36.11613 37.08600 36.60107
#
# Velocity S-wave (km/s) = 4.24474 4.30135 4.27314
# Velocity P-wave (km/s) = 7.80207 7.85950 7.83084
#
# Compressibility (1/GPa) = 0.01353876
#
# Stress axis : x y z
#
# Youngs Moduli (GPa) = 74.99383 74.99355 100.14088
#
# Poissons Ratio (x) = 0.38745 0.32003
# Poissons Ratio (y) = 0.38745 0.32003
# Poissons Ratio (z) = 0.23967 0.23966
#
# Static dielectric constant tensor:
#      x y z
#    x 3.899120 0.000000 0.000000 
#    y 0.000000 3.899090 0.000000 
#    z 0.000000 0.000000 4.126710 
# 
# 
# High freq. dielectric constant tensor:
#      x y z
#    x 1.780300 0.000000 0.000000 
#    y 0.000000 1.780300 0.000000 
#    z 0.000000 0.000000 1.801600 
# 
# From -- ./inp_files/507.got.cif
#   From: 2010.03.12/outbox.cif.g09.slc.cpg/sg117_1_cif.got.tgz:507.got - 2010.04.14 02:19:01.
