data_PCOD8310291
_publ_section_title
;
Structure prediction by ZEFSAII (Michael W. Deem and Ramdas Pophale) SiO2 
 PCOD8310291
Probable space group: P -4 B 2
;
_chemical_formula_sum "Si O2"
_cell_formula_units_Z 50
_cell_length_a 16.006236
_cell_length_b 16.006236
_cell_length_c 11.728293
_cell_angle_alpha 90.000000
_cell_angle_beta 90.000000
_cell_angle_gamma 90.000000
_cell_volume 3004.783868
_symmetry_space_group_name_H-M "P -4 B 2"
_symmetry_group_IT_number 117
_symmetry_cell_setting 'tetragonal'
loop_
_space_group_symop_operation_xyz
x,y,z
y,-x,-z
-x,-y,z
-y,x,-z
1/2+y,1/2+x,-z
1/2-y,1/2-x,-z
1/2-x,1/2+y,z
1/2+x,1/2-y,z
loop_
_atom_site_type_symbol
_atom_site_label
_atom_site_fract_x
_atom_site_fract_y
_atom_site_fract_z
Si Si1 0.878729 0.757948 0.821903
Si Si2 0.355591 0.283658 0.997645
Si Si3 0.124796 0.948622 0.364089
Si Si4 0.268023 0.357929 0.803002
Si Si5 0.000000 0.500000 0.000000
Si Si6 0.686011 0.022624 0.980013
Si Si7 0.372191 0.451390 0.626098
O O1 0.852707 0.832587 0.907643
O O2 0.930232 0.797300 0.717679
O O3 0.795974 0.715632 0.767009
O O4 0.935849 0.691415 0.893036
O O5 0.446259 0.249555 0.023540
O O6 0.290321 0.209680 0.000000
O O7 0.349619 0.323747 0.870812
O O8 0.153054 0.940049 0.494827
O O9 0.048810 0.883863 0.341703
O O10 0.095684 0.042758 0.342732
O O11 0.214322 0.412071 0.888362
O O12 0.295876 0.411490 0.695092
O O13 0.001636 0.591468 0.059768
#
# Coordination Sequence:
#
# PCOD8310291 Si02
#       7
#     8   8   8   8   2   8   8
#     4  10  19  31  46  74  98 125 157 200 236 285
#     4   9  18  29  46  66  97 127 157 193 240 269
#     4   9  18  33  52  71  92 122 160 199 243 291
#     4  10  19  31  46  74  98 125 157 200 236 285
#     4  12  20  32  48  72  94 136 168 184 220 282
#     4  11  19  33  49  70 100 128 164 192 229 288
#     4   9  18  33  52  71  92 122 160 199 243 291
#
# _framework density 16.640132999999999
#
# number of rings (size 3 to 8) (size 9 to 14) (size 15 to 20)
#    0.000    2.240    2.400    3.840    0.000    0.640 
#    0.000    0.000    0.000    7.680    0.000    1.120 
#    0.000    0.000    0.000    0.000    0.000    0.000 
#
# Total GULP energy -619525.527744 kJ/mol
# GULP energy per Si atom -12390.510555 kJ/mol
# Density = 1.660226 g / cm^3
# Si number density = 16.640133 Si / 1000 Ang^3
#
#
#
# Elastic Constant Matrix: (Units=GPa)
#
#
# Indices 1 2 3 4 5 6 
#
# 1 60.2928 14.6788 25.5764 0.0000 0.0000 0.0000
# 2 14.6788 60.2933 25.5773 0.0000 0.0000 0.0000
# 3 25.5764 25.5773 76.6039 0.0000 0.0000 0.0000
# 4 0.0000 0.0000 0.0000 -4.2133 0.0000 0.0000
# 5 0.0000 0.0000 0.0000 0.0000 -4.2133 0.0000
# 6 0.0000 0.0000 0.0000 0.0000 0.0000 29.0834
#
#
#
# Elastic Compliance Matrix: (Units=1/GPa)
#
#
# Indices 1 2 3 4 5 6 
#
# 1 0.019598 -0.002325 -0.005767 0.000000 0.000000 0.000000
# 2 -0.002325 0.019598 -0.005767 0.000000 0.000000 0.000000
# 3 -0.005767 -0.005767 0.016905 0.000000 0.000000 0.000000
# 4 0.000000 0.000000 0.000000 -0.237345 0.000000 0.000000
# 5 0.000000 0.000000 0.000000 0.000000 -0.237344 0.000000
# 6 0.000000 0.000000 0.000000 0.000000 0.000000 0.034384
#
#
# Mechanical properties :
#
#
# Convention : Reuss Voigt Hill
#
# Bulk Modulus (GPa) = 35.23243 36.53944 35.88593
# Shear Modulus (GPa) = -14.40823 12.88854 -0.75985
#
# Velocity S-wave (km/s) = -2.94576 2.78609 -0.67648
# Velocity P-wave (km/s) = 3.10630 5.68823 4.58285
#
# Compressibility (1/GPa) = 0.02838294
#
# Stress axis : x y z
#
# Youngs Moduli (GPa) = 51.02523 51.02512 59.15277
#
# Poissons Ratio (x) = 0.11862 0.34114
# Poissons Ratio (y) = 0.11862 0.34116
# Poissons Ratio (z) = 0.29427 0.29428
#
# Static dielectric constant tensor:
#      x y z
#    x 3.919620 0.000000 0.000000 
#    y 0.000000 3.919330 0.000000 
#    z 0.000000 0.000000 3.016740 
# 
# 
# High freq. dielectric constant tensor:
#      x y z
#    x 1.642330 0.000000 0.000000 
#    y 0.000000 1.642320 0.000000 
#    z 0.000000 0.000000 1.619140 
# 
# From -- ./inp_files/2803.got.cif
#   From: 2010.03.12/outbox.cif.g09.slc.cpg/sg117_2_cif.got.tgz:2803.got - 2010.04.14 02:19:01.
