data_PCOD8310242
_publ_section_title
;
Structure prediction by ZEFSAII (Michael W. Deem and Ramdas Pophale) SiO2 
 PCOD8310242
Probable space group: P -4 C 2
;
_chemical_formula_sum "Si O2"
_cell_formula_units_Z 36
_cell_length_a 9.433867
_cell_length_b 9.433867
_cell_length_c 20.426367
_cell_angle_alpha 90.000000
_cell_angle_beta 90.000000
_cell_angle_gamma 90.000000
_cell_volume 1817.902676
_symmetry_space_group_name_H-M "P -4 C 2"
_symmetry_group_IT_number 116
_symmetry_cell_setting 'tetragonal'
loop_
_space_group_symop_operation_xyz
x,y,z
y,-x,-z
-x,-y,z
-y,x,-z
y,x,1/2-z
-y,-x,1/2-z
-x,y,1/2+z
x,-y,1/2+z
loop_
_atom_site_type_symbol
_atom_site_label
_atom_site_fract_x
_atom_site_fract_y
_atom_site_fract_z
Si Si1 0.005855 0.224705 0.233006
Si Si2 0.000000 0.500000 0.518115
Si Si3 0.000000 0.000000 0.500000
Si Si4 0.577529 0.221149 0.080225
Si Si5 0.500000 0.500000 0.000000
Si Si6 0.105641 0.753437 0.093776
Si Si7 0.500000 0.000000 0.180011
O O1 0.158386 0.158386 0.250000
O O2 0.998862 0.250749 0.155546
O O3 0.984735 0.365997 0.273657
O O4 0.881941 0.118060 0.250000
O O5 0.892267 0.402484 0.477477
O O6 0.903324 0.602657 0.559832
O O7 0.880148 0.064563 0.453971
O O8 0.511222 0.365008 0.049350
O O9 0.729905 0.239868 0.114199
O O10 0.480299 0.143205 0.135545
#
# Coordination Sequence:
#
# PCOD8310242 Si02
#       7
#     8   4   2   8   2   8   4
#     4  11  24  44  68  95 130 179 229 273 326 395
#     4  11  23  38  64  98 129 171 212 268 340 397
#     4  12  24  36  70 100 128 164 216 278 340 392
#     4  11  24  41  68  96 140 172 216 279 337 396
#     4  12  24  44  68 106 140 176 224 278 348 408
#     4  12  23  41  66  99 131 169 222 277 334 394
#     4  11  25  48  66  98 137 181 228 276 332 397
#
# _framework density 19.803042000000001
#
# number of rings (size 3 to 8) (size 9 to 14) (size 15 to 20)
#    0.000    0.667    6.667    2.000    0.000    1.778 
#    4.000    0.000    0.000    0.000    0.000    0.000 
#    0.000    0.000    0.000    0.000    0.000    0.000 
#
# Total GULP energy -446273.261810 kJ/mol
# GULP energy per Si atom -12396.479495 kJ/mol
# Density = 1.975797 g / cm^3
# Si number density = 19.803042 Si / 1000 Ang^3
#
#
#
# Elastic Constant Matrix: (Units=GPa)
#
#
# Indices 1 2 3 4 5 6 
#
# 1 98.5208 23.7275 33.1367 0.0000 0.0000 0.0000
# 2 23.7275 98.5214 33.1369 0.0000 0.0000 0.0000
# 3 33.1367 33.1369 106.5913 0.0000 0.0000 0.0000
# 4 0.0000 0.0000 0.0000 -11.3052 0.0000 0.0000
# 5 0.0000 0.0000 0.0000 0.0000 -11.3179 0.0000
# 6 0.0000 0.0000 0.0000 0.0000 0.0000 27.2448
#
#
#
# Elastic Compliance Matrix: (Units=1/GPa)
#
#
# Indices 1 2 3 4 5 6 
#
# 1 0.011604 -0.001766 -0.003058 0.000000 0.000000 0.000000
# 2 -0.001766 0.011604 -0.003058 0.000000 0.000000 0.000000
# 3 -0.003058 -0.003058 0.011283 0.000000 0.000000 0.000000
# 4 0.000000 0.000000 0.000000 -0.088455 0.000000 0.000000
# 5 0.000000 0.000000 0.000000 0.000000 -0.088356 0.000000
# 6 0.000000 0.000000 0.000000 0.000000 0.000000 0.036704
#
#
# Mechanical properties :
#
#
# Convention : Reuss Voigt Hill
#
# Bulk Modulus (GPa) = 53.40264 53.73730 53.56997
# Shear Modulus (GPa) = -59.80338 15.16650 -22.31844
#
# Velocity S-wave (km/s) = -5.50133 2.77043 -3.36076
# Velocity P-wave (km/s) = 3.65068 6.11789 3.47139
#
# Compressibility (1/GPa) = 0.01872567
#
# Stress axis : x y z
#
# Youngs Moduli (GPa) = 86.17604 86.17655 88.62713
#
# Poissons Ratio (x) = 0.15219 0.27106
# Poissons Ratio (y) = 0.15219 0.27106
# Poissons Ratio (z) = 0.26356 0.26357
#
# Static dielectric constant tensor:
#      x y z
#    x 3.713690 0.000000 0.000000 
#    y 0.000000 3.713700 0.000000 
#    z 0.000000 0.000000 3.834430 
# 
# 
# High freq. dielectric constant tensor:
#      x y z
#    x 1.775270 0.000000 0.000000 
#    y 0.000000 1.775270 0.000000 
#    z 0.000000 0.000000 1.778210 
# 
# From -- ./inp_files/3984.got.cif
#   From: 2010.03.12/outbox.cif.g09.slc.cpg/sg116_2_cif.got.tgz:3984.got - 2010.04.14 02:15:44.
