data_PCOD8310180
_publ_section_title
;
Structure prediction by ZEFSAII (Michael W. Deem and Ramdas Pophale) SiO2 
 PCOD8310180
Probable space group: P -4 C 2
;
_chemical_formula_sum "Si O2"
_cell_formula_units_Z 34
_cell_length_a 8.117556
_cell_length_b 8.117556
_cell_length_c 26.540691
_cell_angle_alpha 90.000000
_cell_angle_beta 90.000000
_cell_angle_gamma 90.000000
_cell_volume 1748.891280
_symmetry_space_group_name_H-M "P -4 C 2"
_symmetry_group_IT_number 116
_symmetry_cell_setting 'tetragonal'
loop_
_space_group_symop_operation_xyz
x,y,z
y,-x,-z
-x,-y,z
-y,x,-z
y,x,1/2-z
-y,-x,1/2-z
-x,y,1/2+z
x,-y,1/2+z
loop_
_atom_site_type_symbol
_atom_site_label
_atom_site_fract_x
_atom_site_fract_y
_atom_site_fract_z
Si Si1 0.310162 0.317279 0.400114
Si Si2 0.000000 0.000000 0.250000
Si Si3 0.000000 0.819166 0.153194
Si Si4 0.310162 0.317279 0.900114
Si Si5 0.185000 0.815000 0.500000
O O1 0.500000 0.304097 0.413489
O O2 0.267872 0.500000 0.377354
O O3 0.215430 0.303175 0.452854
O O4 0.269704 0.169964 0.361578
O O5 0.000000 0.837910 0.214164
O O6 0.169964 0.730297 0.138422
O O7 0.000000 0.000000 0.126977
O O8 0.215430 0.303175 0.952854
O O9 1.000000 0.786331 0.520035
#
# Coordination Sequence:
#
# PCOD8310180 Si02
#       5
#     8   2   8   8   8
#     4  11  23  38  60  93 132 170 208 253 308 374
#     4   8  24  44  68  90 112 148 208 264 328 382
#     4  10  21  43  65  89 115 156 211 258 321 377
#     4  11  23  38  60  93 132 170 208 253 308 374
#     4  11  22  35  56  92 130 171 215 252 300 366
#
# _framework density 19.440888999999999
#
# number of rings (size 3 to 8) (size 9 to 14) (size 15 to 20)
#    0.706    0.706    2.353    3.529    0.000    7.529 
#    0.000    4.706    0.000    2.824    0.000    0.000 
#    0.000    0.000    0.000    0.000    0.000    0.000 
#
# Total GULP energy -421388.450519 kJ/mol
# GULP energy per Si atom -12393.777956 kJ/mol
# Density = 1.939664 g / cm^3
# Si number density = 19.440889 Si / 1000 Ang^3
#
#
#
# Elastic Constant Matrix: (Units=GPa)
#
#
# Indices 1 2 3 4 5 6 
#
# 1 126.7679 52.3079 36.1494 0.0000 0.0000 0.0000
# 2 52.3079 126.7679 36.1494 0.0000 0.0000 0.0000
# 3 36.1494 36.1494 105.4331 0.0000 0.0000 0.0000
# 4 0.0000 0.0000 0.0000 18.5478 0.0000 0.0000
# 5 0.0000 0.0000 0.0000 0.0000 18.5478 0.0000
# 6 0.0000 0.0000 0.0000 0.0000 0.0000 32.1597
#
#
#
# Elastic Compliance Matrix: (Units=1/GPa)
#
#
# Indices 1 2 3 4 5 6 
#
# 1 0.009956 -0.003474 -0.002222 0.000000 0.000000 0.000000
# 2 -0.003474 0.009956 -0.002222 0.000000 0.000000 0.000000
# 3 -0.002222 -0.002222 0.011009 0.000000 0.000000 0.000000
# 4 0.000000 0.000000 0.000000 0.053915 0.000000 0.000000
# 5 0.000000 0.000000 0.000000 0.000000 0.053915 0.000000
# 6 0.000000 0.000000 0.000000 0.000000 0.000000 0.031095
#
#
# Mechanical properties :
#
#
# Convention : Reuss Voigt Hill
#
# Bulk Modulus (GPa) = 66.30256 67.57582 66.93919
# Shear Modulus (GPa) = 26.21787 29.47519 27.84653
#
# Velocity S-wave (km/s) = 3.67630 3.89799 3.78877
# Velocity P-wave (km/s) = 7.22489 7.42255 7.32439
#
# Compressibility (1/GPa) = 0.01508237
#
# Stress axis : x y z
#
# Youngs Moduli (GPa) = 100.44467 100.44467 90.83836
#
# Poissons Ratio (x) = 0.34897 0.20187
# Poissons Ratio (y) = 0.34897 0.20187
# Poissons Ratio (z) = 0.22321 0.22321
#
# Static dielectric constant tensor:
#      x y z
#    x 3.670330 0.000000 0.000000 
#    y 0.000000 3.670330 0.000000 
#    z 0.000000 0.000000 3.130700 
# 
# 
# High freq. dielectric constant tensor:
#      x y z
#    x 1.766590 0.000000 0.000000 
#    y 0.000000 1.766590 0.000000 
#    z 0.000000 0.000000 1.721090 
# 
# From -- ./inp_files/4777.got.cif
#   From: 2010.03.12/outbox.cif.g09.slc.cpg/sg116_3_cif.got.tgz:4777.got - 2010.04.14 02:15:44.
