data_PCOD8310894
_publ_section_title
;
Structure prediction by ZEFSAII (Michael W. Deem and Ramdas Pophale) SiO2 
 PCOD8310894
Probable space group: I -4 M 2
;
_chemical_formula_sum "Si O2"
_cell_formula_units_Z 112
_cell_length_a 13.978738
_cell_length_b 13.978738
_cell_length_c 31.160888
_cell_angle_alpha 90.000000
_cell_angle_beta 90.000000
_cell_angle_gamma 90.000000
_cell_volume 6088.996937
_symmetry_space_group_name_H-M "I -4 M 2"
_symmetry_group_IT_number 119
_symmetry_cell_setting 'tetragonal'
loop_
_space_group_symop_operation_xyz
x,y,z
y,-x,-z
-x,-y,z
-y,x,-z
y,x,-z
-y,-x,-z
-x,y,z
x,-y,z
1/2+x,1/2+y,1/2+z
1/2+y,1/2-x,1/2-z
1/2-x,1/2-y,1/2+z
1/2-y,1/2+x,1/2-z
1/2+y,1/2+x,1/2-z
1/2-y,1/2-x,1/2-z
1/2-x,1/2+y,1/2+z
1/2+x,1/2-y,1/2+z
loop_
_atom_site_type_symbol
_atom_site_label
_atom_site_fract_x
_atom_site_fract_y
_atom_site_fract_z
Si Si1 0.886963 0.605035 0.796246
Si Si2 0.207965 0.611236 0.134233
Si Si3 0.603938 0.887569 0.547522
Si Si4 0.611166 0.888369 0.453231
Si Si5 0.391501 0.795326 0.711166
Si Si6 0.889479 0.108779 0.840454
Si Si7 0.784898 0.303429 0.625262
O O1 0.842262 0.500000 0.804665
O O2 0.852664 0.647337 0.750000
O O3 0.859703 0.671894 0.835067
O O4 0.000000 0.596666 0.793979
O O5 0.241285 0.500000 0.137895
O O6 0.171402 0.638083 0.086779
O O7 0.129735 0.635311 0.170474
O O8 0.292334 0.690106 0.137903
O O9 0.500000 0.840708 0.555843
O O10 0.643240 0.853632 0.500928
O O11 0.590225 0.000000 0.544445
O O12 0.500000 0.863445 0.445088
O O13 0.678539 0.835639 0.419537
O O14 0.628968 0.000000 0.446721
O O15 0.500000 0.815886 0.725512
O O16 0.320806 0.820806 0.750000
O O17 0.377918 0.682556 0.700238
O O18 0.846581 0.176837 0.877920
O O19 0.000000 0.134096 0.827892
O O20 0.883721 0.000000 0.857410
#
# Coordination Sequence:
#
# PCOD8310894 Si02
#       7
#    16  16  16  16  16  16  16
#     4   9  18  33  54  80 106 129 156 197 254 314
#     4  10  21  34  47  66  98 139 176 207 244 292
#     4   8  15  30  51  73  98 127 159 201 255 307
#     4   9  17  30  52  82 106 121 150 204 263 309
#     4  10  20  33  53  79 100 123 164 217 262 294
#     4   9  19  35  51  70 101 139 172 197 233 298
#     4  11  20  30  51  76 101 132 168 206 248 289
#
# _framework density 18.393833999999998
#
# number of rings (size 3 to 8) (size 9 to 14) (size 15 to 20)
#    0.000    2.571    0.000    3.857    0.000    6.143 
#    0.000    0.000    0.000    5.143    0.000    1.000 
#    0.000   21.714    0.000    0.000    0.000    0.000 
#
# Total GULP energy -693748.284106 kJ/mol
# GULP energy per Si atom -12388.362216 kJ/mol
# Density = 1.835197 g / cm^3
# Si number density = 18.393834 Si / 1000 Ang^3
#
#
#
# Elastic Constant Matrix: (Units=GPa)
#
#
# Indices 1 2 3 4 5 6 
#
# 1 73.1127 23.2885 26.0501 0.0000 0.0000 0.0000
# 2 23.2885 73.1130 26.0502 0.0000 0.0000 0.0000
# 3 26.0501 26.0502 105.5960 0.0000 0.0000 0.0000
# 4 0.0000 0.0000 0.0000 9.6929 0.0000 0.0000
# 5 0.0000 0.0000 0.0000 0.0000 9.6936 0.0000
# 6 0.0000 0.0000 0.0000 0.0000 0.0000 21.0716
#
#
#
# Elastic Compliance Matrix: (Units=1/GPa)
#
#
# Indices 1 2 3 4 5 6 
#
# 1 0.016020 -0.004051 -0.002953 0.000000 0.000000 0.000000
# 2 -0.004051 0.016020 -0.002953 0.000000 0.000000 0.000000
# 3 -0.002953 -0.002953 0.010927 0.000000 0.000000 0.000000
# 4 0.000000 0.000000 0.000000 0.103168 0.000000 0.000000
# 5 0.000000 0.000000 0.000000 0.000000 0.103161 0.000000
# 6 0.000000 0.000000 0.000000 0.000000 0.000000 0.047457
#
#
# Mechanical properties :
#
#
# Convention : Reuss Voigt Hill
#
# Bulk Modulus (GPa) = 43.37606 44.73325 44.05465
# Shear Modulus (GPa) = 15.41545 19.85382 17.63463
#
# Velocity S-wave (km/s) = 2.89810 3.28895 3.09969
# Velocity P-wave (km/s) = 5.90184 6.22859 6.06741
#
# Compressibility (1/GPa) = 0.02305419
#
# Stress axis : x y z
#
# Youngs Moduli (GPa) = 62.42267 62.42290 91.51717
#
# Poissons Ratio (x) = 0.25286 0.27023
# Poissons Ratio (y) = 0.25285 0.27023
# Poissons Ratio (z) = 0.18432 0.18432
#
# Static dielectric constant tensor:
#      x y z
#    x 3.510010 0.000000 0.000000 
#    y 0.000000 3.510020 0.000000 
#    z 0.000000 0.000000 3.592180 
# 
# 
# High freq. dielectric constant tensor:
#      x y z
#    x 1.699020 0.000000 0.000000 
#    y 0.000000 1.699010 0.000000 
#    z 0.000000 0.000000 1.714150 
# 
# From -- ./inp_files/9598.got.cif
#   From: 2010.03.12/outbox.cif.g09.slc.cpg/sg119_5_cif.got.tgz:9598.got - 2010.04.14 02:25:26.
