data_PCOD8310342
_publ_section_title
;
Structure prediction by ZEFSAII (Michael W. Deem and Ramdas Pophale) SiO2 
 PCOD8310342
Probable space group: P -4 B 2
;
_chemical_formula_sum "Si O2"
_cell_formula_units_Z 42
_cell_length_a 9.813281
_cell_length_b 9.813281
_cell_length_c 19.391777
_cell_angle_alpha 90.000000
_cell_angle_beta 90.000000
_cell_angle_gamma 90.000000
_cell_volume 1867.437510
_symmetry_space_group_name_H-M "P -4 B 2"
_symmetry_group_IT_number 117
_symmetry_cell_setting 'tetragonal'
loop_
_space_group_symop_operation_xyz
x,y,z
y,-x,-z
-x,-y,z
-y,x,-z
1/2+y,1/2+x,-z
1/2-y,1/2-x,-z
1/2-x,1/2+y,z
1/2+x,1/2-y,z
loop_
_atom_site_type_symbol
_atom_site_label
_atom_site_fract_x
_atom_site_fract_y
_atom_site_fract_z
Si Si1 0.575532 0.261592 0.422597
Si Si2 0.000000 0.500000 0.000000
Si Si3 0.500000 0.500000 0.000000
Si Si4 0.029839 0.759287 0.906275
Si Si5 0.154806 0.654806 0.500000
Si Si6 0.279161 0.280809 0.188304
Si Si7 0.017052 0.336976 0.272253
Si Si8 0.000000 0.000000 0.500000
O O1 0.727742 0.313652 0.441940
O O2 0.498530 0.146888 0.467702
O O3 0.572986 0.224837 0.342994
O O4 0.469219 0.379959 0.445825
O O5 0.013834 0.368599 0.951800
O O6 0.427445 0.383439 0.955240
O O7 0.157825 0.710279 0.863835
O O8 0.915440 0.817937 0.854234
O O9 0.126960 0.302479 0.214669
O O10 0.380524 0.245131 0.251556
O O11 0.000000 0.500000 0.278255
#
# Coordination Sequence:
#
# PCOD8310342 Si02
#       8
#     8   2   2   8   4   8   8   2
#     4  10  22  40  65  92 133 168 229 278 348 409
#     4  12  24  44  72 108 140 176 224 294 336 408
#     4  12  24  40  66 104 128 184 228 270 352 412
#     4  12  24  44  69 102 140 179 229 283 345 409
#     4  10  22  40  64  98 126 176 216 292 346 402
#     4  12  25  47  70 101 141 188 228 286 344 404
#     4  12  26  46  68 105 137 189 236 286 337 422
#     4   8  20  44  62  96 124 176 220 294 348 404
#
# _framework density 22.490713
#
# number of rings (size 3 to 8) (size 9 to 14) (size 15 to 20)
#    0.000    0.762    1.905    5.714    2.667    1.524 
#    6.857    0.000    0.000    0.000    0.000    0.000 
#    0.000    0.000    0.000    0.000    0.000    0.000 
#
# Total GULP energy -520338.597385 kJ/mol
# GULP energy per Si atom -12389.014223 kJ/mol
# Density = 2.243952 g / cm^3
# Si number density = 22.490713 Si / 1000 Ang^3
#
#
#
# Elastic Constant Matrix: (Units=GPa)
#
#
# Indices 1 2 3 4 5 6 
#
# 1 72.3653 10.0940 34.8962 0.0000 0.0000 0.0000
# 2 10.0940 72.3653 34.8962 0.0000 0.0000 0.0000
# 3 34.8962 34.8962 122.2809 0.0000 0.0000 0.0000
# 4 0.0000 0.0000 0.0000 15.9929 0.0000 0.0000
# 5 0.0000 0.0000 0.0000 0.0000 15.9929 0.0000
# 6 0.0000 0.0000 0.0000 0.0000 0.0000 31.9819
#
#
#
# Elastic Compliance Matrix: (Units=1/GPa)
#
#
# Indices 1 2 3 4 5 6 
#
# 1 0.016024 -0.000035 -0.004563 0.000000 0.000000 0.000000
# 2 -0.000035 0.016024 -0.004563 0.000000 0.000000 0.000000
# 3 -0.004563 -0.004563 0.010782 0.000000 0.000000 0.000000
# 4 0.000000 0.000000 0.000000 0.062528 0.000000 0.000000
# 5 0.000000 0.000000 0.000000 0.000000 0.062528 0.000000
# 6 0.000000 0.000000 0.000000 0.000000 0.000000 0.031268
#
#
# Mechanical properties :
#
#
# Convention : Reuss Voigt Hill
#
# Bulk Modulus (GPa) = 40.80164 47.42050 44.11107
# Shear Modulus (GPa) = 22.15876 25.26854 23.71365
#
# Velocity S-wave (km/s) = 3.14226 3.35552 3.25064
# Velocity P-wave (km/s) = 5.59875 6.01190 5.80900
#
# Compressibility (1/GPa) = 0.02450882
#
# Stress axis : x y z
#
# Youngs Moduli (GPa) = 62.40645 62.40645 92.74517
#
# Poissons Ratio (x) = 0.00217 0.42319
# Poissons Ratio (y) = 0.00217 0.42319
# Poissons Ratio (z) = 0.28476 0.28476
#
# Static dielectric constant tensor:
#      x y z
#    x 4.236550 0.000000 0.000000 
#    y 0.000000 4.236550 0.000000 
#    z 0.000000 0.000000 4.026490 
# 
# 
# High freq. dielectric constant tensor:
#      x y z
#    x 1.898490 0.000000 0.000000 
#    y 0.000000 1.898490 0.000000 
#    z 0.000000 0.000000 1.890240 
# 
# From -- ./inp_files/3338.got.cif
#   From: 2010.03.12/outbox.cif.g09.slc.cpg/sg117_2_cif.got.tgz:3338.got - 2010.04.14 02:19:01.
