data_PCOD8310545
_publ_section_title
;
Structure prediction by ZEFSAII (Michael W. Deem and Ramdas Pophale) SiO2 
 PCOD8310545
Probable space group: P -4 N 2
;
_chemical_formula_sum "Si O2"
_cell_formula_units_Z 44
_cell_length_a 8.457729
_cell_length_b 8.457729
_cell_length_c 29.557328
_cell_angle_alpha 90.000000
_cell_angle_beta 90.000000
_cell_angle_gamma 90.000000
_cell_volume 2114.329659
_symmetry_space_group_name_H-M "P -4 N 2"
_symmetry_group_IT_number 118
_symmetry_cell_setting 'tetragonal'
loop_
_space_group_symop_operation_xyz
x,y,z
y,-x,-z
-x,-y,z
-y,x,-z
1/2+y,1/2+x,1/2-z
1/2-y,1/2-x,1/2-z
1/2-x,1/2+y,1/2+z
1/2+x,1/2-y,1/2+z
loop_
_atom_site_type_symbol
_atom_site_label
_atom_site_fract_x
_atom_site_fract_y
_atom_site_fract_z
Si Si1 0.000000 0.000000 0.354200
Si Si2 0.715394 0.267147 0.094043
Si Si3 0.323803 0.546020 0.331051
Si Si4 0.664778 0.835223 0.750000
Si Si5 0.897119 0.232939 0.003629
Si Si6 0.500000 0.000000 0.438335
Si Si7 0.745289 0.152896 0.704014
O O1 0.871713 0.912624 0.321554
O O2 0.079631 0.873580 0.387220
O O3 0.860678 0.234027 0.126062
O O4 0.593612 0.121127 0.093583
O O5 0.792073 0.296996 0.045064
O O6 0.500000 0.500000 0.339662
O O7 0.311504 0.653688 0.285024
O O8 0.228125 0.382399 0.329355
O O9 0.513765 0.830462 0.782297
O O10 0.899635 0.375342 0.967918
O O11 0.077303 0.187278 0.017779
O O12 0.760782 0.260782 0.750000
#
# Coordination Sequence:
#
# PCOD8310545 Si02
#       7
#     4   8   8   4   8   4   8
#     4  12  26  42  63 102 138 168 230 294 345 372
#     4  11  26  41  67  98 136 176 223 284 331 402
#     4  11  24  38  68  98 125 178 222 273 328 400
#     4  10  21  44  64  89 134 177 230 254 325 402
#     4   9  21  43  69  92 127 183 219 269 341 428
#     4  10  24  44  64 101 138 163 228 286 344 392
#     4  10  23  41  64  89 130 181 226 273 324 409
#
# _framework density 20.810376999999999
#
# number of rings (size 3 to 8) (size 9 to 14) (size 15 to 20)
#    0.000    1.636    1.818    2.455   12.727    4.364 
#    0.000    0.000    0.000    1.091    0.000    0.000 
#    0.000    0.000    0.000    0.000    0.000    0.000 
#
# Total GULP energy -545376.464606 kJ/mol
# GULP energy per Si atom -12394.919650 kJ/mol
# Density = 2.076301 g / cm^3
# Si number density = 20.810377 Si / 1000 Ang^3
#
#
#
# Elastic Constant Matrix: (Units=GPa)
#
#
# Indices 1 2 3 4 5 6 
#
# 1 78.7183 39.7796 41.1083 0.0000 0.0000 0.0000
# 2 39.7796 78.7185 41.1081 0.0000 0.0000 0.0000
# 3 41.1083 41.1081 84.3776 0.0000 0.0000 0.0000
# 4 0.0000 0.0000 0.0000 76.6586 0.0000 0.0000
# 5 0.0000 0.0000 0.0000 0.0000 76.6614 0.0000
# 6 0.0000 0.0000 0.0000 0.0000 0.0000 38.2948
#
#
#
# Elastic Compliance Matrix: (Units=1/GPa)
#
#
# Indices 1 2 3 4 5 6 
#
# 1 0.019215 -0.006467 -0.006211 0.000000 0.000000 0.000000
# 2 -0.006467 0.019215 -0.006211 0.000000 0.000000 0.000000
# 3 -0.006211 -0.006211 0.017903 0.000000 0.000000 0.000000
# 4 0.000000 0.000000 0.000000 0.013045 0.000000 0.000000
# 5 0.000000 0.000000 0.000000 0.000000 0.013044 0.000000
# 6 0.000000 0.000000 0.000000 0.000000 0.000000 0.026113
#
#
# Mechanical properties :
#
#
# Convention : Reuss Voigt Hill
#
# Bulk Modulus (GPa) = 53.89013 53.97848 53.93430
# Shear Modulus (GPa) = 32.78755 46.31085 39.54920
#
# Velocity S-wave (km/s) = 3.97361 4.72250 4.36415
# Velocity P-wave (km/s) = 6.85600 7.46529 7.16713
#
# Compressibility (1/GPa) = 0.01855627
#
# Stress axis : x y z
#
# Youngs Moduli (GPa) = 52.04326 52.04356 55.85587
#
# Poissons Ratio (x) = 0.33654 0.34691
# Poissons Ratio (y) = 0.33654 0.34691
# Poissons Ratio (z) = 0.32323 0.32323
#
# Static dielectric constant tensor:
#      x y z
#    x 3.786790 0.000000 0.000000 
#    y 0.000000 3.786790 0.000000 
#    z 0.000000 0.000000 3.974030 
# 
# 
# High freq. dielectric constant tensor:
#      x y z
#    x 1.811590 0.000000 0.000000 
#    y 0.000000 1.811590 0.000000 
#    z 0.000000 0.000000 1.812530 
# 
# From -- ./inp_files/6787.got.cif
#   From: 2010.03.12/outbox.cif.g09.slc.cpg/sg118_4_cif.got.tgz:6787.got - 2010.04.14 02:21:17.
