data_PCOD8310467
_publ_section_title
;
Structure prediction by ZEFSAII (Michael W. Deem and Ramdas Pophale) SiO2 
 PCOD8310467
Probable space group: P -4 N 2
;
_chemical_formula_sum "Si O2"
_cell_formula_units_Z 44
_cell_length_a 13.944322
_cell_length_b 13.944322
_cell_length_c 11.934684
_cell_angle_alpha 90.000000
_cell_angle_beta 90.000000
_cell_angle_gamma 90.000000
_cell_volume 2320.629081
_symmetry_space_group_name_H-M "P -4 N 2"
_symmetry_group_IT_number 118
_symmetry_cell_setting 'tetragonal'
loop_
_space_group_symop_operation_xyz
x,y,z
y,-x,-z
-x,-y,z
-y,x,-z
1/2+y,1/2+x,1/2-z
1/2-y,1/2-x,1/2-z
1/2-x,1/2+y,1/2+z
1/2+x,1/2-y,1/2+z
loop_
_atom_site_type_symbol
_atom_site_label
_atom_site_fract_x
_atom_site_fract_y
_atom_site_fract_z
Si Si1 0.774890 0.878636 0.120109
Si Si2 0.500000 0.500000 0.500000
Si Si3 0.621364 0.725110 0.120108
Si Si4 0.658097 0.001883 0.750000
Si Si5 0.500000 0.500000 0.000000
Si Si6 0.031373 0.199880 0.054398
Si Si7 0.031373 0.199880 0.445602
O O1 0.671745 0.828255 0.107339
O O2 0.804304 0.889021 0.250000
O O3 0.853036 0.809519 0.057925
O O4 0.769763 0.985310 0.065852
O O5 0.592858 0.490718 0.419276
O O6 0.690481 0.646965 0.057925
O O7 0.514690 0.730237 0.065852
O O8 0.603311 0.103311 0.750000
O O9 0.585206 0.914795 0.750000
O O10 0.723687 0.992544 0.858310
O O11 0.723687 0.992544 0.641690
O O12 0.509282 0.592858 0.919276
#
# Coordination Sequence:
#
# PCOD8310467 Si02
#       7
#     8   2   8   8   2   8   8
#     4  10  20  37  59  80 110 152 188 228 281 336
#     4   8  20  34  52  84 102 144 170 232 272 330
#     4  10  20  37  59  80 110 152 188 228 281 336
#     4  11  22  35  56  82 112 149 186 231 278 330
#     4   8  20  34  52  84 102 144 170 232 272 330
#     4  10  19  36  56  84 112 142 188 229 280 335
#     4  10  19  36  56  84 112 142 188 229 280 335
#
# _framework density 18.960377000000001
#
# number of rings (size 3 to 8) (size 9 to 14) (size 15 to 20)
#    0.000    2.000    1.818    2.182    0.000    0.727 
#   19.636    0.000    0.000    3.273    0.000   12.727 
#    0.000    0.000    0.000    0.000    0.000    0.000 
#
# Total GULP energy -545090.948689 kJ/mol
# GULP energy per Si atom -12388.430652 kJ/mol
# Density = 1.891722 g / cm^3
# Si number density = 18.960377 Si / 1000 Ang^3
#
#
#
# Elastic Constant Matrix: (Units=GPa)
#
#
# Indices 1 2 3 4 5 6 
#
# 1 92.7708 35.6489 52.5026 0.0000 0.0000 0.0000
# 2 35.6489 92.7706 52.5028 0.0000 0.0000 0.0000
# 3 52.5026 52.5028 102.3705 0.0000 0.0000 0.0000
# 4 0.0000 0.0000 0.0000 28.7332 0.0000 0.0000
# 5 0.0000 0.0000 0.0000 0.0000 28.7327 0.0000
# 6 0.0000 0.0000 0.0000 0.0000 0.0000 16.5911
#
#
#
# Elastic Compliance Matrix: (Units=1/GPa)
#
#
# Indices 1 2 3 4 5 6 
#
# 1 0.015459 -0.002048 -0.006878 0.000000 0.000000 0.000000
# 2 -0.002048 0.015459 -0.006878 0.000000 0.000000 0.000000
# 3 -0.006878 -0.006878 0.016824 0.000000 0.000000 0.000000
# 4 0.000000 0.000000 0.000000 0.034803 0.000000 0.000000
# 5 0.000000 0.000000 0.000000 0.000000 0.034804 0.000000
# 6 0.000000 0.000000 0.000000 0.000000 0.000000 0.060273
#
#
# Mechanical properties :
#
#
# Convention : Reuss Voigt Hill
#
# Bulk Modulus (GPa) = 61.98395 63.24672 62.61533
# Shear Modulus (GPa) = 23.29848 24.62858 23.96353
#
# Velocity S-wave (km/s) = 3.50922 3.60800 3.55896
# Velocity P-wave (km/s) = 7.01298 7.12648 7.06995
#
# Compressibility (1/GPa) = 0.01613321
#
# Stress axis : x y z
#
# Youngs Moduli (GPa) = 64.68857 64.68814 59.44045
#
# Poissons Ratio (x) = 0.13246 0.40883
# Poissons Ratio (y) = 0.13246 0.40884
# Poissons Ratio (z) = 0.44493 0.44493
#
# Static dielectric constant tensor:
#      x y z
#    x 3.579940 0.000000 0.000000 
#    y 0.000000 3.579930 0.000000 
#    z 0.000000 0.000000 3.379300 
# 
# 
# High freq. dielectric constant tensor:
#      x y z
#    x 1.738600 0.000000 0.000000 
#    y 0.000000 1.738600 0.000000 
#    z 0.000000 0.000000 1.715300 
# 
# From -- ./inp_files/3278.got.cif
#   From: 2010.03.12/outbox.cif.g09.slc.cpg/sg118_2_cif.got.tgz:3278.got - 2010.04.14 02:21:17.
