data_PCOD8310913
_publ_section_title
;
Structure prediction by ZEFSAII (Michael W. Deem and Ramdas Pophale) SiO2 
 PCOD8310913
Probable space group: I -4 M 2
;
_chemical_formula_sum "Si O2"
_cell_formula_units_Z 96
_cell_length_a 14.058790
_cell_length_b 14.058790
_cell_length_c 25.201165
_cell_angle_alpha 90.000000
_cell_angle_beta 90.000000
_cell_angle_gamma 90.000000
_cell_volume 4980.999584
_symmetry_space_group_name_H-M "I -4 M 2"
_symmetry_group_IT_number 119
_symmetry_cell_setting 'tetragonal'
loop_
_space_group_symop_operation_xyz
x,y,z
y,-x,-z
-x,-y,z
-y,x,-z
y,x,-z
-y,-x,-z
-x,y,z
x,-y,z
1/2+x,1/2+y,1/2+z
1/2+y,1/2-x,1/2-z
1/2-x,1/2-y,1/2+z
1/2-y,1/2+x,1/2-z
1/2+y,1/2+x,1/2-z
1/2-y,1/2-x,1/2-z
1/2-x,1/2+y,1/2+z
1/2+x,1/2-y,1/2+z
loop_
_atom_site_type_symbol
_atom_site_label
_atom_site_fract_x
_atom_site_fract_y
_atom_site_fract_z
Si Si1 0.105919 0.392009 0.009526
Si Si2 0.108930 0.679063 0.605911
Si Si3 0.107956 0.890774 0.859651
Si Si4 0.611446 0.108441 0.809989
Si Si5 0.705402 0.220739 0.596311
Si Si6 0.894036 0.711244 0.793873
O O1 0.122686 0.500000 0.027188
O O2 0.116071 0.381257 0.946700
O O3 0.000000 0.359270 0.025699
O O4 0.182339 0.330393 0.041303
O O5 0.180328 0.768607 0.600006
O O6 0.143368 0.615306 0.654956
O O7 0.000000 0.714161 0.614090
O O8 0.177947 0.850337 0.905045
O O9 0.122321 0.822432 0.808343
O O10 0.000000 0.882618 0.881048
O O11 0.132068 0.000000 0.844122
O O12 0.500000 0.119455 0.819051
O O13 0.638428 0.138428 0.750000
O O14 0.664245 0.175401 0.851295
O O15 0.642862 0.000000 0.820687
O O16 0.816943 0.683058 0.750000
O O17 0.000000 0.696663 0.770816
#
# Coordination Sequence:
#
# PCOD8310913 Si02
#       6
#    16  16  16  16  16  16
#     4  10  20  35  58  85 108 132 169 221 277 324
#     4  10  22  37  51  73 109 147 179 219 270 316
#     4   9  19  35  53  77 112 147 174 207 260 325
#     4   9  18  33  55  85 116 140 168 217 278 327
#     4  11  20  33  56  82 106 140 182 219 257 314
#     4  10  20  34  56  82 104 135 182 230 272 314
#
# _framework density 19.273240000000001
#
# number of rings (size 3 to 8) (size 9 to 14) (size 15 to 20)
#    0.000    2.167    0.000    4.000    0.000    6.500 
#    0.000    0.000    0.000    7.000    0.000   14.000 
#    0.000    0.000    0.000    0.000    0.000    0.000 
#
# Total GULP energy -595050.505583 kJ/mol
# GULP energy per Si atom -12396.885533 kJ/mol
# Density = 1.922937 g / cm^3
# Si number density = 19.273240 Si / 1000 Ang^3
#
#
#
# Elastic Constant Matrix: (Units=GPa)
#
#
# Indices 1 2 3 4 5 6 
#
# 1 117.2387 43.8973 36.0192 0.0000 0.0000 0.0000
# 2 43.8973 117.2381 36.0188 0.0000 0.0000 0.0000
# 3 36.0192 36.0188 77.5835 0.0000 0.0000 0.0000
# 4 0.0000 0.0000 0.0000 29.4967 0.0000 0.0000
# 5 0.0000 0.0000 0.0000 0.0000 29.4970 0.0000
# 6 0.0000 0.0000 0.0000 0.0000 0.0000 25.2743
#
#
#
# Elastic Compliance Matrix: (Units=1/GPa)
#
#
# Indices 1 2 3 4 5 6 
#
# 1 0.010733 -0.002902 -0.003636 0.000000 0.000000 0.000000
# 2 -0.002902 0.010733 -0.003636 0.000000 0.000000 0.000000
# 3 -0.003636 -0.003636 0.016265 0.000000 0.000000 0.000000
# 4 0.000000 0.000000 0.000000 0.033902 0.000000 0.000000
# 5 0.000000 0.000000 0.000000 0.000000 0.033902 0.000000
# 6 0.000000 0.000000 0.000000 0.000000 0.000000 0.039566
#
#
# Mechanical properties :
#
#
# Convention : Reuss Voigt Hill
#
# Bulk Modulus (GPa) = 57.52151 60.43680 58.97916
# Shear Modulus (GPa) = 29.19826 29.92859 29.56343
#
# Velocity S-wave (km/s) = 3.89648 3.94491 3.92077
# Velocity P-wave (km/s) = 7.08191 7.22327 7.15294
#
# Compressibility (1/GPa) = 0.01738480
#
# Stress axis : x y z
#
# Youngs Moduli (GPa) = 93.16936 93.16912 61.48071
#
# Poissons Ratio (x) = 0.27036 0.22353
# Poissons Ratio (y) = 0.27036 0.22353
# Poissons Ratio (z) = 0.33875 0.33874
#
# Static dielectric constant tensor:
#      x y z
#    x 3.640170 0.000000 0.000000 
#    y 0.000000 3.640180 0.000000 
#    z 0.000000 0.000000 3.360050 
# 
# 
# High freq. dielectric constant tensor:
#      x y z
#    x 1.748470 0.000000 0.000000 
#    y 0.000000 1.748470 0.000000 
#    z 0.000000 0.000000 1.742100 
# 
# From -- ./inp_files/7790.got.cif
#   From: 2010.03.12/outbox.cif.g09.slc.cpg/sg119_4_cif.got.tgz:7790.got - 2010.04.14 02:25:26.
