data_PCOD8310284
_publ_section_title
;
Structure prediction by ZEFSAII (Michael W. Deem and Ramdas Pophale) SiO2 
 PCOD8310284
Probable space group: P -4 B 2
;
_chemical_formula_sum "Si O2"
_cell_formula_units_Z 64
_cell_length_a 26.489710
_cell_length_b 26.489710
_cell_length_c 5.307569
_cell_angle_alpha 90.000000
_cell_angle_beta 90.000000
_cell_angle_gamma 90.000000
_cell_volume 3724.346303
_symmetry_space_group_name_H-M "P -4 B 2"
_symmetry_group_IT_number 117
_symmetry_cell_setting 'tetragonal'
loop_
_space_group_symop_operation_xyz
x,y,z
y,-x,-z
-x,-y,z
-y,x,-z
1/2+y,1/2+x,-z
1/2-y,1/2-x,-z
1/2-x,1/2+y,z
1/2+x,1/2-y,z
loop_
_atom_site_type_symbol
_atom_site_label
_atom_site_fract_x
_atom_site_fract_y
_atom_site_fract_z
Si Si1 0.918002 0.334726 0.974141
Si Si2 0.728315 0.917693 0.526557
Si Si3 0.469057 0.735906 0.510231
Si Si4 0.654113 0.077794 0.470501
Si Si5 0.265941 0.315943 0.997350
Si Si6 0.433363 0.736273 0.010911
Si Si7 0.651044 0.029169 0.970166
Si Si8 0.689059 0.728034 0.497646
O O1 0.911940 0.293526 0.193454
O O2 0.970713 0.363429 0.007254
O O3 0.873128 0.373128 0.000000
O O4 0.915205 0.312791 0.693167
O O5 0.766166 0.871123 0.488256
O O6 0.756167 0.971276 0.503048
O O7 0.433056 0.786251 0.531742
O O8 0.448931 0.705581 0.264770
O O9 0.454460 0.705966 0.766389
O O10 0.637242 0.137242 0.500000
O O11 0.628571 0.049067 0.707246
O O12 0.628844 0.058181 0.211767
O O13 0.252429 0.374475 0.005676
O O14 0.295956 0.304046 0.742266
O O15 0.212818 0.287183 0.000000
O O16 0.298473 0.301672 0.241851
O O17 0.465096 0.788137 0.034423
O O18 0.717820 0.782181 0.500000
#
# Coordination Sequence:
#
# PCOD8310284 Si02
#       8
#     8   8   8   8   8   8   8   8
#     4  12  21  33  54  75  97 127 169 223 267 307
#     4  12  20  37  53  76 103 132 173 222 264 304
#     4  10  19  32  50  76  97 123 176 215 249 317
#     4  10  18  30  48  65  91 116 149 210 258 297
#     4  10  21  35  50  74 104 134 171 209 258 321
#     4  10  18  32  51  67 100 129 161 216 253 289
#     4  10  19  34  45  72  94 118 168 213 251 317
#     4  10  21  35  50  74 104 134 171 209 258 321
#
# _framework density 17.184222999999999
#
# number of rings (size 3 to 8) (size 9 to 14) (size 15 to 20)
#    0.000    1.500    5.000    3.000    0.000    5.000 
#    0.000    1.250    0.000    2.250    0.000    0.000 
#    0.000    0.000    0.000    0.000    0.000   43.750 
#
# Total GULP energy -792997.907955 kJ/mol
# GULP energy per Si atom -12390.592312 kJ/mol
# Density = 1.714511 g / cm^3
# Si number density = 17.184223 Si / 1000 Ang^3
#
#
#
# Elastic Constant Matrix: (Units=GPa)
#
#
# Indices 1 2 3 4 5 6 
#
# 1 49.5726 11.7331 10.4711 0.0000 0.0000 0.0000
# 2 11.7331 49.5717 10.4709 0.0000 0.0000 0.0000
# 3 10.4711 10.4709 135.2784 0.0000 0.0000 0.0000
# 4 0.0000 0.0000 0.0000 18.2539 0.0000 0.0000
# 5 0.0000 0.0000 0.0000 0.0000 18.2527 0.0000
# 6 0.0000 0.0000 0.0000 0.0000 0.0000 8.2707
#
#
#
# Elastic Compliance Matrix: (Units=1/GPa)
#
#
# Indices 1 2 3 4 5 6 
#
# 1 0.021591 -0.004836 -0.001297 0.000000 0.000000 0.000000
# 2 -0.004836 0.021591 -0.001297 0.000000 0.000000 0.000000
# 3 -0.001297 -0.001297 0.007593 0.000000 0.000000 0.000000
# 4 0.000000 0.000000 0.000000 0.054783 0.000000 0.000000
# 5 0.000000 0.000000 0.000000 0.000000 0.054786 0.000000
# 6 0.000000 0.000000 0.000000 0.000000 0.000000 0.120909
#
#
# Mechanical properties :
#
#
# Convention : Reuss Voigt Hill
#
# Bulk Modulus (GPa) = 27.84346 33.30809 30.57578
# Shear Modulus (GPa) = 16.22924 22.40530 19.31727
#
# Velocity S-wave (km/s) = 3.07649 3.61478 3.35644
# Velocity P-wave (km/s) = 5.37194 6.07019 5.73171
#
# Compressibility (1/GPa) = 0.03591507
#
# Stress axis : x y z
#
# Youngs Moduli (GPa) = 46.31536 46.31462 131.70145
#
# Poissons Ratio (x) = 0.22400 0.17080
# Poissons Ratio (y) = 0.22400 0.17080
# Poissons Ratio (z) = 0.06007 0.06006
#
# Static dielectric constant tensor:
#      x y z
#    x 2.902320 0.000000 0.000000 
#    y 0.000000 2.902330 0.000000 
#    z 0.000000 0.000000 4.689140 
# 
# 
# High freq. dielectric constant tensor:
#      x y z
#    x 1.617590 0.000000 0.000000 
#    y 0.000000 1.617600 0.000000 
#    z 0.000000 0.000000 1.712920 
# 
# From -- ./inp_files/985.got.cif
#   From: 2010.03.12/outbox.cif.g09.slc.cpg/sg117_1_cif.got.tgz:985.got - 2010.04.14 02:19:01.
