data_PCOD8310813
_publ_section_title
;
Structure prediction by ZEFSAII (Michael W. Deem and Ramdas Pophale) SiO2 
 PCOD8310813
Probable space group: I -4 M 2
;
_chemical_formula_sum "Si O2"
_cell_formula_units_Z 34
_cell_length_a 12.528498
_cell_length_b 12.528498
_cell_length_c 13.317798
_cell_angle_alpha 90.000000
_cell_angle_beta 90.000000
_cell_angle_gamma 90.000000
_cell_volume 2090.405019
_symmetry_space_group_name_H-M "I -4 M 2"
_symmetry_group_IT_number 119
_symmetry_cell_setting 'tetragonal'
loop_
_space_group_symop_operation_xyz
x,y,z
y,-x,-z
-x,-y,z
-y,x,-z
y,x,-z
-y,-x,-z
-x,y,z
x,-y,z
1/2+x,1/2+y,1/2+z
1/2+y,1/2-x,1/2-z
1/2-x,1/2-y,1/2+z
1/2-y,1/2+x,1/2-z
1/2+y,1/2+x,1/2-z
1/2-y,1/2-x,1/2-z
1/2-x,1/2+y,1/2+z
1/2+x,1/2-y,1/2+z
loop_
_atom_site_type_symbol
_atom_site_label
_atom_site_fract_x
_atom_site_fract_y
_atom_site_fract_z
Si Si1 0.288312 0.374912 0.210940
Si Si2 0.621152 0.621152 0.000000
Si Si3 0.881929 0.000000 0.192397
Si Si4 0.000000 0.000000 0.000000
O O1 0.274260 0.500000 0.234559
O O2 0.183168 0.316832 0.250000
O O3 0.300749 0.352911 0.092310
O O4 0.391446 0.325679 0.269728
O O5 0.637535 0.500000 0.962083
O O6 0.000000 0.000000 0.244122
O O7 0.894256 0.000000 0.070646
#
# Coordination Sequence:
#
# PCOD8310813 Si02
#       4
#    16   8   8   2
#     4  10  19  32  52  78 102 131 167 208 254 299
#     4   9  16  31  56  75  95 128 176 216 241 287
#     4   8  16  32  47  71  98 131 165 206 242 292
#     4   8  16  28  52  70 108 120 168 216 260 282
#
# _framework density 16.264792
#
# number of rings (size 3 to 8) (size 9 to 14) (size 15 to 20)
#    0.706    2.118    2.353    0.000    0.000    2.353 
#    0.000    0.000    0.000    0.706    0.000    0.000 
#    0.000    0.000    0.000    0.000    0.000    0.000 
#
# Total GULP energy -210669.751703 kJ/mol
# GULP energy per Si atom -12392.338335 kJ/mol
# Density = 1.622777 g / cm^3
# Si number density = 16.264792 Si / 1000 Ang^3
#
#
#
# Elastic Constant Matrix: (Units=GPa)
#
#
# Indices 1 2 3 4 5 6 
#
# 1 70.5881 43.9188 41.9039 0.0000 0.0000 0.0000
# 2 43.9188 70.5834 41.9036 0.0000 0.0000 0.0000
# 3 41.9039 41.9036 104.6651 0.0000 0.0000 0.0000
# 4 0.0000 0.0000 0.0000 22.1896 0.0000 0.0000
# 5 0.0000 0.0000 0.0000 0.0000 22.1896 0.0000
# 6 0.0000 0.0000 0.0000 0.0000 0.0000 23.0883
#
#
#
# Elastic Compliance Matrix: (Units=1/GPa)
#
#
# Indices 1 2 3 4 5 6 
#
# 1 0.024925 -0.012573 -0.004945 0.000000 0.000000 0.000000
# 2 -0.012573 0.024927 -0.004946 0.000000 0.000000 0.000000
# 3 -0.004945 -0.004946 0.013514 0.000000 0.000000 0.000000
# 4 0.000000 0.000000 0.000000 0.045066 0.000000 0.000000
# 5 0.000000 0.000000 0.000000 0.000000 0.045066 0.000000
# 6 0.000000 0.000000 0.000000 0.000000 0.000000 0.043312
#
#
# Mechanical properties :
#
#
# Convention : Reuss Voigt Hill
#
# Bulk Modulus (GPa) = 54.23631 55.69881 54.96756
# Shear Modulus (GPa) = 20.17051 21.36752 20.76902
#
# Velocity S-wave (km/s) = 3.52537 3.62847 3.57729
# Velocity P-wave (km/s) = 7.07031 7.20234 7.13663
#
# Compressibility (1/GPa) = 0.01843783
#
# Stress axis : x y z
#
# Youngs Moduli (GPa) = 40.11982 40.11654 73.99516
#
# Poissons Ratio (x) = 0.50440 0.36593
# Poissons Ratio (y) = 0.50444 0.36598
# Poissons Ratio (z) = 0.19841 0.19842
#
# Static dielectric constant tensor:
#      x y z
#    x 2.771970 0.000000 0.000000 
#    y 0.000000 2.771970 0.000000 
#    z 0.000000 0.000000 3.061400 
# 
# 
# High freq. dielectric constant tensor:
#      x y z
#    x 1.592120 0.000000 0.000000 
#    y 0.000000 1.592120 0.000000 
#    z 0.000000 0.000000 1.638180 
# 
# From -- ./inp_files/3100.got.cif
#   From: 2010.03.12/outbox.cif.g09.slc.cpg/sg119_2_cif.got.tgz:3100.got - 2010.04.14 02:25:26.
