data_PCOD8310411
_publ_section_title
;
Structure prediction by ZEFSAII (Michael W. Deem and Ramdas Pophale) SiO2 
 PCOD8310411
Probable space group: P -4 B 2
;
_chemical_formula_sum "Si O2"
_cell_formula_units_Z 42
_cell_length_a 13.909511
_cell_length_b 13.909511
_cell_length_c 9.425788
_cell_angle_alpha 90.000000
_cell_angle_beta 90.000000
_cell_angle_gamma 90.000000
_cell_volume 1823.649585
_symmetry_space_group_name_H-M "P -4 B 2"
_symmetry_group_IT_number 117
_symmetry_cell_setting 'tetragonal'
loop_
_space_group_symop_operation_xyz
x,y,z
y,-x,-z
-x,-y,z
-y,x,-z
1/2+y,1/2+x,-z
1/2-y,1/2-x,-z
1/2-x,1/2+y,z
1/2+x,1/2-y,z
loop_
_atom_site_type_symbol
_atom_site_label
_atom_site_fract_x
_atom_site_fract_y
_atom_site_fract_z
Si Si1 0.264486 0.213076 0.833311
Si Si2 0.000000 0.000000 0.500000
Si Si3 0.431492 0.909856 0.658129
Si Si4 0.258955 0.453436 0.164461
Si Si5 0.891581 0.114012 0.737151
Si Si6 0.003863 0.275569 0.149861
O O1 0.153746 0.214203 0.791404
O O2 0.324183 0.289005 0.736878
O O3 0.303453 0.104950 0.809397
O O4 0.265705 0.234296 0.000000
O O5 0.926438 0.931485 0.412240
O O6 0.392515 0.892515 0.500000
O O7 0.488834 0.816545 0.714738
O O8 0.340679 0.923674 0.760800
O O9 0.500000 0.000000 0.664497
O O10 0.356096 0.516086 0.169850
O O11 0.207235 0.471096 0.014278
O O12 0.835392 0.027566 0.813527
#
# Coordination Sequence:
#
# PCOD8310411 Si02
#       6
#     8   2   8   8   8   8
#     4  12  23  45  75 117 145 192 255 328 387 444
#     4  12  32  52  74 116 164 220 254 308 408 488
#     4  11  26  44  67 108 153 198 250 308 386 469
#     4  12  23  45  80 106 154 197 256 326 380 455
#     4  12  27  49  74 112 158 196 264 314 385 469
#     4  12  24  46  75 112 149 197 259 322 386 448
#
# _framework density 23.030737999999999
#
# number of rings (size 3 to 8) (size 9 to 14) (size 15 to 20)
#    0.000    0.190    5.714    2.857    2.667    0.762 
#    0.000    1.905    0.000    0.000    0.000    0.000 
#    0.000    0.000    0.000    0.000    0.000    0.000 
#
# Total GULP energy -520617.713893 kJ/mol
# GULP energy per Si atom -12395.659855 kJ/mol
# Density = 2.297832 g / cm^3
# Si number density = 23.030738 Si / 1000 Ang^3
#
#
#
# Elastic Constant Matrix: (Units=GPa)
#
#
# Indices 1 2 3 4 5 6 
#
# 1 111.7052 27.3571 38.6826 0.0000 0.0000 0.0000
# 2 27.3571 111.7045 38.6826 0.0000 0.0000 0.0000
# 3 38.6826 38.6826 151.7734 0.0000 0.0000 0.0000
# 4 0.0000 0.0000 0.0000 39.4389 0.0000 0.0000
# 5 0.0000 0.0000 0.0000 0.0000 39.4389 0.0000
# 6 0.0000 0.0000 0.0000 0.0000 0.0000 45.1808
#
#
#
# Elastic Compliance Matrix: (Units=1/GPa)
#
#
# Indices 1 2 3 4 5 6 
#
# 1 0.010117 -0.001738 -0.002136 0.000000 0.000000 0.000000
# 2 -0.001738 0.010117 -0.002136 0.000000 0.000000 0.000000
# 3 -0.002136 -0.002136 0.007677 0.000000 0.000000 0.000000
# 4 0.000000 0.000000 0.000000 0.025356 0.000000 0.000000
# 5 0.000000 0.000000 0.000000 0.000000 0.025356 0.000000
# 6 0.000000 0.000000 0.000000 0.000000 0.000000 0.022133
#
#
# Mechanical properties :
#
#
# Convention : Reuss Voigt Hill
#
# Bulk Modulus (GPa) = 62.91967 64.95860 63.93913
# Shear Modulus (GPa) = 42.34648 42.84243 42.59445
#
# Velocity S-wave (km/s) = 4.29265 4.31772 4.30520
# Velocity P-wave (km/s) = 7.20752 7.28857 7.24816
#
# Compressibility (1/GPa) = 0.01589328
#
# Stress axis : x y z
#
# Youngs Moduli (GPa) = 98.83978 98.83910 130.25283
#
# Poissons Ratio (x) = 0.17181 0.27817
# Poissons Ratio (y) = 0.17181 0.27817
# Poissons Ratio (z) = 0.21108 0.21108
#
# Static dielectric constant tensor:
#      x y z
#    x 4.385140 0.000000 0.000000 
#    y 0.000000 4.385150 0.000000 
#    z 0.000000 0.000000 4.081580 
# 
# 
# High freq. dielectric constant tensor:
#      x y z
#    x 1.925600 0.000000 0.000000 
#    y 0.000000 1.925600 0.000000 
#    z 0.000000 0.000000 1.887150 
# 
# From -- ./inp_files/1762.got.cif
#   From: 2010.03.12/outbox.cif.g09.slc.cpg/sg117_1_cif.got.tgz:1762.got - 2010.04.14 02:19:01.
