data_PCOD8310741
_publ_section_title
;
Structure prediction by ZEFSAII (Michael W. Deem and Ramdas Pophale) SiO2 
 PCOD8310741
Probable space group: I -4 M 2
;
_chemical_formula_sum "Si O2"
_cell_formula_units_Z 112
_cell_length_a 14.400167
_cell_length_b 14.400167
_cell_length_c 28.994143
_cell_angle_alpha 90.000000
_cell_angle_beta 90.000000
_cell_angle_gamma 90.000000
_cell_volume 6012.364944
_symmetry_space_group_name_H-M "I -4 M 2"
_symmetry_group_IT_number 119
_symmetry_cell_setting 'tetragonal'
loop_
_space_group_symop_operation_xyz
x,y,z
y,-x,-z
-x,-y,z
-y,x,-z
y,x,-z
-y,-x,-z
-x,y,z
x,-y,z
1/2+x,1/2+y,1/2+z
1/2+y,1/2-x,1/2-z
1/2-x,1/2-y,1/2+z
1/2-y,1/2+x,1/2-z
1/2+y,1/2+x,1/2-z
1/2-y,1/2-x,1/2-z
1/2-x,1/2+y,1/2+z
1/2+x,1/2-y,1/2+z
loop_
_atom_site_type_symbol
_atom_site_label
_atom_site_fract_x
_atom_site_fract_y
_atom_site_fract_z
Si Si1 0.262508 0.890732 0.871080
Si Si2 0.395705 0.292451 0.319945
Si Si3 0.604561 0.398740 0.772880
Si Si4 0.608303 0.195709 0.796465
Si Si5 0.110114 0.398144 0.958097
Si Si6 0.610141 0.259069 0.524368
Si Si7 0.601034 0.110167 0.145175
O O1 0.164636 0.863707 0.849092
O O2 0.347748 0.847841 0.842290
O O3 0.259770 0.854666 0.923667
O O4 0.275351 0.000000 0.868964
O O5 0.500000 0.296645 0.340388
O O6 0.393570 0.320228 0.267164
O O7 0.355796 0.186582 0.323058
O O8 0.500000 0.393848 0.752119
O O9 0.616850 0.500000 0.798554
O O10 0.620384 0.307301 0.803844
O O11 0.500000 0.167769 0.793040
O O12 0.660092 0.160092 0.750000
O O13 0.143043 0.500000 0.973976
O O14 0.146377 0.377898 0.906471
O O15 0.000000 0.391607 0.958529
O O16 0.151304 0.325272 0.994123
O O17 0.648133 0.351868 0.500000
O O18 0.500000 0.267193 0.523483
O O19 0.500000 0.149398 0.162290
O O20 0.594326 0.000000 0.145565
#
# Coordination Sequence:
#
# PCOD8310741 Si02
#       7
#    16  16  16  16  16  16  16
#     4  11  23  36  52  80 111 141 185 235 280 338
#     4  10  18  30  50  73 103 140 175 218 271 326
#     4   9  18  34  57  81 105 140 183 222 267 328
#     4  11  22  38  59  81 112 150 190 238 291 345
#     4   8  14  27  46  65  90 129 172 212 255 305
#     4  10  21  35  52  77 111 146 180 221 274 336
#     4   8  14  25  44  71  99 130 171 213 257 314
#
# _framework density 18.628277000000001
#
# number of rings (size 3 to 8) (size 9 to 14) (size 15 to 20)
#    0.000    2.429    1.429    2.571    0.000    4.286 
#    0.000    3.571    0.000    1.714    0.000    0.000 
#    0.000    0.286    0.000    0.000    0.000    0.000 
#
# Total GULP energy -693863.457440 kJ/mol
# GULP energy per Si atom -12390.418883 kJ/mol
# Density = 1.858588 g / cm^3
# Si number density = 18.628277 Si / 1000 Ang^3
#
#
#
# Elastic Constant Matrix: (Units=GPa)
#
#
# Indices 1 2 3 4 5 6 
#
# 1 90.9768 26.2419 34.3509 0.0000 0.0000 0.0000
# 2 26.2419 90.9733 34.3506 0.0000 0.0000 0.0000
# 3 34.3509 34.3506 68.6910 0.0000 0.0000 0.0000
# 4 0.0000 0.0000 0.0000 20.4396 0.0000 0.0000
# 5 0.0000 0.0000 0.0000 0.0000 20.4405 0.0000
# 6 0.0000 0.0000 0.0000 0.0000 0.0000 17.2956
#
#
#
# Elastic Compliance Matrix: (Units=1/GPa)
#
#
# Indices 1 2 3 4 5 6 
#
# 1 0.013758 -0.001690 -0.006035 0.000000 0.000000 0.000000
# 2 -0.001690 0.013759 -0.006035 0.000000 0.000000 0.000000
# 3 -0.006035 -0.006035 0.020594 0.000000 0.000000 0.000000
# 4 0.000000 0.000000 0.000000 0.048925 0.000000 0.000000
# 5 0.000000 0.000000 0.000000 0.000000 0.048923 0.000000
# 6 0.000000 0.000000 0.000000 0.000000 0.000000 0.057818
#
#
# Mechanical properties :
#
#
# Convention : Reuss Voigt Hill
#
# Bulk Modulus (GPa) = 48.56655 48.94756 48.75705
# Shear Modulus (GPa) = 20.99437 22.01500 21.50469
#
# Velocity S-wave (km/s) = 3.36075 3.44147 3.40135
# Velocity P-wave (km/s) = 6.41775 6.49035 6.45415
#
# Compressibility (1/GPa) = 0.02059030
#
# Stress axis : x y z
#
# Youngs Moduli (GPa) = 72.68543 72.68226 48.55793
#
# Poissons Ratio (x) = 0.12282 0.29305
# Poissons Ratio (y) = 0.12283 0.29306
# Poissons Ratio (z) = 0.43866 0.43865
#
# Static dielectric constant tensor:
#      x y z
#    x 3.609980 0.000000 0.000000 
#    y 0.000000 3.609980 0.000000 
#    z 0.000000 0.000000 3.345740 
# 
# 
# High freq. dielectric constant tensor:
#      x y z
#    x 1.720050 0.000000 0.000000 
#    y 0.000000 1.720050 0.000000 
#    z 0.000000 0.000000 1.698550 
# 
# From -- ./inp_files/9602.got.cif
#   From: 2010.03.12/outbox.cif.g09.slc.cpg/sg119_5_cif.got.tgz:9602.got - 2010.04.14 02:25:26.
