data_PCOD8310351
_publ_section_title
;
Structure prediction by ZEFSAII (Michael W. Deem and Ramdas Pophale) SiO2 
 PCOD8310351
Probable space group: P -4 B 2
;
_chemical_formula_sum "Si O2"
_cell_formula_units_Z 32
_cell_length_a 10.448717
_cell_length_b 10.448717
_cell_length_c 10.894019
_cell_angle_alpha 90.000000
_cell_angle_beta 90.000000
_cell_angle_gamma 90.000000
_cell_volume 1189.362008
_symmetry_space_group_name_H-M "P -4 B 2"
_symmetry_group_IT_number 117
_symmetry_cell_setting 'tetragonal'
loop_
_space_group_symop_operation_xyz
x,y,z
y,-x,-z
-x,-y,z
-y,x,-z
1/2+y,1/2+x,-z
1/2-y,1/2-x,-z
1/2-x,1/2+y,z
1/2+x,1/2-y,z
loop_
_atom_site_type_symbol
_atom_site_label
_atom_site_fract_x
_atom_site_fract_y
_atom_site_fract_z
Si Si1 0.000000 0.500000 0.309185
Si Si2 0.843224 0.865544 0.657428
Si Si3 0.743484 0.398971 0.382018
Si Si4 0.732035 0.042439 0.840918
Si Si5 0.786609 0.286609 0.000000
O O1 0.895293 0.431900 0.395875
O O2 0.924414 0.595743 0.218263
O O3 0.737879 0.752282 0.692677
O O4 0.826319 0.883171 0.511627
O O5 0.986433 0.823014 0.691906
O O6 0.825100 0.000621 0.727144
O O7 0.718161 0.916362 0.924154
O O8 0.787871 0.160484 0.915476
#
# Coordination Sequence:
#
# PCOD8310351 Si02
#       5
#     4   8   8   8   4
#     4  10  22  46  74 100 138 195 230 263 344 450
#     4  10  24  43  70 103 143 185 227 282 346 416
#     4  10  23  42  69 106 143 180 227 275 345 429
#     4  11  25  45  73 100 137 182 235 291 344 401
#     4  12  26  48  70 102 136 182 240 294 342 402
#
# _framework density 26.905183000000001
#
# number of rings (size 3 to 8) (size 9 to 14) (size 15 to 20)
#    0.000    1.500    0.000    3.000    0.000   29.000 
#    0.000    5.000    0.000    0.000    0.000    0.000 
#    0.000    0.000    0.000    0.000    0.000    0.000 
#
# Total GULP energy -396514.756773 kJ/mol
# GULP energy per Si atom -12391.086149 kJ/mol
# Density = 2.684395 g / cm^3
# Si number density = 26.905183 Si / 1000 Ang^3
#
#
#
# Elastic Constant Matrix: (Units=GPa)
#
#
# Indices 1 2 3 4 5 6 
#
# 1 125.6372 35.4598 25.5618 0.0000 0.0000 0.0000
# 2 35.4598 125.6372 25.5618 0.0000 0.0000 0.0000
# 3 25.5618 25.5618 87.0920 0.0000 0.0000 0.0000
# 4 0.0000 0.0000 0.0000 25.3903 0.0000 0.0000
# 5 0.0000 0.0000 0.0000 0.0000 25.3903 0.0000
# 6 0.0000 0.0000 0.0000 0.0000 0.0000 47.3704
#
#
#
# Elastic Compliance Matrix: (Units=1/GPa)
#
#
# Indices 1 2 3 4 5 6 
#
# 1 0.008967 -0.002122 -0.002009 0.000000 0.000000 0.000000
# 2 -0.002122 0.008967 -0.002009 0.000000 0.000000 0.000000
# 3 -0.002009 -0.002009 0.012661 0.000000 0.000000 0.000000
# 4 0.000000 0.000000 0.000000 0.039385 0.000000 0.000000
# 5 0.000000 0.000000 0.000000 0.000000 0.039385 0.000000
# 6 0.000000 0.000000 0.000000 0.000000 0.000000 0.021110
#
#
# Mechanical properties :
#
#
# Convention : Reuss Voigt Hill
#
# Bulk Modulus (GPa) = 54.59917 56.83704 55.71811
# Shear Modulus (GPa) = 33.58824 36.41573 35.00199
#
# Velocity S-wave (km/s) = 3.53709 3.68296 3.61077
# Velocity P-wave (km/s) = 6.08429 6.26550 6.17556
#
# Compressibility (1/GPa) = 0.01831530
#
# Stress axis : x y z
#
# Youngs Moduli (GPa) = 111.51841 111.51841 78.98000
#
# Poissons Ratio (x) = 0.23666 0.15867
# Poissons Ratio (y) = 0.23666 0.15867
# Poissons Ratio (z) = 0.22404 0.22404
#
# Static dielectric constant tensor:
#      x y z
#    x 5.157710 0.000000 0.000000 
#    y 0.000000 5.157710 0.000000 
#    z 0.000000 0.000000 4.885660 
# 
# 
# High freq. dielectric constant tensor:
#      x y z
#    x 2.097960 0.000000 0.000000 
#    y 0.000000 2.097960 0.000000 
#    z 0.000000 0.000000 2.072750 
# 
# From -- ./inp_files/2452.got.cif
#   From: 2010.03.12/outbox.cif.g09.slc.cpg/sg117_2_cif.got.tgz:2452.got - 2010.04.14 02:19:01.
