data_PCOD8310047
_publ_section_title
;
Structure prediction by ZEFSAII (Michael W. Deem and Ramdas Pophale) SiO2 
 PCOD8310047
Probable space group: P -4 M 2
;
_chemical_formula_sum "Si O2"
_cell_formula_units_Z 40
_cell_length_a 9.731861
_cell_length_b 9.731861
_cell_length_c 25.380492
_cell_angle_alpha 90.000000
_cell_angle_beta 90.000000
_cell_angle_gamma 90.000000
_cell_volume 2403.764025
_symmetry_space_group_name_H-M "P -4 M 2"
_symmetry_group_IT_number 115
_symmetry_cell_setting 'tetragonal'
loop_
_space_group_symop_operation_xyz
x,y,z
y,-x,-z
-x,-y,z
-y,x,-z
y,x,-z
-y,-x,-z
-x,y,z
x,-y,z
loop_
_atom_site_type_symbol
_atom_site_label
_atom_site_fract_x
_atom_site_fract_y
_atom_site_fract_z
Si Si1 0.160206 0.340088 0.347413
Si Si2 0.163323 0.846926 0.442128
Si Si3 0.157293 0.841929 0.060998
Si Si4 0.652107 0.336823 0.253138
Si Si5 0.339046 0.342007 0.135632
O O1 0.190319 0.500000 0.357615
O O2 0.217664 0.257515 0.397821
O O3 0.239386 0.283074 0.296127
O O4 0.000000 0.312337 0.337741
O O5 0.208289 0.791712 0.500000
O O6 0.000000 0.853496 0.441290
O O7 0.222927 0.000000 0.431282
O O8 0.256331 0.747717 0.094619
O O9 0.000000 0.805880 0.074562
O O10 0.188024 0.000000 0.074496
O O11 0.187393 0.812608 0.000000
O O12 0.500000 0.279747 0.266998
O O13 0.647490 0.500000 0.253088
O O14 0.696359 0.288788 0.194686
O O15 0.500000 0.324610 0.124478
O O16 0.294506 0.500000 0.128718
#
# Coordination Sequence:
#
# PCOD8310047 Si02
#       5
#     8   8   8   8   8
#     4   9  16  26  43  66  86 106 140 183 217 248
#     4   8  14  26  43  60  81 112 144 172 210 260
#     4   9  19  35  51  68  94 126 156 187 227 274
#     4   8  15  29  46  63  88 120 146 172 215 266
#     4   9  18  32  50  72  95 120 154 193 229 269
#
# _framework density 16.640567999999998
#
# number of rings (size 3 to 8) (size 9 to 14) (size 15 to 20)
#    0.000    3.400    0.000    2.400    0.000    2.400 
#    0.000    7.000    0.000    5.400    0.000    0.000 
#    0.000    0.000    0.000    0.000    0.000    0.000 
#
# Total GULP energy -495793.936894 kJ/mol
# GULP energy per Si atom -12394.848422 kJ/mol
# Density = 1.660269 g / cm^3
# Si number density = 16.640568 Si / 1000 Ang^3
#
#
#
# Elastic Constant Matrix: (Units=GPa)
#
#
# Indices 1 2 3 4 5 6 
#
# 1 63.6753 42.6642 67.7305 0.0000 0.0000 0.0000
# 2 42.6642 63.6755 67.7306 0.0000 0.0000 0.0000
# 3 67.7305 67.7306 139.6943 0.0000 0.0000 0.0000
# 4 0.0000 0.0000 0.0000 24.2401 0.0000 0.0000
# 5 0.0000 0.0000 0.0000 0.0000 24.2457 0.0000
# 6 0.0000 0.0000 0.0000 0.0000 0.0000 21.7687
#
#
#
# Elastic Compliance Matrix: (Units=1/GPa)
#
#
# Indices 1 2 3 4 5 6 
#
# 1 0.036094 -0.011500 -0.011924 0.000000 0.000000 0.000000
# 2 -0.011500 0.036093 -0.011924 0.000000 0.000000 0.000000
# 3 -0.011924 -0.011924 0.018721 0.000000 0.000000 0.000000
# 4 0.000000 0.000000 0.000000 0.041254 0.000000 0.000000
# 5 0.000000 0.000000 0.000000 0.000000 0.041244 0.000000
# 6 0.000000 0.000000 0.000000 0.000000 0.000000 0.045937
#
#
# Mechanical properties :
#
#
# Convention : Reuss Voigt Hill
#
# Bulk Modulus (GPa) = 49.47638 69.25508 59.36573
# Shear Modulus (GPa) = 16.84762 19.97888 18.41325
#
# Velocity S-wave (km/s) = 3.18534 3.46874 3.33006
# Velocity P-wave (km/s) = 6.58221 7.59944 7.10904
#
# Compressibility (1/GPa) = 0.02021166
#
# Stress axis : x y z
#
# Youngs Moduli (GPa) = 27.70577 27.70586 53.41555
#
# Poissons Ratio (x) = 0.31862 0.63693
# Poissons Ratio (y) = 0.31862 0.63693
# Poissons Ratio (z) = 0.33036 0.33036
#
# Static dielectric constant tensor:
#      x y z
#    x 3.000880 0.000000 0.000000 
#    y 0.000000 3.000880 0.000000 
#    z 0.000000 0.000000 3.399700 
# 
# 
# High freq. dielectric constant tensor:
#      x y z
#    x 1.619840 0.000000 0.000000 
#    y 0.000000 1.619840 0.000000 
#    z 0.000000 0.000000 1.650760 
# 
# From -- ./inp_files/5449.got.cif
#   From: 2010.03.12/outbox.cif.g09.slc.cpg/sg115_3_cif.got.tgz:5449.got - 2010.04.14 02:11:21.
