data_PCOD8310755
_publ_section_title
;
Structure prediction by ZEFSAII (Michael W. Deem and Ramdas Pophale) SiO2 
 PCOD8310755
Probable space group: I -4 M 2
;
_chemical_formula_sum "Si O2"
_cell_formula_units_Z 112
_cell_length_a 31.598170
_cell_length_b 31.598170
_cell_length_c 5.551212
_cell_angle_alpha 90.000000
_cell_angle_beta 90.000000
_cell_angle_gamma 90.000000
_cell_volume 5542.576242
_symmetry_space_group_name_H-M "I -4 M 2"
_symmetry_group_IT_number 119
_symmetry_cell_setting 'tetragonal'
loop_
_space_group_symop_operation_xyz
x,y,z
y,-x,-z
-x,-y,z
-y,x,-z
y,x,-z
-y,-x,-z
-x,y,z
x,-y,z
1/2+x,1/2+y,1/2+z
1/2+y,1/2-x,1/2-z
1/2-x,1/2-y,1/2+z
1/2-y,1/2+x,1/2-z
1/2+y,1/2+x,1/2-z
1/2-y,1/2-x,1/2-z
1/2-x,1/2+y,1/2+z
1/2+x,1/2-y,1/2+z
loop_
_atom_site_type_symbol
_atom_site_label
_atom_site_fract_x
_atom_site_fract_y
_atom_site_fract_z
Si Si1 0.415843 0.549354 0.241384
Si Si2 0.295457 0.185170 0.499029
Si Si3 0.707675 0.047428 0.903317
Si Si4 0.709373 0.546314 0.717355
Si Si5 0.106579 0.239944 0.404143
Si Si6 0.098562 0.159868 0.123752
Si Si7 0.641075 0.114330 0.001136
O O1 0.436026 0.563975 0.500000
O O2 0.405863 0.500000 0.263127
O O3 0.372909 0.576615 0.190840
O O4 0.444175 0.555826 0.000000
O O5 0.288545 0.211456 0.750000
O O6 0.262051 0.147327 0.484585
O O7 0.344688 0.171415 0.501220
O O8 0.288269 0.211732 0.250000
O O9 0.722705 0.074970 0.675614
O O10 0.694630 0.000000 0.820794
O O11 0.745265 0.045112 0.091550
O O12 0.667825 0.071256 0.018814
O O13 0.699911 0.500000 0.829123
O O14 0.670731 0.558616 0.546113
O O15 0.709817 0.582668 0.912431
O O16 0.118580 0.204838 0.206736
O O17 0.138470 0.138470 0.000000
O O18 0.613900 0.113900 0.250000
O O19 0.614030 0.114030 0.750000
#
# Coordination Sequence:
#
# PCOD8310755 Si02
#       7
#    16  16  16  16  16  16  16
#     4  11  25  45  70  98 130 166 212 265 319 382
#     4  10  19  33  58  87 118 155 207 250 306 368
#     4  10  20  34  51  88 128 161 197 253 314 374
#     4  10  21  36  59  87 121 155 198 251 314 376
#     4  11  21  36  61  90 121 164 208 258 314 389
#     4  10  25  42  60  88 124 166 209 257 318 384
#     4  10  18  32  53  77 118 159 204 242 299 368
#
# _framework density 20.207208999999999
#
# number of rings (size 3 to 8) (size 9 to 14) (size 15 to 20)
#    0.000    1.714    2.857    3.000    6.000    2.571 
#    0.000    0.000    0.000    0.000    3.714    0.000 
#    0.000    1.714    0.000    0.000    0.000    0.000 
#
# Total GULP energy -693770.814896 kJ/mol
# GULP energy per Si atom -12388.764552 kJ/mol
# Density = 2.016122 g / cm^3
# Si number density = 20.207209 Si / 1000 Ang^3
#
#
#
# Elastic Constant Matrix: (Units=GPa)
#
#
# Indices 1 2 3 4 5 6 
#
# 1 91.5221 51.6313 28.3393 0.0000 0.0000 0.0000
# 2 51.6313 91.5190 28.3382 0.0000 0.0000 0.0000
# 3 28.3393 28.3382 129.8627 0.0000 0.0000 0.0000
# 4 0.0000 0.0000 0.0000 18.9069 0.0000 0.0000
# 5 0.0000 0.0000 0.0000 0.0000 18.9087 0.0000
# 6 0.0000 0.0000 0.0000 0.0000 0.0000 18.5787
#
#
#
# Elastic Compliance Matrix: (Units=1/GPa)
#
#
# Indices 1 2 3 4 5 6 
#
# 1 0.016358 -0.008712 -0.001669 0.000000 0.000000 0.000000
# 2 -0.008712 0.016358 -0.001669 0.000000 0.000000 0.000000
# 3 -0.001669 -0.001669 0.008429 0.000000 0.000000 0.000000
# 4 0.000000 0.000000 0.000000 0.052891 0.000000 0.000000
# 5 0.000000 0.000000 0.000000 0.000000 0.052886 0.000000
# 6 0.000000 0.000000 0.000000 0.000000 0.000000 0.053825
#
#
# Mechanical properties :
#
#
# Convention : Reuss Voigt Hill
#
# Bulk Modulus (GPa) = 58.66187 58.83571 58.74879
# Shear Modulus (GPa) = 21.68957 24.91852 23.30404
#
# Velocity S-wave (km/s) = 3.27977 3.51543 3.39964
# Velocity P-wave (km/s) = 6.59058 6.75700 6.67431
#
# Compressibility (1/GPa) = 0.01704685
#
# Stress axis : x y z
#
# Youngs Moduli (GPa) = 61.13384 61.13195 118.64264
#
# Poissons Ratio (x) = 0.53256 0.19797
# Poissons Ratio (y) = 0.53257 0.19796
# Poissons Ratio (z) = 0.10201 0.10200
#
# Static dielectric constant tensor:
#      x y z
#    x 3.499350 0.000000 0.000000 
#    y 0.000000 3.499370 0.000000 
#    z 0.000000 0.000000 4.021110 
# 
# 
# High freq. dielectric constant tensor:
#      x y z
#    x 1.767680 0.000000 0.000000 
#    y 0.000000 1.767680 0.000000 
#    z 0.000000 0.000000 1.798870 
# 
# From -- ./inp_files/1205.got.cif
#   From: 2010.03.12/outbox.cif.g09.slc.cpg/sg119_1_cif.got.tgz:1205.got - 2010.04.14 02:25:26.
