data_PCOD8310013
_publ_section_title
;
Structure prediction by ZEFSAII (Michael W. Deem and Ramdas Pophale) SiO2 
 PCOD8310013
Probable space group: P -4 M 2
;
_chemical_formula_sum "Si O2"
_cell_formula_units_Z 44
_cell_length_a 9.160011
_cell_length_b 9.160011
_cell_length_c 28.485040
_cell_angle_alpha 90.000000
_cell_angle_beta 90.000000
_cell_angle_gamma 90.000000
_cell_volume 2390.060113
_symmetry_space_group_name_H-M "P -4 M 2"
_symmetry_group_IT_number 115
_symmetry_cell_setting 'tetragonal'
loop_
_space_group_symop_operation_xyz
x,y,z
y,-x,-z
-x,-y,z
-y,x,-z
y,x,-z
-y,-x,-z
-x,y,z
x,-y,z
loop_
_atom_site_type_symbol
_atom_site_label
_atom_site_fract_x
_atom_site_fract_y
_atom_site_fract_z
Si Si1 0.328212 0.671789 0.500000
Si Si2 0.672420 0.668685 0.666851
Si Si3 0.673755 0.839077 0.142115
Si Si4 0.826535 0.663232 0.960411
Si Si5 0.171563 0.828904 0.585205
Si Si6 0.339986 0.327581 0.771544
O O1 0.500000 0.703858 0.501936
O O2 0.253441 0.738831 0.545458
O O3 0.500000 0.698159 0.660762
O O4 0.706253 0.500000 0.654273
O O5 0.765919 0.776059 0.634768
O O6 0.724750 0.705356 0.719923
O O7 0.500000 0.846433 0.146087
O O8 0.714033 0.769133 0.091241
O O9 0.742588 0.751787 0.185917
O O10 0.741307 0.000000 0.145706
O O11 0.770060 0.500000 0.971634
O O12 0.000000 0.665614 0.959322
O O13 0.771603 0.771603 0.000000
O O14 0.000000 0.795945 0.582487
O O15 0.203420 0.000000 0.578626
O O16 0.500000 0.257625 0.775020
O O17 0.350072 0.500000 0.778251
#
# Coordination Sequence:
#
# PCOD8310013 Si02
#       6
#     4   8   8   8   8   8
#     4  11  24  41  62  86 108 133 170 213 254 300
#     4   9  18  33  53  78 106 135 170 209 248 295
#     4   8  14  25  41  63  92 123 155 195 244 295
#     4   9  18  31  46  67  95 125 160 203 248 297
#     4  11  24  39  55  79 110 141 174 211 250 294
#     4   8  14  25  43  69  99 127 157 198 245 292
#
# _framework density 18.409579999999998
#
# number of rings (size 3 to 8) (size 9 to 14) (size 15 to 20)
#    0.000    2.818    0.000    3.818    0.000    7.636 
#    0.000    3.636    0.000    1.091    0.000    0.000 
#    0.000    0.000    0.000    0.000    0.000    0.000 
#
# Total GULP energy -545329.698473 kJ/mol
# GULP energy per Si atom -12393.856783 kJ/mol
# Density = 1.836768 g / cm^3
# Si number density = 18.409580 Si / 1000 Ang^3
#
#
#
# Elastic Constant Matrix: (Units=GPa)
#
#
# Indices 1 2 3 4 5 6 
#
# 1 66.5625 40.2035 55.2796 0.0000 0.0000 0.0000
# 2 40.2035 66.5621 55.2796 0.0000 0.0000 0.0000
# 3 55.2796 55.2796 161.1660 0.0000 0.0000 0.0000
# 4 0.0000 0.0000 0.0000 -6.8682 0.0000 0.0000
# 5 0.0000 0.0000 0.0000 0.0000 -6.8709 0.0000
# 6 0.0000 0.0000 0.0000 0.0000 0.0000 23.6926
#
#
#
# Elastic Compliance Matrix: (Units=1/GPa)
#
#
# Indices 1 2 3 4 5 6 
#
# 1 0.026232 -0.011706 -0.004982 0.000000 0.000000 0.000000
# 2 -0.011706 0.026232 -0.004982 0.000000 0.000000 0.000000
# 3 -0.004982 -0.004982 0.009623 0.000000 0.000000 0.000000
# 4 0.000000 0.000000 0.000000 -0.145598 0.000000 0.000000
# 5 0.000000 0.000000 0.000000 0.000000 -0.145541 0.000000
# 6 0.000000 0.000000 0.000000 0.000000 0.000000 0.042207
#
#
# Mechanical properties :
#
#
# Convention : Reuss Voigt Hill
#
# Bulk Modulus (GPa) = 53.34830 66.20179 59.77505
# Shear Modulus (GPa) = -36.42833 11.55922 -12.43455
#
# Velocity S-wave (km/s) = -4.45316 2.50850 -2.60174
# Velocity P-wave (km/s) = 1.61263 6.66548 4.84919
#
# Compressibility (1/GPa) = 0.01874474
#
# Stress axis : x y z
#
# Youngs Moduli (GPa) = 38.12186 38.12152 103.92231
#
# Poissons Ratio (x) = 0.44626 0.51776
# Poissons Ratio (y) = 0.44626 0.51777
# Poissons Ratio (z) = 0.18993 0.18993
#
# Static dielectric constant tensor:
#      x y z
#    x 3.269560 0.000000 0.000000 
#    y 0.000000 3.269570 0.000000 
#    z 0.000000 0.000000 3.737250 
# 
# 
# High freq. dielectric constant tensor:
#      x y z
#    x 1.688820 0.000000 0.000000 
#    y 0.000000 1.688820 0.000000 
#    z 0.000000 0.000000 1.736000 
# 
# From -- ./inp_files/5810.got.cif
#   From: 2010.03.12/outbox.cif.g09.slc.cpg/sg115_3_cif.got.tgz:5810.got - 2010.04.14 02:11:21.
