data_PCOD8310375
_publ_section_title
;
Structure prediction by ZEFSAII (Michael W. Deem and Ramdas Pophale) SiO2 
 PCOD8310375
Probable space group: P -4 B 2
;
_chemical_formula_sum "Si O2"
_cell_formula_units_Z 42
_cell_length_a 14.855038
_cell_length_b 14.855038
_cell_length_c 9.192291
_cell_angle_alpha 90.000000
_cell_angle_beta 90.000000
_cell_angle_gamma 90.000000
_cell_volume 2028.482655
_symmetry_space_group_name_H-M "P -4 B 2"
_symmetry_group_IT_number 117
_symmetry_cell_setting 'tetragonal'
loop_
_space_group_symop_operation_xyz
x,y,z
y,-x,-z
-x,-y,z
-y,x,-z
1/2+y,1/2+x,-z
1/2-y,1/2-x,-z
1/2-x,1/2+y,z
1/2+x,1/2-y,z
loop_
_atom_site_type_symbol
_atom_site_label
_atom_site_fract_x
_atom_site_fract_y
_atom_site_fract_z
Si Si1 0.868260 0.850753 0.480353
Si Si2 0.000000 0.000000 0.500000
Si Si3 0.254024 0.088675 0.734437
Si Si4 0.394151 0.229446 0.748871
Si Si5 0.469646 0.353648 0.001063
Si Si6 0.023978 0.329596 0.509784
O O1 0.829017 0.878029 0.636528
O O2 0.791071 0.839124 0.363277
O O3 0.913817 0.756855 0.506389
O O4 0.937843 0.926938 0.414936
O O5 0.314465 0.166214 0.812400
O O6 0.209752 0.026221 0.857295
O O7 0.325860 0.037149 0.633700
O O8 0.467876 0.171843 0.659517
O O9 0.443683 0.289112 0.868461
O O10 0.395495 0.431823 0.023675
O O11 0.078568 0.421433 0.500000
#
# Coordination Sequence:
#
# PCOD8310375 Si02
#       6
#     8   2   8   8   8   8
#     4  11  21  35  62  92 122 159 200 260 316 361
#     4  12  20  32  64  90 132 144 208 262 324 364
#     4  11  23  40  60  88 125 163 202 251 305 364
#     4  11  23  40  60  88 125 163 202 251 305 364
#     4  11  25  40  64  91 121 159 204 251 314 370
#     4  11  22  39  65  93 120 160 211 254 301 363
#
# _framework density 20.705131000000002
#
# number of rings (size 3 to 8) (size 9 to 14) (size 15 to 20)
#    0.000    0.952    3.810    6.286    0.000    1.524 
#    0.000    2.857    0.000    2.286    0.000    0.000 
#    0.000    0.000    0.000    0.000    0.000    0.000 
#
# Total GULP energy -520545.596101 kJ/mol
# GULP energy per Si atom -12393.942764 kJ/mol
# Density = 2.065801 g / cm^3
# Si number density = 20.705131 Si / 1000 Ang^3
#
#
#
# Elastic Constant Matrix: (Units=GPa)
#
#
# Indices 1 2 3 4 5 6 
#
# 1 79.0626 56.6869 22.7659 0.0000 0.0000 0.0000
# 2 56.6869 79.0574 22.7668 0.0000 0.0000 0.0000
# 3 22.7659 22.7668 95.6983 0.0000 0.0000 0.0000
# 4 0.0000 0.0000 0.0000 226.6905 0.0000 0.0000
# 5 0.0000 0.0000 0.0000 0.0000 226.5474 0.0000
# 6 0.0000 0.0000 0.0000 0.0000 0.0000 54.8751
#
#
#
# Elastic Compliance Matrix: (Units=1/GPa)
#
#
# Indices 1 2 3 4 5 6 
#
# 1 0.026350 -0.018346 -0.001904 0.000000 0.000000 0.000000
# 2 -0.018346 0.026352 -0.001905 0.000000 0.000000 0.000000
# 3 -0.001904 -0.001905 0.011356 0.000000 0.000000 0.000000
# 4 0.000000 0.000000 0.000000 0.004411 0.000000 0.000000
# 5 0.000000 0.000000 0.000000 0.000000 0.004414 0.000000
# 6 0.000000 0.000000 0.000000 0.000000 0.000000 0.018223
#
#
# Mechanical properties :
#
#
# Convention : Reuss Voigt Hill
#
# Bulk Modulus (GPa) = 50.63635 50.91750 50.77692
# Shear Modulus (GPa) = 35.21176 111.72919 73.47048
#
# Velocity S-wave (km/s) = 4.12834 7.35386 5.96332
# Velocity P-wave (km/s) = 6.87265 9.83620 8.48481
#
# Compressibility (1/GPa) = 0.01974866
#
# Stress axis : x y z
#
# Youngs Moduli (GPa) = 37.95069 37.94782 88.06191
#
# Poissons Ratio (x) = 0.69617 0.16767
# Poissons Ratio (y) = 0.69623 0.16775
# Poissons Ratio (z) = 0.07226 0.07229
#
# Static dielectric constant tensor:
#      x y z
#    x 3.900350 0.000000 0.000000 
#    y 0.000000 3.900360 0.000000 
#    z 0.000000 0.000000 3.660770 
# 
# 
# High freq. dielectric constant tensor:
#      x y z
#    x 1.820120 0.000000 0.000000 
#    y 0.000000 1.820120 0.000000 
#    z 0.000000 0.000000 1.790050 
# 
# From -- ./inp_files/1770.got.cif
#   From: 2010.03.12/outbox.cif.g09.slc.cpg/sg117_1_cif.got.tgz:1770.got - 2010.04.14 02:19:01.
