data_PCOD8310422
_publ_section_title
;
Structure prediction by ZEFSAII (Michael W. Deem and Ramdas Pophale) SiO2 
 PCOD8310422
Probable space group: P -4 B 2
;
_chemical_formula_sum "Si O2"
_cell_formula_units_Z 26
_cell_length_a 14.855040
_cell_length_b 14.855040
_cell_length_c 5.005920
_cell_angle_alpha 90.000000
_cell_angle_beta 90.000000
_cell_angle_gamma 90.000000
_cell_volume 1104.667447
_symmetry_space_group_name_H-M "P -4 B 2"
_symmetry_group_IT_number 117
_symmetry_cell_setting 'tetragonal'
loop_
_space_group_symop_operation_xyz
x,y,z
y,-x,-z
-x,-y,z
-y,x,-z
1/2+y,1/2+x,-z
1/2-y,1/2-x,-z
1/2-x,1/2+y,z
1/2+x,1/2-y,z
loop_
_atom_site_type_symbol
_atom_site_label
_atom_site_fract_x
_atom_site_fract_y
_atom_site_fract_z
Si Si1 0.500000 0.500000 0.500000
Si Si2 0.171220 0.415375 0.748251
Si Si3 0.130374 0.856059 0.644688
Si Si4 0.742397 0.897154 0.880458
O O1 0.455271 0.584643 0.348177
O O2 0.108642 0.391359 0.500000
O O3 0.267944 0.368420 0.738673
O O4 0.180653 0.522965 0.769197
O O5 0.118786 0.381215 0.000000
O O6 0.135508 0.807438 0.358042
O O7 0.072296 0.801088 0.863223
O O8 0.683271 0.816730 0.000000
#
# Coordination Sequence:
#
# PCOD8310422 Si02
#       4
#     2   8   8   8
#     4  12  28  46  80 114 140 182 232 314 360 434
#     4  12  26  46  75 105 145 193 240 293 354 425
#     4  12  26  47  73 109 147 182 236 300 373 420
#     4  12  27  48  73 105 146 194 240 293 355 429
#
# _framework density 23.536493
#
# number of rings (size 3 to 8) (size 9 to 14) (size 15 to 20)
#    0.000    0.000    3.077    7.385    4.308    1.846 
#    0.000    1.538    0.000    0.000    0.000    0.000 
#    0.000    0.000    0.000    0.000    0.000    0.000 
#
# Total GULP energy -322404.806409 kJ/mol
# GULP energy per Si atom -12400.184862 kJ/mol
# Density = 2.348292 g / cm^3
# Si number density = 23.536493 Si / 1000 Ang^3
#
#
#
# Elastic Constant Matrix: (Units=GPa)
#
#
# Indices 1 2 3 4 5 6 
#
# 1 75.6348 -2.0138 21.2982 0.0000 0.0000 0.0000
# 2 -2.0138 75.6347 21.2967 0.0000 0.0000 0.0000
# 3 21.2982 21.2967 151.6893 0.0000 0.0000 0.0000
# 4 0.0000 0.0000 0.0000 33.2533 0.0000 0.0000
# 5 0.0000 0.0000 0.0000 0.0000 33.2550 0.0000
# 6 0.0000 0.0000 0.0000 0.0000 0.0000 33.6858
#
#
#
# Elastic Compliance Matrix: (Units=1/GPa)
#
#
# Indices 1 2 3 4 5 6 
#
# 1 0.013831 0.000953 -0.002076 0.000000 0.000000 0.000000
# 2 0.000953 0.013831 -0.002076 0.000000 0.000000 0.000000
# 3 -0.002076 -0.002076 0.007175 0.000000 0.000000 0.000000
# 4 0.000000 0.000000 0.000000 0.030072 0.000000 0.000000
# 5 0.000000 0.000000 0.000000 0.000000 0.030071 0.000000
# 6 0.000000 0.000000 0.000000 0.000000 0.000000 0.029686
#
#
# Mechanical properties :
#
#
# Convention : Reuss Voigt Hill
#
# Bulk Modulus (GPa) = 35.16105 42.68009 38.92057
# Shear Modulus (GPa) = 35.57598 37.53069 36.55333
#
# Velocity S-wave (km/s) = 3.89205 3.99754 3.94515
# Velocity P-wave (km/s) = 5.93033 6.28332 6.10937
#
# Compressibility (1/GPa) = 0.02844056
#
# Stress axis : x y z
#
# Youngs Moduli (GPa) = 72.29966 72.29996 139.36720
#
# Poissons Ratio (x) = -0.06888 0.28929
# Poissons Ratio (y) = -0.06888 0.28928
# Poissons Ratio (z) = 0.15008 0.15007
#
# Static dielectric constant tensor:
#      x y z
#    x 4.290110 0.000000 0.000000 
#    y 0.000000 4.290100 0.000000 
#    z 0.000000 0.000000 4.442390 
# 
# 
# High freq. dielectric constant tensor:
#      x y z
#    x 1.940980 0.000000 0.000000 
#    y 0.000000 1.940980 0.000000 
#    z 0.000000 0.000000 1.943420 
# 
# From -- ./inp_files/303.got.cif
#   From: 2010.03.12/outbox.cif.g09.slc.cpg/sg117_1_cif.got.tgz:303.got - 2010.04.14 02:19:01.
