data_PCOD8310856
_publ_section_title
;
Structure prediction by ZEFSAII (Michael W. Deem and Ramdas Pophale) SiO2 
 PCOD8310856
Probable space group: I -4 M 2
;
_chemical_formula_sum "Si O2"
_cell_formula_units_Z 96
_cell_length_a 15.006923
_cell_length_b 15.006923
_cell_length_c 20.017215
_cell_angle_alpha 90.000000
_cell_angle_beta 90.000000
_cell_angle_gamma 90.000000
_cell_volume 4508.031710
_symmetry_space_group_name_H-M "I -4 M 2"
_symmetry_group_IT_number 119
_symmetry_cell_setting 'tetragonal'
loop_
_space_group_symop_operation_xyz
x,y,z
y,-x,-z
-x,-y,z
-y,x,-z
y,x,-z
-y,-x,-z
-x,y,z
x,-y,z
1/2+x,1/2+y,1/2+z
1/2+y,1/2-x,1/2-z
1/2-x,1/2-y,1/2+z
1/2-y,1/2+x,1/2-z
1/2+y,1/2+x,1/2-z
1/2-y,1/2-x,1/2-z
1/2-x,1/2+y,1/2+z
1/2+x,1/2-y,1/2+z
loop_
_atom_site_type_symbol
_atom_site_label
_atom_site_fract_x
_atom_site_fract_y
_atom_site_fract_z
Si Si1 0.780399 0.397422 0.441897
Si Si2 0.600078 0.106231 0.823546
Si Si3 0.899923 0.335385 0.914401
Si Si4 0.638851 0.401029 0.618832
Si Si5 0.604636 0.595275 0.232177
Si Si6 0.785713 0.398458 0.801868
O O1 0.805406 0.500000 0.445060
O O2 0.833821 0.353113 0.379830
O O3 0.814768 0.357949 0.512390
O O4 0.673772 0.387362 0.435344
O O5 0.500000 0.142128 0.836987
O O6 0.635657 0.135657 0.750000
O O7 0.599385 0.000000 0.824872
O O8 0.904567 0.244610 0.872347
O O9 0.830864 0.398296 0.875236
O O10 0.000000 0.377474 0.918123
O O11 0.604836 0.500000 0.596271
O O12 0.598042 0.372329 0.689341
O O13 0.500000 0.592515 0.221377
O O14 0.645222 0.500000 0.205390
O O15 0.641383 0.684051 0.194927
O O16 0.782070 0.500000 0.776044
O O17 0.843780 0.343780 0.750000
#
# Coordination Sequence:
#
# PCOD8310856 Si02
#       6
#    16  16  16  16  16  16
#     4  10  20  33  54  82 114 151 195 244 296 358
#     4   8  15  31  53  75 106 148 190 236 289 345
#     4  10  21  36  52  80 121 159 196 240 296 360
#     4  10  19  35  57  80 112 153 197 247 302 362
#     4   9  18  34  58  87 120 156 198 251 306 358
#     4  11  21  36  59  87 124 165 206 253 301 357
#
# _framework density 21.295325999999999
#
# number of rings (size 3 to 8) (size 9 to 14) (size 15 to 20)
#    0.000    2.333    1.667    2.000    0.000    2.833 
#    3.000    2.500    0.000    6.000    0.000    1.167 
#    0.000    1.667    0.000    5.333    0.000    0.000 
#
# Total GULP energy -594727.341616 kJ/mol
# GULP energy per Si atom -12390.152950 kJ/mol
# Density = 2.124686 g / cm^3
# Si number density = 21.295326 Si / 1000 Ang^3
#
#
#
# Elastic Constant Matrix: (Units=GPa)
#
#
# Indices 1 2 3 4 5 6 
#
# 1 98.2446 26.2922 52.0330 0.0000 0.0000 0.0000
# 2 26.2922 98.2446 52.0330 0.0000 0.0000 0.0000
# 3 52.0330 52.0330 119.4507 0.0000 0.0000 0.0000
# 4 0.0000 0.0000 0.0000 27.7684 0.0000 0.0000
# 5 0.0000 0.0000 0.0000 0.0000 27.7684 0.0000
# 6 0.0000 0.0000 0.0000 0.0000 0.0000 12.0717
#
#
#
# Elastic Compliance Matrix: (Units=1/GPa)
#
#
# Indices 1 2 3 4 5 6 
#
# 1 0.013262 -0.000636 -0.005500 0.000000 0.000000 0.000000
# 2 -0.000636 0.013262 -0.005500 0.000000 0.000000 0.000000
# 3 -0.005500 -0.005500 0.013163 0.000000 0.000000 0.000000
# 4 0.000000 0.000000 0.000000 0.036012 0.000000 0.000000
# 5 0.000000 0.000000 0.000000 0.000000 0.036012 0.000000
# 6 0.000000 0.000000 0.000000 0.000000 0.000000 0.082838
#
#
# Mechanical properties :
#
#
# Convention : Reuss Voigt Hill
#
# Bulk Modulus (GPa) = 60.91927 64.07292 62.49609
# Shear Modulus (GPa) = 22.39217 25.89379 24.14298
#
# Velocity S-wave (km/s) = 3.24621 3.49081 3.37073
# Velocity P-wave (km/s) = 6.53602 6.81181 6.67534
#
# Compressibility (1/GPa) = 0.01641517
#
# Stress axis : x y z
#
# Youngs Moduli (GPa) = 75.40486 75.40486 75.97058
#
# Poissons Ratio (x) = 0.04798 0.41781
# Poissons Ratio (y) = 0.04798 0.41781
# Poissons Ratio (z) = 0.41470 0.41470
#
# Static dielectric constant tensor:
#      x y z
#    x 3.916440 0.000000 0.000000 
#    y 0.000000 3.916440 0.000000 
#    z 0.000000 0.000000 3.970450 
# 
# 
# High freq. dielectric constant tensor:
#      x y z
#    x 1.818790 0.000000 0.000000 
#    y 0.000000 1.818790 0.000000 
#    z 0.000000 0.000000 1.816290 
# 
# From -- ./inp_files/7775.got.cif
#   From: 2010.03.12/outbox.cif.g09.slc.cpg/sg119_4_cif.got.tgz:7775.got - 2010.04.14 02:25:26.
