data_PCOD8310550
_publ_section_title
;
Structure prediction by ZEFSAII (Michael W. Deem and Ramdas Pophale) SiO2 
 PCOD8310550
Probable space group: P -4 N 2
;
_chemical_formula_sum "Si O2"
_cell_formula_units_Z 34
_cell_length_a 11.093712
_cell_length_b 11.093712
_cell_length_c 15.930614
_cell_angle_alpha 90.000000
_cell_angle_beta 90.000000
_cell_angle_gamma 90.000000
_cell_volume 1960.587769
_symmetry_space_group_name_H-M "P -4 N 2"
_symmetry_group_IT_number 118
_symmetry_cell_setting 'tetragonal'
loop_
_space_group_symop_operation_xyz
x,y,z
y,-x,-z
-x,-y,z
-y,x,-z
1/2+y,1/2+x,1/2-z
1/2-y,1/2-x,1/2-z
1/2-x,1/2+y,1/2+z
1/2+x,1/2-y,1/2+z
loop_
_atom_site_type_symbol
_atom_site_label
_atom_site_fract_x
_atom_site_fract_y
_atom_site_fract_z
Si Si1 0.262724 0.158846 0.580864
Si Si2 0.782540 0.604942 0.057776
Si Si3 0.500000 0.500000 0.500000
Si Si4 0.006241 0.142496 0.299639
Si Si5 0.987806 0.776471 0.113208
O O1 0.169239 0.228543 0.522798
O O2 0.372451 0.246598 0.600969
O O3 0.308370 0.035621 0.535291
O O4 0.194978 0.122483 0.667668
O O5 0.686014 0.609930 0.134851
O O6 0.907492 0.663999 0.085791
O O7 0.391812 0.452383 0.442141
O O8 0.038846 0.195549 0.209613
O O9 0.000000 0.000000 0.295981
#
# Coordination Sequence:
#
# PCOD8310550 Si02
#       5
#     8   8   2   8   8
#     4  10  22  36  61  87 120 152 204 248 306 361
#     4  10  22  36  61  87 120 152 204 248 306 361
#     4  12  24  36  60  84 114 156 204 240 324 352
#     4  10  22  36  61  87 120 152 204 248 306 361
#     4  12  21  42  57  87 120 162 198 255 300 376
#
# _framework density 17.341737999999999
#
# number of rings (size 3 to 8) (size 9 to 14) (size 15 to 20)
#    1.412    0.000    3.529    3.529    0.000    0.000 
#    4.235    0.000    0.000    0.000    0.000    0.000 
#    0.000    0.000    0.000    0.000    0.000    0.000 
#
# Total GULP energy -421449.147471 kJ/mol
# GULP energy per Si atom -12395.563161 kJ/mol
# Density = 1.730227 g / cm^3
# Si number density = 17.341738 Si / 1000 Ang^3
#
#
#
# Elastic Constant Matrix: (Units=GPa)
#
#
# Indices 1 2 3 4 5 6 
#
# 1 52.2366 1.2011 4.1843 0.0000 0.0000 0.0000
# 2 1.2011 52.2366 4.1843 0.0000 0.0000 0.0000
# 3 4.1843 4.1843 74.3817 0.0000 0.0000 0.0000
# 4 0.0000 0.0000 0.0000 24.5167 0.0000 0.0000
# 5 0.0000 0.0000 0.0000 0.0000 24.5167 0.0000
# 6 0.0000 0.0000 0.0000 0.0000 0.0000 28.7486
#
#
#
# Elastic Compliance Matrix: (Units=1/GPa)
#
#
# Indices 1 2 3 4 5 6 
#
# 1 0.019237 -0.000357 -0.001062 0.000000 0.000000 0.000000
# 2 -0.000357 0.019237 -0.001062 0.000000 0.000000 0.000000
# 3 -0.001062 -0.001062 0.013564 0.000000 0.000000 0.000000
# 4 0.000000 0.000000 0.000000 0.040788 0.000000 0.000000
# 5 0.000000 0.000000 0.000000 0.000000 0.040788 0.000000
# 6 0.000000 0.000000 0.000000 0.000000 0.000000 0.034784
#
#
# Mechanical properties :
#
#
# Convention : Reuss Voigt Hill
#
# Bulk Modulus (GPa) = 21.24280 21.99938 21.62109
# Shear Modulus (GPa) = 26.44759 26.84209 26.64484
#
# Velocity S-wave (km/s) = 3.90947 3.93852 3.92402
# Velocity P-wave (km/s) = 5.71443 5.77892 5.74676
#
# Compressibility (1/GPa) = 0.04707477
#
# Stress axis : x y z
#
# Youngs Moduli (GPa) = 51.98330 51.98330 73.72638
#
# Poissons Ratio (x) = 0.01857 0.07830
# Poissons Ratio (y) = 0.01857 0.07830
# Poissons Ratio (z) = 0.05521 0.05521
#
# Static dielectric constant tensor:
#      x y z
#    x 3.104370 0.000000 0.000000 
#    y 0.000000 3.104370 0.000000 
#    z 0.000000 0.000000 3.249600 
# 
# 
# High freq. dielectric constant tensor:
#      x y z
#    x 1.666820 0.000000 0.000000 
#    y 0.000000 1.666820 0.000000 
#    z 0.000000 0.000000 1.671170 
# 
# From -- ./inp_files/3969.got.cif
#   From: 2010.03.12/outbox.cif.g09.slc.cpg/sg118_2_cif.got.tgz:3969.got - 2010.04.14 02:21:17.
