data_PCOD8310332
_publ_section_title
;
Structure prediction by ZEFSAII (Michael W. Deem and Ramdas Pophale) SiO2 
 PCOD8310332
Probable space group: P -4 B 2
;
_chemical_formula_sum "Si O2"
_cell_formula_units_Z 54
_cell_length_a 14.823727
_cell_length_b 14.823727
_cell_length_c 11.652223
_cell_angle_alpha 90.000000
_cell_angle_beta 90.000000
_cell_angle_gamma 90.000000
_cell_volume 2560.493066
_symmetry_space_group_name_H-M "P -4 B 2"
_symmetry_group_IT_number 117
_symmetry_cell_setting 'tetragonal'
loop_
_space_group_symop_operation_xyz
x,y,z
y,-x,-z
-x,-y,z
-y,x,-z
1/2+y,1/2+x,-z
1/2-y,1/2-x,-z
1/2-x,1/2+y,z
1/2+x,1/2-y,z
loop_
_atom_site_type_symbol
_atom_site_label
_atom_site_fract_x
_atom_site_fract_y
_atom_site_fract_z
Si Si1 0.419704 0.380855 0.994018
Si Si2 0.956703 0.189939 0.574380
Si Si3 0.271924 0.888908 0.573034
Si Si4 0.875664 0.298919 0.115471
Si Si5 0.500000 0.500000 0.500000
Si Si6 0.153779 0.653779 0.500000
Si Si7 0.196397 0.153575 0.229218
Si Si8 0.024412 0.601845 0.305190
O O1 0.359584 0.363444 0.882601
O O2 0.386077 0.475825 0.044797
O O3 0.404935 0.303160 0.088085
O O4 0.953018 0.080600 0.571698
O O5 0.871356 0.238816 0.505981
O O6 0.943446 0.216749 0.709152
O O7 0.048716 0.223085 0.520332
O O8 0.303546 0.803546 0.500000
O O9 0.207630 0.859780 0.676061
O O10 0.356256 0.939278 0.629758
O O11 0.787294 0.294243 0.195534
O O12 0.955959 0.346849 0.185257
O O13 0.855707 0.355707 0.000000
O O14 0.111409 0.607527 0.387132
O O15 0.000000 0.500000 0.274409
#
# Coordination Sequence:
#
# PCOD8310332 Si02
#       8
#     8   8   8   8   2   4   8   8
#     4  10  23  46  70  96 126 173 233 288 344 407
#     4  11  23  41  62  98 137 179 221 278 340 423
#     4  11  25  39  65 101 136 177 225 267 342 422
#     4  10  23  43  68  93 132 179 226 286 335 398
#     4  12  24  40  60  92 142 168 228 284 332 424
#     4  10  21  40  64  92 132 187 222 270 350 422
#     4  11  23  42  64  96 134 176 227 277 346 402
#     4  11  21  40  65  94 134 173 224 275 331 403
#
# _framework density 21.089687999999999
#
# number of rings (size 3 to 8) (size 9 to 14) (size 15 to 20)
#    0.000    1.333    2.963    2.889    1.037    2.667 
#    8.000    0.000    0.000    0.000    0.000    0.000 
#    0.000    0.000    0.000    0.000    0.000    0.000 
#
# Total GULP energy -669289.680280 kJ/mol
# GULP energy per Si atom -12394.253339 kJ/mol
# Density = 2.104169 g / cm^3
# Si number density = 21.089688 Si / 1000 Ang^3
#
#
#
# Elastic Constant Matrix: (Units=GPa)
#
#
# Indices 1 2 3 4 5 6 
#
# 1 117.1579 47.7630 42.7299 0.0000 0.0000 0.0000
# 2 47.7630 117.1579 42.7299 0.0000 0.0000 0.0000
# 3 42.7299 42.7299 94.9511 0.0000 0.0000 0.0000
# 4 0.0000 0.0000 0.0000 38.5381 0.0000 0.0000
# 5 0.0000 0.0000 0.0000 0.0000 38.5381 0.0000
# 6 0.0000 0.0000 0.0000 0.0000 0.0000 22.4387
#
#
#
# Elastic Compliance Matrix: (Units=1/GPa)
#
#
# Indices 1 2 3 4 5 6 
#
# 1 0.011159 -0.003251 -0.003559 0.000000 0.000000 0.000000
# 2 -0.003251 0.011159 -0.003559 0.000000 0.000000 0.000000
# 3 -0.003559 -0.003559 0.013735 0.000000 0.000000 0.000000
# 4 0.000000 0.000000 0.000000 0.025948 0.000000 0.000000
# 5 0.000000 0.000000 0.000000 0.000000 0.025948 0.000000
# 6 0.000000 0.000000 0.000000 0.000000 0.000000 0.044566
#
#
# Mechanical properties :
#
#
# Convention : Reuss Voigt Hill
#
# Bulk Modulus (GPa) = 65.29367 66.19029 65.74198
# Shear Modulus (GPa) = 31.57423 32.97258 32.27340
#
# Velocity S-wave (km/s) = 3.87349 3.95833 3.91614
# Velocity P-wave (km/s) = 7.14370 7.23495 7.18947
#
# Compressibility (1/GPa) = 0.01531542
#
# Stress axis : x y z
#
# Youngs Moduli (GPa) = 89.61460 89.61460 72.80906
#
# Poissons Ratio (x) = 0.29137 0.25909
# Poissons Ratio (y) = 0.29137 0.25909
# Poissons Ratio (z) = 0.31890 0.31890
#
# Static dielectric constant tensor:
#      x y z
#    x 3.927210 0.000000 0.000000 
#    y 0.000000 3.927210 0.000000 
#    z 0.000000 0.000000 3.933650 
# 
# 
# High freq. dielectric constant tensor:
#      x y z
#    x 1.832940 0.000000 0.000000 
#    y 0.000000 1.832940 0.000000 
#    z 0.000000 0.000000 1.821250 
# 
# From -- ./inp_files/2895.got.cif
#   From: 2010.03.12/outbox.cif.g09.slc.cpg/sg117_2_cif.got.tgz:2895.got - 2010.04.14 02:19:01.
