data_PCOD8310681
_publ_section_title
;
Structure prediction by ZEFSAII (Michael W. Deem and Ramdas Pophale) SiO2 
 PCOD8310681
Probable space group: I -4 M 2
;
_chemical_formula_sum "Si O2"
_cell_formula_units_Z 120
_cell_length_a 21.214755
_cell_length_b 21.214755
_cell_length_c 16.653343
_cell_angle_alpha 90.000000
_cell_angle_beta 90.000000
_cell_angle_gamma 90.000000
_cell_volume 7495.100635
_symmetry_space_group_name_H-M "I -4 M 2"
_symmetry_group_IT_number 119
_symmetry_cell_setting 'tetragonal'
loop_
_space_group_symop_operation_xyz
x,y,z
y,-x,-z
-x,-y,z
-y,x,-z
y,x,-z
-y,-x,-z
-x,y,z
x,-y,z
1/2+x,1/2+y,1/2+z
1/2+y,1/2-x,1/2-z
1/2-x,1/2-y,1/2+z
1/2-y,1/2+x,1/2-z
1/2+y,1/2+x,1/2-z
1/2-y,1/2-x,1/2-z
1/2-x,1/2+y,1/2+z
1/2+x,1/2-y,1/2+z
loop_
_atom_site_type_symbol
_atom_site_label
_atom_site_fract_x
_atom_site_fract_y
_atom_site_fract_z
Si Si1 0.241299 0.841555 0.221980
Si Si2 0.776342 0.074508 0.523406
Si Si3 0.647259 0.859383 0.534294
Si Si4 0.930492 0.425548 0.336628
Si Si5 0.926631 0.324484 0.876394
Si Si6 0.182106 0.840293 0.387684
Si Si7 0.717790 0.256585 0.583787
Si Si8 0.429137 0.929137 0.250000
O O1 0.302197 0.802197 0.250000
O O2 0.265253 0.905129 0.178356
O O3 0.193499 0.857872 0.294475
O O4 0.200960 0.800773 0.158605
O O5 0.701977 0.089809 0.516338
O O6 0.809838 0.096707 0.440790
O O7 0.809069 0.113051 0.597315
O O8 0.786624 0.000000 0.536249
O O9 0.592820 0.889374 0.587361
O O10 0.616827 0.829791 0.454582
O O11 0.673925 0.803952 0.589971
O O12 0.934554 0.500000 0.333297
O O13 0.902493 0.402493 0.250000
O O14 0.000000 0.396369 0.349039
O O15 0.913547 0.387797 0.827129
O O16 0.000000 0.315926 0.899011
O O17 0.236522 0.791643 0.415608
O O18 0.706588 0.293413 0.500000
O O19 0.500000 0.917438 0.220164
#
# Coordination Sequence:
#
# PCOD8310681 Si02
#       8
#    16  16  16  16  16  16  16   8
#     4  10  18  31  50  70  90 127 163 202 247 294
#     4  10  19  31  51  73  97 126 154 196 245 294
#     4  11  19  31  48  72  96 123 163 208 244 288
#     4   9  19  34  47  62  92 133 173 209 242 280
#     4  11  21  31  46  69  98 132 172 206 235 281
#     4   9  18  33  47  71  99 117 155 198 234 297
#     4  10  16  31  49  65  92 121 156 199 250 292
#     4   9  20  34  42  58  96 138 170 202 232 263
#
# _framework density 16.010458
#
# number of rings (size 3 to 8) (size 9 to 14) (size 15 to 20)
#    0.000    2.067    4.667    2.000    0.000    4.267 
#    0.000    1.333    0.000    4.000    0.000    0.000 
#    0.000    0.000    0.000    0.400    0.000    0.000 
#
# Total GULP energy -743719.134519 kJ/mol
# GULP energy per Si atom -12395.318909 kJ/mol
# Density = 1.597402 g / cm^3
# Si number density = 16.010458 Si / 1000 Ang^3
#
#
#
# Elastic Constant Matrix: (Units=GPa)
#
#
# Indices 1 2 3 4 5 6 
#
# 1 66.3949 34.1000 39.0474 0.0000 0.0000 0.0000
# 2 34.1000 66.3948 39.0474 0.0000 0.0000 0.0000
# 3 39.0474 39.0474 106.9940 0.0000 0.0000 0.0000
# 4 0.0000 0.0000 0.0000 24.1829 0.0000 0.0000
# 5 0.0000 0.0000 0.0000 0.0000 24.1829 0.0000
# 6 0.0000 0.0000 0.0000 0.0000 0.0000 19.1411
#
#
#
# Elastic Compliance Matrix: (Units=1/GPa)
#
#
# Indices 1 2 3 4 5 6 
#
# 1 0.022427 -0.008537 -0.005069 0.000000 0.000000 0.000000
# 2 -0.008537 0.022427 -0.005069 0.000000 0.000000 0.000000
# 3 -0.005069 -0.005069 0.013046 0.000000 0.000000 0.000000
# 4 0.000000 0.000000 0.000000 0.041351 0.000000 0.000000
# 5 0.000000 0.000000 0.000000 0.000000 0.041352 0.000000
# 6 0.000000 0.000000 0.000000 0.000000 0.000000 0.052244
#
#
# Mechanical properties :
#
#
# Convention : Reuss Voigt Hill
#
# Bulk Modulus (GPa) = 48.66252 51.57481 50.11867
# Shear Modulus (GPa) = 21.09272 22.00733 21.55002
#
# Velocity S-wave (km/s) = 3.63358 3.71153 3.67276
# Velocity P-wave (km/s) = 6.93283 7.11691 7.02547
#
# Compressibility (1/GPa) = 0.02054970
#
# Stress axis : x y z
#
# Youngs Moduli (GPa) = 44.58848 44.58843 76.65014
#
# Poissons Ratio (x) = 0.38067 0.38855
# Poissons Ratio (y) = 0.38067 0.38855
# Poissons Ratio (z) = 0.22603 0.22603
#
# Static dielectric constant tensor:
#      x y z
#    x 2.861250 0.000000 0.000000 
#    y 0.000000 2.861250 0.000000 
#    z 0.000000 0.000000 3.202760 
# 
# 
# High freq. dielectric constant tensor:
#      x y z
#    x 1.590630 0.000000 0.000000 
#    y 0.000000 1.590630 0.000000 
#    z 0.000000 0.000000 1.624460 
# 
# From -- ./inp_files/5640.got.cif
#   From: 2010.03.12/outbox.cif.g09.slc.cpg/sg119_3_cif.got.tgz:5640.got - 2010.04.14 02:25:26.
