data_PCOD8310298
_publ_section_title
;
Structure prediction by ZEFSAII (Michael W. Deem and Ramdas Pophale) SiO2 
 PCOD8310298
Probable space group: P -4 B 2
;
_chemical_formula_sum "Si O2"
_cell_formula_units_Z 38
_cell_length_a 14.009464
_cell_length_b 14.009464
_cell_length_c 9.377982
_cell_angle_alpha 90.000000
_cell_angle_beta 90.000000
_cell_angle_gamma 90.000000
_cell_volume 1840.570402
_symmetry_space_group_name_H-M "P -4 B 2"
_symmetry_group_IT_number 117
_symmetry_cell_setting 'tetragonal'
loop_
_space_group_symop_operation_xyz
x,y,z
y,-x,-z
-x,-y,z
-y,x,-z
1/2+y,1/2+x,-z
1/2-y,1/2-x,-z
1/2-x,1/2+y,z
1/2+x,1/2-y,z
loop_
_atom_site_type_symbol
_atom_site_label
_atom_site_fract_x
_atom_site_fract_y
_atom_site_fract_z
Si Si1 0.949586 0.847557 0.813167
Si Si2 0.000000 0.000000 0.000000
Si Si3 0.602628 0.381974 0.512514
Si Si4 0.953428 0.694065 0.037363
Si Si5 0.328323 0.335150 0.775225
Si Si6 0.669942 0.830059 0.000000
O O1 0.886921 0.837862 0.670597
O O2 0.062420 0.869660 0.793657
O O3 0.928179 0.751024 0.894146
O O4 0.920662 0.939714 0.908942
O O5 0.492188 0.369290 0.469774
O O6 0.669491 0.323454 0.399255
O O7 0.911082 0.749671 0.173274
O O8 0.065286 0.683164 0.064219
O O9 0.908542 0.591459 0.000000
O O10 0.309577 0.237957 0.863814
#
# Coordination Sequence:
#
# PCOD8310298 Si02
#       6
#     8   2   8   8   8   4
#     4  10  20  31  57  89 123 160 206 252 328 377
#     4  12  16  28  58  92 128 168 202 276 324 384
#     4   9  18  32  54  90 130 161 195 256 330 386
#     4  11  22  39  61  85 126 165 210 267 316 380
#     4  10  19  37  59  88 123 159 211 264 311 389
#     4  10  23  38  64  95 120 162 224 262 322 397
#
# _framework density 20.645773999999999
#
# number of rings (size 3 to 8) (size 9 to 14) (size 15 to 20)
#    0.000    1.895    3.158    2.842    0.000    0.000 
#    0.000    1.053    4.632    3.789    0.000    8.842 
#    0.000    0.000    0.000    0.000    0.000    0.000 
#
# Total GULP energy -470799.647042 kJ/mol
# GULP energy per Si atom -12389.464396 kJ/mol
# Density = 2.059878 g / cm^3
# Si number density = 20.645774 Si / 1000 Ang^3
#
#
#
# Elastic Constant Matrix: (Units=GPa)
#
#
# Indices 1 2 3 4 5 6 
#
# 1 74.8081 35.2987 50.5002 0.0000 0.0000 0.0000
# 2 35.2987 74.8112 50.5002 0.0000 0.0000 0.0000
# 3 50.5002 50.5002 175.0133 0.0000 0.0000 0.0000
# 4 0.0000 0.0000 0.0000 29.4013 0.0000 0.0000
# 5 0.0000 0.0000 0.0000 0.0000 29.4013 0.0000
# 6 0.0000 0.0000 0.0000 0.0000 0.0000 26.5019
#
#
#
# Elastic Compliance Matrix: (Units=1/GPa)
#
#
# Indices 1 2 3 4 5 6 
#
# 1 0.018831 -0.006479 -0.003564 0.000000 0.000000 0.000000
# 2 -0.006479 0.018830 -0.003564 0.000000 0.000000 0.000000
# 3 -0.003564 -0.003564 0.007771 0.000000 0.000000 0.000000
# 4 0.000000 0.000000 0.000000 0.034012 0.000000 0.000000
# 5 0.000000 0.000000 0.000000 0.000000 0.034012 0.000000
# 6 0.000000 0.000000 0.000000 0.000000 0.000000 0.037733
#
#
# Mechanical properties :
#
#
# Convention : Reuss Voigt Hill
#
# Bulk Modulus (GPa) = 54.89348 66.35897 60.62622
# Shear Modulus (GPa) = 27.10397 29.61646 28.36021
#
# Velocity S-wave (km/s) = 3.62720 3.79159 3.71031
# Velocity P-wave (km/s) = 6.64741 7.16796 6.91259
#
# Compressibility (1/GPa) = 0.01821710
#
# Stress axis : x y z
#
# Youngs Moduli (GPa) = 53.10468 53.10738 128.69031
#
# Poissons Ratio (x) = 0.34409 0.45866
# Poissons Ratio (y) = 0.34407 0.45862
# Poissons Ratio (z) = 0.18927 0.18926
#
# Static dielectric constant tensor:
#      x y z
#    x 3.614790 0.000000 0.000000 
#    y 0.000000 3.614770 0.000000 
#    z 0.000000 0.000000 4.101610 
# 
# 
# High freq. dielectric constant tensor:
#      x y z
#    x 1.789650 0.000000 0.000000 
#    y 0.000000 1.789650 0.000000 
#    z 0.000000 0.000000 1.812100 
# 
# From -- ./inp_files/1649.got.cif
#   From: 2010.03.12/outbox.cif.g09.slc.cpg/sg117_1_cif.got.tgz:1649.got - 2010.04.14 02:19:01.
