data_PCOD8310579
_publ_section_title
;
Structure prediction by ZEFSAII (Michael W. Deem and Ramdas Pophale) SiO2 
 PCOD8310579
Probable space group: P -4 N 2
;
_chemical_formula_sum "Si O2"
_cell_formula_units_Z 34
_cell_length_a 13.996225
_cell_length_b 13.996225
_cell_length_c 7.809180
_cell_angle_alpha 90.000000
_cell_angle_beta 90.000000
_cell_angle_gamma 90.000000
_cell_volume 1529.773961
_symmetry_space_group_name_H-M "P -4 N 2"
_symmetry_group_IT_number 118
_symmetry_cell_setting 'tetragonal'
loop_
_space_group_symop_operation_xyz
x,y,z
y,-x,-z
-x,-y,z
-y,x,-z
1/2+y,1/2+x,1/2-z
1/2-y,1/2-x,1/2-z
1/2-x,1/2+y,1/2+z
1/2+x,1/2-y,1/2+z
loop_
_atom_site_type_symbol
_atom_site_label
_atom_site_fract_x
_atom_site_fract_y
_atom_site_fract_z
Si Si1 0.030361 0.659192 0.372873
Si Si2 0.000000 0.000000 0.000000
Si Si3 0.662578 0.153636 0.054621
Si Si4 0.056681 0.179034 0.165814
Si Si5 0.275098 0.664135 0.892376
O O1 0.082395 0.582395 0.250000
O O2 0.092123 0.695016 0.536548
O O3 0.928215 0.618490 0.439136
O O4 0.014676 0.755743 0.271314
O O5 0.902459 0.985593 0.897441
O O6 0.633818 0.133818 0.250000
O O7 0.756575 0.098328 0.989748
O O8 0.682321 0.267042 0.040160
O O9 0.133944 0.123002 0.286792
O O10 0.229501 0.729501 0.750000
#
# Coordination Sequence:
#
# PCOD8310579 Si02
#       5
#     8   2   8   8   8
#     4  11  24  41  71 105 140 183 230 288 348 427
#     4  12  28  40  74 100 136 176 238 288 352 412
#     4  10  23  44  69  94 142 185 228 286 352 409
#     4  10  26  44  64 101 138 179 234 292 339 418
#     4   9  21  41  66  99 135 179 227 279 346 411
#
# _framework density 22.225505999999999
#
# number of rings (size 3 to 8) (size 9 to 14) (size 15 to 20)
#    0.000    1.882    0.000    2.824   13.176    3.765 
#    0.000    1.176    0.000    0.000    0.000    0.000 
#    0.000    0.000    0.000    0.000    0.000    0.000 
#
# Total GULP energy -421264.768542 kJ/mol
# GULP energy per Si atom -12390.140251 kJ/mol
# Density = 2.217492 g / cm^3
# Si number density = 22.225506 Si / 1000 Ang^3
#
#
#
# Elastic Constant Matrix: (Units=GPa)
#
#
# Indices 1 2 3 4 5 6 
#
# 1 87.8125 36.6069 33.5189 0.0000 0.0000 0.0000
# 2 36.6069 87.8125 33.5189 0.0000 0.0000 0.0000
# 3 33.5189 33.5189 107.6363 0.0000 0.0000 0.0000
# 4 0.0000 0.0000 0.0000 13.0196 0.0000 0.0000
# 5 0.0000 0.0000 0.0000 0.0000 13.0196 0.0000
# 6 0.0000 0.0000 0.0000 0.0000 0.0000 38.8968
#
#
#
# Elastic Compliance Matrix: (Units=1/GPa)
#
#
# Indices 1 2 3 4 5 6 
#
# 1 0.014593 -0.004936 -0.003008 0.000000 0.000000 0.000000
# 2 -0.004936 0.014593 -0.003008 0.000000 0.000000 0.000000
# 3 -0.003008 -0.003008 0.011164 0.000000 0.000000 0.000000
# 4 0.000000 0.000000 0.000000 0.076807 0.000000 0.000000
# 5 0.000000 0.000000 0.000000 0.000000 0.076807 0.000000
# 6 0.000000 0.000000 0.000000 0.000000 0.000000 0.025709
#
#
# Mechanical properties :
#
#
# Convention : Reuss Voigt Hill
#
# Bulk Modulus (GPa) = 54.20291 54.50562 54.35427
# Shear Modulus (GPa) = 20.18362 24.96164 22.57263
#
# Velocity S-wave (km/s) = 3.01679 3.35492 3.19033
# Velocity P-wave (km/s) = 6.04775 6.29162 6.17089
#
# Compressibility (1/GPa) = 0.01844919
#
# Stress axis : x y z
#
# Youngs Moduli (GPa) = 68.52388 68.52388 89.57614
#
# Poissons Ratio (x) = 0.33821 0.26940
# Poissons Ratio (y) = 0.33821 0.26940
# Poissons Ratio (z) = 0.20609 0.20609
#
# Static dielectric constant tensor:
#      x y z
#    x 3.997550 0.000000 0.000000 
#    y 0.000000 3.997550 0.000000 
#    z 0.000000 0.000000 4.120370 
# 
# 
# High freq. dielectric constant tensor:
#      x y z
#    x 1.870910 0.000000 0.000000 
#    y 0.000000 1.870910 0.000000 
#    z 0.000000 0.000000 1.877380 
# 
# From -- ./inp_files/1648.got.cif
#   From: 2010.03.12/outbox.cif.g09.slc.cpg/sg118_1_cif.got.tgz:1648.got - 2010.04.14 02:21:17.
