data_PCOD8310098
_publ_section_title
;
Structure prediction by ZEFSAII (Michael W. Deem and Ramdas Pophale) SiO2 
 PCOD8310098
Probable space group: P -4 C 2
;
_chemical_formula_sum "Si O2"
_cell_formula_units_Z 64
_cell_length_a 11.717177
_cell_length_b 11.717177
_cell_length_c 24.250758
_cell_angle_alpha 90.000000
_cell_angle_beta 90.000000
_cell_angle_gamma 90.000000
_cell_volume 3329.440811
_symmetry_space_group_name_H-M "P -4 C 2"
_symmetry_group_IT_number 116
_symmetry_cell_setting 'tetragonal'
loop_
_space_group_symop_operation_xyz
x,y,z
y,-x,-z
-x,-y,z
-y,x,-z
y,x,1/2-z
-y,-x,1/2-z
-x,y,1/2+z
x,-y,1/2+z
loop_
_atom_site_type_symbol
_atom_site_label
_atom_site_fract_x
_atom_site_fract_y
_atom_site_fract_z
Si Si1 0.589121 0.223454 0.760137
Si Si2 0.146605 0.819313 0.186093
Si Si3 0.114568 0.149368 0.999976
Si Si4 0.761262 0.495783 0.357676
Si Si5 0.106623 0.205527 0.198109
Si Si6 0.377849 0.310847 0.811322
Si Si7 0.724018 0.174481 0.599482
Si Si8 0.918559 0.298850 0.398225
O O1 0.670571 0.329430 0.750000
O O2 0.524707 0.189903 0.703588
O O3 0.662865 0.115523 0.781025
O O4 0.506353 0.263689 0.810206
O O5 0.156210 0.843791 0.250000
O O6 0.207516 0.701796 0.168319
O O7 0.211296 0.919349 0.153568
O O8 0.014338 0.814650 0.168880
O O9 0.191109 0.203360 0.049174
O O10 0.139733 0.231486 0.948750
O O11 0.979974 0.151633 0.015136
O O12 0.643275 0.422458 0.350470
O O13 0.743532 0.611641 0.393875
O O14 0.853908 0.416263 0.387256
O O15 0.120413 0.120413 0.250000
O O16 0.207389 0.181435 0.155878
O O17 0.346129 0.346129 0.750000
O O18 0.671736 0.049292 0.589948
#
# Coordination Sequence:
#
# PCOD8310098 Si02
#       8
#     8   8   8   8   8   8   8   8
#     4  10  19  35  51  79 112 147 191 237 282 341
#     4  10  20  33  49  77 116 152 183 228 284 349
#     4   9  19  36  60  85 111 150 197 243 293 350
#     4  10  19  35  56  81 108 144 193 235 280 338
#     4  11  21  32  48  82 120 150 183 230 292 347
#     4   8  18  33  50  73 101 145 187 226 274 328
#     4  11  20  35  56  84 113 149 191 243 285 342
#     4  10  21  36  57  82 111 154 197 234 286 350
#
# _framework density 19.222448
#
# number of rings (size 3 to 8) (size 9 to 14) (size 15 to 20)
#    0.000    2.125    2.500    2.625    0.000    5.500 
#    4.500    0.000    5.500    0.000    0.000    0.000 
#    0.000    0.000    0.000    0.000    0.000    0.000 
#
# Total GULP energy -793181.299481 kJ/mol
# GULP energy per Si atom -12393.457804 kJ/mol
# Density = 1.917870 g / cm^3
# Si number density = 19.222448 Si / 1000 Ang^3
#
#
#
# Elastic Constant Matrix: (Units=GPa)
#
#
# Indices 1 2 3 4 5 6 
#
# 1 89.0079 18.0196 21.0639 0.0000 0.0000 0.0000
# 2 18.0196 89.0079 21.0638 0.0000 0.0000 0.0000
# 3 21.0639 21.0638 85.0045 0.0000 0.0000 0.0000
# 4 0.0000 0.0000 0.0000 28.7553 0.0000 0.0000
# 5 0.0000 0.0000 0.0000 0.0000 28.7552 0.0000
# 6 0.0000 0.0000 0.0000 0.0000 0.0000 22.1740
#
#
#
# Elastic Compliance Matrix: (Units=1/GPa)
#
#
# Indices 1 2 3 4 5 6 
#
# 1 0.012220 -0.001867 -0.002565 0.000000 0.000000 0.000000
# 2 -0.001867 0.012220 -0.002565 0.000000 0.000000 0.000000
# 3 -0.002565 -0.002565 0.013036 0.000000 0.000000 0.000000
# 4 0.000000 0.000000 0.000000 0.034776 0.000000 0.000000
# 5 0.000000 0.000000 0.000000 0.000000 0.034776 0.000000
# 6 0.000000 0.000000 0.000000 0.000000 0.000000 0.045098
#
#
# Mechanical properties :
#
#
# Convention : Reuss Voigt Hill
#
# Bulk Modulus (GPa) = 42.58950 42.59056 42.59003
# Shear Modulus (GPa) = 28.74419 29.46176 29.10298
#
# Velocity S-wave (km/s) = 3.87116 3.91919 3.89525
# Velocity P-wave (km/s) = 6.49503 6.53336 6.51422
#
# Compressibility (1/GPa) = 0.02347997
#
# Stress axis : x y z
#
# Youngs Moduli (GPa) = 81.83289 81.83295 76.71345
#
# Poissons Ratio (x) = 0.15277 0.19681
# Poissons Ratio (y) = 0.15277 0.19681
# Poissons Ratio (z) = 0.20994 0.20994
#
# Static dielectric constant tensor:
#      x y z
#    x 3.633860 0.000000 0.000000 
#    y 0.000000 3.633870 0.000000 
#    z 0.000000 0.000000 3.414710 
# 
# 
# High freq. dielectric constant tensor:
#      x y z
#    x 1.743000 0.000000 0.000000 
#    y 0.000000 1.743000 0.000000 
#    z 0.000000 0.000000 1.717250 
# 
# From -- ./inp_files/4647.got.cif
#   From: 2010.03.12/outbox.cif.g09.slc.cpg/sg116_3_cif.got.tgz:4647.got - 2010.04.14 02:15:44.
