data_PCOD8310356
_publ_section_title
;
Structure prediction by ZEFSAII (Michael W. Deem and Ramdas Pophale) SiO2 
 PCOD8310356
Probable space group: P -4 B 2
;
_chemical_formula_sum "Si O2"
_cell_formula_units_Z 36
_cell_length_a 13.231752
_cell_length_b 13.231752
_cell_length_c 9.041690
_cell_angle_alpha 90.000000
_cell_angle_beta 90.000000
_cell_angle_gamma 90.000000
_cell_volume 1583.012403
_symmetry_space_group_name_H-M "P -4 B 2"
_symmetry_group_IT_number 117
_symmetry_cell_setting 'tetragonal'
loop_
_space_group_symop_operation_xyz
x,y,z
y,-x,-z
-x,-y,z
-y,x,-z
1/2+y,1/2+x,-z
1/2-y,1/2-x,-z
1/2-x,1/2+y,z
1/2+x,1/2-y,z
loop_
_atom_site_type_symbol
_atom_site_label
_atom_site_fract_x
_atom_site_fract_y
_atom_site_fract_z
Si Si1 0.000000 0.500000 0.500000
Si Si2 0.500000 0.500000 0.000000
Si Si3 0.204368 0.936402 0.933225
Si Si4 0.903930 0.247278 0.835317
Si Si5 0.066053 0.848039 0.517759
Si Si6 0.321528 0.052914 0.705956
O O1 0.999457 0.597755 0.398131
O O2 0.402355 0.492441 0.893711
O O3 0.178326 0.816084 0.935299
O O4 0.283631 0.960732 0.806152
O O5 0.244419 0.984250 0.088337
O O6 0.910407 0.196195 0.677064
O O7 0.866940 0.362168 0.815934
O O8 0.100327 0.766841 0.394535
O O9 0.947204 0.867857 0.505217
#
# Coordination Sequence:
#
# PCOD8310356 Si02
#       6
#     2   2   8   8   8   8
#     4  12  28  48  70  88 148 192 232 286 344 432
#     4   8  20  40  68 102 136 172 216 306 364 388
#     4  10  23  41  71  99 140 176 232 305 355 414
#     4  11  23  45  67 105 139 187 234 295 362 421
#     4  11  24  40  74 106 137 179 244 305 352 414
#     4  12  25  47  68 101 141 191 239 285 355 443
#
# _framework density 22.741451999999999
#
# number of rings (size 3 to 8) (size 9 to 14) (size 15 to 20)
#    0.000    1.111    4.444    0.667    9.333    1.778 
#    0.000    4.444    0.000    0.000    0.000    0.000 
#    0.000    0.000    0.000    0.000    0.000    0.000 
#
# Total GULP energy -446268.857595 kJ/mol
# GULP energy per Si atom -12396.357155 kJ/mol
# Density = 2.268969 g / cm^3
# Si number density = 22.741452 Si / 1000 Ang^3
#
#
#
# Elastic Constant Matrix: (Units=GPa)
#
#
# Indices 1 2 3 4 5 6 
#
# 1 87.8418 44.2542 22.1208 0.0000 0.0000 0.0000
# 2 44.2542 87.8418 22.1208 0.0000 0.0000 0.0000
# 3 22.1208 22.1208 55.7870 0.0000 0.0000 0.0000
# 4 0.0000 0.0000 0.0000 69.3618 0.0000 0.0000
# 5 0.0000 0.0000 0.0000 0.0000 69.3618 0.0000
# 6 0.0000 0.0000 0.0000 0.0000 0.0000 26.5055
#
#
#
# Elastic Compliance Matrix: (Units=1/GPa)
#
#
# Indices 1 2 3 4 5 6 
#
# 1 0.015836 -0.007106 -0.003461 0.000000 0.000000 0.000000
# 2 -0.007106 0.015836 -0.003461 0.000000 0.000000 0.000000
# 3 -0.003461 -0.003461 0.020670 0.000000 0.000000 0.000000
# 4 0.000000 0.000000 0.000000 0.014417 0.000000 0.000000
# 5 0.000000 0.000000 0.000000 0.000000 0.014417 0.000000
# 6 0.000000 0.000000 0.000000 0.000000 0.000000 0.037728
#
#
# Mechanical properties :
#
#
# Convention : Reuss Voigt Hill
#
# Bulk Modulus (GPa) = 41.17991 45.38467 43.28229
# Shear Modulus (GPa) = 32.24605 42.57748 37.41177
#
# Velocity S-wave (km/s) = 3.76964 4.33163 4.06037
# Velocity P-wave (km/s) = 6.09049 6.70951 6.40748
#
# Compressibility (1/GPa) = 0.02428369
#
# Stress axis : x y z
#
# Youngs Moduli (GPa) = 63.14751 63.14751 48.37833
#
# Poissons Ratio (x) = 0.44875 0.16746
# Poissons Ratio (y) = 0.44875 0.16746
# Poissons Ratio (z) = 0.21858 0.21858
#
# Static dielectric constant tensor:
#      x y z
#    x 4.141130 0.000000 0.000000 
#    y 0.000000 4.141130 0.000000 
#    z 0.000000 0.000000 4.216140 
# 
# 
# High freq. dielectric constant tensor:
#      x y z
#    x 1.892440 0.000000 0.000000 
#    y 0.000000 1.892440 0.000000 
#    z 0.000000 0.000000 1.904770 
# 
# From -- ./inp_files/1630.got.cif
#   From: 2010.03.12/outbox.cif.g09.slc.cpg/sg117_1_cif.got.tgz:1630.got - 2010.04.14 02:19:01.
