data_PCOD8310542
_publ_section_title
;
Structure prediction by ZEFSAII (Michael W. Deem and Ramdas Pophale) SiO2 
 PCOD8310542
Probable space group: P -4 N 2
;
_chemical_formula_sum "Si O2"
_cell_formula_units_Z 40
_cell_length_a 8.960703
_cell_length_b 8.960703
_cell_length_c 22.524666
_cell_angle_alpha 90.000000
_cell_angle_beta 90.000000
_cell_angle_gamma 90.000000
_cell_volume 1808.599997
_symmetry_space_group_name_H-M "P -4 N 2"
_symmetry_group_IT_number 118
_symmetry_cell_setting 'tetragonal'
loop_
_space_group_symop_operation_xyz
x,y,z
y,-x,-z
-x,-y,z
-y,x,-z
1/2+y,1/2+x,1/2-z
1/2-y,1/2-x,1/2-z
1/2-x,1/2+y,1/2+z
1/2+x,1/2-y,1/2+z
loop_
_atom_site_type_symbol
_atom_site_label
_atom_site_fract_x
_atom_site_fract_y
_atom_site_fract_z
Si Si1 0.782861 0.523942 0.207801
Si Si2 0.811349 0.747653 0.108557
Si Si3 0.600131 0.712269 0.677681
Si Si4 0.343805 0.953280 0.111624
Si Si5 0.269770 0.405715 0.996357
O O1 0.909345 0.590656 0.250000
O O2 0.727906 0.651206 0.161376
O O3 0.663725 0.458540 0.256056
O O4 0.849177 0.384335 0.172010
O O5 0.830767 0.638619 0.052719
O O6 0.971260 0.808326 0.129250
O O7 0.720725 0.891633 0.086334
O O8 0.737948 0.605404 0.663620
O O9 0.500000 0.000000 0.141280
O O10 0.367654 0.827413 0.061556
O O11 0.308065 0.579703 0.001557
#
# Coordination Sequence:
#
# PCOD8310542 Si02
#       5
#     8   8   8   8   8
#     4   9  19  42  74 101 126 184 242 279 343 426
#     4  11  22  42  72  99 138 178 237 295 350 433
#     4  10  21  42  71 100 138 181 237 289 350 425
#     4  12  26  44  62 106 146 183 235 302 368 423
#     4  11  25  45  70  98 136 189 235 287 369 442
#
# _framework density 22.116555000000002
#
# number of rings (size 3 to 8) (size 9 to 14) (size 15 to 20)
#    0.000    1.400    2.000    6.000    2.800    1.600 
#    0.000   20.000    0.000    0.000    0.000    0.000 
#    0.000    0.000    0.000    0.000    0.000    0.000 
#
# Total GULP energy -495557.233300 kJ/mol
# GULP energy per Si atom -12388.930832 kJ/mol
# Density = 2.206622 g / cm^3
# Si number density = 22.116555 Si / 1000 Ang^3
#
#
#
# Elastic Constant Matrix: (Units=GPa)
#
#
# Indices 1 2 3 4 5 6 
#
# 1 94.7889 60.3366 46.4022 0.0000 0.0000 0.0000
# 2 60.3366 94.7911 46.4032 0.0000 0.0000 0.0000
# 3 46.4022 46.4032 93.3463 0.0000 0.0000 0.0000
# 4 0.0000 0.0000 0.0000 30.1912 0.0000 0.0000
# 5 0.0000 0.0000 0.0000 0.0000 30.1911 0.0000
# 6 0.0000 0.0000 0.0000 0.0000 0.0000 36.8050
#
#
#
# Elastic Compliance Matrix: (Units=1/GPa)
#
#
# Indices 1 2 3 4 5 6 
#
# 1 0.019100 -0.009925 -0.004561 0.000000 0.000000 0.000000
# 2 -0.009925 0.019100 -0.004561 0.000000 0.000000 0.000000
# 3 -0.004561 -0.004561 0.015247 0.000000 0.000000 0.000000
# 4 0.000000 0.000000 0.000000 0.033122 0.000000 0.000000
# 5 0.000000 0.000000 0.000000 0.000000 0.033122 0.000000
# 6 0.000000 0.000000 0.000000 0.000000 0.000000 0.027170
#
#
# Mechanical properties :
#
#
# Convention : Reuss Voigt Hill
#
# Bulk Modulus (GPa) = 65.13141 65.46782 65.29961
# Shear Modulus (GPa) = 26.30572 28.08975 27.19773
#
# Velocity S-wave (km/s) = 3.45253 3.56768 3.51058
# Velocity P-wave (km/s) = 6.73842 6.82910 6.78392
#
# Compressibility (1/GPa) = 0.01535358
#
# Stress axis : x y z
#
# Youngs Moduli (GPa) = 52.35614 52.35706 65.58563
#
# Poissons Ratio (x) = 0.51964 0.29912
# Poissons Ratio (y) = 0.51963 0.29913
# Poissons Ratio (z) = 0.23879 0.23880
#
# Static dielectric constant tensor:
#      x y z
#    x 4.162710 0.000000 0.000000 
#    y 0.000000 4.162710 0.000000 
#    z 0.000000 0.000000 4.599650 
# 
# 
# High freq. dielectric constant tensor:
#      x y z
#    x 1.871630 0.000000 0.000000 
#    y 0.000000 1.871630 0.000000 
#    z 0.000000 0.000000 1.859810 
# 
# From -- ./inp_files/6043.got.cif
#   From: 2010.03.12/outbox.cif.g09.slc.cpg/sg118_4_cif.got.tgz:6043.got - 2010.04.14 02:21:17.
