data_PCOD8310058
_publ_section_title
;
Structure prediction by ZEFSAII (Michael W. Deem and Ramdas Pophale) SiO2 
 PCOD8310058
Probable space group: P -4 C 2
;
_chemical_formula_sum "Si O2"
_cell_formula_units_Z 64
_cell_length_a 27.979195
_cell_length_b 27.979195
_cell_length_c 5.221344
_cell_angle_alpha 90.000000
_cell_angle_beta 90.000000
_cell_angle_gamma 90.000000
_cell_volume 4087.452673
_symmetry_space_group_name_H-M "P -4 C 2"
_symmetry_group_IT_number 116
_symmetry_cell_setting 'tetragonal'
loop_
_space_group_symop_operation_xyz
x,y,z
y,-x,-z
-x,-y,z
-y,x,-z
y,x,1/2-z
-y,-x,1/2-z
-x,y,1/2+z
x,-y,1/2+z
loop_
_atom_site_type_symbol
_atom_site_label
_atom_site_fract_x
_atom_site_fract_y
_atom_site_fract_z
Si Si1 0.809955 0.730081 0.268173
Si Si2 0.873429 0.272368 0.268870
Si Si3 0.375335 0.809566 0.797444
Si Si4 0.521316 0.785112 0.228821
Si Si5 0.480423 0.106041 0.730486
Si Si6 0.132756 0.622990 0.202969
Si Si7 0.104876 0.971397 0.250663
Si Si8 0.217179 0.029021 0.749103
O O1 0.767604 0.767604 0.250000
O O2 0.836575 0.737247 0.538096
O O3 0.786128 0.676878 0.250273
O O4 0.847466 0.737832 0.038191
O O5 0.893602 0.326818 0.257841
O O6 0.918498 0.238622 0.242224
O O7 0.421403 0.777185 0.736803
O O8 0.378983 0.853238 0.595778
O O9 0.379448 0.823304 0.096225
O O10 0.497988 0.759236 0.474213
O O11 0.503007 0.840272 0.224182
O O12 0.497900 0.078956 0.476055
O O13 0.423241 0.101136 0.739271
O O14 0.080229 0.919772 0.250000
O O15 0.160963 0.962602 0.250532
O O16 0.088229 0.999847 0.501165
O O17 0.234035 0.001024 0.495804
#
# Coordination Sequence:
#
# PCOD8310058 Si02
#       8
#     8   8   8   8   8   8   8   8
#     4  10  21  33  46  66  95 125 157 185 221 259
#     4  10  21  34  52  69  90 119 154 192 222 260
#     4  10  16  25  37  55  82 118 143 183 216 263
#     4  10  14  20  34  53  78 109 142 171 228 265
#     4  10  14  20  34  54  84 110 133 168 225 269
#     4  10  16  25  38  61  85 110 138 180 219 267
#     4  10  21  35  53  77 100 121 140 163 200 248
#     4  10  21  39  57  74  96 117 146 181 216 253
#
# _framework density 15.657674
#
# number of rings (size 3 to 8) (size 9 to 14) (size 15 to 20)
#    0.000    2.000    5.000    1.500    0.000    1.750 
#    0.000    0.000    0.000    0.000    0.000    0.000 
#    0.000    3.000    0.000    0.000    0.000    0.000 
#
# Total GULP energy -792916.533893 kJ/mol
# GULP energy per Si atom -12389.320842 kJ/mol
# Density = 1.562204 g / cm^3
# Si number density = 15.657674 Si / 1000 Ang^3
#
#
#
# Elastic Constant Matrix: (Units=GPa)
#
#
# Indices 1 2 3 4 5 6 
#
# 1 60.3189 40.9136 21.6507 0.0000 0.0000 0.0000
# 2 40.9136 60.3252 21.6515 0.0000 0.0000 0.0000
# 3 21.6507 21.6515 122.2439 0.0000 0.0000 0.0000
# 4 0.0000 0.0000 0.0000 9.2631 0.0000 0.0000
# 5 0.0000 0.0000 0.0000 0.0000 9.2073 0.0000
# 6 0.0000 0.0000 0.0000 0.0000 0.0000 0.1745
#
#
#
# Elastic Compliance Matrix: (Units=1/GPa)
#
#
# Indices 1 2 3 4 5 6 
#
# 1 0.031108 -0.020418 -0.001893 0.000000 0.000000 0.000000
# 2 -0.020418 0.031104 -0.001893 0.000000 0.000000 0.000000
# 3 -0.001893 -0.001893 0.008851 0.000000 0.000000 0.000000
# 4 0.000000 0.000000 0.000000 0.107956 0.000000 0.000000
# 5 0.000000 0.000000 0.000000 0.000000 0.108610 0.000000
# 6 0.000000 0.000000 0.000000 0.000000 0.000000 5.730349
#
#
# Mechanical properties :
#
#
# Convention : Reuss Voigt Hill
#
# Bulk Modulus (GPa) = 44.14148 45.70217 44.92182
# Shear Modulus (GPa) = 0.82319 14.30711 7.56515
#
# Velocity S-wave (km/s) = 0.72587 3.02610 2.20047
# Velocity P-wave (km/s) = 5.38101 6.43905 5.93366
#
# Compressibility (1/GPa) = 0.02265443
#
# Stress axis : x y z
#
# Youngs Moduli (GPa) = 32.14656 32.14999 112.98296
#
# Poissons Ratio (x) = 0.65645 0.21388
# Poissons Ratio (y) = 0.65638 0.21385
# Poissons Ratio (z) = 0.06086 0.06085
#
# Static dielectric constant tensor:
#      x y z
#    x 2.791650 0.000000 0.000000 
#    y 0.000000 2.791640 0.000000 
#    z 0.000000 0.000000 4.149760 
# 
# 
# High freq. dielectric constant tensor:
#      x y z
#    x 1.562520 0.000000 0.000000 
#    y 0.000000 1.562520 0.000000 
#    z 0.000000 0.000000 1.640360 
# 
# From -- ./inp_files/287.got.cif
#   From: 2010.03.12/outbox.cif.g09.slc.cpg/sg116_1_cif.got.tgz:287.got - 2010.04.14 02:15:44.
