data_PCOD8310478
_publ_section_title
;
Structure prediction by ZEFSAII (Michael W. Deem and Ramdas Pophale) SiO2 
 PCOD8310478
Probable space group: P -4 N 2
;
_chemical_formula_sum "Si O2"
_cell_formula_units_Z 34
_cell_length_a 12.094402
_cell_length_b 12.094402
_cell_length_c 13.335297
_cell_angle_alpha 90.000000
_cell_angle_beta 90.000000
_cell_angle_gamma 90.000000
_cell_volume 1950.614698
_symmetry_space_group_name_H-M "P -4 N 2"
_symmetry_group_IT_number 118
_symmetry_cell_setting 'tetragonal'
loop_
_space_group_symop_operation_xyz
x,y,z
y,-x,-z
-x,-y,z
-y,x,-z
1/2+y,1/2+x,1/2-z
1/2-y,1/2-x,1/2-z
1/2-x,1/2+y,1/2+z
1/2+x,1/2-y,1/2+z
loop_
_atom_site_type_symbol
_atom_site_label
_atom_site_fract_x
_atom_site_fract_y
_atom_site_fract_z
Si Si1 0.452410 0.797202 0.816557
Si Si2 0.500000 0.500000 0.500000
Si Si3 0.724484 0.775598 0.135802
Si Si4 0.296352 0.476134 0.382269
Si Si5 0.908959 0.416117 0.482957
O O1 0.392035 0.892035 0.750000
O O2 0.358355 0.728735 0.877218
O O3 0.511722 0.717858 0.734570
O O4 0.543125 0.847373 0.889477
O O5 0.400243 0.540355 0.428748
O O6 0.693645 0.806356 0.250000
O O7 0.845368 0.822253 0.108337
O O8 0.631150 0.828666 0.065571
O O9 0.188387 0.505698 0.445524
O O10 0.000000 0.500000 0.528836
#
# Coordination Sequence:
#
# PCOD8310478 Si02
#       5
#     8   2   8   8   8
#     4   9  19  36  56  83 110 146 191 242 285 326
#     4  12  20  36  56  80 126 152 184 232 304 336
#     4   9  20  36  51  79 115 148 180 236 295 333
#     4  10  20  33  56  82 112 146 193 233 282 337
#     4  12  19  32  63  88 107 149 202 238 274 346
#
# _framework density 17.430403999999999
#
# number of rings (size 3 to 8) (size 9 to 14) (size 15 to 20)
#    0.000    2.353    7.059    0.706    0.000    0.471 
#    0.000    4.706    0.000    0.000    0.000    0.000 
#    0.000    0.000    0.000    0.000    0.000    0.000 
#
# Total GULP energy -421364.866231 kJ/mol
# GULP energy per Si atom -12393.084301 kJ/mol
# Density = 1.739073 g / cm^3
# Si number density = 17.430404 Si / 1000 Ang^3
#
#
#
# Elastic Constant Matrix: (Units=GPa)
#
#
# Indices 1 2 3 4 5 6 
#
# 1 87.0985 40.6704 56.4585 0.0000 0.0000 0.0000
# 2 40.6704 87.0983 56.4584 0.0000 0.0000 0.0000
# 3 56.4585 56.4584 106.6625 0.0000 0.0000 0.0000
# 4 0.0000 0.0000 0.0000 28.1571 0.0000 0.0000
# 5 0.0000 0.0000 0.0000 0.0000 28.1571 0.0000
# 6 0.0000 0.0000 0.0000 0.0000 0.0000 20.6732
#
#
#
# Elastic Compliance Matrix: (Units=1/GPa)
#
#
# Indices 1 2 3 4 5 6 
#
# 1 0.018122 -0.003416 -0.007784 0.000000 0.000000 0.000000
# 2 -0.003416 0.018122 -0.007784 0.000000 0.000000 0.000000
# 3 -0.007784 -0.007784 0.017616 0.000000 0.000000 0.000000
# 4 0.000000 0.000000 0.000000 0.035515 0.000000 0.000000
# 5 0.000000 0.000000 0.000000 0.000000 0.035515 0.000000
# 6 0.000000 0.000000 0.000000 0.000000 0.000000 0.048372
#
#
# Mechanical properties :
#
#
# Convention : Reuss Voigt Hill
#
# Bulk Modulus (GPa) = 62.92749 65.33707 64.13228
# Shear Modulus (GPa) = 23.09161 23.88228 23.48694
#
# Velocity S-wave (km/s) = 3.64371 3.70557 3.67477
# Velocity P-wave (km/s) = 7.34049 7.47491 7.40800
#
# Compressibility (1/GPa) = 0.01589130
#
# Stress axis : x y z
#
# Youngs Moduli (GPa) = 55.18060 55.18054 56.76685
#
# Poissons Ratio (x) = 0.18852 0.44188
# Poissons Ratio (y) = 0.18852 0.44188
# Poissons Ratio (z) = 0.42953 0.42953
#
# Static dielectric constant tensor:
#      x y z
#    x 3.185570 0.000000 0.000000 
#    y 0.000000 3.185560 0.000000 
#    z 0.000000 0.000000 3.442120 
# 
# 
# High freq. dielectric constant tensor:
#      x y z
#    x 1.660390 0.000000 0.000000 
#    y 0.000000 1.660390 0.000000 
#    z 0.000000 0.000000 1.669390 
# 
# From -- ./inp_files/3999.got.cif
#   From: 2010.03.12/outbox.cif.g09.slc.cpg/sg118_2_cif.got.tgz:3999.got - 2010.04.14 02:21:17.
