data_PCOD8310344
_publ_section_title
;
Structure prediction by ZEFSAII (Michael W. Deem and Ramdas Pophale) SiO2 
 PCOD8310344
Probable space group: P -4 B 2
;
_chemical_formula_sum "Si O2"
_cell_formula_units_Z 26
_cell_length_a 14.599297
_cell_length_b 14.599297
_cell_length_c 5.225564
_cell_angle_alpha 90.000000
_cell_angle_beta 90.000000
_cell_angle_gamma 90.000000
_cell_volume 1113.773957
_symmetry_space_group_name_H-M "P -4 B 2"
_symmetry_group_IT_number 117
_symmetry_cell_setting 'tetragonal'
loop_
_space_group_symop_operation_xyz
x,y,z
y,-x,-z
-x,-y,z
-y,x,-z
1/2+y,1/2+x,-z
1/2-y,1/2-x,-z
1/2-x,1/2+y,z
1/2+x,1/2-y,z
loop_
_atom_site_type_symbol
_atom_site_label
_atom_site_fract_x
_atom_site_fract_y
_atom_site_fract_z
Si Si1 0.000000 0.500000 0.500000
Si Si2 0.727800 0.382618 0.015821
Si Si3 0.811539 0.167810 0.480561
Si Si4 0.670100 0.054353 0.191516
O O1 0.998058 0.412033 0.681285
O O2 0.655602 0.364484 0.249829
O O3 0.771760 0.482775 0.028529
O O4 0.804430 0.304430 0.000000
O O5 0.666992 0.382009 0.757567
O O6 0.768801 0.268801 0.500000
O O7 0.730640 0.094830 0.424125
O O8 0.635013 0.135013 0.000000
#
# Coordination Sequence:
#
# PCOD8310344 Si02
#       4
#     2   8   8   8
#     4  12  26  36  64 106 140 160 200 294 358 388
#     4  10  23  40  64  93 131 178 228 266 337 414
#     4  10  22  41  63  90 133 184 220 267 330 423
#     4  12  25  42  65 103 140 175 222 290 356 396
#
# _framework density 23.344056999999999
#
# number of rings (size 3 to 8) (size 9 to 14) (size 15 to 20)
#    0.000    1.231    1.538    5.077   10.769    0.000 
#    0.000    0.000    0.000    5.538    0.000    0.000 
#    0.000    0.000    0.000    0.000    0.000    0.000 
#
# Total GULP energy -322317.459487 kJ/mol
# GULP energy per Si atom -12396.825365 kJ/mol
# Density = 2.329092 g / cm^3
# Si number density = 23.344057 Si / 1000 Ang^3
#
#
#
# Elastic Constant Matrix: (Units=GPa)
#
#
# Indices 1 2 3 4 5 6 
#
# 1 76.5055 56.6370 48.3103 0.0000 0.0000 0.0000
# 2 56.6370 76.5055 48.3103 0.0000 0.0000 0.0000
# 3 48.3103 48.3103 169.9545 0.0000 0.0000 0.0000
# 4 0.0000 0.0000 0.0000 31.3963 0.0000 0.0000
# 5 0.0000 0.0000 0.0000 0.0000 31.3963 0.0000
# 6 0.0000 0.0000 0.0000 0.0000 0.0000 51.4488
#
#
#
# Elastic Compliance Matrix: (Units=1/GPa)
#
#
# Indices 1 2 3 4 5 6 
#
# 1 0.029897 -0.020434 -0.002690 0.000000 0.000000 0.000000
# 2 -0.020434 0.029897 -0.002690 0.000000 0.000000 0.000000
# 3 -0.002690 -0.002690 0.007413 0.000000 0.000000 0.000000
# 4 0.000000 0.000000 0.000000 0.031851 0.000000 0.000000
# 5 0.000000 0.000000 0.000000 0.000000 0.031851 0.000000
# 6 0.000000 0.000000 0.000000 0.000000 0.000000 0.019437
#
#
# Mechanical properties :
#
#
# Convention : Reuss Voigt Hill
#
# Bulk Modulus (GPa) = 64.18775 69.94228 67.06502
# Shear Modulus (GPa) = 24.13527 34.16213 29.14870
#
# Velocity S-wave (km/s) = 3.21891 3.82962 3.53747
# Velocity P-wave (km/s) = 6.43205 7.04139 6.74361
#
# Compressibility (1/GPa) = 0.01557930
#
# Stress axis : x y z
#
# Youngs Moduli (GPa) = 33.44845 33.44845 134.89602
#
# Poissons Ratio (x) = 0.68349 0.36285
# Poissons Ratio (y) = 0.68349 0.36285
# Poissons Ratio (z) = 0.08997 0.08997
#
# Static dielectric constant tensor:
#      x y z
#    x 3.893040 0.000000 0.000000 
#    y 0.000000 3.893040 0.000000 
#    z 0.000000 0.000000 4.814280 
# 
# 
# High freq. dielectric constant tensor:
#      x y z
#    x 1.890410 0.000000 0.000000 
#    y 0.000000 1.890410 0.000000 
#    z 0.000000 0.000000 1.951150 
# 
# From -- ./inp_files/275.got.cif
#   From: 2010.03.12/outbox.cif.g09.slc.cpg/sg117_1_cif.got.tgz:275.got - 2010.04.14 02:19:01.
