data_PCOD8310925
_publ_section_title
;
Structure prediction by ZEFSAII (Michael W. Deem and Ramdas Pophale) SiO2 
 PCOD8310925
Probable space group: I -4 M 2
;
_chemical_formula_sum "Si O2"
_cell_formula_units_Z 64
_cell_length_a 19.432277
_cell_length_b 19.432277
_cell_length_c 8.557609
_cell_angle_alpha 90.000000
_cell_angle_beta 90.000000
_cell_angle_gamma 90.000000
_cell_volume 3231.467740
_symmetry_space_group_name_H-M "I -4 M 2"
_symmetry_group_IT_number 119
_symmetry_cell_setting 'tetragonal'
loop_
_space_group_symop_operation_xyz
x,y,z
y,-x,-z
-x,-y,z
-y,x,-z
y,x,-z
-y,-x,-z
-x,y,z
x,-y,z
1/2+x,1/2+y,1/2+z
1/2+y,1/2-x,1/2-z
1/2-x,1/2-y,1/2+z
1/2-y,1/2+x,1/2-z
1/2+y,1/2+x,1/2-z
1/2-y,1/2-x,1/2-z
1/2-x,1/2+y,1/2+z
1/2+x,1/2-y,1/2+z
loop_
_atom_site_type_symbol
_atom_site_label
_atom_site_fract_x
_atom_site_fract_y
_atom_site_fract_z
Si Si1 0.577999 0.299162 0.858023
Si Si2 0.826510 0.920694 0.296608
Si Si3 0.733859 0.167522 0.097627
Si Si4 0.918268 0.671381 0.156392
O O1 0.500000 0.304558 0.810924
O O2 0.606917 0.372962 0.808477
O O3 0.608949 0.236317 0.759063
O O4 0.588682 0.283375 0.042101
O O5 0.783446 0.894768 0.149362
O O6 0.848503 0.000000 0.271848
O O7 0.702596 0.202596 0.250000
O O8 0.774005 0.225996 0.000000
O O9 0.674854 0.127580 0.000553
O O10 0.898078 0.601923 0.250000
O O11 0.000000 0.670527 0.123066
#
# Coordination Sequence:
#
# PCOD8310925 Si02
#       4
#    16  16  16  16
#     4   9  19  35  58  86 121 164 209 251 302 369
#     4  10  20  35  57  86 123 162 204 256 308 361
#     4  12  24  37  61  91 125 161 213 264 322 376
#     4  11  23  42  65  92 124 163 209 262 323 385
#
# _framework density 19.805240999999999
#
# number of rings (size 3 to 8) (size 9 to 14) (size 15 to 20)
#    0.000    1.500    2.500    3.000    3.500    0.750 
#    0.000    3.750    0.000    0.000    0.000    0.000 
#    0.000    0.000    0.000    0.000    0.000    0.000 
#
# Total GULP energy -396671.340215 kJ/mol
# GULP energy per Si atom -12395.979382 kJ/mol
# Density = 1.976016 g / cm^3
# Si number density = 19.805241 Si / 1000 Ang^3
#
#
#
# Elastic Constant Matrix: (Units=GPa)
#
#
# Indices 1 2 3 4 5 6 
#
# 1 82.4911 37.2198 45.7373 0.0000 0.0000 0.0000
# 2 37.2198 82.4940 45.7386 0.0000 0.0000 0.0000
# 3 45.7373 45.7386 100.3936 0.0000 0.0000 0.0000
# 4 0.0000 0.0000 0.0000 35.1547 0.0000 0.0000
# 5 0.0000 0.0000 0.0000 0.0000 35.1546 0.0000
# 6 0.0000 0.0000 0.0000 0.0000 0.0000 28.0765
#
#
#
# Elastic Compliance Matrix: (Units=1/GPa)
#
#
# Indices 1 2 3 4 5 6 
#
# 1 0.017452 -0.004637 -0.005838 0.000000 0.000000 0.000000
# 2 -0.004637 0.017451 -0.005838 0.000000 0.000000 0.000000
# 3 -0.005838 -0.005838 0.015280 0.000000 0.000000 0.000000
# 4 0.000000 0.000000 0.000000 0.028446 0.000000 0.000000
# 5 0.000000 0.000000 0.000000 0.000000 0.028446 0.000000
# 6 0.000000 0.000000 0.000000 0.000000 0.000000 0.035617
#
#
# Mechanical properties :
#
#
# Convention : Reuss Voigt Hill
#
# Bulk Modulus (GPa) = 56.95791 58.08556 57.52173
# Shear Modulus (GPa) = 27.59840 28.78937 28.19389
#
# Velocity S-wave (km/s) = 3.73700 3.81678 3.77710
# Velocity P-wave (km/s) = 6.88779 6.98683 6.93749
#
# Compressibility (1/GPa) = 0.01755682
#
# Stress axis : x y z
#
# Youngs Moduli (GPa) = 57.30125 57.30294 65.44380
#
# Poissons Ratio (x) = 0.26571 0.38206
# Poissons Ratio (y) = 0.26570 0.38207
# Poissons Ratio (z) = 0.33453 0.33454
#
# Static dielectric constant tensor:
#      x y z
#    x 3.543160 0.000000 0.000000 
#    y 0.000000 3.543160 0.000000 
#    z 0.000000 0.000000 3.837360 
# 
# 
# High freq. dielectric constant tensor:
#      x y z
#    x 1.764360 0.000000 0.000000 
#    y 0.000000 1.764360 0.000000 
#    z 0.000000 0.000000 1.782760 
# 
# From -- ./inp_files/2270.got.cif
#   From: 2010.03.12/outbox.cif.g09.slc.cpg/sg119_2_cif.got.tgz:2270.got - 2010.04.14 02:25:26.
