data_PCOD8310233
_publ_section_title
;
Structure prediction by ZEFSAII (Michael W. Deem and Ramdas Pophale) SiO2 
 PCOD8310233
Probable space group: P -4 C 2
;
_chemical_formula_sum "Si O2"
_cell_formula_units_Z 40
_cell_length_a 8.255460
_cell_length_b 8.255460
_cell_length_c 25.428869
_cell_angle_alpha 90.000000
_cell_angle_beta 90.000000
_cell_angle_gamma 90.000000
_cell_volume 1733.044041
_symmetry_space_group_name_H-M "P -4 C 2"
_symmetry_group_IT_number 116
_symmetry_cell_setting 'tetragonal'
loop_
_space_group_symop_operation_xyz
x,y,z
y,-x,-z
-x,-y,z
-y,x,-z
y,x,1/2-z
-y,-x,1/2-z
-x,y,1/2+z
x,-y,1/2+z
loop_
_atom_site_type_symbol
_atom_site_label
_atom_site_fract_x
_atom_site_fract_y
_atom_site_fract_z
Si Si1 0.688019 0.503227 0.866050
Si Si2 0.746239 0.533723 0.482010
Si Si3 0.932750 0.785283 0.526496
Si Si4 0.180928 0.818463 0.812069
Si Si5 0.178960 0.843043 0.354403
O O1 0.500000 0.500000 0.879155
O O2 0.784325 0.501949 0.921127
O O3 0.731342 0.344309 0.832333
O O4 0.726900 0.676919 0.838208
O O5 0.681667 0.381103 0.513645
O O6 0.907890 0.596744 0.511747
O O7 0.863490 0.829414 0.583185
O O8 0.118543 0.832897 0.519512
O O9 0.188327 0.811674 0.750000
O O10 0.998607 0.819100 0.831803
O O11 0.260636 0.991159 0.830842
#
# Coordination Sequence:
#
# PCOD8310233 Si02
#       5
#     8   8   8   8   8
#     4  12  24  44  70 104 142 183 227 285 352 424
#     4  11  20  39  61  89 138 176 214 257 329 419
#     4  11  21  34  59 100 131 169 222 274 334 415
#     4  11  26  49  71  99 134 179 242 303 353 414
#     4  11  22  46  72  97 138 186 232 289 356 418
#
# _framework density 23.080774999999999
#
# number of rings (size 3 to 8) (size 9 to 14) (size 15 to 20)
#    0.000    0.800    4.000    6.600    0.000    2.000 
#   10.800    4.000    0.000    0.000    0.000    0.000 
#    0.000    0.000    0.000    0.000    0.000    0.000 
#
# Total GULP energy -495646.748315 kJ/mol
# GULP energy per Si atom -12391.168708 kJ/mol
# Density = 2.302824 g / cm^3
# Si number density = 23.080775 Si / 1000 Ang^3
#
#
#
# Elastic Constant Matrix: (Units=GPa)
#
#
# Indices 1 2 3 4 5 6 
#
# 1 72.8010 79.5856 40.0797 0.0000 0.0000 0.0000
# 2 79.5856 72.8012 40.0799 0.0000 0.0000 0.0000
# 3 40.0797 40.0799 138.6116 0.0000 0.0000 0.0000
# 4 0.0000 0.0000 0.0000 103.8012 0.0000 0.0000
# 5 0.0000 0.0000 0.0000 0.0000 103.8128 0.0000
# 6 0.0000 0.0000 0.0000 0.0000 0.0000 39.6939
#
#
#
# Elastic Compliance Matrix: (Units=1/GPa)
#
#
# Indices 1 2 3 4 5 6 
#
# 1 -0.069828 0.077567 -0.002238 0.000000 0.000000 0.000000
# 2 0.077567 -0.069827 -0.002238 0.000000 0.000000 0.000000
# 3 -0.002238 -0.002238 0.008509 0.000000 0.000000 0.000000
# 4 0.000000 0.000000 0.000000 0.009634 0.000000 0.000000
# 5 0.000000 0.000000 0.000000 0.000000 0.009633 0.000000
# 6 0.000000 0.000000 0.000000 0.000000 0.000000 0.025193
#
#
# Mechanical properties :
#
#
# Convention : Reuss Voigt Hill
#
# Bulk Modulus (GPa) = 66.50724 67.07823 66.79274
# Shear Modulus (GPa) = -21.94355 57.75949 17.90797
#
# Velocity S-wave (km/s) = -3.08673 5.00792 2.78849
# Velocity P-wave (km/s) = 4.02165 7.90977 6.27448
#
# Compressibility (1/GPa) = 0.01503596
#
# Stress axis : x y z
#
# Youngs Moduli (GPa) = -14.32100 -14.32102 117.52849
#
# Poissons Ratio (x) = 1.11084 0.26302
# Poissons Ratio (y) = 1.11084 0.26300
# Poissons Ratio (z) = -0.03205 -0.03205
#
# Static dielectric constant tensor:
#      x y z
#    x 4.612350 0.000000 0.000000 
#    y 0.000000 4.612350 0.000000 
#    z 0.000000 0.000000 3.980790 
# 
# 
# High freq. dielectric constant tensor:
#      x y z
#    x 1.926490 0.000000 0.000000 
#    y 0.000000 1.926490 0.000000 
#    z 0.000000 0.000000 1.890630 
# 
# From -- ./inp_files/4404.got.cif
#   From: 2010.03.12/outbox.cif.g09.slc.cpg/sg116_3_cif.got.tgz:4404.got - 2010.04.14 02:15:44.
