data_PCOD8310425
_publ_section_title
;
Structure prediction by ZEFSAII (Michael W. Deem and Ramdas Pophale) SiO2 
 PCOD8310425
Probable space group: P -4 N 2
;
_chemical_formula_sum "Si O2"
_cell_formula_units_Z 34
_cell_length_a 14.451645
_cell_length_b 14.451645
_cell_length_c 8.370872
_cell_angle_alpha 90.000000
_cell_angle_beta 90.000000
_cell_angle_gamma 90.000000
_cell_volume 1748.256979
_symmetry_space_group_name_H-M "P -4 N 2"
_symmetry_group_IT_number 118
_symmetry_cell_setting 'tetragonal'
loop_
_space_group_symop_operation_xyz
x,y,z
y,-x,-z
-x,-y,z
-y,x,-z
1/2+y,1/2+x,1/2-z
1/2-y,1/2-x,1/2-z
1/2-x,1/2+y,1/2+z
1/2+x,1/2-y,1/2+z
loop_
_atom_site_type_symbol
_atom_site_label
_atom_site_fract_x
_atom_site_fract_y
_atom_site_fract_z
Si Si1 0.609095 0.752759 0.690833
Si Si2 0.924726 0.814926 0.151542
Si Si3 0.500000 0.500000 0.500000
Si Si4 0.744236 0.104935 0.190228
Si Si5 0.756013 0.396400 0.690758
O O1 0.649085 0.850916 0.750000
O O2 0.503446 0.739399 0.754224
O O3 0.672583 0.669094 0.758197
O O4 0.604314 0.750091 0.499893
O O5 0.832545 0.837025 0.254910
O O6 0.896714 0.750580 0.001588
O O7 0.970437 0.912726 0.104539
O O8 0.647083 0.147083 0.250000
O O9 0.750622 0.000591 0.258184
O O10 0.850801 0.350801 0.750000
#
# Coordination Sequence:
#
# PCOD8310425 Si02
#       5
#     8   8   2   8   8
#     4   9  17  32  52  75 101 130 163 208 260 303
#     4  10  16  29  52  77 101 125 173 213 252 298
#     4  12  12  28  56  84  90 128 172 228 242 300
#     4   9  16  28  48  73  97 126 163 207 251 293
#     4  10  19  31  48  74 102 131 170 213 244 296
#
# _framework density 19.447939999999999
#
# number of rings (size 3 to 8) (size 9 to 14) (size 15 to 20)
#    0.000    2.353    7.059    0.000    0.000    0.471 
#    0.000    7.059    0.000    3.529    0.000    9.882 
#    0.000    0.000    0.000    0.000    0.000    0.000 
#
# Total GULP energy -421271.870600 kJ/mol
# GULP energy per Si atom -12390.349135 kJ/mol
# Density = 1.940368 g / cm^3
# Si number density = 19.447940 Si / 1000 Ang^3
#
#
#
# Elastic Constant Matrix: (Units=GPa)
#
#
# Indices 1 2 3 4 5 6 
#
# 1 115.9847 64.0727 21.0593 0.0000 0.0000 0.0000
# 2 64.0727 115.9828 21.0597 0.0000 0.0000 0.0000
# 3 21.0593 21.0597 12.6746 0.0000 0.0000 0.0000
# 4 0.0000 0.0000 0.0000 18.7620 0.0000 0.0000
# 5 0.0000 0.0000 0.0000 0.0000 18.7623 0.0000
# 6 0.0000 0.0000 0.0000 0.0000 0.0000 37.9987
#
#
#
# Elastic Compliance Matrix: (Units=1/GPa)
#
#
# Indices 1 2 3 4 5 6 
#
# 1 0.014174 -0.005089 -0.015094 0.000000 0.000000 0.000000
# 2 -0.005089 0.014175 -0.015096 0.000000 0.000000 0.000000
# 3 -0.015094 -0.015096 0.129060 0.000000 0.000000 0.000000
# 4 0.000000 0.000000 0.000000 0.053299 0.000000 0.000000
# 5 0.000000 0.000000 0.000000 0.000000 0.053298 0.000000
# 6 0.000000 0.000000 0.000000 0.000000 0.000000 0.026317
#
#
# Mechanical properties :
#
#
# Convention : Reuss Voigt Hill
#
# Bulk Modulus (GPa) = 11.51409 50.78061 31.14735
# Shear Modulus (GPa) = 12.82603 24.33463 18.58033
#
# Velocity S-wave (km/s) = 2.57087 3.54117 3.09429
# Velocity P-wave (km/s) = 3.84003 6.54886 5.36812
#
# Compressibility (1/GPa) = 0.08685015
#
# Stress axis : x y z
#
# Youngs Moduli (GPa) = 70.55168 70.54885 7.74831
#
# Poissons Ratio (x) = 0.35905 0.11695
# Poissons Ratio (y) = 0.35907 0.11697
# Poissons Ratio (z) = 1.06492 1.06499
#
# Static dielectric constant tensor:
#      x y z
#    x 3.984210 0.000000 0.000000 
#    y 0.000000 3.984220 0.000000 
#    z 0.000000 0.000000 2.929680 
# 
# 
# High freq. dielectric constant tensor:
#      x y z
#    x 1.765120 0.000000 0.000000 
#    y 0.000000 1.765120 0.000000 
#    z 0.000000 0.000000 1.686840 
# 
# From -- ./inp_files/1651.got.cif
#   From: 2010.03.12/outbox.cif.g09.slc.cpg/sg118_1_cif.got.tgz:1651.got - 2010.04.14 02:21:17.
