data_PCOD8310557
_publ_section_title
;
Structure prediction by ZEFSAII (Michael W. Deem and Ramdas Pophale) SiO2 
 PCOD8310557
Probable space group: P -4 N 2
;
_chemical_formula_sum "Si O2"
_cell_formula_units_Z 28
_cell_length_a 8.781426
_cell_length_b 8.781426
_cell_length_c 17.640336
_cell_angle_alpha 90.000000
_cell_angle_beta 90.000000
_cell_angle_gamma 90.000000
_cell_volume 1360.307037
_symmetry_space_group_name_H-M "P -4 N 2"
_symmetry_group_IT_number 118
_symmetry_cell_setting 'tetragonal'
loop_
_space_group_symop_operation_xyz
x,y,z
y,-x,-z
-x,-y,z
-y,x,-z
1/2+y,1/2+x,1/2-z
1/2-y,1/2-x,1/2-z
1/2-x,1/2+y,1/2+z
1/2+x,1/2-y,1/2+z
loop_
_atom_site_type_symbol
_atom_site_label
_atom_site_fract_x
_atom_site_fract_y
_atom_site_fract_z
Si Si1 0.507693 0.333184 0.140122
Si Si2 0.805739 0.821186 0.108904
Si Si3 0.652293 0.093027 0.036777
Si Si4 0.500000 0.500000 0.283129
O O1 0.500000 0.500000 0.099435
O O2 0.346407 0.246208 0.146121
O O3 0.629590 0.235486 0.093162
O O4 0.559896 0.362461 0.227753
O O5 0.780501 0.987362 0.072841
O O6 0.939822 0.853710 0.169421
O O7 0.855063 0.701566 0.045899
O O8 0.500000 0.000000 0.024857
#
# Coordination Sequence:
#
# PCOD8310557 Si02
#       4
#     8   8   8   4
#     4   9  23  38  62  92 129 170 217 272 334 397
#     4  11  21  40  63  93 129 171 220 274 333 393
#     4  10  23  38  64  96 128 171 221 275 332 399
#     4  10  22  39  61  88 134 172 214 274 328 394
#
# _framework density 20.583587999999999
#
# number of rings (size 3 to 8) (size 9 to 14) (size 15 to 20)
#    0.857    1.143    0.000    2.571    8.000    1.143 
#    0.000    4.286    0.000    1.714    0.000    0.000 
#    0.000    0.000    0.000    0.000    0.000    0.000 
#
# Total GULP energy -346990.456204 kJ/mol
# GULP energy per Si atom -12392.516293 kJ/mol
# Density = 2.053674 g / cm^3
# Si number density = 20.583588 Si / 1000 Ang^3
#
#
#
# Elastic Constant Matrix: (Units=GPa)
#
#
# Indices 1 2 3 4 5 6 
#
# 1 74.4710 20.2736 46.2409 0.0000 0.0000 0.0000
# 2 20.2736 74.4710 46.2409 0.0000 0.0000 0.0000
# 3 46.2409 46.2409 146.4461 0.0000 0.0000 0.0000
# 4 0.0000 0.0000 0.0000 28.6338 0.0000 0.0000
# 5 0.0000 0.0000 0.0000 0.0000 28.6338 0.0000
# 6 0.0000 0.0000 0.0000 0.0000 0.0000 22.6855
#
#
#
# Elastic Compliance Matrix: (Units=1/GPa)
#
#
# Indices 1 2 3 4 5 6 
#
# 1 0.016854 -0.001597 -0.004817 0.000000 0.000000 0.000000
# 2 -0.001597 0.016854 -0.004817 0.000000 0.000000 0.000000
# 3 -0.004817 -0.004817 0.009871 0.000000 0.000000 0.000000
# 4 0.000000 0.000000 0.000000 0.034924 0.000000 0.000000
# 5 0.000000 0.000000 0.000000 0.000000 0.034924 0.000000
# 6 0.000000 0.000000 0.000000 0.000000 0.000000 0.044081
#
#
# Mechanical properties :
#
#
# Convention : Reuss Voigt Hill
#
# Bulk Modulus (GPa) = 47.35965 57.87763 52.61864
# Shear Modulus (GPa) = 26.73659 28.16615 27.45137
#
# Velocity S-wave (km/s) = 3.60797 3.70317 3.65588
# Velocity P-wave (km/s) = 6.35728 6.81645 6.59087
#
# Compressibility (1/GPa) = 0.02111502
#
# Stress axis : x y z
#
# Youngs Moduli (GPa) = 59.33274 59.33274 101.30968
#
# Poissons Ratio (x) = 0.09475 0.48806
# Poissons Ratio (y) = 0.09475 0.48806
# Poissons Ratio (z) = 0.28583 0.28583
#
# Static dielectric constant tensor:
#      x y z
#    x 3.714330 0.000000 0.000000 
#    y 0.000000 3.714330 0.000000 
#    z 0.000000 0.000000 3.700210 
# 
# 
# High freq. dielectric constant tensor:
#      x y z
#    x 1.799590 0.000000 0.000000 
#    y 0.000000 1.799590 0.000000 
#    z 0.000000 0.000000 1.808130 
# 
# From -- ./inp_files/4585.got.cif
#   From: 2010.03.12/outbox.cif.g09.slc.cpg/sg118_3_cif.got.tgz:4585.got - 2010.04.14 02:21:17.
