data_PCOD8310449
_publ_section_title
;
Structure prediction by ZEFSAII (Michael W. Deem and Ramdas Pophale) SiO2 
 PCOD8310449
Probable space group: P -4 N 2
;
_chemical_formula_sum "Si O2"
_cell_formula_units_Z 64
_cell_length_a 13.747276
_cell_length_b 13.747276
_cell_length_c 17.512838
_cell_angle_alpha 90.000000
_cell_angle_beta 90.000000
_cell_angle_gamma 90.000000
_cell_volume 3309.709178
_symmetry_space_group_name_H-M "P -4 N 2"
_symmetry_group_IT_number 118
_symmetry_cell_setting 'tetragonal'
loop_
_space_group_symop_operation_xyz
x,y,z
y,-x,-z
-x,-y,z
-y,x,-z
1/2+y,1/2+x,1/2-z
1/2-y,1/2-x,1/2-z
1/2-x,1/2+y,1/2+z
1/2+x,1/2-y,1/2+z
loop_
_atom_site_type_symbol
_atom_site_label
_atom_site_fract_x
_atom_site_fract_y
_atom_site_fract_z
Si Si1 0.943851 0.854808 0.017175
Si Si2 0.888836 0.769162 0.630893
Si Si3 0.206788 0.029953 0.663539
Si Si4 0.658963 0.996566 0.250000
Si Si5 0.422842 0.077159 0.840121
Si Si6 0.056148 0.145193 0.482825
Si Si7 0.970047 0.206789 0.163539
Si Si8 0.611165 0.269162 0.369107
O O1 0.944040 0.826977 0.106649
O O2 0.907053 0.769577 0.960494
O O3 0.053077 0.875079 0.990003
O O4 0.865809 0.878104 0.659782
O O5 0.983009 0.725929 0.675155
O O6 0.907056 0.769576 0.539507
O O7 0.795677 0.704323 0.650883
O O8 0.313938 0.055338 0.633001
O O9 0.207567 0.989340 0.750000
O O10 0.173022 0.944039 0.606649
O O11 0.569195 0.069195 0.250000
O O12 0.725927 0.016992 0.175153
O O13 0.613772 0.886229 0.250000
O O14 0.428786 0.071215 0.750000
O O15 0.313939 0.055339 0.866999
O O16 0.500000 0.000000 0.876023
O O17 0.946922 0.124921 0.509995
O O18 0.878104 0.134192 0.159782
#
# Coordination Sequence:
#
# PCOD8310449 Si02
#       8
#     8   8   8   8   8   8   8   8
#     4   9  20  37  51  79 113 140 180 227 266 319
#     4  10  18  33  57  79 104 143 186 224 273 334
#     4  10  18  33  57  78 102 144 187 221 267 334
#     4   9  18  32  52  79 106 132 178 236 275 323
#     4   9  18  30  50  82 110 131 173 231 268 310
#     4   9  20  37  51  79 113 140 180 227 266 319
#     4  10  18  33  57  78 102 144 187 221 267 334
#     4  10  18  33  57  79 104 143 186 224 273 334
#
# _framework density 19.337046999999998
#
# number of rings (size 3 to 8) (size 9 to 14) (size 15 to 20)
#    0.000    2.500    2.500    0.000    0.000    1.000 
#    4.500    2.500    0.000    0.000    0.000    0.000 
#    0.000    0.000    0.000    0.000    0.000    0.000 
#
# Total GULP energy -793197.060127 kJ/mol
# GULP energy per Si atom -12393.704064 kJ/mol
# Density = 1.929303 g / cm^3
# Si number density = 19.337047 Si / 1000 Ang^3
#
#
#
# Elastic Constant Matrix: (Units=GPa)
#
#
# Indices 1 2 3 4 5 6 
#
# 1 41.1740 17.3160 16.9752 0.0000 0.0000 0.0000
# 2 17.3160 41.1746 16.9753 0.0000 0.0000 0.0000
# 3 16.9752 16.9753 117.8464 0.0000 0.0000 0.0000
# 4 0.0000 0.0000 0.0000 25.8764 0.0000 0.0000
# 5 0.0000 0.0000 0.0000 0.0000 25.8762 0.0000
# 6 0.0000 0.0000 0.0000 0.0000 0.0000 27.0967
#
#
#
# Elastic Compliance Matrix: (Units=1/GPa)
#
#
# Indices 1 2 3 4 5 6 
#
# 1 0.030286 -0.011629 -0.002687 0.000000 0.000000 0.000000
# 2 -0.011629 0.030285 -0.002687 0.000000 0.000000 0.000000
# 3 -0.002687 -0.002687 0.009260 0.000000 0.000000 0.000000
# 4 0.000000 0.000000 0.000000 0.038645 0.000000 0.000000
# 5 0.000000 0.000000 0.000000 0.000000 0.038645 0.000000
# 6 0.000000 0.000000 0.000000 0.000000 0.000000 0.036905
#
#
# Mechanical properties :
#
#
# Convention : Reuss Voigt Hill
#
# Bulk Modulus (GPa) = 27.91451 33.63644 30.77548
# Shear Modulus (GPa) = 21.74151 25.69842 23.71997
#
# Velocity S-wave (km/s) = 3.35676 3.64946 3.50617
# Velocity P-wave (km/s) = 5.43055 5.93217 5.68690
#
# Compressibility (1/GPa) = 0.03582366
#
# Stress axis : x y z
#
# Youngs Moduli (GPa) = 33.01889 33.01938 107.99313
#
# Poissons Ratio (x) = 0.38397 0.29023
# Poissons Ratio (y) = 0.38397 0.29022
# Poissons Ratio (z) = 0.08874 0.08874
#
# Static dielectric constant tensor:
#      x y z
#    x 3.459990 0.000000 0.000000 
#    y 0.000000 3.459990 0.000000 
#    z 0.000000 0.000000 3.685710 
# 
# 
# High freq. dielectric constant tensor:
#      x y z
#    x 1.732500 0.000000 0.000000 
#    y 0.000000 1.732500 0.000000 
#    z 0.000000 0.000000 1.751610 
# 
# From -- ./inp_files/5058.got.cif
#   From: 2010.03.12/outbox.cif.g09.slc.cpg/sg118_3_cif.got.tgz:5058.got - 2010.04.14 02:21:17.
