data_PCOD8310989
_publ_section_title
;
Structure prediction by ZEFSAII (Michael W. Deem and Ramdas Pophale) SiO2 
 PCOD8310989
Probable space group: I -4 M 2
;
_chemical_formula_sum "Si O2"
_cell_formula_units_Z 120
_cell_length_a 17.548082
_cell_length_b 17.548082
_cell_length_c 20.083129
_cell_angle_alpha 90.000000
_cell_angle_beta 90.000000
_cell_angle_gamma 90.000000
_cell_volume 6184.301981
_symmetry_space_group_name_H-M "I -4 M 2"
_symmetry_group_IT_number 119
_symmetry_cell_setting 'tetragonal'
loop_
_space_group_symop_operation_xyz
x,y,z
y,-x,-z
-x,-y,z
-y,x,-z
y,x,-z
-y,-x,-z
-x,y,z
x,-y,z
1/2+x,1/2+y,1/2+z
1/2+y,1/2-x,1/2-z
1/2-x,1/2-y,1/2+z
1/2-y,1/2+x,1/2-z
1/2+y,1/2+x,1/2-z
1/2-y,1/2-x,1/2-z
1/2-x,1/2+y,1/2+z
1/2+x,1/2-y,1/2+z
loop_
_atom_site_type_symbol
_atom_site_label
_atom_site_fract_x
_atom_site_fract_y
_atom_site_fract_z
Si Si1 0.308488 0.701326 0.289508
Si Si2 0.087284 0.587284 0.750000
Si Si3 0.688829 0.812123 0.516454
Si Si4 0.173116 0.089195 0.558460
Si Si5 0.091062 0.172628 0.670530
Si Si6 0.337463 0.829716 0.129548
Si Si7 0.912213 0.755880 0.125861
Si Si8 0.588933 0.416982 0.572665
O O1 0.269615 0.769615 0.250000
O O2 0.379680 0.669117 0.247033
O O3 0.330249 0.745907 0.357868
O O4 0.244062 0.636632 0.306556
O O5 0.105647 0.500000 0.762698
O O6 0.110073 0.628782 0.818279
O O7 0.737002 0.737002 0.500000
O O8 0.743677 0.871955 0.554104
O O9 0.650932 0.846733 0.449002
O O10 0.618054 0.792686 0.564268
O O11 0.119023 0.119023 0.500000
O O12 0.131786 0.105510 0.628900
O O13 0.185218 0.000000 0.550315
O O14 0.117712 0.250501 0.636670
O O15 0.000000 0.163642 0.669654
O O16 0.894968 0.847908 0.122739
O O17 0.000000 0.735699 0.135705
O O18 0.613994 0.386007 0.500000
O O19 0.500000 0.430936 0.568516
O O20 0.626963 0.500000 0.591794
#
# Coordination Sequence:
#
# PCOD8310989 Si02
#       8
#    16   8  16  16  16  16  16  16
#     4  10  21  37  56  78 111 156 202 247 286 356
#     4  11  24  40  60  92 128 162 206 255 304 360
#     4  11  20  38  61  87 119 156 203 247 293 361
#     4  11  23  38  61  91 120 156 196 249 312 373
#     4  11  21  36  58  87 121 157 200 245 300 370
#     4  11  20  36  61  82 118 161 205 246 295 361
#     4  11  22  36  57  86 118 151 199 256 300 345
#     4   8  15  28  45  70 109 150 179 212 268 330
#
# _framework density 19.403967999999999
#
# number of rings (size 3 to 8) (size 9 to 14) (size 15 to 20)
#    0.000    1.533    6.000    2.400    0.000    3.067 
#    0.000    0.000    0.000    0.400    0.000    0.000 
#    0.000    0.000    0.000    0.000    0.000    0.000 
#
# Total GULP energy -743344.116091 kJ/mol
# GULP energy per Si atom -12389.068602 kJ/mol
# Density = 1.935980 g / cm^3
# Si number density = 19.403968 Si / 1000 Ang^3
#
#
#
# Elastic Constant Matrix: (Units=GPa)
#
#
# Indices 1 2 3 4 5 6 
#
# 1 125.6462 -12.1611 28.6438 0.0000 0.0000 0.0000
# 2 -12.1611 125.6455 28.6432 0.0000 0.0000 0.0000
# 3 28.6438 28.6432 89.5234 0.0000 0.0000 0.0000
# 4 0.0000 0.0000 0.0000 24.2859 0.0000 0.0000
# 5 0.0000 0.0000 0.0000 0.0000 24.2858 0.0000
# 6 0.0000 0.0000 0.0000 0.0000 0.0000 17.6771
#
#
#
# Elastic Compliance Matrix: (Units=1/GPa)
#
#
# Indices 1 2 3 4 5 6 
#
# 1 0.008883 0.001626 -0.003362 0.000000 0.000000 0.000000
# 2 0.001626 0.008883 -0.003362 0.000000 0.000000 0.000000
# 3 -0.003362 -0.003362 0.013322 0.000000 0.000000 0.000000
# 4 0.000000 0.000000 0.000000 0.041176 0.000000 0.000000
# 5 0.000000 0.000000 0.000000 0.000000 0.041176 0.000000
# 6 0.000000 0.000000 0.000000 0.000000 0.000000 0.056570
#
#
# Mechanical properties :
#
#
# Convention : Reuss Voigt Hill
#
# Bulk Modulus (GPa) = 47.86892 47.89629 47.88260
# Shear Modulus (GPa) = 26.71353 32.96238 29.83795
#
# Velocity S-wave (km/s) = 3.71442 4.12605 3.92564
# Velocity P-wave (km/s) = 6.56651 6.88741 6.72888
#
# Compressibility (1/GPa) = 0.02089038
#
# Stress axis : x y z
#
# Youngs Moduli (GPa) = 112.57696 112.57669 75.06421
#
# Poissons Ratio (x) = -0.18308 0.25240
# Poissons Ratio (y) = -0.18308 0.25240
# Poissons Ratio (z) = 0.37854 0.37853
#
# Static dielectric constant tensor:
#      x y z
#    x 3.507640 0.000000 0.000000 
#    y 0.000000 3.507630 0.000000 
#    z 0.000000 0.000000 4.168960 
# 
# 
# High freq. dielectric constant tensor:
#      x y z
#    x 1.740350 0.000000 0.000000 
#    y 0.000000 1.740350 0.000000 
#    z 0.000000 0.000000 1.760320 
# 
# From -- ./inp_files/8102.got.cif
#   From: 2010.03.12/outbox.cif.g09.slc.cpg/sg119_5_cif.got.tgz:8102.got - 2010.04.14 02:25:26.
