data_PCOD8310272
_publ_section_title
;
Structure prediction by ZEFSAII (Michael W. Deem and Ramdas Pophale) SiO2 
 PCOD8310272
Probable space group: P -4 C 2
;
_chemical_formula_sum "Si O2"
_cell_formula_units_Z 38
_cell_length_a 11.030629
_cell_length_b 11.030629
_cell_length_c 13.693124
_cell_angle_alpha 90.000000
_cell_angle_beta 90.000000
_cell_angle_gamma 90.000000
_cell_volume 1666.107797
_symmetry_space_group_name_H-M "P -4 C 2"
_symmetry_group_IT_number 116
_symmetry_cell_setting 'tetragonal'
loop_
_space_group_symop_operation_xyz
x,y,z
y,-x,-z
-x,-y,z
-y,x,-z
y,x,1/2-z
-y,-x,1/2-z
-x,y,1/2+z
x,-y,1/2+z
loop_
_atom_site_type_symbol
_atom_site_label
_atom_site_fract_x
_atom_site_fract_y
_atom_site_fract_z
Si Si1 0.239242 0.239242 0.750000
Si Si2 0.983068 0.263387 0.949353
Si Si3 0.651858 0.234664 0.444876
Si Si4 0.976272 0.356940 0.747626
Si Si5 0.000000 0.000000 0.000000
Si Si6 0.628366 0.811951 0.431694
O O1 0.299582 0.297166 0.653107
O O2 0.096502 0.272547 0.741923
O O3 0.923177 0.327466 0.854685
O O4 0.895361 0.283292 0.041728
O O5 0.999882 0.119470 0.931508
O O6 0.109275 0.328566 0.974957
O O7 0.679929 0.314191 0.542520
O O8 0.513100 0.205441 0.428791
O O9 0.000000 0.500000 0.734560
O O10 0.874313 0.320767 0.667155
#
# Coordination Sequence:
#
# PCOD8310272 Si02
#       6
#     4   8   8   8   2   8
#     4  12  22  42  72 114 150 194 254 316 384 459
#     4  12  24  45  71 106 151 196 245 315 383 458
#     4  12  26  45  73 105 149 201 255 313 380 462
#     4  12  24  43  75 111 150 199 254 312 385 465
#     4  12  24  48  70 112 152 186 252 310 388 464
#     4  12  25  47  73 107 150 201 260 312 382 457
#
# _framework density 22.807648
#
# number of rings (size 3 to 8) (size 9 to 14) (size 15 to 20)
#    0.000    0.000    8.421    1.895    0.000    1.263 
#    0.000    1.053    0.000    1.263    0.000    0.000 
#    0.000    0.000    0.000    0.000    0.000    0.000 
#
# Total GULP energy -470875.861707 kJ/mol
# GULP energy per Si atom -12391.470045 kJ/mol
# Density = 2.275574 g / cm^3
# Si number density = 22.807648 Si / 1000 Ang^3
#
#
#
# Elastic Constant Matrix: (Units=GPa)
#
#
# Indices 1 2 3 4 5 6 
#
# 1 104.6282 42.5833 49.1669 0.0000 0.0000 0.0000
# 2 42.5833 104.6282 49.1669 0.0000 0.0000 0.0000
# 3 49.1669 49.1669 126.5873 0.0000 0.0000 0.0000
# 4 0.0000 0.0000 0.0000 26.9698 0.0000 0.0000
# 5 0.0000 0.0000 0.0000 0.0000 26.9698 0.0000
# 6 0.0000 0.0000 0.0000 0.0000 0.0000 29.0813
#
#
#
# Elastic Compliance Matrix: (Units=1/GPa)
#
#
# Indices 1 2 3 4 5 6 
#
# 1 0.012645 -0.003472 -0.003563 0.000000 0.000000 0.000000
# 2 -0.003472 0.012645 -0.003563 0.000000 0.000000 0.000000
# 3 -0.003563 -0.003563 0.010667 0.000000 0.000000 0.000000
# 4 0.000000 0.000000 0.000000 0.037079 0.000000 0.000000
# 5 0.000000 0.000000 0.000000 0.000000 0.037079 0.000000
# 6 0.000000 0.000000 0.000000 0.000000 0.000000 0.034386
#
#
# Mechanical properties :
#
#
# Convention : Reuss Voigt Hill
#
# Bulk Modulus (GPa) = 67.74220 68.63088 68.18654
# Shear Modulus (GPa) = 29.30541 29.59928 29.45234
#
# Velocity S-wave (km/s) = 3.58843 3.60638 3.59742
# Velocity P-wave (km/s) = 6.85092 6.89186 6.87142
#
# Compressibility (1/GPa) = 0.01476185
#
# Stress axis : x y z
#
# Youngs Moduli (GPa) = 79.08228 79.08228 93.74508
#
# Poissons Ratio (x) = 0.27460 0.33399
# Poissons Ratio (y) = 0.27460 0.33399
# Poissons Ratio (z) = 0.28175 0.28175
#
# Static dielectric constant tensor:
#      x y z
#    x 4.099620 0.000000 0.000000 
#    y 0.000000 4.099620 0.000000 
#    z 0.000000 0.000000 4.512280 
# 
# 
# High freq. dielectric constant tensor:
#      x y z
#    x 1.890580 0.000000 0.000000 
#    y 0.000000 1.890580 0.000000 
#    z 0.000000 0.000000 1.912100 
# 
# From -- ./inp_files/2633.got.cif
#   From: 2010.03.12/outbox.cif.g09.slc.cpg/sg116_2_cif.got.tgz:2633.got - 2010.04.14 02:15:44.
