data_PCOD8310171
_publ_section_title
;
Structure prediction by ZEFSAII (Michael W. Deem and Ramdas Pophale) SiO2 
 PCOD8310171
Probable space group: P -4 C 2
;
_chemical_formula_sum "Si O2"
_cell_formula_units_Z 40
_cell_length_a 14.664309
_cell_length_b 14.664309
_cell_length_c 9.170188
_cell_angle_alpha 90.000000
_cell_angle_beta 90.000000
_cell_angle_gamma 90.000000
_cell_volume 1971.975187
_symmetry_space_group_name_H-M "P -4 C 2"
_symmetry_group_IT_number 116
_symmetry_cell_setting 'tetragonal'
loop_
_space_group_symop_operation_xyz
x,y,z
y,-x,-z
-x,-y,z
-y,x,-z
y,x,1/2-z
-y,-x,1/2-z
-x,y,1/2+z
x,-y,1/2+z
loop_
_atom_site_type_symbol
_atom_site_label
_atom_site_fract_x
_atom_site_fract_y
_atom_site_fract_z
Si Si1 0.061276 0.414637 0.536534
Si Si2 0.500000 0.500000 0.000000
Si Si3 0.922154 0.681721 0.234417
Si Si4 0.896119 0.103882 0.750000
Si Si5 0.786071 0.548887 0.095058
Si Si6 0.000000 0.000000 0.000000
Si Si7 0.458349 0.329690 0.677095
O O1 0.083074 0.350771 0.400388
O O2 0.153114 0.457161 0.602432
O O3 0.000000 0.500000 0.484179
O O4 0.015906 0.353217 0.662121
O O5 0.410877 0.511505 0.902207
O O6 0.916286 0.789927 0.227914
O O7 0.838309 0.639604 0.144334
O O8 0.946979 0.070793 0.896206
O O9 0.701758 0.529868 0.200861
O O10 0.752241 0.567030 0.931397
O O11 0.364769 0.364769 0.750000
#
# Coordination Sequence:
#
# PCOD8310171 Si02
#       7
#     8   2   8   4   8   2   8
#     4  10  21  40  67  99 136 172 205 268 342 400
#     4  12  26  40  62  76 126 176 226 260 326 368
#     4  11  23  40  70 101 132 165 222 270 340 401
#     4  11  24  44  72  96 125 174 216 282 329 430
#     4  11  24  41  65  95 134 174 221 277 328 396
#     4  10  24  50  68  90 136 170 212 262 376 418
#     4  12  25  41  61  88 126 183 224 270 322 385
#
# _framework density 20.284230999999998
#
# number of rings (size 3 to 8) (size 9 to 14) (size 15 to 20)
#    0.000    1.000    4.000    3.300    2.800    3.200 
#    0.000    0.000    0.000    0.000    0.000    0.000 
#    0.000    0.000    0.000    0.000    0.000    0.000 
#
# Total GULP energy -496168.470448 kJ/mol
# GULP energy per Si atom -12404.211761 kJ/mol
# Density = 2.023806 g / cm^3
# Si number density = 20.284231 Si / 1000 Ang^3
#
#
#
# Elastic Constant Matrix: (Units=GPa)
#
#
# Indices 1 2 3 4 5 6 
#
# 1 124.9353 47.9677 48.1877 0.0000 0.0000 0.0000
# 2 47.9677 124.9361 48.1878 0.0000 0.0000 0.0000
# 3 48.1877 48.1878 112.7041 0.0000 0.0000 0.0000
# 4 0.0000 0.0000 0.0000 42.5984 0.0000 0.0000
# 5 0.0000 0.0000 0.0000 0.0000 42.5992 0.0000
# 6 0.0000 0.0000 0.0000 0.0000 0.0000 26.8231
#
#
#
# Elastic Compliance Matrix: (Units=1/GPa)
#
#
# Indices 1 2 3 4 5 6 
#
# 1 0.010293 -0.002700 -0.003247 0.000000 0.000000 0.000000
# 2 -0.002700 0.010293 -0.003247 0.000000 0.000000 0.000000
# 3 -0.003247 -0.003247 0.011649 0.000000 0.000000 0.000000
# 4 0.000000 0.000000 0.000000 0.023475 0.000000 0.000000
# 5 0.000000 0.000000 0.000000 0.000000 0.023475 0.000000
# 6 0.000000 0.000000 0.000000 0.000000 0.000000 0.037281
#
#
# Mechanical properties :
#
#
# Convention : Reuss Voigt Hill
#
# Bulk Modulus (GPa) = 72.20644 72.36241 72.28442
# Shear Modulus (GPa) = 35.85068 36.95296 36.40182
#
# Velocity S-wave (km/s) = 4.20863 4.27284 4.24085
# Velocity P-wave (km/s) = 7.70009 7.75206 7.72612
#
# Compressibility (1/GPa) = 0.01384918
#
# Stress axis : x y z
#
# Youngs Moduli (GPa) = 97.15499 97.15567 85.84455
#
# Poissons Ratio (x) = 0.26228 0.27870
# Poissons Ratio (y) = 0.26228 0.27870
# Poissons Ratio (z) = 0.31542 0.31542
#
# Static dielectric constant tensor:
#      x y z
#    x 3.712200 0.000000 0.000000 
#    y 0.000000 3.712170 0.000000 
#    z 0.000000 0.000000 3.876450 
# 
# 
# High freq. dielectric constant tensor:
#      x y z
#    x 1.789370 0.000000 0.000000 
#    y 0.000000 1.789370 0.000000 
#    z 0.000000 0.000000 1.812670 
# 
# From -- ./inp_files/869.got.cif
#   From: 2010.03.12/outbox.cif.g09.slc.cpg/sg116_1_cif.got.tgz:869.got - 2010.04.14 02:15:44.
