data_PCOD8310277
_publ_section_title
;
Structure prediction by ZEFSAII (Michael W. Deem and Ramdas Pophale) SiO2 
 PCOD8310277
Probable space group: P -4 C 2
;
_chemical_formula_sum "Si O2"
_cell_formula_units_Z 16
_cell_length_a 5.058868
_cell_length_b 5.058868
_cell_length_c 25.015694
_cell_angle_alpha 90.000000
_cell_angle_beta 90.000000
_cell_angle_gamma 90.000000
_cell_volume 640.205279
_symmetry_space_group_name_H-M "P -4 C 2"
_symmetry_group_IT_number 116
_symmetry_cell_setting 'tetragonal'
loop_
_space_group_symop_operation_xyz
x,y,z
y,-x,-z
-x,-y,z
-y,x,-z
y,x,1/2-z
-y,-x,1/2-z
-x,y,1/2+z
x,-y,1/2+z
loop_
_atom_site_type_symbol
_atom_site_label
_atom_site_fract_x
_atom_site_fract_y
_atom_site_fract_z
Si Si1 0.000000 0.500000 0.324903
Si Si2 0.319813 0.761079 0.907564
Si Si3 0.000000 0.000000 0.500000
Si Si4 0.500000 0.500000 0.250000
O O1 0.920986 0.738828 0.364958
O O2 0.750118 0.461744 0.287503
O O3 0.500000 0.500000 0.910520
O O4 0.500000 0.000000 0.887382
O O5 0.192926 0.816745 0.965185
#
# Coordination Sequence:
#
# PCOD8310277 Si02
#       4
#     4   8   2   2
#     4  12  30  60  82 130 164 220 288 348 432 494
#     4  12  30  54  84 124 172 226 276 351 413 515
#     4  12  32  44  88 126 180 220 288 324 440 490
#     4  12  32  52  96 114 170 218 284 362 420 500
#
# _framework density 24.991982
#
# number of rings (size 3 to 8) (size 9 to 14) (size 15 to 20)
#    0.000    0.000    2.500    3.000   14.000    5.000 
#    0.000    0.000    0.000    0.000    0.000    0.000 
#    0.000    0.000    0.000    0.000    0.000    0.000 
#
# Total GULP energy -198306.070534 kJ/mol
# GULP energy per Si atom -12394.129408 kJ/mol
# Density = 2.493510 g / cm^3
# Si number density = 24.991982 Si / 1000 Ang^3
#
#
#
# Elastic Constant Matrix: (Units=GPa)
#
#
# Indices 1 2 3 4 5 6 
#
# 1 203.2877 94.5689 96.8213 0.0000 0.0000 0.0000
# 2 94.5689 203.2877 96.8213 0.0000 0.0000 0.0000
# 3 96.8213 96.8213 197.3585 0.0000 0.0000 0.0000
# 4 0.0000 0.0000 0.0000 198.4370 0.0000 0.0000
# 5 0.0000 0.0000 0.0000 0.0000 198.4370 0.0000
# 6 0.0000 0.0000 0.0000 0.0000 0.0000 55.3796
#
#
#
# Elastic Compliance Matrix: (Units=1/GPa)
#
#
# Indices 1 2 3 4 5 6 
#
# 1 0.007064 -0.002134 -0.002418 0.000000 0.000000 0.000000
# 2 -0.002134 0.007064 -0.002418 0.000000 0.000000 0.000000
# 3 -0.002418 -0.002418 0.007440 0.000000 0.000000 0.000000
# 4 0.000000 0.000000 0.000000 0.005039 0.000000 0.000000
# 5 0.000000 0.000000 0.000000 0.000000 0.005039 0.000000
# 6 0.000000 0.000000 0.000000 0.000000 0.000000 0.018057
#
#
# Mechanical properties :
#
#
# Convention : Reuss Voigt Hill
#
# Bulk Modulus (GPa) = 131.14092 131.15076 131.14584
# Shear Modulus (GPa) = 75.54348 111.49887 93.52118
#
# Velocity S-wave (km/s) = 5.50388 6.68661 6.12386
# Velocity P-wave (km/s) = 9.64248 10.59270 10.12874
#
# Compressibility (1/GPa) = 0.00762539
#
# Stress axis : x y z
#
# Youngs Moduli (GPa) = 141.56693 141.56693 134.41305
#
# Poissons Ratio (x) = 0.30214 0.32506
# Poissons Ratio (y) = 0.30214 0.32506
# Poissons Ratio (z) = 0.34236 0.34236
#
# Static dielectric constant tensor:
#      x y z
#    x 4.825180 0.000000 0.000000 
#    y 0.000000 4.825180 0.000000 
#    z 0.000000 0.000000 5.049170 
# 
# 
# High freq. dielectric constant tensor:
#      x y z
#    x 2.011210 0.000000 0.000000 
#    y 0.000000 2.011210 0.000000 
#    z 0.000000 0.000000 2.017850 
# 
# From -- ./inp_files/3576.got.cif
#   From: 2010.03.12/outbox.cif.g09.slc.cpg/sg116_2_cif.got.tgz:3576.got - 2010.04.14 02:15:44.
