data_PCOD8310855
_publ_section_title
;
Structure prediction by ZEFSAII (Michael W. Deem and Ramdas Pophale) SiO2 
 PCOD8310855
Probable space group: I -4 M 2
;
_chemical_formula_sum "Si O2"
_cell_formula_units_Z 112
_cell_length_a 14.720014
_cell_length_b 14.720014
_cell_length_c 24.848960
_cell_angle_alpha 90.000000
_cell_angle_beta 90.000000
_cell_angle_gamma 90.000000
_cell_volume 5384.243136
_symmetry_space_group_name_H-M "I -4 M 2"
_symmetry_group_IT_number 119
_symmetry_cell_setting 'tetragonal'
loop_
_space_group_symop_operation_xyz
x,y,z
y,-x,-z
-x,-y,z
-y,x,-z
y,x,-z
-y,-x,-z
-x,y,z
x,-y,z
1/2+x,1/2+y,1/2+z
1/2+y,1/2-x,1/2-z
1/2-x,1/2-y,1/2+z
1/2-y,1/2+x,1/2-z
1/2+y,1/2+x,1/2-z
1/2-y,1/2-x,1/2-z
1/2-x,1/2+y,1/2+z
1/2+x,1/2-y,1/2+z
loop_
_atom_site_type_symbol
_atom_site_label
_atom_site_fract_x
_atom_site_fract_y
_atom_site_fract_z
Si Si1 0.098205 0.824664 0.048942
Si Si2 0.104755 0.602859 0.879296
Si Si3 0.782174 0.102230 0.656915
Si Si4 0.596025 0.709060 0.962114
Si Si5 0.280115 0.296509 0.651016
Si Si6 0.899548 0.629027 0.004234
Si Si7 0.604067 0.396440 0.260897
O O1 0.174307 0.828654 0.095107
O O2 0.000000 0.835672 0.077597
O O3 0.103568 0.896433 0.000000
O O4 0.104608 0.734731 0.013904
O O5 0.127208 0.500000 0.859304
O O6 0.170014 0.675237 0.849340
O O7 0.122206 0.606825 0.942723
O O8 0.000000 0.627418 0.866333
O O9 0.827629 0.111456 0.598062
O O10 0.711955 0.187194 0.660453
O O11 0.861084 0.114967 0.700227
O O12 0.737419 0.000000 0.663223
O O13 0.500000 0.669859 0.983946
O O14 0.678111 0.678111 0.000000
O O15 0.586866 0.818960 0.959929
O O16 0.331260 0.339750 0.700829
O O17 0.000000 0.590222 0.019991
O O18 0.500000 0.366058 0.262432
O O19 0.615869 0.500000 0.280614
#
# Coordination Sequence:
#
# PCOD8310855 Si02
#       7
#    16  16  16  16  16  16  16
#     4  11  22  36  58  90 129 167 205 253 308 365
#     4  10  21  35  56  91 131 168 206 253 311 373
#     4  10  23  41  61  87 123 162 203 258 314 371
#     4  11  22  37  59  89 123 161 205 253 308 373
#     4  12  21  39  67  90 122 165 215 259 312 374
#     4  10  19  35  56  82 121 165 202 244 297 360
#     4  10  23  43  66  92 120 157 207 261 320 385
#
# _framework density 20.801438000000001
#
# number of rings (size 3 to 8) (size 9 to 14) (size 15 to 20)
#    0.000    1.429    2.857    3.000    0.000    2.857 
#    0.000    1.429    0.000    1.714    0.000    8.000 
#    0.000    0.000    0.000    0.000    0.000    0.000 
#
# Total GULP energy -693876.599902 kJ/mol
# GULP energy per Si atom -12390.653570 kJ/mol
# Density = 2.075409 g / cm^3
# Si number density = 20.801438 Si / 1000 Ang^3
#
#
#
# Elastic Constant Matrix: (Units=GPa)
#
#
# Indices 1 2 3 4 5 6 
#
# 1 123.0449 49.9402 56.0136 0.0000 0.0000 0.0000
# 2 49.9402 123.0435 56.0134 0.0000 0.0000 0.0000
# 3 56.0136 56.0134 104.2430 0.0000 0.0000 0.0000
# 4 0.0000 0.0000 0.0000 -12.2920 0.0000 0.0000
# 5 0.0000 0.0000 0.0000 0.0000 -12.3053 0.0000
# 6 0.0000 0.0000 0.0000 0.0000 0.0000 12.4478
#
#
#
# Elastic Compliance Matrix: (Units=1/GPa)
#
#
# Indices 1 2 3 4 5 6 
#
# 1 0.011273 -0.002406 -0.004764 0.000000 0.000000 0.000000
# 2 -0.002406 0.011273 -0.004764 0.000000 0.000000 0.000000
# 3 -0.004764 -0.004764 0.014713 0.000000 0.000000 0.000000
# 4 0.000000 0.000000 0.000000 -0.081354 0.000000 0.000000
# 5 0.000000 0.000000 0.000000 0.000000 -0.081265 0.000000
# 6 0.000000 0.000000 0.000000 0.000000 0.000000 0.080336
#
#
# Mechanical properties :
#
#
# Convention : Reuss Voigt Hill
#
# Bulk Modulus (GPa) = 74.68972 74.91841 74.80406
# Shear Modulus (GPa) = -299.52981 10.12769 -144.70106
#
# Velocity S-wave (km/s) = -12.01280 2.20892 -8.34949
# Velocity P-wave (km/s) = 12.50703 6.52686 7.54407
#
# Compressibility (1/GPa) = 0.01338872
#
# Stress axis : x y z
#
# Youngs Moduli (GPa) = 88.71084 88.70961 67.96788
#
# Poissons Ratio (x) = 0.21348 0.32380
# Poissons Ratio (y) = 0.21348 0.32381
# Poissons Ratio (z) = 0.42263 0.42263
#
# Static dielectric constant tensor:
#      x y z
#    x 4.011730 0.000000 0.000000 
#    y 0.000000 4.011720 0.000000 
#    z 0.000000 0.000000 3.591650 
# 
# 
# High freq. dielectric constant tensor:
#      x y z
#    x 1.816030 0.000000 0.000000 
#    y 0.000000 1.816030 0.000000 
#    z 0.000000 0.000000 1.798330 
# 
# From -- ./inp_files/8825.got.cif
#   From: 2010.03.12/outbox.cif.g09.slc.cpg/sg119_5_cif.got.tgz:8825.got - 2010.04.14 02:25:26.
