data_PCOD8310390
_publ_section_title
;
Structure prediction by ZEFSAII (Michael W. Deem and Ramdas Pophale) SiO2 
 PCOD8310390
Probable space group: P -4 B 2
;
_chemical_formula_sum "Si O2"
_cell_formula_units_Z 36
_cell_length_a 9.464083
_cell_length_b 9.464083
_cell_length_c 18.391005
_cell_angle_alpha 90.000000
_cell_angle_beta 90.000000
_cell_angle_gamma 90.000000
_cell_volume 1647.261481
_symmetry_space_group_name_H-M "P -4 B 2"
_symmetry_group_IT_number 117
_symmetry_cell_setting 'tetragonal'
loop_
_space_group_symop_operation_xyz
x,y,z
y,-x,-z
-x,-y,z
-y,x,-z
1/2+y,1/2+x,-z
1/2-y,1/2-x,-z
1/2-x,1/2+y,z
1/2+x,1/2-y,z
loop_
_atom_site_type_symbol
_atom_site_label
_atom_site_fract_x
_atom_site_fract_y
_atom_site_fract_z
Si Si1 0.071678 0.309772 0.741198
Si Si2 0.746952 0.753049 0.000000
Si Si3 0.579397 0.703077 0.472912
Si Si4 0.289928 0.087091 0.689447
Si Si5 0.666264 0.004131 0.093770
O O1 0.162196 0.169068 0.728767
O O2 0.176857 0.443305 0.732934
O O3 0.002674 0.308306 0.820434
O O4 0.936502 0.321647 0.686169
O O5 0.751438 0.630882 0.058136
O O6 0.749356 0.879723 0.055952
O O7 0.680148 0.566318 0.483125
O O8 0.656780 0.843221 0.500000
O O9 0.544377 0.730604 0.389099
O O10 0.500000 0.000000 0.075075
#
# Coordination Sequence:
#
# PCOD8310390 Si02
#       5
#     8   4   8   8   8
#     4  11  25  44  71 100 138 182 232 286 345 417
#     4  12  24  44  72  94 144 182 224 294 346 418
#     4  11  24  42  66 100 140 177 228 284 339 413
#     4  11  23  44  69 100 137 184 229 286 348 407
#     4  12  24  47  67 103 142 178 233 289 348 412
#
# _framework density 21.854454
#
# number of rings (size 3 to 8) (size 9 to 14) (size 15 to 20)
#    0.000    0.667    4.444    4.000    0.000    5.333 
#    0.000    2.222    0.000    0.000    0.000    0.000 
#    0.000    0.000    0.000    0.000    0.000    0.000 
#
# Total GULP energy -446251.804470 kJ/mol
# GULP energy per Si atom -12395.883458 kJ/mol
# Density = 2.180471 g / cm^3
# Si number density = 21.854454 Si / 1000 Ang^3
#
#
#
# Elastic Constant Matrix: (Units=GPa)
#
#
# Indices 1 2 3 4 5 6 
#
# 1 100.0429 43.3718 56.0402 0.0000 0.0000 0.0000
# 2 43.3718 100.0408 56.0405 0.0000 0.0000 0.0000
# 3 56.0402 56.0405 146.4302 0.0000 0.0000 0.0000
# 4 0.0000 0.0000 0.0000 36.5007 0.0000 0.0000
# 5 0.0000 0.0000 0.0000 0.0000 36.5013 0.0000
# 6 0.0000 0.0000 0.0000 0.0000 0.0000 50.0477
#
#
#
# Elastic Compliance Matrix: (Units=1/GPa)
#
#
# Indices 1 2 3 4 5 6 
#
# 1 0.013797 -0.003849 -0.003807 0.000000 0.000000 0.000000
# 2 -0.003849 0.013797 -0.003807 0.000000 0.000000 0.000000
# 3 -0.003807 -0.003807 0.009743 0.000000 0.000000 0.000000
# 4 0.000000 0.000000 0.000000 0.027397 0.000000 0.000000
# 5 0.000000 0.000000 0.000000 0.000000 0.027396 0.000000
# 6 0.000000 0.000000 0.000000 0.000000 0.000000 0.019981
#
#
# Mechanical properties :
#
#
# Convention : Reuss Voigt Hill
#
# Bulk Modulus (GPa) = 69.39258 73.04653 71.21956
# Shear Modulus (GPa) = 35.75457 37.34738 36.55097
#
# Velocity S-wave (km/s) = 4.04918 4.13839 4.09402
# Velocity P-wave (km/s) = 7.32681 7.50544 7.41666
#
# Compressibility (1/GPa) = 0.01441076
#
# Stress axis : x y z
#
# Youngs Moduli (GPa) = 72.47967 72.47751 102.63355
#
# Poissons Ratio (x) = 0.27895 0.39075
# Poissons Ratio (y) = 0.27896 0.39077
# Poissons Ratio (z) = 0.27595 0.27595
#
# Static dielectric constant tensor:
#      x y z
#    x 3.991720 0.000000 0.000000 
#    y 0.000000 3.991720 0.000000 
#    z 0.000000 0.000000 4.047890 
# 
# 
# High freq. dielectric constant tensor:
#      x y z
#    x 1.863820 0.000000 0.000000 
#    y 0.000000 1.863820 0.000000 
#    z 0.000000 0.000000 1.871050 
# 
# From -- ./inp_files/3436.got.cif
#   From: 2010.03.12/outbox.cif.g09.slc.cpg/sg117_2_cif.got.tgz:3436.got - 2010.04.14 02:19:01.
