data_PCOD8310412
_publ_section_title
;
Structure prediction by ZEFSAII (Michael W. Deem and Ramdas Pophale) SiO2 
 PCOD8310412
Probable space group: P -4 B 2
;
_chemical_formula_sum "Si O2"
_cell_formula_units_Z 22
_cell_length_a 9.717075
_cell_length_b 9.717075
_cell_length_c 10.835078
_cell_angle_alpha 90.000000
_cell_angle_beta 90.000000
_cell_angle_gamma 90.000000
_cell_volume 1023.064822
_symmetry_space_group_name_H-M "P -4 B 2"
_symmetry_group_IT_number 117
_symmetry_cell_setting 'tetragonal'
loop_
_space_group_symop_operation_xyz
x,y,z
y,-x,-z
-x,-y,z
-y,x,-z
1/2+y,1/2+x,-z
1/2-y,1/2-x,-z
1/2-x,1/2+y,z
1/2+x,1/2-y,z
loop_
_atom_site_type_symbol
_atom_site_label
_atom_site_fract_x
_atom_site_fract_y
_atom_site_fract_z
Si Si1 0.500544 0.695024 0.930255
Si Si2 0.484259 0.343305 0.644982
Si Si3 0.000000 0.500000 0.000000
Si Si4 0.773305 0.726696 0.500000
O O1 0.501673 0.645901 0.790825
O O2 0.500083 0.860335 0.920939
O O3 0.634853 0.635639 0.001766
O O4 0.500000 0.500000 0.595349
O O5 0.591929 0.239892 0.582681
O O6 0.343363 0.272153 0.604366
#
# Coordination Sequence:
#
# PCOD8310412 Si02
#       4
#     8   8   2   4
#     4  11  26  47  74 102 154 196 228 305 379 432
#     4  12  26  49  71 105 151 188 250 295 372 440
#     4  12  28  40  68 126 132 176 260 284 366 444
#     4  12  26  46  74 102 142 196 238 304 348 434
#
# _framework density 21.504017000000001
#
# number of rings (size 3 to 8) (size 9 to 14) (size 15 to 20)
#    0.000    0.364    7.273    1.091   10.182    3.636 
#    0.000    0.000    0.000    0.000    0.000    0.000 
#    0.000    0.000    0.000    0.000    0.000    0.000 
#
# Total GULP energy -272614.917848 kJ/mol
# GULP energy per Si atom -12391.587175 kJ/mol
# Density = 2.145507 g / cm^3
# Si number density = 21.504017 Si / 1000 Ang^3
#
#
#
# Elastic Constant Matrix: (Units=GPa)
#
#
# Indices 1 2 3 4 5 6 
#
# 1 43.4782 76.4907 13.3444 0.0000 0.0000 0.0000
# 2 76.4907 43.4851 13.3537 0.0000 0.0000 0.0000
# 3 13.3444 13.3537 154.0681 0.0000 0.0000 0.0000
# 4 0.0000 0.0000 0.0000 15.3153 0.0000 0.0000
# 5 0.0000 0.0000 0.0000 0.0000 15.1928 0.0000
# 6 0.0000 0.0000 0.0000 0.0000 0.0000 41.8785
#
#
#
# Elastic Compliance Matrix: (Units=1/GPa)
#
#
# Indices 1 2 3 4 5 6 
#
# 1 -0.010898 0.019397 -0.000737 0.000000 0.000000 0.000000
# 2 0.019397 -0.010897 -0.000736 0.000000 0.000000 0.000000
# 3 -0.000737 -0.000736 0.006618 0.000000 0.000000 0.000000
# 4 0.000000 0.000000 0.000000 0.065294 0.000000 0.000000
# 5 0.000000 0.000000 0.000000 0.000000 0.065821 0.000000
# 6 0.000000 0.000000 0.000000 0.000000 0.000000 0.023879
#
#
# Mechanical properties :
#
#
# Convention : Reuss Voigt Hill
#
# Bulk Modulus (GPa) = 48.37718 49.71214 49.04466
# Shear Modulus (GPa) = 45.10274 23.66683 34.38479
#
# Velocity S-wave (km/s) = 4.58472 3.32109 4.00308
# Velocity P-wave (km/s) = 7.11139 6.15419 6.65003
#
# Compressibility (1/GPa) = 0.02067090
#
# Stress axis : x y z
#
# Youngs Moduli (GPa) = -91.75579 -91.76730 151.09743
#
# Poissons Ratio (x) = 1.78000 0.11140
# Poissons Ratio (y) = 1.77978 0.11114
# Poissons Ratio (z) = -0.06765 -0.06750
#
# Static dielectric constant tensor:
#      x y z
#    x 3.956580 0.000000 0.000000 
#    y 0.000000 3.956410 0.000000 
#    z 0.000000 0.000000 3.911310 
# 
# 
# High freq. dielectric constant tensor:
#      x y z
#    x 1.847940 0.000000 0.000000 
#    y 0.000000 1.847940 0.000000 
#    z 0.000000 0.000000 1.860140 
# 
# From -- ./inp_files/2249.got.cif
#   From: 2010.03.12/outbox.cif.g09.slc.cpg/sg117_2_cif.got.tgz:2249.got - 2010.04.14 02:19:01.
