data_PCOD8310852
_publ_section_title
;
Structure prediction by ZEFSAII (Michael W. Deem and Ramdas Pophale) SiO2 
 PCOD8310852
Probable space group: I -4 M 2
;
_chemical_formula_sum "Si O2"
_cell_formula_units_Z 96
_cell_length_a 13.749026
_cell_length_b 13.749026
_cell_length_c 26.211778
_cell_angle_alpha 90.000000
_cell_angle_beta 90.000000
_cell_angle_gamma 90.000000
_cell_volume 4954.962221
_symmetry_space_group_name_H-M "I -4 M 2"
_symmetry_group_IT_number 119
_symmetry_cell_setting 'tetragonal'
loop_
_space_group_symop_operation_xyz
x,y,z
y,-x,-z
-x,-y,z
-y,x,-z
y,x,-z
-y,-x,-z
-x,y,z
x,-y,z
1/2+x,1/2+y,1/2+z
1/2+y,1/2-x,1/2-z
1/2-x,1/2-y,1/2+z
1/2-y,1/2+x,1/2-z
1/2+y,1/2+x,1/2-z
1/2-y,1/2-x,1/2-z
1/2-x,1/2+y,1/2+z
1/2+x,1/2-y,1/2+z
loop_
_atom_site_type_symbol
_atom_site_label
_atom_site_fract_x
_atom_site_fract_y
_atom_site_fract_z
Si Si1 0.887602 0.232799 0.258371
Si Si2 0.387943 0.696293 0.949259
Si Si3 0.386397 0.708985 0.150830
Si Si4 0.388976 0.606963 0.342571
Si Si5 0.612431 0.891080 0.999605
Si Si6 0.611088 0.803574 0.392044
O O1 0.836761 0.336761 0.250000
O O2 0.838702 0.171745 0.303279
O O3 0.873084 0.174190 0.206869
O O4 0.000000 0.251238 0.271983
O O5 0.500000 0.680425 0.936579
O O6 0.328799 0.654428 0.902527
O O7 0.364012 0.811601 0.956169
O O8 0.362534 0.637467 0.000000
O O9 0.500000 0.685708 0.157362
O O10 0.366905 0.824862 0.147712
O O11 0.500000 0.612525 0.324267
O O12 0.365549 0.500000 0.365888
O O13 0.367241 0.688637 0.384857
O O14 0.500000 0.883759 0.016165
O O15 0.636844 0.000000 0.979298
O O16 0.674991 0.864162 0.049260
O O17 0.500000 0.830839 0.379542
#
# Coordination Sequence:
#
# PCOD8310852 Si02
#       6
#    16  16  16  16  16  16
#     4  11  23  41  62  86 119 157 197 242 293 353
#     4  11  22  36  55  82 118 158 199 244 291 349
#     4  12  24  39  61  90 121 154 197 249 302 359
#     4   9  18  35  60  86 113 150 195 241 294 356
#     4   9  18  35  58  83 115 157 198 238 293 355
#     4  10  19  34  59  87 116 152 194 242 296 353
#
# _framework density 19.374516
#
# number of rings (size 3 to 8) (size 9 to 14) (size 15 to 20)
#    0.000    1.667    3.333    2.000    0.000    4.000 
#    0.000    1.667    0.000    3.000    0.000    0.000 
#    0.000    0.000    0.000    0.000    0.000    0.000 
#
# Total GULP energy -595168.467998 kJ/mol
# GULP energy per Si atom -12399.343083 kJ/mol
# Density = 1.933042 g / cm^3
# Si number density = 19.374516 Si / 1000 Ang^3
#
#
#
# Elastic Constant Matrix: (Units=GPa)
#
#
# Indices 1 2 3 4 5 6 
#
# 1 112.2042 52.7280 39.4838 0.0000 0.0000 0.0000
# 2 52.7280 112.2050 39.4834 0.0000 0.0000 0.0000
# 3 39.4838 39.4834 56.0283 0.0000 0.0000 0.0000
# 4 0.0000 0.0000 0.0000 28.6923 0.0000 0.0000
# 5 0.0000 0.0000 0.0000 0.0000 28.6922 0.0000
# 6 0.0000 0.0000 0.0000 0.0000 0.0000 29.0265
#
#
#
# Elastic Compliance Matrix: (Units=1/GPa)
#
#
# Indices 1 2 3 4 5 6 
#
# 1 0.012982 -0.003831 -0.006449 0.000000 0.000000 0.000000
# 2 -0.003831 0.012982 -0.006448 0.000000 0.000000 0.000000
# 3 -0.006449 -0.006448 0.026937 0.000000 0.000000 0.000000
# 4 0.000000 0.000000 0.000000 0.034853 0.000000 0.000000
# 5 0.000000 0.000000 0.000000 0.000000 0.034853 0.000000
# 6 0.000000 0.000000 0.000000 0.000000 0.000000 0.034451
#
#
# Mechanical properties :
#
#
# Convention : Reuss Voigt Hill
#
# Bulk Modulus (GPa) = 51.42997 60.42532 55.92764
# Shear Modulus (GPa) = 25.38138 27.19835 26.28986
#
# Velocity S-wave (km/s) = 3.62337 3.75082 3.68765
# Velocity P-wave (km/s) = 6.64138 7.07206 6.86010
#
# Compressibility (1/GPa) = 0.01944392
#
# Stress axis : x y z
#
# Youngs Moduli (GPa) = 77.02958 77.03085 37.12418
#
# Poissons Ratio (x) = 0.29514 0.23940
# Poissons Ratio (y) = 0.29513 0.23939
# Poissons Ratio (z) = 0.49673 0.49672
#
# Static dielectric constant tensor:
#      x y z
#    x 3.838840 0.000000 0.000000 
#    y 0.000000 3.838850 0.000000 
#    z 0.000000 0.000000 3.591830 
# 
# 
# High freq. dielectric constant tensor:
#      x y z
#    x 1.766240 0.000000 0.000000 
#    y 0.000000 1.766240 0.000000 
#    z 0.000000 0.000000 1.731530 
# 
# From -- ./inp_files/7781.got.cif
#   From: 2010.03.12/outbox.cif.g09.slc.cpg/sg119_4_cif.got.tgz:7781.got - 2010.04.14 02:25:26.
