data_PCOD8310992
_publ_section_title
;
Structure prediction by ZEFSAII (Michael W. Deem and Ramdas Pophale) SiO2 
 PCOD8310992
Probable space group: I -4 M 2
;
_chemical_formula_sum "Si O2"
_cell_formula_units_Z 64
_cell_length_a 17.205024
_cell_length_b 17.205024
_cell_length_c 11.338939
_cell_angle_alpha 90.000000
_cell_angle_beta 90.000000
_cell_angle_gamma 90.000000
_cell_volume 3356.471659
_symmetry_space_group_name_H-M "I -4 M 2"
_symmetry_group_IT_number 119
_symmetry_cell_setting 'tetragonal'
loop_
_space_group_symop_operation_xyz
x,y,z
y,-x,-z
-x,-y,z
-y,x,-z
y,x,-z
-y,-x,-z
-x,y,z
x,-y,z
1/2+x,1/2+y,1/2+z
1/2+y,1/2-x,1/2-z
1/2-x,1/2-y,1/2+z
1/2-y,1/2+x,1/2-z
1/2+y,1/2+x,1/2-z
1/2-y,1/2-x,1/2-z
1/2-x,1/2+y,1/2+z
1/2+x,1/2-y,1/2+z
loop_
_atom_site_type_symbol
_atom_site_label
_atom_site_fract_x
_atom_site_fract_y
_atom_site_fract_z
Si Si1 0.689416 0.691386 0.695519
Si Si2 0.915410 0.591655 0.377809
Si Si3 0.908151 0.266476 0.993060
Si Si4 0.088408 0.911645 0.361571
O O1 0.737028 0.762973 0.750000
O O2 0.747424 0.631549 0.630995
O O3 0.625009 0.716698 0.601112
O O4 0.646594 0.647823 0.800893
O O5 0.924643 0.500000 0.367273
O O6 0.881235 0.618766 0.250000
O O7 0.856556 0.613518 0.481898
O O8 0.000000 0.629629 0.405548
O O9 0.000000 0.251541 0.985136
O O10 0.099147 0.900854 0.500000
O O11 0.000000 0.892295 0.324692
O O12 0.108265 0.000000 0.324016
#
# Coordination Sequence:
#
# PCOD8310992 Si02
#       4
#    16  16  16  16
#     4  11  23  36  56  83 123 150 185 233 300 351
#     4   8  14  28  51  76 102 135 183 234 268 309
#     4  10  21  37  56  80 111 151 190 231 281 343
#     4   9  19  38  64  88 111 147 198 248 289 342
#
# _framework density 19.067640999999998
#
# number of rings (size 3 to 8) (size 9 to 14) (size 15 to 20)
#    0.000    2.500    0.000    3.750    3.500    0.000 
#    0.000    3.750    0.000    6.000    0.000    0.000 
#    0.000    0.000    0.000    0.000    0.000    0.000 
#
# Total GULP energy -396671.502115 kJ/mol
# GULP energy per Si atom -12395.984441 kJ/mol
# Density = 1.902424 g / cm^3
# Si number density = 19.067641 Si / 1000 Ang^3
#
#
#
# Elastic Constant Matrix: (Units=GPa)
#
#
# Indices 1 2 3 4 5 6 
#
# 1 94.4435 46.7368 41.6406 0.0000 0.0000 0.0000
# 2 46.7368 94.4402 41.6399 0.0000 0.0000 0.0000
# 3 41.6406 41.6399 70.2656 0.0000 0.0000 0.0000
# 4 0.0000 0.0000 0.0000 34.4860 0.0000 0.0000
# 5 0.0000 0.0000 0.0000 0.0000 34.4869 0.0000
# 6 0.0000 0.0000 0.0000 0.0000 0.0000 34.2936
#
#
#
# Elastic Compliance Matrix: (Units=1/GPa)
#
#
# Indices 1 2 3 4 5 6 
#
# 1 0.015926 -0.005036 -0.006454 0.000000 0.000000 0.000000
# 2 -0.005036 0.015926 -0.006454 0.000000 0.000000 0.000000
# 3 -0.006454 -0.006454 0.021881 0.000000 0.000000 0.000000
# 4 0.000000 0.000000 0.000000 0.028997 0.000000 0.000000
# 5 0.000000 0.000000 0.000000 0.000000 0.028997 0.000000
# 6 0.000000 0.000000 0.000000 0.000000 0.000000 0.029160
#
#
# Mechanical properties :
#
#
# Convention : Reuss Voigt Hill
#
# Bulk Modulus (GPa) = 56.03339 57.68709 56.86024
# Shear Modulus (GPa) = 27.36395 29.26212 28.31303
#
# Velocity S-wave (km/s) = 3.79238 3.92171 3.85759
# Velocity P-wave (km/s) = 6.97328 7.12924 7.05169
#
# Compressibility (1/GPa) = 0.01784650
#
# Stress axis : x y z
#
# Youngs Moduli (GPa) = 62.79091 62.78866 45.70226
#
# Poissons Ratio (x) = 0.31620 0.29494
# Poissons Ratio (y) = 0.31621 0.29495
# Poissons Ratio (z) = 0.40523 0.40522
#
# Static dielectric constant tensor:
#      x y z
#    x 3.594680 0.000000 0.000000 
#    y 0.000000 3.594690 0.000000 
#    z 0.000000 0.000000 3.398920 
# 
# 
# High freq. dielectric constant tensor:
#      x y z
#    x 1.742360 0.000000 0.000000 
#    y 0.000000 1.742360 0.000000 
#    z 0.000000 0.000000 1.729060 
# 
# From -- ./inp_files/3720.got.cif
#   From: 2010.03.12/outbox.cif.g09.slc.cpg/sg119_2_cif.got.tgz:3720.got - 2010.04.14 02:25:26.
