data_PCOD8310509
_publ_section_title
;
Structure prediction by ZEFSAII (Michael W. Deem and Ramdas Pophale) SiO2 
 PCOD8310509
Probable space group: P -4 N 2
;
_chemical_formula_sum "Si O2"
_cell_formula_units_Z 34
_cell_length_a 9.321499
_cell_length_b 9.321499
_cell_length_c 19.979056
_cell_angle_alpha 90.000000
_cell_angle_beta 90.000000
_cell_angle_gamma 90.000000
_cell_volume 1735.987041
_symmetry_space_group_name_H-M "P -4 N 2"
_symmetry_group_IT_number 118
_symmetry_cell_setting 'tetragonal'
loop_
_space_group_symop_operation_xyz
x,y,z
y,-x,-z
-x,-y,z
-y,x,-z
1/2+y,1/2+x,1/2-z
1/2-y,1/2-x,1/2-z
1/2-x,1/2+y,1/2+z
1/2+x,1/2-y,1/2+z
loop_
_atom_site_type_symbol
_atom_site_label
_atom_site_fract_x
_atom_site_fract_y
_atom_site_fract_z
Si Si1 0.000000 0.500000 0.250000
Si Si2 0.730498 0.903546 0.656175
Si Si3 0.582480 0.229457 0.307724
Si Si4 0.500000 0.000000 0.088810
Si Si5 0.000000 0.000000 0.266545
Si Si6 0.231953 0.024041 0.508214
O O1 0.995105 0.634642 0.298290
O O2 0.702022 0.734909 0.669655
O O3 0.699335 0.935035 0.579026
O O4 0.884848 0.954779 0.678678
O O5 0.612677 0.112677 0.250000
O O6 0.504387 0.145776 0.367611
O O7 0.480197 0.359923 0.281568
O O8 0.508424 0.857180 0.045407
O O9 0.125996 0.149437 0.484454
#
# Coordination Sequence:
#
# PCOD8310509 Si02
#       6
#     2   8   8   4   4   8
#     4  12  22  40  68  88 134 164 206 276 320 376
#     4  11  22  42  63  97 129 166 217 264 315 388
#     4  10  22  43  63  97 132 158 213 271 320 383
#     4  12  24  44  66  94 132 174 206 274 326 368
#     4  10  20  42  69  93 132 162 208 278 320 366
#     4  11  24  43  67  91 128 175 220 257 310 396
#
# _framework density 19.5854
#
# number of rings (size 3 to 8) (size 9 to 14) (size 15 to 20)
#    0.000    1.176    5.882    2.471    3.294    1.882 
#    4.235    0.000    0.000    0.000    0.000    0.000 
#    0.000    0.000    0.000    0.000    0.000    0.000 
#
# Total GULP energy -421424.813176 kJ/mol
# GULP energy per Si atom -12394.847446 kJ/mol
# Density = 1.954082 g / cm^3
# Si number density = 19.585400 Si / 1000 Ang^3
#
#
#
# Elastic Constant Matrix: (Units=GPa)
#
#
# Indices 1 2 3 4 5 6 
#
# 1 48.5587 20.2603 10.0572 0.0000 0.0000 0.0000
# 2 20.2603 48.5587 10.0572 0.0000 0.0000 0.0000
# 3 10.0572 10.0572 103.3884 0.0000 0.0000 0.0000
# 4 0.0000 0.0000 0.0000 37.2882 0.0000 0.0000
# 5 0.0000 0.0000 0.0000 0.0000 37.2882 0.0000
# 6 0.0000 0.0000 0.0000 0.0000 0.0000 28.4733
#
#
#
# Elastic Compliance Matrix: (Units=1/GPa)
#
#
# Indices 1 2 3 4 5 6 
#
# 1 0.025147 -0.010191 -0.001455 0.000000 0.000000 0.000000
# 2 -0.010191 0.025147 -0.001455 0.000000 0.000000 0.000000
# 3 -0.001455 -0.001455 0.009955 0.000000 0.000000 0.000000
# 4 0.000000 0.000000 0.000000 0.026818 0.000000 0.000000
# 5 0.000000 0.000000 0.000000 0.000000 0.026818 0.000000
# 6 0.000000 0.000000 0.000000 0.000000 0.000000 0.035121
#
#
# Mechanical properties :
#
#
# Convention : Reuss Voigt Hill
#
# Bulk Modulus (GPa) = 29.37028 31.25060 30.31044
# Shear Modulus (GPa) = 26.80153 31.28534 29.04344
#
# Velocity S-wave (km/s) = 3.70326 4.00106 3.85504
# Velocity P-wave (km/s) = 5.77184 6.11027 5.94346
#
# Compressibility (1/GPa) = 0.03404802
#
# Stress axis : x y z
#
# Youngs Moduli (GPa) = 39.76631 39.76631 100.44890
#
# Poissons Ratio (x) = 0.40525 0.14614
# Poissons Ratio (y) = 0.40525 0.14614
# Poissons Ratio (z) = 0.05786 0.05786
#
# Static dielectric constant tensor:
#      x y z
#    x 3.443920 0.000000 0.000000 
#    y 0.000000 3.443920 0.000000 
#    z 0.000000 0.000000 3.773270 
# 
# 
# High freq. dielectric constant tensor:
#      x y z
#    x 1.757930 0.000000 0.000000 
#    y 0.000000 1.757930 0.000000 
#    z 0.000000 0.000000 1.780600 
# 
# From -- ./inp_files/5498.got.cif
#   From: 2010.03.12/outbox.cif.g09.slc.cpg/sg118_3_cif.got.tgz:5498.got - 2010.04.14 02:21:17.
