data_PCOD8310396
_publ_section_title
;
Structure prediction by ZEFSAII (Michael W. Deem and Ramdas Pophale) SiO2 
 PCOD8310396
Probable space group: P -4 B 2
;
_chemical_formula_sum "Si O2"
_cell_formula_units_Z 24
_cell_length_a 9.206926
_cell_length_b 9.206926
_cell_length_c 12.964575
_cell_angle_alpha 90.000000
_cell_angle_beta 90.000000
_cell_angle_gamma 90.000000
_cell_volume 1098.974435
_symmetry_space_group_name_H-M "P -4 B 2"
_symmetry_group_IT_number 117
_symmetry_cell_setting 'tetragonal'
loop_
_space_group_symop_operation_xyz
x,y,z
y,-x,-z
-x,-y,z
-y,x,-z
1/2+y,1/2+x,-z
1/2-y,1/2-x,-z
1/2-x,1/2+y,z
1/2+x,1/2-y,z
loop_
_atom_site_type_symbol
_atom_site_label
_atom_site_fract_x
_atom_site_fract_y
_atom_site_fract_z
Si Si1 0.856081 0.085715 0.771839
Si Si2 0.632227 0.894094 0.880612
Si Si3 0.209042 0.919175 0.541478
O O1 0.884031 0.246176 0.816343
O O2 0.772584 0.096105 0.664186
O O3 0.774733 0.985024 0.853904
O O4 0.000000 0.000000 0.743880
O O5 0.500000 0.000000 0.854983
O O6 0.645311 0.854690 0.000000
O O7 0.363065 0.863065 0.500000
O O8 0.082505 0.815705 0.496446
#
# Coordination Sequence:
#
# PCOD8310396 Si02
#       3
#     8   8   8
#     4  12  25  46  73 100 142 183 232 295 352 422
#     4  11  28  45  71 105 137 182 239 288 358 425
#     4  11  24  45  68 101 138 177 228 278 343 417
#
# _framework density 21.838543000000001
#
# number of rings (size 3 to 8) (size 9 to 14) (size 15 to 20)
#    0.000    0.667    3.333    4.000   14.000    0.667 
#    0.000    0.000    0.000    0.000    0.000    0.000 
#    0.000    0.000    0.000    0.000    0.000    0.000 
#
# Total GULP energy -297683.668688 kJ/mol
# GULP energy per Si atom -12403.486195 kJ/mol
# Density = 2.178884 g / cm^3
# Si number density = 21.838543 Si / 1000 Ang^3
#
#
#
# Elastic Constant Matrix: (Units=GPa)
#
#
# Indices 1 2 3 4 5 6 
#
# 1 74.6453 11.0877 33.0605 0.0000 0.0000 0.0000
# 2 11.0877 74.6456 33.0603 0.0000 0.0000 0.0000
# 3 33.0605 33.0603 164.3334 0.0000 0.0000 0.0000
# 4 0.0000 0.0000 0.0000 94.8291 0.0000 0.0000
# 5 0.0000 0.0000 0.0000 0.0000 94.8344 0.0000
# 6 0.0000 0.0000 0.0000 0.0000 0.0000 41.9291
#
#
#
# Elastic Compliance Matrix: (Units=1/GPa)
#
#
# Indices 1 2 3 4 5 6 
#
# 1 0.014770 -0.000964 -0.002778 0.000000 0.000000 0.000000
# 2 -0.000964 0.014770 -0.002778 0.000000 0.000000 0.000000
# 3 -0.002778 -0.002778 0.007203 0.000000 0.000000 0.000000
# 4 0.000000 0.000000 0.000000 0.010545 0.000000 0.000000
# 5 0.000000 0.000000 0.000000 0.000000 0.010545 0.000000
# 6 0.000000 0.000000 0.000000 0.000000 0.000000 0.023850
#
#
# Mechanical properties :
#
#
# Convention : Reuss Voigt Hill
#
# Bulk Modulus (GPa) = 42.18494 52.00457 47.09476
# Shear Modulus (GPa) = 48.72261 62.07956 55.40108
#
# Velocity S-wave (km/s) = 4.72851 5.33744 5.04218
# Velocity P-wave (km/s) = 7.01216 7.86443 7.45049
#
# Compressibility (1/GPa) = 0.02370514
#
# Stress axis : x y z
#
# Youngs Moduli (GPa) = 67.70470 67.70507 138.83597
#
# Poissons Ratio (x) = 0.06525 0.38562
# Poissons Ratio (y) = 0.06525 0.38562
# Poissons Ratio (z) = 0.18805 0.18805
#
# Static dielectric constant tensor:
#      x y z
#    x 3.879750 0.000000 0.000000 
#    y 0.000000 3.879740 0.000000 
#    z 0.000000 0.000000 3.993120 
# 
# 
# High freq. dielectric constant tensor:
#      x y z
#    x 1.865100 0.000000 0.000000 
#    y 0.000000 1.865100 0.000000 
#    z 0.000000 0.000000 1.876050 
# 
# From -- ./inp_files/2998.got.cif
#   From: 2010.03.12/outbox.cif.g09.slc.cpg/sg117_2_cif.got.tgz:2998.got - 2010.04.14 02:19:01.
