data_PCOD8310791
_publ_section_title
;
Structure prediction by ZEFSAII (Michael W. Deem and Ramdas Pophale) SiO2 
 PCOD8310791
Probable space group: I -4 M 2
;
_chemical_formula_sum "Si O2"
_cell_formula_units_Z 80
_cell_length_a 17.621931
_cell_length_b 17.621931
_cell_length_c 14.958175
_cell_angle_alpha 90.000000
_cell_angle_beta 90.000000
_cell_angle_gamma 90.000000
_cell_volume 4644.998763
_symmetry_space_group_name_H-M "I -4 M 2"
_symmetry_group_IT_number 119
_symmetry_cell_setting 'tetragonal'
loop_
_space_group_symop_operation_xyz
x,y,z
y,-x,-z
-x,-y,z
-y,x,-z
y,x,-z
-y,-x,-z
-x,y,z
x,-y,z
1/2+x,1/2+y,1/2+z
1/2+y,1/2-x,1/2-z
1/2-x,1/2-y,1/2+z
1/2-y,1/2+x,1/2-z
1/2+y,1/2+x,1/2-z
1/2-y,1/2-x,1/2-z
1/2-x,1/2+y,1/2+z
1/2+x,1/2-y,1/2+z
loop_
_atom_site_type_symbol
_atom_site_label
_atom_site_fract_x
_atom_site_fract_y
_atom_site_fract_z
Si Si1 0.416201 0.416201 0.000000
Si Si2 0.828115 0.867102 0.667408
Si Si3 0.199831 0.586763 0.288969
Si Si4 0.734685 0.726766 0.394173
Si Si5 0.314393 0.413418 0.670588
Si Si6 0.585056 0.414945 0.500000
O O1 0.355843 0.407458 0.078421
O O2 0.405439 0.500000 0.959151
O O3 0.762217 0.918238 0.710342
O O4 0.794544 0.785647 0.641857
O O5 0.899023 0.856605 0.735377
O O6 0.186167 0.500000 0.324377
O O7 0.120843 0.620843 0.250000
O O8 0.232353 0.643838 0.365040
O O9 0.728270 0.728270 0.500000
O O10 0.653486 0.746714 0.346262
O O11 0.282870 0.500000 0.667799
O O12 0.369103 0.394220 0.587878
O O13 0.500000 0.399636 0.530140
#
# Coordination Sequence:
#
# PCOD8310791 Si02
#       6
#     8  16  16  16  16   8
#     4  11  22  33  50  76 102 135 176 213 250 300
#     4  10  20  36  51  70 105 141 175 209 257 312
#     4   9  19  33  53  78 102 136 177 221 273 321
#     4  10  19  34  53  74 102 140 174 216 260 316
#     4  10  19  31  49  74 100 129 168 211 255 299
#     4   9  18  29  42  66 100 131 156 191 246 302
#
# _framework density 17.222825
#
# number of rings (size 3 to 8) (size 9 to 14) (size 15 to 20)
#    0.000    2.200    2.000    3.000    0.000    5.000 
#    0.000    2.000    0.000    0.000    0.000    0.000 
#    0.000   13.600    0.000    0.000    0.000    0.000 
#
# Total GULP energy -495554.810255 kJ/mol
# GULP energy per Si atom -12388.870256 kJ/mol
# Density = 1.718362 g / cm^3
# Si number density = 17.222825 Si / 1000 Ang^3
#
#
#
# Elastic Constant Matrix: (Units=GPa)
#
#
# Indices 1 2 3 4 5 6 
#
# 1 91.4935 39.0344 26.4254 0.0000 0.0000 0.0000
# 2 39.0344 91.4942 26.4252 0.0000 0.0000 0.0000
# 3 26.4254 26.4252 97.2120 0.0000 0.0000 0.0000
# 4 0.0000 0.0000 0.0000 23.3300 0.0000 0.0000
# 5 0.0000 0.0000 0.0000 0.0000 23.3304 0.0000
# 6 0.0000 0.0000 0.0000 0.0000 0.0000 17.7045
#
#
#
# Elastic Compliance Matrix: (Units=1/GPa)
#
#
# Indices 1 2 3 4 5 6 
#
# 1 0.013836 -0.005227 -0.002340 0.000000 0.000000 0.000000
# 2 -0.005227 0.013835 -0.002340 0.000000 0.000000 0.000000
# 3 -0.002340 -0.002340 0.011559 0.000000 0.000000 0.000000
# 4 0.000000 0.000000 0.000000 0.042863 0.000000 0.000000
# 5 0.000000 0.000000 0.000000 0.000000 0.042863 0.000000
# 6 0.000000 0.000000 0.000000 0.000000 0.000000 0.056483
#
#
# Mechanical properties :
#
#
# Convention : Reuss Voigt Hill
#
# Bulk Modulus (GPa) = 51.50405 51.55218 51.52812
# Shear Modulus (GPa) = 24.07032 25.42730 24.74881
#
# Velocity S-wave (km/s) = 3.74248 3.84653 3.79486
# Velocity P-wave (km/s) = 6.97455 7.05161 7.01318
#
# Compressibility (1/GPa) = 0.01941595
#
# Stress axis : x y z
#
# Youngs Moduli (GPa) = 72.27744 72.27811 86.51250
#
# Poissons Ratio (x) = 0.37779 0.20245
# Poissons Ratio (y) = 0.37778 0.20245
# Poissons Ratio (z) = 0.16914 0.16914
#
# Static dielectric constant tensor:
#      x y z
#    x 3.201090 0.000000 0.000000 
#    y 0.000000 3.201070 0.000000 
#    z 0.000000 0.000000 3.236400 
# 
# 
# High freq. dielectric constant tensor:
#      x y z
#    x 1.651770 0.000000 0.000000 
#    y 0.000000 1.651770 0.000000 
#    z 0.000000 0.000000 1.674840 
# 
# From -- ./inp_files/5341.got.cif
#   From: 2010.03.12/outbox.cif.g09.slc.cpg/sg119_3_cif.got.tgz:5341.got - 2010.04.14 02:25:26.
