data_PCOD8310335
_publ_section_title
;
Structure prediction by ZEFSAII (Michael W. Deem and Ramdas Pophale) SiO2 
 PCOD8310335
Probable space group: P -4 B 2
;
_chemical_formula_sum "Si O2"
_cell_formula_units_Z 54
_cell_length_a 14.037670
_cell_length_b 14.037670
_cell_length_c 12.946182
_cell_angle_alpha 90.000000
_cell_angle_beta 90.000000
_cell_angle_gamma 90.000000
_cell_volume 2551.125158
_symmetry_space_group_name_H-M "P -4 B 2"
_symmetry_group_IT_number 117
_symmetry_cell_setting 'tetragonal'
loop_
_space_group_symop_operation_xyz
x,y,z
y,-x,-z
-x,-y,z
-y,x,-z
1/2+y,1/2+x,-z
1/2-y,1/2-x,-z
1/2-x,1/2+y,z
1/2+x,1/2-y,z
loop_
_atom_site_type_symbol
_atom_site_label
_atom_site_fract_x
_atom_site_fract_y
_atom_site_fract_z
Si Si1 0.739627 0.380276 0.048455
Si Si2 0.684068 0.908151 0.590364
Si Si3 0.990383 0.198194 0.575601
Si Si4 0.891003 0.681853 0.731389
Si Si5 0.500000 0.500000 0.500000
Si Si6 0.500000 0.000000 0.681496
Si Si7 0.404039 0.757073 0.956295
Si Si8 0.315466 0.264816 0.718226
O O1 0.752729 0.487339 0.009960
O O2 0.737092 0.366571 0.171241
O O3 0.829491 0.329491 0.000000
O O4 0.643534 0.338203 0.999900
O O5 0.667823 0.832178 0.500000
O O6 0.763076 0.979807 0.543271
O O7 0.583939 0.959950 0.610627
O O8 0.715797 0.844772 0.689598
O O9 0.891277 0.195392 0.637114
O O10 0.067233 0.263993 0.632487
O O11 0.029477 0.090679 0.569704
O O12 0.949808 0.583313 0.749663
O O13 0.900079 0.746076 0.832696
O O14 0.777363 0.666226 0.715069
O O15 0.351231 0.851231 0.000000
#
# Coordination Sequence:
#
# PCOD8310335 Si02
#       8
#     8   8   8   8   2   4   8   8
#     4  11  23  46  72  99 147 184 238 296 353 429
#     4  10  21  41  66 101 137 180 224 285 348 419
#     4  11  25  46  67  98 144 181 244 285 360 425
#     4  12  24  44  72 102 141 179 233 298 350 432
#     4  12  28  48  60 104 134 196 244 300 324 452
#     4  12  23  40  73 108 140 174 241 282 357 424
#     4  11  24  46  68 105 138 182 240 289 354 418
#     4  11  22  46  70  96 141 193 221 292 364 410
#
# _framework density 21.167131000000001
#
# number of rings (size 3 to 8) (size 9 to 14) (size 15 to 20)
#    0.000    0.889    7.407    1.111    2.074    2.963 
#    2.667    0.000    0.000    0.000    0.000    0.000 
#    0.000    0.000    0.000    0.000    0.000    0.000 
#
# Total GULP energy -669345.407174 kJ/mol
# GULP energy per Si atom -12395.285318 kJ/mol
# Density = 2.111895 g / cm^3
# Si number density = 21.167131 Si / 1000 Ang^3
#
#
#
# Elastic Constant Matrix: (Units=GPa)
#
#
# Indices 1 2 3 4 5 6 
#
# 1 135.2967 32.6290 29.7928 0.0000 0.0000 0.0000
# 2 32.6290 135.2968 29.7927 0.0000 0.0000 0.0000
# 3 29.7928 29.7927 89.6702 0.0000 0.0000 0.0000
# 4 0.0000 0.0000 0.0000 -88.5902 0.0000 0.0000
# 5 0.0000 0.0000 0.0000 0.0000 -88.5429 0.0000
# 6 0.0000 0.0000 0.0000 0.0000 0.0000 34.4162
#
#
#
# Elastic Compliance Matrix: (Units=1/GPa)
#
#
# Indices 1 2 3 4 5 6 
#
# 1 0.008246 -0.001495 -0.002243 0.000000 0.000000 0.000000
# 2 -0.001495 0.008246 -0.002243 0.000000 0.000000 0.000000
# 3 -0.002243 -0.002243 0.012642 0.000000 0.000000 0.000000
# 4 0.000000 0.000000 0.000000 -0.011288 0.000000 0.000000
# 5 0.000000 0.000000 0.000000 0.000000 -0.011294 0.000000
# 6 0.000000 0.000000 0.000000 0.000000 0.000000 0.029056
#
#
# Mechanical properties :
#
#
# Convention : Reuss Voigt Hill
#
# Bulk Modulus (GPa) = 58.23325 60.52142 59.37733
# Shear Modulus (GPa) = 93.82115 -10.67343 41.57386
#
# Velocity S-wave (km/s) = 6.66485 -2.24798 4.43660
# Velocity P-wave (km/s) = 9.31654 4.68149 7.37273
#
# Compressibility (1/GPa) = 0.01717232
#
# Stress axis : x y z
#
# Youngs Moduli (GPa) = 121.27788 121.27794 79.09879
#
# Poissons Ratio (x) = 0.18127 0.17742
# Poissons Ratio (y) = 0.18127 0.17742
# Poissons Ratio (z) = 0.27202 0.27202
#
# Static dielectric constant tensor:
#      x y z
#    x 3.961060 0.000000 0.000000 
#    y 0.000000 3.961090 0.000000 
#    z 0.000000 0.000000 3.928940 
# 
# 
# High freq. dielectric constant tensor:
#      x y z
#    x 1.829780 0.000000 0.000000 
#    y 0.000000 1.829780 0.000000 
#    z 0.000000 0.000000 1.826150 
# 
# From -- ./inp_files/2910.got.cif
#   From: 2010.03.12/outbox.cif.g09.slc.cpg/sg117_2_cif.got.tgz:2910.got - 2010.04.14 02:19:01.
