data_PCOD8310019
_publ_section_title
;
Structure prediction by ZEFSAII (Michael W. Deem and Ramdas Pophale) SiO2 
 PCOD8310019
Probable space group: P -4 M 2
;
_chemical_formula_sum "Si O2"
_cell_formula_units_Z 44
_cell_length_a 9.416114
_cell_length_b 9.416114
_cell_length_c 28.903880
_cell_angle_alpha 90.000000
_cell_angle_beta 90.000000
_cell_angle_gamma 90.000000
_cell_volume 2562.710576
_symmetry_space_group_name_H-M "P -4 M 2"
_symmetry_group_IT_number 115
_symmetry_cell_setting 'tetragonal'
loop_
_space_group_symop_operation_xyz
x,y,z
y,-x,-z
-x,-y,z
-y,x,-z
y,x,-z
-y,-x,-z
-x,y,z
x,-y,z
loop_
_atom_site_type_symbol
_atom_site_label
_atom_site_fract_x
_atom_site_fract_y
_atom_site_fract_z
Si Si1 0.165168 0.165168 0.500000
Si Si2 0.339030 0.331037 0.225335
Si Si3 0.164422 0.666470 0.137426
Si Si4 0.835442 0.333560 0.313393
Si Si5 0.158016 0.169020 0.949579
Si Si6 0.169543 0.160389 0.401025
O O1 0.223948 0.226668 0.450791
O O2 0.000000 0.196319 0.504173
O O3 0.500000 0.272345 0.225426
O O4 0.337507 0.500000 0.225226
O O5 0.256590 0.274634 0.180163
O O6 0.256244 0.275214 0.270493
O O7 0.185158 0.500000 0.130675
O O8 0.223995 0.739959 0.091044
O O9 0.000000 0.704548 0.146895
O O10 0.814262 0.500000 0.320564
O O11 0.775388 0.258016 0.359355
O O12 0.000000 0.296219 0.303957
O O13 0.000000 0.230399 0.940799
O O14 0.152509 0.000000 0.950007
O O15 0.217759 0.217759 0.000000
O O16 0.000000 0.159189 0.402321
O O17 0.226016 0.000000 0.393302
#
# Coordination Sequence:
#
# PCOD8310019 Si02
#       6
#     4   8   8   8   8   8
#     4   7  10  18  34  56  80 105 132 160 192 235
#     4   9  17  29  44  60  80 109 140 166 199 246
#     4   9  16  27  45  66  83 101 133 175 207 230
#     4   9  16  26  42  63  82 100 130 173 209 233
#     4   8  14  26  44  64  86 112 138 162 194 240
#     4   8  13  22  38  60  83 106 133 164 198 238
#
# _framework density 17.169321
#
# number of rings (size 3 to 8) (size 9 to 14) (size 15 to 20)
#    0.000    3.545    0.000    2.182    0.000    2.182 
#    0.000    1.818    0.000    8.727    0.000    2.545 
#    0.000    0.000    0.000    0.000    0.000    0.000 
#
# Total GULP energy -545126.394040 kJ/mol
# GULP energy per Si atom -12389.236228 kJ/mol
# Density = 1.713024 g / cm^3
# Si number density = 17.169321 Si / 1000 Ang^3
#
#
#
# Elastic Constant Matrix: (Units=GPa)
#
#
# Indices 1 2 3 4 5 6 
#
# 1 44.9057 21.1593 56.5694 0.0000 0.0000 0.0000
# 2 21.1593 44.9057 56.5694 0.0000 0.0000 0.0000
# 3 56.5694 56.5694 214.7525 0.0000 0.0000 0.0000
# 4 0.0000 0.0000 0.0000 11.3959 0.0000 0.0000
# 5 0.0000 0.0000 0.0000 0.0000 11.3959 0.0000
# 6 0.0000 0.0000 0.0000 0.0000 0.0000 8.5068
#
#
#
# Elastic Compliance Matrix: (Units=1/GPa)
#
#
# Indices 1 2 3 4 5 6 
#
# 1 0.034844 -0.007267 -0.007264 0.000000 0.000000 0.000000
# 2 -0.007267 0.034844 -0.007264 0.000000 0.000000 0.000000
# 3 -0.007264 -0.007264 0.008484 0.000000 0.000000 0.000000
# 4 0.000000 0.000000 0.000000 0.087751 0.000000 0.000000
# 5 0.000000 0.000000 0.000000 0.000000 0.087751 0.000000
# 6 0.000000 0.000000 0.000000 0.000000 0.000000 0.117552
#
#
# Mechanical properties :
#
#
# Convention : Reuss Voigt Hill
#
# Bulk Modulus (GPa) = 28.91812 63.68445 46.30128
# Shear Modulus (GPa) = 11.72762 17.61079 14.66920
#
# Velocity S-wave (km/s) = 2.61637 3.20615 2.92616
# Velocity P-wave (km/s) = 5.09967 7.13291 6.20020
#
# Compressibility (1/GPa) = 0.03458040
#
# Stress axis : x y z
#
# Youngs Moduli (GPa) = 28.69910 28.69910 117.87523
#
# Poissons Ratio (x) = 0.20857 0.85627
# Poissons Ratio (y) = 0.20857 0.85627
# Poissons Ratio (z) = 0.20848 0.20848
#
# Static dielectric constant tensor:
#      x y z
#    x 2.902690 0.000000 0.000000 
#    y 0.000000 2.902690 0.000000 
#    z 0.000000 0.000000 3.764840 
# 
# 
# High freq. dielectric constant tensor:
#      x y z
#    x 1.617000 0.000000 0.000000 
#    y 0.000000 1.617000 0.000000 
#    z 0.000000 0.000000 1.688560 
# 
# From -- ./inp_files/5739.got.cif
#   From: 2010.03.12/outbox.cif.g09.slc.cpg/sg115_3_cif.got.tgz:5739.got - 2010.04.14 02:11:21.
