data_PCOD8310117
_publ_section_title
;
Structure prediction by ZEFSAII (Michael W. Deem and Ramdas Pophale) SiO2 
 PCOD8310117
Probable space group: P -4 C 2
;
_chemical_formula_sum "Si O2"
_cell_formula_units_Z 44
_cell_length_a 13.736689
_cell_length_b 13.736689
_cell_length_c 12.831576
_cell_angle_alpha 90.000000
_cell_angle_beta 90.000000
_cell_angle_gamma 90.000000
_cell_volume 2421.275081
_symmetry_space_group_name_H-M "P -4 C 2"
_symmetry_group_IT_number 116
_symmetry_cell_setting 'tetragonal'
loop_
_space_group_symop_operation_xyz
x,y,z
y,-x,-z
-x,-y,z
-y,x,-z
y,x,1/2-z
-y,-x,1/2-z
-x,y,1/2+z
x,-y,1/2+z
loop_
_atom_site_type_symbol
_atom_site_label
_atom_site_fract_x
_atom_site_fract_y
_atom_site_fract_z
Si Si1 0.086598 0.184800 0.072000
Si Si2 0.372350 0.752683 0.571006
Si Si3 0.766763 0.766763 0.250000
Si Si4 0.315200 0.586598 0.428000
Si Si5 0.000000 0.000000 0.500000
Si Si6 0.252683 0.127650 0.928994
Si Si7 0.266763 0.266763 0.750000
Si Si8 0.500000 0.500000 0.000000
O O1 0.142642 0.224701 0.171995
O O2 0.988709 0.247743 0.061167
O O3 0.156812 0.186564 0.970428
O O4 0.055642 0.071450 0.080369
O O5 0.336082 0.771189 0.688973
O O6 0.313436 0.656812 0.529571
O O7 0.488709 0.747743 0.561166
O O8 0.344629 0.844630 0.500000
O O9 0.275299 0.642641 0.328005
O O10 0.428549 0.555641 0.419631
O O11 0.271189 0.163918 0.811027
#
# Coordination Sequence:
#
# PCOD8310117 Si02
#       8
#     8   8   4   8   2   8   4   2
#     4   9  18  33  51  76 104 127 167 209 255 301
#     4   9  19  34  52  74 103 136 164 205 253 297
#     4  10  20  31  52  79 102 132 166 208 252 296
#     4   9  18  33  51  76 104 127 167 209 255 301
#     4   8  16  30  52  76 100 130 156 214 272 292
#     4   9  19  34  52  74 103 136 164 205 253 297
#     4  10  20  31  52  79 102 132 166 208 252 296
#     4   8  16  30  52  76 100 130 156 214 272 292
#
# _framework density 18.172242000000001
#
# number of rings (size 3 to 8) (size 9 to 14) (size 15 to 20)
#    0.000    2.909    0.000    0.000    0.000   12.364 
#    0.000    0.000    0.000   24.000    0.000    0.000 
#    0.000    0.000    0.000    0.000    0.000    0.000 
#
# Total GULP energy -545092.574166 kJ/mol
# GULP energy per Si atom -12388.467595 kJ/mol
# Density = 1.813088 g / cm^3
# Si number density = 18.172242 Si / 1000 Ang^3
#
#
#
# Elastic Constant Matrix: (Units=GPa)
#
#
# Indices 1 2 3 4 5 6 
#
# 1 98.1774 42.6929 35.9141 0.0000 0.0000 0.0000
# 2 42.6929 98.1774 35.9141 0.0000 0.0000 0.0000
# 3 35.9141 35.9141 96.5644 0.0000 0.0000 0.0000
# 4 0.0000 0.0000 0.0000 21.7983 0.0000 0.0000
# 5 0.0000 0.0000 0.0000 0.0000 21.7983 0.0000
# 6 0.0000 0.0000 0.0000 0.0000 0.0000 35.2405
#
#
#
# Elastic Compliance Matrix: (Units=1/GPa)
#
#
# Indices 1 2 3 4 5 6 
#
# 1 0.013391 -0.004632 -0.003258 0.000000 0.000000 0.000000
# 2 -0.004632 0.013391 -0.003258 0.000000 0.000000 0.000000
# 3 -0.003258 -0.003258 0.012779 0.000000 0.000000 0.000000
# 4 0.000000 0.000000 0.000000 0.045875 0.000000 0.000000
# 5 0.000000 0.000000 0.000000 0.000000 0.045875 0.000000
# 6 0.000000 0.000000 0.000000 0.000000 0.000000 0.028376
#
#
# Mechanical properties :
#
#
# Convention : Reuss Voigt Hill
#
# Bulk Modulus (GPa) = 57.91353 57.99574 57.95464
# Shear Modulus (GPa) = 26.63262 27.66062 27.14662
#
# Velocity S-wave (km/s) = 3.83242 3.90569 3.86923
# Velocity P-wave (km/s) = 7.17786 7.23346 7.20572
#
# Compressibility (1/GPa) = 0.01726712
#
# Stress axis : x y z
#
# Youngs Moduli (GPa) = 74.67429 74.67429 78.25221
#
# Poissons Ratio (x) = 0.34586 0.25494
# Poissons Ratio (y) = 0.34586 0.25494
# Poissons Ratio (z) = 0.24329 0.24329
#
# Static dielectric constant tensor:
#      x y z
#    x 3.455650 0.000000 0.000000 
#    y 0.000000 3.455650 0.000000 
#    z 0.000000 0.000000 3.325850 
# 
# 
# High freq. dielectric constant tensor:
#      x y z
#    x 1.699070 0.000000 0.000000 
#    y 0.000000 1.699070 0.000000 
#    z 0.000000 0.000000 1.693430 
# 
# From -- ./inp_files/1886.got.cif
#   From: 2010.03.12/outbox.cif.g09.slc.cpg/sg116_1_cif.got.tgz:1886.got - 2010.04.14 02:15:44.
