data_PCOD8310490
_publ_section_title
;
Structure prediction by ZEFSAII (Michael W. Deem and Ramdas Pophale) SiO2 
 PCOD8310490
Probable space group: P -4 N 2
;
_chemical_formula_sum "Si O2"
_cell_formula_units_Z 28
_cell_length_a 8.212057
_cell_length_b 8.212057
_cell_length_c 16.773291
_cell_angle_alpha 90.000000
_cell_angle_beta 90.000000
_cell_angle_gamma 90.000000
_cell_volume 1131.155189
_symmetry_space_group_name_H-M "P -4 N 2"
_symmetry_group_IT_number 118
_symmetry_cell_setting 'tetragonal'
loop_
_space_group_symop_operation_xyz
x,y,z
y,-x,-z
-x,-y,z
-y,x,-z
1/2+y,1/2+x,1/2-z
1/2-y,1/2-x,1/2-z
1/2-x,1/2+y,1/2+z
1/2+x,1/2-y,1/2+z
loop_
_atom_site_type_symbol
_atom_site_label
_atom_site_fract_x
_atom_site_fract_y
_atom_site_fract_z
Si Si1 0.596023 0.160196 0.129070
Si Si2 0.000000 0.000000 0.304123
Si Si3 0.752680 0.068115 0.979289
Si Si4 0.738170 0.942054 0.809874
O O1 0.516200 0.337131 0.142780
O O2 0.775368 0.164489 0.168338
O O3 0.500000 0.000000 0.162829
O O4 0.608723 0.143507 0.032652
O O5 0.951251 0.853851 0.245479
O O6 0.685881 0.036789 0.889998
O O7 0.903595 0.192202 0.975335
O O8 0.587800 0.912201 0.750000
#
# Coordination Sequence:
#
# PCOD8310490 Si02
#       4
#     8   4   8   8
#     4  10  21  38  64  97 140 193 244 295 366 437
#     4  10  20  36  63 101 138 178 242 308 357 434
#     4   9  17  35  61  87 123 180 239 289 356 439
#     4   9  18  34  59  93 135 181 237 304 364 427
#
# _framework density 24.753456
#
# number of rings (size 3 to 8) (size 9 to 14) (size 15 to 20)
#    0.000    2.571    0.000    3.429    0.000    5.143 
#    0.000   17.143    0.000    6.000    0.000   24.000 
#    0.000   13.714    0.000    0.000    0.000    0.000 
#
# Total GULP energy -346889.876876 kJ/mol
# GULP energy per Si atom -12388.924174 kJ/mol
# Density = 2.469712 g / cm^3
# Si number density = 24.753456 Si / 1000 Ang^3
#
#
#
# Elastic Constant Matrix: (Units=GPa)
#
#
# Indices 1 2 3 4 5 6 
#
# 1 98.9318 55.8485 65.1299 0.0000 0.0000 0.0000
# 2 55.8485 98.9307 65.1299 0.0000 0.0000 0.0000
# 3 65.1299 65.1299 233.9008 0.0000 0.0000 0.0000
# 4 0.0000 0.0000 0.0000 38.1413 0.0000 0.0000
# 5 0.0000 0.0000 0.0000 0.0000 38.1413 0.0000
# 6 0.0000 0.0000 0.0000 0.0000 0.0000 37.8750
#
#
#
# Elastic Compliance Matrix: (Units=1/GPa)
#
#
# Indices 1 2 3 4 5 6 
#
# 1 0.015825 -0.007386 -0.002350 0.000000 0.000000 0.000000
# 2 -0.007386 0.015825 -0.002350 0.000000 0.000000 0.000000
# 3 -0.002350 -0.002350 0.005584 0.000000 0.000000 0.000000
# 4 0.000000 0.000000 0.000000 0.026218 0.000000 0.000000
# 5 0.000000 0.000000 0.000000 0.000000 0.026218 0.000000
# 6 0.000000 0.000000 0.000000 0.000000 0.000000 0.026403
#
#
# Mechanical properties :
#
#
# Convention : Reuss Voigt Hill
#
# Bulk Modulus (GPa) = 76.55959 89.33108 82.94534
# Shear Modulus (GPa) = 34.57868 39.20852 36.89360
#
# Velocity S-wave (km/s) = 3.74160 3.98422 3.86481
# Velocity P-wave (km/s) = 7.04713 7.57179 7.31417
#
# Compressibility (1/GPa) = 0.01306172
#
# Stress axis : x y z
#
# Youngs Moduli (GPa) = 63.19291 63.19203 179.08871
#
# Poissons Ratio (x) = 0.46677 0.42079
# Poissons Ratio (y) = 0.46677 0.42080
# Poissons Ratio (z) = 0.14848 0.14848
#
# Static dielectric constant tensor:
#      x y z
#    x 4.289800 0.000000 0.000000 
#    y 0.000000 4.289810 0.000000 
#    z 0.000000 0.000000 4.682640 
# 
# 
# High freq. dielectric constant tensor:
#      x y z
#    x 1.974380 0.000000 0.000000 
#    y 0.000000 1.974380 0.000000 
#    z 0.000000 0.000000 1.996130 
# 
# From -- ./inp_files/4599.got.cif
#   From: 2010.03.12/outbox.cif.g09.slc.cpg/sg118_3_cif.got.tgz:4599.got - 2010.04.14 02:21:17.
