data_PCOD8310341
_publ_section_title
;
Structure prediction by ZEFSAII (Michael W. Deem and Ramdas Pophale) SiO2 
 PCOD8310341
Probable space group: P -4 B 2
;
_chemical_formula_sum "Si O2"
_cell_formula_units_Z 34
_cell_length_a 13.766857
_cell_length_b 13.766857
_cell_length_c 8.275159
_cell_angle_alpha 90.000000
_cell_angle_beta 90.000000
_cell_angle_gamma 90.000000
_cell_volume 1568.360695
_symmetry_space_group_name_H-M "P -4 B 2"
_symmetry_group_IT_number 117
_symmetry_cell_setting 'tetragonal'
loop_
_space_group_symop_operation_xyz
x,y,z
y,-x,-z
-x,-y,z
-y,x,-z
1/2+y,1/2+x,-z
1/2-y,1/2-x,-z
1/2-x,1/2+y,z
1/2+x,1/2-y,z
loop_
_atom_site_type_symbol
_atom_site_label
_atom_site_fract_x
_atom_site_fract_y
_atom_site_fract_z
Si Si1 0.016588 0.203178 0.660090
Si Si2 0.655677 0.962132 0.612253
Si Si3 0.165804 0.724825 0.824050
Si Si4 0.848116 0.657804 0.186313
Si Si5 0.000000 0.000000 0.500000
O O1 0.990103 0.250477 0.489537
O O2 0.939832 0.229875 0.799581
O O3 0.112514 0.251107 0.734233
O O4 0.026458 0.088858 0.621359
O O5 0.562834 0.937167 0.500000
O O6 0.685880 0.865296 0.706776
O O7 0.626192 0.053827 0.722560
O O8 0.229835 0.821166 0.793979
O O9 0.181035 0.681035 0.000000
O O10 0.868068 0.631933 0.000000
#
# Coordination Sequence:
#
# PCOD8310341 Si02
#       5
#     8   8   8   8   2
#     4  11  23  39  63  92 125 169 212 261 324 384
#     4  10  22  40  62  91 124 162 214 269 321 379
#     4  10  22  40  62  89 124 165 211 264 322 384
#     4  11  23  40  63  91 127 168 212 264 321 382
#     4  12  24  40  64  98 136 168 216 266 324 404
#
# _framework density 21.678687
#
# number of rings (size 3 to 8) (size 9 to 14) (size 15 to 20)
#    0.000    1.412    0.000    4.941    0.000   10.353 
#    0.000    8.235    0.000    2.824    0.000    0.000 
#    0.000    0.000    0.000    0.000    0.000    0.000 
#
# Total GULP energy -421409.763187 kJ/mol
# GULP energy per Si atom -12394.404800 kJ/mol
# Density = 2.162935 g / cm^3
# Si number density = 21.678687 Si / 1000 Ang^3
#
#
#
# Elastic Constant Matrix: (Units=GPa)
#
#
# Indices 1 2 3 4 5 6 
#
# 1 85.1594 21.4618 45.8094 0.0000 0.0000 0.0000
# 2 21.4618 85.1575 45.8092 0.0000 0.0000 0.0000
# 3 45.8094 45.8092 118.9741 0.0000 0.0000 0.0000
# 4 0.0000 0.0000 0.0000 32.1445 0.0000 0.0000
# 5 0.0000 0.0000 0.0000 0.0000 32.1443 0.0000
# 6 0.0000 0.0000 0.0000 0.0000 0.0000 34.9629
#
#
#
# Elastic Compliance Matrix: (Units=1/GPa)
#
#
# Indices 1 2 3 4 5 6 
#
# 1 0.014858 -0.000841 -0.005397 0.000000 0.000000 0.000000
# 2 -0.000841 0.014858 -0.005397 0.000000 0.000000 0.000000
# 3 -0.005397 -0.005397 0.012561 0.000000 0.000000 0.000000
# 4 0.000000 0.000000 0.000000 0.031110 0.000000 0.000000
# 5 0.000000 0.000000 0.000000 0.000000 0.031110 0.000000
# 6 0.000000 0.000000 0.000000 0.000000 0.000000 0.028602
#
#
# Mechanical properties :
#
#
# Convention : Reuss Voigt Hill
#
# Bulk Modulus (GPa) = 52.61267 57.27243 54.94255
# Shear Modulus (GPa) = 30.73058 31.59769 31.16413
#
# Velocity S-wave (km/s) = 3.76912 3.82192 3.79561
# Velocity P-wave (km/s) = 6.57751 6.77881 6.67892
#
# Compressibility (1/GPa) = 0.01900683
#
# Stress axis : x y z
#
# Youngs Moduli (GPa) = 67.30450 67.30285 79.61022
#
# Poissons Ratio (x) = 0.05663 0.42964
# Poissons Ratio (y) = 0.05663 0.42965
# Poissons Ratio (z) = 0.36323 0.36323
#
# Static dielectric constant tensor:
#      x y z
#    x 3.945030 0.000000 0.000000 
#    y 0.000000 3.945030 0.000000 
#    z 0.000000 0.000000 4.054150 
# 
# 
# High freq. dielectric constant tensor:
#      x y z
#    x 1.857380 0.000000 0.000000 
#    y 0.000000 1.857380 0.000000 
#    z 0.000000 0.000000 1.855830 
# 
# From -- ./inp_files/1507.got.cif
#   From: 2010.03.12/outbox.cif.g09.slc.cpg/sg117_1_cif.got.tgz:1507.got - 2010.04.14 02:19:01.
