data_PCOD8310029
_publ_section_title
;
Structure prediction by ZEFSAII (Michael W. Deem and Ramdas Pophale) SiO2 
 PCOD8310029
Probable space group: P -4 M 2
;
_chemical_formula_sum "Si O2"
_cell_formula_units_Z 44
_cell_length_a 9.519517
_cell_length_b 9.519517
_cell_length_c 28.628656
_cell_angle_alpha 90.000000
_cell_angle_beta 90.000000
_cell_angle_gamma 90.000000
_cell_volume 2594.363273
_symmetry_space_group_name_H-M "P -4 M 2"
_symmetry_group_IT_number 115
_symmetry_cell_setting 'tetragonal'
loop_
_space_group_symop_operation_xyz
x,y,z
y,-x,-z
-x,-y,z
-y,x,-z
y,x,-z
-y,-x,-z
-x,y,z
x,-y,z
loop_
_atom_site_type_symbol
_atom_site_label
_atom_site_fract_x
_atom_site_fract_y
_atom_site_fract_z
Si Si1 0.156228 0.832234 0.051092
Si Si2 0.666688 0.159177 0.589052
Si Si3 0.662644 0.335162 0.323277
Si Si4 0.843785 0.667172 0.763697
Si Si5 0.343975 0.167390 0.134266
Si Si6 0.663741 0.336260 0.500000
O O1 0.250819 0.768544 0.092537
O O2 0.000000 0.772648 0.058847
O O3 0.153936 0.000000 0.052602
O O4 0.214485 0.785516 0.000000
O O5 0.500000 0.156340 0.590358
O O6 0.722673 0.243043 0.634199
O O7 0.716492 0.243505 0.543404
O O8 0.726899 0.000000 0.588498
O O9 0.500000 0.297716 0.333614
O O10 0.682153 0.500000 0.316057
O O11 0.719654 0.260979 0.276485
O O12 0.848296 0.500000 0.765576
O O13 0.790707 0.719559 0.814792
O O14 0.000000 0.725606 0.752885
O O15 0.500000 0.229694 0.128106
O O16 0.348658 0.000000 0.131304
O O17 0.500000 0.310427 0.488324
#
# Coordination Sequence:
#
# PCOD8310029 Si02
#       6
#     8   8   8   8   8   4
#     4   8  13  21  34  53  75  97 124 161 201 236
#     4   9  17  29  45  65  88 112 137 166 202 242
#     4   9  16  27  45  66  84 105 137 172 201 233
#     4   8  14  25  41  61  83 105 132 168 205 238
#     4   8  13  22  37  55  74  99 131 163 195 234
#     4   9  16  28  48  69  84 102 136 177 204 226
#
# _framework density 16.959844
#
# number of rings (size 3 to 8) (size 9 to 14) (size 15 to 20)
#    0.000    3.545    0.000    2.182    0.000    2.182 
#    0.000    1.818    0.000    8.455    0.000    0.000 
#    0.000    0.000    0.000    0.000    0.000    0.000 
#
# Total GULP energy -545255.259951 kJ/mol
# GULP energy per Si atom -12392.164999 kJ/mol
# Density = 1.692124 g / cm^3
# Si number density = 16.959844 Si / 1000 Ang^3
#
#
#
# Elastic Constant Matrix: (Units=GPa)
#
#
# Indices 1 2 3 4 5 6 
#
# 1 51.6326 21.9337 59.3571 0.0000 0.0000 0.0000
# 2 21.9337 51.6333 59.3571 0.0000 0.0000 0.0000
# 3 59.3571 59.3571 196.3412 0.0000 0.0000 0.0000
# 4 0.0000 0.0000 0.0000 24.1962 0.0000 0.0000
# 5 0.0000 0.0000 0.0000 0.0000 24.1963 0.0000
# 6 0.0000 0.0000 0.0000 0.0000 0.0000 8.0239
#
#
#
# Elastic Compliance Matrix: (Units=1/GPa)
#
#
# Indices 1 2 3 4 5 6 
#
# 1 0.030106 -0.003565 -0.008024 0.000000 0.000000 0.000000
# 2 -0.003565 0.030106 -0.008024 0.000000 0.000000 0.000000
# 3 -0.008024 -0.008024 0.009945 0.000000 0.000000 0.000000
# 4 0.000000 0.000000 0.000000 0.041329 0.000000 0.000000
# 5 0.000000 0.000000 0.000000 0.000000 0.041329 0.000000
# 6 0.000000 0.000000 0.000000 0.000000 0.000000 0.124628
#
#
# Mechanical properties :
#
#
# Convention : Reuss Voigt Hill
#
# Bulk Modulus (GPa) = 32.32944 64.54476 48.43710
# Shear Modulus (GPa) = 15.29158 21.88055 18.58606
#
# Velocity S-wave (km/s) = 3.00598 3.59575 3.31401
# Velocity P-wave (km/s) = 5.58136 7.44172 6.57765
#
# Compressibility (1/GPa) = 0.03093156
#
# Stress axis : x y z
#
# Youngs Moduli (GPa) = 33.21569 33.21636 100.55705
#
# Poissons Ratio (x) = 0.11841 0.80686
# Poissons Ratio (y) = 0.11841 0.80684
# Poissons Ratio (z) = 0.26652 0.26652
#
# Static dielectric constant tensor:
#      x y z
#    x 2.946320 0.000000 0.000000 
#    y 0.000000 2.946310 0.000000 
#    z 0.000000 0.000000 3.591670 
# 
# 
# High freq. dielectric constant tensor:
#      x y z
#    x 1.610970 0.000000 0.000000 
#    y 0.000000 1.610970 0.000000 
#    z 0.000000 0.000000 1.673550 
# 
# From -- ./inp_files/5783.got.cif
#   From: 2010.03.12/outbox.cif.g09.slc.cpg/sg115_3_cif.got.tgz:5783.got - 2010.04.14 02:11:21.
