data_PCOD8310623
_publ_section_title
;
Structure prediction by ZEFSAII (Michael W. Deem and Ramdas Pophale) SiO2 
 PCOD8310623
Probable space group: P -4 N 2
;
_chemical_formula_sum "Si O2"
_cell_formula_units_Z 42
_cell_length_a 13.502977
_cell_length_b 13.502977
_cell_length_c 11.006714
_cell_angle_alpha 90.000000
_cell_angle_beta 90.000000
_cell_angle_gamma 90.000000
_cell_volume 2006.858433
_symmetry_space_group_name_H-M "P -4 N 2"
_symmetry_group_IT_number 118
_symmetry_cell_setting 'tetragonal'
loop_
_space_group_symop_operation_xyz
x,y,z
y,-x,-z
-x,-y,z
-y,x,-z
1/2+y,1/2+x,1/2-z
1/2-y,1/2-x,1/2-z
1/2-x,1/2+y,1/2+z
1/2+x,1/2-y,1/2+z
loop_
_atom_site_type_symbol
_atom_site_label
_atom_site_fract_x
_atom_site_fract_y
_atom_site_fract_z
Si Si1 0.577754 0.760273 0.752934
Si Si2 0.253296 0.381219 0.671296
Si Si3 0.345433 0.546411 0.003153
Si Si4 0.000000 0.000000 0.000000
Si Si5 0.247848 0.100788 0.255714
Si Si6 0.801815 0.092218 0.904398
O O1 0.635979 0.864022 0.750000
O O2 0.646786 0.670406 0.712284
O O3 0.538715 0.731915 0.886470
O O4 0.486153 0.770782 0.660953
O O5 0.161855 0.338146 0.750000
O O6 0.260994 0.497168 0.689227
O O7 0.246429 0.367627 0.525432
O O8 0.438014 0.616703 0.036328
O O9 0.286913 0.594888 0.893352
O O10 0.091272 0.960231 0.920377
O O11 0.361185 0.138815 0.250000
O O12 0.184641 0.182396 0.183443
#
# Coordination Sequence:
#
# PCOD8310623 Si02
#       6
#     8   8   8   2   8   8
#     4  11  23  40  66  95 134 173 206 267 340 400
#     4  11  24  41  65  91 129 167 216 270 331 391
#     4  11  23  39  62  96 134 165 212 277 341 389
#     4  12  20  32  72  98 124 164 204 284 334 384
#     4  12  26  40  64  93 128 173 221 271 322 394
#     4  12  22  41  64 101 130 168 222 271 328 400
#
# _framework density 20.928231
#
# number of rings (size 3 to 8) (size 9 to 14) (size 15 to 20)
#    0.000    0.571    7.619    0.000    8.000    0.381 
#    0.000    0.000    0.000    0.571    0.000    0.000 
#    0.000    0.000    0.000    0.000    0.000    0.000 
#
# Total GULP energy -520846.511941 kJ/mol
# GULP energy per Si atom -12401.107427 kJ/mol
# Density = 2.088060 g / cm^3
# Si number density = 20.928231 Si / 1000 Ang^3
#
#
#
# Elastic Constant Matrix: (Units=GPa)
#
#
# Indices 1 2 3 4 5 6 
#
# 1 44.6340 20.7689 23.9081 0.0000 0.0000 0.0000
# 2 20.7689 44.6337 23.9074 0.0000 0.0000 0.0000
# 3 23.9081 23.9074 146.8791 0.0000 0.0000 0.0000
# 4 0.0000 0.0000 0.0000 28.9300 0.0000 0.0000
# 5 0.0000 0.0000 0.0000 0.0000 28.9296 0.0000
# 6 0.0000 0.0000 0.0000 0.0000 0.0000 25.5397
#
#
#
# Elastic Compliance Matrix: (Units=1/GPa)
#
#
# Indices 1 2 3 4 5 6 
#
# 1 0.029629 -0.012274 -0.002825 0.000000 0.000000 0.000000
# 2 -0.012274 0.029629 -0.002825 0.000000 0.000000 0.000000
# 3 -0.002825 -0.002825 0.007728 0.000000 0.000000 0.000000
# 4 0.000000 0.000000 0.000000 0.034566 0.000000 0.000000
# 5 0.000000 0.000000 0.000000 0.000000 0.034567 0.000000
# 6 0.000000 0.000000 0.000000 0.000000 0.000000 0.039155
#
#
# Mechanical properties :
#
#
# Convention : Reuss Voigt Hill
#
# Bulk Modulus (GPa) = 32.11454 41.47953 36.79704
# Shear Modulus (GPa) = 22.57340 27.85071 25.21205
#
# Velocity S-wave (km/s) = 3.28778 3.65193 3.47463
# Velocity P-wave (km/s) = 5.45812 6.13556 5.80673
#
# Compressibility (1/GPa) = 0.03113854
#
# Stress axis : x y z
#
# Youngs Moduli (GPa) = 33.75097 33.75086 129.40028
#
# Poissons Ratio (x) = 0.41425 0.36556
# Poissons Ratio (y) = 0.41425 0.36554
# Poissons Ratio (z) = 0.09535 0.09534
#
# Static dielectric constant tensor:
#      x y z
#    x 3.724690 0.000000 0.000000 
#    y 0.000000 3.724690 0.000000 
#    z 0.000000 0.000000 3.909140 
# 
# 
# High freq. dielectric constant tensor:
#      x y z
#    x 1.806300 0.000000 0.000000 
#    y 0.000000 1.806300 0.000000 
#    z 0.000000 0.000000 1.836760 
# 
# From -- ./inp_files/1921.got.cif
#   From: 2010.03.12/outbox.cif.g09.slc.cpg/sg118_1_cif.got.tgz:1921.got - 2010.04.14 02:21:17.
