data_PCOD8310070
_publ_section_title
;
Structure prediction by ZEFSAII (Michael W. Deem and Ramdas Pophale) SiO2 
 PCOD8310070
Probable space group: P -4 C 2
;
_chemical_formula_sum "Si O2"
_cell_formula_units_Z 64
_cell_length_a 11.999306
_cell_length_b 11.999306
_cell_length_c 24.985584
_cell_angle_alpha 90.000000
_cell_angle_beta 90.000000
_cell_angle_gamma 90.000000
_cell_volume 3597.507948
_symmetry_space_group_name_H-M "P -4 C 2"
_symmetry_group_IT_number 116
_symmetry_cell_setting 'tetragonal'
loop_
_space_group_symop_operation_xyz
x,y,z
y,-x,-z
-x,-y,z
-y,x,-z
y,x,1/2-z
-y,-x,1/2-z
-x,y,1/2+z
x,-y,1/2+z
loop_
_atom_site_type_symbol
_atom_site_label
_atom_site_fract_x
_atom_site_fract_y
_atom_site_fract_z
Si Si1 0.990205 0.220255 0.051427
Si Si2 0.891546 0.063099 0.628144
Si Si3 0.609174 0.562095 0.364340
Si Si4 0.765830 0.735678 0.187996
Si Si5 0.723522 0.496576 0.552196
Si Si6 0.605571 0.283505 0.063172
Si Si7 0.900333 0.231810 0.440696
Si Si8 0.918983 0.591359 0.122361
O O1 0.861933 0.190089 0.045902
O O2 0.061549 0.115414 0.073019
O O3 0.004178 0.316452 0.094992
O O4 0.028369 0.258145 0.993207
O O5 0.818566 0.152083 0.661825
O O6 0.800998 0.972192 0.610918
O O7 0.000000 0.000000 0.656684
O O8 0.500000 0.500000 0.336186
O O9 0.687697 0.643796 0.328871
O O10 0.565721 0.624904 0.416800
O O11 0.692218 0.467333 0.384604
O O12 0.761100 0.761100 0.250000
O O13 0.850690 0.637263 0.172980
O O14 0.717900 0.467225 0.490227
O O15 0.706290 0.628358 0.557597
O O16 0.841165 0.461196 0.576746
O O17 0.655514 0.162488 0.074507
O O18 0.000000 0.500000 0.147627
#
# Coordination Sequence:
#
# PCOD8310070 Si02
#       8
#     8   8   8   8   8   8   8   8
#     4  10  18  29  50  73 110 152 186 210 267 340
#     4   9  20  35  55  81 111 146 188 229 280 344
#     4   9  20  35  55  81 111 146 188 229 280 344
#     4  10  22  42  64  80 104 146 198 248 282 328
#     4  10  18  29  50  73 110 152 186 210 267 340
#     4  11  19  30  48  77 112 156 184 221 269 333
#     4  11  19  30  48  77 112 156 184 221 269 333
#     4  10  20  36  50  82 110 140 186 233 278 332
#
# _framework density 17.790092999999999
#
# number of rings (size 3 to 8) (size 9 to 14) (size 15 to 20)
#    0.000    2.000    3.750    0.750    0.000    0.500 
#    2.250    1.875    0.000    0.000    0.000   10.500 
#    0.000    0.000    0.000    0.000    0.000    0.000 
#
# Total GULP energy -793009.257826 kJ/mol
# GULP energy per Si atom -12390.769654 kJ/mol
# Density = 1.774960 g / cm^3
# Si number density = 17.790093 Si / 1000 Ang^3
#
#
#
# Elastic Constant Matrix: (Units=GPa)
#
#
# Indices 1 2 3 4 5 6 
#
# 1 81.0050 44.7485 28.0448 0.0000 0.0000 0.0000
# 2 44.7485 81.0050 28.0448 0.0000 0.0000 0.0000
# 3 28.0448 28.0448 72.4380 0.0000 0.0000 0.0000
# 4 0.0000 0.0000 0.0000 12.1696 0.0000 0.0000
# 5 0.0000 0.0000 0.0000 0.0000 12.1696 0.0000
# 6 0.0000 0.0000 0.0000 0.0000 0.0000 48.1315
#
#
#
# Elastic Compliance Matrix: (Units=1/GPa)
#
#
# Indices 1 2 3 4 5 6 
#
# 1 0.018597 -0.008985 -0.003721 0.000000 0.000000 0.000000
# 2 -0.008985 0.018597 -0.003721 0.000000 0.000000 0.000000
# 3 -0.003721 -0.003721 0.016686 0.000000 0.000000 0.000000
# 4 0.000000 0.000000 0.000000 0.082172 0.000000 0.000000
# 5 0.000000 0.000000 0.000000 0.000000 0.082172 0.000000
# 6 0.000000 0.000000 0.000000 0.000000 0.000000 0.020776
#
#
# Mechanical properties :
#
#
# Convention : Reuss Voigt Hill
#
# Bulk Modulus (GPa) = 47.56266 48.45828 48.01047
# Shear Modulus (GPa) = 17.92995 23.40146 20.66571
#
# Velocity S-wave (km/s) = 3.17813 3.63081 3.41198
# Velocity P-wave (km/s) = 6.34514 6.69889 6.52441
#
# Compressibility (1/GPa) = 0.02102490
#
# Stress axis : x y z
#
# Youngs Moduli (GPa) = 53.77336 53.77336 59.92923
#
# Poissons Ratio (x) = 0.48314 0.22301
# Poissons Ratio (y) = 0.48314 0.22301
# Poissons Ratio (z) = 0.20011 0.20011
#
# Static dielectric constant tensor:
#      x y z
#    x 3.492860 0.000000 0.000000 
#    y 0.000000 3.492860 0.000000 
#    z 0.000000 0.000000 2.829080 
# 
# 
# High freq. dielectric constant tensor:
#      x y z
#    x 1.697180 0.000000 0.000000 
#    y 0.000000 1.697180 0.000000 
#    z 0.000000 0.000000 1.641550 
# 
# From -- ./inp_files/4666.got.cif
#   From: 2010.03.12/outbox.cif.g09.slc.cpg/sg116_3_cif.got.tgz:4666.got - 2010.04.14 02:15:44.
