data_PCOD8310393
_publ_section_title
;
Structure prediction by ZEFSAII (Michael W. Deem and Ramdas Pophale) SiO2 
 PCOD8310393
Probable space group: P -4 B 2
;
_chemical_formula_sum "Si O2"
_cell_formula_units_Z 36
_cell_length_a 9.943314
_cell_length_b 9.943314
_cell_length_c 17.709080
_cell_angle_alpha 90.000000
_cell_angle_beta 90.000000
_cell_angle_gamma 90.000000
_cell_volume 1750.887766
_symmetry_space_group_name_H-M "P -4 B 2"
_symmetry_group_IT_number 117
_symmetry_cell_setting 'tetragonal'
loop_
_space_group_symop_operation_xyz
x,y,z
y,-x,-z
-x,-y,z
-y,x,-z
1/2+y,1/2+x,-z
1/2-y,1/2-x,-z
1/2-x,1/2+y,z
1/2+x,1/2-y,z
loop_
_atom_site_type_symbol
_atom_site_label
_atom_site_fract_x
_atom_site_fract_y
_atom_site_fract_z
Si Si1 0.003609 0.160617 0.410126
Si Si2 0.471918 0.653177 0.234212
Si Si3 0.745003 0.754998 0.500000
Si Si4 0.285739 0.226879 0.150199
Si Si5 0.030470 0.362120 0.919986
O O1 0.999947 0.182114 0.321214
O O2 0.882415 0.245032 0.445510
O O3 0.130870 0.238483 0.443111
O O4 0.000000 0.000000 0.429964
O O5 0.500000 0.500000 0.212981
O O6 0.566637 0.750448 0.184805
O O7 0.316400 0.682781 0.216035
O O8 0.238417 0.367351 0.117343
O O9 0.287643 0.115348 0.082569
O O10 0.000000 0.500000 0.873148
O O11 0.090095 0.409906 0.000000
#
# Coordination Sequence:
#
# PCOD8310393 Si02
#       5
#     8   8   4   8   8
#     4  11  24  43  65  97 139 173 230 282 339 403
#     4  11  24  42  69 100 132 182 224 283 341 406
#     4  12  20  46  64  94 134 180 214 288 334 402
#     4  12  23  46  68 100 135 178 226 278 343 398
#     4  11  26  43  68  99 137 171 224 284 331 406
#
# _framework density 20.560995999999999
#
# number of rings (size 3 to 8) (size 9 to 14) (size 15 to 20)
#    0.000    0.667    6.667    1.333    3.111    0.444 
#    0.000    2.222    0.000    0.000    0.000    0.000 
#    0.000    0.000    0.000    0.000    0.000    0.000 
#
# Total GULP energy -446033.187460 kJ/mol
# GULP energy per Si atom -12389.810763 kJ/mol
# Density = 2.051420 g / cm^3
# Si number density = 20.560996 Si / 1000 Ang^3
#
#
#
# Elastic Constant Matrix: (Units=GPa)
#
#
# Indices 1 2 3 4 5 6 
#
# 1 122.6032 40.1273 40.8861 0.0000 0.0000 0.0000
# 2 40.1273 122.6031 40.8866 0.0000 0.0000 0.0000
# 3 40.8861 40.8866 105.6610 0.0000 0.0000 0.0000
# 4 0.0000 0.0000 0.0000 33.9150 0.0000 0.0000
# 5 0.0000 0.0000 0.0000 0.0000 33.9145 0.0000
# 6 0.0000 0.0000 0.0000 0.0000 0.0000 41.8002
#
#
#
# Elastic Compliance Matrix: (Units=1/GPa)
#
#
# Indices 1 2 3 4 5 6 
#
# 1 0.009877 -0.002248 -0.002952 0.000000 0.000000 0.000000
# 2 -0.002248 0.009877 -0.002952 0.000000 0.000000 0.000000
# 3 -0.002952 -0.002952 0.011749 0.000000 0.000000 0.000000
# 4 0.000000 0.000000 0.000000 0.029485 0.000000 0.000000
# 5 0.000000 0.000000 0.000000 0.000000 0.029486 0.000000
# 6 0.000000 0.000000 0.000000 0.000000 0.000000 0.023923
#
#
# Mechanical properties :
#
#
# Convention : Reuss Voigt Hill
#
# Bulk Modulus (GPa) = 65.79770 66.07416 65.93593
# Shear Modulus (GPa) = 36.82790 37.19042 37.00916
#
# Velocity S-wave (km/s) = 4.23679 4.25760 4.24721
# Velocity P-wave (km/s) = 7.48362 7.50832 7.49598
#
# Compressibility (1/GPa) = 0.01519810
#
# Stress axis : x y z
#
# Youngs Moduli (GPa) = 101.24944 101.24902 85.11547
#
# Poissons Ratio (x) = 0.22762 0.25125
# Poissons Ratio (y) = 0.22762 0.25126
# Poissons Ratio (z) = 0.29887 0.29888
#
# Static dielectric constant tensor:
#      x y z
#    x 3.955810 0.000000 0.000000 
#    y 0.000000 3.955820 0.000000 
#    z 0.000000 0.000000 3.595150 
# 
# 
# High freq. dielectric constant tensor:
#      x y z
#    x 1.816240 0.000000 0.000000 
#    y 0.000000 1.816240 0.000000 
#    z 0.000000 0.000000 1.799300 
# 
# From -- ./inp_files/3420.got.cif
#   From: 2010.03.12/outbox.cif.g09.slc.cpg/sg117_2_cif.got.tgz:3420.got - 2010.04.14 02:19:01.
