data_PCOD8310392
_publ_section_title
;
Structure prediction by ZEFSAII (Michael W. Deem and Ramdas Pophale) SiO2 
 PCOD8310392
Probable space group: P -4 B 2
;
_chemical_formula_sum "Si O2"
_cell_formula_units_Z 64
_cell_length_a 11.112390
_cell_length_b 11.112390
_cell_length_c 22.325363
_cell_angle_alpha 90.000000
_cell_angle_beta 90.000000
_cell_angle_gamma 90.000000
_cell_volume 2756.852172
_symmetry_space_group_name_H-M "P -4 B 2"
_symmetry_group_IT_number 117
_symmetry_cell_setting 'tetragonal'
loop_
_space_group_symop_operation_xyz
x,y,z
y,-x,-z
-x,-y,z
-y,x,-z
1/2+y,1/2+x,-z
1/2-y,1/2-x,-z
1/2-x,1/2+y,z
1/2+x,1/2-y,z
loop_
_atom_site_type_symbol
_atom_site_label
_atom_site_fract_x
_atom_site_fract_y
_atom_site_fract_z
Si Si1 0.476697 0.697211 0.435055
Si Si2 0.018006 0.192406 0.571767
Si Si3 0.534858 0.325267 0.913930
Si Si4 0.608875 0.075079 0.878557
Si Si5 0.634646 0.485875 0.213239
Si Si6 0.687430 0.215576 0.232334
Si Si7 0.751858 0.927392 0.970289
Si Si8 0.908789 0.600789 0.349245
O O1 0.594441 0.621733 0.419200
O O2 0.361730 0.614956 0.418771
O O3 0.473223 0.739880 0.503947
O O4 0.477181 0.818470 0.397638
O O5 0.037170 0.293792 0.621163
O O6 0.533631 0.185320 0.902708
O O7 0.466443 0.385873 0.858156
O O8 0.670887 0.373419 0.915934
O O9 0.473384 0.344075 0.978412
O O10 0.701973 0.100769 0.825047
O O11 0.500000 0.000000 0.850268
O O12 0.670559 0.027267 0.938863
O O13 0.500000 0.500000 0.242351
O O14 0.707939 0.363652 0.235678
O O15 0.704052 0.615196 0.225160
O O16 0.622981 0.184962 0.293896
O O17 0.675883 0.824118 0.000000
O O18 0.000000 0.500000 0.326186
#
# Coordination Sequence:
#
# PCOD8310392 Si02
#       8
#     8   8   8   8   8   8   8   8
#     4   9  21  43  71 105 151 195 246 307 380 460
#     4   9  21  43  71 105 148 201 242 305 389 446
#     4  11  27  39  67 101 134 171 230 294 367 461
#     4  11  23  46  68  92 135 189 234 293 369 448
#     4  11  28  53  77 104 147 199 249 319 396 461
#     4  11  29  49  76 105 148 199 263 314 385 462
#     4  12  24  40  68 100 137 170 230 291 376 456
#     4  12  27  43  71 112 148 193 262 315 376 449
#
# _framework density 23.214883
#
# number of rings (size 3 to 8) (size 9 to 14) (size 15 to 20)
#    0.000    1.250    1.250    3.375   10.500    5.000 
#    0.000    0.000    0.000    0.000    0.000    0.000 
#    0.000    0.000    0.000    0.000    0.000    0.000 
#
# Total GULP energy -792898.643687 kJ/mol
# GULP energy per Si atom -12389.041308 kJ/mol
# Density = 2.316205 g / cm^3
# Si number density = 23.214883 Si / 1000 Ang^3
#
#
#
# Elastic Constant Matrix: (Units=GPa)
#
#
# Indices 1 2 3 4 5 6 
#
# 1 113.3399 31.9968 27.6722 0.0000 0.0000 0.0000
# 2 31.9968 113.3400 27.6725 0.0000 0.0000 0.0000
# 3 27.6722 27.6725 91.8333 0.0000 0.0000 0.0000
# 4 0.0000 0.0000 0.0000 33.7001 0.0000 0.0000
# 5 0.0000 0.0000 0.0000 0.0000 33.7004 0.0000
# 6 0.0000 0.0000 0.0000 0.0000 0.0000 32.4038
#
#
#
# Elastic Compliance Matrix: (Units=1/GPa)
#
#
# Indices 1 2 3 4 5 6 
#
# 1 0.010033 -0.002261 -0.002342 0.000000 0.000000 0.000000
# 2 -0.002261 0.010033 -0.002342 0.000000 0.000000 0.000000
# 3 -0.002342 -0.002342 0.012301 0.000000 0.000000 0.000000
# 4 0.000000 0.000000 0.000000 0.029673 0.000000 0.000000
# 5 0.000000 0.000000 0.000000 0.000000 0.029673 0.000000
# 6 0.000000 0.000000 0.000000 0.000000 0.000000 0.030861
#
#
# Mechanical properties :
#
#
# Convention : Reuss Voigt Hill
#
# Bulk Modulus (GPa) = 54.12037 54.79956 54.45997
# Shear Modulus (GPa) = 35.05752 35.37231 35.21492
#
# Velocity S-wave (km/s) = 3.89026 3.90768 3.89898
# Velocity P-wave (km/s) = 6.59865 6.63450 6.61660
#
# Compressibility (1/GPa) = 0.01847733
#
# Stress axis : x y z
#
# Youngs Moduli (GPa) = 99.67085 99.67077 81.29554
#
# Poissons Ratio (x) = 0.22531 0.19040
# Poissons Ratio (y) = 0.22531 0.19040
# Poissons Ratio (z) = 0.23344 0.23344
#
# Static dielectric constant tensor:
#      x y z
#    x 4.268110 0.000000 0.000000 
#    y 0.000000 4.268110 0.000000 
#    z 0.000000 0.000000 4.252160 
# 
# 
# High freq. dielectric constant tensor:
#      x y z
#    x 1.920290 0.000000 0.000000 
#    y 0.000000 1.920290 0.000000 
#    z 0.000000 0.000000 1.918870 
# 
# From -- ./inp_files/3549.got.cif
#   From: 2010.03.12/outbox.cif.g09.slc.cpg/sg117_2_cif.got.tgz:3549.got - 2010.04.14 02:19:01.
