data_PCOD8310403
_publ_section_title
;
Structure prediction by ZEFSAII (Michael W. Deem and Ramdas Pophale) SiO2 
 PCOD8310403
Probable space group: P -4 B 2
;
_chemical_formula_sum "Si O2"
_cell_formula_units_Z 34
_cell_length_a 12.643024
_cell_length_b 12.643024
_cell_length_c 9.655276
_cell_angle_alpha 90.000000
_cell_angle_beta 90.000000
_cell_angle_gamma 90.000000
_cell_volume 1543.357787
_symmetry_space_group_name_H-M "P -4 B 2"
_symmetry_group_IT_number 117
_symmetry_cell_setting 'tetragonal'
loop_
_space_group_symop_operation_xyz
x,y,z
y,-x,-z
-x,-y,z
-y,x,-z
1/2+y,1/2+x,-z
1/2-y,1/2-x,-z
1/2-x,1/2+y,z
1/2+x,1/2-y,z
loop_
_atom_site_type_symbol
_atom_site_label
_atom_site_fract_x
_atom_site_fract_y
_atom_site_fract_z
Si Si1 0.799000 0.701001 0.500000
Si Si2 0.963474 0.612713 0.289514
Si Si3 0.500000 0.500000 0.500000
Si Si4 0.371406 0.871406 0.000000
Si Si5 0.680536 0.409369 0.660450
Si Si6 0.638010 0.578874 0.050942
O O1 0.866422 0.664706 0.368974
O O2 0.677964 0.687058 0.458563
O O3 0.000000 0.500000 0.356225
O O4 0.055382 0.701341 0.294845
O O5 0.924717 0.579401 0.136108
O O6 0.606414 0.500569 0.594398
O O7 0.247495 0.890103 0.983066
O O8 0.620566 0.365539 0.793926
O O9 0.627936 0.451609 0.049176
#
# Coordination Sequence:
#
# PCOD8310403 Si02
#       6
#     4   8   2   4   8   8
#     4  12  27  48  71 110 146 196 244 306 383 450
#     4  12  28  50  74 108 151 199 249 311 384 456
#     4  12  24  44  74 104 148 184 248 298 352 448
#     4  12  25  48  72 109 146 192 260 308 387 448
#     4  12  26  46  75 108 146 196 247 308 373 448
#     4  11  24  45  73 105 148 196 253 316 372 444
#
# _framework density 22.029890000000002
#
# number of rings (size 3 to 8) (size 9 to 14) (size 15 to 20)
#    0.000    0.235    7.059    2.118    3.294    1.882 
#    0.000    0.000    0.000    0.000    0.000    0.000 
#    0.000    0.000    0.000    0.000    0.000    0.000 
#
# Total GULP energy -421581.685989 kJ/mol
# GULP energy per Si atom -12399.461353 kJ/mol
# Density = 2.197975 g / cm^3
# Si number density = 22.029890 Si / 1000 Ang^3
#
#
#
# Elastic Constant Matrix: (Units=GPa)
#
#
# Indices 1 2 3 4 5 6 
#
# 1 128.3504 47.5132 26.4256 0.0000 0.0000 0.0000
# 2 47.5132 128.3507 26.4259 0.0000 0.0000 0.0000
# 3 26.4256 26.4259 103.5491 0.0000 0.0000 0.0000
# 4 0.0000 0.0000 0.0000 28.7611 0.0000 0.0000
# 5 0.0000 0.0000 0.0000 0.0000 28.7602 0.0000
# 6 0.0000 0.0000 0.0000 0.0000 0.0000 27.5806
#
#
#
# Elastic Compliance Matrix: (Units=1/GPa)
#
#
# Indices 1 2 3 4 5 6 
#
# 1 0.009265 -0.003106 -0.001572 0.000000 0.000000 0.000000
# 2 -0.003106 0.009265 -0.001572 0.000000 0.000000 0.000000
# 3 -0.001572 -0.001572 0.010459 0.000000 0.000000 0.000000
# 4 0.000000 0.000000 0.000000 0.034769 0.000000 0.000000
# 5 0.000000 0.000000 0.000000 0.000000 0.034770 0.000000
# 6 0.000000 0.000000 0.000000 0.000000 0.000000 0.036257
#
#
# Mechanical properties :
#
#
# Convention : Reuss Voigt Hill
#
# Bulk Modulus (GPa) = 60.64330 62.33109 61.48720
# Shear Modulus (GPa) = 32.72668 34.34608 33.53638
#
# Velocity S-wave (km/s) = 3.85847 3.95279 3.90592
# Velocity P-wave (km/s) = 6.88752 7.01341 6.95075
#
# Compressibility (1/GPa) = 0.01648987
#
# Stress axis : x y z
#
# Youngs Moduli (GPa) = 107.93842 107.93861 95.60750
#
# Poissons Ratio (x) = 0.33526 0.15026
# Poissons Ratio (y) = 0.33526 0.15026
# Poissons Ratio (z) = 0.16964 0.16964
#
# Static dielectric constant tensor:
#      x y z
#    x 4.072030 0.000000 0.000000 
#    y 0.000000 4.072020 0.000000 
#    z 0.000000 0.000000 4.141450 
# 
# 
# High freq. dielectric constant tensor:
#      x y z
#    x 1.871430 0.000000 0.000000 
#    y 0.000000 1.871430 0.000000 
#    z 0.000000 0.000000 1.875080 
# 
# From -- ./inp_files/2602.got.cif
#   From: 2010.03.12/outbox.cif.g09.slc.cpg/sg117_2_cif.got.tgz:2602.got - 2010.04.14 02:19:01.
