data_PCOD8310331
_publ_section_title
;
Structure prediction by ZEFSAII (Michael W. Deem and Ramdas Pophale) SiO2 
 PCOD8310331
Probable space group: P -4 B 2
;
_chemical_formula_sum "Si O2"
_cell_formula_units_Z 58
_cell_length_a 16.816208
_cell_length_b 16.816208
_cell_length_c 9.925462
_cell_angle_alpha 90.000000
_cell_angle_beta 90.000000
_cell_angle_gamma 90.000000
_cell_volume 2806.770298
_symmetry_space_group_name_H-M "P -4 B 2"
_symmetry_group_IT_number 117
_symmetry_cell_setting 'tetragonal'
loop_
_space_group_symop_operation_xyz
x,y,z
y,-x,-z
-x,-y,z
-y,x,-z
1/2+y,1/2+x,-z
1/2-y,1/2-x,-z
1/2-x,1/2+y,z
1/2+x,1/2-y,z
loop_
_atom_site_type_symbol
_atom_site_label
_atom_site_fract_x
_atom_site_fract_y
_atom_site_fract_z
Si Si1 0.707923 0.804040 0.653415
Si Si2 0.500000 0.000000 0.000000
Si Si3 0.764792 0.936023 0.191351
Si Si4 0.464440 0.671280 0.583726
Si Si5 0.809439 0.653697 0.361430
Si Si6 0.334921 0.559216 0.673302
Si Si7 0.455108 0.382457 0.028562
Si Si8 0.357162 0.932899 0.119165
O O1 0.679777 0.820224 0.500000
O O2 0.633219 0.795584 0.756904
O O3 0.755738 0.720296 0.662219
O O4 0.763960 0.877484 0.692994
O O5 0.424998 0.999710 0.100594
O O6 0.820224 0.958246 0.320035
O O7 0.722428 0.015163 0.130651
O O8 0.819826 0.907701 0.066586
O O9 0.401137 0.733368 0.636552
O O10 0.417578 0.588775 0.604483
O O11 0.487933 0.689175 0.428256
O O12 0.856256 0.643745 0.500000
O O13 0.869910 0.622572 0.248983
O O14 0.349905 0.526535 0.822609
O O15 0.401370 0.461034 0.043224
O O16 0.366783 0.866783 0.000000
#
# Coordination Sequence:
#
# PCOD8310331 Si02
#       8
#     8   2   8   8   8   8   8   8
#     4  10  21  39  65  95 127 159 213 272 313 376
#     4   8  20  44  62  80 120 164 202 256 318 370
#     4  11  22  43  66  91 131 165 208 276 314 374
#     4  10  22  39  64  93 125 165 212 256 311 379
#     4   9  20  39  61  93 122 159 209 262 312 368
#     4  11  23  40  64  94 125 173 212 254 327 381
#     4  11  26  41  59  93 136 169 212 263 314 386
#     4   9  21  41  65  86 125 165 205 262 321 378
#
# _framework density 20.664321999999999
#
# number of rings (size 3 to 8) (size 9 to 14) (size 15 to 20)
#    0.414    1.517    2.759    0.000    1.931    4.138 
#    2.483    0.345    0.000    0.000    0.000    0.000 
#    0.000    0.000    0.000    0.000    0.000    0.000 
#
# Total GULP energy -718594.408926 kJ/mol
# GULP energy per Si atom -12389.558775 kJ/mol
# Density = 2.061729 g / cm^3
# Si number density = 20.664322 Si / 1000 Ang^3
#
#
#
# Elastic Constant Matrix: (Units=GPa)
#
#
# Indices 1 2 3 4 5 6 
#
# 1 60.7218 17.2853 34.9469 0.0000 0.0000 0.0000
# 2 17.2853 60.7235 34.9474 0.0000 0.0000 0.0000
# 3 34.9469 34.9474 150.1244 0.0000 0.0000 0.0000
# 4 0.0000 0.0000 0.0000 37.8250 0.0000 0.0000
# 5 0.0000 0.0000 0.0000 0.0000 37.8250 0.0000
# 6 0.0000 0.0000 0.0000 0.0000 0.0000 18.6366
#
#
#
# Elastic Compliance Matrix: (Units=1/GPa)
#
#
# Indices 1 2 3 4 5 6 
#
# 1 0.019610 -0.003412 -0.003771 0.000000 0.000000 0.000000
# 2 -0.003412 0.019609 -0.003771 0.000000 0.000000 0.000000
# 3 -0.003771 -0.003771 0.008417 0.000000 0.000000 0.000000
# 4 0.000000 0.000000 0.000000 0.026438 0.000000 0.000000
# 5 0.000000 0.000000 0.000000 0.000000 0.026438 0.000000
# 6 0.000000 0.000000 0.000000 0.000000 0.000000 0.053658
#
#
# Mechanical properties :
#
#
# Convention : Reuss Voigt Hill
#
# Bulk Modulus (GPa) = 38.86596 49.54764 44.20680
# Shear Modulus (GPa) = 27.07799 31.15000 29.11400
#
# Velocity S-wave (km/s) = 3.62384 3.88677 3.75761
# Velocity P-wave (km/s) = 6.02981 6.64621 6.34550
#
# Compressibility (1/GPa) = 0.02572946
#
# Stress axis : x y z
#
# Youngs Moduli (GPa) = 50.99463 50.99598 118.81218
#
# Poissons Ratio (x) = 0.17400 0.44800
# Poissons Ratio (y) = 0.17400 0.44799
# Poissons Ratio (z) = 0.19228 0.19228
#
# Static dielectric constant tensor:
#      x y z
#    x 3.644890 0.000000 0.000000 
#    y 0.000000 3.644890 0.000000 
#    z 0.000000 0.000000 3.875760 
# 
# 
# High freq. dielectric constant tensor:
#      x y z
#    x 1.793930 0.000000 0.000000 
#    y 0.000000 1.793930 0.000000 
#    z 0.000000 0.000000 1.817160 
# 
# From -- ./inp_files/2083.got.cif
#   From: 2010.03.12/outbox.cif.g09.slc.cpg/sg117_2_cif.got.tgz:2083.got - 2010.04.14 02:19:01.
