data_PCOD8310738
_publ_section_title
;
Structure prediction by ZEFSAII (Michael W. Deem and Ramdas Pophale) SiO2 
 PCOD8310738
Probable space group: I -4 M 2
;
_chemical_formula_sum "Si O2"
_cell_formula_units_Z 112
_cell_length_a 22.209057
_cell_length_b 22.209057
_cell_length_c 13.145999
_cell_angle_alpha 90.000000
_cell_angle_beta 90.000000
_cell_angle_gamma 90.000000
_cell_volume 6484.161637
_symmetry_space_group_name_H-M "I -4 M 2"
_symmetry_group_IT_number 119
_symmetry_cell_setting 'tetragonal'
loop_
_space_group_symop_operation_xyz
x,y,z
y,-x,-z
-x,-y,z
-y,x,-z
y,x,-z
-y,-x,-z
-x,y,z
x,-y,z
1/2+x,1/2+y,1/2+z
1/2+y,1/2-x,1/2-z
1/2-x,1/2-y,1/2+z
1/2-y,1/2+x,1/2-z
1/2+y,1/2+x,1/2-z
1/2-y,1/2-x,1/2-z
1/2-x,1/2+y,1/2+z
1/2+x,1/2-y,1/2+z
loop_
_atom_site_type_symbol
_atom_site_label
_atom_site_fract_x
_atom_site_fract_y
_atom_site_fract_z
Si Si1 0.657237 0.650177 0.754843
Si Si2 0.764006 0.932808 0.624779
Si Si3 0.433703 0.161472 0.719275
Si Si4 0.145612 0.231924 0.562405
Si Si5 0.567363 0.618141 0.601129
Si Si6 0.255177 0.931320 0.964088
Si Si7 0.250424 0.681850 0.589636
O O1 0.610723 0.694228 0.809905
O O2 0.695311 0.616481 0.842751
O O3 0.617817 0.603010 0.687138
O O4 0.706402 0.686696 0.687770
O O5 0.701053 0.936842 0.680330
O O6 0.749107 0.908443 0.511651
O O7 0.792960 0.000000 0.617408
O O8 0.500000 0.137962 0.690597
O O9 0.394580 0.105421 0.750000
O O10 0.408265 0.198815 0.622828
O O11 0.190041 0.190041 0.500000
O O12 0.185029 0.287749 0.606310
O O13 0.580674 0.580674 0.500000
O O14 0.500000 0.601289 0.638352
O O15 0.573083 0.688943 0.582996
O O16 0.268572 0.000000 0.997868
O O17 0.260779 0.888301 0.061775
O O18 0.285775 0.714226 0.500000
#
# Coordination Sequence:
#
# PCOD8310738 Si02
#       7
#    16  16  16  16  16  16  16
#     4  11  18  32  49  75  96 125 161 208 256 298
#     4  10  19  34  50  69  99 135 175 205 241 300
#     4  10  19  30  48  72 100 135 170 204 246 297
#     4   9  21  30  46  71 101 132 167 206 252 296
#     4  11  20  34  52  73 101 128 160 204 251 307
#     4  10  18  30  48  72  98 128 167 203 250 307
#     4  11  17  30  47  72 104 130 157 207 261 310
#
# _framework density 17.272857999999999
#
# number of rings (size 3 to 8) (size 9 to 14) (size 15 to 20)
#    0.000    1.714    4.286    1.714    0.000    2.571 
#    0.000    1.429    0.000    0.000    0.000    0.000 
#    0.000   15.143    0.000    0.000    0.000   48.286 
#
# Total GULP energy -694030.875818 kJ/mol
# GULP energy per Si atom -12393.408497 kJ/mol
# Density = 1.723354 g / cm^3
# Si number density = 17.272858 Si / 1000 Ang^3
#
#
#
# Elastic Constant Matrix: (Units=GPa)
#
#
# Indices 1 2 3 4 5 6 
#
# 1 69.4739 39.2241 39.6034 0.0000 0.0000 0.0000
# 2 39.2241 69.4745 39.6012 0.0000 0.0000 0.0000
# 3 39.6034 39.6012 90.5739 0.0000 0.0000 0.0000
# 4 0.0000 0.0000 0.0000 23.8999 0.0000 0.0000
# 5 0.0000 0.0000 0.0000 0.0000 23.9007 0.0000
# 6 0.0000 0.0000 0.0000 0.0000 0.0000 17.4401
#
#
#
# Elastic Compliance Matrix: (Units=1/GPa)
#
#
# Indices 1 2 3 4 5 6 
#
# 1 0.023280 -0.009778 -0.005904 0.000000 0.000000 0.000000
# 2 -0.009778 0.023279 -0.005903 0.000000 0.000000 0.000000
# 3 -0.005904 -0.005903 0.016203 0.000000 0.000000 0.000000
# 4 0.000000 0.000000 0.000000 0.041841 0.000000 0.000000
# 5 0.000000 0.000000 0.000000 0.000000 0.041840 0.000000
# 6 0.000000 0.000000 0.000000 0.000000 0.000000 0.057339
#
#
# Mechanical properties :
#
#
# Convention : Reuss Voigt Hill
#
# Bulk Modulus (GPa) = 51.04004 51.81996 51.43000
# Shear Modulus (GPa) = 19.72525 20.45440 20.08982
#
# Velocity S-wave (km/s) = 3.38299 3.44494 3.41410
# Velocity P-wave (km/s) = 6.69872 6.77418 6.73655
#
# Compressibility (1/GPa) = 0.01959246
#
# Stress axis : x y z
#
# Youngs Moduli (GPa) = 42.95525 42.95726 61.71710
#
# Poissons Ratio (x) = 0.42005 0.36437
# Poissons Ratio (y) = 0.42003 0.36429
# Poissons Ratio (z) = 0.25360 0.25356
#
# Static dielectric constant tensor:
#      x y z
#    x 3.259050 0.000000 0.000000 
#    y 0.000000 3.259040 0.000000 
#    z 0.000000 0.000000 3.441770 
# 
# 
# High freq. dielectric constant tensor:
#      x y z
#    x 1.647990 0.000000 0.000000 
#    y 0.000000 1.647990 0.000000 
#    z 0.000000 0.000000 1.664480 
# 
# From -- ./inp_files/4420.got.cif
#   From: 2010.03.12/outbox.cif.g09.slc.cpg/sg119_3_cif.got.tgz:4420.got - 2010.04.14 02:25:26.
