data_PCOD8310758
_publ_section_title
;
Structure prediction by ZEFSAII (Michael W. Deem and Ramdas Pophale) SiO2 
 PCOD8310758
Probable space group: I -4 M 2
;
_chemical_formula_sum "Si O2"
_cell_formula_units_Z 120
_cell_length_a 17.782949
_cell_length_b 17.782949
_cell_length_c 21.552887
_cell_angle_alpha 90.000000
_cell_angle_beta 90.000000
_cell_angle_gamma 90.000000
_cell_volume 6815.740045
_symmetry_space_group_name_H-M "I -4 M 2"
_symmetry_group_IT_number 119
_symmetry_cell_setting 'tetragonal'
loop_
_space_group_symop_operation_xyz
x,y,z
y,-x,-z
-x,-y,z
-y,x,-z
y,x,-z
-y,-x,-z
-x,y,z
x,-y,z
1/2+x,1/2+y,1/2+z
1/2+y,1/2-x,1/2-z
1/2-x,1/2-y,1/2+z
1/2-y,1/2+x,1/2-z
1/2+y,1/2+x,1/2-z
1/2-y,1/2-x,1/2-z
1/2-x,1/2+y,1/2+z
1/2+x,1/2-y,1/2+z
loop_
_atom_site_type_symbol
_atom_site_label
_atom_site_fract_x
_atom_site_fract_y
_atom_site_fract_z
Si Si1 0.417014 0.589580 0.067585
Si Si2 0.814613 0.800223 0.218454
Si Si3 0.082944 0.413633 0.459543
Si Si4 0.682729 0.189540 0.613297
Si Si5 0.811403 0.411648 0.704543
Si Si6 0.588251 0.302912 0.829157
Si Si7 0.720258 0.720258 0.500000
Si Si8 0.913105 0.698466 0.937975
O O1 0.500000 0.623496 0.078428
O O2 0.420728 0.500000 0.067284
O O3 0.366400 0.618833 0.123928
O O4 0.384822 0.615179 0.000000
O O5 0.758208 0.741793 0.250000
O O6 0.840494 0.763472 0.153055
O O7 0.772476 0.879778 0.213513
O O8 0.888511 0.820182 0.258514
O O9 0.069319 0.500000 0.448100
O O10 0.141831 0.389427 0.406720
O O11 0.120835 0.397363 0.525872
O O12 0.000000 0.373544 0.456754
O O13 0.727342 0.130078 0.653646
O O14 0.730082 0.216590 0.553097
O O15 0.813088 0.500000 0.719592
O O16 0.871421 0.371421 0.750000
O O17 0.826935 0.394258 0.632152
O O18 0.500000 0.291780 0.834281
O O19 0.638713 0.733576 0.466294
O O20 0.000000 0.725244 0.944469
#
# Coordination Sequence:
#
# PCOD8310758 Si02
#       8
#    16  16  16  16  16  16   8  16
#     4   8  15  29  47  67  95 129 160 195 245 300
#     4   9  19  35  50  69 102 140 178 220 262 317
#     4   9  18  32  51  77 107 134 166 215 270 324
#     4  10  19  32  52  74 102 134 172 214 267 320
#     4  10  20  35  54  77 108 143 182 226 272 328
#     4  10  20  32  50  73 101 134 173 218 256 299
#     4  10  18  32  56  79 102 137 170 226 276 334
#     4   9  18  33  55  79 105 142 179 219 275 335
#
# _framework density 17.606304999999999
#
# number of rings (size 3 to 8) (size 9 to 14) (size 15 to 20)
#    0.000    2.667    1.333    0.800    0.933    1.733 
#    0.000    1.333    0.000    0.200    0.000    8.400 
#    0.000    0.000    0.000    0.000    0.000    0.000 
#
# Total GULP energy -743306.283335 kJ/mol
# GULP energy per Si atom -12388.438056 kJ/mol
# Density = 1.756623 g / cm^3
# Si number density = 17.606305 Si / 1000 Ang^3
#
#
#
# Elastic Constant Matrix: (Units=GPa)
#
#
# Indices 1 2 3 4 5 6 
#
# 1 71.3999 48.6649 51.2277 0.0000 0.0000 0.0000
# 2 48.6649 71.3998 51.2276 0.0000 0.0000 0.0000
# 3 51.2277 51.2276 127.5606 0.0000 0.0000 0.0000
# 4 0.0000 0.0000 0.0000 27.6134 0.0000 0.0000
# 5 0.0000 0.0000 0.0000 0.0000 27.6135 0.0000
# 6 0.0000 0.0000 0.0000 0.0000 0.0000 22.4664
#
#
#
# Elastic Compliance Matrix: (Units=1/GPa)
#
#
# Indices 1 2 3 4 5 6 
#
# 1 0.028328 -0.015657 -0.005089 0.000000 0.000000 0.000000
# 2 -0.015657 0.028328 -0.005089 0.000000 0.000000 0.000000
# 3 -0.005089 -0.005089 0.011927 0.000000 0.000000 0.000000
# 4 0.000000 0.000000 0.000000 0.036214 0.000000 0.000000
# 5 0.000000 0.000000 0.000000 0.000000 0.036214 0.000000
# 6 0.000000 0.000000 0.000000 0.000000 0.000000 0.044511
#
#
# Mechanical properties :
#
#
# Convention : Reuss Voigt Hill
#
# Bulk Modulus (GPa) = 59.12183 63.62231 61.37207
# Shear Modulus (GPa) = 20.59061 23.48800 22.03931
#
# Velocity S-wave (km/s) = 3.42351 3.65645 3.54190
# Velocity P-wave (km/s) = 7.01997 7.35124 7.18752
#
# Compressibility (1/GPa) = 0.01691423
#
# Stress axis : x y z
#
# Youngs Moduli (GPa) = 35.30054 35.30052 83.84636
#
# Poissons Ratio (x) = 0.55270 0.42667
# Poissons Ratio (y) = 0.55270 0.42667
# Poissons Ratio (z) = 0.17963 0.17963
#
# Static dielectric constant tensor:
#      x y z
#    x 3.234560 0.000000 0.000000 
#    y 0.000000 3.234560 0.000000 
#    z 0.000000 0.000000 3.601760 
# 
# 
# High freq. dielectric constant tensor:
#      x y z
#    x 1.664660 0.000000 0.000000 
#    y 0.000000 1.664660 0.000000 
#    z 0.000000 0.000000 1.691980 
# 
# From -- ./inp_files/8096.got.cif
#   From: 2010.03.12/outbox.cif.g09.slc.cpg/sg119_5_cif.got.tgz:8096.got - 2010.04.14 02:25:26.
