data_PCOD8310899
_publ_section_title
;
Structure prediction by ZEFSAII (Michael W. Deem and Ramdas Pophale) SiO2 
 PCOD8310899
Probable space group: I -4 M 2
;
_chemical_formula_sum "Si O2"
_cell_formula_units_Z 72
_cell_length_a 11.624649
_cell_length_b 11.624649
_cell_length_c 30.384951
_cell_angle_alpha 90.000000
_cell_angle_beta 90.000000
_cell_angle_gamma 90.000000
_cell_volume 4105.993308
_symmetry_space_group_name_H-M "I -4 M 2"
_symmetry_group_IT_number 119
_symmetry_cell_setting 'tetragonal'
loop_
_space_group_symop_operation_xyz
x,y,z
y,-x,-z
-x,-y,z
-y,x,-z
y,x,-z
-y,-x,-z
-x,y,z
x,-y,z
1/2+x,1/2+y,1/2+z
1/2+y,1/2-x,1/2-z
1/2-x,1/2-y,1/2+z
1/2-y,1/2+x,1/2-z
1/2+y,1/2+x,1/2-z
1/2-y,1/2-x,1/2-z
1/2-x,1/2+y,1/2+z
1/2+x,1/2-y,1/2+z
loop_
_atom_site_type_symbol
_atom_site_label
_atom_site_fract_x
_atom_site_fract_y
_atom_site_fract_z
Si Si1 0.872053 0.748800 0.540563
Si Si2 0.865440 0.500000 0.425707
Si Si3 0.635163 0.500000 0.593870
Si Si4 0.633952 0.133432 0.800211
Si Si5 0.208439 0.248839 0.118966
Si Si6 0.809268 0.500000 0.521386
O O1 0.799135 0.799135 0.500000
O O2 0.818378 0.776348 0.588416
O O3 0.880732 0.611764 0.535425
O O4 0.000000 0.801445 0.539404
O O5 0.833265 0.389424 0.398366
O O6 0.787460 0.500000 0.469403
O O7 0.000000 0.500000 0.437898
O O8 0.500000 0.500000 0.590437
O O9 0.677848 0.613746 0.619191
O O10 0.684546 0.500000 0.544396
O O11 0.500000 0.154508 0.809705
O O12 0.664018 0.164018 0.750000
O O13 0.710358 0.220465 0.830349
O O14 0.665064 0.000000 0.809849
#
# Coordination Sequence:
#
# PCOD8310899 Si02
#       6
#    16   8   8  16  16   8
#     4  11  23  37  52  73 105 144 183 217 253 302
#     4  12  20  31  53  76 102 134 173 217 257 305
#     4  10  20  34  50  78 115 137 164 208 265 316
#     4   9  17  31  55  83 104 126 165 216 263 311
#     4  11  21  34  53  79 106 138 168 212 264 314
#     4  10  22  36  52  77 102 142 181 216 257 308
#
# _framework density 17.535342
#
# number of rings (size 3 to 8) (size 9 to 14) (size 15 to 20)
#    0.000    1.556    4.444    2.333    0.000    1.111 
#    2.000    0.000    2.444    0.000    0.000    0.000 
#    0.000    0.000    0.000    0.000    0.000    0.000 
#
# Total GULP energy -446273.937370 kJ/mol
# GULP energy per Si atom -12396.498260 kJ/mol
# Density = 1.749543 g / cm^3
# Si number density = 17.535342 Si / 1000 Ang^3
#
#
#
# Elastic Constant Matrix: (Units=GPa)
#
#
# Indices 1 2 3 4 5 6 
#
# 1 84.0333 34.5681 46.5962 0.0000 0.0000 0.0000
# 2 34.5681 84.0333 46.5962 0.0000 0.0000 0.0000
# 3 46.5962 46.5962 134.2299 0.0000 0.0000 0.0000
# 4 0.0000 0.0000 0.0000 -27.3228 0.0000 0.0000
# 5 0.0000 0.0000 0.0000 0.0000 -27.3228 0.0000
# 6 0.0000 0.0000 0.0000 0.0000 0.0000 10.7817
#
#
#
# Elastic Compliance Matrix: (Units=1/GPa)
#
#
# Indices 1 2 3 4 5 6 
#
# 1 0.015905 -0.004311 -0.004025 0.000000 0.000000 0.000000
# 2 -0.004311 0.015905 -0.004025 0.000000 0.000000 0.000000
# 3 -0.004025 -0.004025 0.010244 0.000000 0.000000 0.000000
# 4 0.000000 0.000000 0.000000 -0.036599 0.000000 0.000000
# 5 0.000000 0.000000 0.000000 0.000000 -0.036599 0.000000
# 6 0.000000 0.000000 0.000000 0.000000 0.000000 0.092750
#
#
# Mechanical properties :
#
#
# Convention : Reuss Voigt Hill
#
# Bulk Modulus (GPa) = 57.69212 61.97973 59.83592
# Shear Modulus (GPa) = 54.28633 2.86295 28.57464
#
# Velocity S-wave (km/s) = 5.57005 1.27915 4.04114
# Velocity P-wave (km/s) = 8.62202 6.13221 7.48141
#
# Compressibility (1/GPa) = 0.01733339
#
# Stress axis : x y z
#
# Youngs Moduli (GPa) = 62.87268 62.87268 97.61638
#
# Poissons Ratio (x) = 0.27105 0.39288
# Poissons Ratio (y) = 0.27105 0.39288
# Poissons Ratio (z) = 0.25305 0.25305
#
# Static dielectric constant tensor:
#      x y z
#    x 3.468320 0.000000 0.000000 
#    y 0.000000 3.468320 0.000000 
#    z 0.000000 0.000000 3.373350 
# 
# 
# High freq. dielectric constant tensor:
#      x y z
#    x 1.664450 0.000000 0.000000 
#    y 0.000000 1.664450 0.000000 
#    z 0.000000 0.000000 1.673290 
# 
# From -- ./inp_files/10053.got.cif
#   From: 2010.03.12/outbox.cif.g09.slc.cpg/sg119_6_cif.got.tgz:10053.got - 2010.04.14 02:25:26.
