data_PCOD8310299
_publ_section_title
;
Structure prediction by ZEFSAII (Michael W. Deem and Ramdas Pophale) SiO2 
 PCOD8310299
Probable space group: P -4 B 2
;
_chemical_formula_sum "Si O2"
_cell_formula_units_Z 48
_cell_length_a 17.258184
_cell_length_b 17.258184
_cell_length_c 8.682255
_cell_angle_alpha 90.000000
_cell_angle_beta 90.000000
_cell_angle_gamma 90.000000
_cell_volume 2585.965502
_symmetry_space_group_name_H-M "P -4 B 2"
_symmetry_group_IT_number 117
_symmetry_cell_setting 'tetragonal'
loop_
_space_group_symop_operation_xyz
x,y,z
y,-x,-z
-x,-y,z
-y,x,-z
1/2+y,1/2+x,-z
1/2-y,1/2-x,-z
1/2-x,1/2+y,z
1/2+x,1/2-y,z
loop_
_atom_site_type_symbol
_atom_site_label
_atom_site_fract_x
_atom_site_fract_y
_atom_site_fract_z
Si Si1 0.340406 0.717072 0.840289
Si Si2 0.842590 0.456509 0.912917
Si Si3 0.830230 0.312368 0.320182
Si Si4 0.115704 0.977118 0.237241
Si Si5 0.129038 0.370963 0.000000
Si Si6 0.392797 0.288653 0.894748
Si Si7 0.000000 0.000000 0.500000
Si Si8 0.500000 0.500000 0.000000
O O1 0.274655 0.697825 0.715892
O O2 0.418282 0.686158 0.761096
O O3 0.357411 0.807651 0.866167
O O4 0.319382 0.680384 0.007075
O O5 0.830870 0.417056 0.744255
O O6 0.864993 0.546912 0.910320
O O7 0.909359 0.409359 0.000000
O O8 0.759344 0.450398 0.995622
O O9 0.829810 0.329810 0.500000
O O10 0.768120 0.367095 0.240083
O O11 0.140565 0.063235 0.185783
O O12 0.076233 0.980872 0.402734
O O13 0.054106 0.947135 0.109513
#
# Coordination Sequence:
#
# PCOD8310299 Si02
#       8
#     8   8   8   8   4   8   2   2
#     4  11  21  36  62  90 119 154 208 257 299 354
#     4   9  20  37  62  88 117 153 204 253 303 352
#     4  10  22  40  59  86 122 164 195 243 313 378
#     4  11  21  38  56  88 118 160 193 248 297 369
#     4  12  19  36  64 100 112 147 212 272 296 340
#     4  10  19  37  60  83 112 156 204 245 296 359
#     4  10  28  38  52  90 132 158 196 234 320 378
#     4  10  20  34  60  78 116 154 196 230 292 350
#
# _framework density 18.561731999999999
#
# number of rings (size 3 to 8) (size 9 to 14) (size 15 to 20)
#    0.000    1.667    5.000    1.250    2.333    0.000 
#    0.000    1.667    0.000    4.000    0.000    0.000 
#    0.000    0.000    0.000    0.000    0.000    0.000 
#
# Total GULP energy -595063.512711 kJ/mol
# GULP energy per Si atom -12397.156515 kJ/mol
# Density = 1.851948 g / cm^3
# Si number density = 18.561732 Si / 1000 Ang^3
#
#
#
# Elastic Constant Matrix: (Units=GPa)
#
#
# Indices 1 2 3 4 5 6 
#
# 1 105.9731 32.4465 47.4502 0.0000 0.0000 0.0000
# 2 32.4465 105.9741 47.4506 0.0000 0.0000 0.0000
# 3 47.4502 47.4506 134.4704 0.0000 0.0000 0.0000
# 4 0.0000 0.0000 0.0000 23.9721 0.0000 0.0000
# 5 0.0000 0.0000 0.0000 0.0000 23.9722 0.0000
# 6 0.0000 0.0000 0.0000 0.0000 0.0000 29.4418
#
#
#
# Elastic Compliance Matrix: (Units=1/GPa)
#
#
# Indices 1 2 3 4 5 6 
#
# 1 0.011565 -0.002035 -0.003363 0.000000 0.000000 0.000000
# 2 -0.002035 0.011565 -0.003363 0.000000 0.000000 0.000000
# 3 -0.003363 -0.003363 0.009810 0.000000 0.000000 0.000000
# 4 0.000000 0.000000 0.000000 0.041715 0.000000 0.000000
# 5 0.000000 0.000000 0.000000 0.000000 0.041715 0.000000
# 6 0.000000 0.000000 0.000000 0.000000 0.000000 0.033965
#
#
# Mechanical properties :
#
#
# Convention : Reuss Voigt Hill
#
# Bulk Modulus (GPa) = 64.85737 66.79025 65.82381
# Shear Modulus (GPa) = 28.90228 30.08193 29.49210
#
# Velocity S-wave (km/s) = 3.95028 4.03009 3.99038
# Velocity P-wave (km/s) = 7.47152 7.59713 7.53458
#
# Compressibility (1/GPa) = 0.01541845
#
# Stress axis : x y z
#
# Youngs Moduli (GPa) = 86.46614 86.46682 101.93842
#
# Poissons Ratio (x) = 0.17598 0.34280
# Poissons Ratio (y) = 0.17598 0.34280
# Poissons Ratio (z) = 0.29077 0.29077
#
# Static dielectric constant tensor:
#      x y z
#    x 3.458420 0.000000 0.000000 
#    y 0.000000 3.458400 0.000000 
#    z 0.000000 0.000000 3.144880 
# 
# 
# High freq. dielectric constant tensor:
#      x y z
#    x 1.725590 0.000000 0.000000 
#    y 0.000000 1.725590 0.000000 
#    z 0.000000 0.000000 1.694710 
# 
# From -- ./inp_files/1989.got.cif
#   From: 2010.03.12/outbox.cif.g09.slc.cpg/sg117_1_cif.got.tgz:1989.got - 2010.04.14 02:19:01.
