data_PCOD8310887
_publ_section_title
;
Structure prediction by ZEFSAII (Michael W. Deem and Ramdas Pophale) SiO2 
 PCOD8310887
Probable space group: I -4 M 2
;
_chemical_formula_sum "Si O2"
_cell_formula_units_Z 64
_cell_length_a 9.454080
_cell_length_b 9.454080
_cell_length_c 41.684674
_cell_angle_alpha 90.000000
_cell_angle_beta 90.000000
_cell_angle_gamma 90.000000
_cell_volume 3725.760682
_symmetry_space_group_name_H-M "I -4 M 2"
_symmetry_group_IT_number 119
_symmetry_cell_setting 'tetragonal'
loop_
_space_group_symop_operation_xyz
x,y,z
y,-x,-z
-x,-y,z
-y,x,-z
y,x,-z
-y,-x,-z
-x,y,z
x,-y,z
1/2+x,1/2+y,1/2+z
1/2+y,1/2-x,1/2-z
1/2-x,1/2-y,1/2+z
1/2-y,1/2+x,1/2-z
1/2+y,1/2+x,1/2-z
1/2-y,1/2-x,1/2-z
1/2-x,1/2+y,1/2+z
1/2+x,1/2-y,1/2+z
loop_
_atom_site_type_symbol
_atom_site_label
_atom_site_fract_x
_atom_site_fract_y
_atom_site_fract_z
Si Si1 0.831004 0.157260 0.035041
Si Si2 0.831852 0.343276 0.092564
Si Si3 0.157283 0.667874 0.162660
Si Si4 0.334112 0.665803 0.223258
O O1 0.766563 0.251077 0.063728
O O2 0.000000 0.155054 0.036007
O O3 0.771000 0.000000 0.040202
O O4 0.783589 0.216412 0.000000
O O5 0.767178 0.500000 0.089139
O O6 0.793152 0.276587 0.127514
O O7 0.000000 0.349566 0.089704
O O8 0.148873 0.500000 0.160401
O O9 0.270077 0.715970 0.189231
O O10 0.000000 0.726484 0.171418
O O11 0.500000 0.699217 0.223343
O O12 0.304107 0.500000 0.229408
O O13 0.257233 0.757233 0.250000
#
# Coordination Sequence:
#
# PCOD8310887 Si02
#       4
#    16  16  16  16
#     4   8  13  21  34  54  80 107 134 168 211 253
#     4   8  13  22  38  59  80 104 137 175 213 252
#     4   8  14  26  45  67  88 110 140 181 223 258
#     4  10  20  33  50  71  93 119 151 184 222 269
#
# _framework density 17.177699
#
# number of rings (size 3 to 8) (size 9 to 14) (size 15 to 20)
#    0.000    3.500    0.000    3.000    0.000    1.500 
#    0.000    1.250    0.000    6.000    0.000    0.000 
#    0.000    0.000    0.000    0.000    0.000    0.000 
#
# Total GULP energy -396490.637564 kJ/mol
# GULP energy per Si atom -12390.332424 kJ/mol
# Density = 1.713860 g / cm^3
# Si number density = 17.177699 Si / 1000 Ang^3
#
#
#
# Elastic Constant Matrix: (Units=GPa)
#
#
# Indices 1 2 3 4 5 6 
#
# 1 56.7643 29.8666 62.6593 0.0000 0.0000 0.0000
# 2 29.8666 56.7641 62.6592 0.0000 0.0000 0.0000
# 3 62.6593 62.6592 192.7460 0.0000 0.0000 0.0000
# 4 0.0000 0.0000 0.0000 21.9622 0.0000 0.0000
# 5 0.0000 0.0000 0.0000 0.0000 21.9622 0.0000
# 6 0.0000 0.0000 0.0000 0.0000 0.0000 11.6825
#
#
#
# Elastic Compliance Matrix: (Units=1/GPa)
#
#
# Indices 1 2 3 4 5 6 
#
# 1 0.029484 -0.007694 -0.007084 0.000000 0.000000 0.000000
# 2 -0.007694 0.029484 -0.007084 0.000000 0.000000 0.000000
# 3 -0.007084 -0.007084 0.009794 0.000000 0.000000 0.000000
# 4 0.000000 0.000000 0.000000 0.045533 0.000000 0.000000
# 5 0.000000 0.000000 0.000000 0.000000 0.045533 0.000000
# 6 0.000000 0.000000 0.000000 0.000000 0.000000 0.085598
#
#
# Mechanical properties :
#
#
# Convention : Reuss Voigt Hill
#
# Bulk Modulus (GPa) = 39.93658 68.51608 54.22633
# Shear Modulus (GPa) = 16.80694 21.19397 19.00046
#
# Velocity S-wave (km/s) = 3.13136 3.51637 3.32943
# Velocity P-wave (km/s) = 6.03104 7.51397 6.81297
#
# Compressibility (1/GPa) = 0.02503970
#
# Stress axis : x y z
#
# Youngs Moduli (GPa) = 33.91639 33.91627 102.10438
#
# Poissons Ratio (x) = 0.26094 0.72329
# Poissons Ratio (y) = 0.26094 0.72329
# Poissons Ratio (z) = 0.24026 0.24026
#
# Static dielectric constant tensor:
#      x y z
#    x 2.939220 0.000000 0.000000 
#    y 0.000000 2.939220 0.000000 
#    z 0.000000 0.000000 3.738600 
# 
# 
# High freq. dielectric constant tensor:
#      x y z
#    x 1.617090 0.000000 0.000000 
#    y 0.000000 1.617090 0.000000 
#    z 0.000000 0.000000 1.685600 
# 
# From -- ./inp_files/9972.got.cif
#   From: 2010.03.12/outbox.cif.g09.slc.cpg/sg119_5_cif.got.tgz:9972.got - 2010.04.14 02:25:26.
