data_PCOD8310431
_publ_section_title
;
Structure prediction by ZEFSAII (Michael W. Deem and Ramdas Pophale) SiO2 
 PCOD8310431
Probable space group: P -4 N 2
;
_chemical_formula_sum "Si O2"
_cell_formula_units_Z 36
_cell_length_a 14.591371
_cell_length_b 14.591371
_cell_length_c 8.623710
_cell_angle_alpha 90.000000
_cell_angle_beta 90.000000
_cell_angle_gamma 90.000000
_cell_volume 1836.057777
_symmetry_space_group_name_H-M "P -4 N 2"
_symmetry_group_IT_number 118
_symmetry_cell_setting 'tetragonal'
loop_
_space_group_symop_operation_xyz
x,y,z
y,-x,-z
-x,-y,z
-y,x,-z
1/2+y,1/2+x,1/2-z
1/2-y,1/2-x,1/2-z
1/2-x,1/2+y,1/2+z
1/2+x,1/2-y,1/2+z
loop_
_atom_site_type_symbol
_atom_site_label
_atom_site_fract_x
_atom_site_fract_y
_atom_site_fract_z
Si Si1 0.418781 0.937908 0.934503
Si Si2 0.043176 0.762120 0.046518
Si Si3 0.282099 0.217901 0.750000
Si Si4 0.239579 0.336360 0.024797
Si Si5 0.132881 0.168034 0.173488
O O1 0.428262 0.928262 0.750000
O O2 0.420874 0.832525 0.998265
O O3 0.500000 0.000000 0.003373
O O4 0.327648 0.986735 0.998175
O O5 0.123635 0.726068 0.157848
O O6 0.975085 0.834435 0.130348
O O7 0.079894 0.812867 0.891760
O O8 0.193814 0.218859 0.638415
O O9 0.177710 0.257033 0.098123
O O10 0.324157 0.360052 0.139634
#
# Coordination Sequence:
#
# PCOD8310431 Si02
#       5
#     8   8   4   8   8
#     4  10  17  31  61  87 114 143 192 243 298 367
#     4  10  19  33  56  85 107 157 196 243 294 369
#     4  10  20  32  56  78 114 152 200 234 312 358
#     4   9  17  35  53  80 116 150 183 244 301 358
#     4   9  18  34  56  77 113 151 198 235 294 365
#
# _framework density 19.607227999999999
#
# number of rings (size 3 to 8) (size 9 to 14) (size 15 to 20)
#    0.000    2.444    4.444    1.333    0.000    0.444 
#    0.000    7.222   29.333    0.000    0.000    0.000 
#    0.000    0.000    0.000    0.000    0.000    0.000 
#
# Total GULP energy -446056.212521 kJ/mol
# GULP energy per Si atom -12390.450348 kJ/mol
# Density = 1.956260 g / cm^3
# Si number density = 19.607228 Si / 1000 Ang^3
#
#
#
# Elastic Constant Matrix: (Units=GPa)
#
#
# Indices 1 2 3 4 5 6 
#
# 1 79.6283 42.6471 37.3051 0.0000 0.0000 0.0000
# 2 42.6471 79.6296 37.3053 0.0000 0.0000 0.0000
# 3 37.3051 37.3053 86.8431 0.0000 0.0000 0.0000
# 4 0.0000 0.0000 0.0000 20.2700 0.0000 0.0000
# 5 0.0000 0.0000 0.0000 0.0000 20.2696 0.0000
# 6 0.0000 0.0000 0.0000 0.0000 0.0000 33.6838
#
#
#
# Elastic Compliance Matrix: (Units=1/GPa)
#
#
# Indices 1 2 3 4 5 6 
#
# 1 0.019062 -0.007979 -0.004761 0.000000 0.000000 0.000000
# 2 -0.007979 0.019062 -0.004761 0.000000 0.000000 0.000000
# 3 -0.004761 -0.004761 0.015605 0.000000 0.000000 0.000000
# 4 0.000000 0.000000 0.000000 0.049334 0.000000 0.000000
# 5 0.000000 0.000000 0.000000 0.000000 0.049335 0.000000
# 6 0.000000 0.000000 0.000000 0.000000 0.000000 0.029688
#
#
# Mechanical properties :
#
#
# Convention : Reuss Voigt Hill
#
# Bulk Modulus (GPa) = 53.39646 53.40176 53.39911
# Shear Modulus (GPa) = 22.38844 23.43427 22.91135
#
# Velocity S-wave (km/s) = 3.38279 3.46090 3.42206
# Velocity P-wave (km/s) = 6.52302 6.57763 6.55039
#
# Compressibility (1/GPa) = 0.01872783
#
# Stress axis : x y z
#
# Youngs Moduli (GPa) = 52.46046 52.46135 64.08031
#
# Poissons Ratio (x) = 0.41856 0.30509
# Poissons Ratio (y) = 0.41856 0.30509
# Poissons Ratio (z) = 0.24977 0.24977
#
# Static dielectric constant tensor:
#      x y z
#    x 3.747820 0.000000 0.000000 
#    y 0.000000 3.747830 0.000000 
#    z 0.000000 0.000000 3.492380 
# 
# 
# High freq. dielectric constant tensor:
#      x y z
#    x 1.755040 0.000000 0.000000 
#    y 0.000000 1.755040 0.000000 
#    z 0.000000 0.000000 1.735530 
# 
# From -- ./inp_files/1750.got.cif
#   From: 2010.03.12/outbox.cif.g09.slc.cpg/sg118_1_cif.got.tgz:1750.got - 2010.04.14 02:21:17.
