data_PCOD8310086
_publ_section_title
;
Structure prediction by ZEFSAII (Michael W. Deem and Ramdas Pophale) SiO2 
 PCOD8310086
Probable space group: P -4 C 2
;
_chemical_formula_sum "Si O2"
_cell_formula_units_Z 64
_cell_length_a 25.906770
_cell_length_b 25.906770
_cell_length_c 5.250988
_cell_angle_alpha 90.000000
_cell_angle_beta 90.000000
_cell_angle_gamma 90.000000
_cell_volume 3524.256949
_symmetry_space_group_name_H-M "P -4 C 2"
_symmetry_group_IT_number 116
_symmetry_cell_setting 'tetragonal'
loop_
_space_group_symop_operation_xyz
x,y,z
y,-x,-z
-x,-y,z
-y,x,-z
y,x,1/2-z
-y,-x,1/2-z
-x,y,1/2+z
x,-y,1/2+z
loop_
_atom_site_type_symbol
_atom_site_label
_atom_site_fract_x
_atom_site_fract_y
_atom_site_fract_z
Si Si1 0.235391 0.031392 0.292389
Si Si2 0.164322 0.481486 0.576230
Si Si3 0.686629 0.877172 0.373751
Si Si4 0.707860 0.223459 0.115837
Si Si5 0.640281 0.682427 0.498212
Si Si6 0.849249 0.636922 0.633429
Si Si7 0.720669 0.474923 0.527371
Si Si8 0.115749 0.967980 0.793320
O O1 0.268870 0.081255 0.350444
O O2 0.175671 0.047620 0.296113
O O3 0.248666 0.990201 0.512860
O O4 0.133806 0.508212 0.811640
O O5 0.170096 0.421393 0.628297
O O6 0.218399 0.511604 0.525831
O O7 0.715106 0.821433 0.404481
O O8 0.649844 0.886250 0.622374
O O9 0.650972 0.879186 0.124345
O O10 0.762277 0.237724 0.250000
O O11 0.684244 0.274066 0.986530
O O12 0.669856 0.203231 0.340250
O O13 0.647063 0.647063 0.750000
O O14 0.585769 0.711539 0.494325
O O15 0.646318 0.646318 0.250000
O O16 0.694648 0.502941 0.283976
O O17 0.084186 0.915815 0.750000
O O18 0.101555 0.007131 0.565197
#
# Coordination Sequence:
#
# PCOD8310086 Si02
#       8
#     8   8   8   8   8   8   8   8
#     4  10  21  41  62  81 111 148 196 244 290 327
#     4  10  19  30  50  75 104 147 178 222 273 314
#     4  10  22  36  56  79 110 146 189 239 268 331
#     4   9  22  33  50  75 115 156 187 211 269 330
#     4  11  23  35  51  76 116 160 188 220 272 336
#     4  10  21  34  52  77 118 140 186 230 271 325
#     4  10  20  32  53  74 101 143 194 227 273 320
#     4  10  21  37  57  86 115 150 188 239 296 346
#
# _framework density 18.159856999999999
#
# number of rings (size 3 to 8) (size 9 to 14) (size 15 to 20)
#    0.750    1.250    0.000    4.125    7.000    0.750 
#    2.250    0.000    0.000    0.000    0.000    0.000 
#    0.000   52.500    0.000    0.000    0.000    0.000 
#
# Total GULP energy -793072.857453 kJ/mol
# GULP energy per Si atom -12391.763398 kJ/mol
# Density = 1.811852 g / cm^3
# Si number density = 18.159857 Si / 1000 Ang^3
#
#
#
# Elastic Constant Matrix: (Units=GPa)
#
#
# Indices 1 2 3 4 5 6 
#
# 1 73.6884 43.5302 35.4189 0.0000 0.0000 0.0000
# 2 43.5302 73.6925 35.4190 0.0000 0.0000 0.0000
# 3 35.4189 35.4190 162.2768 0.0000 0.0000 0.0000
# 4 0.0000 0.0000 0.0000 22.6974 0.0000 0.0000
# 5 0.0000 0.0000 0.0000 0.0000 22.6971 0.0000
# 6 0.0000 0.0000 0.0000 0.0000 0.0000 27.6396
#
#
#
# Elastic Compliance Matrix: (Units=1/GPa)
#
#
# Indices 1 2 3 4 5 6 
#
# 1 0.021492 -0.011665 -0.002145 0.000000 0.000000 0.000000
# 2 -0.011665 0.021491 -0.002145 0.000000 0.000000 0.000000
# 3 -0.002145 -0.002145 0.007099 0.000000 0.000000 0.000000
# 4 0.000000 0.000000 0.000000 0.044058 0.000000 0.000000
# 5 0.000000 0.000000 0.000000 0.000000 0.044059 0.000000
# 6 0.000000 0.000000 0.000000 0.000000 0.000000 0.036180
#
#
# Mechanical properties :
#
#
# Convention : Reuss Voigt Hill
#
# Bulk Modulus (GPa) = 55.02589 59.82154 57.42371
# Shear Modulus (GPa) = 23.54662 27.62612 25.58637
#
# Velocity S-wave (km/s) = 3.60478 3.90458 3.75767
# Velocity P-wave (km/s) = 6.90598 7.30348 7.10751
#
# Compressibility (1/GPa) = 0.01817326
#
# Stress axis : x y z
#
# Youngs Moduli (GPa) = 46.52824 46.53115 140.87264
#
# Poissons Ratio (x) = 0.54276 0.30218
# Poissons Ratio (y) = 0.54273 0.30214
# Poissons Ratio (z) = 0.09980 0.09980
#
# Static dielectric constant tensor:
#      x y z
#    x 3.047130 0.000000 0.000000 
#    y 0.000000 3.047120 0.000000 
#    z 0.000000 0.000000 4.175570 
# 
# 
# High freq. dielectric constant tensor:
#      x y z
#    x 1.672710 0.000000 0.000000 
#    y 0.000000 1.672710 0.000000 
#    z 0.000000 0.000000 1.735920 
# 
# From -- ./inp_files/268.got.cif
#   From: 2010.03.12/outbox.cif.g09.slc.cpg/sg116_1_cif.got.tgz:268.got - 2010.04.14 02:15:44.
