data_PCOD8310654
_publ_section_title
;
Structure prediction by ZEFSAII (Michael W. Deem and Ramdas Pophale) SiO2 
 PCOD8310654
Probable space group: P -4 N 2
;
_chemical_formula_sum "Si O2"
_cell_formula_units_Z 14
_cell_length_a 5.129980
_cell_length_b 5.129980
_cell_length_c 20.999379
_cell_angle_alpha 90.000000
_cell_angle_beta 90.000000
_cell_angle_gamma 90.000000
_cell_volume 552.634248
_symmetry_space_group_name_H-M "P -4 N 2"
_symmetry_group_IT_number 118
_symmetry_cell_setting 'tetragonal'
loop_
_space_group_symop_operation_xyz
x,y,z
y,-x,-z
-x,-y,z
-y,x,-z
1/2+y,1/2+x,1/2-z
1/2-y,1/2-x,1/2-z
1/2-x,1/2+y,1/2+z
1/2+x,1/2-y,1/2+z
loop_
_atom_site_type_symbol
_atom_site_label
_atom_site_fract_x
_atom_site_fract_y
_atom_site_fract_z
Si Si1 0.000000 0.500000 0.582635
Si Si2 0.750921 0.828863 0.677763
Si Si3 0.000000 0.000000 0.500000
O O1 0.759208 0.582620 0.629502
O O2 0.914119 0.252666 0.540450
O O3 0.770316 0.729685 0.750000
O O4 0.500000 0.000000 0.664391
O O5 0.000000 0.000000 0.660893
#
# Coordination Sequence:
#
# PCOD8310654 Si02
#       3
#     4   8   2
#     4  12  29  56  76 118 157 218 262 340 378 488
#     4  11  28  49  83 119 156 201 258 331 407 473
#     4  12  32  48  84 108 160 216 280 306 404 460
#
# _framework density 25.333213000000001
#
# number of rings (size 3 to 8) (size 9 to 14) (size 15 to 20)
#    0.000    0.571    2.857    0.857   20.000    5.714 
#    0.000    0.000    0.000    0.000    0.000    0.000 
#    0.000    0.000    0.000    0.000    0.000    0.000 
#
# Total GULP energy -173598.975248 kJ/mol
# GULP energy per Si atom -12399.926803 kJ/mol
# Density = 2.527555 g / cm^3
# Si number density = 25.333213 Si / 1000 Ang^3
#
#
#
# Elastic Constant Matrix: (Units=GPa)
#
#
# Indices 1 2 3 4 5 6 
#
# 1 176.6881 67.6465 85.2848 0.0000 0.0000 0.0000
# 2 67.6465 176.6884 85.2848 0.0000 0.0000 0.0000
# 3 85.2848 85.2848 199.0199 0.0000 0.0000 0.0000
# 4 0.0000 0.0000 0.0000 16.2420 0.0000 0.0000
# 5 0.0000 0.0000 0.0000 0.0000 16.2418 0.0000
# 6 0.0000 0.0000 0.0000 0.0000 0.0000 27.7908
#
#
#
# Elastic Compliance Matrix: (Units=1/GPa)
#
#
# Indices 1 2 3 4 5 6 
#
# 1 0.007505 -0.001666 -0.002502 0.000000 0.000000 0.000000
# 2 -0.001666 0.007505 -0.002502 0.000000 0.000000 0.000000
# 3 -0.002502 -0.002502 0.007169 0.000000 0.000000 0.000000
# 4 0.000000 0.000000 0.000000 0.061569 0.000000 0.000000
# 5 0.000000 0.000000 0.000000 0.000000 0.061570 0.000000
# 6 0.000000 0.000000 0.000000 0.000000 0.000000 0.035983
#
#
# Mechanical properties :
#
#
# Convention : Reuss Voigt Hill
#
# Bulk Modulus (GPa) = 113.13574 114.31429 113.72502
# Shear Modulus (GPa) = 25.30511 33.00027 29.15269
#
# Velocity S-wave (km/s) = 3.16395 3.61314 3.39598
# Velocity P-wave (km/s) = 7.62256 7.91382 7.76956
#
# Compressibility (1/GPa) = 0.00883894
#
# Stress axis : x y z
#
# Youngs Moduli (GPa) = 133.23986 133.24018 139.48274
#
# Poissons Ratio (x) = 0.22192 0.34905
# Poissons Ratio (y) = 0.22192 0.34905
# Poissons Ratio (z) = 0.33343 0.33343
#
# Static dielectric constant tensor:
#      x y z
#    x 4.511420 0.000000 0.000000 
#    y 0.000000 4.511410 0.000000 
#    z 0.000000 0.000000 5.161890 
# 
# 
# High freq. dielectric constant tensor:
#      x y z
#    x 2.011300 0.000000 0.000000 
#    y 0.000000 2.011300 0.000000 
#    z 0.000000 0.000000 2.035060 
# 
# From -- ./inp_files/5077.got.cif
#   From: 2010.03.12/outbox.cif.g09.slc.cpg/sg118_3_cif.got.tgz:5077.got - 2010.04.14 02:21:17.
