data_PCOD8310721
_publ_section_title
;
Structure prediction by ZEFSAII (Michael W. Deem and Ramdas Pophale) SiO2 
 PCOD8310721
Probable space group: I -4 M 2
;
_chemical_formula_sum "Si O2"
_cell_formula_units_Z 96
_cell_length_a 17.115078
_cell_length_b 17.115078
_cell_length_c 19.460006
_cell_angle_alpha 90.000000
_cell_angle_beta 90.000000
_cell_angle_gamma 90.000000
_cell_volume 5700.339673
_symmetry_space_group_name_H-M "I -4 M 2"
_symmetry_group_IT_number 119
_symmetry_cell_setting 'tetragonal'
loop_
_space_group_symop_operation_xyz
x,y,z
y,-x,-z
-x,-y,z
-y,x,-z
y,x,-z
-y,-x,-z
-x,y,z
x,-y,z
1/2+x,1/2+y,1/2+z
1/2+y,1/2-x,1/2-z
1/2-x,1/2-y,1/2+z
1/2-y,1/2+x,1/2-z
1/2+y,1/2+x,1/2-z
1/2-y,1/2-x,1/2-z
1/2-x,1/2+y,1/2+z
1/2+x,1/2-y,1/2+z
loop_
_atom_site_type_symbol
_atom_site_label
_atom_site_fract_x
_atom_site_fract_y
_atom_site_fract_z
Si Si1 0.673380 0.912403 0.809846
Si Si2 0.589809 0.195073 0.905094
Si Si3 0.674874 0.792951 0.036395
Si Si4 0.592673 0.690734 0.444787
Si Si5 0.831672 0.822100 0.190278
Si Si6 0.192324 0.203444 0.661541
O O1 0.644408 0.855593 0.750000
O O2 0.635156 0.882450 0.880319
O O3 0.768197 0.909555 0.811707
O O4 0.645754 0.000000 0.795677
O O5 0.500000 0.189318 0.885002
O O6 0.622934 0.273888 0.869748
O O7 0.600645 0.195296 0.987328
O O8 0.720654 0.874560 0.049682
O O9 0.640600 0.750436 0.105157
O O10 0.737416 0.737416 0.000000
O O11 0.632824 0.632824 0.500000
O O12 0.500000 0.690899 0.457228
O O13 0.609837 0.661260 0.366414
O O14 0.815091 0.855035 0.267841
O O15 0.764417 0.761242 0.171910
#
# Coordination Sequence:
#
# PCOD8310721 Si02
#       6
#    16  16  16  16  16  16
#     4  11  20  29  43  66  97 131 161 187 221 274
#     4  10  18  28  42  66  97 126 158 189 224 272
#     4   8  16  30  49  66  89 123 156 192 233 278
#     4  10  20  33  49  68  91 123 159 196 237 283
#     4   9  16  30  50  67  87 118 157 196 232 273
#     4   8  14  29  48  67  87 117 153 196 232 269
#
# _framework density 16.841100999999998
#
# number of rings (size 3 to 8) (size 9 to 14) (size 15 to 20)
#    0.000    2.667    3.333    3.500    0.000    4.000 
#    0.000    0.833    0.000    0.000    0.000    0.000 
#    0.000   39.000    0.000    0.000    0.000    0.000 
#
# Total GULP energy -594666.262444 kJ/mol
# GULP energy per Si atom -12388.880468 kJ/mol
# Density = 1.680277 g / cm^3
# Si number density = 16.841101 Si / 1000 Ang^3
#
#
#
# Elastic Constant Matrix: (Units=GPa)
#
#
# Indices 1 2 3 4 5 6 
#
# 1 31.1475 15.5534 26.8620 0.0000 0.0000 0.0000
# 2 15.5534 31.1478 26.8632 0.0000 0.0000 0.0000
# 3 26.8620 26.8632 137.1202 0.0000 0.0000 0.0000
# 4 0.0000 0.0000 0.0000 11.4743 0.0000 0.0000
# 5 0.0000 0.0000 0.0000 0.0000 11.4736 0.0000
# 6 0.0000 0.0000 0.0000 0.0000 0.0000 7.7601
#
#
#
# Elastic Compliance Matrix: (Units=1/GPa)
#
#
# Indices 1 2 3 4 5 6 
#
# 1 0.045884 -0.018242 -0.005415 0.000000 0.000000 0.000000
# 2 -0.018242 0.045885 -0.005416 0.000000 0.000000 0.000000
# 3 -0.005415 -0.005416 0.009415 0.000000 0.000000 0.000000
# 4 0.000000 0.000000 0.000000 0.087151 0.000000 0.000000
# 5 0.000000 0.000000 0.000000 0.000000 0.087156 0.000000
# 6 0.000000 0.000000 0.000000 0.000000 0.000000 0.128865
#
#
# Mechanical properties :
#
#
# Convention : Reuss Voigt Hill
#
# Bulk Modulus (GPa) = 23.23494 37.55252 30.39373
# Shear Modulus (GPa) = 10.48555 14.81740 12.65147
#
# Velocity S-wave (km/s) = 2.49794 2.96942 2.74382
# Velocity P-wave (km/s) = 4.70596 5.83979 5.30327
#
# Compressibility (1/GPa) = 0.04303863
#
# Stress axis : x y z
#
# Youngs Moduli (GPa) = 21.79395 21.79378 106.21722
#
# Poissons Ratio (x) = 0.39756 0.57517
# Poissons Ratio (y) = 0.39756 0.57524
# Poissons Ratio (z) = 0.11802 0.11803
#
# Static dielectric constant tensor:
#      x y z
#    x 2.833680 0.000000 0.000000 
#    y 0.000000 2.833680 0.000000 
#    z 0.000000 0.000000 3.899420 
# 
# 
# High freq. dielectric constant tensor:
#      x y z
#    x 1.607820 0.000000 0.000000 
#    y 0.000000 1.607820 0.000000 
#    z 0.000000 0.000000 1.670990 
# 
# From -- ./inp_files/7943.got.cif
#   From: 2010.03.12/outbox.cif.g09.slc.cpg/sg119_4_cif.got.tgz:7943.got - 2010.04.14 02:25:26.
