data_PCOD8310487
_publ_section_title
;
Structure prediction by ZEFSAII (Michael W. Deem and Ramdas Pophale) SiO2 
 PCOD8310487
Probable space group: P -4 N 2
;
_chemical_formula_sum "Si O2"
_cell_formula_units_Z 28
_cell_length_a 9.069762
_cell_length_b 9.069762
_cell_length_c 15.448456
_cell_angle_alpha 90.000000
_cell_angle_beta 90.000000
_cell_angle_gamma 90.000000
_cell_volume 1270.798993
_symmetry_space_group_name_H-M "P -4 N 2"
_symmetry_group_IT_number 118
_symmetry_cell_setting 'tetragonal'
loop_
_space_group_symop_operation_xyz
x,y,z
y,-x,-z
-x,-y,z
-y,x,-z
1/2+y,1/2+x,1/2-z
1/2-y,1/2-x,1/2-z
1/2-x,1/2+y,1/2+z
1/2+x,1/2-y,1/2+z
loop_
_atom_site_type_symbol
_atom_site_label
_atom_site_fract_x
_atom_site_fract_y
_atom_site_fract_z
Si Si1 0.255703 0.183198 0.659735
Si Si2 0.519970 0.794844 0.313943
Si Si3 0.500000 0.500000 0.214549
Si Si4 0.726321 0.412515 0.504125
O O1 0.345266 0.154735 0.750000
O O2 0.180710 0.345305 0.669212
O O3 0.130179 0.057955 0.652139
O O4 0.359604 0.171767 0.575848
O O5 0.581592 0.918409 0.250000
O O6 0.551662 0.630852 0.278207
O O7 0.604385 0.813837 0.405629
O O8 0.581861 0.312952 0.510509
#
# Coordination Sequence:
#
# PCOD8310487 Si02
#       4
#     8   8   4   8
#     4   9  18  33  57  86 118 151 192 241 290 344
#     4  10  20  36  61  90 117 154 202 244 287 350
#     4  10  20  36  58  86 122 154 188 246 302 338
#     4   9  16  32  60  87 112 152 202 244 289 350
#
# _framework density 22.033383000000001
#
# number of rings (size 3 to 8) (size 9 to 14) (size 15 to 20)
#    0.000    2.571    0.000    5.143    0.000    5.143 
#    0.000    7.143    0.000   28.286    0.000    0.000 
#    0.000    0.000    0.000    0.286    0.000    0.000 
#
# Total GULP energy -346993.458509 kJ/mol
# GULP energy per Si atom -12392.623518 kJ/mol
# Density = 2.198323 g / cm^3
# Si number density = 22.033383 Si / 1000 Ang^3
#
#
#
# Elastic Constant Matrix: (Units=GPa)
#
#
# Indices 1 2 3 4 5 6 
#
# 1 80.2627 37.2767 43.5726 0.0000 0.0000 0.0000
# 2 37.2767 80.2614 43.5721 0.0000 0.0000 0.0000
# 3 43.5726 43.5721 191.8071 0.0000 0.0000 0.0000
# 4 0.0000 0.0000 0.0000 27.4034 0.0000 0.0000
# 5 0.0000 0.0000 0.0000 0.0000 27.4035 0.0000
# 6 0.0000 0.0000 0.0000 0.0000 0.0000 36.1367
#
#
#
# Elastic Compliance Matrix: (Units=1/GPa)
#
#
# Indices 1 2 3 4 5 6 
#
# 1 0.016747 -0.006516 -0.002324 0.000000 0.000000 0.000000
# 2 -0.006516 0.016747 -0.002324 0.000000 0.000000 0.000000
# 3 -0.002324 -0.002324 0.006270 0.000000 0.000000 0.000000
# 4 0.000000 0.000000 0.000000 0.036492 0.000000 0.000000
# 5 0.000000 0.000000 0.000000 0.000000 0.036492 0.000000
# 6 0.000000 0.000000 0.000000 0.000000 0.000000 0.027673
#
#
# Mechanical properties :
#
#
# Convention : Reuss Voigt Hill
#
# Bulk Modulus (GPa) = 57.35626 66.79711 62.07669
# Shear Modulus (GPa) = 29.66277 33.38271 31.52274
#
# Velocity S-wave (km/s) = 3.67313 3.89665 3.78654
# Velocity P-wave (km/s) = 6.63907 7.11528 6.88130
#
# Compressibility (1/GPa) = 0.01743489
#
# Stress axis : x y z
#
# Youngs Moduli (GPa) = 59.71131 59.71044 159.50206
#
# Poissons Ratio (x) = 0.38910 0.37071
# Poissons Ratio (y) = 0.38910 0.37071
# Poissons Ratio (z) = 0.13878 0.13878
#
# Static dielectric constant tensor:
#      x y z
#    x 3.784850 0.000000 0.000000 
#    y 0.000000 3.784850 0.000000 
#    z 0.000000 0.000000 4.571480 
# 
# 
# High freq. dielectric constant tensor:
#      x y z
#    x 1.845850 0.000000 0.000000 
#    y 0.000000 1.845850 0.000000 
#    z 0.000000 0.000000 1.881440 
# 
# From -- ./inp_files/4597.got.cif
#   From: 2010.03.12/outbox.cif.g09.slc.cpg/sg118_3_cif.got.tgz:4597.got - 2010.04.14 02:21:17.
