data_PCOD8310578
_publ_section_title
;
Structure prediction by ZEFSAII (Michael W. Deem and Ramdas Pophale) SiO2 
 PCOD8310578
Probable space group: P -4 N 2
;
_chemical_formula_sum "Si O2"
_cell_formula_units_Z 40
_cell_length_a 12.010410
_cell_length_b 12.010410
_cell_length_c 12.603236
_cell_angle_alpha 90.000000
_cell_angle_beta 90.000000
_cell_angle_gamma 90.000000
_cell_volume 1818.016142
_symmetry_space_group_name_H-M "P -4 N 2"
_symmetry_group_IT_number 118
_symmetry_cell_setting 'tetragonal'
loop_
_space_group_symop_operation_xyz
x,y,z
y,-x,-z
-x,-y,z
-y,x,-z
1/2+y,1/2+x,1/2-z
1/2-y,1/2-x,1/2-z
1/2-x,1/2+y,1/2+z
1/2+x,1/2-y,1/2+z
loop_
_atom_site_type_symbol
_atom_site_label
_atom_site_fract_x
_atom_site_fract_y
_atom_site_fract_z
Si Si1 0.384046 0.996732 0.546490
Si Si2 0.796928 0.730152 0.991205
Si Si3 0.619018 0.818048 0.364317
Si Si4 0.382965 0.445472 0.636542
Si Si5 0.776456 0.875906 0.682034
O O1 0.401436 0.085344 0.450896
O O2 0.278037 0.018432 0.621841
O O3 0.500000 0.000000 0.612139
O O4 0.380618 0.870901 0.504254
O O5 0.854580 0.845212 0.950681
O O6 0.709410 0.682285 0.906714
O O7 0.739704 0.764248 0.102247
O O8 0.626055 0.873946 0.250000
O O9 0.526314 0.722146 0.353339
O O10 0.500000 0.500000 0.600392
O O11 0.409754 0.382667 0.747771
O O12 0.679064 0.820937 0.750000
#
# Coordination Sequence:
#
# PCOD8310578 Si02
#       5
#     8   8   8   8   8
#     4  11  22  43  69  97 134 178 226 283 339 407
#     4  10  23  43  66  96 138 173 227 285 341 402
#     4  11  25  41  67 101 132 181 235 277 344 410
#     4  11  24  41  70  97 135 178 225 283 344 408
#     4   9  22  43  64  95 134 175 215 278 341 403
#
# _framework density 22.002005
#
# number of rings (size 3 to 8) (size 9 to 14) (size 15 to 20)
#    0.000    1.600    2.000    1.200    5.600    2.400 
#    0.000    0.000    0.000    0.000    0.000    0.000 
#    0.000    0.000    0.000    0.000    0.000    0.000 
#
# Total GULP energy -495663.653693 kJ/mol
# GULP energy per Si atom -12391.591342 kJ/mol
# Density = 2.195193 g / cm^3
# Si number density = 22.002005 Si / 1000 Ang^3
#
#
#
# Elastic Constant Matrix: (Units=GPa)
#
#
# Indices 1 2 3 4 5 6 
#
# 1 102.8717 35.6706 20.5305 0.0000 0.0000 0.0000
# 2 35.6706 102.8711 20.5305 0.0000 0.0000 0.0000
# 3 20.5305 20.5305 80.5026 0.0000 0.0000 0.0000
# 4 0.0000 0.0000 0.0000 13.1296 0.0000 0.0000
# 5 0.0000 0.0000 0.0000 0.0000 13.1288 0.0000
# 6 0.0000 0.0000 0.0000 0.0000 0.0000 41.4501
#
#
#
# Elastic Compliance Matrix: (Units=1/GPa)
#
#
# Indices 1 2 3 4 5 6 
#
# 1 0.011344 -0.003536 -0.001991 0.000000 0.000000 0.000000
# 2 -0.003536 0.011345 -0.001991 0.000000 0.000000 0.000000
# 3 -0.001991 -0.001991 0.013438 0.000000 0.000000 0.000000
# 4 0.000000 0.000000 0.000000 0.076164 0.000000 0.000000
# 5 0.000000 0.000000 0.000000 0.000000 0.076168 0.000000
# 6 0.000000 0.000000 0.000000 0.000000 0.000000 0.024125
#
#
# Mechanical properties :
#
#
# Convention : Reuss Voigt Hill
#
# Bulk Modulus (GPa) = 47.41855 48.85651 48.13753
# Shear Modulus (GPa) = 21.30819 27.50928 24.40874
#
# Velocity S-wave (km/s) = 3.11539 3.53981 3.33436
# Velocity P-wave (km/s) = 5.87704 6.24185 6.06219
#
# Compressibility (1/GPa) = 0.02108879
#
# Stress axis : x y z
#
# Youngs Moduli (GPa) = 88.14871 88.14826 74.41778
#
# Poissons Ratio (x) = 0.31172 0.14819
# Poissons Ratio (y) = 0.31172 0.14819
# Poissons Ratio (z) = 0.17553 0.17553
#
# Static dielectric constant tensor:
#      x y z
#    x 3.936040 0.000000 0.000000 
#    y 0.000000 3.936030 0.000000 
#    z 0.000000 0.000000 3.985910 
# 
# 
# High freq. dielectric constant tensor:
#      x y z
#    x 1.868800 0.000000 0.000000 
#    y 0.000000 1.868800 0.000000 
#    z 0.000000 0.000000 1.861040 
# 
# From -- ./inp_files/4095.got.cif
#   From: 2010.03.12/outbox.cif.g09.slc.cpg/sg118_3_cif.got.tgz:4095.got - 2010.04.14 02:21:17.
