data_PCOD8310103
_publ_section_title
;
Structure prediction by ZEFSAII (Michael W. Deem and Ramdas Pophale) SiO2 
 PCOD8310103
Probable space group: P -4 C 2
;
_chemical_formula_sum "Si O2"
_cell_formula_units_Z 64
_cell_length_a 20.758174
_cell_length_b 20.758174
_cell_length_c 9.014428
_cell_angle_alpha 90.000000
_cell_angle_beta 90.000000
_cell_angle_gamma 90.000000
_cell_volume 3884.333141
_symmetry_space_group_name_H-M "P -4 C 2"
_symmetry_group_IT_number 116
_symmetry_cell_setting 'tetragonal'
loop_
_space_group_symop_operation_xyz
x,y,z
y,-x,-z
-x,-y,z
-y,x,-z
y,x,1/2-z
-y,-x,1/2-z
-x,y,1/2+z
x,-y,1/2+z
loop_
_atom_site_type_symbol
_atom_site_label
_atom_site_fract_x
_atom_site_fract_y
_atom_site_fract_z
Si Si1 0.296781 0.800964 0.210165
Si Si2 0.122665 0.352975 0.031649
Si Si3 0.865440 0.833095 0.895562
Si Si4 0.899524 0.447373 0.784584
Si Si5 0.771457 0.951568 0.381885
Si Si6 0.768098 0.078458 0.555488
Si Si7 0.360760 0.121979 0.964673
Si Si8 0.951055 0.583992 0.781258
O O1 0.271414 0.728587 0.250000
O O2 0.235134 0.846870 0.181847
O O3 0.340416 0.821743 0.350606
O O4 0.338658 0.809796 0.057911
O O5 0.132985 0.413226 0.142229
O O6 0.095600 0.290166 0.114286
O O7 0.066971 0.369883 0.915494
O O8 0.878808 0.878808 0.750000
O O9 0.926571 0.825636 0.002471
O O10 0.810268 0.861830 0.000365
O O11 0.899364 0.524552 0.776109
O O12 0.974957 0.431895 0.797955
O O13 0.861203 0.422198 0.930580
O O14 0.795048 0.949619 0.210809
O O15 0.761703 0.025298 0.426095
O O16 0.696499 0.106246 0.578902
O O17 0.377946 0.057791 0.871922
#
# Coordination Sequence:
#
# PCOD8310103 Si02
#       8
#     8   8   8   8   8   8   8   8
#     4   9  18  34  47  64  88 117 145 193 255 288
#     4  10  20  30  46  65  88 118 157 188 233 289
#     4  10  19  36  50  68  94 114 144 189 251 293
#     4  11  19  32  43  67  90 124 159 196 229 280
#     4  11  23  32  50  73  92 117 152 193 238 298
#     4  12  21  33  51  70  93 118 151 192 240 303
#     4  11  20  30  48  65  88 123 157 188 238 290
#     4  10  21  31  44  60  98 126 154 192 237 279
#
# _framework density 16.476444999999998
#
# number of rings (size 3 to 8) (size 9 to 14) (size 15 to 20)
#    0.000    1.500    3.750    4.125    3.500    2.000 
#    0.000    0.625    0.000    0.375    0.000    2.625 
#    0.000    0.000    0.000    0.000    0.000    0.000 
#
# Total GULP energy -792867.304419 kJ/mol
# GULP energy per Si atom -12388.551632 kJ/mol
# Density = 1.643894 g / cm^3
# Si number density = 16.476445 Si / 1000 Ang^3
#
#
#
# Elastic Constant Matrix: (Units=GPa)
#
#
# Indices 1 2 3 4 5 6 
#
# 1 40.7528 23.0953 16.4406 0.0000 0.0000 0.0000
# 2 23.0953 40.7530 16.4404 0.0000 0.0000 0.0000
# 3 16.4406 16.4404 99.9221 0.0000 0.0000 0.0000
# 4 0.0000 0.0000 0.0000 19.1771 0.0000 0.0000
# 5 0.0000 0.0000 0.0000 0.0000 19.1769 0.0000
# 6 0.0000 0.0000 0.0000 0.0000 0.0000 21.2133
#
#
#
# Elastic Compliance Matrix: (Units=1/GPa)
#
#
# Indices 1 2 3 4 5 6 
#
# 1 0.036873 -0.019760 -0.002816 0.000000 0.000000 0.000000
# 2 -0.019760 0.036872 -0.002815 0.000000 0.000000 0.000000
# 3 -0.002816 -0.002815 0.010934 0.000000 0.000000 0.000000
# 4 0.000000 0.000000 0.000000 0.052146 0.000000 0.000000
# 5 0.000000 0.000000 0.000000 0.000000 0.052146 0.000000
# 6 0.000000 0.000000 0.000000 0.000000 0.000000 0.047140
#
#
# Mechanical properties :
#
#
# Convention : Reuss Voigt Hill
#
# Bulk Modulus (GPa) = 29.50164 32.59786 31.04975
# Shear Modulus (GPa) = 16.76767 20.27688 18.52228
#
# Velocity S-wave (km/s) = 3.19356 3.51188 3.35650
# Velocity P-wave (km/s) = 5.61629 6.02261 5.82300
#
# Compressibility (1/GPa) = 0.03389643
#
# Stress axis : x y z
#
# Youngs Moduli (GPa) = 27.12042 27.12055 91.45543
#
# Poissons Ratio (x) = 0.53591 0.25750
# Poissons Ratio (y) = 0.53591 0.25749
# Poissons Ratio (z) = 0.07636 0.07636
#
# Static dielectric constant tensor:
#      x y z
#    x 3.024270 0.000000 0.000000 
#    y 0.000000 3.024270 0.000000 
#    z 0.000000 0.000000 3.460550 
# 
# 
# High freq. dielectric constant tensor:
#      x y z
#    x 1.591550 0.000000 0.000000 
#    y 0.000000 1.591550 0.000000 
#    z 0.000000 0.000000 1.664580 
# 
# From -- ./inp_files/1140.got.cif
#   From: 2010.03.12/outbox.cif.g09.slc.cpg/sg116_1_cif.got.tgz:1140.got - 2010.04.14 02:15:44.
