data_PCOD8310031
_publ_section_title
;
Structure prediction by ZEFSAII (Michael W. Deem and Ramdas Pophale) SiO2 
 PCOD8310031
Probable space group: P -4 M 2
;
_chemical_formula_sum "Si O2"
_cell_formula_units_Z 44
_cell_length_a 9.794079
_cell_length_b 9.794079
_cell_length_c 28.093828
_cell_angle_alpha 90.000000
_cell_angle_beta 90.000000
_cell_angle_gamma 90.000000
_cell_volume 2694.871892
_symmetry_space_group_name_H-M "P -4 M 2"
_symmetry_group_IT_number 115
_symmetry_cell_setting 'tetragonal'
loop_
_space_group_symop_operation_xyz
x,y,z
y,-x,-z
-x,-y,z
-y,x,-z
y,x,-z
-y,-x,-z
-x,y,z
x,-y,z
loop_
_atom_site_type_symbol
_atom_site_label
_atom_site_fract_x
_atom_site_fract_y
_atom_site_fract_z
Si Si1 0.161887 0.349308 0.359035
Si Si2 0.842387 0.339732 0.466046
Si Si3 0.342701 0.657300 0.000000
Si Si4 0.837894 0.847182 0.173353
Si Si5 0.162558 0.847139 0.278686
Si Si6 0.342112 0.841611 0.911002
O O1 0.222748 0.500000 0.350095
O O2 0.198695 0.299205 0.412099
O O3 0.226721 0.249749 0.319285
O O4 0.000000 0.354986 0.353974
O O5 0.746443 0.253558 0.500000
O O6 0.817743 0.500000 0.474535
O O7 0.000000 0.302453 0.476085
O O8 0.246935 0.700497 0.043574
O O9 0.500000 0.681945 0.014522
O O10 0.787884 0.800579 0.225979
O O11 0.783030 0.743186 0.133619
O O12 0.000000 0.846752 0.172813
O O13 0.784184 0.000000 0.162110
O O14 0.000000 0.842568 0.280987
O O15 0.214563 0.000000 0.288883
O O16 0.500000 0.821272 0.898158
O O17 0.308757 0.000000 0.921796
#
# Coordination Sequence:
#
# PCOD8310031 Si02
#       6
#     8   8   4   8   8   8
#     4   8  14  24  37  55  81 110 139 174 213 251
#     4   9  18  31  45  64  90 117 148 186 225 267
#     4   9  18  32  46  59  80 110 138 165 204 250
#     4   8  14  24  37  56  84 113 137 164 202 247
#     4   8  13  21  34  54  81 111 139 166 201 248
#     4   9  17  28  42  61  82 103 133 172 205 236
#
# _framework density 16.327307999999999
#
# number of rings (size 3 to 8) (size 9 to 14) (size 15 to 20)
#    0.000    3.545    0.000    2.182    0.000    2.545 
#    0.000    5.455    0.000    0.000    0.000    1.273 
#    0.000    4.364    0.000    0.000    0.000    0.000 
#
# Total GULP energy -545289.119622 kJ/mol
# GULP energy per Si atom -12392.934537 kJ/mol
# Density = 1.629015 g / cm^3
# Si number density = 16.327308 Si / 1000 Ang^3
#
#
#
# Elastic Constant Matrix: (Units=GPa)
#
#
# Indices 1 2 3 4 5 6 
#
# 1 56.0022 34.5548 70.5142 0.0000 0.0000 0.0000
# 2 34.5548 55.9999 70.5136 0.0000 0.0000 0.0000
# 3 70.5142 70.5136 170.5408 0.0000 0.0000 0.0000
# 4 0.0000 0.0000 0.0000 5.0290 0.0000 0.0000
# 5 0.0000 0.0000 0.0000 0.0000 5.0285 0.0000
# 6 0.0000 0.0000 0.0000 0.0000 0.0000 14.8373
#
#
#
# Elastic Compliance Matrix: (Units=1/GPa)
#
#
# Indices 1 2 3 4 5 6 
#
# 1 0.038819 -0.007808 -0.012822 0.000000 0.000000 0.000000
# 2 -0.007808 0.038822 -0.012823 0.000000 0.000000 0.000000
# 3 -0.012822 -0.012823 0.016468 0.000000 0.000000 0.000000
# 4 0.000000 0.000000 0.000000 0.198845 0.000000 0.000000
# 5 0.000000 0.000000 0.000000 0.000000 0.198865 0.000000
# 6 0.000000 0.000000 0.000000 0.000000 0.000000 0.067398
#
#
# Mechanical properties :
#
#
# Convention : Reuss Voigt Hill
#
# Bulk Modulus (GPa) = 36.76280 70.41199 53.58740
# Shear Modulus (GPa) = 7.87166 12.10968 9.99067
#
# Velocity S-wave (km/s) = 2.19810 2.72634 2.47634
# Velocity P-wave (km/s) = 5.38583 7.28900 6.40846
#
# Compressibility (1/GPa) = 0.02720141
#
# Stress axis : x y z
#
# Youngs Moduli (GPa) = 25.76046 25.75879 60.72551
#
# Poissons Ratio (x) = 0.20112 0.77865
# Poissons Ratio (y) = 0.20113 0.77870
# Poissons Ratio (z) = 0.33031 0.33031
#
# Static dielectric constant tensor:
#      x y z
#    x 2.924930 0.000000 0.000000 
#    y 0.000000 2.924940 0.000000 
#    z 0.000000 0.000000 3.381900 
# 
# 
# High freq. dielectric constant tensor:
#      x y z
#    x 1.597550 0.000000 0.000000 
#    y 0.000000 1.597550 0.000000 
#    z 0.000000 0.000000 1.639100 
# 
# From -- ./inp_files/5712.got.cif
#   From: 2010.03.12/outbox.cif.g09.slc.cpg/sg115_3_cif.got.tgz:5712.got - 2010.04.14 02:11:21.
