data_PCOD8310563
_publ_section_title
;
Structure prediction by ZEFSAII (Michael W. Deem and Ramdas Pophale) SiO2 
 PCOD8310563
Probable space group: P -4 N 2
;
_chemical_formula_sum "Si O2"
_cell_formula_units_Z 36
_cell_length_a 14.744487
_cell_length_b 14.744487
_cell_length_c 8.172787
_cell_angle_alpha 90.000000
_cell_angle_beta 90.000000
_cell_angle_gamma 90.000000
_cell_volume 1776.763051
_symmetry_space_group_name_H-M "P -4 N 2"
_symmetry_group_IT_number 118
_symmetry_cell_setting 'tetragonal'
loop_
_space_group_symop_operation_xyz
x,y,z
y,-x,-z
-x,-y,z
-y,x,-z
1/2+y,1/2+x,1/2-z
1/2-y,1/2-x,1/2-z
1/2-x,1/2+y,1/2+z
1/2+x,1/2-y,1/2+z
loop_
_atom_site_type_symbol
_atom_site_label
_atom_site_fract_x
_atom_site_fract_y
_atom_site_fract_z
Si Si1 0.719232 0.200723 0.938190
Si Si2 0.500000 0.000000 0.250000
Si Si3 0.167365 0.916600 0.160852
Si Si4 0.000000 0.000000 0.000000
Si Si5 0.311475 0.971938 0.406501
Si Si6 0.741399 0.870336 0.629998
O O1 0.693566 0.193566 0.750000
O O2 0.792006 0.125149 0.993038
O O3 0.632345 0.179986 0.047305
O O4 0.755680 0.301221 0.977066
O O5 0.588896 0.994465 0.361317
O O6 0.241598 0.978351 0.254631
O O7 0.129777 0.836673 0.275802
O O8 0.086237 0.983578 0.115461
O O9 0.276140 0.029794 0.560623
O O10 0.659962 0.840039 0.750000
#
# Coordination Sequence:
#
# PCOD8310563 Si02
#       6
#     8   2   8   2   8   8
#     4  10  22  42  66  90 130 174 208 274 337 391
#     4  12  24  40  66 100 128 180 218 272 332 400
#     4  10  24  45  60  95 134 170 219 273 335 391
#     4  12  28  36  74  96 128 176 230 276 312 416
#     4  11  23  42  66  93 134 171 217 277 328 404
#     4   9  22  41  65  93 128 168 215 265 332 401
#
# _framework density 20.261564
#
# number of rings (size 3 to 8) (size 9 to 14) (size 15 to 20)
#    0.000    1.778    2.222    1.333    7.778    5.333 
#    0.000    0.000    0.000    0.000    0.000    0.000 
#    0.000    0.000    0.000    0.000    0.000    0.000 
#
# Total GULP energy -446533.910462 kJ/mol
# GULP energy per Si atom -12403.719735 kJ/mol
# Density = 2.021545 g / cm^3
# Si number density = 20.261564 Si / 1000 Ang^3
#
#
#
# Elastic Constant Matrix: (Units=GPa)
#
#
# Indices 1 2 3 4 5 6 
#
# 1 98.6294 44.5814 35.8209 0.0000 0.0000 0.0000
# 2 44.5814 98.6292 35.8209 0.0000 0.0000 0.0000
# 3 35.8209 35.8209 103.8693 0.0000 0.0000 0.0000
# 4 0.0000 0.0000 0.0000 30.9240 0.0000 0.0000
# 5 0.0000 0.0000 0.0000 0.0000 30.9238 0.0000
# 6 0.0000 0.0000 0.0000 0.0000 0.0000 37.2606
#
#
#
# Elastic Compliance Matrix: (Units=1/GPa)
#
#
# Indices 1 2 3 4 5 6 
#
# 1 0.013470 -0.005032 -0.002910 0.000000 0.000000 0.000000
# 2 -0.005032 0.013470 -0.002910 0.000000 0.000000 0.000000
# 3 -0.002910 -0.002910 0.011635 0.000000 0.000000 0.000000
# 4 0.000000 0.000000 0.000000 0.032337 0.000000 0.000000
# 5 0.000000 0.000000 0.000000 0.000000 0.032338 0.000000
# 6 0.000000 0.000000 0.000000 0.000000 0.000000 0.026838
#
#
# Mechanical properties :
#
#
# Convention : Reuss Voigt Hill
#
# Bulk Modulus (GPa) = 59.27277 59.28603 59.27940
# Shear Modulus (GPa) = 31.76292 32.14864 31.95578
#
# Velocity S-wave (km/s) = 3.96364 3.98764 3.97566
# Velocity P-wave (km/s) = 7.08975 7.10813 7.09895
#
# Compressibility (1/GPa) = 0.01687115
#
# Stress axis : x y z
#
# Youngs Moduli (GPa) = 74.23737 74.23722 85.94972
#
# Poissons Ratio (x) = 0.37355 0.25013
# Poissons Ratio (y) = 0.37355 0.25013
# Poissons Ratio (z) = 0.21604 0.21604
#
# Static dielectric constant tensor:
#      x y z
#    x 3.650040 0.000000 0.000000 
#    y 0.000000 3.650040 0.000000 
#    z 0.000000 0.000000 3.546280 
# 
# 
# High freq. dielectric constant tensor:
#      x y z
#    x 1.793700 0.000000 0.000000 
#    y 0.000000 1.793700 0.000000 
#    z 0.000000 0.000000 1.788980 
# 
# From -- ./inp_files/1794.got.cif
#   From: 2010.03.12/outbox.cif.g09.slc.cpg/sg118_1_cif.got.tgz:1794.got - 2010.04.14 02:21:17.
