data_PCOD8310798
_publ_section_title
;
Structure prediction by ZEFSAII (Michael W. Deem and Ramdas Pophale) SiO2 
 PCOD8310798
Probable space group: I -4 M 2
;
_chemical_formula_sum "Si O2"
_cell_formula_units_Z 112
_cell_length_a 15.284479
_cell_length_b 15.284479
_cell_length_c 24.922275
_cell_angle_alpha 90.000000
_cell_angle_beta 90.000000
_cell_angle_gamma 90.000000
_cell_volume 5822.224708
_symmetry_space_group_name_H-M "I -4 M 2"
_symmetry_group_IT_number 119
_symmetry_cell_setting 'tetragonal'
loop_
_space_group_symop_operation_xyz
x,y,z
y,-x,-z
-x,-y,z
-y,x,-z
y,x,-z
-y,-x,-z
-x,y,z
x,-y,z
1/2+x,1/2+y,1/2+z
1/2+y,1/2-x,1/2-z
1/2-x,1/2-y,1/2+z
1/2-y,1/2+x,1/2-z
1/2+y,1/2+x,1/2-z
1/2-y,1/2-x,1/2-z
1/2-x,1/2+y,1/2+z
1/2+x,1/2-y,1/2+z
loop_
_atom_site_type_symbol
_atom_site_label
_atom_site_fract_x
_atom_site_fract_y
_atom_site_fract_z
Si Si1 0.237442 0.593831 0.758725
Si Si2 0.733982 0.401806 0.475703
Si Si3 0.402349 0.686811 0.735961
Si Si4 0.901889 0.231489 0.359118
Si Si5 0.900824 0.400004 0.954794
Si Si6 0.763366 0.904131 0.383794
Si Si7 0.402582 0.192352 0.635642
O O1 0.204029 0.500000 0.737008
O O2 0.166412 0.666412 0.750000
O O3 0.327845 0.614077 0.727188
O O4 0.254092 0.587404 0.821030
O O5 0.665833 0.334168 0.500000
O O6 0.704046 0.500000 0.491604
O O7 0.832831 0.384330 0.496627
O O8 0.735486 0.391288 0.411348
O O9 0.500000 0.646392 0.729305
O O10 0.388928 0.724385 0.795406
O O11 0.386793 0.762849 0.692964
O O12 0.837748 0.168981 0.394186
O O13 0.883844 0.332314 0.373315
O O14 0.000000 0.206931 0.376423
O O15 0.887652 0.500000 0.975311
O O16 0.830107 0.376551 0.908795
O O17 0.000000 0.388835 0.931774
O O18 0.792422 0.000000 0.406487
O O19 0.500000 0.151025 0.632880
#
# Coordination Sequence:
#
# PCOD8310798 Si02
#       7
#    16  16  16  16  16  16  16
#     4  10  20  32  48  72 103 137 170 206 248 297
#     4  10  21  36  54  75 100 132 169 212 259 303
#     4   9  18  34  54  74 100 135 173 212 253 300
#     4  10  19  31  51  77 106 141 173 201 241 298
#     4   9  18  34  56  78  99 128 168 212 258 306
#     4   9  18  33  52  74 101 132 168 210 251 295
#     4  10  20  34  52  74 102 134 169 213 259 300
#
# _framework density 19.236633000000001
#
# number of rings (size 3 to 8) (size 9 to 14) (size 15 to 20)
#    0.000    2.429    0.000    3.000    0.000    2.286 
#    0.000    7.857    0.000    5.143    0.000    0.000 
#    0.000    3.429    0.000    0.000    0.000    0.000 
#
# Total GULP energy -694002.655562 kJ/mol
# GULP energy per Si atom -12392.904564 kJ/mol
# Density = 1.919285 g / cm^3
# Si number density = 19.236633 Si / 1000 Ang^3
#
#
#
# Elastic Constant Matrix: (Units=GPa)
#
#
# Indices 1 2 3 4 5 6 
#
# 1 135.0078 80.5114 32.3491 0.0000 0.0000 0.0000
# 2 80.5114 135.0072 32.3494 0.0000 0.0000 0.0000
# 3 32.3491 32.3494 30.0995 0.0000 0.0000 0.0000
# 4 0.0000 0.0000 0.0000 22.3984 0.0000 0.0000
# 5 0.0000 0.0000 0.0000 0.0000 22.3980 0.0000
# 6 0.0000 0.0000 0.0000 0.0000 0.0000 14.8733
#
#
#
# Elastic Compliance Matrix: (Units=1/GPa)
#
#
# Indices 1 2 3 4 5 6 
#
# 1 0.012600 -0.005750 -0.007362 0.000000 0.000000 0.000000
# 2 -0.005750 0.012600 -0.007362 0.000000 0.000000 0.000000
# 3 -0.007362 -0.007362 0.049048 0.000000 0.000000 0.000000
# 4 0.000000 0.000000 0.000000 0.044646 0.000000 0.000000
# 5 0.000000 0.000000 0.000000 0.000000 0.044647 0.000000
# 6 0.000000 0.000000 0.000000 0.000000 0.000000 0.067235
#
#
# Mechanical properties :
#
#
# Convention : Reuss Voigt Hill
#
# Bulk Modulus (GPa) = 30.03027 65.61492 47.82259
# Shear Modulus (GPa) = 17.67888 22.26091 19.96989
#
# Velocity S-wave (km/s) = 3.03483 3.40548 3.22548
# Velocity P-wave (km/s) = 5.28442 7.04602 6.22782
#
# Compressibility (1/GPa) = 0.03329973
#
# Stress axis : x y z
#
# Youngs Moduli (GPa) = 79.36571 79.36465 20.38824
#
# Poissons Ratio (x) = 0.45634 0.15010
# Poissons Ratio (y) = 0.45635 0.15010
# Poissons Ratio (z) = 0.58428 0.58430
#
# Static dielectric constant tensor:
#      x y z
#    x 3.719610 0.000000 0.000000 
#    y 0.000000 3.719600 0.000000 
#    z 0.000000 0.000000 3.348250 
# 
# 
# High freq. dielectric constant tensor:
#      x y z
#    x 1.748900 0.000000 0.000000 
#    y 0.000000 1.748900 0.000000 
#    z 0.000000 0.000000 1.728970 
# 
# From -- ./inp_files/8800.got.cif
#   From: 2010.03.12/outbox.cif.g09.slc.cpg/sg119_5_cif.got.tgz:8800.got - 2010.04.14 02:25:26.
