data_PCOD8310302
_publ_section_title
;
Structure prediction by ZEFSAII (Michael W. Deem and Ramdas Pophale) SiO2 
 PCOD8310302
Probable space group: P -4 B 2
;
_chemical_formula_sum "Si O2"
_cell_formula_units_Z 48
_cell_length_a 14.931114
_cell_length_b 14.931114
_cell_length_c 11.044969
_cell_angle_alpha 90.000000
_cell_angle_beta 90.000000
_cell_angle_gamma 90.000000
_cell_volume 2462.345124
_symmetry_space_group_name_H-M "P -4 B 2"
_symmetry_group_IT_number 117
_symmetry_cell_setting 'tetragonal'
loop_
_space_group_symop_operation_xyz
x,y,z
y,-x,-z
-x,-y,z
-y,x,-z
1/2+y,1/2+x,-z
1/2-y,1/2-x,-z
1/2-x,1/2+y,z
1/2+x,1/2-y,z
loop_
_atom_site_type_symbol
_atom_site_label
_atom_site_fract_x
_atom_site_fract_y
_atom_site_fract_z
Si Si1 0.218095 0.453639 0.904829
Si Si2 0.861899 0.343201 0.132608
Si Si3 0.646068 0.040549 0.155745
Si Si4 0.202879 0.377471 0.390998
Si Si5 0.180064 0.191880 0.259751
Si Si6 0.614500 0.584075 0.522050
O O1 0.225284 0.554457 0.847148
O O2 0.119267 0.423385 0.865738
O O3 0.294646 0.387947 0.853525
O O4 0.224611 0.453908 0.051919
O O5 0.901025 0.444286 0.141038
O O6 0.779475 0.337939 0.224382
O O7 0.822759 0.322759 0.000000
O O8 0.684283 0.045021 0.293143
O O9 0.128637 0.371364 0.500000
O O10 0.195233 0.284513 0.324115
O O11 0.302982 0.388446 0.438735
O O12 0.134327 0.119988 0.348702
O O13 0.614788 0.476982 0.543425
#
# Coordination Sequence:
#
# PCOD8310302 Si02
#       6
#     8   8   8   8   8   8
#     4   9  19  33  54  84 111 147 180 232 289 349
#     4  10  20  32  55  86 111 145 188 227 293 361
#     4   9  17  34  56  78 115 147 179 234 286 346
#     4   9  19  34  54  78 107 147 183 228 282 331
#     4  10  21  34  55  81 111 142 186 239 288 338
#     4  10  21  37  56  75 104 149 198 236 277 345
#
# _framework density 19.493611000000001
#
# number of rings (size 3 to 8) (size 9 to 14) (size 15 to 20)
#    0.000    2.500    0.000    1.500    7.000    2.000 
#    0.000    0.000    0.000    8.000    0.000    2.333 
#    0.000    0.000    0.000    0.000    0.000    0.000 
#
# Total GULP energy -594660.620261 kJ/mol
# GULP energy per Si atom -12388.762922 kJ/mol
# Density = 1.944924 g / cm^3
# Si number density = 19.493611 Si / 1000 Ang^3
#
#
#
# Elastic Constant Matrix: (Units=GPa)
#
#
# Indices 1 2 3 4 5 6 
#
# 1 63.4055 12.4193 29.0921 0.0000 0.0000 0.0000
# 2 12.4193 63.4045 29.0922 0.0000 0.0000 0.0000
# 3 29.0921 29.0922 116.8941 0.0000 0.0000 0.0000
# 4 0.0000 0.0000 0.0000 22.9243 0.0000 0.0000
# 5 0.0000 0.0000 0.0000 0.0000 22.9245 0.0000
# 6 0.0000 0.0000 0.0000 0.0000 0.0000 21.4819
#
#
#
# Elastic Compliance Matrix: (Units=1/GPa)
#
#
# Indices 1 2 3 4 5 6 
#
# 1 0.017957 -0.001656 -0.004057 0.000000 0.000000 0.000000
# 2 -0.001656 0.017958 -0.004057 0.000000 0.000000 0.000000
# 3 -0.004057 -0.004057 0.010574 0.000000 0.000000 0.000000
# 4 0.000000 0.000000 0.000000 0.043622 0.000000 0.000000
# 5 0.000000 0.000000 0.000000 0.000000 0.043621 0.000000
# 6 0.000000 0.000000 0.000000 0.000000 0.000000 0.046551
#
#
# Mechanical properties :
#
#
# Convention : Reuss Voigt Hill
#
# Bulk Modulus (GPa) = 37.10699 42.76789 39.93744
# Shear Modulus (GPa) = 23.94563 25.00617 24.47590
#
# Velocity S-wave (km/s) = 3.50863 3.58549 3.54727
# Velocity P-wave (km/s) = 5.95741 6.25524 6.10814
#
# Compressibility (1/GPa) = 0.02694910
#
# Stress axis : x y z
#
# Youngs Moduli (GPa) = 55.68758 55.68658 94.56999
#
# Poissons Ratio (x) = 0.09221 0.38367
# Poissons Ratio (y) = 0.09221 0.38368
# Poissons Ratio (z) = 0.22593 0.22593
#
# Static dielectric constant tensor:
#      x y z
#    x 3.557090 0.000000 0.000000 
#    y 0.000000 3.557080 0.000000 
#    z 0.000000 0.000000 4.179520 
# 
# 
# High freq. dielectric constant tensor:
#      x y z
#    x 1.745130 0.000000 0.000000 
#    y 0.000000 1.745130 0.000000 
#    z 0.000000 0.000000 1.761050 
# 
# From -- ./inp_files/2749.got.cif
#   From: 2010.03.12/outbox.cif.g09.slc.cpg/sg117_2_cif.got.tgz:2749.got - 2010.04.14 02:19:01.
