data_PCOD8310726
_publ_section_title
;
Structure prediction by ZEFSAII (Michael W. Deem and Ramdas Pophale) SiO2 
 PCOD8310726
Probable space group: I -4 M 2
;
_chemical_formula_sum "Si O2"
_cell_formula_units_Z 80
_cell_length_a 13.767372
_cell_length_b 13.767372
_cell_length_c 26.252625
_cell_angle_alpha 90.000000
_cell_angle_beta 90.000000
_cell_angle_gamma 90.000000
_cell_volume 4975.936503
_symmetry_space_group_name_H-M "I -4 M 2"
_symmetry_group_IT_number 119
_symmetry_cell_setting 'tetragonal'
loop_
_space_group_symop_operation_xyz
x,y,z
y,-x,-z
-x,-y,z
-y,x,-z
y,x,-z
-y,-x,-z
-x,y,z
x,-y,z
1/2+x,1/2+y,1/2+z
1/2+y,1/2-x,1/2-z
1/2-x,1/2-y,1/2+z
1/2-y,1/2+x,1/2-z
1/2+y,1/2+x,1/2-z
1/2-y,1/2-x,1/2-z
1/2-x,1/2+y,1/2+z
1/2+x,1/2-y,1/2+z
loop_
_atom_site_type_symbol
_atom_site_label
_atom_site_fract_x
_atom_site_fract_y
_atom_site_fract_z
Si Si1 0.790623 0.388613 0.703650
Si Si2 0.611001 0.608296 0.355471
Si Si3 0.114588 0.268616 0.500547
Si Si4 0.108567 0.386509 0.900818
Si Si5 0.724400 0.614855 0.455839
O O1 0.817732 0.500000 0.716638
O O2 0.820723 0.320723 0.750000
O O3 0.675743 0.374701 0.694087
O O4 0.842898 0.353871 0.652105
O O5 0.500000 0.614283 0.374854
O O6 0.638874 0.500000 0.338166
O O7 0.677957 0.643905 0.401842
O O8 0.159869 0.159869 0.500000
O O9 0.140574 0.316427 0.554907
O O10 0.168606 0.335791 0.458679
O O11 0.000000 0.264007 0.489028
O O12 0.103619 0.500000 0.893483
O O13 0.000000 0.346285 0.913930
O O14 0.655574 0.655574 0.500000
O O15 0.734343 0.500000 0.461619
#
# Coordination Sequence:
#
# PCOD8310726 Si02
#       5
#    16  16  16  16  16
#     4  10  18  28  45  67  90 115 144 180 220 264
#     4   9  18  31  46  67  95 122 145 174 219 273
#     4  10  20  32  46  64  89 124 162 195 227 264
#     4   9  17  29  45  67  94 117 138 174 228 281
#     4  10  18  28  46  72  99 124 150 180 219 273
#
# _framework density 16.077375
#
# number of rings (size 3 to 8) (size 9 to 14) (size 15 to 20)
#    0.000    2.400    0.000    4.200    0.000    5.000 
#    0.000    0.000    0.000    4.800    0.000    5.600 
#    0.000    0.000    0.000    0.000    0.000    0.000 
#
# Total GULP energy -495879.391208 kJ/mol
# GULP energy per Si atom -12396.984780 kJ/mol
# Density = 1.604078 g / cm^3
# Si number density = 16.077375 Si / 1000 Ang^3
#
#
#
# Elastic Constant Matrix: (Units=GPa)
#
#
# Indices 1 2 3 4 5 6 
#
# 1 78.8212 50.5488 52.8933 0.0000 0.0000 0.0000
# 2 50.5488 78.8212 52.8933 0.0000 0.0000 0.0000
# 3 52.8933 52.8933 86.9228 0.0000 0.0000 0.0000
# 4 0.0000 0.0000 0.0000 24.2581 0.0000 0.0000
# 5 0.0000 0.0000 0.0000 0.0000 24.2581 0.0000
# 6 0.0000 0.0000 0.0000 0.0000 0.0000 23.7927
#
#
#
# Elastic Compliance Matrix: (Units=1/GPa)
#
#
# Indices 1 2 3 4 5 6 
#
# 1 0.025378 -0.009993 -0.009362 0.000000 0.000000 0.000000
# 2 -0.009993 0.025378 -0.009362 0.000000 0.000000 0.000000
# 3 -0.009362 -0.009362 0.022898 0.000000 0.000000 0.000000
# 4 0.000000 0.000000 0.000000 0.041223 0.000000 0.000000
# 5 0.000000 0.000000 0.000000 0.000000 0.041223 0.000000
# 6 0.000000 0.000000 0.000000 0.000000 0.000000 0.042030
#
#
# Mechanical properties :
#
#
# Convention : Reuss Voigt Hill
#
# Bulk Modulus (GPa) = 61.65050 61.91510 61.78280
# Shear Modulus (GPa) = 19.15934 20.34378 19.75156
#
# Velocity S-wave (km/s) = 3.45584 3.56106 3.50884
# Velocity P-wave (km/s) = 7.37246 7.45000 7.41133
#
# Compressibility (1/GPa) = 0.01622047
#
# Stress axis : x y z
#
# Youngs Moduli (GPa) = 39.40483 39.40483 43.67172
#
# Poissons Ratio (x) = 0.39375 0.40885
# Poissons Ratio (y) = 0.39375 0.40885
# Poissons Ratio (z) = 0.36891 0.36891
#
# Static dielectric constant tensor:
#      x y z
#    x 3.152500 0.000000 0.000000 
#    y 0.000000 3.152500 0.000000 
#    z 0.000000 0.000000 2.837280 
# 
# 
# High freq. dielectric constant tensor:
#      x y z
#    x 1.616720 0.000000 0.000000 
#    y 0.000000 1.616720 0.000000 
#    z 0.000000 0.000000 1.593720 
# 
# From -- ./inp_files/7580.got.cif
#   From: 2010.03.12/outbox.cif.g09.slc.cpg/sg119_4_cif.got.tgz:7580.got - 2010.04.14 02:25:26.
