data_PCOD8310503
_publ_section_title
;
Structure prediction by ZEFSAII (Michael W. Deem and Ramdas Pophale) SiO2 
 PCOD8310503
Probable space group: P -4 N 2
;
_chemical_formula_sum "Si O2"
_cell_formula_units_Z 50
_cell_length_a 15.331630
_cell_length_b 15.331630
_cell_length_c 11.022727
_cell_angle_alpha 90.000000
_cell_angle_beta 90.000000
_cell_angle_gamma 90.000000
_cell_volume 2590.989846
_symmetry_space_group_name_H-M "P -4 N 2"
_symmetry_group_IT_number 118
_symmetry_cell_setting 'tetragonal'
loop_
_space_group_symop_operation_xyz
x,y,z
y,-x,-z
-x,-y,z
-y,x,-z
1/2+y,1/2+x,1/2-z
1/2-y,1/2-x,1/2-z
1/2-x,1/2+y,1/2+z
1/2+x,1/2-y,1/2+z
loop_
_atom_site_type_symbol
_atom_site_label
_atom_site_fract_x
_atom_site_fract_y
_atom_site_fract_z
Si Si1 0.567270 0.200373 0.792989
Si Si2 0.210719 0.596668 0.061108
Si Si3 0.838929 0.213468 0.686834
Si Si4 0.688309 0.674476 0.740209
Si Si5 0.500000 0.500000 0.500000
Si Si6 0.507454 0.672788 0.351715
Si Si7 0.768047 0.435786 0.419341
O O1 0.608915 0.108915 0.750000
O O2 0.504459 0.190648 0.909678
O O3 0.643265 0.264191 0.840896
O O4 0.512898 0.235536 0.678623
O O5 0.284947 0.630902 0.152445
O O6 0.115920 0.640656 0.078062
O O7 0.251531 0.609826 0.929559
O O8 0.798216 0.298216 0.750000
O O9 0.905611 0.163767 0.773866
O O10 0.784881 0.715120 0.750000
O O11 0.698316 0.570289 0.741059
O O12 0.639576 0.697572 0.613289
O O13 0.485436 0.581925 0.414119
O O14 0.520659 0.748069 0.451673
#
# Coordination Sequence:
#
# PCOD8310503 Si02
#       7
#     8   8   8   8   2   8   8
#     4  10  23  40  66  94 118 163 222 257 308 381
#     4  10  22  42  61  90 130 165 201 264 323 374
#     4  11  24  41  62  90 126 171 207 255 325 390
#     4   9  21  37  62  87 118 162 204 250 312 372
#     4  12  24  36  64  98 124 156 216 280 302 368
#     4  12  22  38  62  91 125 159 212 258 314 370
#     4  10  20  40  64  88 122 160 206 258 312 367
#
# _framework density 19.297643000000001
#
# number of rings (size 3 to 8) (size 9 to 14) (size 15 to 20)
#    0.000    1.600    3.200    2.400    4.480    2.560 
#    0.000    0.000    0.000    0.480    0.000    0.000 
#    0.000    0.000    0.000    0.000    0.000    0.000 
#
# Total GULP energy -619877.133149 kJ/mol
# GULP energy per Si atom -12397.542663 kJ/mol
# Density = 1.925372 g / cm^3
# Si number density = 19.297643 Si / 1000 Ang^3
#
#
#
# Elastic Constant Matrix: (Units=GPa)
#
#
# Indices 1 2 3 4 5 6 
#
# 1 103.8481 50.0026 40.1072 0.0000 0.0000 0.0000
# 2 50.0026 103.8483 40.1076 0.0000 0.0000 0.0000
# 3 40.1072 40.1076 91.3147 0.0000 0.0000 0.0000
# 4 0.0000 0.0000 0.0000 27.4765 0.0000 0.0000
# 5 0.0000 0.0000 0.0000 0.0000 27.4752 0.0000
# 6 0.0000 0.0000 0.0000 0.0000 0.0000 22.5995
#
#
#
# Elastic Compliance Matrix: (Units=1/GPa)
#
#
# Indices 1 2 3 4 5 6 
#
# 1 0.013501 -0.005071 -0.003703 0.000000 0.000000 0.000000
# 2 -0.005071 0.013501 -0.003703 0.000000 0.000000 0.000000
# 3 -0.003703 -0.003703 0.014204 0.000000 0.000000 0.000000
# 4 0.000000 0.000000 0.000000 0.036395 0.000000 0.000000
# 5 0.000000 0.000000 0.000000 0.000000 0.036396 0.000000
# 6 0.000000 0.000000 0.000000 0.000000 0.000000 0.044249
#
#
# Mechanical properties :
#
#
# Convention : Reuss Voigt Hill
#
# Bulk Modulus (GPa) = 61.52567 62.16065 61.84316
# Shear Modulus (GPa) = 26.50890 26.76317 26.63603
#
# Velocity S-wave (km/s) = 3.71035 3.72810 3.71923
# Velocity P-wave (km/s) = 7.09276 7.12833 7.11057
#
# Compressibility (1/GPa) = 0.01625338
#
# Stress axis : x y z
#
# Youngs Moduli (GPa) = 74.06868 74.06858 70.40345
#
# Poissons Ratio (x) = 0.37557 0.26069
# Poissons Ratio (y) = 0.37557 0.26069
# Poissons Ratio (z) = 0.27426 0.27426
#
# Static dielectric constant tensor:
#      x y z
#    x 3.514740 0.000000 0.000000 
#    y 0.000000 3.514740 0.000000 
#    z 0.000000 0.000000 3.467060 
# 
# 
# High freq. dielectric constant tensor:
#      x y z
#    x 1.749750 0.000000 0.000000 
#    y 0.000000 1.749750 0.000000 
#    z 0.000000 0.000000 1.744910 
# 
# From -- ./inp_files/3355.got.cif
#   From: 2010.03.12/outbox.cif.g09.slc.cpg/sg118_2_cif.got.tgz:3355.got - 2010.04.14 02:21:17.
