data_PCOD8310763
_publ_section_title
;
Structure prediction by ZEFSAII (Michael W. Deem and Ramdas Pophale) SiO2 
 PCOD8310763
Probable space group: I -4 M 2
;
_chemical_formula_sum "Si O2"
_cell_formula_units_Z 128
_cell_length_a 21.717067
_cell_length_b 21.717067
_cell_length_c 15.581324
_cell_angle_alpha 90.000000
_cell_angle_beta 90.000000
_cell_angle_gamma 90.000000
_cell_volume 7348.635405
_symmetry_space_group_name_H-M "I -4 M 2"
_symmetry_group_IT_number 119
_symmetry_cell_setting 'tetragonal'
loop_
_space_group_symop_operation_xyz
x,y,z
y,-x,-z
-x,-y,z
-y,x,-z
y,x,-z
-y,-x,-z
-x,y,z
x,-y,z
1/2+x,1/2+y,1/2+z
1/2+y,1/2-x,1/2-z
1/2-x,1/2-y,1/2+z
1/2-y,1/2+x,1/2-z
1/2+y,1/2+x,1/2-z
1/2-y,1/2-x,1/2-z
1/2-x,1/2+y,1/2+z
1/2+x,1/2-y,1/2+z
loop_
_atom_site_type_symbol
_atom_site_label
_atom_site_fract_x
_atom_site_fract_y
_atom_site_fract_z
Si Si1 0.192472 0.714513 0.520066
Si Si2 0.256408 0.878672 0.881610
Si Si3 0.893560 0.430918 0.656697
Si Si4 0.066572 0.253580 0.828602
Si Si5 0.433274 0.669155 0.492147
Si Si6 0.149970 0.430342 0.998286
Si Si7 0.269360 0.693535 0.689232
Si Si8 0.383365 0.071667 0.840443
O O1 0.214767 0.785234 0.500000
O O2 0.217018 0.672400 0.444442
O O3 0.118003 0.706204 0.520050
O O4 0.225593 0.690730 0.605719
O O5 0.218525 0.930564 0.931285
O O6 0.208292 0.841477 0.822065
O O7 0.311280 0.911108 0.829288
O O8 0.920054 0.500000 0.659385
O O9 0.900436 0.400436 0.750000
O O10 0.821773 0.430740 0.631600
O O11 0.930308 0.394087 0.584505
O O12 0.125300 0.239137 0.767210
O O13 0.000000 0.244561 0.781564
O O14 0.074662 0.204701 0.903925
O O15 0.381016 0.618985 0.500000
O O16 0.500000 0.636895 0.496763
O O17 0.176388 0.500000 0.008185
O O18 0.111505 0.413743 0.083588
O O19 0.246856 0.746856 0.750000
O O20 0.416302 0.083699 0.750000
O O21 0.390567 0.000000 0.864553
#
# Coordination Sequence:
#
# PCOD8310763 Si02
#       8
#    16  16  16  16  16  16  16  16
#     4   9  18  33  50  68  97 124 159 203 252 298
#     4  10  18  34  52  75  96 129 167 214 256 310
#     4  11  22  35  49  72 107 144 178 208 244 297
#     4  10  19  31  48  69  98 134 170 209 249 297
#     4  11  19  32  52  74 103 136 170 212 260 314
#     4  11  22  35  52  74 100 134 174 210 253 306
#     4  11  18  30  51  73  98 126 166 209 257 299
#     4  11  23  38  54  74 100 132 174 219 262 307
#
# _framework density 17.418199999999999
#
# number of rings (size 3 to 8) (size 9 to 14) (size 15 to 20)
#    0.000    1.500    3.750    3.375    0.000    3.375 
#    0.000    0.000    0.000    0.000    0.000    0.000 
#    0.000    0.250    0.000    0.000    0.000    0.125 
#
# Total GULP energy -793054.336784 kJ/mol
# GULP energy per Si atom -12391.474012 kJ/mol
# Density = 1.737856 g / cm^3
# Si number density = 17.418200 Si / 1000 Ang^3
#
#
#
# Elastic Constant Matrix: (Units=GPa)
#
#
# Indices 1 2 3 4 5 6 
#
# 1 96.8366 36.6342 10.4646 0.0000 0.0000 0.0000
# 2 36.6342 96.8404 10.4611 0.0000 0.0000 0.0000
# 3 10.4646 10.4611 50.8504 0.0000 0.0000 0.0000
# 4 0.0000 0.0000 0.0000 19.3082 0.0000 0.0000
# 5 0.0000 0.0000 0.0000 0.0000 19.3085 0.0000
# 6 0.0000 0.0000 0.0000 0.0000 0.0000 17.2557
#
#
#
# Elastic Compliance Matrix: (Units=1/GPa)
#
#
# Indices 1 2 3 4 5 6 
#
# 1 0.012176 -0.004434 -0.001594 0.000000 0.000000 0.000000
# 2 -0.004434 0.012176 -0.001592 0.000000 0.000000 0.000000
# 3 -0.001594 -0.001592 0.020321 0.000000 0.000000 0.000000
# 4 0.000000 0.000000 0.000000 0.051792 0.000000 0.000000
# 5 0.000000 0.000000 0.000000 0.000000 0.051791 0.000000
# 6 0.000000 0.000000 0.000000 0.000000 0.000000 0.057952
#
#
# Mechanical properties :
#
#
# Convention : Reuss Voigt Hill
#
# Bulk Modulus (GPa) = 33.97543 39.96081 36.96812
# Shear Modulus (GPa) = 21.62085 23.63897 22.62991
#
# Velocity S-wave (km/s) = 3.52700 3.68794 3.60837
# Velocity P-wave (km/s) = 6.01119 6.41298 6.21533
#
# Compressibility (1/GPa) = 0.02943303
#
# Stress axis : x y z
#
# Youngs Moduli (GPa) = 82.12643 82.13095 49.21009
#
# Poissons Ratio (x) = 0.36418 0.07842
# Poissons Ratio (y) = 0.36416 0.07836
# Poissons Ratio (z) = 0.13088 0.13078
#
# Static dielectric constant tensor:
#      x y z
#    x 3.485140 0.000000 0.000000 
#    y 0.000000 3.485140 0.000000 
#    z 0.000000 0.000000 2.378400 
# 
# 
# High freq. dielectric constant tensor:
#      x y z
#    x 1.668100 0.000000 0.000000 
#    y 0.000000 1.668100 0.000000 
#    z 0.000000 0.000000 1.649630 
# 
# From -- ./inp_files/6940.got.cif
#   From: 2010.03.12/outbox.cif.g09.slc.cpg/sg119_4_cif.got.tgz:6940.got - 2010.04.14 02:25:26.
