data_PCOD8310515
_publ_section_title
;
Structure prediction by ZEFSAII (Michael W. Deem and Ramdas Pophale) SiO2 
 PCOD8310515
Probable space group: P -4 N 2
;
_chemical_formula_sum "Si O2"
_cell_formula_units_Z 58
_cell_length_a 17.579185
_cell_length_b 17.579185
_cell_length_c 9.254192
_cell_angle_alpha 90.000000
_cell_angle_beta 90.000000
_cell_angle_gamma 90.000000
_cell_volume 2859.802088
_symmetry_space_group_name_H-M "P -4 N 2"
_symmetry_group_IT_number 118
_symmetry_cell_setting 'tetragonal'
loop_
_space_group_symop_operation_xyz
x,y,z
y,-x,-z
-x,-y,z
-y,x,-z
1/2+y,1/2+x,1/2-z
1/2-y,1/2-x,1/2-z
1/2-x,1/2+y,1/2+z
1/2+x,1/2-y,1/2+z
loop_
_atom_site_type_symbol
_atom_site_label
_atom_site_fract_x
_atom_site_fract_y
_atom_site_fract_z
Si Si1 0.453661 0.890038 0.481972
Si Si2 0.876243 0.248991 0.606408
Si Si3 0.432533 0.178784 0.674995
Si Si4 0.143564 0.766504 0.922334
Si Si5 0.500000 0.000000 0.250000
Si Si6 0.359537 0.746597 0.405437
Si Si7 0.147770 0.213614 0.590428
Si Si8 0.982375 0.697276 0.454261
O O1 0.517594 0.888631 0.605297
O O2 0.497592 0.923491 0.344178
O O3 0.427338 0.804354 0.443938
O O4 0.385046 0.943298 0.533843
O O5 0.895594 0.216422 0.767202
O O6 0.800363 0.297603 0.608151
O O7 0.861642 0.182729 0.485961
O O8 0.946870 0.301755 0.563613
O O9 0.356965 0.143036 0.750000
O O10 0.412113 0.240927 0.552892
O O11 0.486706 0.216413 0.794938
O O12 0.184495 0.845444 0.968931
O O13 0.281448 0.792527 0.396742
O O14 0.377780 0.700643 0.256864
O O15 0.076373 0.236704 0.492615
#
# Coordination Sequence:
#
# PCOD8310515 Si02
#       8
#     8   8   8   8   2   8   8   8
#     4  11  25  36  59  82 127 164 209 237 299 374
#     4  10  21  37  57  85 110 150 203 251 304 355
#     4  12  24  38  54  83 124 169 198 245 293 359
#     4  10  22  36  60  80 115 152 205 258 297 344
#     4  12  24  36  50  84 124 172 194 248 286 378
#     4   9  19  38  58  81 109 157 203 253 298 338
#     4   9  19  35  60  81 110 146 195 252 300 359
#     4  11  22  38  58  82 119 157 201 242 299 365
#
# _framework density 20.281124999999999
#
# number of rings (size 3 to 8) (size 9 to 14) (size 15 to 20)
#    0.000    1.655    1.379    3.724    7.724    0.552 
#    0.000    0.000    0.000    0.414    0.000    0.000 
#    0.000    0.552    0.000    0.000    0.000    0.000 
#
# Total GULP energy -718815.292001 kJ/mol
# GULP energy per Si atom -12393.367103 kJ/mol
# Density = 2.023496 g / cm^3
# Si number density = 20.281125 Si / 1000 Ang^3
#
#
#
# Elastic Constant Matrix: (Units=GPa)
#
#
# Indices 1 2 3 4 5 6 
#
# 1 53.5951 34.1098 37.7518 0.0000 0.0000 0.0000
# 2 34.1098 53.5950 37.7518 0.0000 0.0000 0.0000
# 3 37.7518 37.7518 162.0502 0.0000 0.0000 0.0000
# 4 0.0000 0.0000 0.0000 24.0051 0.0000 0.0000
# 5 0.0000 0.0000 0.0000 0.0000 24.0053 0.0000
# 6 0.0000 0.0000 0.0000 0.0000 0.0000 40.3445
#
#
#
# Elastic Compliance Matrix: (Units=1/GPa)
#
#
# Indices 1 2 3 4 5 6 
#
# 1 0.032791 -0.018529 -0.003323 0.000000 0.000000 0.000000
# 2 -0.018529 0.032792 -0.003323 0.000000 0.000000 0.000000
# 3 -0.003323 -0.003323 0.007719 0.000000 0.000000 0.000000
# 4 0.000000 0.000000 0.000000 0.041658 0.000000 0.000000
# 5 0.000000 0.000000 0.000000 0.000000 0.041657 0.000000
# 6 0.000000 0.000000 0.000000 0.000000 0.000000 0.024787
#
#
# Mechanical properties :
#
#
# Convention : Reuss Voigt Hill
#
# Bulk Modulus (GPa) = 43.56701 54.27411 48.92056
# Shear Modulus (GPa) = 20.88522 28.31278 24.59900
#
# Velocity S-wave (km/s) = 3.21251 3.74038 3.48645
# Velocity P-wave (km/s) = 5.94041 6.74336 6.35458
#
# Compressibility (1/GPa) = 0.02295315
#
# Stress axis : x y z
#
# Youngs Moduli (GPa) = 30.49575 30.49564 129.55035
#
# Poissons Ratio (x) = 0.56506 0.43044
# Poissons Ratio (y) = 0.56506 0.43044
# Poissons Ratio (z) = 0.10132 0.10132
#
# Static dielectric constant tensor:
#      x y z
#    x 3.492210 0.000000 0.000000 
#    y 0.000000 3.492210 0.000000 
#    z 0.000000 0.000000 4.309490 
# 
# 
# High freq. dielectric constant tensor:
#      x y z
#    x 1.755950 0.000000 0.000000 
#    y 0.000000 1.755950 0.000000 
#    z 0.000000 0.000000 1.819680 
# 
# From -- ./inp_files/2245.got.cif
#   From: 2010.03.12/outbox.cif.g09.slc.cpg/sg118_2_cif.got.tgz:2245.got - 2010.04.14 02:21:17.
