data_PCOD8310483
_publ_section_title
;
Structure prediction by ZEFSAII (Michael W. Deem and Ramdas Pophale) SiO2 
 PCOD8310483
Probable space group: P -4 N 2
;
_chemical_formula_sum "Si O2"
_cell_formula_units_Z 48
_cell_length_a 11.432338
_cell_length_b 11.432338
_cell_length_c 18.924138
_cell_angle_alpha 90.000000
_cell_angle_beta 90.000000
_cell_angle_gamma 90.000000
_cell_volume 2473.353652
_symmetry_space_group_name_H-M "P -4 N 2"
_symmetry_group_IT_number 118
_symmetry_cell_setting 'tetragonal'
loop_
_space_group_symop_operation_xyz
x,y,z
y,-x,-z
-x,-y,z
-y,x,-z
1/2+y,1/2+x,1/2-z
1/2-y,1/2-x,1/2-z
1/2-x,1/2+y,1/2+z
1/2+x,1/2-y,1/2+z
loop_
_atom_site_type_symbol
_atom_site_label
_atom_site_fract_x
_atom_site_fract_y
_atom_site_fract_z
Si Si1 0.866614 0.386076 0.462209
Si Si2 0.524511 0.177609 0.299676
Si Si3 0.169778 0.711370 0.615835
Si Si4 0.521488 0.363983 0.185264
Si Si5 0.650850 0.126067 0.552065
Si Si6 0.268688 0.809524 0.404900
O O1 0.872702 0.344601 0.543060
O O2 0.829820 0.520422 0.462174
O O3 0.763761 0.325190 0.418019
O O4 0.990559 0.357001 0.423740
O O5 0.570023 0.070023 0.250000
O O6 0.389542 0.164226 0.324033
O O7 0.534374 0.301765 0.260886
O O8 0.605928 0.180370 0.368260
O O9 0.082856 0.811933 0.639536
O O10 0.292892 0.781794 0.608073
O O11 0.500000 0.500000 0.197854
O O12 0.638426 0.337856 0.140946
O O13 0.726118 0.126548 0.480290
#
# Coordination Sequence:
#
# PCOD8310483 Si02
#       6
#     8   8   8   8   8   8
#     4  10  20  36  59  85 119 157 193 250 310 379
#     4  10  23  39  62  85 119 165 206 256 302 371
#     4  11  21  37  58  89 118 154 206 253 311 370
#     4  11  23  38  57  84 117 153 202 251 299 354
#     4  10  20  35  58  84 118 154 191 250 303 382
#     4  10  20  37  55  85 114 152 194 244 311 358
#
# _framework density 19.406849000000001
#
# number of rings (size 3 to 8) (size 9 to 14) (size 15 to 20)
#    0.000    1.667    3.333    1.500    0.000    6.000 
#    0.000    0.000    0.000    0.000    0.000   10.500 
#    0.000    0.000    0.000    0.000    0.000    0.000 
#
# Total GULP energy -594934.404554 kJ/mol
# GULP energy per Si atom -12394.466762 kJ/mol
# Density = 1.936268 g / cm^3
# Si number density = 19.406849 Si / 1000 Ang^3
#
#
#
# Elastic Constant Matrix: (Units=GPa)
#
#
# Indices 1 2 3 4 5 6 
#
# 1 99.3482 26.1080 28.5337 0.0000 0.0000 0.0000
# 2 26.1080 99.3482 28.5337 0.0000 0.0000 0.0000
# 3 28.5337 28.5337 67.7293 0.0000 0.0000 0.0000
# 4 0.0000 0.0000 0.0000 22.1058 0.0000 0.0000
# 5 0.0000 0.0000 0.0000 0.0000 22.1058 0.0000
# 6 0.0000 0.0000 0.0000 0.0000 0.0000 33.8131
#
#
#
# Elastic Compliance Matrix: (Units=1/GPa)
#
#
# Indices 1 2 3 4 5 6 
#
# 1 0.011757 -0.001897 -0.004154 0.000000 0.000000 0.000000
# 2 -0.001897 0.011757 -0.004154 0.000000 0.000000 0.000000
# 3 -0.004154 -0.004154 0.018265 0.000000 0.000000 0.000000
# 4 0.000000 0.000000 0.000000 0.045237 0.000000 0.000000
# 5 0.000000 0.000000 0.000000 0.000000 0.045237 0.000000
# 6 0.000000 0.000000 0.000000 0.000000 0.000000 0.029574
#
#
# Mechanical properties :
#
#
# Convention : Reuss Voigt Hill
#
# Bulk Modulus (GPa) = 46.79600 48.08629 47.44115
# Shear Modulus (GPa) = 26.40467 27.82162 27.11314
#
# Velocity S-wave (km/s) = 3.69261 3.79040 3.74182
# Velocity P-wave (km/s) = 6.50738 6.63234 6.57016
#
# Compressibility (1/GPa) = 0.02136935
#
# Stress axis : x y z
#
# Youngs Moduli (GPa) = 85.05482 85.05482 54.74987
#
# Poissons Ratio (x) = 0.16131 0.22744
# Poissons Ratio (y) = 0.16131 0.22744
# Poissons Ratio (z) = 0.35333 0.35333
#
# Static dielectric constant tensor:
#      x y z
#    x 3.607630 0.000000 0.000000 
#    y 0.000000 3.607630 0.000000 
#    z 0.000000 0.000000 3.449280 
# 
# 
# High freq. dielectric constant tensor:
#      x y z
#    x 1.757590 0.000000 0.000000 
#    y 0.000000 1.757590 0.000000 
#    z 0.000000 0.000000 1.743770 
# 
# From -- ./inp_files/4919.got.cif
#   From: 2010.03.12/outbox.cif.g09.slc.cpg/sg118_3_cif.got.tgz:4919.got - 2010.04.14 02:21:17.
