data_PCOD8310220
_publ_section_title
;
Structure prediction by ZEFSAII (Michael W. Deem and Ramdas Pophale) SiO2 
 PCOD8310220
Probable space group: P -4 C 2
;
_chemical_formula_sum "Si O2"
_cell_formula_units_Z 20
_cell_length_a 8.425086
_cell_length_b 8.425086
_cell_length_c 11.947324
_cell_angle_alpha 90.000000
_cell_angle_beta 90.000000
_cell_angle_gamma 90.000000
_cell_volume 848.045838
_symmetry_space_group_name_H-M "P -4 C 2"
_symmetry_group_IT_number 116
_symmetry_cell_setting 'tetragonal'
loop_
_space_group_symop_operation_xyz
x,y,z
y,-x,-z
-x,-y,z
-y,x,-z
y,x,1/2-z
-y,-x,1/2-z
-x,y,1/2+z
x,-y,1/2+z
loop_
_atom_site_type_symbol
_atom_site_label
_atom_site_fract_x
_atom_site_fract_y
_atom_site_fract_z
Si Si1 0.249604 0.750397 0.750000
Si Si2 0.867616 0.215009 0.974560
Si Si3 0.561076 0.324683 0.361371
O O1 0.109736 0.748654 0.841936
O O2 0.227032 0.594485 0.673060
O O3 0.758563 0.345581 0.037157
O O4 0.043295 0.215941 0.023025
O O5 0.500000 0.500000 0.396697
O O6 0.669859 0.330142 0.250000
#
# Coordination Sequence:
#
# PCOD8310220 Si02
#       3
#     4   8   8
#     4  10  25  45  70 108 140 204 247 297 376 426
#     4  11  27  47  74 109 155 193 245 308 383 446
#     4   9  23  46  73 100 149 191 252 306 355 436
#
# _framework density 23.583632999999999
#
# number of rings (size 3 to 8) (size 9 to 14) (size 15 to 20)
#    0.000    2.400    0.000    0.000   16.800    4.800 
#    7.200    0.000    0.000    0.000    0.000    0.000 
#    0.000    0.000    0.000    0.000    0.000    0.000 
#
# Total GULP energy -247832.650058 kJ/mol
# GULP energy per Si atom -12391.632503 kJ/mol
# Density = 2.352996 g / cm^3
# Si number density = 23.583633 Si / 1000 Ang^3
#
#
#
# Elastic Constant Matrix: (Units=GPa)
#
#
# Indices 1 2 3 4 5 6 
#
# 1 100.2402 56.1469 51.9122 0.0000 0.0000 0.0000
# 2 56.1469 100.2405 51.9128 0.0000 0.0000 0.0000
# 3 51.9122 51.9128 188.7967 0.0000 0.0000 0.0000
# 4 0.0000 0.0000 0.0000 25.8307 0.0000 0.0000
# 5 0.0000 0.0000 0.0000 0.0000 25.8297 0.0000
# 6 0.0000 0.0000 0.0000 0.0000 0.0000 40.4242
#
#
#
# Elastic Compliance Matrix: (Units=1/GPa)
#
#
# Indices 1 2 3 4 5 6 
#
# 1 0.015251 -0.007428 -0.002151 0.000000 0.000000 0.000000
# 2 -0.007428 0.015251 -0.002151 0.000000 0.000000 0.000000
# 3 -0.002151 -0.002151 0.006480 0.000000 0.000000 0.000000
# 4 0.000000 0.000000 0.000000 0.038714 0.000000 0.000000
# 5 0.000000 0.000000 0.000000 0.000000 0.038715 0.000000
# 6 0.000000 0.000000 0.000000 0.000000 0.000000 0.024738
#
#
# Mechanical properties :
#
#
# Convention : Reuss Voigt Hill
#
# Bulk Modulus (GPa) = 73.96050 78.80234 76.38142
# Shear Modulus (GPa) = 29.91961 33.70396 31.81178
#
# Velocity S-wave (km/s) = 3.56569 3.78448 3.67671
# Velocity P-wave (km/s) = 6.95566 7.25141 7.10507
#
# Compressibility (1/GPa) = 0.01352073
#
# Stress axis : x y z
#
# Youngs Moduli (GPa) = 65.57071 65.57068 154.33222
#
# Poissons Ratio (x) = 0.48708 0.33194
# Poissons Ratio (y) = 0.48708 0.33195
# Poissons Ratio (z) = 0.14103 0.14104
#
# Static dielectric constant tensor:
#      x y z
#    x 4.075820 0.000000 0.000000 
#    y 0.000000 4.075820 0.000000 
#    z 0.000000 0.000000 4.626980 
# 
# 
# High freq. dielectric constant tensor:
#      x y z
#    x 1.919610 0.000000 0.000000 
#    y 0.000000 1.919610 0.000000 
#    z 0.000000 0.000000 1.965260 
# 
# From -- ./inp_files/1223.got.cif
#   From: 2010.03.12/outbox.cif.g09.slc.cpg/sg116_1_cif.got.tgz:1223.got - 2010.04.14 02:15:44.
