data_PCOD8310105
_publ_section_title
;
Structure prediction by ZEFSAII (Michael W. Deem and Ramdas Pophale) SiO2 
 PCOD8310105
Probable space group: P -4 C 2
;
_chemical_formula_sum "Si O2"
_cell_formula_units_Z 48
_cell_length_a 15.813716
_cell_length_b 15.813716
_cell_length_c 11.418859
_cell_angle_alpha 90.000000
_cell_angle_beta 90.000000
_cell_angle_gamma 90.000000
_cell_volume 2855.555335
_symmetry_space_group_name_H-M "P -4 C 2"
_symmetry_group_IT_number 116
_symmetry_cell_setting 'tetragonal'
loop_
_space_group_symop_operation_xyz
x,y,z
y,-x,-z
-x,-y,z
-y,x,-z
y,x,1/2-z
-y,-x,1/2-z
-x,y,1/2+z
x,-y,1/2+z
loop_
_atom_site_type_symbol
_atom_site_label
_atom_site_fract_x
_atom_site_fract_y
_atom_site_fract_z
Si Si1 0.255289 0.376544 0.302565
Si Si2 0.638523 0.189791 0.089041
Si Si3 0.316995 0.447301 0.759154
Si Si4 0.386714 0.916401 0.316386
Si Si5 0.895769 0.584977 0.152144
Si Si6 0.234318 0.331061 0.563800
O O1 0.289561 0.289561 0.250000
O O2 0.313839 0.451793 0.248530
O O3 0.159028 0.387502 0.263699
O O4 0.259529 0.371811 0.441348
O O5 0.574533 0.267234 0.119823
O O6 0.637043 0.115546 0.185800
O O7 0.730249 0.235769 0.080041
O O8 0.613031 0.149073 0.966904
O O9 0.414107 0.414107 0.750000
O O10 0.266648 0.397579 0.659640
O O11 0.484772 0.903401 0.345859
O O12 0.329674 0.866750 0.412887
O O13 0.366887 0.015403 0.330696
#
# Coordination Sequence:
#
# PCOD8310105 Si02
#       6
#     8   8   8   8   8   8
#     4  12  22  33  51  76 107 138 179 229 274 300
#     4  10  19  37  52  74 108 138 183 211 262 327
#     4   9  20  34  53  69  96 146 190 219 250 309
#     4  10  22  33  57  75 107 143 176 216 270 332
#     4  11  22  33  50  84 105 137 173 228 270 317
#     4  10  20  36  55  73 104 146 176 218 265 318
#
# _framework density 16.809339999999999
#
# number of rings (size 3 to 8) (size 9 to 14) (size 15 to 20)
#    0.000    1.667    5.000    2.500    2.333    1.667 
#    0.000    0.000    0.000    2.000    0.000    0.000 
#    0.000    8.667    0.000    0.000    0.000    0.000 
#
# Total GULP energy -594918.624672 kJ/mol
# GULP energy per Si atom -12394.138014 kJ/mol
# Density = 1.677108 g / cm^3
# Si number density = 16.809340 Si / 1000 Ang^3
#
#
#
# Elastic Constant Matrix: (Units=GPa)
#
#
# Indices 1 2 3 4 5 6 
#
# 1 80.7319 49.8105 28.1875 0.0000 0.0000 0.0000
# 2 49.8105 80.7319 28.1875 0.0000 0.0000 0.0000
# 3 28.1875 28.1875 84.5932 0.0000 0.0000 0.0000
# 4 0.0000 0.0000 0.0000 19.1202 0.0000 0.0000
# 5 0.0000 0.0000 0.0000 0.0000 19.1202 0.0000
# 6 0.0000 0.0000 0.0000 0.0000 0.0000 21.7334
#
#
#
# Elastic Compliance Matrix: (Units=1/GPa)
#
#
# Indices 1 2 3 4 5 6 
#
# 1 0.020644 -0.011696 -0.002982 0.000000 0.000000 0.000000
# 2 -0.011696 0.020644 -0.002982 0.000000 0.000000 0.000000
# 3 -0.002982 -0.002982 0.013808 0.000000 0.000000 0.000000
# 4 0.000000 0.000000 0.000000 0.052301 0.000000 0.000000
# 5 0.000000 0.000000 0.000000 0.000000 0.052301 0.000000
# 6 0.000000 0.000000 0.000000 0.000000 0.000000 0.046012
#
#
# Mechanical properties :
#
#
# Convention : Reuss Voigt Hill
#
# Bulk Modulus (GPa) = 50.56148 50.93643 50.74895
# Shear Modulus (GPa) = 20.19216 21.31953 20.75585
#
# Velocity S-wave (km/s) = 3.46966 3.56520 3.51776
# Velocity P-wave (km/s) = 6.79677 6.87865 6.83783
#
# Compressibility (1/GPa) = 0.01977790
#
# Stress axis : x y z
#
# Youngs Moduli (GPa) = 48.44027 48.44027 72.42044
#
# Poissons Ratio (x) = 0.56656 0.21593
# Poissons Ratio (y) = 0.56656 0.21593
# Poissons Ratio (z) = 0.14443 0.14443
#
# Static dielectric constant tensor:
#      x y z
#    x 3.296730 0.000000 0.000000 
#    y 0.000000 3.296730 0.000000 
#    z 0.000000 0.000000 3.228910 
# 
# 
# High freq. dielectric constant tensor:
#      x y z
#    x 1.628270 0.000000 0.000000 
#    y 0.000000 1.628270 0.000000 
#    z 0.000000 0.000000 1.660070 
# 
# From -- ./inp_files/1920.got.cif
#   From: 2010.03.12/outbox.cif.g09.slc.cpg/sg116_1_cif.got.tgz:1920.got - 2010.04.14 02:15:44.
