data_PCOD8310416
_publ_section_title
;
Structure prediction by ZEFSAII (Michael W. Deem and Ramdas Pophale) SiO2 
 PCOD8310416
Probable space group: P -4 B 2
;
_chemical_formula_sum "Si O2"
_cell_formula_units_Z 20
_cell_length_a 9.148236
_cell_length_b 9.148236
_cell_length_c 10.146398
_cell_angle_alpha 90.000000
_cell_angle_beta 90.000000
_cell_angle_gamma 90.000000
_cell_volume 849.154300
_symmetry_space_group_name_H-M "P -4 B 2"
_symmetry_group_IT_number 117
_symmetry_cell_setting 'tetragonal'
loop_
_space_group_symop_operation_xyz
x,y,z
y,-x,-z
-x,-y,z
-y,x,-z
1/2+y,1/2+x,-z
1/2-y,1/2-x,-z
1/2-x,1/2+y,z
1/2+x,1/2-y,z
loop_
_atom_site_type_symbol
_atom_site_label
_atom_site_fract_x
_atom_site_fract_y
_atom_site_fract_z
Si Si1 0.325451 0.023333 0.326825
Si Si2 0.268875 0.768875 0.500000
Si Si3 0.787798 0.939484 0.047226
O O1 0.279094 0.185453 0.367792
O O2 0.244751 0.990486 0.189447
O O3 0.500000 0.000000 0.315696
O O4 0.254381 0.934265 0.448182
O O5 0.641415 0.858586 0.000000
O O6 0.925669 0.827312 0.050469
#
# Coordination Sequence:
#
# PCOD8310416 Si02
#       3
#     8   4   8
#     4  12  27  49  76 109 155 193 253 312 379 455
#     4  12  24  50  76 110 146 202 242 316 378 442
#     4  11  28  49  75 112 150 203 254 313 383 449
#
# _framework density 23.552848000000001
#
# number of rings (size 3 to 8) (size 9 to 14) (size 15 to 20)
#    0.000    0.400    4.000    2.400   11.200    7.200 
#    0.000    0.000    0.000    0.000    0.000    0.000 
#    0.000    0.000    0.000    0.000    0.000    0.000 
#
# Total GULP energy -247860.994492 kJ/mol
# GULP energy per Si atom -12393.049725 kJ/mol
# Density = 2.349924 g / cm^3
# Si number density = 23.552848 Si / 1000 Ang^3
#
#
#
# Elastic Constant Matrix: (Units=GPa)
#
#
# Indices 1 2 3 4 5 6 
#
# 1 86.6592 57.3378 54.3891 0.0000 0.0000 0.0000
# 2 57.3378 86.6562 54.3899 0.0000 0.0000 0.0000
# 3 54.3891 54.3899 130.7674 0.0000 0.0000 0.0000
# 4 0.0000 0.0000 0.0000 45.6378 0.0000 0.0000
# 5 0.0000 0.0000 0.0000 0.0000 45.6377 0.0000
# 6 0.0000 0.0000 0.0000 0.0000 0.0000 43.2451
#
#
#
# Elastic Compliance Matrix: (Units=1/GPa)
#
#
# Indices 1 2 3 4 5 6 
#
# 1 0.022116 -0.011990 -0.004211 0.000000 0.000000 0.000000
# 2 -0.011990 0.022117 -0.004212 0.000000 0.000000 0.000000
# 3 -0.004211 -0.004212 0.011151 0.000000 0.000000 0.000000
# 4 0.000000 0.000000 0.000000 0.021912 0.000000 0.000000
# 5 0.000000 0.000000 0.000000 0.000000 0.021912 0.000000
# 6 0.000000 0.000000 0.000000 0.000000 0.000000 0.023124
#
#
# Mechanical properties :
#
#
# Convention : Reuss Voigt Hill
#
# Bulk Modulus (GPa) = 68.69889 70.70185 69.70037
# Shear Modulus (GPa) = 29.76000 36.10184 32.93092
#
# Velocity S-wave (km/s) = 3.55849 3.91935 3.74327
# Velocity P-wave (km/s) = 6.79081 7.11093 6.95271
#
# Compressibility (1/GPa) = 0.01455628
#
# Stress axis : x y z
#
# Youngs Moduli (GPa) = 45.21640 45.21386 89.67975
#
# Poissons Ratio (x) = 0.54212 0.37768
# Poissons Ratio (y) = 0.54215 0.37775
# Poissons Ratio (z) = 0.19043 0.19045
#
# Static dielectric constant tensor:
#      x y z
#    x 4.255910 0.000000 0.000000 
#    y 0.000000 4.255910 0.000000 
#    z 0.000000 0.000000 4.157350 
# 
# 
# High freq. dielectric constant tensor:
#      x y z
#    x 1.939000 0.000000 0.000000 
#    y 0.000000 1.939000 0.000000 
#    z 0.000000 0.000000 1.933820 
# 
# From -- ./inp_files/2223.got.cif
#   From: 2010.03.12/outbox.cif.g09.slc.cpg/sg117_2_cif.got.tgz:2223.got - 2010.04.14 02:19:01.
