data_PCOD8310134
_publ_section_title
;
Structure prediction by ZEFSAII (Michael W. Deem and Ramdas Pophale) SiO2 
 PCOD8310134
Probable space group: P -4 C 2
;
_chemical_formula_sum "Si O2"
_cell_formula_units_Z 48
_cell_length_a 12.161090
_cell_length_b 12.161090
_cell_length_c 17.778344
_cell_angle_alpha 90.000000
_cell_angle_beta 90.000000
_cell_angle_gamma 90.000000
_cell_volume 2629.276806
_symmetry_space_group_name_H-M "P -4 C 2"
_symmetry_group_IT_number 116
_symmetry_cell_setting 'tetragonal'
loop_
_space_group_symop_operation_xyz
x,y,z
y,-x,-z
-x,-y,z
-y,x,-z
y,x,1/2-z
-y,-x,1/2-z
-x,y,1/2+z
x,-y,1/2+z
loop_
_atom_site_type_symbol
_atom_site_label
_atom_site_fract_x
_atom_site_fract_y
_atom_site_fract_z
Si Si1 0.215828 0.999009 0.935308
Si Si2 0.378737 0.002221 0.307389
Si Si3 0.777397 0.618876 0.282502
Si Si4 0.778551 0.097300 0.088476
Si Si5 0.205289 0.363293 0.796455
Si Si6 0.817490 0.116510 0.666171
O O1 0.311186 0.032067 0.879205
O O2 0.146313 0.900792 0.899593
O O3 0.141927 0.106654 0.943311
O O4 0.270403 0.964411 0.015128
O O5 0.355590 0.125652 0.278316
O O6 0.500000 0.000000 0.338101
O O7 0.358033 0.912086 0.243525
O O8 0.659564 0.659564 0.250000
O O9 0.764736 0.492548 0.308073
O O10 0.814090 0.703676 0.348525
O O11 0.695719 0.190694 0.121911
O O12 0.796218 0.013249 0.157444
O O13 0.301675 0.301675 0.750000
O O14 0.865956 0.134045 0.750000
#
# Coordination Sequence:
#
# PCOD8310134 Si02
#       6
#     8   8   8   8   8   8
#     4  12  22  38  53  84 127 155 186 237 300 359
#     4  10  20  37  59  82 110 153 194 237 293 355
#     4  10  20  38  63  87 111 149 206 248 289 350
#     4  12  24  35  53  91 125 154 190 240 296 369
#     4  11  22  38  62  87 117 150 205 254 297 353
#     4  11  21  36  58  82 113 162 192 235 296 362
#
# _framework density 18.255970000000001
#
# number of rings (size 3 to 8) (size 9 to 14) (size 15 to 20)
#    0.000    1.000    8.333    0.500    0.000    1.000 
#    3.000    0.000    0.000    0.000    0.000    0.000 
#    0.000    0.000    0.000    0.000    0.000    0.000 
#
# Total GULP energy -594727.287741 kJ/mol
# GULP energy per Si atom -12390.151828 kJ/mol
# Density = 1.821442 g / cm^3
# Si number density = 18.255970 Si / 1000 Ang^3
#
#
#
# Elastic Constant Matrix: (Units=GPa)
#
#
# Indices 1 2 3 4 5 6 
#
# 1 99.1933 25.9475 24.2991 0.0000 0.0000 0.0000
# 2 25.9475 99.1934 24.2990 0.0000 0.0000 0.0000
# 3 24.2991 24.2990 62.7062 0.0000 0.0000 0.0000
# 4 0.0000 0.0000 0.0000 9.0431 0.0000 0.0000
# 5 0.0000 0.0000 0.0000 0.0000 9.0431 0.0000
# 6 0.0000 0.0000 0.0000 0.0000 0.0000 24.2712
#
#
#
# Elastic Compliance Matrix: (Units=1/GPa)
#
#
# Indices 1 2 3 4 5 6 
#
# 1 0.011530 -0.002123 -0.003645 0.000000 0.000000 0.000000
# 2 -0.002123 0.011530 -0.003645 0.000000 0.000000 0.000000
# 3 -0.003645 -0.003645 0.018772 0.000000 0.000000 0.000000
# 4 0.000000 0.000000 0.000000 0.110582 0.000000 0.000000
# 5 0.000000 0.000000 0.000000 0.000000 0.110582 0.000000
# 6 0.000000 0.000000 0.000000 0.000000 0.000000 0.041201
#
#
# Mechanical properties :
#
#
# Convention : Reuss Voigt Hill
#
# Bulk Modulus (GPa) = 43.46863 45.57602 44.52232
# Shear Modulus (GPa) = 15.11985 20.90795 18.01390
#
# Velocity S-wave (km/s) = 2.88099 3.38785 3.14465
# Velocity P-wave (km/s) = 5.91009 6.35000 6.13399
#
# Compressibility (1/GPa) = 0.02300510
#
# Stress axis : x y z
#
# Youngs Moduli (GPa) = 86.73308 86.73331 53.26972
#
# Poissons Ratio (x) = 0.18414 0.19417
# Poissons Ratio (y) = 0.18414 0.19417
# Poissons Ratio (z) = 0.31615 0.31615
#
# Static dielectric constant tensor:
#      x y z
#    x 3.490840 0.000000 0.000000 
#    y 0.000000 3.490850 0.000000 
#    z 0.000000 0.000000 3.180840 
# 
# 
# High freq. dielectric constant tensor:
#      x y z
#    x 1.706010 0.000000 0.000000 
#    y 0.000000 1.706010 0.000000 
#    z 0.000000 0.000000 1.689610 
# 
# From -- ./inp_files/3374.got.cif
#   From: 2010.03.12/outbox.cif.g09.slc.cpg/sg116_2_cif.got.tgz:3374.got - 2010.04.14 02:15:44.
