data_PCOD8310697
_publ_section_title
;
Structure prediction by ZEFSAII (Michael W. Deem and Ramdas Pophale) SiO2 
 PCOD8310697
Probable space group: I -4 M 2
;
_chemical_formula_sum "Si O2"
_cell_formula_units_Z 96
_cell_length_a 27.260106
_cell_length_b 27.260106
_cell_length_c 9.203478
_cell_angle_alpha 90.000000
_cell_angle_beta 90.000000
_cell_angle_gamma 90.000000
_cell_volume 6839.227636
_symmetry_space_group_name_H-M "I -4 M 2"
_symmetry_group_IT_number 119
_symmetry_cell_setting 'tetragonal'
loop_
_space_group_symop_operation_xyz
x,y,z
y,-x,-z
-x,-y,z
-y,x,-z
y,x,-z
-y,-x,-z
-x,y,z
x,-y,z
1/2+x,1/2+y,1/2+z
1/2+y,1/2-x,1/2-z
1/2-x,1/2-y,1/2+z
1/2-y,1/2+x,1/2-z
1/2+y,1/2+x,1/2-z
1/2-y,1/2-x,1/2-z
1/2-x,1/2+y,1/2+z
1/2+x,1/2-y,1/2+z
loop_
_atom_site_type_symbol
_atom_site_label
_atom_site_fract_x
_atom_site_fract_y
_atom_site_fract_z
Si Si1 0.151334 0.732676 0.215426
Si Si2 0.322493 0.877057 0.042482
Si Si3 0.887391 0.711430 0.648357
Si Si4 0.230737 0.203299 0.339826
Si Si5 0.124752 0.554151 0.316777
Si Si6 0.445631 0.783648 0.878879
O O1 0.182337 0.682337 0.250000
O O2 0.183244 0.781083 0.246114
O O3 0.101045 0.742265 0.304068
O O4 0.137238 0.726972 0.046210
O O5 0.305692 0.903125 0.191322
O O6 0.353338 0.828327 0.069290
O O7 0.354877 0.914773 0.950911
O O8 0.855484 0.762207 0.651393
O O9 0.936370 0.717930 0.552846
O O10 0.227394 0.227394 0.500000
O O11 0.277986 0.222015 0.250000
O O12 0.114406 0.500000 0.377174
O O13 0.074913 0.574913 0.250000
O O14 0.161527 0.553414 0.181205
O O15 0.500000 0.759552 0.850092
#
# Coordination Sequence:
#
# PCOD8310697 Si02
#       6
#    16  16  16  16  16  16
#     4  10  17  29  42  60  88 107 133 175 208 252
#     4  10  18  29  43  59  88 104 131 166 213 260
#     4  11  18  28  42  65  83 110 135 164 206 267
#     4  11  19  25  41  64  89 110 133 160 214 256
#     4  10  19  32  48  61  75 102 137 184 233 268
#     4  10  18  30  45  58  77 110 143 172 208 248
#
# _framework density 14.036673
#
# number of rings (size 3 to 8) (size 9 to 14) (size 15 to 20)
#    0.000    1.667    6.667    2.000    0.000    0.833 
#    0.000    0.000    0.000    0.000    0.000    0.000 
#    0.000    0.000    0.000    0.000    0.000    6.667 
#
# Total GULP energy -594700.880167 kJ/mol
# GULP energy per Si atom -12389.601670 kJ/mol
# Density = 1.400472 g / cm^3
# Si number density = 14.036673 Si / 1000 Ang^3
#
#
#
# Elastic Constant Matrix: (Units=GPa)
#
#
# Indices 1 2 3 4 5 6 
#
# 1 55.3333 40.5242 23.3779 0.0000 0.0000 0.0000
# 2 40.5242 55.3334 23.3769 0.0000 0.0000 0.0000
# 3 23.3779 23.3769 92.4837 0.0000 0.0000 0.0000
# 4 0.0000 0.0000 0.0000 14.0726 0.0000 0.0000
# 5 0.0000 0.0000 0.0000 0.0000 14.0725 0.0000
# 6 0.0000 0.0000 0.0000 0.0000 0.0000 14.4154
#
#
#
# Elastic Compliance Matrix: (Units=1/GPa)
#
#
# Indices 1 2 3 4 5 6 
#
# 1 0.039713 -0.027813 -0.003008 0.000000 0.000000 0.000000
# 2 -0.027813 0.039712 -0.003007 0.000000 0.000000 0.000000
# 3 -0.003008 -0.003007 0.012333 0.000000 0.000000 0.000000
# 4 0.000000 0.000000 0.000000 0.071060 0.000000 0.000000
# 5 0.000000 0.000000 0.000000 0.000000 0.071060 0.000000
# 6 0.000000 0.000000 0.000000 0.000000 0.000000 0.069370
#
#
# Mechanical properties :
#
#
# Convention : Reuss Voigt Hill
#
# Bulk Modulus (GPa) = 41.49289 41.96760 41.73025
# Shear Modulus (GPa) = 13.19469 16.23685 14.71577
#
# Velocity S-wave (km/s) = 3.06929 3.40478 3.24138
# Velocity P-wave (km/s) = 6.49502 6.73945 6.61836
#
# Compressibility (1/GPa) = 0.02410051
#
# Stress axis : x y z
#
# Youngs Moduli (GPa) = 25.18088 25.18119 81.08123
#
# Poissons Ratio (x) = 0.70037 0.24391
# Poissons Ratio (y) = 0.70036 0.24384
# Poissons Ratio (z) = 0.07575 0.07573
#
# Static dielectric constant tensor:
#      x y z
#    x 2.719360 0.000000 0.000000 
#    y 0.000000 2.719360 0.000000 
#    z 0.000000 0.000000 3.035380 
# 
# 
# High freq. dielectric constant tensor:
#      x y z
#    x 1.500950 0.000000 0.000000 
#    y 0.000000 1.500950 0.000000 
#    z 0.000000 0.000000 1.554900 
# 
# From -- ./inp_files/2781.got.cif
#   From: 2010.03.12/outbox.cif.g09.slc.cpg/sg119_2_cif.got.tgz:2781.got - 2010.04.14 02:25:26.
