data_PCOD8310591
_publ_section_title
;
Structure prediction by ZEFSAII (Michael W. Deem and Ramdas Pophale) SiO2 
 PCOD8310591
Probable space group: P -4 N 2
;
_chemical_formula_sum "Si O2"
_cell_formula_units_Z 40
_cell_length_a 9.158169
_cell_length_b 9.158169
_cell_length_c 21.995010
_cell_angle_alpha 90.000000
_cell_angle_beta 90.000000
_cell_angle_gamma 90.000000
_cell_volume 1844.766786
_symmetry_space_group_name_H-M "P -4 N 2"
_symmetry_group_IT_number 118
_symmetry_cell_setting 'tetragonal'
loop_
_space_group_symop_operation_xyz
x,y,z
y,-x,-z
-x,-y,z
-y,x,-z
1/2+y,1/2+x,1/2-z
1/2-y,1/2-x,1/2-z
1/2-x,1/2+y,1/2+z
1/2+x,1/2-y,1/2+z
loop_
_atom_site_type_symbol
_atom_site_label
_atom_site_fract_x
_atom_site_fract_y
_atom_site_fract_z
Si Si1 0.694571 0.411470 0.770574
Si Si2 0.484010 0.335711 0.094194
Si Si3 0.418555 0.149659 0.478511
Si Si4 0.905500 0.201828 0.219921
Si Si5 0.211159 0.819081 0.088037
O O1 0.851686 0.351686 0.750000
O O2 0.664408 0.398048 0.842128
O O3 0.691375 0.579893 0.753133
O O4 0.575324 0.317717 0.733988
O O5 0.500000 0.500000 0.068711
O O6 0.385666 0.240282 0.048901
O O7 0.644558 0.272077 0.101809
O O8 0.516754 0.242226 0.431100
O O9 0.391664 0.246904 0.537461
O O10 0.500000 0.000000 0.496999
O O11 0.854487 0.354487 0.250000
O O12 0.886754 0.183962 0.148019
#
# Coordination Sequence:
#
# PCOD8310591 Si02
#       5
#     8   8   8   8   8
#     4  11  23  40  66 100 130 174 228 275 343 410
#     4  11  22  43  69  99 133 180 238 286 339 420
#     4  10  26  43  69 106 131 187 232 285 361 404
#     4  11  22  44  64  96 134 177 218 277 347 403
#     4  11  24  45  67  96 146 176 232 290 345 424
#
# _framework density 21.682960000000001
#
# number of rings (size 3 to 8) (size 9 to 14) (size 15 to 20)
#    0.000    1.200    4.000    1.200    5.600    6.000 
#    3.600    0.000    0.000    0.000    0.000    0.000 
#    0.000    0.000    0.000    0.000    0.000    0.000 
#
# Total GULP energy -496149.059179 kJ/mol
# GULP energy per Si atom -12403.726479 kJ/mol
# Density = 2.163361 g / cm^3
# Si number density = 21.682960 Si / 1000 Ang^3
#
#
#
# Elastic Constant Matrix: (Units=GPa)
#
#
# Indices 1 2 3 4 5 6 
#
# 1 79.1933 22.2286 34.2283 0.0000 0.0000 0.0000
# 2 22.2286 79.1933 34.2283 0.0000 0.0000 0.0000
# 3 34.2283 34.2283 110.1984 0.0000 0.0000 0.0000
# 4 0.0000 0.0000 0.0000 27.0362 0.0000 0.0000
# 5 0.0000 0.0000 0.0000 0.0000 27.0362 0.0000
# 6 0.0000 0.0000 0.0000 0.0000 0.0000 36.2066
#
#
#
# Elastic Compliance Matrix: (Units=1/GPa)
#
#
# Indices 1 2 3 4 5 6 
#
# 1 0.015015 -0.002540 -0.003875 0.000000 0.000000 0.000000
# 2 -0.002540 0.015015 -0.003875 0.000000 0.000000 0.000000
# 3 -0.003875 -0.003875 0.011482 0.000000 0.000000 0.000000
# 4 0.000000 0.000000 0.000000 0.036987 0.000000 0.000000
# 5 0.000000 0.000000 0.000000 0.000000 0.036987 0.000000
# 6 0.000000 0.000000 0.000000 0.000000 0.000000 0.027619
#
#
# Mechanical properties :
#
#
# Convention : Reuss Voigt Hill
#
# Bulk Modulus (GPa) = 47.77238 49.99505 48.88371
# Shear Modulus (GPa) = 29.29762 29.91579 29.60670
#
# Velocity S-wave (km/s) = 3.67983 3.71845 3.69919
# Velocity P-wave (km/s) = 6.33521 6.44540 6.39054
#
# Compressibility (1/GPa) = 0.02093260
#
# Stress axis : x y z
#
# Youngs Moduli (GPa) = 66.60012 66.60012 87.09535
#
# Poissons Ratio (x) = 0.16915 0.33748
# Poissons Ratio (y) = 0.16915 0.33748
# Poissons Ratio (z) = 0.25807 0.25807
#
# Static dielectric constant tensor:
#      x y z
#    x 3.869900 0.000000 0.000000 
#    y 0.000000 3.869900 0.000000 
#    z 0.000000 0.000000 3.962260 
# 
# 
# High freq. dielectric constant tensor:
#      x y z
#    x 1.852690 0.000000 0.000000 
#    y 0.000000 1.852690 0.000000 
#    z 0.000000 0.000000 1.859970 
# 
# From -- ./inp_files/5988.got.cif
#   From: 2010.03.12/outbox.cif.g09.slc.cpg/sg118_3_cif.got.tgz:5988.got - 2010.04.14 02:21:17.
