data_PCOD8310960
_publ_section_title
;
Structure prediction by ZEFSAII (Michael W. Deem and Ramdas Pophale) SiO2 
 PCOD8310960
Probable space group: I -4 M 2
;
_chemical_formula_sum "Si O2"
_cell_formula_units_Z 96
_cell_length_a 22.302785
_cell_length_b 22.302785
_cell_length_c 10.022865
_cell_angle_alpha 90.000000
_cell_angle_beta 90.000000
_cell_angle_gamma 90.000000
_cell_volume 4985.515564
_symmetry_space_group_name_H-M "I -4 M 2"
_symmetry_group_IT_number 119
_symmetry_cell_setting 'tetragonal'
loop_
_space_group_symop_operation_xyz
x,y,z
y,-x,-z
-x,-y,z
-y,x,-z
y,x,-z
-y,-x,-z
-x,y,z
x,-y,z
1/2+x,1/2+y,1/2+z
1/2+y,1/2-x,1/2-z
1/2-x,1/2-y,1/2+z
1/2-y,1/2+x,1/2-z
1/2+y,1/2+x,1/2-z
1/2-y,1/2-x,1/2-z
1/2-x,1/2+y,1/2+z
1/2+x,1/2-y,1/2+z
loop_
_atom_site_type_symbol
_atom_site_label
_atom_site_fract_x
_atom_site_fract_y
_atom_site_fract_z
Si Si1 0.273509 0.372339 0.014307
Si Si2 0.766965 0.931452 0.980637
Si Si3 0.432369 0.929197 0.398850
Si Si4 0.070369 0.819481 0.738531
Si Si5 0.848541 0.932122 0.733013
Si Si6 0.349726 0.859495 0.904772
O O1 0.296049 0.417508 0.128420
O O2 0.209078 0.346991 0.051635
O O3 0.314665 0.314665 0.000000
O O4 0.273303 0.408466 0.875326
O O5 0.790653 0.908408 0.122835
O O6 0.743527 0.000000 0.988660
O O7 0.822561 0.926318 0.880953
O O8 0.714126 0.888770 0.933010
O O9 0.500000 0.906136 0.421278
O O10 0.410594 0.910594 0.250000
O O11 0.390684 0.901347 0.510552
O O12 0.429341 0.000000 0.413740
O O13 0.097253 0.885709 0.715117
O O14 0.000000 0.828200 0.734499
O O15 0.871851 0.000000 0.707436
O O16 0.366240 0.866240 0.750000
#
# Coordination Sequence:
#
# PCOD8310960 Si02
#       6
#    16  16  16  16  16  16
#     4  10  23  41  58  85 120 158 197 246 296 346
#     4  10  22  39  59  87 123 156 196 250 299 347
#     4   9  21  41  62  88 123 156 192 245 297 344
#     4  10  22  39  61  90 121 157 200 244 297 359
#     4  10  20  39  63  87 122 159 194 246 303 349
#     4  12  24  40  61  90 115 159 207 242 292 360
#
# _framework density 19.255783000000001
#
# number of rings (size 3 to 8) (size 9 to 14) (size 15 to 20)
#    0.000    1.833    1.667    2.000    2.333    4.333 
#    0.000    0.833    0.000    6.000    0.000    0.000 
#    0.000    0.000    0.000    0.000    0.000    0.000 
#
# Total GULP energy -595341.042524 kJ/mol
# GULP energy per Si atom -12402.938386 kJ/mol
# Density = 1.921196 g / cm^3
# Si number density = 19.255783 Si / 1000 Ang^3
#
#
#
# Elastic Constant Matrix: (Units=GPa)
#
#
# Indices 1 2 3 4 5 6 
#
# 1 81.0107 36.3172 41.9060 0.0000 0.0000 0.0000
# 2 36.3172 81.0107 41.9060 0.0000 0.0000 0.0000
# 3 41.9060 41.9060 141.0581 0.0000 0.0000 0.0000
# 4 0.0000 0.0000 0.0000 31.8472 0.0000 0.0000
# 5 0.0000 0.0000 0.0000 0.0000 31.8472 0.0000
# 6 0.0000 0.0000 0.0000 0.0000 0.0000 26.4262
#
#
#
# Elastic Compliance Matrix: (Units=1/GPa)
#
#
# Indices 1 2 3 4 5 6 
#
# 1 0.016597 -0.005778 -0.003214 0.000000 0.000000 0.000000
# 2 -0.005778 0.016597 -0.003214 0.000000 0.000000 0.000000
# 3 -0.003214 -0.003214 0.008999 0.000000 0.000000 0.000000
# 4 0.000000 0.000000 0.000000 0.031400 0.000000 0.000000
# 5 0.000000 0.000000 0.000000 0.000000 0.031400 0.000000
# 6 0.000000 0.000000 0.000000 0.000000 0.000000 0.037841
#
#
# Mechanical properties :
#
#
# Convention : Reuss Voigt Hill
#
# Bulk Modulus (GPa) = 56.24112 60.37088 58.30600
# Shear Modulus (GPa) = 28.87289 30.22083 29.54686
#
# Velocity S-wave (km/s) = 3.87646 3.96592 3.92144
# Velocity P-wave (km/s) = 7.02188 7.23819 7.13086
#
# Compressibility (1/GPa) = 0.01778058
#
# Stress axis : x y z
#
# Youngs Moduli (GPa) = 60.25233 60.25233 111.12291
#
# Poissons Ratio (x) = 0.34812 0.35717
# Poissons Ratio (y) = 0.34812 0.35717
# Poissons Ratio (z) = 0.19366 0.19366
#
# Static dielectric constant tensor:
#      x y z
#    x 3.475000 0.000000 0.000000 
#    y 0.000000 3.475000 0.000000 
#    z 0.000000 0.000000 4.049190 
# 
# 
# High freq. dielectric constant tensor:
#      x y z
#    x 1.747480 0.000000 0.000000 
#    y 0.000000 1.747480 0.000000 
#    z 0.000000 0.000000 1.769510 
# 
# From -- ./inp_files/2659.got.cif
#   From: 2010.03.12/outbox.cif.g09.slc.cpg/sg119_2_cif.got.tgz:2659.got - 2010.04.14 02:25:26.
