data_PCOD8310094
_publ_section_title
;
Structure prediction by ZEFSAII (Michael W. Deem and Ramdas Pophale) SiO2 
 PCOD8310094
Probable space group: P -4 C 2
;
_chemical_formula_sum "Si O2"
_cell_formula_units_Z 64
_cell_length_a 17.597816
_cell_length_b 17.597816
_cell_length_c 12.443371
_cell_angle_alpha 90.000000
_cell_angle_beta 90.000000
_cell_angle_gamma 90.000000
_cell_volume 3853.502054
_symmetry_space_group_name_H-M "P -4 C 2"
_symmetry_group_IT_number 116
_symmetry_cell_setting 'tetragonal'
loop_
_space_group_symop_operation_xyz
x,y,z
y,-x,-z
-x,-y,z
-y,x,-z
y,x,1/2-z
-y,-x,1/2-z
-x,y,1/2+z
x,-y,1/2+z
loop_
_atom_site_type_symbol
_atom_site_label
_atom_site_fract_x
_atom_site_fract_y
_atom_site_fract_z
Si Si1 0.326240 0.442475 0.390911
Si Si2 0.554848 0.680006 0.445024
Si Si3 0.088754 0.577335 0.809818
Si Si4 0.849164 0.566609 0.078026
Si Si5 0.822798 0.602530 0.507772
Si Si6 0.796242 0.677247 0.723970
Si Si7 0.086232 0.592273 0.356385
Si Si8 0.555187 0.328325 0.274513
O O1 0.397156 0.387162 0.395062
O O2 0.340007 0.530496 0.433075
O O3 0.255357 0.402404 0.443771
O O4 0.312943 0.468141 0.268084
O O5 0.595569 0.762175 0.436737
O O6 0.466673 0.681153 0.399675
O O7 0.118983 0.598743 0.691080
O O8 0.120144 0.626125 0.911064
O O9 0.118313 0.491087 0.827613
O O10 0.999546 0.591811 0.815047
O O11 0.850007 0.474502 0.069003
O O12 0.902653 0.602738 0.984928
O O13 0.816891 0.669085 0.597274
O O14 0.760936 0.760936 0.750000
O O15 0.870718 0.660694 0.795312
O O16 0.734868 0.615048 0.761298
O O17 0.587946 0.412055 0.250000
#
# Coordination Sequence:
#
# PCOD8310094 Si02
#       8
#     8   8   8   8   8   8   8   8
#     4  11  22  31  47  61  90 118 174 210 269 301
#     4  11  21  33  45  64  84 127 160 221 255 309
#     4  10  20  33  53  74  99 126 158 224 268 311
#     4  10  19  34  50  67  99 123 164 212 269 318
#     4  10  20  34  49  70  93 128 164 209 260 320
#     4  11  21  35  54  70  99 135 174 211 252 317
#     4  10  21  31  53  76  96 126 165 210 270 317
#     4  11  21  33  45  61  85 122 164 219 267 301
#
# _framework density 16.608269
#
# number of rings (size 3 to 8) (size 9 to 14) (size 15 to 20)
#    0.000    1.500    3.750    4.125    5.250    3.250 
#    0.000    0.000    0.000    0.000    0.000    0.000 
#    0.000    0.000    0.000    0.000    0.000    9.375 
#
# Total GULP energy -792923.776592 kJ/mol
# GULP energy per Si atom -12389.434009 kJ/mol
# Density = 1.657047 g / cm^3
# Si number density = 16.608269 Si / 1000 Ang^3
#
#
#
# Elastic Constant Matrix: (Units=GPa)
#
#
# Indices 1 2 3 4 5 6 
#
# 1 51.5600 23.7928 32.0972 0.0000 0.0000 0.0000
# 2 23.7928 51.5595 32.0971 0.0000 0.0000 0.0000
# 3 32.0972 32.0971 97.3038 0.0000 0.0000 0.0000
# 4 0.0000 0.0000 0.0000 20.3208 0.0000 0.0000
# 5 0.0000 0.0000 0.0000 0.0000 20.3212 0.0000
# 6 0.0000 0.0000 0.0000 0.0000 0.0000 14.9276
#
#
#
# Elastic Compliance Matrix: (Units=1/GPa)
#
#
# Indices 1 2 3 4 5 6 
#
# 1 0.027236 -0.008778 -0.006089 0.000000 0.000000 0.000000
# 2 -0.008778 0.027236 -0.006089 0.000000 0.000000 0.000000
# 3 -0.006089 -0.006089 0.014294 0.000000 0.000000 0.000000
# 4 0.000000 0.000000 0.000000 0.049211 0.000000 0.000000
# 5 0.000000 0.000000 0.000000 0.000000 0.049210 0.000000
# 6 0.000000 0.000000 0.000000 0.000000 0.000000 0.066990
#
#
# Mechanical properties :
#
#
# Convention : Reuss Voigt Hill
#
# Bulk Modulus (GPa) = 37.23653 41.82194 39.52923
# Shear Modulus (GPa) = 17.54148 18.60967 18.07557
#
# Velocity S-wave (km/s) = 3.25343 3.35103 3.30259
# Velocity P-wave (km/s) = 6.04833 6.34102 6.19640
#
# Compressibility (1/GPa) = 0.02685535
#
# Stress axis : x y z
#
# Youngs Moduli (GPa) = 36.71636 36.71589 69.95963
#
# Poissons Ratio (x) = 0.32229 0.42596
# Poissons Ratio (y) = 0.32230 0.42596
# Poissons Ratio (z) = 0.22355 0.22355
#
# Static dielectric constant tensor:
#      x y z
#    x 2.833280 0.000000 0.000000 
#    y 0.000000 2.833280 0.000000 
#    z 0.000000 0.000000 3.499890 
# 
# 
# High freq. dielectric constant tensor:
#      x y z
#    x 1.592850 0.000000 0.000000 
#    y 0.000000 1.592850 0.000000 
#    z 0.000000 0.000000 1.677600 
# 
# From -- ./inp_files/2094.got.cif
#   From: 2010.03.12/outbox.cif.g09.slc.cpg/sg116_2_cif.got.tgz:2094.got - 2010.04.14 02:15:44.
