data_PCOD8310795
_publ_section_title
;
Structure prediction by ZEFSAII (Michael W. Deem and Ramdas Pophale) SiO2 
 PCOD8310795
Probable space group: I -4 M 2
;
_chemical_formula_sum "Si O2"
_cell_formula_units_Z 112
_cell_length_a 14.319292
_cell_length_b 14.319292
_cell_length_c 30.185509
_cell_angle_alpha 90.000000
_cell_angle_beta 90.000000
_cell_angle_gamma 90.000000
_cell_volume 6189.300861
_symmetry_space_group_name_H-M "I -4 M 2"
_symmetry_group_IT_number 119
_symmetry_cell_setting 'tetragonal'
loop_
_space_group_symop_operation_xyz
x,y,z
y,-x,-z
-x,-y,z
-y,x,-z
y,x,-z
-y,-x,-z
-x,y,z
x,-y,z
1/2+x,1/2+y,1/2+z
1/2+y,1/2-x,1/2-z
1/2-x,1/2-y,1/2+z
1/2-y,1/2+x,1/2-z
1/2+y,1/2+x,1/2-z
1/2-y,1/2-x,1/2-z
1/2-x,1/2+y,1/2+z
1/2+x,1/2-y,1/2+z
loop_
_atom_site_type_symbol
_atom_site_label
_atom_site_fract_x
_atom_site_fract_y
_atom_site_fract_z
Si Si1 0.894334 0.391204 0.376699
Si Si2 0.265171 0.892350 0.049615
Si Si3 0.394606 0.395031 0.163442
Si Si4 0.894008 0.246094 0.051524
Si Si5 0.111267 0.603693 0.701949
Si Si6 0.712721 0.108049 0.382970
Si Si7 0.286446 0.892931 0.712790
O O1 0.882326 0.500000 0.366725
O O2 0.826466 0.357299 0.415766
O O3 0.866039 0.336700 0.332759
O O4 0.000000 0.367383 0.391134
O O5 0.163375 0.849071 0.058734
O O6 0.340735 0.829758 0.074837
O O7 0.267191 0.000000 0.065710
O O8 0.288181 0.884449 0.997694
O O9 0.500000 0.379125 0.181730
O O10 0.381222 0.500000 0.144507
O O11 0.375863 0.324237 0.122414
O O12 0.324538 0.379050 0.204775
O O13 0.000000 0.218162 0.061924
O O14 0.151619 0.500000 0.693676
O O15 0.143766 0.643766 0.750000
O O16 0.148587 0.668743 0.662552
O O17 0.000000 0.600492 0.702556
O O18 0.687304 0.000000 0.389324
O O19 0.322353 0.822353 0.750000
O O20 0.309356 0.000000 0.726534
#
# Coordination Sequence:
#
# PCOD8310795 Si02
#       7
#    16  16  16  16  16  16  16
#     4   9  17  30  50  76 105 134 161 196 250 311
#     4  10  20  33  51  75 100 128 167 214 257 298
#     4   9  19  35  52  71  99 138 178 207 239 296
#     4   9  19  35  52  71  99 134 170 205 245 303
#     4   8  14  25  41  64  97 133 164 196 242 301
#     4  10  19  31  50  76 103 130 164 211 260 299
#     4  10  19  31  51  78 104 129 161 207 255 295
#
# _framework density 18.095742999999999
#
# number of rings (size 3 to 8) (size 9 to 14) (size 15 to 20)
#    0.000    2.714    0.000    2.143    0.000    3.000 
#    0.000    2.857    0.000    4.286    0.000    4.000 
#    0.000    4.571    0.000    0.000    0.000    0.000 
#
# Total GULP energy -694200.191987 kJ/mol
# GULP energy per Si atom -12396.432000 kJ/mol
# Density = 1.805456 g / cm^3
# Si number density = 18.095743 Si / 1000 Ang^3
#
#
#
# Elastic Constant Matrix: (Units=GPa)
#
#
# Indices 1 2 3 4 5 6 
#
# 1 99.5245 53.5918 55.7534 0.0000 0.0000 0.0000
# 2 53.5918 99.5245 55.7534 0.0000 0.0000 0.0000
# 3 55.7534 55.7534 90.9399 0.0000 0.0000 0.0000
# 4 0.0000 0.0000 0.0000 26.8140 0.0000 0.0000
# 5 0.0000 0.0000 0.0000 0.0000 26.8140 0.0000
# 6 0.0000 0.0000 0.0000 0.0000 0.0000 24.1868
#
#
#
# Elastic Compliance Matrix: (Units=1/GPa)
#
#
# Indices 1 2 3 4 5 6 
#
# 1 0.016785 -0.004986 -0.007234 0.000000 0.000000 0.000000
# 2 -0.004986 0.016785 -0.007234 0.000000 0.000000 0.000000
# 3 -0.007234 -0.007234 0.019866 0.000000 0.000000 0.000000
# 4 0.000000 0.000000 0.000000 0.037294 0.000000 0.000000
# 5 0.000000 0.000000 0.000000 0.000000 0.037294 0.000000
# 6 0.000000 0.000000 0.000000 0.000000 0.000000 0.041345
#
#
# Mechanical properties :
#
#
# Convention : Reuss Voigt Hill
#
# Bulk Modulus (GPa) = 68.82767 68.90954 68.86861
# Shear Modulus (GPa) = 23.46115 23.88898 23.67506
#
# Velocity S-wave (km/s) = 3.60460 3.63732 3.62100
# Velocity P-wave (km/s) = 7.44594 7.47016 7.45806
#
# Compressibility (1/GPa) = 0.01452904
#
# Stress axis : x y z
#
# Youngs Moduli (GPa) = 59.57728 59.57728 50.33755
#
# Poissons Ratio (x) = 0.29705 0.36412
# Poissons Ratio (y) = 0.29705 0.36412
# Poissons Ratio (z) = 0.43096 0.43096
#
# Static dielectric constant tensor:
#      x y z
#    x 3.415320 0.000000 0.000000 
#    y 0.000000 3.415320 0.000000 
#    z 0.000000 0.000000 3.312360 
# 
# 
# High freq. dielectric constant tensor:
#      x y z
#    x 1.700370 0.000000 0.000000 
#    y 0.000000 1.700370 0.000000 
#    z 0.000000 0.000000 1.682060 
# 
# From -- ./inp_files/9595.got.cif
#   From: 2010.03.12/outbox.cif.g09.slc.cpg/sg119_5_cif.got.tgz:9595.got - 2010.04.14 02:25:26.
