data_PCOD8310248
_publ_section_title
;
Structure prediction by ZEFSAII (Michael W. Deem and Ramdas Pophale) SiO2 
 PCOD8310248
Probable space group: P -4 C 2
;
_chemical_formula_sum "Si O2"
_cell_formula_units_Z 40
_cell_length_a 8.932819
_cell_length_b 8.932819
_cell_length_c 24.001651
_cell_angle_alpha 90.000000
_cell_angle_beta 90.000000
_cell_angle_gamma 90.000000
_cell_volume 1915.217869
_symmetry_space_group_name_H-M "P -4 C 2"
_symmetry_group_IT_number 116
_symmetry_cell_setting 'tetragonal'
loop_
_space_group_symop_operation_xyz
x,y,z
y,-x,-z
-x,-y,z
-y,x,-z
y,x,1/2-z
-y,-x,1/2-z
-x,y,1/2+z
x,-y,1/2+z
loop_
_atom_site_type_symbol
_atom_site_label
_atom_site_fract_x
_atom_site_fract_y
_atom_site_fract_z
Si Si1 0.336160 0.953670 0.387035
Si Si2 0.252880 0.163697 0.691912
Si Si3 0.934800 0.764429 0.495922
Si Si4 0.142275 0.756056 0.875275
Si Si5 0.553269 0.664852 0.194706
O O1 0.283832 0.811809 0.351657
O O2 0.351327 0.914752 0.452897
O O3 0.500000 0.000000 0.364974
O O4 0.204144 0.075403 0.379159
O O5 0.160563 0.160563 0.750000
O O6 0.419846 0.218452 0.706081
O O7 0.251428 0.997332 0.666699
O O8 0.900022 0.690963 0.436091
O O9 0.103125 0.820716 0.491420
O O10 0.276884 0.652927 0.855463
O O11 0.500000 0.500000 0.177839
O O12 0.654955 0.654955 0.250000
#
# Coordination Sequence:
#
# PCOD8310248 Si02
#       5
#     8   8   8   8   8
#     4  11  24  40  68 100 138 176 226 285 348 410
#     4  12  25  42  67 101 133 176 233 285 334 415
#     4   9  18  41  66  96 134 173 224 290 343 392
#     4  11  24  42  72  97 131 183 236 285 339 415
#     4  11  24  46  65  94 141 184 220 279 360 415
#
# _framework density 20.885354
#
# number of rings (size 3 to 8) (size 9 to 14) (size 15 to 20)
#    0.000    1.200    4.000    2.400    2.800    2.400 
#    0.000    0.000    0.000    0.000    0.000    0.000 
#    0.000    0.000    0.000    0.000    0.000    0.000 
#
# Total GULP energy -496052.267610 kJ/mol
# GULP energy per Si atom -12401.306690 kJ/mol
# Density = 2.083782 g / cm^3
# Si number density = 20.885354 Si / 1000 Ang^3
#
#
#
# Elastic Constant Matrix: (Units=GPa)
#
#
# Indices 1 2 3 4 5 6 
#
# 1 90.1378 7.1924 50.9365 0.0000 0.0000 0.0000
# 2 7.1924 90.1378 50.9365 0.0000 0.0000 0.0000
# 3 50.9365 50.9365 162.6401 0.0000 0.0000 0.0000
# 4 0.0000 0.0000 0.0000 30.5393 0.0000 0.0000
# 5 0.0000 0.0000 0.0000 0.0000 30.5393 0.0000
# 6 0.0000 0.0000 0.0000 0.0000 0.0000 50.7048
#
#
#
# Elastic Compliance Matrix: (Units=1/GPa)
#
#
# Indices 1 2 3 4 5 6 
#
# 1 0.013670 0.001614 -0.004787 0.000000 0.000000 0.000000
# 2 0.001614 0.013670 -0.004787 0.000000 0.000000 0.000000
# 3 -0.004787 -0.004787 0.009147 0.000000 0.000000 0.000000
# 4 0.000000 0.000000 0.000000 0.032745 0.000000 0.000000
# 5 0.000000 0.000000 0.000000 0.000000 0.032745 0.000000
# 6 0.000000 0.000000 0.000000 0.000000 0.000000 0.019722
#
#
# Mechanical properties :
#
#
# Convention : Reuss Voigt Hill
#
# Bulk Modulus (GPa) = 48.61798 62.33852 55.47825
# Shear Modulus (GPa) = 34.60818 37.94669 36.27744
#
# Velocity S-wave (km/s) = 4.07511 4.26714 4.17223
# Velocity P-wave (km/s) = 6.74322 7.36144 7.05910
#
# Compressibility (1/GPa) = 0.02056852
#
# Stress axis : x y z
#
# Youngs Moduli (GPa) = 73.15083 73.15083 109.32625
#
# Poissons Ratio (x) = -0.11808 0.52334
# Poissons Ratio (y) = -0.11808 0.52334
# Poissons Ratio (z) = 0.35017 0.35017
#
# Static dielectric constant tensor:
#      x y z
#    x 3.665920 0.000000 0.000000 
#    y 0.000000 3.665920 0.000000 
#    z 0.000000 0.000000 3.964260 
# 
# 
# High freq. dielectric constant tensor:
#      x y z
#    x 1.810810 0.000000 0.000000 
#    y 0.000000 1.810810 0.000000 
#    z 0.000000 0.000000 1.831790 
# 
# From -- ./inp_files/4433.got.cif
#   From: 2010.03.12/outbox.cif.g09.slc.cpg/sg116_3_cif.got.tgz:4433.got - 2010.04.14 02:15:44.
