data_PCOD8310693
_publ_section_title
;
Structure prediction by ZEFSAII (Michael W. Deem and Ramdas Pophale) SiO2 
 PCOD8310693
Probable space group: I -4 M 2
;
_chemical_formula_sum "Si O2"
_cell_formula_units_Z 64
_cell_length_a 12.408268
_cell_length_b 12.408268
_cell_length_c 26.126539
_cell_angle_alpha 90.000000
_cell_angle_beta 90.000000
_cell_angle_gamma 90.000000
_cell_volume 4022.575575
_symmetry_space_group_name_H-M "I -4 M 2"
_symmetry_group_IT_number 119
_symmetry_cell_setting 'tetragonal'
loop_
_space_group_symop_operation_xyz
x,y,z
y,-x,-z
-x,-y,z
-y,x,-z
y,x,-z
-y,-x,-z
-x,y,z
x,-y,z
1/2+x,1/2+y,1/2+z
1/2+y,1/2-x,1/2-z
1/2-x,1/2-y,1/2+z
1/2-y,1/2+x,1/2-z
1/2+y,1/2+x,1/2-z
1/2-y,1/2-x,1/2-z
1/2-x,1/2+y,1/2+z
1/2+x,1/2-y,1/2+z
loop_
_atom_site_type_symbol
_atom_site_label
_atom_site_fract_x
_atom_site_fract_y
_atom_site_fract_z
Si Si1 0.375301 0.769793 0.965188
Si Si2 0.000000 0.371941 0.879532
Si Si3 0.377398 0.816252 0.195912
Si Si4 0.500000 0.872694 0.496086
Si Si5 0.620208 0.378684 0.127813
O O1 0.500000 0.760215 0.981214
O O2 0.356506 0.721915 0.908871
O O3 0.307059 0.692942 0.000000
O O4 0.335123 0.893614 0.972257
O O5 0.104353 0.330127 0.848054
O O6 0.000000 0.324592 0.937805
O O7 0.000000 0.500000 0.884259
O O8 0.500000 0.850539 0.206432
O O9 0.317547 0.817547 0.250000
O O10 0.364822 0.694786 0.177156
O O11 0.500000 0.000000 0.492291
O O12 0.500000 0.355991 0.102940
O O13 0.624799 0.500000 0.147893
#
# Coordination Sequence:
#
# PCOD8310693 Si02
#       5
#    16   8  16   8  16
#     4  10  18  29  47  70  98 127 160 193 239 284
#     4   9  16  24  40  66  98 116 144 180 230 280
#     4  10  17  27  45  69  94 116 144 188 241 287
#     4   9  18  30  44  69  99 131 157 190 231 283
#     4   9  18  30  45  67  93 121 153 191 237 283
#
# _framework density 15.910204999999999
#
# number of rings (size 3 to 8) (size 9 to 14) (size 15 to 20)
#    0.000    2.500    1.250    2.250    0.000    5.250 
#    0.000    0.000    2.750    0.375    0.000    0.000 
#    0.000    0.000    0.000    0.000    0.000    0.000 
#
# Total GULP energy -396487.006632 kJ/mol
# GULP energy per Si atom -12390.218957 kJ/mol
# Density = 1.587399 g / cm^3
# Si number density = 15.910205 Si / 1000 Ang^3
#
#
#
# Elastic Constant Matrix: (Units=GPa)
#
#
# Indices 1 2 3 4 5 6 
#
# 1 33.8067 74.3693 55.6895 0.0000 0.0000 0.0000
# 2 74.3693 33.8247 55.6847 0.0000 0.0000 0.0000
# 3 55.6895 55.6847 105.1149 0.0000 0.0000 0.0000
# 4 0.0000 0.0000 0.0000 20.3607 0.0000 0.0000
# 5 0.0000 0.0000 0.0000 0.0000 20.3607 0.0000
# 6 0.0000 0.0000 0.0000 0.0000 0.0000 10.3336
#
#
#
# Elastic Compliance Matrix: (Units=1/GPa)
#
#
# Indices 1 2 3 4 5 6 
#
# 1 -0.002169 0.022496 -0.010768 0.000000 0.000000 0.000000
# 2 0.022496 -0.002157 -0.010775 0.000000 0.000000 0.000000
# 3 -0.010768 -0.010775 0.020927 0.000000 0.000000 0.000000
# 4 0.000000 0.000000 0.000000 0.049114 0.000000 0.000000
# 5 0.000000 0.000000 0.000000 0.000000 0.049114 0.000000
# 6 0.000000 0.000000 0.000000 0.000000 0.000000 0.096772
#
#
# Mechanical properties :
#
#
# Convention : Reuss Voigt Hill
#
# Bulk Modulus (GPa) = 54.03935 60.47037 57.25486
# Shear Modulus (GPa) = 23.16264 9.34450 16.25357
#
# Velocity S-wave (km/s) = 3.81968 2.42611 3.19969
# Velocity P-wave (km/s) = 7.31384 6.77775 7.05089
#
# Compressibility (1/GPa) = 0.01850503
#
# Stress axis : x y z
#
# Youngs Moduli (GPa) = -461.08123 -463.55121 47.78621
#
# Poissons Ratio (x) = 10.42792 0.51457
# Poissons Ratio (y) = 10.37235 0.51491
# Poissons Ratio (z) = -4.96497 -4.99492
#
# Static dielectric constant tensor:
#      x y z
#    x 3.042200 0.000000 0.000000 
#    y 0.000000 3.042230 0.000000 
#    z 0.000000 0.000000 3.183140 
# 
# 
# High freq. dielectric constant tensor:
#      x y z
#    x 1.591820 0.000000 0.000000 
#    y 0.000000 1.591820 0.000000 
#    z 0.000000 0.000000 1.599140 
# 
# From -- ./inp_files/8511.got.cif
#   From: 2010.03.12/outbox.cif.g09.slc.cpg/sg119_5_cif.got.tgz:8511.got - 2010.04.14 02:25:26.
