data_PCOD8310282
_publ_section_title
;
Structure prediction by ZEFSAII (Michael W. Deem and Ramdas Pophale) SiO2 
 PCOD8310282
Probable space group: P -4 B 2
;
_chemical_formula_sum "Si O2"
_cell_formula_units_Z 56
_cell_length_a 18.013218
_cell_length_b 18.013218
_cell_length_c 10.605723
_cell_angle_alpha 90.000000
_cell_angle_beta 90.000000
_cell_angle_gamma 90.000000
_cell_volume 3441.302817
_symmetry_space_group_name_H-M "P -4 B 2"
_symmetry_group_IT_number 117
_symmetry_cell_setting 'tetragonal'
loop_
_space_group_symop_operation_xyz
x,y,z
y,-x,-z
-x,-y,z
-y,x,-z
1/2+y,1/2+x,-z
1/2-y,1/2-x,-z
1/2-x,1/2+y,z
1/2+x,1/2-y,z
loop_
_atom_site_type_symbol
_atom_site_label
_atom_site_fract_x
_atom_site_fract_y
_atom_site_fract_z
Si Si1 0.218998 0.966468 0.470999
Si Si2 0.655812 0.278962 0.314660
Si Si3 0.140227 0.934223 0.855748
Si Si4 0.164140 0.216374 0.696875
Si Si5 0.489820 0.419496 0.668356
Si Si6 0.598742 0.616623 0.128243
Si Si7 0.370290 0.247957 0.513231
O O1 0.231667 0.912536 0.588756
O O2 0.238546 0.919694 0.345100
O O3 0.135251 0.998121 0.450555
O O4 0.267591 0.041264 0.488238
O O5 0.618461 0.289770 0.176587
O O6 0.705679 0.205888 0.299881
O O7 0.711540 0.345119 0.357359
O O8 0.090385 0.914065 0.733319
O O9 0.162055 0.021355 0.859131
O O10 0.103439 0.909988 0.985311
O O11 0.164121 0.171534 0.830240
O O12 0.198315 0.157654 0.598266
O O13 0.500000 0.500000 0.609082
O O14 0.546358 0.405704 0.782024
O O15 0.332432 0.167569 0.500000
#
# Coordination Sequence:
#
# PCOD8310282 Si02
#       7
#     8   8   8   8   8   8   8
#     4  10  17  32  49  68  93 128 159 200 243 286
#     4  10  20  32  48  67  96 130 163 197 239 287
#     4  11  18  30  48  69  99 131 158 194 236 286
#     4   9  20  34  46  67  97 130 162 197 237 289
#     4   9  18  29  43  70 100 127 155 191 231 289
#     4  10  19  30  48  68  99 129 160 194 238 279
#     4   9  17  31  48  69  95 121 158 201 242 290
#
# _framework density 16.272905999999999
#
# number of rings (size 3 to 8) (size 9 to 14) (size 15 to 20)
#    0.000    2.286    2.857    2.143    0.000    1.714 
#    0.000    0.000    0.000    1.714    0.000    0.000 
#    0.000    0.000    0.000    5.714    0.000    0.000 
#
# Total GULP energy -693770.242509 kJ/mol
# GULP energy per Si atom -12388.754331 kJ/mol
# Density = 1.623587 g / cm^3
# Si number density = 16.272906 Si / 1000 Ang^3
#
#
#
# Elastic Constant Matrix: (Units=GPa)
#
#
# Indices 1 2 3 4 5 6 
#
# 1 100.2903 55.8581 31.9538 0.0000 0.0000 0.0000
# 2 55.8581 100.2903 31.9540 0.0000 0.0000 0.0000
# 3 31.9538 31.9540 54.0095 0.0000 0.0000 0.0000
# 4 0.0000 0.0000 0.0000 13.9802 0.0000 0.0000
# 5 0.0000 0.0000 0.0000 0.0000 13.9805 0.0000
# 6 0.0000 0.0000 0.0000 0.0000 0.0000 24.6383
#
#
#
# Elastic Compliance Matrix: (Units=1/GPa)
#
#
# Indices 1 2 3 4 5 6 
#
# 1 0.015478 -0.007028 -0.004999 0.000000 0.000000 0.000000
# 2 -0.007028 0.015478 -0.005000 0.000000 0.000000 0.000000
# 3 -0.004999 -0.005000 0.024431 0.000000 0.000000 0.000000
# 4 0.000000 0.000000 0.000000 0.071530 0.000000 0.000000
# 5 0.000000 0.000000 0.000000 0.000000 0.071528 0.000000
# 6 0.000000 0.000000 0.000000 0.000000 0.000000 0.040587
#
#
# Mechanical properties :
#
#
# Convention : Reuss Voigt Hill
#
# Bulk Modulus (GPa) = 46.87428 54.90243 50.88835
# Shear Modulus (GPa) = 17.84453 19.50808 18.67631
#
# Velocity S-wave (km/s) = 3.31506 3.46614 3.39144
# Velocity P-wave (km/s) = 6.59700 7.05908 6.83195
#
# Compressibility (1/GPa) = 0.02133366
#
# Stress axis : x y z
#
# Youngs Moduli (GPa) = 64.60677 64.60661 40.93150
#
# Poissons Ratio (x) = 0.45405 0.20464
# Poissons Ratio (y) = 0.45405 0.20464
# Poissons Ratio (z) = 0.32300 0.32301
#
# Static dielectric constant tensor:
#      x y z
#    x 3.084110 0.000000 0.000000 
#    y 0.000000 3.084110 0.000000 
#    z 0.000000 0.000000 3.003640 
# 
# 
# High freq. dielectric constant tensor:
#      x y z
#    x 1.607460 0.000000 0.000000 
#    y 0.000000 1.607460 0.000000 
#    z 0.000000 0.000000 1.621550 
# 
# From -- ./inp_files/2916.got.cif
#   From: 2010.03.12/outbox.cif.g09.slc.cpg/sg117_2_cif.got.tgz:2916.got - 2010.04.14 02:19:01.
