data_PCOD8310493
_publ_section_title
;
Structure prediction by ZEFSAII (Michael W. Deem and Ramdas Pophale) SiO2 
 PCOD8310493
Probable space group: P -4 N 2
;
_chemical_formula_sum "Si O2"
_cell_formula_units_Z 40
_cell_length_a 15.091475
_cell_length_b 15.091475
_cell_length_c 8.237289
_cell_angle_alpha 90.000000
_cell_angle_beta 90.000000
_cell_angle_gamma 90.000000
_cell_volume 1876.064132
_symmetry_space_group_name_H-M "P -4 N 2"
_symmetry_group_IT_number 118
_symmetry_cell_setting 'tetragonal'
loop_
_space_group_symop_operation_xyz
x,y,z
y,-x,-z
-x,-y,z
-y,x,-z
1/2+y,1/2+x,1/2-z
1/2-y,1/2-x,1/2-z
1/2-x,1/2+y,1/2+z
1/2+x,1/2-y,1/2+z
loop_
_atom_site_type_symbol
_atom_site_label
_atom_site_fract_x
_atom_site_fract_y
_atom_site_fract_z
Si Si1 0.418310 0.293793 0.063868
Si Si2 0.221177 0.923002 0.655144
Si Si3 0.825121 0.278759 0.076878
Si Si4 0.035445 0.670535 0.831540
Si Si5 0.201741 0.366546 0.492603
O O1 0.379096 0.388562 0.117890
O O2 0.476801 0.250702 0.205386
O O3 0.473793 0.289323 0.896191
O O4 0.329442 0.236966 0.050239
O O5 0.296766 0.874359 0.550990
O O6 0.250390 0.914431 0.840935
O O7 0.827298 0.327298 0.250000
O O8 0.919936 0.286683 0.992343
O O9 0.783219 0.180153 0.090496
O O10 0.084992 0.584992 0.750000
O O11 0.936495 0.648788 0.893858
#
# Coordination Sequence:
#
# PCOD8310493 Si02
#       5
#     8   8   8   8   8
#     4  10  21  37  61  89 123 160 209 258 312 376
#     4  10  21  40  62  89 124 168 210 259 320 386
#     4  10  20  37  62  88 119 164 206 250 313 375
#     4  10  21  39  61  93 127 154 209 265 308 377
#     4  10  21  38  64  90 122 164 210 255 317 391
#
# _framework density 21.321231999999998
#
# number of rings (size 3 to 8) (size 9 to 14) (size 15 to 20)
#    0.000    2.000    2.000    1.200    5.600    0.400 
#    0.000    7.000    0.000   11.400    0.000    0.000 
#    0.000    0.000    0.000    0.000    0.000    0.000 
#
# Total GULP energy -495584.306184 kJ/mol
# GULP energy per Si atom -12389.607655 kJ/mol
# Density = 2.127270 g / cm^3
# Si number density = 21.321232 Si / 1000 Ang^3
#
#
#
# Elastic Constant Matrix: (Units=GPa)
#
#
# Indices 1 2 3 4 5 6 
#
# 1 84.3318 31.7707 21.8479 0.0000 0.0000 0.0000
# 2 31.7707 84.3318 21.8479 0.0000 0.0000 0.0000
# 3 21.8479 21.8479 93.6169 0.0000 0.0000 0.0000
# 4 0.0000 0.0000 0.0000 36.8026 0.0000 0.0000
# 5 0.0000 0.0000 0.0000 0.0000 36.8026 0.0000
# 6 0.0000 0.0000 0.0000 0.0000 0.0000 20.3452
#
#
#
# Elastic Compliance Matrix: (Units=1/GPa)
#
#
# Indices 1 2 3 4 5 6 
#
# 1 0.014234 -0.004792 -0.002204 0.000000 0.000000 0.000000
# 2 -0.004792 0.014234 -0.002204 0.000000 0.000000 0.000000
# 3 -0.002204 -0.002204 0.011710 0.000000 0.000000 0.000000
# 4 0.000000 0.000000 0.000000 0.027172 0.000000 0.000000
# 5 0.000000 0.000000 0.000000 0.000000 0.027172 0.000000
# 6 0.000000 0.000000 0.000000 0.000000 0.000000 0.049152
#
#
# Mechanical properties :
#
#
# Convention : Reuss Voigt Hill
#
# Bulk Modulus (GPa) = 45.91221 45.91263 45.91242
# Shear Modulus (GPa) = 29.52783 31.24435 30.38609
#
# Velocity S-wave (km/s) = 3.72547 3.83222 3.77922
# Velocity P-wave (km/s) = 6.33133 6.41574 6.37368
#
# Compressibility (1/GPa) = 0.02178070
#
# Stress axis : x y z
#
# Youngs Moduli (GPa) = 70.25456 70.25456 85.39435
#
# Poissons Ratio (x) = 0.33663 0.18818
# Poissons Ratio (y) = 0.33663 0.18818
# Poissons Ratio (z) = 0.15481 0.15481
#
# Static dielectric constant tensor:
#      x y z
#    x 3.722700 0.000000 0.000000 
#    y 0.000000 3.722700 0.000000 
#    z 0.000000 0.000000 3.749990 
# 
# 
# High freq. dielectric constant tensor:
#      x y z
#    x 1.821900 0.000000 0.000000 
#    y 0.000000 1.821900 0.000000 
#    z 0.000000 0.000000 1.843540 
# 
# From -- ./inp_files/1858.got.cif
#   From: 2010.03.12/outbox.cif.g09.slc.cpg/sg118_1_cif.got.tgz:1858.got - 2010.04.14 02:21:17.
