data_PCOD8310695
_publ_section_title
;
Structure prediction by ZEFSAII (Michael W. Deem and Ramdas Pophale) SiO2 
 PCOD8310695
Probable space group: I -4 M 2
;
_chemical_formula_sum "Si O2"
_cell_formula_units_Z 128
_cell_length_a 21.203953
_cell_length_b 21.203953
_cell_length_c 18.068600
_cell_angle_alpha 90.000000
_cell_angle_beta 90.000000
_cell_angle_gamma 90.000000
_cell_volume 8123.780294
_symmetry_space_group_name_H-M "I -4 M 2"
_symmetry_group_IT_number 119
_symmetry_cell_setting 'tetragonal'
loop_
_space_group_symop_operation_xyz
x,y,z
y,-x,-z
-x,-y,z
-y,x,-z
y,x,-z
-y,-x,-z
-x,y,z
x,-y,z
1/2+x,1/2+y,1/2+z
1/2+y,1/2-x,1/2-z
1/2-x,1/2-y,1/2+z
1/2-y,1/2+x,1/2-z
1/2+y,1/2+x,1/2-z
1/2-y,1/2-x,1/2-z
1/2-x,1/2+y,1/2+z
1/2+x,1/2-y,1/2+z
loop_
_atom_site_type_symbol
_atom_site_label
_atom_site_fract_x
_atom_site_fract_y
_atom_site_fract_z
Si Si1 0.071651 0.773462 0.322834
Si Si2 0.309263 0.230257 0.326548
Si Si3 0.874397 0.794176 0.173105
Si Si4 0.570597 0.650431 0.539795
Si Si5 0.929222 0.627470 0.321611
Si Si6 0.233478 0.573875 0.565009
Si Si7 0.726015 0.688415 0.076994
Si Si8 0.874032 0.321743 0.073242
O O1 0.083852 0.808781 0.245407
O O2 0.082778 0.700483 0.303757
O O3 0.123709 0.795257 0.382499
O O4 0.000000 0.787087 0.350949
O O5 0.310085 0.189916 0.250000
O O6 0.293672 0.301772 0.303037
O O7 0.378026 0.224906 0.365917
O O8 0.251657 0.206648 0.378133
O O9 0.886326 0.848471 0.112912
O O10 0.897053 0.729822 0.133143
O O11 0.583550 0.583550 0.500000
O O12 0.500000 0.657918 0.566321
O O13 0.590113 0.702519 0.478963
O O14 0.912548 0.587453 0.250000
O O15 0.888995 0.608240 0.392887
O O16 0.000000 0.613022 0.344828
O O17 0.230723 0.500000 0.590914
O O18 0.179629 0.588118 0.504131
O O19 0.800063 0.688756 0.058926
O O20 0.688522 0.688522 0.000000
#
# Coordination Sequence:
#
# PCOD8310695 Si02
#       8
#    16  16  16  16  16  16  16  16
#     4  10  19  30  46  72 104 133 157 194 248 294
#     4  11  19  30  52  77  96 123 164 206 246 286
#     4  10  17  28  47  71  98 127 162 195 228 284
#     4  10  19  30  45  68 101 135 163 190 222 275
#     4  10  19  30  42  62  96 133 167 197 227 283
#     4  10  20  33  49  69  96 126 159 206 252 289
#     4  10  18  29  49  75 100 125 163 207 239 283
#     4   9  18  28  46  67  94 128 163 196 238 284
#
# _framework density 15.756211
#
# number of rings (size 3 to 8) (size 9 to 14) (size 15 to 20)
#    0.000    2.000    5.000    0.375    0.000    1.250 
#    0.000    0.000    0.000    1.500    0.000    0.000 
#    0.000    2.250    0.000    0.000    0.000    0.000 
#
# Total GULP energy -793216.842245 kJ/mol
# GULP energy per Si atom -12394.013160 kJ/mol
# Density = 1.572035 g / cm^3
# Si number density = 15.756211 Si / 1000 Ang^3
#
#
#
# Elastic Constant Matrix: (Units=GPa)
#
#
# Indices 1 2 3 4 5 6 
#
# 1 63.8152 12.7897 42.1798 0.0000 0.0000 0.0000
# 2 12.7897 63.8151 42.1800 0.0000 0.0000 0.0000
# 3 42.1798 42.1800 104.8144 0.0000 0.0000 0.0000
# 4 0.0000 0.0000 0.0000 23.6489 0.0000 0.0000
# 5 0.0000 0.0000 0.0000 0.0000 23.6490 0.0000
# 6 0.0000 0.0000 0.0000 0.0000 0.0000 13.0338
#
#
#
# Elastic Compliance Matrix: (Units=1/GPa)
#
#
# Indices 1 2 3 4 5 6 
#
# 1 0.021521 0.001923 -0.009434 0.000000 0.000000 0.000000
# 2 0.001923 0.021521 -0.009434 0.000000 0.000000 0.000000
# 3 -0.009434 -0.009434 0.017134 0.000000 0.000000 0.000000
# 4 0.000000 0.000000 0.000000 0.042285 0.000000 0.000000
# 5 0.000000 0.000000 0.000000 0.000000 0.042285 0.000000
# 6 0.000000 0.000000 0.000000 0.000000 0.000000 0.076724
#
#
# Mechanical properties :
#
#
# Convention : Reuss Voigt Hill
#
# Bulk Modulus (GPa) = 38.04652 47.41596 42.73124
# Shear Modulus (GPa) = 18.93067 21.08602 20.00834
#
# Velocity S-wave (km/s) = 3.46999 3.66220 3.56739
# Velocity P-wave (km/s) = 6.34459 6.93117 6.64436
#
# Compressibility (1/GPa) = 0.02628361
#
# Stress axis : x y z
#
# Youngs Moduli (GPa) = 46.46722 46.46692 58.36442
#
# Poissons Ratio (x) = -0.08934 0.55061
# Poissons Ratio (y) = -0.08934 0.55062
# Poissons Ratio (z) = 0.43838 0.43838
#
# Static dielectric constant tensor:
#      x y z
#    x 2.827660 0.000000 0.000000 
#    y 0.000000 2.827670 0.000000 
#    z 0.000000 0.000000 2.944840 
# 
# 
# High freq. dielectric constant tensor:
#      x y z
#    x 1.580500 0.000000 0.000000 
#    y 0.000000 1.580500 0.000000 
#    z 0.000000 0.000000 1.599000 
# 
# From -- ./inp_files/6937.got.cif
#   From: 2010.03.12/outbox.cif.g09.slc.cpg/sg119_4_cif.got.tgz:6937.got - 2010.04.14 02:25:26.
