data_PCOD8310018
_publ_section_title
;
Structure prediction by ZEFSAII (Michael W. Deem and Ramdas Pophale) SiO2 
 PCOD8310018
Probable space group: P -4 M 2
;
_chemical_formula_sum "Si O2"
_cell_formula_units_Z 33
_cell_length_a 11.935371
_cell_length_b 11.935371
_cell_length_c 13.811517
_cell_angle_alpha 90.000000
_cell_angle_beta 90.000000
_cell_angle_gamma 90.000000
_cell_volume 1967.493149
_symmetry_space_group_name_H-M "P -4 M 2"
_symmetry_group_IT_number 115
_symmetry_cell_setting 'tetragonal'
loop_
_space_group_symop_operation_xyz
x,y,z
y,-x,-z
-x,-y,z
-y,x,-z
y,x,-z
-y,-x,-z
-x,y,z
x,-y,z
loop_
_atom_site_type_symbol
_atom_site_label
_atom_site_fract_x
_atom_site_fract_y
_atom_site_fract_z
Si Si1 0.730645 0.296251 0.202367
Si Si2 0.500000 0.861630 0.900418
Si Si3 0.125233 0.868230 0.106905
Si Si4 0.632581 0.374743 0.607270
Si Si5 0.500000 0.266730 0.097202
Si Si6 0.500000 0.500000 0.000000
O O1 0.801023 0.393139 0.147934
O O2 0.803250 0.184371 0.193030
O O3 0.714726 0.323241 0.315186
O O4 0.611803 0.259829 0.159455
O O5 0.500000 0.000000 0.889283
O O6 0.500000 0.828530 0.013929
O O7 0.000000 0.823571 0.119030
O O8 0.130558 0.000000 0.116482
O O9 0.169242 0.830759 0.000000
O O10 0.667426 0.332575 0.500000
O O11 0.500000 0.380561 0.614804
O O12 0.680532 0.500000 0.627177
O O13 0.500000 0.393082 0.065033
#
# Coordination Sequence:
#
# PCOD8310018 Si02
#       6
#     8   4   8   8   4   1
#     4  12  20  33  54  79 106 140 174 221 268 320
#     4  12  24  34  47  77 114 145 177 214 260 315
#     4   9  19  36  55  74 102 144 189 222 252 305
#     4   9  18  33  54  80 107 137 175 213 261 330
#     4  12  22  32  51  75 113 144 174 211 268 329
#     4  12  20  36  44  68 114 148 168 192 260 316
#
# _framework density 16.772611000000001
#
# number of rings (size 3 to 8) (size 9 to 14) (size 15 to 20)
#    0.000    1.455    4.848    3.636    0.000    2.909 
#    0.000    0.000    0.000    2.909    0.000    1.697 
#    0.000    0.000    0.000    0.000    0.000    0.000 
#
# Total GULP energy -408859.813115 kJ/mol
# GULP energy per Si atom -12389.691307 kJ/mol
# Density = 1.673444 g / cm^3
# Si number density = 16.772611 Si / 1000 Ang^3
#
#
#
# Elastic Constant Matrix: (Units=GPa)
#
#
# Indices 1 2 3 4 5 6 
#
# 1 68.5038 42.3263 47.4823 0.0000 0.0000 0.0000
# 2 42.3263 68.5036 47.4820 0.0000 0.0000 0.0000
# 3 47.4823 47.4820 126.4539 0.0000 0.0000 0.0000
# 4 0.0000 0.0000 0.0000 19.1325 0.0000 0.0000
# 5 0.0000 0.0000 0.0000 0.0000 19.1321 0.0000
# 6 0.0000 0.0000 0.0000 0.0000 0.0000 30.5020
#
#
#
# Elastic Compliance Matrix: (Units=1/GPa)
#
#
# Indices 1 2 3 4 5 6 
#
# 1 0.025752 -0.012449 -0.004995 0.000000 0.000000 0.000000
# 2 -0.012449 0.025752 -0.004995 0.000000 0.000000 0.000000
# 3 -0.004995 -0.004995 0.011659 0.000000 0.000000 0.000000
# 4 0.000000 0.000000 0.000000 0.052267 0.000000 0.000000
# 5 0.000000 0.000000 0.000000 0.000000 0.052268 0.000000
# 6 0.000000 0.000000 0.000000 0.000000 0.000000 0.032785
#
#
# Mechanical properties :
#
#
# Convention : Reuss Voigt Hill
#
# Bulk Modulus (GPa) = 54.69089 59.78251 57.23670
# Shear Modulus (GPa) = 19.88418 22.16471 21.02444
#
# Velocity S-wave (km/s) = 3.44687 3.63916 3.54432
# Velocity P-wave (km/s) = 6.96557 7.30605 7.13784
#
# Compressibility (1/GPa) = 0.01828458
#
# Stress axis : x y z
#
# Youngs Moduli (GPa) = 38.83210 38.83211 85.76902
#
# Poissons Ratio (x) = 0.48342 0.42843
# Poissons Ratio (y) = 0.48342 0.42842
# Poissons Ratio (z) = 0.19397 0.19397
#
# Static dielectric constant tensor:
#      x y z
#    x 3.195690 0.000000 0.000000 
#    y 0.000000 3.195690 0.000000 
#    z 0.000000 0.000000 3.260380 
# 
# 
# High freq. dielectric constant tensor:
#      x y z
#    x 1.643090 0.000000 0.000000 
#    y 0.000000 1.643090 0.000000 
#    z 0.000000 0.000000 1.628510 
# 
# From -- ./inp_files/3542.got.cif
#   From: 2010.03.12/outbox.cif.g09.slc.cpg/sg115_2_cif.got.tgz:3542.got - 2010.04.14 02:11:21.
