data_PCOD8310231
_publ_section_title
;
Structure prediction by ZEFSAII (Michael W. Deem and Ramdas Pophale) SiO2 
 PCOD8310231
Probable space group: P -4 C 2
;
_chemical_formula_sum "Si O2"
_cell_formula_units_Z 40
_cell_length_a 11.932588
_cell_length_b 11.932588
_cell_length_c 14.236741
_cell_angle_alpha 90.000000
_cell_angle_beta 90.000000
_cell_angle_gamma 90.000000
_cell_volume 2027.121949
_symmetry_space_group_name_H-M "P -4 C 2"
_symmetry_group_IT_number 116
_symmetry_cell_setting 'tetragonal'
loop_
_space_group_symop_operation_xyz
x,y,z
y,-x,-z
-x,-y,z
-y,x,-z
y,x,1/2-z
-y,-x,1/2-z
-x,y,1/2+z
x,-y,1/2+z
loop_
_atom_site_type_symbol
_atom_site_label
_atom_site_fract_x
_atom_site_fract_y
_atom_site_fract_z
Si Si1 0.826292 0.484138 0.603439
Si Si2 0.826291 0.515862 0.396561
Si Si3 0.888689 0.698821 0.250000
Si Si4 0.324776 0.862682 0.250000
Si Si5 0.592144 0.592144 0.354451
O O1 0.879495 0.500000 0.500000
O O2 0.876282 0.376535 0.656602
O O3 0.850084 0.597944 0.658675
O O4 0.694415 0.462218 0.590171
O O5 0.876282 0.623464 0.343397
O O6 0.850083 0.402056 0.341326
O O7 0.694415 0.537783 0.409830
O O8 0.805971 0.805971 0.250000
O O9 0.017878 0.739105 0.250001
O O10 0.233088 0.766913 0.250000
O O11 0.500000 0.500000 0.340169
O O12 0.633532 0.633532 0.250000
#
# Coordination Sequence:
#
# PCOD8310231 Si02
#       5
#     8   8   8   8   8
#     4  11  22  38  62  88 123 157 194 241 299 361
#     4  11  22  38  62  88 123 157 194 241 299 361
#     4  11  23  44  62  86 120 158 205 250 296 350
#     4  11  25  41  61  89 121 156 203 254 293 350
#     4  11  20  32  54  87 127 161 188 234 292 361
#
# _framework density 19.732408
#
# number of rings (size 3 to 8) (size 9 to 14) (size 15 to 20)
#    0.000    1.000    6.000    3.600    5.600    3.600 
#    0.000    0.000    0.000    0.000    0.000    5.600 
#    0.000    0.000    0.000    0.000    0.000    0.000 
#
# Total GULP energy -495908.331055 kJ/mol
# GULP energy per Si atom -12397.708276 kJ/mol
# Density = 1.968750 g / cm^3
# Si number density = 19.732408 Si / 1000 Ang^3
#
#
#
# Elastic Constant Matrix: (Units=GPa)
#
#
# Indices 1 2 3 4 5 6 
#
# 1 230.8420 -50.7227 36.4279 0.0000 0.0000 0.0000
# 2 -50.7227 230.8201 36.4219 0.0000 0.0000 0.0000
# 3 36.4279 36.4219 155.4646 0.0000 0.0000 0.0000
# 4 0.0000 0.0000 0.0000 -11.0233 0.0000 0.0000
# 5 0.0000 0.0000 0.0000 0.0000 -11.0255 0.0000
# 6 0.0000 0.0000 0.0000 0.0000 0.0000 1.3576
#
#
#
# Elastic Compliance Matrix: (Units=1/GPa)
#
#
# Indices 1 2 3 4 5 6 
#
# 1 0.004842 0.001291 -0.001437 0.000000 0.000000 0.000000
# 2 0.001291 0.004843 -0.001437 0.000000 0.000000 0.000000
# 3 -0.001437 -0.001437 0.007106 0.000000 0.000000 0.000000
# 4 0.000000 0.000000 0.000000 -0.090717 0.000000 0.000000
# 5 0.000000 0.000000 0.000000 0.000000 -0.090699 0.000000
# 6 0.000000 0.000000 0.000000 0.000000 0.000000 0.736607
#
#
# Mechanical properties :
#
#
# Convention : Reuss Voigt Hill
#
# Bulk Modulus (GPa) = 73.39746 73.48677 73.44212
# Shear Modulus (GPa) = 8.62530 35.52840 22.07685
#
# Velocity S-wave (km/s) = 2.09299 4.24785 3.34849
# Velocity P-wave (km/s) = 6.56643 7.83463 7.22840
#
# Compressibility (1/GPa) = 0.01362445
#
# Stress axis : x y z
#
# Youngs Moduli (GPa) = 206.50969 206.49205 140.73157
#
# Poissons Ratio (x) = -0.26656 0.20224
# Poissons Ratio (y) = -0.26658 0.20224
# Poissons Ratio (z) = 0.29677 0.29674
#
# Static dielectric constant tensor:
#      x y z
#    x 3.144820 0.000000 0.000000 
#    y 0.000000 3.144820 0.000000 
#    z 0.000000 0.000000 3.687520 
# 
# 
# High freq. dielectric constant tensor:
#      x y z
#    x 1.762880 0.000000 0.000000 
#    y 0.000000 1.762880 0.000000 
#    z 0.000000 0.000000 1.770630 
# 
# From -- ./inp_files/2581.got.cif
#   From: 2010.03.12/outbox.cif.g09.slc.cpg/sg116_2_cif.got.tgz:2581.got - 2010.04.14 02:15:44.
