data_PCOD8310618
_publ_section_title
;
Structure prediction by ZEFSAII (Michael W. Deem and Ramdas Pophale) SiO2 
 PCOD8310618
Probable space group: P -4 N 2
;
_chemical_formula_sum "Si O2"
_cell_formula_units_Z 40
_cell_length_a 8.940506
_cell_length_b 8.940506
_cell_length_c 22.794326
_cell_angle_alpha 90.000000
_cell_angle_beta 90.000000
_cell_angle_gamma 90.000000
_cell_volume 1822.010826
_symmetry_space_group_name_H-M "P -4 N 2"
_symmetry_group_IT_number 118
_symmetry_cell_setting 'tetragonal'
loop_
_space_group_symop_operation_xyz
x,y,z
y,-x,-z
-x,-y,z
-y,x,-z
1/2+y,1/2+x,1/2-z
1/2-y,1/2-x,1/2-z
1/2-x,1/2+y,1/2+z
1/2+x,1/2-y,1/2+z
loop_
_atom_site_type_symbol
_atom_site_label
_atom_site_fract_x
_atom_site_fract_y
_atom_site_fract_z
Si Si1 0.741454 0.992297 0.253216
Si Si2 0.476534 0.667836 0.372167
Si Si3 0.304635 0.377725 0.874756
Si Si4 0.336312 0.999349 0.563986
Si Si5 0.214183 0.657775 0.947249
O O1 0.604319 0.104319 0.250000
O O2 0.826073 0.036798 0.312963
O O3 0.675964 0.824037 0.250000
O O4 0.850096 0.000445 0.197600
O O5 0.500000 0.500000 0.398815
O O6 0.315832 0.743846 0.380001
O O7 0.589997 0.782769 0.402484
O O8 0.457870 0.291000 0.888714
O O9 0.279242 0.502737 0.923447
O O10 0.352034 0.118170 0.510835
O O11 0.500000 0.000000 0.594268
O O12 0.287555 0.835631 0.542373
#
# Coordination Sequence:
#
# PCOD8310618 Si02
#       5
#     8   8   8   8   8
#     4   9  18  37  66  94 126 172 228 282 336 413
#     4  11  23  41  66  99 135 173 224 291 356 406
#     4  11  22  42  68  95 133 180 227 282 342 416
#     4  12  26  43  62  96 136 177 228 286 349 423
#     4  12  24  42  66  94 131 179 230 280 346 425
#
# _framework density 21.953765000000001
#
# number of rings (size 3 to 8) (size 9 to 14) (size 15 to 20)
#    0.000    1.000    4.000    3.600    0.000    1.600 
#    0.000    0.000    0.000    4.200    0.000    0.000 
#    0.000    0.000    0.000    0.000    0.000    0.000 
#
# Total GULP energy -495775.629755 kJ/mol
# GULP energy per Si atom -12394.390744 kJ/mol
# Density = 2.190380 g / cm^3
# Si number density = 21.953765 Si / 1000 Ang^3
#
#
#
# Elastic Constant Matrix: (Units=GPa)
#
#
# Indices 1 2 3 4 5 6 
#
# 1 76.8576 9.9353 11.6591 0.0000 0.0000 0.0000
# 2 9.9353 76.8578 11.6592 0.0000 0.0000 0.0000
# 3 11.6591 11.6592 105.2658 0.0000 0.0000 0.0000
# 4 0.0000 0.0000 0.0000 6.0062 0.0000 0.0000
# 5 0.0000 0.0000 0.0000 0.0000 5.9724 0.0000
# 6 0.0000 0.0000 0.0000 0.0000 0.0000 37.6827
#
#
#
# Elastic Compliance Matrix: (Units=1/GPa)
#
#
# Indices 1 2 3 4 5 6 
#
# 1 0.013409 -0.001534 -0.001315 0.000000 0.000000 0.000000
# 2 -0.001534 0.013409 -0.001315 0.000000 0.000000 0.000000
# 3 -0.001315 -0.001315 0.009791 0.000000 0.000000 0.000000
# 4 0.000000 0.000000 0.000000 0.166495 0.000000 0.000000
# 5 0.000000 0.000000 0.000000 0.000000 0.167436 0.000000
# 6 0.000000 0.000000 0.000000 0.000000 0.000000 0.026537
#
#
# Mechanical properties :
#
#
# Convention : Reuss Voigt Hill
#
# Bulk Modulus (GPa) = 35.36053 36.16538 35.76295
# Shear Modulus (GPa) = 12.05305 24.98076 18.51691
#
# Velocity S-wave (km/s) = 2.34566 3.37691 2.90737
# Velocity P-wave (km/s) = 4.84540 5.63151 5.25318
#
# Compressibility (1/GPa) = 0.02828012
#
# Stress axis : x y z
#
# Youngs Moduli (GPa) = 74.57745 74.57770 102.13338
#
# Poissons Ratio (x) = 0.11439 0.13433
# Poissons Ratio (y) = 0.11439 0.13433
# Poissons Ratio (z) = 0.09809 0.09809
#
# Static dielectric constant tensor:
#      x y z
#    x 5.283430 0.000000 0.000000 
#    y 0.000000 5.281990 0.000000 
#    z 0.000000 0.000000 4.039180 
# 
# 
# High freq. dielectric constant tensor:
#      x y z
#    x 1.862010 0.000000 0.000000 
#    y 0.000000 1.862010 0.000000 
#    z 0.000000 0.000000 1.857630 
# 
# From -- ./inp_files/5999.got.cif
#   From: 2010.03.12/outbox.cif.g09.slc.cpg/sg118_3_cif.got.tgz:5999.got - 2010.04.14 02:21:17.
