data_PCOD8310765
_publ_section_title
;
Structure prediction by ZEFSAII (Michael W. Deem and Ramdas Pophale) SiO2 
 PCOD8310765
Probable space group: I -4 M 2
;
_chemical_formula_sum "Si O2"
_cell_formula_units_Z 44
_cell_length_a 14.690270
_cell_length_b 14.690270
_cell_length_c 9.882112
_cell_angle_alpha 90.000000
_cell_angle_beta 90.000000
_cell_angle_gamma 90.000000
_cell_volume 2132.599621
_symmetry_space_group_name_H-M "I -4 M 2"
_symmetry_group_IT_number 119
_symmetry_cell_setting 'tetragonal'
loop_
_space_group_symop_operation_xyz
x,y,z
y,-x,-z
-x,-y,z
-y,x,-z
y,x,-z
-y,-x,-z
-x,y,z
x,-y,z
1/2+x,1/2+y,1/2+z
1/2+y,1/2-x,1/2-z
1/2-x,1/2-y,1/2+z
1/2-y,1/2+x,1/2-z
1/2+y,1/2+x,1/2-z
1/2-y,1/2-x,1/2-z
1/2-x,1/2+y,1/2+z
1/2+x,1/2-y,1/2+z
loop_
_atom_site_type_symbol
_atom_site_label
_atom_site_fract_x
_atom_site_fract_y
_atom_site_fract_z
Si Si1 0.214229 0.500000 0.579818
Si Si2 0.201915 0.682040 0.901843
Si Si3 0.624147 0.500000 0.421309
Si Si4 0.500000 0.500000 0.822269
Si Si5 0.299425 0.500000 0.868716
O O1 0.157418 0.406193 0.582659
O O2 0.267449 0.500000 0.436136
O O3 0.285237 0.500000 0.706397
O O4 0.218494 0.718494 0.750000
O O5 0.254620 0.589062 0.934942
O O6 0.238004 0.761997 0.000000
O O7 0.588743 0.411258 0.500000
O O8 0.592394 0.500000 0.266731
O O9 0.406852 0.500000 0.908837
#
# Coordination Sequence:
#
# PCOD8310765 Si02
#       5
#     8  16   8   4   8
#     4  10  18  34  58  84 114 160 210 265 296 355
#     4  10  23  39  60  88 122 161 210 256 315 375
#     4   9  14  24  51  82 115 135 206 262 298 327
#     4  10  19  30  57  92 120 162 196 260 318 380
#     4  10  21  36  53  86 128 160 195 253 324 378
#
# _framework density 20.632097000000002
#
# number of rings (size 3 to 8) (size 9 to 14) (size 15 to 20)
#    0.000    2.364    3.636    1.091    5.091    2.182 
#    0.000    5.455    0.000    0.000    0.000    2.545 
#    0.000    0.000    0.000    0.000    0.000    0.000 
#
# Total GULP energy -272631.104875 kJ/mol
# GULP energy per Si atom -12392.322949 kJ/mol
# Density = 2.058514 g / cm^3
# Si number density = 20.632097 Si / 1000 Ang^3
#
#
#
# Elastic Constant Matrix: (Units=GPa)
#
#
# Indices 1 2 3 4 5 6 
#
# 1 135.8379 66.1711 30.5332 0.0000 0.0000 0.0000
# 2 66.1711 135.8375 30.5317 0.0000 0.0000 0.0000
# 3 30.5332 30.5317 61.9106 0.0000 0.0000 0.0000
# 4 0.0000 0.0000 0.0000 22.1320 0.0000 0.0000
# 5 0.0000 0.0000 0.0000 0.0000 22.1321 0.0000
# 6 0.0000 0.0000 0.0000 0.0000 0.0000 -15.4908
#
#
#
# Elastic Compliance Matrix: (Units=1/GPa)
#
#
# Indices 1 2 3 4 5 6 
#
# 1 0.010086 -0.004268 -0.002869 0.000000 0.000000 0.000000
# 2 -0.004268 0.010086 -0.002869 0.000000 0.000000 0.000000
# 3 -0.002869 -0.002869 0.018982 0.000000 0.000000 0.000000
# 4 0.000000 0.000000 0.000000 0.045183 0.000000 0.000000
# 5 0.000000 0.000000 0.000000 0.000000 0.045183 0.000000
# 6 0.000000 0.000000 0.000000 0.000000 0.000000 -0.064554
#
#
# Mechanical properties :
#
#
# Convention : Reuss Voigt Hill
#
# Bulk Modulus (GPa) = 52.24358 65.33979 58.79169
# Shear Modulus (GPa) = 54.72900 19.51132 37.12016
#
# Velocity S-wave (km/s) = 5.15594 3.07852 4.24624
# Velocity P-wave (km/s) = 7.79881 6.66139 7.25243
#
# Compressibility (1/GPa) = 0.01914111
#
# Stress axis : x y z
#
# Youngs Moduli (GPa) = 99.14869 99.14954 52.68101
#
# Poissons Ratio (x) = 0.42320 0.15115
# Poissons Ratio (y) = 0.42319 0.15113
# Poissons Ratio (z) = 0.28448 0.28445
#
# Static dielectric constant tensor:
#      x y z
#    x 3.675490 0.000000 0.000000 
#    y 0.000000 3.675490 0.000000 
#    z 0.000000 0.000000 3.490950 
# 
# 
# High freq. dielectric constant tensor:
#      x y z
#    x 1.799220 0.000000 0.000000 
#    y 0.000000 1.799220 0.000000 
#    z 0.000000 0.000000 1.778790 
# 
# From -- ./inp_files/3379.got.cif
#   From: 2010.03.12/outbox.cif.g09.slc.cpg/sg119_2_cif.got.tgz:3379.got - 2010.04.14 02:25:26.
