data_PCOD8310214
_publ_section_title
;
Structure prediction by ZEFSAII (Michael W. Deem and Ramdas Pophale) SiO2 
 PCOD8310214
Probable space group: P -4 C 2
;
_chemical_formula_sum "Si O2"
_cell_formula_units_Z 40
_cell_length_a 13.581158
_cell_length_b 13.581158
_cell_length_c 9.240451
_cell_angle_alpha 90.000000
_cell_angle_beta 90.000000
_cell_angle_gamma 90.000000
_cell_volume 1704.381344
_symmetry_space_group_name_H-M "P -4 C 2"
_symmetry_group_IT_number 116
_symmetry_cell_setting 'tetragonal'
loop_
_space_group_symop_operation_xyz
x,y,z
y,-x,-z
-x,-y,z
-y,x,-z
y,x,1/2-z
-y,-x,1/2-z
-x,y,1/2+z
x,-y,1/2+z
loop_
_atom_site_type_symbol
_atom_site_label
_atom_site_fract_x
_atom_site_fract_y
_atom_site_fract_z
Si Si1 0.265615 0.918731 0.498757
Si Si2 0.503794 0.340929 0.718581
Si Si3 0.203231 0.203231 0.250000
Si Si4 0.669628 0.140835 0.000717
Si Si5 0.200588 0.799413 0.250000
Si Si6 0.465606 0.204331 0.966198
O O1 0.204247 0.891391 0.643197
O O2 0.202334 0.895302 0.354110
O O3 0.363839 0.851327 0.495133
O O4 0.282793 0.033685 0.502040
O O5 0.415848 0.415848 0.750000
O O6 0.608165 0.391836 0.750000
O O7 0.479688 0.239498 0.802264
O O8 0.516154 0.305774 0.553584
O O9 0.200230 0.298753 0.144801
O O10 0.552711 0.127418 0.003237
O O11 0.704744 0.201657 0.142761
#
# Coordination Sequence:
#
# PCOD8310214 Si02
#       6
#     8   8   4   8   4   8
#     4  11  24  44  67 100 131 166 217 272 330 382
#     4  11  26  42  59  94 140 180 221 264 302 375
#     4  10  24  40  70  93 131 172 206 262 324 408
#     4  11  24  44  67 100 131 166 217 272 330 382
#     4  10  24  40  70  93 131 172 206 262 324 408
#     4  12  25  37  72  92 134 170 224 263 323 372
#
# _framework density 23.468926
#
# number of rings (size 3 to 8) (size 9 to 14) (size 15 to 20)
#    0.000    1.000    0.000    5.400   16.800    1.600 
#    0.000    6.000    0.000   42.000    0.000    0.000 
#    0.000    0.000    0.000    0.000    0.000    0.000 
#
# Total GULP energy -495797.229730 kJ/mol
# GULP energy per Si atom -12394.930743 kJ/mol
# Density = 2.341551 g / cm^3
# Si number density = 23.468926 Si / 1000 Ang^3
#
#
#
# Elastic Constant Matrix: (Units=GPa)
#
#
# Indices 1 2 3 4 5 6 
#
# 1 104.7877 51.6682 37.5490 0.0000 0.0000 0.0000
# 2 51.6682 104.7889 37.5490 0.0000 0.0000 0.0000
# 3 37.5490 37.5490 147.0494 0.0000 0.0000 0.0000
# 4 0.0000 0.0000 0.0000 24.9107 0.0000 0.0000
# 5 0.0000 0.0000 0.0000 0.0000 24.9107 0.0000
# 6 0.0000 0.0000 0.0000 0.0000 0.0000 40.1344
#
#
#
# Elastic Compliance Matrix: (Units=1/GPa)
#
#
# Indices 1 2 3 4 5 6 
#
# 1 0.013055 -0.005770 -0.001860 0.000000 0.000000 0.000000
# 2 -0.005770 0.013055 -0.001860 0.000000 0.000000 0.000000
# 3 -0.001860 -0.001860 0.007750 0.000000 0.000000 0.000000
# 4 0.000000 0.000000 0.000000 0.040143 0.000000 0.000000
# 5 0.000000 0.000000 0.000000 0.000000 0.040143 0.000000
# 6 0.000000 0.000000 0.000000 0.000000 0.000000 0.024916
#
#
# Mechanical properties :
#
#
# Convention : Reuss Voigt Hill
#
# Bulk Modulus (GPa) = 67.20943 67.79537 67.50240
# Shear Modulus (GPa) = 30.67414 33.31516 31.99465
#
# Velocity S-wave (km/s) = 3.61918 3.77177 3.69626
# Velocity P-wave (km/s) = 6.79444 6.92231 6.85867
#
# Compressibility (1/GPa) = 0.01487886
#
# Stress axis : x y z
#
# Youngs Moduli (GPa) = 76.59957 76.60055 129.02617
#
# Poissons Ratio (x) = 0.44202 0.24000
# Poissons Ratio (y) = 0.44201 0.23999
# Poissons Ratio (z) = 0.14248 0.14248
#
# Static dielectric constant tensor:
#      x y z
#    x 3.989990 0.000000 0.000000 
#    y 0.000000 3.989980 0.000000 
#    z 0.000000 0.000000 4.531660 
# 
# 
# High freq. dielectric constant tensor:
#      x y z
#    x 1.916210 0.000000 0.000000 
#    y 0.000000 1.916210 0.000000 
#    z 0.000000 0.000000 1.952880 
# 
# From -- ./inp_files/854.got.cif
#   From: 2010.03.12/outbox.cif.g09.slc.cpg/sg116_1_cif.got.tgz:854.got - 2010.04.14 02:15:44.
