data_PCOD8310576
_publ_section_title
;
Structure prediction by ZEFSAII (Michael W. Deem and Ramdas Pophale) SiO2 
 PCOD8310576
Probable space group: P -4 N 2
;
_chemical_formula_sum "Si O2"
_cell_formula_units_Z 42
_cell_length_a 14.548302
_cell_length_b 14.548302
_cell_length_c 8.887754
_cell_angle_alpha 90.000000
_cell_angle_beta 90.000000
_cell_angle_gamma 90.000000
_cell_volume 1881.120607
_symmetry_space_group_name_H-M "P -4 N 2"
_symmetry_group_IT_number 118
_symmetry_cell_setting 'tetragonal'
loop_
_space_group_symop_operation_xyz
x,y,z
y,-x,-z
-x,-y,z
-y,x,-z
1/2+y,1/2+x,1/2-z
1/2-y,1/2-x,1/2-z
1/2-x,1/2+y,1/2+z
1/2+x,1/2-y,1/2+z
loop_
_atom_site_type_symbol
_atom_site_label
_atom_site_fract_x
_atom_site_fract_y
_atom_site_fract_z
Si Si1 0.358017 0.085594 0.410157
Si Si2 0.273518 0.107903 0.844807
Si Si3 0.606572 0.398085 0.520732
Si Si4 0.682932 0.059830 0.641344
Si Si5 0.133246 0.853800 0.647516
Si Si6 0.000000 0.000000 0.500000
O O1 0.411187 0.088814 0.250000
O O2 0.408593 0.162767 0.509621
O O3 0.249451 0.106437 0.394426
O O4 0.368471 0.987263 0.497062
O O5 0.306424 0.193577 0.750000
O O6 0.269687 0.018618 0.741222
O O7 0.171678 0.138371 0.889397
O O8 0.506262 0.374548 0.463475
O O9 0.635291 0.350356 0.674828
O O10 0.611819 0.111819 0.750000
O O11 0.765841 0.123825 0.578312
O O12 0.054062 0.925696 0.600313
#
# Coordination Sequence:
#
# PCOD8310576 Si02
#       6
#     8   8   8   8   8   2
#     4  11  23  43  71 101 135 177 234 298 343 411
#     4  10  23  42  66  93 131 183 228 276 346 413
#     4  11  22  38  64  96 135 178 221 279 350 420
#     4  11  25  46  69  97 136 191 234 282 353 426
#     4  12  23  40  69 103 141 174 230 294 361 414
#     4  12  24  40  66 108 140 180 224 298 360 432
#
# _framework density 22.327117999999999
#
# number of rings (size 3 to 8) (size 9 to 14) (size 15 to 20)
#    0.000    0.952    5.714    1.714    0.000    3.429 
#    0.000    1.905    0.000    0.000    0.000    0.000 
#    0.000    0.000    0.000    0.000    0.000    0.000 
#
# Total GULP energy -520708.472827 kJ/mol
# GULP energy per Si atom -12397.820782 kJ/mol
# Density = 2.227630 g / cm^3
# Si number density = 22.327118 Si / 1000 Ang^3
#
#
#
# Elastic Constant Matrix: (Units=GPa)
#
#
# Indices 1 2 3 4 5 6 
#
# 1 120.8424 -9.6680 25.1399 0.0000 0.0000 0.0000
# 2 -9.6680 120.8245 25.1449 0.0000 0.0000 0.0000
# 3 25.1399 25.1449 111.2568 0.0000 0.0000 0.0000
# 4 0.0000 0.0000 0.0000 36.3559 0.0000 0.0000
# 5 0.0000 0.0000 0.0000 0.0000 36.3554 0.0000
# 6 0.0000 0.0000 0.0000 0.0000 0.0000 22.8750
#
#
#
# Elastic Compliance Matrix: (Units=1/GPa)
#
#
# Indices 1 2 3 4 5 6 
#
# 1 0.008841 0.001179 -0.002264 0.000000 0.000000 0.000000
# 2 0.001179 0.008842 -0.002265 0.000000 0.000000 0.000000
# 3 -0.002264 -0.002265 0.010012 0.000000 0.000000 0.000000
# 4 0.000000 0.000000 0.000000 0.027506 0.000000 0.000000
# 5 0.000000 0.000000 0.000000 0.000000 0.027506 0.000000
# 6 0.000000 0.000000 0.000000 0.000000 0.000000 0.043716
#
#
# Mechanical properties :
#
#
# Convention : Reuss Voigt Hill
#
# Bulk Modulus (GPa) = 47.63272 48.23972 47.93622
# Shear Modulus (GPa) = 35.68358 39.93771 37.81064
#
# Velocity S-wave (km/s) = 4.00211 4.23395 4.11966
# Velocity P-wave (km/s) = 6.53729 6.74942 6.64420
#
# Compressibility (1/GPa) = 0.02099397
#
# Stress axis : x y z
#
# Youngs Moduli (GPa) = 113.11544 113.09562 99.88385
#
# Poissons Ratio (x) = -0.13329 0.22614
# Poissons Ratio (y) = -0.13331 0.22621
# Poissons Ratio (z) = 0.25609 0.25613
#
# Static dielectric constant tensor:
#      x y z
#    x 4.117920 0.000000 0.000000 
#    y 0.000000 4.117910 0.000000 
#    z 0.000000 0.000000 -0.220830 
# 
# 
# High freq. dielectric constant tensor:
#      x y z
#    x 1.876830 0.000000 0.000000 
#    y 0.000000 1.876830 0.000000 
#    z 0.000000 0.000000 1.882490 
# 
# From -- ./inp_files/1925.got.cif
#   From: 2010.03.12/outbox.cif.g09.slc.cpg/sg118_1_cif.got.tgz:1925.got - 2010.04.14 02:21:17.
