data_PCOD8310385
_publ_section_title
;
Structure prediction by ZEFSAII (Michael W. Deem and Ramdas Pophale) SiO2 
 PCOD8310385
Probable space group: P -4 B 2
;
_chemical_formula_sum "Si O2"
_cell_formula_units_Z 40
_cell_length_a 15.543233
_cell_length_b 15.543233
_cell_length_c 7.697194
_cell_angle_alpha 90.000000
_cell_angle_beta 90.000000
_cell_angle_gamma 90.000000
_cell_volume 1859.581202
_symmetry_space_group_name_H-M "P -4 B 2"
_symmetry_group_IT_number 117
_symmetry_cell_setting 'tetragonal'
loop_
_space_group_symop_operation_xyz
x,y,z
y,-x,-z
-x,-y,z
-y,x,-z
1/2+y,1/2+x,-z
1/2-y,1/2-x,-z
1/2-x,1/2+y,z
1/2+x,1/2-y,z
loop_
_atom_site_type_symbol
_atom_site_label
_atom_site_fract_x
_atom_site_fract_y
_atom_site_fract_z
Si Si1 0.361863 0.507615 0.008766
Si Si2 0.710754 0.565246 0.352901
Si Si3 0.616125 0.078041 0.189410
Si Si4 0.099892 0.566900 0.689015
Si Si5 0.213014 0.071744 0.662922
O O1 0.309113 0.491143 0.182864
O O2 0.424233 0.586191 0.051728
O O3 0.300309 0.529757 0.850179
O O4 0.804092 0.606225 0.311252
O O5 0.642228 0.641089 0.384132
O O6 0.711553 0.502064 0.516739
O O7 0.531054 0.120390 0.265640
O O8 0.609200 0.972121 0.183354
O O9 0.621715 0.121715 0.000000
O O10 0.060185 0.560185 0.500000
O O11 0.192248 0.616001 0.679505
#
# Coordination Sequence:
#
# PCOD8310385 Si02
#       5
#     8   8   8   8   8
#     4   9  19  37  60  88 129 175 217 264 323 392
#     4  11  23  41  66 101 130 174 227 266 339 394
#     4  11  23  42  68  92 127 174 221 274 337 403
#     4  11  22  42  63  91 125 170 218 266 340 397
#     4  11  23  41  66  96 136 173 221 282 328 400
#
# _framework density 21.51022
#
# number of rings (size 3 to 8) (size 9 to 14) (size 15 to 20)
#    0.000    1.400    2.000    4.800    0.000    2.000 
#    3.600    6.000    0.000    0.000    0.000    0.000 
#    0.000    0.000    0.000    0.000    0.000    0.000 
#
# Total GULP energy -495759.349639 kJ/mol
# GULP energy per Si atom -12393.983741 kJ/mol
# Density = 2.146126 g / cm^3
# Si number density = 21.510220 Si / 1000 Ang^3
#
#
#
# Elastic Constant Matrix: (Units=GPa)
#
#
# Indices 1 2 3 4 5 6 
#
# 1 83.4466 33.7050 22.6877 0.0000 0.0000 0.0000
# 2 33.7050 83.4466 22.6877 0.0000 0.0000 0.0000
# 3 22.6877 22.6877 75.1709 0.0000 0.0000 0.0000
# 4 0.0000 0.0000 0.0000 26.9103 0.0000 0.0000
# 5 0.0000 0.0000 0.0000 0.0000 26.9103 0.0000
# 6 0.0000 0.0000 0.0000 0.0000 0.0000 11.7614
#
#
#
# Elastic Compliance Matrix: (Units=1/GPa)
#
#
# Indices 1 2 3 4 5 6 
#
# 1 0.014885 -0.005219 -0.002917 0.000000 0.000000 0.000000
# 2 -0.005219 0.014885 -0.002917 0.000000 0.000000 0.000000
# 3 -0.002917 -0.002917 0.015064 0.000000 0.000000 0.000000
# 4 0.000000 0.000000 0.000000 0.037160 0.000000 0.000000
# 5 0.000000 0.000000 0.000000 0.000000 0.037160 0.000000
# 6 0.000000 0.000000 0.000000 0.000000 0.000000 0.085024
#
#
# Mechanical properties :
#
#
# Convention : Reuss Voigt Hill
#
# Bulk Modulus (GPa) = 44.00141 44.46941 44.23541
# Shear Modulus (GPa) = 21.38017 23.98198 22.68107
#
# Velocity S-wave (km/s) = 3.15612 3.34265 3.25073
# Velocity P-wave (km/s) = 5.81222 5.96793 5.89059
#
# Compressibility (1/GPa) = 0.02272655
#
# Stress axis : x y z
#
# Youngs Moduli (GPa) = 67.18219 67.18219 66.38343
#
# Poissons Ratio (x) = 0.35062 0.19366
# Poissons Ratio (y) = 0.35062 0.19366
# Poissons Ratio (z) = 0.19599 0.19599
#
# Static dielectric constant tensor:
#      x y z
#    x 3.913750 0.000000 0.000000 
#    y 0.000000 3.913750 0.000000 
#    z 0.000000 0.000000 4.576460 
# 
# 
# High freq. dielectric constant tensor:
#      x y z
#    x 1.838630 0.000000 0.000000 
#    y 0.000000 1.838630 0.000000 
#    z 0.000000 0.000000 1.857830 
# 
# From -- ./inp_files/1740.got.cif
#   From: 2010.03.12/outbox.cif.g09.slc.cpg/sg117_1_cif.got.tgz:1740.got - 2010.04.14 02:19:01.
