data_PCOD8310053
_publ_section_title
;
Structure prediction by ZEFSAII (Michael W. Deem and Ramdas Pophale) SiO2 
 PCOD8310053
Probable space group: P -4 M 2
;
_chemical_formula_sum "Si O2"
_cell_formula_units_Z 56
_cell_length_a 14.095722
_cell_length_b 14.095722
_cell_length_c 17.263855
_cell_angle_alpha 90.000000
_cell_angle_beta 90.000000
_cell_angle_gamma 90.000000
_cell_volume 3430.144624
_symmetry_space_group_name_H-M "P -4 M 2"
_symmetry_group_IT_number 115
_symmetry_cell_setting 'tetragonal'
loop_
_space_group_symop_operation_xyz
x,y,z
y,-x,-z
-x,-y,z
-y,x,-z
y,x,-z
-y,-x,-z
-x,y,z
x,-y,z
loop_
_atom_site_type_symbol
_atom_site_label
_atom_site_fract_x
_atom_site_fract_y
_atom_site_fract_z
Si Si1 0.890578 0.263996 0.311559
Si Si2 0.890578 0.736004 0.688441
Si Si3 0.761973 0.391402 0.590119
Si Si4 0.604614 0.887446 1.000000
Si Si5 0.761973 0.608598 0.409881
Si Si6 0.108404 0.260921 0.865282
Si Si7 0.260921 0.891597 0.865282
O O1 0.832925 0.167075 0.328051
O O2 0.851191 0.349520 0.363503
O O3 0.879059 0.296671 0.222601
O O4 0.000000 0.244748 0.332843
O O5 0.851191 0.650480 0.636497
O O6 0.879059 0.703329 0.777399
O O7 0.000000 0.755252 0.667157
O O8 0.744997 0.500000 0.614756
O O9 0.666435 0.333565 0.610611
O O10 0.786955 0.382784 0.500000
O O11 0.500000 0.841504 1.000000
O O12 0.658003 0.852445 0.077431
O O13 0.596752 0.000000 0.000000
O O14 0.658003 0.852445 0.922569
O O15 0.744997 0.500000 0.385245
O O16 0.164587 0.164588 0.880462
O O17 0.000000 0.236480 0.884356
O O18 0.236480 0.000000 0.884356
#
# Coordination Sequence:
#
# PCOD8310053 Si02
#       7
#     8   8   8   8   8   8   8
#     4   9  18  31  46  66  92 121 153 188 225 267
#     4   9  18  31  46  66  92 121 153 188 225 267
#     4   9  18  32  49  69  92 117 147 186 231 276
#     4   9  17  28  41  59  85 115 145 177 213 254
#     4   9  18  32  49  69  92 117 147 186 231 276
#     4   9  17  29  45  65  89 116 146 181 220 262
#     4   9  17  29  45  65  89 116 146 181 220 262
#
# _framework density 16.325842000000002
#
# number of rings (size 3 to 8) (size 9 to 14) (size 15 to 20)
#    0.000    3.000    0.000    0.429    0.000    3.143 
#    0.000    8.571    0.000    2.571    0.000    4.000 
#    0.000    4.571    0.000    0.000    0.000    0.857 
#
# Total GULP energy -694360.302697 kJ/mol
# GULP energy per Si atom -12399.291120 kJ/mol
# Density = 1.628868 g / cm^3
# Si number density = 16.325842 Si / 1000 Ang^3
#
#
#
# Elastic Constant Matrix: (Units=GPa)
#
#
# Indices 1 2 3 4 5 6 
#
# 1 111.4863 51.6224 54.7847 0.0000 0.0000 0.0000
# 2 51.6224 111.4863 54.7847 0.0000 0.0000 0.0000
# 3 54.7847 54.7847 73.4528 0.0000 0.0000 0.0000
# 4 0.0000 0.0000 0.0000 26.2856 0.0000 0.0000
# 5 0.0000 0.0000 0.0000 0.0000 26.2856 0.0000
# 6 0.0000 0.0000 0.0000 0.0000 0.0000 13.9206
#
#
#
# Elastic Compliance Matrix: (Units=1/GPa)
#
#
# Indices 1 2 3 4 5 6 
#
# 1 0.014496 -0.002209 -0.009164 0.000000 0.000000 0.000000
# 2 -0.002209 0.014496 -0.009164 0.000000 0.000000 0.000000
# 3 -0.009164 -0.009164 0.027285 0.000000 0.000000 0.000000
# 4 0.000000 0.000000 0.000000 0.038044 0.000000 0.000000
# 5 0.000000 0.000000 0.000000 0.000000 0.038044 0.000000
# 6 0.000000 0.000000 0.000000 0.000000 0.000000 0.071836
#
#
# Mechanical properties :
#
#
# Convention : Reuss Voigt Hill
#
# Bulk Modulus (GPa) = 65.78302 68.75657 67.26979
# Shear Modulus (GPa) = 19.97272 22.31391 21.14331
#
# Velocity S-wave (km/s) = 3.50148 3.70102 3.60263
# Velocity P-wave (km/s) = 7.53183 7.77624 7.65501
#
# Compressibility (1/GPa) = 0.01520149
#
# Stress axis : x y z
#
# Youngs Moduli (GPa) = 68.98549 68.98549 36.65082
#
# Poissons Ratio (x) = 0.15237 0.33588
# Poissons Ratio (y) = 0.15237 0.33588
# Poissons Ratio (z) = 0.63220 0.63220
#
# Static dielectric constant tensor:
#      x y z
#    x 3.057860 0.000000 0.000000 
#    y 0.000000 3.057860 0.000000 
#    z 0.000000 0.000000 3.212140 
# 
# 
# High freq. dielectric constant tensor:
#      x y z
#    x 1.615870 0.000000 0.000000 
#    y 0.000000 1.615870 0.000000 
#    z 0.000000 0.000000 1.635270 
# 
# From -- ./inp_files/3824.got.cif
#   From: 2010.03.12/outbox.cif.g09.slc.cpg/sg115_2_cif.got.tgz:3824.got - 2010.04.14 02:11:21.
