data_PCOD8310323
_publ_section_title
;
Structure prediction by ZEFSAII (Michael W. Deem and Ramdas Pophale) SiO2 
 PCOD8310323
Probable space group: P -4 B 2
;
_chemical_formula_sum "Si O2"
_cell_formula_units_Z 54
_cell_length_a 15.546720
_cell_length_b 15.546720
_cell_length_c 10.378134
_cell_angle_alpha 90.000000
_cell_angle_beta 90.000000
_cell_angle_gamma 90.000000
_cell_volume 2508.400205
_symmetry_space_group_name_H-M "P -4 B 2"
_symmetry_group_IT_number 117
_symmetry_cell_setting 'tetragonal'
loop_
_space_group_symop_operation_xyz
x,y,z
y,-x,-z
-x,-y,z
-y,x,-z
1/2+y,1/2+x,-z
1/2-y,1/2-x,-z
1/2-x,1/2+y,z
1/2+x,1/2-y,z
loop_
_atom_site_type_symbol
_atom_site_label
_atom_site_fract_x
_atom_site_fract_y
_atom_site_fract_z
Si Si1 0.805302 0.639663 0.372395
Si Si2 0.950831 0.353004 0.612234
Si Si3 0.910096 0.664261 0.118808
Si Si4 0.973962 0.840796 0.178582
Si Si5 0.500000 0.000000 0.195327
Si Si6 0.610788 0.380280 0.638894
Si Si7 0.500000 0.500000 0.000000
Si Si8 0.159487 0.082977 0.352172
O O1 0.801125 0.698876 0.500000
O O2 0.831536 0.547202 0.434213
O O3 0.868862 0.669952 0.260759
O O4 0.711789 0.640903 0.306511
O O5 0.891058 0.391058 0.500000
O O6 0.912478 0.262694 0.664194
O O7 0.957295 0.423363 0.723147
O O8 0.968223 0.749839 0.103397
O O9 0.966942 0.578168 0.108086
O O10 0.841855 0.658146 0.000000
O O11 0.879983 0.859055 0.238560
O O12 0.044323 0.836010 0.292575
O O13 0.005521 0.913457 0.081666
O O14 0.509311 0.386420 0.664646
O O15 0.630301 0.380458 0.488294
#
# Coordination Sequence:
#
# PCOD8310323 Si02
#       8
#     8   8   8   8   4   8   2   8
#     4  10  22  41  66  98 138 181 223 286 350 409
#     4  10  21  35  64 100 140 173 225 278 342 409
#     4  11  26  46  72  95 136 180 237 292 356 412
#     4  12  26  45  68  98 135 186 231 284 353 415
#     4  10  22  46  68  94 131 184 225 284 341 416
#     4  11  22  39  66  94 139 179 221 276 350 412
#     4  12  28  44  74  92 144 184 240 286 340 432
#     4  11  22  38  65 103 139 179 224 277 341 416
#
# _framework density 21.527666
#
# number of rings (size 3 to 8) (size 9 to 14) (size 15 to 20)
#    0.000    1.185    2.963    3.111    6.222    2.963 
#    0.000    0.000    0.000    0.000    0.000    0.000 
#    0.000    0.000    0.000    0.000    0.000    0.000 
#
# Total GULP energy -669503.864211 kJ/mol
# GULP energy per Si atom -12398.219708 kJ/mol
# Density = 2.147867 g / cm^3
# Si number density = 21.527666 Si / 1000 Ang^3
#
#
#
# Elastic Constant Matrix: (Units=GPa)
#
#
# Indices 1 2 3 4 5 6 
#
# 1 105.5294 31.5811 22.0024 0.0000 0.0000 0.0000
# 2 31.5811 105.5283 22.0023 0.0000 0.0000 0.0000
# 3 22.0024 22.0023 79.7109 0.0000 0.0000 0.0000
# 4 0.0000 0.0000 0.0000 13.2130 0.0000 0.0000
# 5 0.0000 0.0000 0.0000 0.0000 13.2131 0.0000
# 6 0.0000 0.0000 0.0000 0.0000 0.0000 22.8495
#
#
#
# Elastic Compliance Matrix: (Units=1/GPa)
#
#
# Indices 1 2 3 4 5 6 
#
# 1 0.010763 -0.002760 -0.002209 0.000000 0.000000 0.000000
# 2 -0.002760 0.010763 -0.002209 0.000000 0.000000 0.000000
# 3 -0.002209 -0.002209 0.013765 0.000000 0.000000 0.000000
# 4 0.000000 0.000000 0.000000 0.075683 0.000000 0.000000
# 5 0.000000 0.000000 0.000000 0.000000 0.075682 0.000000
# 6 0.000000 0.000000 0.000000 0.000000 0.000000 0.043765
#
#
# Mechanical properties :
#
#
# Convention : Reuss Voigt Hill
#
# Bulk Modulus (GPa) = 47.76922 49.10446 48.43684
# Shear Modulus (GPa) = 19.86064 24.20065 22.03064
#
# Velocity S-wave (km/s) = 3.04067 3.35649 3.20248
# Velocity P-wave (km/s) = 5.87924 6.15474 6.01857
#
# Compressibility (1/GPa) = 0.02093398
#
# Stress axis : x y z
#
# Youngs Moduli (GPa) = 92.91398 92.91301 72.64932
#
# Poissons Ratio (x) = 0.25647 0.16047
# Poissons Ratio (y) = 0.25648 0.16047
# Poissons Ratio (z) = 0.20523 0.20523
#
# Static dielectric constant tensor:
#      x y z
#    x 4.047320 0.000000 0.000000 
#    y 0.000000 4.047320 0.000000 
#    z 0.000000 0.000000 3.663570 
# 
# 
# High freq. dielectric constant tensor:
#      x y z
#    x 1.849390 0.000000 0.000000 
#    y 0.000000 1.849390 0.000000 
#    z 0.000000 0.000000 1.830720 
# 
# From -- ./inp_files/2886.got.cif
#   From: 2010.03.12/outbox.cif.g09.slc.cpg/sg117_2_cif.got.tgz:2886.got - 2010.04.14 02:19:01.
