data_PCOD8310085
_publ_section_title
;
Structure prediction by ZEFSAII (Michael W. Deem and Ramdas Pophale) SiO2 
 PCOD8310085
Probable space group: P -4 C 2
;
_chemical_formula_sum "Si O2"
_cell_formula_units_Z 64
_cell_length_a 27.341207
_cell_length_b 27.341207
_cell_length_c 5.198797
_cell_angle_alpha 90.000000
_cell_angle_beta 90.000000
_cell_angle_gamma 90.000000
_cell_volume 3886.317029
_symmetry_space_group_name_H-M "P -4 C 2"
_symmetry_group_IT_number 116
_symmetry_cell_setting 'tetragonal'
loop_
_space_group_symop_operation_xyz
x,y,z
y,-x,-z
-x,-y,z
-y,x,-z
y,x,1/2-z
-y,-x,1/2-z
-x,y,1/2+z
x,-y,1/2+z
loop_
_atom_site_type_symbol
_atom_site_label
_atom_site_fract_x
_atom_site_fract_y
_atom_site_fract_z
Si Si1 0.028239 0.275246 0.248123
Si Si2 0.971887 0.608006 0.247329
Si Si3 0.723318 0.530807 0.731039
Si Si4 0.609858 0.530561 0.727053
Si Si5 0.197002 0.275732 0.750804
Si Si6 0.803655 0.608487 0.751509
Si Si7 0.137743 0.608599 0.751047
Si Si8 0.275690 0.138107 0.249792
O O1 0.029188 0.333618 0.248093
O O2 0.083295 0.253853 0.249915
O O3 0.999727 0.255436 0.497293
O O4 0.916919 0.586609 0.246847
O O5 0.000001 0.588133 0.497356
O O6 0.737700 0.503030 0.470824
O O7 0.666541 0.544779 0.737575
O O8 0.751610 0.581962 0.745606
O O9 0.580857 0.580857 0.750000
O O10 0.595599 0.505070 0.460070
O O11 0.249650 0.249650 0.750000
O O12 0.206523 0.333671 0.751534
O O13 0.166508 0.258240 0.503435
O O14 0.166807 0.257859 0.998521
O O15 0.835021 0.591053 0.507277
O O16 0.832928 0.590537 0.001983
O O17 0.134179 0.666460 0.747736
#
# Coordination Sequence:
#
# PCOD8310085 Si02
#       8
#     8   8   8   8   8   8   8   8
#     4   9  15  23  37  56  78 110 146 178 225 274
#     4   9  15  23  37  59  89 117 139 171 218 274
#     4  10  21  37  54  73  97 121 148 186 228 264
#     4  10  21  36  55  79 104 128 151 177 213 259
#     4  10  19  30  44  63  87 120 156 184 221 265
#     4  10  19  32  49  66  89 117 148 189 224 263
#     4   9  17  28  43  65  90 116 146 181 225 268
#     4   9  17  28  40  58  87 116 146 190 228 258
#
# _framework density 16.468032000000001
#
# number of rings (size 3 to 8) (size 9 to 14) (size 15 to 20)
#    0.000    2.500    0.000    3.000    0.000    7.250 
#    0.000    0.000    0.000    9.000    0.000    0.000 
#    0.000   35.000    0.000    0.000    0.000    0.000 
#
# Total GULP energy -793630.942595 kJ/mol
# GULP energy per Si atom -12400.483478 kJ/mol
# Density = 1.643055 g / cm^3
# Si number density = 16.468032 Si / 1000 Ang^3
#
#
#
# Elastic Constant Matrix: (Units=GPa)
#
#
# Indices 1 2 3 4 5 6 
#
# 1 67.7627 47.4836 33.1011 0.0000 0.0000 0.0000
# 2 47.4836 67.7627 33.1011 0.0000 0.0000 0.0000
# 3 33.1011 33.1011 135.1378 0.0000 0.0000 0.0000
# 4 0.0000 0.0000 0.0000 12.2611 0.0000 0.0000
# 5 0.0000 0.0000 0.0000 0.0000 12.2611 0.0000
# 6 0.0000 0.0000 0.0000 0.0000 0.0000 5.1096
#
#
#
# Elastic Compliance Matrix: (Units=1/GPa)
#
#
# Indices 1 2 3 4 5 6 
#
# 1 0.029705 -0.019607 -0.002473 0.000000 0.000000 0.000000
# 2 -0.019607 0.029705 -0.002473 0.000000 0.000000 0.000000
# 3 -0.002473 -0.002473 0.008612 0.000000 0.000000 0.000000
# 4 0.000000 0.000000 0.000000 0.081559 0.000000 0.000000
# 5 0.000000 0.000000 0.000000 0.000000 0.081559 0.000000
# 6 0.000000 0.000000 0.000000 0.000000 0.000000 0.195711
#
#
# Mechanical properties :
#
#
# Convention : Reuss Voigt Hill
#
# Bulk Modulus (GPa) = 52.87177 55.33722 54.10449
# Shear Modulus (GPa) = 10.36783 16.39153 13.37968
#
# Velocity S-wave (km/s) = 2.51185 3.15835 2.85347
# Velocity P-wave (km/s) = 6.37087 6.85390 6.61679
#
# Compressibility (1/GPa) = 0.01891369
#
# Stress axis : x y z
#
# Youngs Moduli (GPa) = 33.66460 33.66460 116.12315
#
# Poissons Ratio (x) = 0.66006 0.28722
# Poissons Ratio (y) = 0.66006 0.28722
# Poissons Ratio (z) = 0.08327 0.08327
#
# Static dielectric constant tensor:
#      x y z
#    x 2.879990 0.000000 0.000000 
#    y 0.000000 2.879990 0.000000 
#    z 0.000000 0.000000 3.485600 
# 
# 
# High freq. dielectric constant tensor:
#      x y z
#    x 1.603670 0.000000 0.000000 
#    y 0.000000 1.603670 0.000000 
#    z 0.000000 0.000000 1.660500 
# 
# From -- ./inp_files/277.got.cif
#   From: 2010.03.12/outbox.cif.g09.slc.cpg/sg116_1_cif.got.tgz:277.got - 2010.04.14 02:15:44.
