data_PCOD8310637
_publ_section_title
;
Structure prediction by ZEFSAII (Michael W. Deem and Ramdas Pophale) SiO2 
 PCOD8310637
Probable space group: P -4 N 2
;
_chemical_formula_sum "Si O2"
_cell_formula_units_Z 48
_cell_length_a 8.492620
_cell_length_b 8.492620
_cell_length_c 30.572763
_cell_angle_alpha 90.000000
_cell_angle_beta 90.000000
_cell_angle_gamma 90.000000
_cell_volume 2205.048133
_symmetry_space_group_name_H-M "P -4 N 2"
_symmetry_group_IT_number 118
_symmetry_cell_setting 'tetragonal'
loop_
_space_group_symop_operation_xyz
x,y,z
y,-x,-z
-x,-y,z
-y,x,-z
1/2+y,1/2+x,1/2-z
1/2-y,1/2-x,1/2-z
1/2-x,1/2+y,1/2+z
1/2+x,1/2-y,1/2+z
loop_
_atom_site_type_symbol
_atom_site_label
_atom_site_fract_x
_atom_site_fract_y
_atom_site_fract_z
Si Si1 0.232133 0.885831 0.129226
Si Si2 0.763619 0.108562 0.290373
Si Si3 0.236382 0.891439 0.709627
Si Si4 0.874769 0.774587 0.450240
Si Si5 0.232133 0.885831 0.870775
Si Si6 0.874769 0.774587 0.549760
O O1 0.356656 0.825752 0.164607
O O2 0.302005 0.857547 0.081001
O O3 0.070274 0.792307 0.135702
O O4 0.207694 0.070274 0.135702
O O5 0.653565 0.153565 0.250000
O O6 0.923974 0.206109 0.287968
O O7 0.793895 0.923975 0.287968
O O8 0.346434 0.846434 0.750000
O O9 0.325752 0.856656 0.664607
O O10 0.802005 0.642453 0.418999
O O11 0.845647 0.720299 0.500000
O O12 0.059781 0.790395 0.440885
O O13 0.790394 0.940219 0.440885
#
# Coordination Sequence:
#
# PCOD8310637 Si02
#       6
#     8   8   8   8   8   8
#     4  11  24  39  56  83 118 153 191 234 280 334
#     4  11  24  41  62  88 116 147 187 233 280 334
#     4  11  24  41  62  88 116 147 187 233 280 334
#     4   9  19  37  60  85 113 147 190 238 286 338
#     4  11  24  39  56  83 118 153 191 234 280 334
#     4   9  19  37  60  85 113 147 190 238 286 338
#
# _framework density 21.768231
#
# number of rings (size 3 to 8) (size 9 to 14) (size 15 to 20)
#    0.000    1.667    0.000    5.000    0.000   15.333 
#    0.000    5.000    0.000    0.000    0.000    0.000 
#    0.000    0.000    0.000    0.000    0.000    0.000 
#
# Total GULP energy -595518.159901 kJ/mol
# GULP energy per Si atom -12406.628331 kJ/mol
# Density = 2.171869 g / cm^3
# Si number density = 21.768231 Si / 1000 Ang^3
#
#
#
# Elastic Constant Matrix: (Units=GPa)
#
#
# Indices 1 2 3 4 5 6 
#
# 1 12.7986 -6.6275 9.1690 0.0000 0.0000 0.0000
# 2 -6.6275 12.7986 9.1690 0.0000 0.0000 0.0000
# 3 9.1690 9.1690 117.0417 0.0000 0.0000 0.0000
# 4 0.0000 0.0000 0.0000 15.8099 0.0000 0.0000
# 5 0.0000 0.0000 0.0000 0.0000 15.8099 0.0000
# 6 0.0000 0.0000 0.0000 0.0000 0.0000 35.1651
#
#
#
# Elastic Compliance Matrix: (Units=1/GPa)
#
#
# Indices 1 2 3 4 5 6 
#
# 1 0.131347 0.079870 -0.016547 0.000000 0.000000 0.000000
# 2 0.079870 0.131347 -0.016547 0.000000 0.000000 0.000000
# 3 -0.016547 -0.016547 0.011136 0.000000 0.000000 0.000000
# 4 0.000000 0.000000 0.000000 0.063251 0.000000 0.000000
# 5 0.000000 0.000000 0.000000 0.000000 0.063251 0.000000
# 6 0.000000 0.000000 0.000000 0.000000 0.000000 0.028437
#
#
# Mechanical properties :
#
#
# Convention : Reuss Voigt Hill
#
# Bulk Modulus (GPa) = 2.72195 18.45111 10.58653
# Shear Modulus (GPa) = 10.92469 22.08555 16.50512
#
# Velocity S-wave (km/s) = 2.24266 3.18870 2.75657
# Velocity P-wave (km/s) = 2.82120 4.69592 3.87368
#
# Compressibility (1/GPa) = 0.36738373
#
# Stress axis : x y z
#
# Youngs Moduli (GPa) = 7.61342 7.61342 89.79483
#
# Poissons Ratio (x) = -0.60808 1.48581
# Poissons Ratio (y) = -0.60808 1.48581
# Poissons Ratio (z) = 0.12598 0.12598
#
# Static dielectric constant tensor:
#      x y z
#    x 3.859630 0.000000 0.000000 
#    y 0.000000 3.859630 0.000000 
#    z 0.000000 0.000000 3.930330 
# 
# 
# High freq. dielectric constant tensor:
#      x y z
#    x 1.856700 0.000000 0.000000 
#    y 0.000000 1.856700 0.000000 
#    z 0.000000 0.000000 1.866440 
# 
# From -- ./inp_files/6837.got.cif
#   From: 2010.03.12/outbox.cif.g09.slc.cpg/sg118_4_cif.got.tgz:6837.got - 2010.04.14 02:21:17.
