data_PCOD8310540
_publ_section_title
;
Structure prediction by ZEFSAII (Michael W. Deem and Ramdas Pophale) SiO2 
 PCOD8310540
Probable space group: P -4 N 2
;
_chemical_formula_sum "Si O2"
_cell_formula_units_Z 40
_cell_length_a 8.786595
_cell_length_b 8.786595
_cell_length_c 22.288117
_cell_angle_alpha 90.000000
_cell_angle_beta 90.000000
_cell_angle_gamma 90.000000
_cell_volume 1720.737395
_symmetry_space_group_name_H-M "P -4 N 2"
_symmetry_group_IT_number 118
_symmetry_cell_setting 'tetragonal'
loop_
_space_group_symop_operation_xyz
x,y,z
y,-x,-z
-x,-y,z
-y,x,-z
1/2+y,1/2+x,1/2-z
1/2-y,1/2-x,1/2-z
1/2-x,1/2+y,1/2+z
1/2+x,1/2-y,1/2+z
loop_
_atom_site_type_symbol
_atom_site_label
_atom_site_fract_x
_atom_site_fract_y
_atom_site_fract_z
Si Si1 0.741893 0.822657 0.312280
Si Si2 0.081309 0.160272 0.605442
Si Si3 0.832950 0.445771 0.189113
Si Si4 0.641000 0.095917 0.011831
Si Si5 0.103914 0.853320 0.914088
O O1 0.651551 0.848449 0.250000
O O2 0.664751 0.684153 0.348344
O O3 0.912914 0.775075 0.294927
O O4 0.738752 0.977720 0.350168
O O5 0.249563 0.145710 0.635294
O O6 0.094226 0.242883 0.541167
O O7 0.000000 0.000000 0.592921
O O8 0.846089 0.346089 0.250000
O O9 0.000000 0.500000 0.167420
O O10 0.500000 0.000000 0.985657
O O11 0.713553 0.996765 0.064376
O O12 0.753024 0.123971 0.957159
O O13 0.000000 0.000000 0.912570
#
# Coordination Sequence:
#
# PCOD8310540 Si02
#       5
#     8   8   8   8   8
#     4  11  24  46  71 111 153 188 247 308 379 453
#     4  10  25  45  71 106 150 193 245 312 379 446
#     4  10  21  42  67 108 139 193 253 295 364 446
#     4  12  25  50  72 107 148 191 251 311 378 451
#     4  12  27  49  75 110 146 199 254 309 379 456
#
# _framework density 23.245847000000001
#
# number of rings (size 3 to 8) (size 9 to 14) (size 15 to 20)
#    0.000    1.000    6.000    0.000    2.800    8.000 
#    0.000    1.000    0.000    0.000    0.000    0.000 
#    0.000    0.000    0.000    0.000    0.000    0.000 
#
# Total GULP energy -496142.878557 kJ/mol
# GULP energy per Si atom -12403.571964 kJ/mol
# Density = 2.319294 g / cm^3
# Si number density = 23.245847 Si / 1000 Ang^3
#
#
#
# Elastic Constant Matrix: (Units=GPa)
#
#
# Indices 1 2 3 4 5 6 
#
# 1 118.9980 44.0763 56.6420 0.0000 0.0000 0.0000
# 2 44.0763 118.9980 56.6420 0.0000 0.0000 0.0000
# 3 56.6420 56.6420 147.3042 0.0000 0.0000 0.0000
# 4 0.0000 0.0000 0.0000 27.2156 0.0000 0.0000
# 5 0.0000 0.0000 0.0000 0.0000 27.2156 0.0000
# 6 0.0000 0.0000 0.0000 0.0000 0.0000 35.2152
#
#
#
# Elastic Compliance Matrix: (Units=1/GPa)
#
#
# Indices 1 2 3 4 5 6 
#
# 1 0.010857 -0.002490 -0.003217 0.000000 0.000000 0.000000
# 2 -0.002490 0.010857 -0.003217 0.000000 0.000000 0.000000
# 3 -0.003217 -0.003217 0.009263 0.000000 0.000000 0.000000
# 4 0.000000 0.000000 0.000000 0.036744 0.000000 0.000000
# 5 0.000000 0.000000 0.000000 0.000000 0.036744 0.000000
# 6 0.000000 0.000000 0.000000 0.000000 0.000000 0.028397
#
#
# Mechanical properties :
#
#
# Convention : Reuss Voigt Hill
#
# Bulk Modulus (GPa) = 76.17386 77.78009 76.97698
# Shear Modulus (GPa) = 32.23992 33.12526 32.68259
#
# Velocity S-wave (km/s) = 3.72817 3.77901 3.75367
# Velocity P-wave (km/s) = 7.16744 7.25077 7.20923
#
# Compressibility (1/GPa) = 0.01312786
#
# Stress axis : x y z
#
# Youngs Moduli (GPa) = 92.10436 92.10436 107.95635
#
# Poissons Ratio (x) = 0.22934 0.34734
# Poissons Ratio (y) = 0.22934 0.34734
# Poissons Ratio (z) = 0.29634 0.29634
#
# Static dielectric constant tensor:
#      x y z
#    x 4.389300 0.000000 0.000000 
#    y 0.000000 4.389300 0.000000 
#    z 0.000000 0.000000 4.110210 
# 
# 
# High freq. dielectric constant tensor:
#      x y z
#    x 1.923120 0.000000 0.000000 
#    y 0.000000 1.923120 0.000000 
#    z 0.000000 0.000000 1.917710 
# 
# From -- ./inp_files/6027.got.cif
#   From: 2010.03.12/outbox.cif.g09.slc.cpg/sg118_4_cif.got.tgz:6027.got - 2010.04.14 02:21:17.
