data_PCOD8310553
_publ_section_title
;
Structure prediction by ZEFSAII (Michael W. Deem and Ramdas Pophale) SiO2 
 PCOD8310553
Probable space group: P -4 N 2
;
_chemical_formula_sum "Si O2"
_cell_formula_units_Z 32
_cell_length_a 11.192794
_cell_length_b 11.192794
_cell_length_c 13.019055
_cell_angle_alpha 90.000000
_cell_angle_beta 90.000000
_cell_angle_gamma 90.000000
_cell_volume 1631.009472
_symmetry_space_group_name_H-M "P -4 N 2"
_symmetry_group_IT_number 118
_symmetry_cell_setting 'tetragonal'
loop_
_space_group_symop_operation_xyz
x,y,z
y,-x,-z
-x,-y,z
-y,x,-z
1/2+y,1/2+x,1/2-z
1/2-y,1/2-x,1/2-z
1/2-x,1/2+y,1/2+z
1/2+x,1/2-y,1/2+z
loop_
_atom_site_type_symbol
_atom_site_label
_atom_site_fract_x
_atom_site_fract_y
_atom_site_fract_z
Si Si1 0.672206 0.482638 0.453346
Si Si2 0.136057 0.182376 0.772800
Si Si3 0.879300 0.565601 0.569256
Si Si4 0.554544 0.331085 0.048433
O O1 0.611872 0.390002 0.534145
O O2 0.650739 0.438003 0.338107
O O3 0.812957 0.492123 0.478665
O O4 0.269625 0.230376 0.750000
O O5 0.069207 0.289387 0.833894
O O6 0.063024 0.148112 0.671007
O O7 0.908120 0.696140 0.523918
O O8 0.000000 0.500000 0.603313
O O9 0.419325 0.355667 0.012065
#
# Coordination Sequence:
#
# PCOD8310553 Si02
#       4
#     8   8   8   8
#     4   9  19  36  63  92 119 159 201 251 307 365
#     4   9  20  39  63  89 124 160 203 254 308 363
#     4  10  22  37  68  92 123 159 204 257 307 372
#     4  10  23  40  63  86 123 163 203 255 312 362
#
# _framework density 19.61975
#
# number of rings (size 3 to 8) (size 9 to 14) (size 15 to 20)
#    0.000    2.500    0.000    0.000   10.500   12.500 
#    0.000    1.250   11.000    0.000    0.000    0.000 
#    0.000    0.000    0.000    0.000    0.000    0.000 
#
# Total GULP energy -396663.750005 kJ/mol
# GULP energy per Si atom -12395.742188 kJ/mol
# Density = 1.957509 g / cm^3
# Si number density = 19.619750 Si / 1000 Ang^3
#
#
#
# Elastic Constant Matrix: (Units=GPa)
#
#
# Indices 1 2 3 4 5 6 
#
# 1 105.8616 43.8493 63.7525 0.0000 0.0000 0.0000
# 2 43.8493 105.8618 63.7527 0.0000 0.0000 0.0000
# 3 63.7525 63.7527 129.8617 0.0000 0.0000 0.0000
# 4 0.0000 0.0000 0.0000 27.6260 0.0000 0.0000
# 5 0.0000 0.0000 0.0000 0.0000 27.6251 0.0000
# 6 0.0000 0.0000 0.0000 0.0000 0.0000 27.2140
#
#
#
# Elastic Compliance Matrix: (Units=1/GPa)
#
#
# Indices 1 2 3 4 5 6 
#
# 1 0.013802 -0.002323 -0.005635 0.000000 0.000000 0.000000
# 2 -0.002323 0.013802 -0.005635 0.000000 0.000000 0.000000
# 3 -0.005635 -0.005635 0.013234 0.000000 0.000000 0.000000
# 4 0.000000 0.000000 0.000000 0.036198 0.000000 0.000000
# 5 0.000000 0.000000 0.000000 0.000000 0.036199 0.000000
# 6 0.000000 0.000000 0.000000 0.000000 0.000000 0.036746
#
#
# Mechanical properties :
#
#
# Convention : Reuss Voigt Hill
#
# Bulk Modulus (GPa) = 73.25893 76.03267 74.64580
# Shear Modulus (GPa) = 27.51497 27.84174 27.67836
#
# Velocity S-wave (km/s) = 3.74894 3.77114 3.76006
# Velocity P-wave (km/s) = 7.49399 7.60258 7.54848
#
# Compressibility (1/GPa) = 0.01365021
#
# Stress axis : x y z
#
# Youngs Moduli (GPa) = 72.45107 72.45103 75.56522
#
# Poissons Ratio (x) = 0.16833 0.42584
# Poissons Ratio (y) = 0.16833 0.42584
# Poissons Ratio (z) = 0.40829 0.40829
#
# Static dielectric constant tensor:
#      x y z
#    x 3.681180 0.000000 0.000000 
#    y 0.000000 3.681180 0.000000 
#    z 0.000000 0.000000 3.635770 
# 
# 
# High freq. dielectric constant tensor:
#      x y z
#    x 1.762450 0.000000 0.000000 
#    y 0.000000 1.762450 0.000000 
#    z 0.000000 0.000000 1.752290 
# 
# From -- ./inp_files/2867.got.cif
#   From: 2010.03.12/outbox.cif.g09.slc.cpg/sg118_2_cif.got.tgz:2867.got - 2010.04.14 02:21:17.
