data_PCOD8310099
_publ_section_title
;
Structure prediction by ZEFSAII (Michael W. Deem and Ramdas Pophale) SiO2 
 PCOD8310099
Probable space group: P -4 C 2
;
_chemical_formula_sum "Si O2"
_cell_formula_units_Z 36
_cell_length_a 10.892366
_cell_length_b 10.892366
_cell_length_c 17.266585
_cell_angle_alpha 90.000000
_cell_angle_beta 90.000000
_cell_angle_gamma 90.000000
_cell_volume 2048.570444
_symmetry_space_group_name_H-M "P -4 C 2"
_symmetry_group_IT_number 116
_symmetry_cell_setting 'tetragonal'
loop_
_space_group_symop_operation_xyz
x,y,z
y,-x,-z
-x,-y,z
-y,x,-z
y,x,1/2-z
-y,-x,1/2-z
-x,y,1/2+z
x,-y,1/2+z
loop_
_atom_site_type_symbol
_atom_site_label
_atom_site_fract_x
_atom_site_fract_y
_atom_site_fract_z
Si Si1 0.240807 0.158457 0.335436
Si Si2 0.702897 0.484204 0.627388
Si Si3 0.626285 0.064182 0.401805
Si Si4 0.500000 0.500000 0.500000
Si Si5 0.173999 0.070575 0.023705
Si Si6 0.500000 0.500000 0.250000
O O1 0.197285 0.197285 0.250000
O O2 0.347123 0.244210 0.369235
O O3 0.122384 0.176840 0.389478
O O4 0.291805 0.017650 0.341554
O O5 0.805242 0.590581 0.634737
O O6 0.623879 0.498293 0.549831
O O7 0.622519 0.504918 0.701811
O O8 0.696051 0.087464 0.482241
O O9 0.500000 0.000000 0.425600
O O10 0.073280 0.141253 0.971279
#
# Coordination Sequence:
#
# PCOD8310099 Si02
#       6
#     8   8   8   2   8   2
#     4  10  19  35  57  76 109 145 178 228 288 332
#     4  10  19  35  52  79 108 142 184 225 273 331
#     4   9  19  35  55  76 106 144 184 227 269 328
#     4  10  20  30  60  82 104 150 192 222 276 342
#     4   9  18  35  55  78 105 139 180 229 274 328
#     4  10  20  34  52  74 110 144 164 226 284 314
#
# _framework density 17.573231
#
# number of rings (size 3 to 8) (size 9 to 14) (size 15 to 20)
#    0.000    2.444    1.111    1.333    0.000    0.000 
#    4.000   11.111    0.000    0.000    0.000    0.000 
#    0.000    0.000    0.000    0.000    0.000    0.000 
#
# Total GULP energy -446266.488461 kJ/mol
# GULP energy per Si atom -12396.291346 kJ/mol
# Density = 1.753323 g / cm^3
# Si number density = 17.573231 Si / 1000 Ang^3
#
#
#
# Elastic Constant Matrix: (Units=GPa)
#
#
# Indices 1 2 3 4 5 6 
#
# 1 110.6356 45.1062 59.3584 0.0000 0.0000 0.0000
# 2 45.1062 110.6356 59.3584 0.0000 0.0000 0.0000
# 3 59.3584 59.3584 113.9784 0.0000 0.0000 0.0000
# 4 0.0000 0.0000 0.0000 21.3902 0.0000 0.0000
# 5 0.0000 0.0000 0.0000 0.0000 21.3902 0.0000
# 6 0.0000 0.0000 0.0000 0.0000 0.0000 17.6853
#
#
#
# Elastic Compliance Matrix: (Units=1/GPa)
#
#
# Indices 1 2 3 4 5 6 
#
# 1 0.012954 -0.002306 -0.005545 0.000000 0.000000 0.000000
# 2 -0.002306 0.012954 -0.005545 0.000000 0.000000 0.000000
# 3 -0.005545 -0.005545 0.014549 0.000000 0.000000 0.000000
# 4 0.000000 0.000000 0.000000 0.046750 0.000000 0.000000
# 5 0.000000 0.000000 0.000000 0.000000 0.046750 0.000000
# 6 0.000000 0.000000 0.000000 0.000000 0.000000 0.056544
#
#
# Mechanical properties :
#
#
# Convention : Reuss Voigt Hill
#
# Bulk Modulus (GPa) = 73.18468 73.65504 73.41986
# Shear Modulus (GPa) = 22.53772 23.52161 23.02966
#
# Velocity S-wave (km/s) = 3.58509 3.66251 3.62401
# Velocity P-wave (km/s) = 7.67288 7.73883 7.70593
#
# Compressibility (1/GPa) = 0.01366406
#
# Stress axis : x y z
#
# Youngs Moduli (GPa) = 77.19569 77.19569 68.73146
#
# Poissons Ratio (x) = 0.17803 0.38113
# Poissons Ratio (y) = 0.17803 0.38113
# Poissons Ratio (z) = 0.42807 0.42807
#
# Static dielectric constant tensor:
#      x y z
#    x 3.468700 0.000000 0.000000 
#    y 0.000000 3.468700 0.000000 
#    z 0.000000 0.000000 3.059740 
# 
# 
# High freq. dielectric constant tensor:
#      x y z
#    x 1.690770 0.000000 0.000000 
#    y 0.000000 1.690770 0.000000 
#    z 0.000000 0.000000 1.660810 
# 
# From -- ./inp_files/3259.got.cif
#   From: 2010.03.12/outbox.cif.g09.slc.cpg/sg116_2_cif.got.tgz:3259.got - 2010.04.14 02:15:44.
