data_PCOD8310601
_publ_section_title
;
Structure prediction by ZEFSAII (Michael W. Deem and Ramdas Pophale) SiO2 
 PCOD8310601
Probable space group: P -4 N 2
;
_chemical_formula_sum "Si O2"
_cell_formula_units_Z 40
_cell_length_a 19.432337
_cell_length_b 19.432337
_cell_length_c 4.919912
_cell_angle_alpha 90.000000
_cell_angle_beta 90.000000
_cell_angle_gamma 90.000000
_cell_volume 1857.836119
_symmetry_space_group_name_H-M "P -4 N 2"
_symmetry_group_IT_number 118
_symmetry_cell_setting 'tetragonal'
loop_
_space_group_symop_operation_xyz
x,y,z
y,-x,-z
-x,-y,z
-y,x,-z
1/2+y,1/2+x,1/2-z
1/2-y,1/2-x,1/2-z
1/2-x,1/2+y,1/2+z
1/2+x,1/2-y,1/2+z
loop_
_atom_site_type_symbol
_atom_site_label
_atom_site_fract_x
_atom_site_fract_y
_atom_site_fract_z
Si Si1 0.177579 0.570039 0.764161
Si Si2 0.265738 0.556345 0.265043
Si Si3 0.058483 0.379826 0.493610
Si Si4 0.093460 0.231507 0.263542
Si Si5 0.297662 0.318038 0.737817
O O1 0.145904 0.645904 0.750000
O O2 0.200501 0.545005 0.465769
O O3 0.243480 0.573911 0.958860
O O4 0.120807 0.519152 0.893277
O O5 0.305863 0.482287 0.262447
O O6 0.306452 0.623783 0.367733
O O7 0.064425 0.435576 0.250000
O O8 0.080481 0.307385 0.371397
O O9 0.107212 0.392789 0.750000
O O10 0.145055 0.194210 0.470940
O O11 0.129190 0.237084 0.971204
O O12 0.252527 0.247474 0.750000
#
# Coordination Sequence:
#
# PCOD8310601 Si02
#       5
#     8   8   8   8   8
#     4  11  22  38  57  81 119 162 201 245 299 362
#     4  11  24  41  61  88 124 159 194 254 324 367
#     4  11  21  36  56  81 117 158 200 244 294 355
#     4  11  23  39  60  86 121 156 191 251 317 362
#     4  12  23  38  66  95 118 154 211 258 294 368
#
# _framework density 21.530425000000001
#
# number of rings (size 3 to 8) (size 9 to 14) (size 15 to 20)
#    0.000    0.800    0.000   11.400    0.000    0.400 
#    0.000    3.000    0.000    3.600    0.000    0.000 
#    0.000    0.000    0.000    0.000    0.000    0.000 
#
# Total GULP energy -495890.896293 kJ/mol
# GULP energy per Si atom -12397.272407 kJ/mol
# Density = 2.148142 g / cm^3
# Si number density = 21.530425 Si / 1000 Ang^3
#
#
#
# Elastic Constant Matrix: (Units=GPa)
#
#
# Indices 1 2 3 4 5 6 
#
# 1 84.6454 37.2091 22.5710 0.0000 0.0000 0.0000
# 2 37.2091 84.6483 22.5709 0.0000 0.0000 0.0000
# 3 22.5710 22.5709 99.5331 0.0000 0.0000 0.0000
# 4 0.0000 0.0000 0.0000 28.5218 0.0000 0.0000
# 5 0.0000 0.0000 0.0000 0.0000 28.5211 0.0000
# 6 0.0000 0.0000 0.0000 0.0000 0.0000 29.0338
#
#
#
# Elastic Compliance Matrix: (Units=1/GPa)
#
#
# Indices 1 2 3 4 5 6 
#
# 1 0.015020 -0.006061 -0.002032 0.000000 0.000000 0.000000
# 2 -0.006061 0.015019 -0.002032 0.000000 0.000000 0.000000
# 3 -0.002032 -0.002032 0.010968 0.000000 0.000000 0.000000
# 4 0.000000 0.000000 0.000000 0.035061 0.000000 0.000000
# 5 0.000000 0.000000 0.000000 0.000000 0.035062 0.000000
# 6 0.000000 0.000000 0.000000 0.000000 0.000000 0.034443
#
#
# Mechanical properties :
#
#
# Convention : Reuss Voigt Hill
#
# Bulk Modulus (GPa) = 48.16978 48.16984 48.16981
# Shear Modulus (GPa) = 28.94515 29.64707 29.29611
#
# Velocity S-wave (km/s) = 3.67056 3.71480 3.69275
# Velocity P-wave (km/s) = 6.35496 6.38914 6.37207
#
# Compressibility (1/GPa) = 0.02075990
#
# Stress axis : x y z
#
# Youngs Moduli (GPa) = 66.57824 66.58073 91.17167
#
# Poissons Ratio (x) = 0.40352 0.18523
# Poissons Ratio (y) = 0.40350 0.18522
# Poissons Ratio (z) = 0.13527 0.13526
#
# Static dielectric constant tensor:
#      x y z
#    x 3.925600 0.000000 0.000000 
#    y 0.000000 3.925600 0.000000 
#    z 0.000000 0.000000 4.279120 
# 
# 
# High freq. dielectric constant tensor:
#      x y z
#    x 1.822620 0.000000 0.000000 
#    y 0.000000 1.822620 0.000000 
#    z 0.000000 0.000000 1.874940 
# 
# From -- ./inp_files/613.got.cif
#   From: 2010.03.12/outbox.cif.g09.slc.cpg/sg118_1_cif.got.tgz:613.got - 2010.04.14 02:21:17.
