data_PCOD8310536
_publ_section_title
;
Structure prediction by ZEFSAII (Michael W. Deem and Ramdas Pophale) SiO2 
 PCOD8310536
Probable space group: P -4 N 2
;
_chemical_formula_sum "Si O2"
_cell_formula_units_Z 26
_cell_length_a 7.996519
_cell_length_b 7.996519
_cell_length_c 21.621377
_cell_angle_alpha 90.000000
_cell_angle_beta 90.000000
_cell_angle_gamma 90.000000
_cell_volume 1382.564166
_symmetry_space_group_name_H-M "P -4 N 2"
_symmetry_group_IT_number 118
_symmetry_cell_setting 'tetragonal'
loop_
_space_group_symop_operation_xyz
x,y,z
y,-x,-z
-x,-y,z
-y,x,-z
1/2+y,1/2+x,1/2-z
1/2-y,1/2-x,1/2-z
1/2-x,1/2+y,1/2+z
1/2+x,1/2-y,1/2+z
loop_
_atom_site_type_symbol
_atom_site_label
_atom_site_fract_x
_atom_site_fract_y
_atom_site_fract_z
Si Si1 0.314787 0.809448 0.937961
Si Si2 0.000000 0.500000 0.750000
Si Si3 1.000000 0.683605 0.868765
Si Si4 0.685213 0.809448 0.937961
O O1 0.170634 0.775509 0.887843
O O2 0.500000 0.773629 0.909275
O O3 0.297717 0.000000 0.959387
O O4 0.298435 0.701565 0.000000
O O5 0.000000 0.335093 0.793887
O O6 0.000000 0.500000 0.900515
O O7 0.829366 0.775508 0.887843
#
# Coordination Sequence:
#
# PCOD8310536 Si02
#       4
#     8   2   8   8
#     4  11  22  36  59  95 133 166 208 269 333 388
#     4   8  24  44  64  84 128 184 220 262 300 408
#     4  10  21  41  62  88 123 169 222 256 319 385
#     4  11  22  36  59  95 133 166 208 269 333 388
#
# _framework density 18.805637999999998
#
# number of rings (size 3 to 8) (size 9 to 14) (size 15 to 20)
#    0.923    0.615    3.077    2.769    0.000    4.308 
#    0.000    6.154    0.000    3.692    0.000    0.000 
#    0.000    0.000    0.000    0.000    0.000    0.000 
#
# Total GULP energy -322204.524419 kJ/mol
# GULP energy per Si atom -12392.481708 kJ/mol
# Density = 1.876284 g / cm^3
# Si number density = 18.805638 Si / 1000 Ang^3
#
#
#
# Elastic Constant Matrix: (Units=GPa)
#
#
# Indices 1 2 3 4 5 6 
#
# 1 136.0140 52.3023 41.1244 0.0000 0.0000 0.0000
# 2 52.3023 136.0140 41.1244 0.0000 0.0000 0.0000
# 3 41.1244 41.1244 107.3392 0.0000 0.0000 0.0000
# 4 0.0000 0.0000 0.0000 25.4711 0.0000 0.0000
# 5 0.0000 0.0000 0.0000 0.0000 25.4711 0.0000
# 6 0.0000 0.0000 0.0000 0.0000 0.0000 25.9158
#
#
#
# Elastic Compliance Matrix: (Units=1/GPa)
#
#
# Indices 1 2 3 4 5 6 
#
# 1 0.009162 -0.002784 -0.002443 0.000000 0.000000 0.000000
# 2 -0.002784 0.009162 -0.002443 0.000000 0.000000 0.000000
# 3 -0.002443 -0.002443 0.011188 0.000000 0.000000 0.000000
# 4 0.000000 0.000000 0.000000 0.039260 0.000000 0.000000
# 5 0.000000 0.000000 0.000000 0.000000 0.039260 0.000000
# 6 0.000000 0.000000 0.000000 0.000000 0.000000 0.038587
#
#
# Mechanical properties :
#
#
# Convention : Reuss Voigt Hill
#
# Bulk Modulus (GPa) = 70.57231 72.05217 71.31224
# Shear Modulus (GPa) = 29.99696 31.69266 30.84481
#
# Velocity S-wave (km/s) = 3.99821 4.10966 4.05432
# Velocity P-wave (km/s) = 7.67613 7.80490 7.74078
#
# Compressibility (1/GPa) = 0.01416986
#
# Stress axis : x y z
#
# Youngs Moduli (GPa) = 109.15170 109.15170 89.37778
#
# Poissons Ratio (x) = 0.30390 0.21838
# Poissons Ratio (y) = 0.30390 0.21838
# Poissons Ratio (z) = 0.26669 0.26669
#
# Static dielectric constant tensor:
#      x y z
#    x 3.541400 0.000000 0.000000 
#    y 0.000000 3.541400 0.000000 
#    z 0.000000 0.000000 3.002300 
# 
# 
# High freq. dielectric constant tensor:
#      x y z
#    x 1.739970 0.000000 0.000000 
#    y 0.000000 1.739970 0.000000 
#    z 0.000000 0.000000 1.687310 
# 
# From -- ./inp_files/4491.got.cif
#   From: 2010.03.12/outbox.cif.g09.slc.cpg/sg118_3_cif.got.tgz:4491.got - 2010.04.14 02:21:17.
