data_PCOD8310182
_publ_section_title
;
Structure prediction by ZEFSAII (Michael W. Deem and Ramdas Pophale) SiO2 
 PCOD8310182
Probable space group: P -4 C 2
;
_chemical_formula_sum "Si O2"
_cell_formula_units_Z 38
_cell_length_a 11.519681
_cell_length_b 11.519681
_cell_length_c 14.299474
_cell_angle_alpha 90.000000
_cell_angle_beta 90.000000
_cell_angle_gamma 90.000000
_cell_volume 1897.583818
_symmetry_space_group_name_H-M "P -4 C 2"
_symmetry_group_IT_number 116
_symmetry_cell_setting 'tetragonal'
loop_
_space_group_symop_operation_xyz
x,y,z
y,-x,-z
-x,-y,z
-y,x,-z
y,x,1/2-z
-y,-x,1/2-z
-x,y,1/2+z
x,-y,1/2+z
loop_
_atom_site_type_symbol
_atom_site_label
_atom_site_fract_x
_atom_site_fract_y
_atom_site_fract_z
Si Si1 0.021178 0.780740 0.622169
Si Si2 0.381358 0.931860 0.722245
Si Si3 0.587821 0.641690 0.046386
Si Si4 0.740367 0.141531 0.549558
Si Si5 0.000000 0.000000 0.750000
Si Si6 0.342696 0.342696 0.250000
O O1 0.002692 0.669507 0.687742
O O2 0.152149 0.782136 0.584856
O O3 0.930108 0.777619 0.539574
O O4 0.995854 0.891975 0.682738
O O5 0.301961 0.948175 0.629755
O O6 0.377865 0.793670 0.743559
O O7 0.500000 0.000000 0.701195
O O8 0.638709 0.768417 0.024798
O O9 0.606112 0.601874 0.154774
O O10 0.647671 0.548847 0.976895
#
# Coordination Sequence:
#
# PCOD8310182 Si02
#       6
#     8   8   8   8   2   4
#     4  12  23  42  67  95 135 179 217 276 342 403
#     4  11  23  43  69  98 133 179 221 280 348 395
#     4  10  23  43  67  95 131 178 223 275 345 399
#     4  11  24  43  66  97 136 176 223 283 333 408
#     4  12  22  46  64  94 142 176 212 270 350 412
#     4  10  21  47  66  92 148 170 216 304 341 385
#
# _framework density 20.025466999999999
#
# number of rings (size 3 to 8) (size 9 to 14) (size 15 to 20)
#    0.000    1.053    6.316    1.263    2.947    5.895 
#    0.000    0.000    0.000    0.000    0.000    0.000 
#    0.000    0.000    0.000    0.000    0.000    0.000 
#
# Total GULP energy -471005.470245 kJ/mol
# GULP energy per Si atom -12394.880796 kJ/mol
# Density = 1.997989 g / cm^3
# Si number density = 20.025467 Si / 1000 Ang^3
#
#
#
# Elastic Constant Matrix: (Units=GPa)
#
#
# Indices 1 2 3 4 5 6 
#
# 1 84.4641 24.7290 46.3598 0.0000 0.0000 0.0000
# 2 24.7290 84.4641 46.3598 0.0000 0.0000 0.0000
# 3 46.3598 46.3598 166.1392 0.0000 0.0000 0.0000
# 4 0.0000 0.0000 0.0000 34.8423 0.0000 0.0000
# 5 0.0000 0.0000 0.0000 0.0000 34.8423 0.0000
# 6 0.0000 0.0000 0.0000 0.0000 0.0000 39.4671
#
#
#
# Elastic Compliance Matrix: (Units=1/GPa)
#
#
# Indices 1 2 3 4 5 6 
#
# 1 0.014371 -0.002369 -0.003349 0.000000 0.000000 0.000000
# 2 -0.002369 0.014371 -0.003349 0.000000 0.000000 0.000000
# 3 -0.003349 -0.003349 0.007888 0.000000 0.000000 0.000000
# 4 0.000000 0.000000 0.000000 0.028701 0.000000 0.000000
# 5 0.000000 0.000000 0.000000 0.000000 0.028701 0.000000
# 6 0.000000 0.000000 0.000000 0.000000 0.000000 0.025338
#
#
# Mechanical properties :
#
#
# Convention : Reuss Voigt Hill
#
# Bulk Modulus (GPa) = 54.06659 63.32941 58.69800
# Shear Modulus (GPa) = 34.80206 36.33825 35.57015
#
# Velocity S-wave (km/s) = 4.17332 4.26444 4.21913
# Velocity P-wave (km/s) = 7.09082 7.47933 7.28766
#
# Compressibility (1/GPa) = 0.01849571
#
# Stress axis : x y z
#
# Youngs Moduli (GPa) = 69.58350 69.58350 126.77345
#
# Poissons Ratio (x) = 0.16487 0.42457
# Poissons Ratio (y) = 0.16487 0.42457
# Poissons Ratio (z) = 0.23304 0.23304
#
# Static dielectric constant tensor:
#      x y z
#    x 3.540240 0.000000 0.000000 
#    y 0.000000 3.540240 0.000000 
#    z 0.000000 0.000000 4.093730 
# 
# 
# High freq. dielectric constant tensor:
#      x y z
#    x 1.775060 0.000000 0.000000 
#    y 0.000000 1.775060 0.000000 
#    z 0.000000 0.000000 1.804560 
# 
# From -- ./inp_files/2624.got.cif
#   From: 2010.03.12/outbox.cif.g09.slc.cpg/sg116_2_cif.got.tgz:2624.got - 2010.04.14 02:15:44.
