data_PCOD8310881
_publ_section_title
;
Structure prediction by ZEFSAII (Michael W. Deem and Ramdas Pophale) SiO2 
 PCOD8310881
Probable space group: I -4 M 2
;
_chemical_formula_sum "Si O2"
_cell_formula_units_Z 96
_cell_length_a 23.919716
_cell_length_b 23.919716
_cell_length_c 9.513961
_cell_angle_alpha 90.000000
_cell_angle_beta 90.000000
_cell_angle_gamma 90.000000
_cell_volume 5443.439554
_symmetry_space_group_name_H-M "I -4 M 2"
_symmetry_group_IT_number 119
_symmetry_cell_setting 'tetragonal'
loop_
_space_group_symop_operation_xyz
x,y,z
y,-x,-z
-x,-y,z
-y,x,-z
y,x,-z
-y,-x,-z
-x,y,z
x,-y,z
1/2+x,1/2+y,1/2+z
1/2+y,1/2-x,1/2-z
1/2-x,1/2-y,1/2+z
1/2-y,1/2+x,1/2-z
1/2+y,1/2+x,1/2-z
1/2-y,1/2-x,1/2-z
1/2-x,1/2+y,1/2+z
1/2+x,1/2-y,1/2+z
loop_
_atom_site_type_symbol
_atom_site_label
_atom_site_fract_x
_atom_site_fract_y
_atom_site_fract_z
Si Si1 0.435617 0.064383 0.085554
Si Si2 0.354588 0.854588 0.913862
Si Si3 0.152328 0.772457 0.413346
Si Si4 0.063089 0.136169 0.412023
Si Si5 0.563089 0.636169 0.587978
Si Si6 0.772457 0.152328 0.913344
O O1 0.500000 0.077932 0.046437
O O2 0.425586 0.074415 0.250000
O O3 0.422069 0.000000 0.046441
O O4 0.394877 0.105123 0.000773
O O5 0.366058 0.866058 0.750000
O O6 0.365865 0.790096 0.953913
O O7 0.290096 0.865865 0.953912
O O8 0.206346 0.793655 0.500000
O O9 0.099112 0.809853 0.452702
O O10 0.168879 0.775865 0.250001
O O11 0.082611 0.082611 0.500000
O O12 0.069940 0.120261 0.250001
O O13 0.000000 0.150979 0.451881
O O14 0.582611 0.582611 0.500000
O O15 0.500000 0.650979 0.548120
O O16 0.599112 0.690147 0.547301
O O17 0.793656 0.206345 0.000000
#
# Coordination Sequence:
#
# PCOD8310881 Si02
#       6
#    16  16  16  16  16  16
#     4   9  20  39  57  73  99 133 166 203 248 297
#     4  10  20  32  52  81 104 127 163 202 243 294
#     4   9  18  32  49  72 102 133 164 200 243 290
#     4   9  18  32  48  66  92 126 160 197 241 284
#     4   9  18  32  48  66  92 126 160 197 241 284
#     4   9  18  32  49  72 102 133 164 200 243 290
#
# _framework density 17.635909000000002
#
# number of rings (size 3 to 8) (size 9 to 14) (size 15 to 20)
#    0.000    2.833    0.000    1.000    0.000    4.333 
#    0.000    5.833    0.000    0.000    0.000    0.000 
#    0.000    0.000    0.000    0.000    0.000    0.000 
#
# Total GULP energy -595152.798999 kJ/mol
# GULP energy per Si atom -12399.016646 kJ/mol
# Density = 1.759577 g / cm^3
# Si number density = 17.635909 Si / 1000 Ang^3
#
#
#
# Elastic Constant Matrix: (Units=GPa)
#
#
# Indices 1 2 3 4 5 6 
#
# 1 132.2908 73.8766 62.6641 0.0000 0.0000 0.0000
# 2 73.8766 132.2908 62.6640 0.0000 0.0000 0.0000
# 3 62.6641 62.6640 65.3232 0.0000 0.0000 0.0000
# 4 0.0000 0.0000 0.0000 31.4952 0.0000 0.0000
# 5 0.0000 0.0000 0.0000 0.0000 31.4954 0.0000
# 6 0.0000 0.0000 0.0000 0.0000 0.0000 30.7051
#
#
#
# Elastic Compliance Matrix: (Units=1/GPa)
#
#
# Indices 1 2 3 4 5 6 
#
# 1 0.014378 -0.002742 -0.011162 0.000000 0.000000 0.000000
# 2 -0.002742 0.014377 -0.011162 0.000000 0.000000 0.000000
# 3 -0.011162 -0.011162 0.036724 0.000000 0.000000 0.000000
# 4 0.000000 0.000000 0.000000 0.031751 0.000000 0.000000
# 5 0.000000 0.000000 0.000000 0.000000 0.031751 0.000000
# 6 0.000000 0.000000 0.000000 0.000000 0.000000 0.032568
#
#
# Mechanical properties :
#
#
# Convention : Reuss Voigt Hill
#
# Bulk Modulus (GPa) = 65.15903 80.92379 73.04141
# Shear Modulus (GPa) = 23.06312 27.45249 25.25781
#
# Velocity S-wave (km/s) = 3.62019 3.94969 3.78852
# Velocity P-wave (km/s) = 7.38250 8.17224 7.78739
#
# Compressibility (1/GPa) = 0.01534707
#
# Stress axis : x y z
#
# Youngs Moduli (GPa) = 69.55298 69.55329 27.23001
#
# Poissons Ratio (x) = 0.19069 0.30395
# Poissons Ratio (y) = 0.19069 0.30395
# Poissons Ratio (z) = 0.77637 0.77637
#
# Static dielectric constant tensor:
#      x y z
#    x 3.339990 0.000000 0.000000 
#    y 0.000000 3.339990 0.000000 
#    z 0.000000 0.000000 3.225630 
# 
# 
# High freq. dielectric constant tensor:
#      x y z
#    x 1.684080 0.000000 0.000000 
#    y 0.000000 1.684080 0.000000 
#    z 0.000000 0.000000 1.676470 
# 
# From -- ./inp_files/2653.got.cif
#   From: 2010.03.12/outbox.cif.g09.slc.cpg/sg119_2_cif.got.tgz:2653.got - 2010.04.14 02:25:26.
