data_PCOD8310844
_publ_section_title
;
Structure prediction by ZEFSAII (Michael W. Deem and Ramdas Pophale) SiO2 
 PCOD8310844
Probable space group: I -4 M 2
;
_chemical_formula_sum "Si O2"
_cell_formula_units_Z 112
_cell_length_a 14.356185
_cell_length_b 14.356185
_cell_length_c 26.414820
_cell_angle_alpha 90.000000
_cell_angle_beta 90.000000
_cell_angle_gamma 90.000000
_cell_volume 5444.095663
_symmetry_space_group_name_H-M "I -4 M 2"
_symmetry_group_IT_number 119
_symmetry_cell_setting 'tetragonal'
loop_
_space_group_symop_operation_xyz
x,y,z
y,-x,-z
-x,-y,z
-y,x,-z
y,x,-z
-y,-x,-z
-x,y,z
x,-y,z
1/2+x,1/2+y,1/2+z
1/2+y,1/2-x,1/2-z
1/2-x,1/2-y,1/2+z
1/2-y,1/2+x,1/2-z
1/2+y,1/2+x,1/2-z
1/2-y,1/2-x,1/2-z
1/2-x,1/2+y,1/2+z
1/2+x,1/2-y,1/2+z
loop_
_atom_site_type_symbol
_atom_site_label
_atom_site_fract_x
_atom_site_fract_y
_atom_site_fract_z
Si Si1 0.396283 0.232397 0.631855
Si Si2 0.390895 0.390723 0.132458
Si Si3 0.104906 0.399489 0.865785
Si Si4 0.608338 0.778814 0.935894
Si Si5 0.898452 0.137562 0.942077
Si Si6 0.157577 0.604612 0.528448
Si Si7 0.720063 0.246549 0.192430
O O1 0.500000 0.209628 0.651738
O O2 0.352962 0.142320 0.605089
O O3 0.405559 0.318443 0.592780
O O4 0.329993 0.248701 0.680079
O O5 0.500000 0.360377 0.124208
O O6 0.385902 0.500000 0.144350
O O7 0.327825 0.367277 0.082018
O O8 0.342164 0.338793 0.180135
O O9 0.128822 0.500000 0.841045
O O10 0.119119 0.415286 0.926269
O O11 0.167414 0.319571 0.843296
O O12 0.000000 0.369934 0.853577
O O13 0.500000 0.791920 0.942609
O O14 0.654209 0.810036 0.988888
O O15 0.886694 0.247421 0.940650
O O16 0.000000 0.108058 0.920407
O O17 0.894815 0.105186 0.000000
O O18 0.147172 0.500000 0.503398
O O19 0.714006 0.214006 0.250000
#
# Coordination Sequence:
#
# PCOD8310844 Si02
#       7
#    16  16  16  16  16  16  16
#     4  11  23  39  59  85 117 152 195 245 292 350
#     4   9  20  41  66  91 121 159 203 249 300 361
#     4  10  21  37  58  86 119 154 194 244 301 361
#     4  10  20  35  60  91 122 158 196 236 286 346
#     4  11  21  35  55  81 120 161 194 231 279 341
#     4  10  19  33  56  86 123 162 197 239 288 348
#     4  11  24  41  63  87 114 150 196 255 316 369
#
# _framework density 20.572748000000001
#
# number of rings (size 3 to 8) (size 9 to 14) (size 15 to 20)
#    0.000    1.714    2.857    1.714    0.000    4.429 
#    0.000    0.714    0.000    0.857    0.000    4.000 
#    0.000    0.000    0.000    0.000    0.000    0.000 
#
# Total GULP energy -693827.906436 kJ/mol
# GULP energy per Si atom -12389.784044 kJ/mol
# Density = 2.052592 g / cm^3
# Si number density = 20.572748 Si / 1000 Ang^3
#
#
#
# Elastic Constant Matrix: (Units=GPa)
#
#
# Indices 1 2 3 4 5 6 
#
# 1 106.8177 32.9837 25.8067 0.0000 0.0000 0.0000
# 2 32.9837 106.8168 25.8065 0.0000 0.0000 0.0000
# 3 25.8067 25.8065 74.5282 0.0000 0.0000 0.0000
# 4 0.0000 0.0000 0.0000 14.4471 0.0000 0.0000
# 5 0.0000 0.0000 0.0000 0.0000 14.4471 0.0000
# 6 0.0000 0.0000 0.0000 0.0000 0.0000 3.8836
#
#
#
# Elastic Compliance Matrix: (Units=1/GPa)
#
#
# Indices 1 2 3 4 5 6 
#
# 1 0.010873 -0.002671 -0.002840 0.000000 0.000000 0.000000
# 2 -0.002671 0.010873 -0.002840 0.000000 0.000000 0.000000
# 3 -0.002840 -0.002840 0.015384 0.000000 0.000000 0.000000
# 4 0.000000 0.000000 0.000000 0.069218 0.000000 0.000000
# 5 0.000000 0.000000 0.000000 0.000000 0.069218 0.000000
# 6 0.000000 0.000000 0.000000 0.000000 0.000000 0.257495
#
#
# Mechanical properties :
#
#
# Convention : Reuss Voigt Hill
#
# Bulk Modulus (GPa) = 48.95279 50.81740 49.88509
# Shear Modulus (GPa) = 10.95117 20.12662 15.53890
#
# Velocity S-wave (km/s) = 2.30970 3.13120 2.75128
# Velocity P-wave (km/s) = 5.56413 6.15040 5.86460
#
# Compressibility (1/GPa) = 0.02042784
#
# Stress axis : x y z
#
# Youngs Moduli (GPa) = 91.97358 91.97285 65.00067
#
# Poissons Ratio (x) = 0.24568 0.18460
# Poissons Ratio (y) = 0.24568 0.18460
# Poissons Ratio (z) = 0.26120 0.26119
#
# Static dielectric constant tensor:
#      x y z
#    x 4.015670 0.000000 0.000000 
#    y 0.000000 4.015670 0.000000 
#    z 0.000000 0.000000 3.320360 
# 
# 
# High freq. dielectric constant tensor:
#      x y z
#    x 1.817920 0.000000 0.000000 
#    y 0.000000 1.817920 0.000000 
#    z 0.000000 0.000000 1.759650 
# 
# From -- ./inp_files/9572.got.cif
#   From: 2010.03.12/outbox.cif.g09.slc.cpg/sg119_5_cif.got.tgz:9572.got - 2010.04.14 02:25:26.
