data_PCOD8310944
_publ_section_title
;
Structure prediction by ZEFSAII (Michael W. Deem and Ramdas Pophale) SiO2 
 PCOD8310944
Probable space group: I -4 M 2
;
_chemical_formula_sum "Si O2"
_cell_formula_units_Z 112
_cell_length_a 14.319121
_cell_length_b 14.319121
_cell_length_c 27.033227
_cell_angle_alpha 90.000000
_cell_angle_beta 90.000000
_cell_angle_gamma 90.000000
_cell_volume 5542.817880
_symmetry_space_group_name_H-M "I -4 M 2"
_symmetry_group_IT_number 119
_symmetry_cell_setting 'tetragonal'
loop_
_space_group_symop_operation_xyz
x,y,z
y,-x,-z
-x,-y,z
-y,x,-z
y,x,-z
-y,-x,-z
-x,y,z
x,-y,z
1/2+x,1/2+y,1/2+z
1/2+y,1/2-x,1/2-z
1/2-x,1/2-y,1/2+z
1/2-y,1/2+x,1/2-z
1/2+y,1/2+x,1/2-z
1/2-y,1/2-x,1/2-z
1/2-x,1/2+y,1/2+z
1/2+x,1/2-y,1/2+z
loop_
_atom_site_type_symbol
_atom_site_label
_atom_site_fract_x
_atom_site_fract_y
_atom_site_fract_z
Si Si1 0.806967 0.102452 0.383085
Si Si2 0.772044 0.894205 0.878081
Si Si3 0.396031 0.215592 0.914227
Si Si4 0.895666 0.796691 0.954725
Si Si5 0.757924 0.892422 0.762635
Si Si6 0.397053 0.826595 0.024927
Si Si7 0.254246 0.107642 0.277023
O O1 0.881499 0.185667 0.386364
O O2 0.750811 0.106067 0.433430
O O3 0.736675 0.116678 0.336516
O O4 0.855911 0.000000 0.377795
O O5 0.667576 0.865916 0.892294
O O6 0.843881 0.823120 0.903914
O O7 0.783238 0.884981 0.819946
O O8 0.790685 0.000000 0.896282
O O9 0.500000 0.182334 0.902750
O O10 0.377657 0.225061 0.972861
O O11 0.899859 0.684970 0.963186
O O12 0.000000 0.835477 0.951504
O O13 0.843364 0.843364 0.000000
O O14 0.662292 0.837709 0.750000
O O15 0.846087 0.845685 0.735498
O O16 0.746636 0.000000 0.745768
O O17 0.500000 0.875591 0.024295
O O18 0.338507 0.161494 0.250000
O O19 0.256413 0.000000 0.259606
#
# Coordination Sequence:
#
# PCOD8310944 Si02
#       7
#    16  16  16  16  16  16  16
#     4  10  20  37  59  86 122 157 195 245 300 362
#     4  11  24  42  60  87 124 159 201 253 305 357
#     4  11  21  36  61  89 121 160 199 238 295 365
#     4  12  24  40  64  90 123 165 208 252 300 359
#     4  10  23  42  64  90 122 157 202 257 313 372
#     4  10  21  38  62  90 123 160 196 242 299 359
#     4  10  22  39  61  87 118 157 202 253 308 363
#
# _framework density 20.206329
#
# number of rings (size 3 to 8) (size 9 to 14) (size 15 to 20)
#    0.000    1.429    2.857    2.571    0.000    5.286 
#    0.000    5.714    0.000    5.143    0.000    0.000 
#    0.000    0.000    0.000    0.000    0.000    0.000 
#
# Total GULP energy -694274.738649 kJ/mol
# GULP energy per Si atom -12397.763190 kJ/mol
# Density = 2.016034 g / cm^3
# Si number density = 20.206329 Si / 1000 Ang^3
#
#
#
# Elastic Constant Matrix: (Units=GPa)
#
#
# Indices 1 2 3 4 5 6 
#
# 1 112.8997 50.8119 23.3309 0.0000 0.0000 0.0000
# 2 50.8119 112.9010 23.3342 0.0000 0.0000 0.0000
# 3 23.3309 23.3342 77.9950 0.0000 0.0000 0.0000
# 4 0.0000 0.0000 0.0000 20.8422 0.0000 0.0000
# 5 0.0000 0.0000 0.0000 0.0000 20.8420 0.0000
# 6 0.0000 0.0000 0.0000 0.0000 0.0000 12.0327
#
#
#
# Elastic Compliance Matrix: (Units=1/GPa)
#
#
# Indices 1 2 3 4 5 6 
#
# 1 0.011392 -0.004714 -0.001997 0.000000 0.000000 0.000000
# 2 -0.004714 0.011392 -0.001998 0.000000 0.000000 0.000000
# 3 -0.001997 -0.001998 0.014017 0.000000 0.000000 0.000000
# 4 0.000000 0.000000 0.000000 0.047980 0.000000 0.000000
# 5 0.000000 0.000000 0.000000 0.000000 0.047980 0.000000
# 6 0.000000 0.000000 0.000000 0.000000 0.000000 0.083107
#
#
# Mechanical properties :
#
#
# Convention : Reuss Voigt Hill
#
# Bulk Modulus (GPa) = 51.59613 55.41664 53.50638
# Shear Modulus (GPa) = 20.85541 24.49797 22.67669
#
# Velocity S-wave (km/s) = 3.21615 3.48572 3.35364
# Velocity P-wave (km/s) = 6.27547 6.60948 6.44464
#
# Compressibility (1/GPa) = 0.01938130
#
# Stress axis : x y z
#
# Youngs Moduli (GPa) = 87.78210 87.78155 71.34419
#
# Poissons Ratio (x) = 0.41382 0.14250
# Poissons Ratio (y) = 0.41382 0.14255
# Poissons Ratio (z) = 0.17533 0.17539
#
# Static dielectric constant tensor:
#      x y z
#    x 3.782850 0.000000 0.000000 
#    y 0.000000 3.782850 0.000000 
#    z 0.000000 0.000000 3.841800 
# 
# 
# High freq. dielectric constant tensor:
#      x y z
#    x 1.782120 0.000000 0.000000 
#    y 0.000000 1.782120 0.000000 
#    z 0.000000 0.000000 1.805880 
# 
# From -- ./inp_files/8799.got.cif
#   From: 2010.03.12/outbox.cif.g09.slc.cpg/sg119_5_cif.got.tgz:8799.got - 2010.04.14 02:25:26.
