data_PCOD8310457
_publ_section_title
;
Structure prediction by ZEFSAII (Michael W. Deem and Ramdas Pophale) SiO2 
 PCOD8310457
Probable space group: P -4 N 2
;
_chemical_formula_sum "Si O2"
_cell_formula_units_Z 56
_cell_length_a 12.344588
_cell_length_b 12.344588
_cell_length_c 23.564119
_cell_angle_alpha 90.000000
_cell_angle_beta 90.000000
_cell_angle_gamma 90.000000
_cell_volume 3590.909064
_symmetry_space_group_name_H-M "P -4 N 2"
_symmetry_group_IT_number 118
_symmetry_cell_setting 'tetragonal'
loop_
_space_group_symop_operation_xyz
x,y,z
y,-x,-z
-x,-y,z
-y,x,-z
1/2+y,1/2+x,1/2-z
1/2-y,1/2-x,1/2-z
1/2-x,1/2+y,1/2+z
1/2+x,1/2-y,1/2+z
loop_
_atom_site_type_symbol
_atom_site_label
_atom_site_fract_x
_atom_site_fract_y
_atom_site_fract_z
Si Si1 0.358157 0.606133 0.064771
Si Si2 0.819950 0.256286 0.327111
Si Si3 0.708266 0.266360 0.836060
Si Si4 0.602327 0.645474 0.063458
Si Si5 0.879658 0.131406 0.775545
Si Si6 0.612215 0.028053 0.690057
Si Si7 0.122275 0.870326 0.224834
O O1 0.273043 0.661299 0.107309
O O2 0.475097 0.659294 0.074827
O O3 0.363938 0.478158 0.075411
O O4 0.319649 0.630453 0.000704
O O5 0.825763 0.149909 0.287167
O O6 0.705563 0.318374 0.321639
O O7 0.914436 0.329286 0.300451
O O8 0.724483 0.333722 0.893879
O O9 0.816376 0.198383 0.823745
O O10 0.678951 0.349468 0.785849
O O11 0.609414 0.183441 0.846963
O O12 0.005422 0.146426 0.789632
O O13 0.845605 0.005811 0.776402
O O14 0.586687 0.086687 0.750000
O O15 0.500000 0.000000 0.657787
#
# Coordination Sequence:
#
# PCOD8310457 Si02
#       7
#     8   8   8   8   8   8   8
#     4   9  17  30  47  74  96 121 153 200 239 293
#     4  11  18  29  48  70  98 128 157 191 249 285
#     4  11  17  29  47  71  95 129 153 196 240 290
#     4   9  17  29  49  72  98 118 156 198 244 283
#     4  10  19  30  45  69  99 125 162 189 236 288
#     4  11  18  26  43  72 106 123 148 195 257 299
#     4  10  19  30  45  69  97 128 157 194 229 295
#
# _framework density 15.594937
#
# number of rings (size 3 to 8) (size 9 to 14) (size 15 to 20)
#    0.000    1.857    4.286    4.286    0.000    2.286 
#    0.000    0.000    0.000   18.000    0.000    2.000 
#    0.000    0.000    0.000    0.000    0.000    0.000 
#
# Total GULP energy -694222.113012 kJ/mol
# GULP energy per Si atom -12396.823447 kJ/mol
# Density = 1.555944 g / cm^3
# Si number density = 15.594937 Si / 1000 Ang^3
#
#
#
# Elastic Constant Matrix: (Units=GPa)
#
#
# Indices 1 2 3 4 5 6 
#
# 1 80.2394 42.7939 39.7828 0.0000 0.0000 0.0000
# 2 42.7939 80.2394 39.7828 0.0000 0.0000 0.0000
# 3 39.7828 39.7828 98.3144 0.0000 0.0000 0.0000
# 4 0.0000 0.0000 0.0000 21.2108 0.0000 0.0000
# 5 0.0000 0.0000 0.0000 0.0000 21.2108 0.0000
# 6 0.0000 0.0000 0.0000 0.0000 0.0000 25.2230
#
#
#
# Elastic Compliance Matrix: (Units=1/GPa)
#
#
# Indices 1 2 3 4 5 6 
#
# 1 0.018857 -0.007848 -0.004455 0.000000 0.000000 0.000000
# 2 -0.007848 0.018857 -0.004455 0.000000 0.000000 0.000000
# 3 -0.004455 -0.004455 0.013777 0.000000 0.000000 0.000000
# 4 0.000000 0.000000 0.000000 0.047146 0.000000 0.000000
# 5 0.000000 0.000000 0.000000 0.000000 0.047146 0.000000
# 6 0.000000 0.000000 0.000000 0.000000 0.000000 0.039646
#
#
# Mechanical properties :
#
#
# Convention : Reuss Voigt Hill
#
# Bulk Modulus (GPa) = 55.63167 55.94579 55.78873
# Shear Modulus (GPa) = 22.22857 22.62451 22.42654
#
# Velocity S-wave (km/s) = 3.77950 3.81302 3.79630
# Velocity P-wave (km/s) = 7.40247 7.43893 7.42072
#
# Compressibility (1/GPa) = 0.01797537
#
# Stress axis : x y z
#
# Youngs Moduli (GPa) = 53.03042 53.03042 72.58684
#
# Poissons Ratio (x) = 0.41620 0.32335
# Poissons Ratio (y) = 0.41620 0.32335
# Poissons Ratio (z) = 0.23623 0.23623
#
# Static dielectric constant tensor:
#      x y z
#    x 2.958470 0.000000 0.000000 
#    y 0.000000 2.958470 0.000000 
#    z 0.000000 0.000000 2.776240 
# 
# 
# High freq. dielectric constant tensor:
#      x y z
#    x 1.591350 0.000000 0.000000 
#    y 0.000000 1.591350 0.000000 
#    z 0.000000 0.000000 1.573020 
# 
# From -- ./inp_files/6229.got.cif
#   From: 2010.03.12/outbox.cif.g09.slc.cpg/sg118_4_cif.got.tgz:6229.got - 2010.04.14 02:21:17.
