data_PCOD8310520
_publ_section_title
;
Structure prediction by ZEFSAII (Michael W. Deem and Ramdas Pophale) SiO2 
 PCOD8310520
Probable space group: P -4 N 2
;
_chemical_formula_sum "Si O2"
_cell_formula_units_Z 44
_cell_length_a 13.605751
_cell_length_b 13.605751
_cell_length_c 12.776362
_cell_angle_alpha 90.000000
_cell_angle_beta 90.000000
_cell_angle_gamma 90.000000
_cell_volume 2365.114909
_symmetry_space_group_name_H-M "P -4 N 2"
_symmetry_group_IT_number 118
_symmetry_cell_setting 'tetragonal'
loop_
_space_group_symop_operation_xyz
x,y,z
y,-x,-z
-x,-y,z
-y,x,-z
1/2+y,1/2+x,1/2-z
1/2-y,1/2-x,1/2-z
1/2-x,1/2+y,1/2+z
1/2+x,1/2-y,1/2+z
loop_
_atom_site_type_symbol
_atom_site_label
_atom_site_fract_x
_atom_site_fract_y
_atom_site_fract_z
Si Si1 0.500000 0.500000 0.500000
Si Si2 0.500000 0.500000 0.000000
Si Si3 0.809410 0.696651 0.370724
Si Si4 0.840116 0.906308 0.132990
Si Si5 0.036349 0.620261 0.860592
Si Si6 0.669670 0.421802 0.868965
Si Si7 0.457628 0.850771 0.053896
O O1 0.479790 0.404559 0.432964
O O2 0.430574 0.428954 0.065381
O O3 0.832195 0.667806 0.250000
O O4 0.707537 0.641974 0.400100
O O5 0.786205 0.812781 0.385354
O O6 0.900169 0.663614 0.444191
O O7 0.728900 0.934606 0.114950
O O8 0.867687 0.929459 0.251455
O O9 0.080771 0.580771 0.750000
O O10 0.085372 0.557830 0.956445
O O11 0.917070 0.609178 0.866391
O O12 0.746556 0.509608 0.895397
#
# Coordination Sequence:
#
# PCOD8310520 Si02
#       7
#     2   2   8   8   8   8   8
#     4  12  26  40  60  82 128 168 202 244 324 366
#     4  12  22  36  56  98 124 156 206 256 300 354
#     4  10  21  38  59  86 126 165 199 244 313 371
#     4  11  22  41  57  87 118 167 199 251 304 382
#     4  11  21  36  64  89 115 146 206 260 301 355
#     4  11  21  35  61  86 124 157 206 251 301 360
#     4  11  20  34  58  94 111 150 202 256 300 355
#
# _framework density 18.603748
#
# number of rings (size 3 to 8) (size 9 to 14) (size 15 to 20)
#    0.000    1.091    5.455    3.273    0.000    0.000 
#    0.000    1.818    0.000    0.000    0.000    0.000 
#    0.000    0.000    0.000    0.000    0.000    0.000 
#
# Total GULP energy -545076.013595 kJ/mol
# GULP energy per Si atom -12388.091218 kJ/mol
# Density = 1.856140 g / cm^3
# Si number density = 18.603748 Si / 1000 Ang^3
#
#
#
# Elastic Constant Matrix: (Units=GPa)
#
#
# Indices 1 2 3 4 5 6 
#
# 1 97.8585 32.3272 63.2533 0.0000 0.0000 0.0000
# 2 32.3272 97.8587 63.2533 0.0000 0.0000 0.0000
# 3 63.2533 63.2533 106.3358 0.0000 0.0000 0.0000
# 4 0.0000 0.0000 0.0000 28.1434 0.0000 0.0000
# 5 0.0000 0.0000 0.0000 0.0000 28.1435 0.0000
# 6 0.0000 0.0000 0.0000 0.0000 0.0000 28.8552
#
#
#
# Elastic Compliance Matrix: (Units=1/GPa)
#
#
# Indices 1 2 3 4 5 6 
#
# 1 0.016732 0.001472 -0.010828 0.000000 0.000000 0.000000
# 2 0.001472 0.016732 -0.010828 0.000000 0.000000 0.000000
# 3 -0.010828 -0.010828 0.022287 0.000000 0.000000 0.000000
# 4 0.000000 0.000000 0.000000 0.035532 0.000000 0.000000
# 5 0.000000 0.000000 0.000000 0.000000 0.035532 0.000000
# 6 0.000000 0.000000 0.000000 0.000000 0.000000 0.034656
#
#
# Mechanical properties :
#
#
# Convention : Reuss Voigt Hill
#
# Bulk Modulus (GPa) = 65.01756 68.85783 66.93769
# Shear Modulus (GPa) = 24.15849 26.57638 25.36743
#
# Velocity S-wave (km/s) = 3.60749 3.78372 3.69665
# Velocity P-wave (km/s) = 7.23716 7.49546 7.36744
#
# Compressibility (1/GPa) = 0.01538046
#
# Stress axis : x y z
#
# Youngs Moduli (GPa) = 59.76654 59.76670 44.87021
#
# Poissons Ratio (x) = -0.08797 0.48587
# Poissons Ratio (y) = -0.08797 0.48587
# Poissons Ratio (z) = 0.64717 0.64717
#
# Static dielectric constant tensor:
#      x y z
#    x 3.625440 0.000000 0.000000 
#    y 0.000000 3.625450 0.000000 
#    z 0.000000 0.000000 3.415790 
# 
# 
# High freq. dielectric constant tensor:
#      x y z
#    x 1.726620 0.000000 0.000000 
#    y 0.000000 1.726620 0.000000 
#    z 0.000000 0.000000 1.705400 
# 
# From -- ./inp_files/3270.got.cif
#   From: 2010.03.12/outbox.cif.g09.slc.cpg/sg118_2_cif.got.tgz:3270.got - 2010.04.14 02:21:17.
