data_PCOD8310790
_publ_section_title
;
Structure prediction by ZEFSAII (Michael W. Deem and Ramdas Pophale) SiO2 
 PCOD8310790
Probable space group: I -4 M 2
;
_chemical_formula_sum "Si O2"
_cell_formula_units_Z 88
_cell_length_a 14.469116
_cell_length_b 14.469116
_cell_length_c 21.920704
_cell_angle_alpha 90.000000
_cell_angle_beta 90.000000
_cell_angle_gamma 90.000000
_cell_volume 4589.215953
_symmetry_space_group_name_H-M "I -4 M 2"
_symmetry_group_IT_number 119
_symmetry_cell_setting 'tetragonal'
loop_
_space_group_symop_operation_xyz
x,y,z
y,-x,-z
-x,-y,z
-y,x,-z
y,x,-z
-y,-x,-z
-x,y,z
x,-y,z
1/2+x,1/2+y,1/2+z
1/2+y,1/2-x,1/2-z
1/2-x,1/2-y,1/2+z
1/2-y,1/2+x,1/2-z
1/2+y,1/2+x,1/2-z
1/2-y,1/2-x,1/2-z
1/2-x,1/2+y,1/2+z
1/2+x,1/2-y,1/2+z
loop_
_atom_site_type_symbol
_atom_site_label
_atom_site_fract_x
_atom_site_fract_y
_atom_site_fract_z
Si Si1 0.104361 0.895085 0.720369
Si Si2 0.106188 0.893813 0.500000
Si Si3 0.735086 0.607955 0.110321
Si Si4 0.729833 0.394327 0.573013
Si Si5 0.777486 0.604364 0.703874
Si Si6 0.393969 0.227441 0.560223
O O1 0.181550 0.863227 0.671640
O O2 0.114580 0.830877 0.779516
O O3 0.000000 0.886435 0.692560
O O4 0.123212 0.000000 0.741070
O O5 0.138014 0.831868 0.443968
O O6 0.000000 0.876931 0.517776
O O7 0.756829 0.500000 0.109771
O O8 0.832223 0.660199 0.102120
O O9 0.696370 0.500000 0.579884
O O10 0.789102 0.364844 0.633085
O O11 0.793845 0.382384 0.512579
O O12 0.637546 0.332926 0.569848
O O13 0.812156 0.500000 0.712231
O O14 0.835631 0.664370 0.750000
O O15 0.500000 0.215399 0.580819
#
# Coordination Sequence:
#
# PCOD8310790 Si02
#       6
#    16   8  16  16  16  16
#     4   9  18  33  53  77 103 131 165 207 254 299
#     4   9  16  26  44  70  96 125 162 202 246 295
#     4  10  19  31  49  73 103 135 165 201 246 301
#     4   9  19  35  53  74  99 128 169 218 259 293
#     4  10  20  34  53  76 104 136 168 205 248 300
#     4  10  20  34  52  73 101 136 171 210 253 297
#
# _framework density 19.175388000000002
#
# number of rings (size 3 to 8) (size 9 to 14) (size 15 to 20)
#    0.000    2.455    0.000    2.727    0.000    3.818 
#    0.000    6.364    0.000    3.273    0.000    0.000 
#    0.000    4.364    0.000    0.000    0.000    0.182 
#
# Total GULP energy -545414.657863 kJ/mol
# GULP energy per Si atom -12395.787679 kJ/mol
# Density = 1.913174 g / cm^3
# Si number density = 19.175388 Si / 1000 Ang^3
#
#
#
# Elastic Constant Matrix: (Units=GPa)
#
#
# Indices 1 2 3 4 5 6 
#
# 1 60.3147 27.1035 23.8444 0.0000 0.0000 0.0000
# 2 27.1035 60.3149 23.8426 0.0000 0.0000 0.0000
# 3 23.8444 23.8426 80.5867 0.0000 0.0000 0.0000
# 4 0.0000 0.0000 0.0000 23.5322 0.0000 0.0000
# 5 0.0000 0.0000 0.0000 0.0000 23.5322 0.0000
# 6 0.0000 0.0000 0.0000 0.0000 0.0000 25.8496
#
#
#
# Elastic Compliance Matrix: (Units=1/GPa)
#
#
# Indices 1 2 3 4 5 6 
#
# 1 0.021876 -0.008235 -0.004036 0.000000 0.000000 0.000000
# 2 -0.008235 0.021875 -0.004036 0.000000 0.000000 0.000000
# 3 -0.004036 -0.004036 0.014797 0.000000 0.000000 0.000000
# 4 0.000000 0.000000 0.000000 0.042495 0.000000 0.000000
# 5 0.000000 0.000000 0.000000 0.000000 0.042495 0.000000
# 6 0.000000 0.000000 0.000000 0.000000 0.000000 0.038685
#
#
# Mechanical properties :
#
#
# Convention : Reuss Voigt Hill
#
# Bulk Modulus (GPa) = 38.55772 38.97746 38.76759
# Shear Modulus (GPa) = 22.37318 23.01119 22.69218
#
# Velocity S-wave (km/s) = 3.41950 3.46791 3.44379
# Velocity P-wave (km/s) = 5.97848 6.03375 6.00618
#
# Compressibility (1/GPa) = 0.02593514
#
# Stress axis : x y z
#
# Youngs Moduli (GPa) = 45.71262 45.71370 67.57998
#
# Poissons Ratio (x) = 0.37644 0.27278
# Poissons Ratio (y) = 0.37643 0.27272
# Poissons Ratio (z) = 0.18451 0.18448
#
# Static dielectric constant tensor:
#      x y z
#    x 3.403540 0.000000 0.000000 
#    y 0.000000 3.403530 0.000000 
#    z 0.000000 0.000000 3.621870 
# 
# 
# High freq. dielectric constant tensor:
#      x y z
#    x 1.734980 0.000000 0.000000 
#    y 0.000000 1.734980 0.000000 
#    z 0.000000 0.000000 1.746620 
# 
# From -- ./inp_files/7705.got.cif
#   From: 2010.03.12/outbox.cif.g09.slc.cpg/sg119_4_cif.got.tgz:7705.got - 2010.04.14 02:25:26.
