data_PCOD8310320
_publ_section_title
;
Structure prediction by ZEFSAII (Michael W. Deem and Ramdas Pophale) SiO2 
 PCOD8310320
Probable space group: P -4 B 2
;
_chemical_formula_sum "Si O2"
_cell_formula_units_Z 28
_cell_length_a 12.301512
_cell_length_b 12.301512
_cell_length_c 9.253195
_cell_angle_alpha 90.000000
_cell_angle_beta 90.000000
_cell_angle_gamma 90.000000
_cell_volume 1400.260067
_symmetry_space_group_name_H-M "P -4 B 2"
_symmetry_group_IT_number 117
_symmetry_cell_setting 'tetragonal'
loop_
_space_group_symop_operation_xyz
x,y,z
y,-x,-z
-x,-y,z
-y,x,-z
1/2+y,1/2+x,-z
1/2-y,1/2-x,-z
1/2-x,1/2+y,z
1/2+x,1/2-y,z
loop_
_atom_site_type_symbol
_atom_site_label
_atom_site_fract_x
_atom_site_fract_y
_atom_site_fract_z
Si Si1 0.819807 0.680193 0.000000
Si Si2 0.281977 0.239139 0.721509
Si Si3 0.126941 0.876380 0.479701
Si Si4 0.963337 0.378919 0.862772
O O1 0.732947 0.699544 0.873715
O O2 0.934504 0.692744 0.916141
O O3 0.183932 0.157647 0.672173
O O4 0.293351 0.331620 0.602233
O O5 0.396144 0.173069 0.731099
O O6 0.004273 0.851837 0.530336
O O7 0.000000 0.500000 0.816062
O O8 0.883439 0.383439 0.000000
#
# Coordination Sequence:
#
# PCOD8310320 Si02
#       4
#     4   8   8   8
#     4  10  21  34  63  92 118 148 198 246 299 352
#     4  11  21  39  63  86 118 163 198 241 310 355
#     4  10  24  41  57  84 123 159 202 248 295 362
#     4   9  20  36  56  92 121 143 192 254 288 350
#
# _framework density 19.996283999999999
#
# number of rings (size 3 to 8) (size 9 to 14) (size 15 to 20)
#    0.000    2.286    1.429    1.714    8.000    0.000 
#    0.000    1.429    0.000    3.429    0.000    0.000 
#    0.000    0.000    0.000    0.000    0.000    0.000 
#
# Total GULP energy -346972.429474 kJ/mol
# GULP energy per Si atom -12391.872481 kJ/mol
# Density = 1.995077 g / cm^3
# Si number density = 19.996284 Si / 1000 Ang^3
#
#
#
# Elastic Constant Matrix: (Units=GPa)
#
#
# Indices 1 2 3 4 5 6 
#
# 1 84.9876 49.6827 35.6190 0.0000 0.0000 0.0000
# 2 49.6827 84.9875 35.6191 0.0000 0.0000 0.0000
# 3 35.6190 35.6191 86.7138 0.0000 0.0000 0.0000
# 4 0.0000 0.0000 0.0000 30.2404 0.0000 0.0000
# 5 0.0000 0.0000 0.0000 0.0000 30.2404 0.0000
# 6 0.0000 0.0000 0.0000 0.0000 0.0000 34.3519
#
#
#
# Elastic Compliance Matrix: (Units=1/GPa)
#
#
# Indices 1 2 3 4 5 6 
#
# 1 0.018906 -0.009419 -0.003897 0.000000 0.000000 0.000000
# 2 -0.009419 0.018906 -0.003897 0.000000 0.000000 0.000000
# 3 -0.003897 -0.003897 0.014734 0.000000 0.000000 0.000000
# 4 0.000000 0.000000 0.000000 0.033068 0.000000 0.000000
# 5 0.000000 0.000000 0.000000 0.000000 0.033068 0.000000
# 6 0.000000 0.000000 0.000000 0.000000 0.000000 0.029110
#
#
# Mechanical properties :
#
#
# Convention : Reuss Voigt Hill
#
# Bulk Modulus (GPa) = 55.18804 55.39227 55.29016
# Shear Modulus (GPa) = 26.55934 28.01777 27.28856
#
# Velocity S-wave (km/s) = 3.64842 3.74725 3.69817
# Velocity P-wave (km/s) = 6.73847 6.81791 6.77831
#
# Compressibility (1/GPa) = 0.01811987
#
# Stress axis : x y z
#
# Youngs Moduli (GPa) = 52.89382 52.89370 67.87202
#
# Poissons Ratio (x) = 0.49820 0.26449
# Poissons Ratio (y) = 0.49820 0.26449
# Poissons Ratio (z) = 0.20612 0.20612
#
# Static dielectric constant tensor:
#      x y z
#    x 3.621440 0.000000 0.000000 
#    y 0.000000 3.621440 0.000000 
#    z 0.000000 0.000000 3.531060 
# 
# 
# High freq. dielectric constant tensor:
#      x y z
#    x 1.776900 0.000000 0.000000 
#    y 0.000000 1.776900 0.000000 
#    z 0.000000 0.000000 1.773710 
# 
# From -- ./inp_files/2313.got.cif
#   From: 2010.03.12/outbox.cif.g09.slc.cpg/sg117_2_cif.got.tgz:2313.got - 2010.04.14 02:19:01.
