data_PCOD8310271
_publ_section_title
;
Structure prediction by ZEFSAII (Michael W. Deem and Ramdas Pophale) SiO2 
 PCOD8310271
Probable space group: P -4 C 2
;
_chemical_formula_sum "Si O2"
_cell_formula_units_Z 10
_cell_length_a 5.293731
_cell_length_b 5.293731
_cell_length_c 13.728137
_cell_angle_alpha 90.000000
_cell_angle_beta 90.000000
_cell_angle_gamma 90.000000
_cell_volume 384.711654
_symmetry_space_group_name_H-M "P -4 C 2"
_symmetry_group_IT_number 116
_symmetry_cell_setting 'tetragonal'
loop_
_space_group_symop_operation_xyz
x,y,z
y,-x,-z
-x,-y,z
-y,x,-z
y,x,1/2-z
-y,-x,1/2-z
-x,y,1/2+z
x,-y,1/2+z
loop_
_atom_site_type_symbol
_atom_site_label
_atom_site_fract_x
_atom_site_fract_y
_atom_site_fract_z
Si Si1 0.157168 0.248922 0.639051
Si Si2 0.500000 0.500000 0.000000
O O1 0.247409 0.247409 0.750000
O O2 0.399440 0.270569 0.568325
O O3 0.000000 0.500000 0.620465
O O4 0.000000 0.000000 0.611645
#
# Coordination Sequence:
#
# PCOD8310271 Si02
#       2
#     8   2
#     4  11  30  53  81 118 169 217 274 342 422 492
#     4  12  30  48  88 126 160 220 282 352 396 514
#
# _framework density 25.993492
#
# number of rings (size 3 to 8) (size 9 to 14) (size 15 to 20)
#    0.000    0.800    0.000    1.200   33.600    0.000 
#    0.000    0.000    0.000    0.000    0.000    0.000 
#    0.000    0.000    0.000    0.000    0.000    0.000 
#
# Total GULP energy -124059.380589 kJ/mol
# GULP energy per Si atom -12405.938059 kJ/mol
# Density = 2.593433 g / cm^3
# Si number density = 25.993492 Si / 1000 Ang^3
#
#
#
# Elastic Constant Matrix: (Units=GPa)
#
#
# Indices 1 2 3 4 5 6 
#
# 1 164.8282 68.9275 76.0517 0.0000 0.0000 0.0000
# 2 68.9275 164.8282 76.0517 0.0000 0.0000 0.0000
# 3 76.0517 76.0517 190.6944 0.0000 0.0000 0.0000
# 4 0.0000 0.0000 0.0000 -1.2950 0.0000 0.0000
# 5 0.0000 0.0000 0.0000 0.0000 -1.2950 0.0000
# 6 0.0000 0.0000 0.0000 0.0000 0.0000 41.8193
#
#
#
# Elastic Compliance Matrix: (Units=1/GPa)
#
#
# Indices 1 2 3 4 5 6 
#
# 1 0.008102 -0.002325 -0.002304 0.000000 0.000000 0.000000
# 2 -0.002325 0.008102 -0.002304 0.000000 0.000000 0.000000
# 3 -0.002304 -0.002304 0.007082 0.000000 0.000000 0.000000
# 4 0.000000 0.000000 0.000000 -0.772180 0.000000 0.000000
# 5 0.000000 0.000000 0.000000 0.000000 -0.772180 0.000000
# 6 0.000000 0.000000 0.000000 0.000000 0.000000 0.023912
#
#
# Mechanical properties :
#
#
# Convention : Reuss Voigt Hill
#
# Bulk Modulus (GPa) = 106.15689 106.93473 106.54581
# Shear Modulus (GPa) = -3.37803 27.80051 12.21124
#
# Velocity S-wave (km/s) = -1.14122 3.27390 2.16979
# Velocity P-wave (km/s) = 6.26035 7.45114 6.88155
#
# Compressibility (1/GPa) = 0.00942002
#
# Stress axis : x y z
#
# Youngs Moduli (GPa) = 123.42148 123.42148 141.20796
#
# Poissons Ratio (x) = 0.28697 0.32535
# Poissons Ratio (y) = 0.28697 0.32535
# Poissons Ratio (z) = 0.28437 0.28437
#
# Static dielectric constant tensor:
#      x y z
#    x 5.292090 0.000000 0.000000 
#    y 0.000000 5.292090 0.000000 
#    z 0.000000 0.000000 5.175440 
# 
# 
# High freq. dielectric constant tensor:
#      x y z
#    x 2.042540 0.000000 0.000000 
#    y 0.000000 2.042540 0.000000 
#    z 0.000000 0.000000 2.072550 
# 
# From -- ./inp_files/2791.got.cif
#   From: 2010.03.12/outbox.cif.g09.slc.cpg/sg116_2_cif.got.tgz:2791.got - 2010.04.14 02:15:44.
