data_PCOD8310350
_publ_section_title
;
Structure prediction by ZEFSAII (Michael W. Deem and Ramdas Pophale) SiO2 
 PCOD8310350
Probable space group: P -4 B 2
;
_chemical_formula_sum "Si O2"
_cell_formula_units_Z 56
_cell_length_a 14.448698
_cell_length_b 14.448698
_cell_length_c 9.980335
_cell_angle_alpha 90.000000
_cell_angle_beta 90.000000
_cell_angle_gamma 90.000000
_cell_volume 2083.543378
_symmetry_space_group_name_H-M "P -4 B 2"
_symmetry_group_IT_number 117
_symmetry_cell_setting 'tetragonal'
loop_
_space_group_symop_operation_xyz
x,y,z
y,-x,-z
-x,-y,z
-y,x,-z
1/2+y,1/2+x,-z
1/2-y,1/2-x,-z
1/2-x,1/2+y,z
1/2+x,1/2-y,z
loop_
_atom_site_type_symbol
_atom_site_label
_atom_site_fract_x
_atom_site_fract_y
_atom_site_fract_z
Si Si1 0.339420 0.947561 0.748539
Si Si2 0.639625 0.372739 0.908660
Si Si3 0.231672 0.436032 0.474220
Si Si4 0.568362 0.370824 0.188873
Si Si5 0.656648 0.836051 0.219313
Si Si6 0.195076 0.468825 0.170839
Si Si7 0.877654 0.193373 0.568288
O O1 0.340486 0.907348 0.593917
O O2 0.239994 0.928923 0.811221
O O3 0.407956 0.897281 0.854864
O O4 0.364124 0.054363 0.735471
O O5 0.599817 0.460078 0.823276
O O6 0.742593 0.340852 0.867323
O O7 0.571883 0.286532 0.892553
O O8 0.632152 0.403088 0.064022
O O9 0.193469 0.464531 0.331786
O O10 0.279225 0.533727 0.522628
O O11 0.305906 0.352832 0.464398
O O12 0.616596 0.410935 0.321826
O O13 0.721298 0.828113 0.351877
O O14 0.688155 0.923768 0.126482
#
# Coordination Sequence:
#
# PCOD8310350 Si02
#       7
#     8   8   8   8   8   8   8
#     4  10  22  46  68 105 141 182 239 299 360 432
#     4  11  25  48  74 100 146 181 244 306 361 446
#     4  10  23  40  66 102 143 186 234 288 363 429
#     4  10  25  46  70 102 133 193 234 296 369 424
#     4  10  24  45  72 102 144 188 243 293 364 436
#     4  11  24  43  72 111 137 187 238 300 368 435
#     4  10  23  43  65 104 137 187 237 282 362 435
#
# _framework density 26.877288
#
# number of rings (size 3 to 8) (size 9 to 14) (size 15 to 20)
#    0.000    1.714    0.000    2.571   10.000    5.143 
#    7.714    2.857    0.000    1.714    0.000    0.000 
#    0.000    0.000    0.000    0.000    0.000    0.000 
#
# Total GULP energy -694167.004183 kJ/mol
# GULP energy per Si atom -12395.839360 kJ/mol
# Density = 2.681611 g / cm^3
# Si number density = 26.877288 Si / 1000 Ang^3
#
#
#
# Elastic Constant Matrix: (Units=GPa)
#
#
# Indices 1 2 3 4 5 6 
#
# 1 102.3886 9.2319 -0.2549 0.0000 0.0000 0.0000
# 2 9.2319 102.3886 -0.2549 0.0000 0.0000 0.0000
# 3 -0.2549 -0.2549 56.0323 0.0000 0.0000 0.0000
# 4 0.0000 0.0000 0.0000 23.3668 0.0000 0.0000
# 5 0.0000 0.0000 0.0000 0.0000 23.3668 0.0000
# 6 0.0000 0.0000 0.0000 0.0000 0.0000 28.9462
#
#
#
# Elastic Compliance Matrix: (Units=1/GPa)
#
#
# Indices 1 2 3 4 5 6 
#
# 1 0.009847 -0.000888 0.000041 0.000000 0.000000 0.000000
# 2 -0.000888 0.009847 0.000041 0.000000 0.000000 0.000000
# 3 0.000041 0.000041 0.017847 0.000000 0.000000 0.000000
# 4 0.000000 0.000000 0.000000 0.042796 0.000000 0.000000
# 5 0.000000 0.000000 0.000000 0.000000 0.042796 0.000000
# 6 0.000000 0.000000 0.000000 0.000000 0.000000 0.034547
#
#
# Mechanical properties :
#
#
# Convention : Reuss Voigt Hill
#
# Bulk Modulus (GPa) = 27.83307 30.91708 29.37507
# Shear Modulus (GPa) = 29.19402 31.94179 30.56790
#
# Velocity S-wave (km/s) = 3.29933 3.45110 3.37607
# Velocity P-wave (km/s) = 4.98920 5.23528 5.11372
#
# Compressibility (1/GPa) = 0.03592848
#
# Stress axis : x y z
#
# Youngs Moduli (GPa) = 101.55526 101.55526 56.03111
#
# Poissons Ratio (x) = 0.09016 -0.00228
# Poissons Ratio (y) = 0.09016 -0.00228
# Poissons Ratio (z) = -0.00414 -0.00414
#
# Static dielectric constant tensor:
#      x y z
#    x 5.373330 0.000000 0.000000 
#    y 0.000000 5.373330 0.000000 
#    z 0.000000 0.000000 4.844980 
# 
# 
# High freq. dielectric constant tensor:
#      x y z
#    x 2.093750 0.000000 0.000000 
#    y 0.000000 2.093750 0.000000 
#    z 0.000000 0.000000 2.068480 
# 
# From -- ./inp_files/2865.got.cif
#   From: 2010.03.12/outbox.cif.g09.slc.cpg/sg117_2_cif.got.tgz:2865.got - 2010.04.14 02:19:01.
