data_PCOD8310165
_publ_section_title
;
Structure prediction by ZEFSAII (Michael W. Deem and Ramdas Pophale) SiO2 
 PCOD8310165
Probable space group: P -4 C 2
;
_chemical_formula_sum "Si O2"
_cell_formula_units_Z 40
_cell_length_a 11.714885
_cell_length_b 11.714885
_cell_length_c 14.549949
_cell_angle_alpha 90.000000
_cell_angle_beta 90.000000
_cell_angle_gamma 90.000000
_cell_volume 1996.813621
_symmetry_space_group_name_H-M "P -4 C 2"
_symmetry_group_IT_number 116
_symmetry_cell_setting 'tetragonal'
loop_
_space_group_symop_operation_xyz
x,y,z
y,-x,-z
-x,-y,z
-y,x,-z
y,x,1/2-z
-y,-x,1/2-z
-x,y,1/2+z
x,-y,1/2+z
loop_
_atom_site_type_symbol
_atom_site_label
_atom_site_fract_x
_atom_site_fract_y
_atom_site_fract_z
Si Si1 0.113213 0.167879 0.651162
Si Si2 0.600774 0.827129 0.474250
Si Si3 0.335496 0.205193 0.983242
Si Si4 0.997191 0.708626 0.392554
Si Si5 0.270114 0.897877 0.795743
O O1 0.169501 0.169501 0.750000
O O2 0.152015 0.288689 0.610282
O O3 0.166911 0.059311 0.596804
O O4 0.974431 0.168801 0.656342
O O5 0.668489 0.713052 0.501086
O O6 0.470397 0.791085 0.477172
O O7 0.617719 0.926751 0.550477
O O8 0.634792 0.867941 0.371589
O O9 0.283996 0.128410 0.065069
O O10 0.976808 0.674135 0.285387
O O11 0.214070 0.785931 0.750000
#
# Coordination Sequence:
#
# PCOD8310165 Si02
#       5
#     8   8   8   8   8
#     4   9  21  38  59  94 128 164 206 258 322 390
#     4  11  24  43  66  94 130 171 221 276 320 391
#     4  11  22  44  64  92 129 168 221 269 328 380
#     4  10  21  39  64  94 126 163 210 260 327 390
#     4  11  21  40  63  97 133 168 215 260 327 399
#
# _framework density 20.031911999999998
#
# number of rings (size 3 to 8) (size 9 to 14) (size 15 to 20)
#    0.000    1.600    4.000    0.600    0.000    4.000 
#   18.000    0.000    0.000    0.000    0.000    0.000 
#    0.000    0.000    0.000    0.000    0.000    0.000 
#
# Total GULP energy -495671.524197 kJ/mol
# GULP energy per Si atom -12391.788105 kJ/mol
# Density = 1.998632 g / cm^3
# Si number density = 20.031912 Si / 1000 Ang^3
#
#
#
# Elastic Constant Matrix: (Units=GPa)
#
#
# Indices 1 2 3 4 5 6 
#
# 1 99.8006 31.2699 40.4089 0.0000 0.0000 0.0000
# 2 31.2699 99.8024 40.4091 0.0000 0.0000 0.0000
# 3 40.4089 40.4091 103.2540 0.0000 0.0000 0.0000
# 4 0.0000 0.0000 0.0000 19.3426 0.0000 0.0000
# 5 0.0000 0.0000 0.0000 0.0000 19.3422 0.0000
# 6 0.0000 0.0000 0.0000 0.0000 0.0000 18.8301
#
#
#
# Elastic Compliance Matrix: (Units=1/GPa)
#
#
# Indices 1 2 3 4 5 6 
#
# 1 0.012324 -0.002268 -0.003936 0.000000 0.000000 0.000000
# 2 -0.002268 0.012324 -0.003935 0.000000 0.000000 0.000000
# 3 -0.003936 -0.003935 0.012765 0.000000 0.000000 0.000000
# 4 0.000000 0.000000 0.000000 0.051699 0.000000 0.000000
# 5 0.000000 0.000000 0.000000 0.000000 0.051700 0.000000
# 6 0.000000 0.000000 0.000000 0.000000 0.000000 0.053106
#
#
# Mechanical properties :
#
#
# Convention : Reuss Voigt Hill
#
# Bulk Modulus (GPa) = 58.35895 58.55920 58.45907
# Shear Modulus (GPa) = 22.73672 24.22093 23.47883
#
# Velocity S-wave (km/s) = 3.37267 3.48101 3.42727
# Velocity P-wave (km/s) = 6.66054 6.74188 6.70133
#
# Compressibility (1/GPa) = 0.01713533
#
# Stress axis : x y z
#
# Youngs Moduli (GPa) = 81.14217 81.14379 78.33803
#
# Poissons Ratio (x) = 0.18403 0.30830
# Poissons Ratio (y) = 0.18402 0.30829
# Poissons Ratio (z) = 0.31934 0.31934
#
# Static dielectric constant tensor:
#      x y z
#    x 3.461540 0.000000 0.000000 
#    y 0.000000 3.461540 0.000000 
#    z 0.000000 0.000000 3.966560 
# 
# 
# High freq. dielectric constant tensor:
#      x y z
#    x 1.763370 0.000000 0.000000 
#    y 0.000000 1.763370 0.000000 
#    z 0.000000 0.000000 1.799760 
# 
# From -- ./inp_files/2545.got.cif
#   From: 2010.03.12/outbox.cif.g09.slc.cpg/sg116_2_cif.got.tgz:2545.got - 2010.04.14 02:15:44.
