data_PCOD8310205
_publ_section_title
;
Structure prediction by ZEFSAII (Michael W. Deem and Ramdas Pophale) SiO2 
 PCOD8310205
Probable space group: P -4 C 2
;
_chemical_formula_sum "Si O2"
_cell_formula_units_Z 48
_cell_length_a 8.831187
_cell_length_b 8.831187
_cell_length_c 29.095574
_cell_angle_alpha 90.000000
_cell_angle_beta 90.000000
_cell_angle_gamma 90.000000
_cell_volume 2269.159854
_symmetry_space_group_name_H-M "P -4 C 2"
_symmetry_group_IT_number 116
_symmetry_cell_setting 'tetragonal'
loop_
_space_group_symop_operation_xyz
x,y,z
y,-x,-z
-x,-y,z
-y,x,-z
y,x,1/2-z
-y,-x,1/2-z
-x,y,1/2+z
x,-y,1/2+z
loop_
_atom_site_type_symbol
_atom_site_label
_atom_site_fract_x
_atom_site_fract_y
_atom_site_fract_z
Si Si1 0.444939 0.670142 0.114966
Si Si2 0.904104 0.269647 0.787392
Si Si3 0.145950 0.743680 0.891234
Si Si4 0.947261 0.666824 0.045213
Si Si5 0.246181 0.840919 0.049848
Si Si6 0.230068 0.595748 0.286422
O O1 0.500000 0.500000 0.108465
O O2 0.571602 0.798256 0.107827
O O3 0.317878 0.700474 0.077090
O O4 0.370743 0.693888 0.164597
O O5 0.855147 0.144854 0.750000
O O6 0.880640 0.203714 0.838729
O O7 0.803358 0.418872 0.780028
O O8 0.079656 0.305448 0.780007
O O9 0.277837 0.844814 0.912745
O O10 0.992074 0.755705 0.919816
O O11 0.000000 0.500000 0.058940
O O12 0.077623 0.790641 0.037292
O O13 0.858839 0.659002 0.996984
O O14 0.355482 0.644519 0.250000
#
# Coordination Sequence:
#
# PCOD8310205 Si02
#       6
#     8   8   8   8   8   8
#     4  11  24  43  70 101 136 183 231 290 356 413
#     4  10  23  44  66  97 136 180 227 283 349 412
#     4  11  23  45  69  97 139 185 229 287 355 420
#     4  12  26  44  68 103 137 181 238 288 349 424
#     4  12  24  45  71  99 139 184 229 287 355 430
#     4  10  23  41  67  98 134 176 227 284 347 418
#
# _framework density 21.153203000000001
#
# number of rings (size 3 to 8) (size 9 to 14) (size 15 to 20)
#    0.000    1.000    3.333    3.000    4.667    1.667 
#    6.000    0.000    0.000    0.000    0.000    0.000 
#    0.000    0.000    0.000    0.000    0.000    0.000 
#
# Total GULP energy -595502.780954 kJ/mol
# GULP energy per Si atom -12406.307937 kJ/mol
# Density = 2.110506 g / cm^3
# Si number density = 21.153203 Si / 1000 Ang^3
#
#
#
# Elastic Constant Matrix: (Units=GPa)
#
#
# Indices 1 2 3 4 5 6 
#
# 1 82.4954 23.8100 43.6858 0.0000 0.0000 0.0000
# 2 23.8100 82.4966 43.6872 0.0000 0.0000 0.0000
# 3 43.6858 43.6872 125.3788 0.0000 0.0000 0.0000
# 4 0.0000 0.0000 0.0000 38.0387 0.0000 0.0000
# 5 0.0000 0.0000 0.0000 0.0000 38.0386 0.0000
# 6 0.0000 0.0000 0.0000 0.0000 0.0000 42.9759
#
#
#
# Elastic Compliance Matrix: (Units=1/GPa)
#
#
# Indices 1 2 3 4 5 6 
#
# 1 0.015111 -0.001929 -0.004593 0.000000 0.000000 0.000000
# 2 -0.001929 0.015111 -0.004593 0.000000 0.000000 0.000000
# 3 -0.004593 -0.004593 0.011177 0.000000 0.000000 0.000000
# 4 0.000000 0.000000 0.000000 0.026289 0.000000 0.000000
# 5 0.000000 0.000000 0.000000 0.000000 0.026289 0.000000
# 6 0.000000 0.000000 0.000000 0.000000 0.000000 0.023269
#
#
# Mechanical properties :
#
#
# Convention : Reuss Voigt Hill
#
# Bulk Modulus (GPa) = 52.16994 56.97075 54.57035
# Shear Modulus (GPa) = 34.27836 35.75650 35.01743
#
# Velocity S-wave (km/s) = 4.02989 4.11586 4.07310
# Velocity P-wave (km/s) = 6.80953 7.04116 6.92632
#
# Compressibility (1/GPa) = 0.01916812
#
# Stress axis : x y z
#
# Youngs Moduli (GPa) = 66.17759 66.17786 89.47287
#
# Poissons Ratio (x) = 0.12766 0.41094
# Poissons Ratio (y) = 0.12766 0.41096
# Poissons Ratio (z) = 0.30395 0.30396
#
# Static dielectric constant tensor:
#      x y z
#    x 3.763790 0.000000 0.000000 
#    y 0.000000 3.763790 0.000000 
#    z 0.000000 0.000000 3.984660 
# 
# 
# High freq. dielectric constant tensor:
#      x y z
#    x 1.831610 0.000000 0.000000 
#    y 0.000000 1.831610 0.000000 
#    z 0.000000 0.000000 1.841210 
# 
# From -- ./inp_files/5257.got.cif
#   From: 2010.03.12/outbox.cif.g09.slc.cpg/sg116_3_cif.got.tgz:5257.got - 2010.04.14 02:15:44.
