data_PCOD8310901
_publ_section_title
;
Structure prediction by ZEFSAII (Michael W. Deem and Ramdas Pophale) SiO2 
 PCOD8310901
Probable space group: I -4 M 2
;
_chemical_formula_sum "Si O2"
_cell_formula_units_Z 96
_cell_length_a 23.824559
_cell_length_b 23.824559
_cell_length_c 9.304905
_cell_angle_alpha 90.000000
_cell_angle_beta 90.000000
_cell_angle_gamma 90.000000
_cell_volume 5281.553513
_symmetry_space_group_name_H-M "I -4 M 2"
_symmetry_group_IT_number 119
_symmetry_cell_setting 'tetragonal'
loop_
_space_group_symop_operation_xyz
x,y,z
y,-x,-z
-x,-y,z
-y,x,-z
y,x,-z
-y,-x,-z
-x,y,z
x,-y,z
1/2+x,1/2+y,1/2+z
1/2+y,1/2-x,1/2-z
1/2-x,1/2-y,1/2+z
1/2-y,1/2+x,1/2-z
1/2+y,1/2+x,1/2-z
1/2-y,1/2-x,1/2-z
1/2-x,1/2+y,1/2+z
1/2+x,1/2-y,1/2+z
loop_
_atom_site_type_symbol
_atom_site_label
_atom_site_fract_x
_atom_site_fract_y
_atom_site_fract_z
Si Si1 0.274601 0.934103 0.096080
Si Si2 0.135228 0.437148 0.840215
Si Si3 0.062623 0.938828 0.829171
Si Si4 0.235319 0.802090 0.652680
Si Si5 0.836221 0.866074 0.159422
Si Si6 0.351950 0.142838 0.905113
O O1 0.312038 0.929451 0.237022
O O2 0.216622 0.907676 0.151323
O O3 0.267525 0.000000 0.049068
O O4 0.301489 0.897457 0.964492
O O5 0.126768 0.500000 0.892805
O O6 0.080553 0.419448 0.750000
O O7 0.143704 0.401570 0.982262
O O8 0.101274 0.888984 0.772190
O O9 0.000000 0.929859 0.769193
O O10 0.085409 0.000000 0.777874
O O11 0.062554 0.937447 0.000000
O O12 0.212748 0.787253 0.500000
O O13 0.246956 0.746956 0.750000
O O14 0.187474 0.834974 0.737275
O O15 0.293087 0.834560 0.625979
O O16 0.844691 0.844691 0.000000
O O17 0.376985 0.123016 0.750000
#
# Coordination Sequence:
#
# PCOD8310901 Si02
#       6
#    16  16  16  16  16  16
#     4  10  20  35  55  78 105 141 186 230 268 317
#     4   9  19  36  57  78 102 136 176 217 260 312
#     4   8  15  29  49  74 104 137 176 224 272 316
#     4  11  21  34  51  74 105 142 177 217 268 325
#     4  11  20  32  52  79 106 137 179 225 272 325
#     4  10  20  34  51  77 110 141 172 214 272 328
#
# _framework density 18.176470999999999
#
# number of rings (size 3 to 8) (size 9 to 14) (size 15 to 20)
#    0.000    2.167    0.000    5.500    0.000    2.833 
#    0.000    0.833    0.000    2.000    0.000    3.500 
#    0.000    0.000    0.000    0.000    0.000    0.000 
#
# Total GULP energy -594696.511181 kJ/mol
# GULP energy per Si atom -12389.510650 kJ/mol
# Density = 1.813510 g / cm^3
# Si number density = 18.176471 Si / 1000 Ang^3
#
#
#
# Elastic Constant Matrix: (Units=GPa)
#
#
# Indices 1 2 3 4 5 6 
#
# 1 90.9881 121.6729 47.4644 0.0000 0.0000 0.0000
# 2 121.6729 90.9533 47.4670 0.0000 0.0000 0.0000
# 3 47.4644 47.4670 99.1862 0.0000 0.0000 0.0000
# 4 0.0000 0.0000 0.0000 17.1825 0.0000 0.0000
# 5 0.0000 0.0000 0.0000 0.0000 17.1834 0.0000
# 6 0.0000 0.0000 0.0000 0.0000 0.0000 31.2056
#
#
#
# Elastic Compliance Matrix: (Units=1/GPa)
#
#
# Indices 1 2 3 4 5 6 
#
# 1 -0.013292 0.019276 -0.002864 0.000000 0.000000 0.000000
# 2 0.019276 -0.013299 -0.002860 0.000000 0.000000 0.000000
# 3 -0.002864 -0.002860 0.012821 0.000000 0.000000 0.000000
# 4 0.000000 0.000000 0.000000 0.058199 0.000000 0.000000
# 5 0.000000 0.000000 0.000000 0.000000 0.058196 0.000000
# 6 0.000000 0.000000 0.000000 0.000000 0.000000 0.032046
#
#
# Mechanical properties :
#
#
# Convention : Reuss Voigt Hill
#
# Bulk Modulus (GPa) = 74.99473 79.37069 77.18271
# Shear Modulus (GPa) = 44.63817 17.41584 31.02701
#
# Velocity S-wave (km/s) = 4.96100 3.09876 4.13605
# Velocity P-wave (km/s) = 8.61186 7.52095 8.08483
#
# Compressibility (1/GPa) = 0.01333427
#
# Stress axis : x y z
#
# Youngs Moduli (GPa) = -75.23517 -75.19403 77.99590
#
# Poissons Ratio (x) = 1.44941 0.22339
# Poissons Ratio (y) = 1.45021 0.22305
# Poissons Ratio (z) = -0.21548 -0.21504
#
# Static dielectric constant tensor:
#      x y z
#    x 3.599590 0.000000 0.000000 
#    y 0.000000 3.599620 0.000000 
#    z 0.000000 0.000000 3.872900 
# 
# 
# High freq. dielectric constant tensor:
#      x y z
#    x 1.707940 0.000000 0.000000 
#    y 0.000000 1.707940 0.000000 
#    z 0.000000 0.000000 1.692830 
# 
# From -- ./inp_files/2655.got.cif
#   From: 2010.03.12/outbox.cif.g09.slc.cpg/sg119_2_cif.got.tgz:2655.got - 2010.04.14 02:25:26.
