data_PCOD8310718
_publ_section_title
;
Structure prediction by ZEFSAII (Michael W. Deem and Ramdas Pophale) SiO2 
 PCOD8310718
Probable space group: I -4 M 2
;
_chemical_formula_sum "Si O2"
_cell_formula_units_Z 96
_cell_length_a 15.028047
_cell_length_b 15.028047
_cell_length_c 24.566823
_cell_angle_alpha 90.000000
_cell_angle_beta 90.000000
_cell_angle_gamma 90.000000
_cell_volume 5548.225271
_symmetry_space_group_name_H-M "I -4 M 2"
_symmetry_group_IT_number 119
_symmetry_cell_setting 'tetragonal'
loop_
_space_group_symop_operation_xyz
x,y,z
y,-x,-z
-x,-y,z
-y,x,-z
y,x,-z
-y,-x,-z
-x,y,z
x,-y,z
1/2+x,1/2+y,1/2+z
1/2+y,1/2-x,1/2-z
1/2-x,1/2-y,1/2+z
1/2-y,1/2+x,1/2-z
1/2+y,1/2+x,1/2-z
1/2-y,1/2-x,1/2-z
1/2-x,1/2+y,1/2+z
1/2+x,1/2-y,1/2+z
loop_
_atom_site_type_symbol
_atom_site_label
_atom_site_fract_x
_atom_site_fract_y
_atom_site_fract_z
Si Si1 0.603644 0.308449 0.236073
Si Si2 0.096636 0.337394 0.195981
Si Si3 0.894975 0.000000 0.773661
Si Si4 0.714096 0.670062 0.439164
Si Si5 0.709254 0.244499 0.329364
Si Si6 0.599997 0.096355 0.581040
Si Si7 0.500000 0.606459 0.599799
O O1 0.500000 0.303887 0.222209
O O2 0.638514 0.410391 0.243243
O O3 0.620486 0.251814 0.291980
O O4 0.655387 0.264312 0.184893
O O5 0.105692 0.394309 0.250000
O O6 0.170391 0.263087 0.190880
O O7 0.100574 0.405899 0.146304
O O8 0.000000 0.288098 0.196887
O O9 0.869509 0.000000 0.837105
O O10 0.000000 0.000000 0.770654
O O11 0.699130 0.699130 0.500000
O O12 0.689966 0.746805 0.394190
O O13 0.819918 0.655851 0.438964
O O14 0.653068 0.585276 0.426913
O O15 0.500000 0.106913 0.558490
O O16 0.638911 0.000000 0.561418
O O17 0.500000 0.500000 0.587981
#
# Coordination Sequence:
#
# PCOD8310718 Si02
#       7
#    16  16   8  16  16  16   8
#     4  10  19  34  55  80 110 144 182 228 281 336
#     4  10  18  27  45  75 112 142 172 203 254 329
#     4   9  18  32  54  83 117 153 181 217 280 350
#     4  11  23  37  54  79 115 150 198 234 278 337
#     4  10  21  35  51  78 106 146 183 230 279 324
#     4   9  18  33  50  71 103 145 184 223 265 316
#     4  11  22  34  53  87 125 159 186 223 281 350
#
# _framework density 17.30283
#
# number of rings (size 3 to 8) (size 9 to 14) (size 15 to 20)
#    0.000    2.000    4.167    0.500    3.500    0.833 
#    6.000    0.833    0.000    4.000    0.000    0.000 
#    0.000    0.000    0.000    0.000    0.000    0.000 
#
# Total GULP energy -594717.001878 kJ/mol
# GULP energy per Si atom -12389.937539 kJ/mol
# Density = 1.726345 g / cm^3
# Si number density = 17.302830 Si / 1000 Ang^3
#
#
#
# Elastic Constant Matrix: (Units=GPa)
#
#
# Indices 1 2 3 4 5 6 
#
# 1 83.7915 34.8534 37.9997 0.0000 0.0000 0.0000
# 2 34.8534 83.7913 37.9997 0.0000 0.0000 0.0000
# 3 37.9997 37.9997 125.9002 0.0000 0.0000 0.0000
# 4 0.0000 0.0000 0.0000 13.6883 0.0000 0.0000
# 5 0.0000 0.0000 0.0000 0.0000 13.6882 0.0000
# 6 0.0000 0.0000 0.0000 0.0000 0.0000 18.8796
#
#
#
# Elastic Compliance Matrix: (Units=1/GPa)
#
#
# Indices 1 2 3 4 5 6 
#
# 1 0.015441 -0.004993 -0.003154 0.000000 0.000000 0.000000
# 2 -0.004993 0.015441 -0.003154 0.000000 0.000000 0.000000
# 3 -0.003154 -0.003154 0.009846 0.000000 0.000000 0.000000
# 4 0.000000 0.000000 0.000000 0.073055 0.000000 0.000000
# 5 0.000000 0.000000 0.000000 0.000000 0.073056 0.000000
# 6 0.000000 0.000000 0.000000 0.000000 0.000000 0.052967
#
#
# Mechanical properties :
#
#
# Convention : Reuss Voigt Hill
#
# Bulk Modulus (GPa) = 55.15976 57.24317 56.20146
# Shear Modulus (GPa) = 18.62541 21.42655 20.02598
#
# Velocity S-wave (km/s) = 3.28447 3.52280 3.40572
# Velocity P-wave (km/s) = 6.80675 7.04995 6.92942
#
# Compressibility (1/GPa) = 0.01812916
#
# Stress axis : x y z
#
# Youngs Moduli (GPa) = 64.76141 64.76117 101.55902
#
# Poissons Ratio (x) = 0.32333 0.32028
# Poissons Ratio (y) = 0.32333 0.32028
# Poissons Ratio (z) = 0.20423 0.20423
#
# Static dielectric constant tensor:
#      x y z
#    x 3.252150 0.000000 0.000000 
#    y 0.000000 3.252150 0.000000 
#    z 0.000000 0.000000 3.295060 
# 
# 
# High freq. dielectric constant tensor:
#      x y z
#    x 1.661180 0.000000 0.000000 
#    y 0.000000 1.661180 0.000000 
#    z 0.000000 0.000000 1.642460 
# 
# From -- ./inp_files/8774.got.cif
#   From: 2010.03.12/outbox.cif.g09.slc.cpg/sg119_5_cif.got.tgz:8774.got - 2010.04.14 02:25:26.
