data_PCOD8310151
_publ_section_title
;
Structure prediction by ZEFSAII (Michael W. Deem and Ramdas Pophale) SiO2 
 PCOD8310151
Probable space group: P -4 C 2
;
_chemical_formula_sum "Si O2"
_cell_formula_units_Z 64
_cell_length_a 19.728232
_cell_length_b 19.728232
_cell_length_c 9.392992
_cell_angle_alpha 90.000000
_cell_angle_beta 90.000000
_cell_angle_gamma 90.000000
_cell_volume 3655.781960
_symmetry_space_group_name_H-M "P -4 C 2"
_symmetry_group_IT_number 116
_symmetry_cell_setting 'tetragonal'
loop_
_space_group_symop_operation_xyz
x,y,z
y,-x,-z
-x,-y,z
-y,x,-z
y,x,1/2-z
-y,-x,1/2-z
-x,y,1/2+z
x,-y,1/2+z
loop_
_atom_site_type_symbol
_atom_site_label
_atom_site_fract_x
_atom_site_fract_y
_atom_site_fract_z
Si Si1 0.256354 0.960975 0.126443
Si Si2 0.215133 0.812782 0.095214
Si Si3 0.654673 0.993548 0.874464
Si Si4 0.797459 0.890390 0.122896
Si Si5 0.199701 0.707741 0.676490
Si Si6 0.881004 0.578523 0.219475
Si Si7 0.937943 0.936685 0.407399
Si Si8 0.073773 0.528936 0.001968
O O1 0.209091 0.894789 0.110697
O O2 0.288764 0.955130 0.283332
O O3 0.213785 0.029757 0.115099
O O4 0.315166 0.964803 0.007692
O O5 0.222251 0.777750 0.250000
O O6 0.150020 0.776948 0.020375
O O7 0.280009 0.797267 0.993928
O O8 0.600403 0.936636 0.919081
O O9 0.620868 0.049504 0.772868
O O10 0.758724 0.857931 0.258265
O O11 0.879287 0.881089 0.120655
O O12 0.271575 0.728426 0.750000
O O13 0.183018 0.629117 0.704392
O O14 0.883422 0.523955 0.094363
O O15 0.877360 0.538828 0.367559
O O16 0.961588 0.961588 0.250000
O O17 0.001182 0.907462 0.500826
O O18 0.000000 0.500000 0.957966
#
# Coordination Sequence:
#
# PCOD8310151 Si02
#       8
#     8   8   8   8   8   8   8   8
#     4  12  21  35  55  72  97 130 170 223 283 345
#     4  11  23  34  50  73  93 121 174 230 277 334
#     4  11  20  33  52  76 101 133 166 209 278 329
#     4  11  22  38  52  68  90 127 167 218 285 347
#     4  10  21  39  55  71 105 144 180 211 256 319
#     4  11  20  36  53  80 109 141 169 212 259 315
#     4  11  23  38  52  65  82 107 150 216 295 358
#     4  10  21  32  53  82 113 139 172 214 271 328
#
# _framework density 17.506515
#
# number of rings (size 3 to 8) (size 9 to 14) (size 15 to 20)
#    0.000    1.125    3.750    4.500    1.750    4.000 
#    0.000    0.000    0.000    0.000    0.000    0.000 
#    0.000    0.000    0.000    0.000    0.000    1.875 
#
# Total GULP energy -793057.709630 kJ/mol
# GULP energy per Si atom -12391.526713 kJ/mol
# Density = 1.746667 g / cm^3
# Si number density = 17.506515 Si / 1000 Ang^3
#
#
#
# Elastic Constant Matrix: (Units=GPa)
#
#
# Indices 1 2 3 4 5 6 
#
# 1 64.0781 24.1136 37.5533 0.0000 0.0000 0.0000
# 2 24.1136 64.0784 37.5535 0.0000 0.0000 0.0000
# 3 37.5533 37.5535 130.1879 0.0000 0.0000 0.0000
# 4 0.0000 0.0000 0.0000 19.7408 0.0000 0.0000
# 5 0.0000 0.0000 0.0000 0.0000 19.7406 0.0000
# 6 0.0000 0.0000 0.0000 0.0000 0.0000 20.1639
#
#
#
# Elastic Compliance Matrix: (Units=1/GPa)
#
#
# Indices 1 2 3 4 5 6 
#
# 1 0.020027 -0.004995 -0.004336 0.000000 0.000000 0.000000
# 2 -0.004995 0.020027 -0.004336 0.000000 0.000000 0.000000
# 3 -0.004336 -0.004336 0.010183 0.000000 0.000000 0.000000
# 4 0.000000 0.000000 0.000000 0.050657 0.000000 0.000000
# 5 0.000000 0.000000 0.000000 0.000000 0.050657 0.000000
# 6 0.000000 0.000000 0.000000 0.000000 0.000000 0.049594
#
#
# Mechanical properties :
#
#
# Convention : Reuss Voigt Hill
#
# Bulk Modulus (GPa) = 43.66433 50.75391 47.20912
# Shear Modulus (GPa) = 21.17641 22.53731 21.85686
#
# Velocity S-wave (km/s) = 3.48175 3.59188 3.53724
# Velocity P-wave (km/s) = 6.41555 6.80122 6.61120
#
# Compressibility (1/GPa) = 0.02290199
#
# Stress axis : x y z
#
# Youngs Moduli (GPa) = 49.93291 49.93314 98.20626
#
# Poissons Ratio (x) = 0.24943 0.42581
# Poissons Ratio (y) = 0.24943 0.42582
# Poissons Ratio (z) = 0.21651 0.21651
#
# Static dielectric constant tensor:
#      x y z
#    x 3.124440 0.000000 0.000000 
#    y 0.000000 3.124430 0.000000 
#    z 0.000000 0.000000 3.468130 
# 
# 
# High freq. dielectric constant tensor:
#      x y z
#    x 1.634620 0.000000 0.000000 
#    y 0.000000 1.634620 0.000000 
#    z 0.000000 0.000000 1.702720 
# 
# From -- ./inp_files/1134.got.cif
#   From: 2010.03.12/outbox.cif.g09.slc.cpg/sg116_1_cif.got.tgz:1134.got - 2010.04.14 02:15:44.
