data_PCOD8310295
_publ_section_title
;
Structure prediction by ZEFSAII (Michael W. Deem and Ramdas Pophale) SiO2 
 PCOD8310295
Probable space group: P -4 B 2
;
_chemical_formula_sum "Si O2"
_cell_formula_units_Z 34
_cell_length_a 18.668762
_cell_length_b 18.668762
_cell_length_c 5.150611
_cell_angle_alpha 90.000000
_cell_angle_beta 90.000000
_cell_angle_gamma 90.000000
_cell_volume 1795.104722
_symmetry_space_group_name_H-M "P -4 B 2"
_symmetry_group_IT_number 117
_symmetry_cell_setting 'tetragonal'
loop_
_space_group_symop_operation_xyz
x,y,z
y,-x,-z
-x,-y,z
-y,x,-z
1/2+y,1/2+x,-z
1/2-y,1/2-x,-z
1/2-x,1/2+y,z
1/2+x,1/2-y,z
loop_
_atom_site_type_symbol
_atom_site_label
_atom_site_fract_x
_atom_site_fract_y
_atom_site_fract_z
Si Si1 0.000000 0.500000 0.000000
Si Si2 0.684337 0.694581 0.510963
Si Si3 0.133209 0.748870 0.006544
Si Si4 0.800973 0.583644 0.581380
Si Si5 0.839625 0.503284 0.095997
O O1 0.000790 0.574838 0.841067
O O2 0.742270 0.757730 0.500000
O O3 0.635220 0.697315 0.252372
O O4 0.722403 0.618236 0.556614
O O5 0.628390 0.704262 0.746257
O O6 0.208274 0.708274 0.000000
O O7 0.070028 0.691032 0.020161
O O8 0.859554 0.640447 0.500000
O O9 0.803474 0.518973 0.373783
O O10 0.819632 0.561752 0.876399
#
# Coordination Sequence:
#
# PCOD8310295 Si02
#       5
#     2   8   8   8   8
#     4  12  24  38  48  74 124 162 176 210 232 310
#     4   9  19  34  54  70  98 134 181 233 276 289
#     4  10  19  34  51  75 101 139 178 223 261 309
#     4  11  21  36  52  76 104 144 185 225 260 309
#     4  12  23  35  53  78 112 151 190 203 253 322
#
# _framework density 18.940397999999998
#
# number of rings (size 3 to 8) (size 9 to 14) (size 15 to 20)
#    0.000    1.412    3.529    2.824    0.000    5.647 
#    0.000    0.000    0.000    0.000    0.000    0.000 
#    0.000   65.882    0.000    0.000    0.000    0.000 
#
# Total GULP energy -421356.076726 kJ/mol
# GULP energy per Si atom -12392.825786 kJ/mol
# Density = 1.889729 g / cm^3
# Si number density = 18.940398 Si / 1000 Ang^3
#
#
#
# Elastic Constant Matrix: (Units=GPa)
#
#
# Indices 1 2 3 4 5 6 
#
# 1 60.9213 41.5242 31.7430 0.0000 0.0000 0.0000
# 2 41.5242 60.9224 31.7438 0.0000 0.0000 0.0000
# 3 31.7430 31.7438 129.2228 0.0000 0.0000 0.0000
# 4 0.0000 0.0000 0.0000 24.4192 0.0000 0.0000
# 5 0.0000 0.0000 0.0000 0.0000 24.4197 0.0000
# 6 0.0000 0.0000 0.0000 0.0000 0.0000 39.3206
#
#
#
# Elastic Compliance Matrix: (Units=1/GPa)
#
#
# Indices 1 2 3 4 5 6 
#
# 1 0.031533 -0.020019 -0.002828 0.000000 0.000000 0.000000
# 2 -0.020019 0.031533 -0.002829 0.000000 0.000000 0.000000
# 3 -0.002828 -0.002829 0.009128 0.000000 0.000000 0.000000
# 4 0.000000 0.000000 0.000000 0.040951 0.000000 0.000000
# 5 0.000000 0.000000 0.000000 0.000000 0.040950 0.000000
# 6 0.000000 0.000000 0.000000 0.000000 0.000000 0.025432
#
#
# Mechanical properties :
#
#
# Convention : Reuss Voigt Hill
#
# Bulk Modulus (GPa) = 47.97867 51.23206 49.60536
# Shear Modulus (GPa) = 21.02358 27.36894 24.19626
#
# Velocity S-wave (km/s) = 3.33526 3.80544 3.57808
# Velocity P-wave (km/s) = 6.34179 6.81295 6.58159
#
# Compressibility (1/GPa) = 0.02084260
#
# Stress axis : x y z
#
# Youngs Moduli (GPa) = 31.71232 31.71273 109.55106
#
# Poissons Ratio (x) = 0.63487 0.30984
# Poissons Ratio (y) = 0.63486 0.30987
# Poissons Ratio (z) = 0.08969 0.08970
#
# Static dielectric constant tensor:
#      x y z
#    x 3.299610 0.000000 0.000000 
#    y 0.000000 3.299600 0.000000 
#    z 0.000000 0.000000 3.789620 
# 
# 
# High freq. dielectric constant tensor:
#      x y z
#    x 1.705440 0.000000 0.000000 
#    y 0.000000 1.705440 0.000000 
#    z 0.000000 0.000000 1.752560 
# 
# From -- ./inp_files/499.got.cif
#   From: 2010.03.12/outbox.cif.g09.slc.cpg/sg117_1_cif.got.tgz:499.got - 2010.04.14 02:19:01.
