data_PCOD8310257
_publ_section_title
;
Structure prediction by ZEFSAII (Michael W. Deem and Ramdas Pophale) SiO2 
 PCOD8310257
Probable space group: P -4 C 2
;
_chemical_formula_sum "Si O2"
_cell_formula_units_Z 20
_cell_length_a 6.894929
_cell_length_b 6.894929
_cell_length_c 20.235104
_cell_angle_alpha 90.000000
_cell_angle_beta 90.000000
_cell_angle_gamma 90.000000
_cell_volume 961.977773
_symmetry_space_group_name_H-M "P -4 C 2"
_symmetry_group_IT_number 116
_symmetry_cell_setting 'tetragonal'
loop_
_space_group_symop_operation_xyz
x,y,z
y,-x,-z
-x,-y,z
-y,x,-z
y,x,1/2-z
-y,-x,1/2-z
-x,y,1/2+z
x,-y,1/2+z
loop_
_atom_site_type_symbol
_atom_site_label
_atom_site_fract_x
_atom_site_fract_y
_atom_site_fract_z
Si Si1 0.013983 0.280506 0.717400
Si Si2 0.000000 0.500000 0.971638
Si Si3 0.817333 0.870883 0.928333
O O1 0.212319 0.212319 0.750000
O O2 0.030949 0.253062 0.639205
O O3 0.000000 0.500000 0.737545
O O4 0.835332 0.164669 0.750000
O O5 0.128907 0.359262 0.924191
O O6 0.122652 0.644273 0.018201
O O7 0.000000 0.000000 0.951551
#
# Coordination Sequence:
#
# PCOD8310257 Si02
#       3
#     8   4   8
#     4  11  25  45  72 104 141 186 230 293 353 416
#     4  12  24  44  72  98 142 188 226 292 352 412
#     4  12  24  46  68 102 143 179 236 293 349 416
#
# _framework density 20.790500999999999
#
# number of rings (size 3 to 8) (size 9 to 14) (size 15 to 20)
#    0.000    0.400   10.000    0.000    2.800    1.600 
#    0.000    4.000    0.000    0.000    0.000    0.000 
#    0.000    0.000    0.000    0.000    0.000    0.000 
#
# Total GULP energy -247781.158765 kJ/mol
# GULP energy per Si atom -12389.057938 kJ/mol
# Density = 2.074318 g / cm^3
# Si number density = 20.790501 Si / 1000 Ang^3
#
#
#
# Elastic Constant Matrix: (Units=GPa)
#
#
# Indices 1 2 3 4 5 6 
#
# 1 167.3246 69.1181 34.4824 0.0000 0.0000 0.0000
# 2 69.1181 167.3251 34.4818 0.0000 0.0000 0.0000
# 3 34.4824 34.4818 95.0721 0.0000 0.0000 0.0000
# 4 0.0000 0.0000 0.0000 21.1138 0.0000 0.0000
# 5 0.0000 0.0000 0.0000 0.0000 21.1129 0.0000
# 6 0.0000 0.0000 0.0000 0.0000 0.0000 24.2470
#
#
#
# Elastic Compliance Matrix: (Units=1/GPa)
#
#
# Indices 1 2 3 4 5 6 
#
# 1 0.007456 -0.002726 -0.001715 0.000000 0.000000 0.000000
# 2 -0.002726 0.007456 -0.001715 0.000000 0.000000 0.000000
# 3 -0.001715 -0.001715 0.011763 0.000000 0.000000 0.000000
# 4 0.000000 0.000000 0.000000 0.047362 0.000000 0.000000
# 5 0.000000 0.000000 0.000000 0.000000 0.047364 0.000000
# 6 0.000000 0.000000 0.000000 0.000000 0.000000 0.041242
#
#
# Mechanical properties :
#
#
# Convention : Reuss Voigt Hill
#
# Bulk Modulus (GPa) = 69.63621 78.43183 74.03402
# Shear Modulus (GPa) = 27.81713 32.73738 30.27725
#
# Velocity S-wave (km/s) = 3.66180 3.97247 3.82029
# Velocity P-wave (km/s) = 7.17254 7.67121 7.42606
#
# Compressibility (1/GPa) = 0.01436034
#
# Stress axis : x y z
#
# Youngs Moduli (GPa) = 134.11705 134.11787 85.01462
#
# Poissons Ratio (x) = 0.36567 0.14584
# Poissons Ratio (y) = 0.36566 0.14583
# Poissons Ratio (z) = 0.23007 0.23006
#
# Static dielectric constant tensor:
#      x y z
#    x 3.913690 0.000000 0.000000 
#    y 0.000000 3.913690 0.000000 
#    z 0.000000 0.000000 3.902710 
# 
# 
# High freq. dielectric constant tensor:
#      x y z
#    x 1.809630 0.000000 0.000000 
#    y 0.000000 1.809630 0.000000 
#    z 0.000000 0.000000 1.834090 
# 
# From -- ./inp_files/4243.got.cif
#   From: 2010.03.12/outbox.cif.g09.slc.cpg/sg116_3_cif.got.tgz:4243.got - 2010.04.14 02:15:44.
