data_PCOD8310580
_publ_section_title
;
Structure prediction by ZEFSAII (Michael W. Deem and Ramdas Pophale) SiO2 
 PCOD8310580
Probable space group: P -4 N 2
;
_chemical_formula_sum "Si O2"
_cell_formula_units_Z 40
_cell_length_a 8.964375
_cell_length_b 8.964375
_cell_length_c 25.187134
_cell_angle_alpha 90.000000
_cell_angle_beta 90.000000
_cell_angle_gamma 90.000000
_cell_volume 2024.038570
_symmetry_space_group_name_H-M "P -4 N 2"
_symmetry_group_IT_number 118
_symmetry_cell_setting 'tetragonal'
loop_
_space_group_symop_operation_xyz
x,y,z
y,-x,-z
-x,-y,z
-y,x,-z
1/2+y,1/2+x,1/2-z
1/2-y,1/2-x,1/2-z
1/2-x,1/2+y,1/2+z
1/2+x,1/2-y,1/2+z
loop_
_atom_site_type_symbol
_atom_site_label
_atom_site_fract_x
_atom_site_fract_y
_atom_site_fract_z
Si Si1 0.210171 0.311482 0.888197
Si Si2 0.348290 0.583110 0.297391
Si Si3 0.806720 0.693281 0.250000
Si Si4 0.500000 0.000000 0.454792
Si Si5 0.329968 0.505189 0.802573
Si Si6 0.572448 0.714176 0.983061
O O1 0.197693 0.167748 0.850636
O O2 0.064938 0.359092 0.921614
O O3 0.231466 0.455488 0.851607
O O4 0.352166 0.280511 0.925423
O O5 0.500000 0.500000 0.312242
O O6 0.215898 0.467433 0.279384
O O7 0.391132 0.690700 0.247649
O O8 0.674800 0.716695 0.207872
O O9 0.376232 0.078881 0.490938
O O10 0.500000 0.500000 0.820619
O O11 0.660182 0.599254 0.021959
#
# Coordination Sequence:
#
# PCOD8310580 Si02
#       6
#     8   8   4   4   8   8
#     4  11  22  39  66  89 118 166 204 246 316 364
#     4   9  20  40  54  95 128 155 199 248 300 374
#     4   8  18  40  60  82 140 158 194 251 295 348
#     4  10  24  40  63  94 115 156 214 258 308 358
#     4   9  20  36  61  90 119 157 202 240 289 372
#     4   9  21  45  64  86 122 151 209 264 297 366
#
# _framework density 19.762467999999998
#
# number of rings (size 3 to 8) (size 9 to 14) (size 15 to 20)
#    0.000    3.000    0.000    0.600   11.200    0.000 
#   14.400    4.000    0.000    0.000    0.000    0.000 
#    0.000    0.000    0.000    0.000    0.000    0.000 
#
# Total GULP energy -495614.374523 kJ/mol
# GULP energy per Si atom -12390.359363 kJ/mol
# Density = 1.971749 g / cm^3
# Si number density = 19.762468 Si / 1000 Ang^3
#
#
#
# Elastic Constant Matrix: (Units=GPa)
#
#
# Indices 1 2 3 4 5 6 
#
# 1 88.9807 39.4394 52.4848 0.0000 0.0000 0.0000
# 2 39.4394 88.9810 52.4850 0.0000 0.0000 0.0000
# 3 52.4848 52.4850 125.1252 0.0000 0.0000 0.0000
# 4 0.0000 0.0000 0.0000 73.8527 0.0000 0.0000
# 5 0.0000 0.0000 0.0000 0.0000 73.8552 0.0000
# 6 0.0000 0.0000 0.0000 0.0000 0.0000 27.6606
#
#
#
# Elastic Compliance Matrix: (Units=1/GPa)
#
#
# Indices 1 2 3 4 5 6 
#
# 1 0.016017 -0.004168 -0.004970 0.000000 0.000000 0.000000
# 2 -0.004168 0.016017 -0.004971 0.000000 0.000000 0.000000
# 3 -0.004970 -0.004971 0.012162 0.000000 0.000000 0.000000
# 4 0.000000 0.000000 0.000000 0.013540 0.000000 0.000000
# 5 0.000000 0.000000 0.000000 0.000000 0.013540 0.000000
# 6 0.000000 0.000000 0.000000 0.000000 0.000000 0.036152
#
#
# Mechanical properties :
#
#
# Convention : Reuss Voigt Hill
#
# Bulk Modulus (GPa) = 62.58052 65.76724 64.17388
# Shear Modulus (GPa) = 35.46767 45.65223 40.55995
#
# Velocity S-wave (km/s) = 4.24098 4.81151 4.53523
# Velocity P-wave (km/s) = 7.46434 8.01365 7.74387
#
# Compressibility (1/GPa) = 0.01597941
#
# Stress axis : x y z
#
# Youngs Moduli (GPa) = 62.43190 62.43197 82.22445
#
# Poissons Ratio (x) = 0.26020 0.40870
# Poissons Ratio (y) = 0.26019 0.40870
# Poissons Ratio (z) = 0.31032 0.31032
#
# Static dielectric constant tensor:
#      x y z
#    x 3.382130 0.000000 0.000000 
#    y 0.000000 3.382140 0.000000 
#    z 0.000000 0.000000 3.554610 
# 
# 
# High freq. dielectric constant tensor:
#      x y z
#    x 1.768890 0.000000 0.000000 
#    y 0.000000 1.768890 0.000000 
#    z 0.000000 0.000000 1.764110 
# 
# From -- ./inp_files/6493.got.cif
#   From: 2010.03.12/outbox.cif.g09.slc.cpg/sg118_4_cif.got.tgz:6493.got - 2010.04.14 02:21:17.
