data_PCOD8310052
_publ_section_title
;
Structure prediction by ZEFSAII (Michael W. Deem and Ramdas Pophale) SiO2 
 PCOD8310052
Probable space group: P -4 M 2
;
_chemical_formula_sum "Si O2"
_cell_formula_units_Z 48
_cell_length_a 9.245689
_cell_length_b 9.245689
_cell_length_c 31.138904
_cell_angle_alpha 90.000000
_cell_angle_beta 90.000000
_cell_angle_gamma 90.000000
_cell_volume 2661.839616
_symmetry_space_group_name_H-M "P -4 M 2"
_symmetry_group_IT_number 115
_symmetry_cell_setting 'tetragonal'
loop_
_space_group_symop_operation_xyz
x,y,z
y,-x,-z
-x,-y,z
-y,x,-z
y,x,-z
-y,-x,-z
-x,y,z
x,-y,z
loop_
_atom_site_type_symbol
_atom_site_label
_atom_site_fract_x
_atom_site_fract_y
_atom_site_fract_z
Si Si1 0.668589 0.331621 0.833292
Si Si2 0.668652 0.331349 0.000000
Si Si3 0.328051 0.163213 0.083324
Si Si4 0.166901 0.330625 0.415708
Si Si5 0.672370 0.663532 0.667465
Si Si6 0.163420 0.327820 0.250577
Si Si7 0.167691 0.832310 0.500000
O O1 0.500000 0.304354 0.842064
O O2 0.699433 0.500000 0.824537
O O3 0.755150 0.271671 0.874339
O O4 0.725799 0.243191 0.792346
O O5 0.728964 0.245595 0.041173
O O6 0.500000 0.301747 0.991874
O O7 0.500000 0.166189 0.083225
O O8 0.267990 0.000000 0.083247
O O9 0.189334 0.500000 0.422361
O O10 0.259444 0.271697 0.375721
O O11 0.224491 0.252878 0.458447
O O12 0.000000 0.292217 0.406652
O O13 0.500000 0.664900 0.668599
O O14 0.731821 0.500000 0.668883
O O15 0.734218 0.750715 0.708338
O O16 0.163387 0.500000 0.252141
O O17 0.000000 0.267482 0.251239
O O18 0.000000 0.800595 0.508082
#
# Coordination Sequence:
#
# PCOD8310052 Si02
#       7
#     8   4   8   8   8   8   4
#     4   9  16  27  45  68  91 115 146 184 223 263
#     4   9  16  28  48  71  92 116 150 189 224 262
#     4   9  17  29  46  68  92 118 148 183 224 267
#     4   9  17  29  45  65  89 117 148 182 221 264
#     4   9  16  26  42  66  94 120 146 181 226 270
#     4   9  16  26  42  65  92 120 150 185 224 265
#     4   9  18  32  48  65  88 120 154 185 220 264
#
# _framework density 18.032641999999999
#
# number of rings (size 3 to 8) (size 9 to 14) (size 15 to 20)
#    0.000    3.000    0.000    1.500    0.000    6.667 
#    0.000    0.833    0.000    6.750    0.000    0.000 
#    0.000    0.000    0.000    0.000    0.000    0.000 
#
# Total GULP energy -595186.142273 kJ/mol
# GULP energy per Si atom -12399.711297 kJ/mol
# Density = 1.799160 g / cm^3
# Si number density = 18.032642 Si / 1000 Ang^3
#
#
#
# Elastic Constant Matrix: (Units=GPa)
#
#
# Indices 1 2 3 4 5 6 
#
# 1 68.9943 29.1344 70.3702 0.0000 0.0000 0.0000
# 2 29.1344 68.9951 70.3701 0.0000 0.0000 0.0000
# 3 70.3702 70.3701 212.1168 0.0000 0.0000 0.0000
# 4 0.0000 0.0000 0.0000 9.9196 0.0000 0.0000
# 5 0.0000 0.0000 0.0000 0.0000 9.9206 0.0000
# 6 0.0000 0.0000 0.0000 0.0000 0.0000 9.7800
#
#
#
# Elastic Compliance Matrix: (Units=1/GPa)
#
#
# Indices 1 2 3 4 5 6 
#
# 1 0.022264 -0.002823 -0.006450 0.000000 0.000000 0.000000
# 2 -0.002823 0.022264 -0.006449 0.000000 0.000000 0.000000
# 3 -0.006450 -0.006449 0.008994 0.000000 0.000000 0.000000
# 4 0.000000 0.000000 0.000000 0.100811 0.000000 0.000000
# 5 0.000000 0.000000 0.000000 0.000000 0.100800 0.000000
# 6 0.000000 0.000000 0.000000 0.000000 0.000000 0.102249
#
#
# Mechanical properties :
#
#
# Convention : Reuss Voigt Hill
#
# Bulk Modulus (GPa) = 45.29571 76.65061 60.97316
# Shear Modulus (GPa) = 12.62033 17.93949 15.27991
#
# Velocity S-wave (km/s) = 2.64836 3.15752 2.91408
# Velocity P-wave (km/s) = 5.87580 7.47610 6.72373
#
# Compressibility (1/GPa) = 0.02207715
#
# Stress axis : x y z
#
# Youngs Moduli (GPa) = 44.91479 44.91559 111.18957
#
# Poissons Ratio (x) = 0.12682 0.71713
# Poissons Ratio (y) = 0.12681 0.71711
# Poissons Ratio (z) = 0.28968 0.28968
#
# Static dielectric constant tensor:
#      x y z
#    x 3.103870 0.000000 0.000000 
#    y 0.000000 3.103850 0.000000 
#    z 0.000000 0.000000 3.584620 
# 
# 
# High freq. dielectric constant tensor:
#      x y z
#    x 1.666810 0.000000 0.000000 
#    y 0.000000 1.666810 0.000000 
#    z 0.000000 0.000000 1.716090 
# 
# From -- ./inp_files/6189.got.cif
#   From: 2010.03.12/outbox.cif.g09.slc.cpg/sg115_4_cif.got.tgz:6189.got - 2010.04.14 02:11:21.
