data_PCOD8310026
_publ_section_title
;
Structure prediction by ZEFSAII (Michael W. Deem and Ramdas Pophale) SiO2 
 PCOD8310026
Probable space group: P -4 M 2
;
_chemical_formula_sum "Si O2"
_cell_formula_units_Z 40
_cell_length_a 9.615047
_cell_length_b 9.615047
_cell_length_c 25.563250
_cell_angle_alpha 90.000000
_cell_angle_beta 90.000000
_cell_angle_gamma 90.000000
_cell_volume 2363.300192
_symmetry_space_group_name_H-M "P -4 M 2"
_symmetry_group_IT_number 115
_symmetry_cell_setting 'tetragonal'
loop_
_space_group_symop_operation_xyz
x,y,z
y,-x,-z
-x,-y,z
-y,x,-z
y,x,-z
-y,-x,-z
-x,y,z
x,-y,z
loop_
_atom_site_type_symbol
_atom_site_label
_atom_site_fract_x
_atom_site_fract_y
_atom_site_fract_z
Si Si1 0.344782 0.334648 0.442169
Si Si2 0.161571 0.158716 0.940131
Si Si3 0.663280 0.341415 0.137818
Si Si4 0.334596 0.345352 0.745390
Si Si5 0.156989 0.666094 0.348235
O O1 0.291132 0.291132 0.500000
O O2 0.500000 0.274868 0.431308
O O3 0.351967 0.500000 0.439238
O O4 0.237806 0.275827 0.399150
O O5 0.247843 0.258771 0.903509
O O6 0.000000 0.182511 0.928688
O O7 0.203282 0.000000 0.928320
O O8 0.196085 0.196085 0.000000
O O9 0.500000 0.328320 0.127790
O O10 0.712508 0.500000 0.130557
O O11 0.699971 0.288178 0.196383
O O12 0.500000 0.350699 0.743377
O O13 0.277288 0.500000 0.732047
O O14 0.276432 0.235100 0.703388
O O15 0.156403 0.500000 0.348413
O O16 0.000000 0.724463 0.348620
#
# Coordination Sequence:
#
# PCOD8310026 Si02
#       5
#     8   8   8   8   8
#     4   8  13  21  33  49  71 102 137 168 203 253
#     4   9  19  35  51  67  90 121 156 191 227 270
#     4   9  18  31  47  70  97 122 151 188 229 273
#     4   8  14  25  39  56  84 119 146 171 212 264
#     4   9  15  21  32  54  82 108 136 174 217 256
#
# _framework density 16.925484000000001
#
# number of rings (size 3 to 8) (size 9 to 14) (size 15 to 20)
#    0.000    3.400    0.000    3.000    0.000    4.800 
#    0.000    5.000    0.000    0.000    0.000    1.400 
#    0.000    8.400    0.000    0.000    0.000    0.000 
#
# Total GULP energy -495767.236056 kJ/mol
# GULP energy per Si atom -12394.180901 kJ/mol
# Density = 1.688696 g / cm^3
# Si number density = 16.925484 Si / 1000 Ang^3
#
#
#
# Elastic Constant Matrix: (Units=GPa)
#
#
# Indices 1 2 3 4 5 6 
#
# 1 59.3589 28.3668 61.9603 0.0000 0.0000 0.0000
# 2 28.3668 59.3589 61.9603 0.0000 0.0000 0.0000
# 3 61.9603 61.9603 151.7126 0.0000 0.0000 0.0000
# 4 0.0000 0.0000 0.0000 0.0720 0.0000 0.0000
# 5 0.0000 0.0000 0.0000 0.0000 0.0720 0.0000
# 6 0.0000 0.0000 0.0000 0.0000 0.0000 17.9518
#
#
#
# Elastic Compliance Matrix: (Units=1/GPa)
#
#
# Indices 1 2 3 4 5 6 
#
# 1 0.029605 -0.002662 -0.011004 0.000000 0.000000 0.000000
# 2 -0.002662 0.029605 -0.011004 0.000000 0.000000 0.000000
# 3 -0.011004 -0.011004 0.015579 0.000000 0.000000 0.000000
# 4 0.000000 0.000000 0.000000 13.897852 0.000000 0.000000
# 5 0.000000 0.000000 0.000000 0.000000 13.897852 0.000000
# 6 0.000000 0.000000 0.000000 0.000000 0.000000 0.055705
#
#
# Mechanical properties :
#
#
# Convention : Reuss Voigt Hill
#
# Bulk Modulus (GPa) = 39.29204 63.88944 51.59074
# Shear Modulus (GPa) = 0.17867 11.49535 5.83701
#
# Velocity S-wave (km/s) = 0.32526 2.60892 1.85907
# Velocity P-wave (km/s) = 4.83799 6.84870 5.92920
#
# Compressibility (1/GPa) = 0.02545045
#
# Stress axis : x y z
#
# Youngs Moduli (GPa) = 33.77864 33.77864 64.18802
#
# Poissons Ratio (x) = 0.08991 0.70630
# Poissons Ratio (y) = 0.08991 0.70630
# Poissons Ratio (z) = 0.37168 0.37168
#
# Static dielectric constant tensor:
#      x y z
#    x 2.923700 0.000000 0.000000 
#    y 0.000000 2.923700 0.000000 
#    z 0.000000 0.000000 3.453500 
# 
# 
# High freq. dielectric constant tensor:
#      x y z
#    x 1.616230 0.000000 0.000000 
#    y 0.000000 1.616230 0.000000 
#    z 0.000000 0.000000 1.668550 
# 
# From -- ./inp_files/5430.got.cif
#   From: 2010.03.12/outbox.cif.g09.slc.cpg/sg115_3_cif.got.tgz:5430.got - 2010.04.14 02:11:21.
