data_PCOD8310135
_publ_section_title
;
Structure prediction by ZEFSAII (Michael W. Deem and Ramdas Pophale) SiO2 
 PCOD8310135
Probable space group: P -4 C 2
;
_chemical_formula_sum "Si O2"
_cell_formula_units_Z 58
_cell_length_a 17.814953
_cell_length_b 17.814953
_cell_length_c 8.915354
_cell_angle_alpha 90.000000
_cell_angle_beta 90.000000
_cell_angle_gamma 90.000000
_cell_volume 2829.488637
_symmetry_space_group_name_H-M "P -4 C 2"
_symmetry_group_IT_number 116
_symmetry_cell_setting 'tetragonal'
loop_
_space_group_symop_operation_xyz
x,y,z
y,-x,-z
-x,-y,z
-y,x,-z
y,x,1/2-z
-y,-x,1/2-z
-x,y,1/2+z
x,-y,1/2+z
loop_
_atom_site_type_symbol
_atom_site_label
_atom_site_fract_x
_atom_site_fract_y
_atom_site_fract_z
Si Si1 0.156058 0.568015 0.015521
Si Si2 0.583974 0.359836 0.100390
Si Si3 0.338099 0.718882 0.595667
Si Si4 0.500000 0.500000 0.500000
Si Si5 0.717696 0.097082 0.096465
Si Si6 0.810645 0.570964 0.858331
Si Si7 0.816323 0.204431 0.928432
Si Si8 0.056093 0.293902 0.561630
O O1 0.189537 0.559041 0.181038
O O2 0.085433 0.622898 0.021945
O O3 0.219625 0.596359 0.898289
O O4 0.134413 0.487527 0.944805
O O5 0.631695 0.368306 0.250000
O O6 0.554528 0.274735 0.087042
O O7 0.643257 0.372579 0.969429
O O8 0.519158 0.424149 0.093921
O O9 0.301748 0.698253 0.750000
O O10 0.269939 0.760619 0.508998
O O11 0.652520 0.159942 0.093032
O O12 0.727145 0.065142 0.263602
O O13 0.794269 0.133250 0.031001
O O14 0.700863 0.030476 0.980963
O O15 0.811059 0.188942 0.750000
O O16 0.901240 0.230095 0.964992
#
# Coordination Sequence:
#
# PCOD8310135 Si02
#       8
#     8   8   8   2   8   8   8   8
#     4  10  23  39  57  91 118 159 214 258 338 384
#     4  12  24  43  60  83 118 163 218 274 329 393
#     4  10  21  37  62  85 114 155 207 265 313 381
#     4  12  30  40  56  86 122 168 216 282 346 388
#     4  11  22  41  64  95 128 166 212 258 326 382
#     4  11  24  39  64  85 118 167 210 276 320 403
#     4  10  20  37  64  97 125 161 207 253 306 372
#     4  10  23  39  63  93 131 165 205 264 315 389
#
# _framework density 20.498403
#
# number of rings (size 3 to 8) (size 9 to 14) (size 15 to 20)
#    0.000    1.379    2.759    2.276    1.931    3.862 
#    0.000    2.759    0.000    0.414    0.000    2.897 
#    0.000    0.000    0.000    0.000    0.000    0.000 
#
# Total GULP energy -718811.064362 kJ/mol
# GULP energy per Si atom -12393.294213 kJ/mol
# Density = 2.045175 g / cm^3
# Si number density = 20.498403 Si / 1000 Ang^3
#
#
#
# Elastic Constant Matrix: (Units=GPa)
#
#
# Indices 1 2 3 4 5 6 
#
# 1 91.4868 20.7627 28.8877 0.0000 0.0000 0.0000
# 2 20.7627 91.4870 28.8873 0.0000 0.0000 0.0000
# 3 28.8877 28.8873 68.7591 0.0000 0.0000 0.0000
# 4 0.0000 0.0000 0.0000 34.1424 0.0000 0.0000
# 5 0.0000 0.0000 0.0000 0.0000 34.1424 0.0000
# 6 0.0000 0.0000 0.0000 0.0000 0.0000 16.8309
#
#
#
# Elastic Compliance Matrix: (Units=1/GPa)
#
#
# Indices 1 2 3 4 5 6 
#
# 1 0.012753 -0.001386 -0.004775 0.000000 0.000000 0.000000
# 2 -0.001386 0.012753 -0.004775 0.000000 0.000000 0.000000
# 3 -0.004775 -0.004775 0.018556 0.000000 0.000000 0.000000
# 4 0.000000 0.000000 0.000000 0.029289 0.000000 0.000000
# 5 0.000000 0.000000 0.000000 0.000000 0.029289 0.000000
# 6 0.000000 0.000000 0.000000 0.000000 0.000000 0.059414
#
#
# Mechanical properties :
#
#
# Convention : Reuss Voigt Hill
#
# Bulk Modulus (GPa) = 45.07008 45.42315 45.24662
# Shear Modulus (GPa) = 26.13353 28.56950 27.35151
#
# Velocity S-wave (km/s) = 3.57446 3.73734 3.65680
# Velocity P-wave (km/s) = 6.25064 6.38992 6.32066
#
# Compressibility (1/GPa) = 0.02218767
#
# Stress axis : x y z
#
# Youngs Moduli (GPa) = 78.41245 78.41298 53.89067
#
# Poissons Ratio (x) = 0.10871 0.25735
# Poissons Ratio (y) = 0.10871 0.25735
# Poissons Ratio (z) = 0.37446 0.37445
#
# Static dielectric constant tensor:
#      x y z
#    x 3.619190 0.000000 0.000000 
#    y 0.000000 3.619190 0.000000 
#    z 0.000000 0.000000 3.597110 
# 
# 
# High freq. dielectric constant tensor:
#      x y z
#    x 1.791840 0.000000 0.000000 
#    y 0.000000 1.791840 0.000000 
#    z 0.000000 0.000000 1.804060 
# 
# From -- ./inp_files/1053.got.cif
#   From: 2010.03.12/outbox.cif.g09.slc.cpg/sg116_1_cif.got.tgz:1053.got - 2010.04.14 02:15:44.
