data_PCOD8310964
_publ_section_title
;
Structure prediction by ZEFSAII (Michael W. Deem and Ramdas Pophale) SiO2 
 PCOD8310964
Probable space group: I -4 M 2
;
_chemical_formula_sum "Si O2"
_cell_formula_units_Z 40
_cell_length_a 7.531370
_cell_length_b 7.531370
_cell_length_c 32.484868
_cell_angle_alpha 90.000000
_cell_angle_beta 90.000000
_cell_angle_gamma 90.000000
_cell_volume 1842.591547
_symmetry_space_group_name_H-M "I -4 M 2"
_symmetry_group_IT_number 119
_symmetry_cell_setting 'tetragonal'
loop_
_space_group_symop_operation_xyz
x,y,z
y,-x,-z
-x,-y,z
-y,x,-z
y,x,-z
-y,-x,-z
-x,y,z
x,-y,z
1/2+x,1/2+y,1/2+z
1/2+y,1/2-x,1/2-z
1/2-x,1/2-y,1/2+z
1/2-y,1/2+x,1/2-z
1/2+y,1/2+x,1/2-z
1/2-y,1/2-x,1/2-z
1/2-x,1/2+y,1/2+z
1/2+x,1/2-y,1/2+z
loop_
_atom_site_type_symbol
_atom_site_label
_atom_site_fract_x
_atom_site_fract_y
_atom_site_fract_z
Si Si1 0.000000 0.286428 0.356986
Si Si2 0.788961 0.000000 0.736378
Si Si3 0.298433 0.298433 0.000000
Si Si4 0.199763 0.190114 0.087508
O O1 0.000000 0.199100 0.312600
O O2 0.167031 0.209125 0.382632
O O3 0.000000 0.500000 0.353949
O O4 0.678521 0.178521 0.750000
O O5 0.000000 0.000000 0.752036
O O6 0.247295 0.187231 0.960061
O O7 0.261623 0.500000 0.987635
O O8 0.000000 0.170619 0.103152
O O9 0.298454 0.000000 0.091856
#
# Coordination Sequence:
#
# PCOD8310964 Si02
#       4
#     8   8   8  16
#     4  10  20  41  65  96 131 175 226 283 353 414
#     4  11  25  48  77 109 146 189 233 300 371 447
#     4  11  22  35  52  78 122 175 224 271 332 394
#     4  10  21  36  59  89 122 168 222 278 332 399
#
# _framework density 21.708552999999998
#
# number of rings (size 3 to 8) (size 9 to 14) (size 15 to 20)
#    0.000    1.600    4.000    1.200    0.000    7.600 
#    0.000    0.000    0.000    0.000    0.000    0.000 
#    0.000    0.000    0.000    0.000    0.000    0.000 
#
# Total GULP energy -247769.233689 kJ/mol
# GULP energy per Si atom -12388.461684 kJ/mol
# Density = 2.165914 g / cm^3
# Si number density = 21.708553 Si / 1000 Ang^3
#
#
#
# Elastic Constant Matrix: (Units=GPa)
#
#
# Indices 1 2 3 4 5 6 
#
# 1 90.0072 67.6618 32.0845 0.0000 0.0000 0.0000
# 2 67.6618 90.0072 32.0845 0.0000 0.0000 0.0000
# 3 32.0845 32.0845 146.3906 0.0000 0.0000 0.0000
# 4 0.0000 0.0000 0.0000 24.2418 0.0000 0.0000
# 5 0.0000 0.0000 0.0000 0.0000 24.2418 0.0000
# 6 0.0000 0.0000 0.0000 0.0000 0.0000 13.9079
#
#
#
# Elastic Compliance Matrix: (Units=1/GPa)
#
#
# Indices 1 2 3 4 5 6 
#
# 1 0.025858 -0.018894 -0.001526 0.000000 0.000000 0.000000
# 2 -0.018894 0.025858 -0.001526 0.000000 0.000000 0.000000
# 3 -0.001526 -0.001526 0.007500 0.000000 0.000000 0.000000
# 4 0.000000 0.000000 0.000000 0.041251 0.000000 0.000000
# 5 0.000000 0.000000 0.000000 0.000000 0.041251 0.000000
# 6 0.000000 0.000000 0.000000 0.000000 0.000000 0.071902
#
#
# Mechanical properties :
#
#
# Convention : Reuss Voigt Hill
#
# Bulk Modulus (GPa) = 65.26433 65.56298 65.41365
# Shear Modulus (GPa) = 19.03892 25.44991 22.24441
#
# Velocity S-wave (km/s) = 2.96467 3.42767 3.20454
# Velocity P-wave (km/s) = 6.46902 6.77733 6.62497
#
# Compressibility (1/GPa) = 0.01532231
#
# Stress axis : x y z
#
# Youngs Moduli (GPa) = 38.67314 38.67313 133.33265
#
# Poissons Ratio (x) = 0.73070 0.20349
# Poissons Ratio (y) = 0.73070 0.20349
# Poissons Ratio (z) = 0.05902 0.05902
#
# Static dielectric constant tensor:
#      x y z
#    x 4.172020 0.000000 0.000000 
#    y 0.000000 4.172020 0.000000 
#    z 0.000000 0.000000 3.728010 
# 
# 
# High freq. dielectric constant tensor:
#      x y z
#    x 1.850920 0.000000 0.000000 
#    y 0.000000 1.850920 0.000000 
#    z 0.000000 0.000000 1.840800 
# 
# From -- ./inp_files/9127.got.cif
#   From: 2010.03.12/outbox.cif.g09.slc.cpg/sg119_5_cif.got.tgz:9127.got - 2010.04.14 02:25:26.
