data_PCOD8310107
_publ_section_title
;
Structure prediction by ZEFSAII (Michael W. Deem and Ramdas Pophale) SiO2 
 PCOD8310107
Probable space group: P -4 C 2
;
_chemical_formula_sum "Si O2"
_cell_formula_units_Z 56
_cell_length_a 11.151384
_cell_length_b 11.151384
_cell_length_c 22.485745
_cell_angle_alpha 90.000000
_cell_angle_beta 90.000000
_cell_angle_gamma 90.000000
_cell_volume 2796.178058
_symmetry_space_group_name_H-M "P -4 C 2"
_symmetry_group_IT_number 116
_symmetry_cell_setting 'tetragonal'
loop_
_space_group_symop_operation_xyz
x,y,z
y,-x,-z
-x,-y,z
-y,x,-z
y,x,1/2-z
-y,-x,1/2-z
-x,y,1/2+z
x,-y,1/2+z
loop_
_atom_site_type_symbol
_atom_site_label
_atom_site_fract_x
_atom_site_fract_y
_atom_site_fract_z
Si Si1 0.940986 0.190645 0.001305
Si Si2 0.930210 0.316655 0.123954
Si Si3 0.276350 0.243687 0.179878
Si Si4 0.819311 0.550843 0.114422
Si Si5 0.591365 0.889722 0.087401
Si Si6 0.119251 0.956066 0.815796
Si Si7 0.307168 0.506734 0.496443
O O1 0.927480 0.288366 0.948313
O O2 0.898660 0.251998 0.062315
O O3 0.078192 0.147293 0.009291
O O4 0.827216 0.414015 0.139077
O O5 0.053254 0.387375 0.117979
O O6 0.938793 0.219475 0.178030
O O7 0.264491 0.264491 0.250000
O O8 0.280905 0.376679 0.151724
O O9 0.381611 0.157429 0.155272
O O10 0.159857 0.175260 0.153582
O O11 0.783331 0.552267 0.046154
O O12 0.528804 0.773875 0.059140
O O13 0.500000 0.000000 0.091576
O O14 0.078441 0.921560 0.750000
O O15 0.000000 0.000000 0.851045
O O16 0.394922 0.615578 0.478600
#
# Coordination Sequence:
#
# PCOD8310107 Si02
#       7
#     8   8   8   8   8   8   8
#     4  11  24  36  58  92 132 168 197 253 334 394
#     4  10  20  32  58  89 116 164 204 252 311 377
#     4  10  22  43  64  86 124 172 213 271 329 377
#     4  10  19  38  60  87 117 156 217 254 305 391
#     4  12  25  40  65  98 132 162 223 280 322 401
#     4   9  19  36  58  85 124 166 210 256 315 388
#     4  11  23  40  65  91 125 168 206 261 332 385
#
# _framework density 20.027338
#
# number of rings (size 3 to 8) (size 9 to 14) (size 15 to 20)
#    0.000    1.571    2.857    2.571    6.000    0.000 
#    7.714    0.000    0.000    1.714    0.000    0.000 
#    0.000    0.000    0.000    0.000    0.000    0.000 
#
# Total GULP energy -693743.555649 kJ/mol
# GULP energy per Si atom -12388.277779 kJ/mol
# Density = 1.998175 g / cm^3
# Si number density = 20.027338 Si / 1000 Ang^3
#
#
#
# Elastic Constant Matrix: (Units=GPa)
#
#
# Indices 1 2 3 4 5 6 
#
# 1 100.5920 59.2430 41.0654 0.0000 0.0000 0.0000
# 2 59.2430 100.5921 41.0652 0.0000 0.0000 0.0000
# 3 41.0654 41.0652 100.5927 0.0000 0.0000 0.0000
# 4 0.0000 0.0000 0.0000 23.3808 0.0000 0.0000
# 5 0.0000 0.0000 0.0000 0.0000 23.3808 0.0000
# 6 0.0000 0.0000 0.0000 0.0000 0.0000 30.0181
#
#
#
# Elastic Compliance Matrix: (Units=1/GPa)
#
#
# Indices 1 2 3 4 5 6 
#
# 1 0.016051 -0.008134 -0.003232 0.000000 0.000000 0.000000
# 2 -0.008134 0.016051 -0.003232 0.000000 0.000000 0.000000
# 3 -0.003232 -0.003232 0.012580 0.000000 0.000000 0.000000
# 4 0.000000 0.000000 0.000000 0.042770 0.000000 0.000000
# 5 0.000000 0.000000 0.000000 0.000000 0.042770 0.000000
# 6 0.000000 0.000000 0.000000 0.000000 0.000000 0.033313
#
#
# Mechanical properties :
#
#
# Convention : Reuss Voigt Hill
#
# Bulk Modulus (GPa) = 64.57394 64.94710 64.76052
# Shear Modulus (GPa) = 25.26624 26.04949 25.65787
#
# Velocity S-wave (km/s) = 3.55574 3.61043 3.58319
# Velocity P-wave (km/s) = 7.01217 7.06257 7.03742
#
# Compressibility (1/GPa) = 0.01548612
#
# Stress axis : x y z
#
# Youngs Moduli (GPa) = 62.30205 62.30223 79.49144
#
# Poissons Ratio (x) = 0.50674 0.25693
# Poissons Ratio (y) = 0.50674 0.25692
# Poissons Ratio (z) = 0.20137 0.20136
#
# Static dielectric constant tensor:
#      x y z
#    x 4.238470 0.000000 0.000000 
#    y 0.000000 4.238470 0.000000 
#    z 0.000000 0.000000 3.401370 
# 
# 
# High freq. dielectric constant tensor:
#      x y z
#    x 1.786690 0.000000 0.000000 
#    y 0.000000 1.786690 0.000000 
#    z 0.000000 0.000000 1.756860 
# 
# From -- ./inp_files/4611.got.cif
#   From: 2010.03.12/outbox.cif.g09.slc.cpg/sg116_3_cif.got.tgz:4611.got - 2010.04.14 02:15:44.
