data_PCOD8310150
_publ_section_title
;
Structure prediction by ZEFSAII (Michael W. Deem and Ramdas Pophale) SiO2 
 PCOD8310150
Probable space group: P -4 C 2
;
_chemical_formula_sum "Si O2"
_cell_formula_units_Z 48
_cell_length_a 10.747823
_cell_length_b 10.747823
_cell_length_c 20.376538
_cell_angle_alpha 90.000000
_cell_angle_beta 90.000000
_cell_angle_gamma 90.000000
_cell_volume 2353.810035
_symmetry_space_group_name_H-M "P -4 C 2"
_symmetry_group_IT_number 116
_symmetry_cell_setting 'tetragonal'
loop_
_space_group_symop_operation_xyz
x,y,z
y,-x,-z
-x,-y,z
-y,x,-z
y,x,1/2-z
-y,-x,1/2-z
-x,y,1/2+z
x,-y,1/2+z
loop_
_atom_site_type_symbol
_atom_site_label
_atom_site_fract_x
_atom_site_fract_y
_atom_site_fract_z
Si Si1 0.994499 0.359356 0.873100
Si Si2 0.778937 0.969959 0.259021
Si Si3 0.640239 0.725991 0.071511
Si Si4 0.250148 0.648257 0.436092
Si Si5 0.388779 0.252153 0.303775
Si Si6 0.668376 0.210706 0.309155
O O1 0.016574 0.271944 0.810919
O O2 0.863968 0.326898 0.905211
O O3 0.000000 0.500000 0.846383
O O4 0.101491 0.340351 0.927364
O O5 0.922846 0.922846 0.250000
O O6 0.708651 0.856505 0.292125
O O7 0.758385 0.088748 0.306682
O O8 0.493884 0.704601 0.063005
O O9 0.689716 0.627036 0.124207
O O10 0.712964 0.709648 0.004129
O O11 0.317183 0.721455 0.378114
O O12 0.361365 0.361365 0.250000
O O13 0.522085 0.185196 0.298720
O O14 0.697897 0.302104 0.250000
#
# Coordination Sequence:
#
# PCOD8310150 Si02
#       6
#     8   8   8   8   8   8
#     4  10  20  42  67  90 127 171 216 267 325 392
#     4  11  22  41  67  93 127 170 222 275 327 389
#     4  11  23  43  65  94 131 175 216 266 341 395
#     4  11  25  41  65  94 133 173 213 273 332 405
#     4  11  22  38  66  94 124 171 219 270 327 399
#     4  12  24  38  61  97 131 166 219 272 335 392
#
# _framework density 20.392468000000001
#
# number of rings (size 3 to 8) (size 9 to 14) (size 15 to 20)
#    0.000    1.000    5.000    3.500    0.000    5.667 
#    0.000    3.333    0.000    0.000    0.000    0.000 
#    0.000    0.000    0.000    0.000    0.000    0.000 
#
# Total GULP energy -595159.796441 kJ/mol
# GULP energy per Si atom -12399.162426 kJ/mol
# Density = 2.034605 g / cm^3
# Si number density = 20.392468 Si / 1000 Ang^3
#
#
#
# Elastic Constant Matrix: (Units=GPa)
#
#
# Indices 1 2 3 4 5 6 
#
# 1 85.9075 43.5873 28.8752 0.0000 0.0000 0.0000
# 2 43.5873 85.9056 28.8756 0.0000 0.0000 0.0000
# 3 28.8752 28.8756 132.1900 0.0000 0.0000 0.0000
# 4 0.0000 0.0000 0.0000 39.5755 0.0000 0.0000
# 5 0.0000 0.0000 0.0000 0.0000 39.5766 0.0000
# 6 0.0000 0.0000 0.0000 0.0000 0.0000 33.5695
#
#
#
# Elastic Compliance Matrix: (Units=1/GPa)
#
#
# Indices 1 2 3 4 5 6 
#
# 1 0.016093 -0.007537 -0.001869 0.000000 0.000000 0.000000
# 2 -0.007537 0.016093 -0.001869 0.000000 0.000000 0.000000
# 3 -0.001869 -0.001869 0.008381 0.000000 0.000000 0.000000
# 4 0.000000 0.000000 0.000000 0.025268 0.000000 0.000000
# 5 0.000000 0.000000 0.000000 0.000000 0.025267 0.000000
# 6 0.000000 0.000000 0.000000 0.000000 0.000000 0.029789
#
#
# Mechanical properties :
#
#
# Convention : Reuss Voigt Hill
#
# Bulk Modulus (GPa) = 55.50200 56.29771 55.89986
# Shear Modulus (GPa) = 33.45661 36.05532 34.75597
#
# Velocity S-wave (km/s) = 4.05487 4.20940 4.13286
# Velocity P-wave (km/s) = 7.01417 7.16188 7.08841
#
# Compressibility (1/GPa) = 0.01801737
#
# Stress axis : x y z
#
# Youngs Moduli (GPa) = 62.14006 62.13840 119.31236
#
# Poissons Ratio (x) = 0.46834 0.22298
# Poissons Ratio (y) = 0.46835 0.22300
# Poissons Ratio (z) = 0.11613 0.11614
#
# Static dielectric constant tensor:
#      x y z
#    x 3.870130 0.000000 0.000000 
#    y 0.000000 3.870130 0.000000 
#    z 0.000000 0.000000 3.580360 
# 
# 
# High freq. dielectric constant tensor:
#      x y z
#    x 1.805710 0.000000 0.000000 
#    y 0.000000 1.805710 0.000000 
#    z 0.000000 0.000000 1.790380 
# 
# From -- ./inp_files/3390.got.cif
#   From: 2010.03.12/outbox.cif.g09.slc.cpg/sg116_2_cif.got.tgz:3390.got - 2010.04.14 02:15:44.
