data_PCOD8310699
_publ_section_title
;
Structure prediction by ZEFSAII (Michael W. Deem and Ramdas Pophale) SiO2 
 PCOD8310699
Probable space group: I -4 M 2
;
_chemical_formula_sum "Si O2"
_cell_formula_units_Z 128
_cell_length_a 21.491232
_cell_length_b 21.491232
_cell_length_c 17.664310
_cell_angle_alpha 90.000000
_cell_angle_beta 90.000000
_cell_angle_gamma 90.000000
_cell_volume 8158.668787
_symmetry_space_group_name_H-M "I -4 M 2"
_symmetry_group_IT_number 119
_symmetry_cell_setting 'tetragonal'
loop_
_space_group_symop_operation_xyz
x,y,z
y,-x,-z
-x,-y,z
-y,x,-z
y,x,-z
-y,-x,-z
-x,y,z
x,-y,z
1/2+x,1/2+y,1/2+z
1/2+y,1/2-x,1/2-z
1/2-x,1/2-y,1/2+z
1/2-y,1/2+x,1/2-z
1/2+y,1/2+x,1/2-z
1/2-y,1/2-x,1/2-z
1/2-x,1/2+y,1/2+z
1/2+x,1/2-y,1/2+z
loop_
_atom_site_type_symbol
_atom_site_label
_atom_site_fract_x
_atom_site_fract_y
_atom_site_fract_z
Si Si1 0.757382 0.664243 0.964375
Si Si2 0.750325 0.660445 0.296998
Si Si3 0.256437 0.571553 0.166234
Si Si4 0.351270 0.145550 0.589498
Si Si5 0.863448 0.574230 0.676385
Si Si6 0.071146 0.170949 0.484341
Si Si7 0.320947 0.226000 0.328062
Si Si8 0.927042 0.430785 0.978389
O O1 0.774838 0.689277 0.883381
O O2 0.699859 0.699859 0.000000
O O3 0.815879 0.673655 0.017969
O O4 0.729758 0.593806 0.963485
O O5 0.789966 0.710035 0.250000
O O6 0.722533 0.607459 0.242450
O O7 0.795237 0.628158 0.359647
O O8 0.692398 0.699395 0.334930
O O9 0.246202 0.500000 0.187056
O O10 0.190667 0.598505 0.138020
O O11 0.309887 0.580353 0.103672
O O12 0.408828 0.108343 0.553245
O O13 0.854629 0.500000 0.683038
O O14 0.900335 0.599666 0.750000
O O15 0.795170 0.606608 0.664863
O O16 0.901431 0.594644 0.601427
O O17 0.106940 0.106940 0.500000
O O18 0.000000 0.158763 0.504675
O O19 0.299065 0.200936 0.250000
O O20 0.897591 0.500000 0.983798
O O21 0.000000 0.435096 0.978636
#
# Coordination Sequence:
#
# PCOD8310699 Si02
#       8
#    16  16  16  16  16  16  16  16
#     4  10  17  30  47  68  95 120 151 192 240 282
#     4   9  18  29  48  70  92 121 152 190 243 282
#     4   9  18  32  48  68  95 123 155 191 229 278
#     4  10  17  29  47  68  89 119 157 193 233 280
#     4  10  20  34  48  63  88 126 164 197 237 287
#     4   9  19  31  49  71  96 126 155 193 231 275
#     4  10  19  30  47  68  93 120 151 196 242 285
#     4  10  20  31  44  63  90 124 160 198 234 272
#
# _framework density 15.688833000000001
#
# number of rings (size 3 to 8) (size 9 to 14) (size 15 to 20)
#    0.000    2.375    2.500    0.750    5.250    1.750 
#    0.000    0.625    0.000    0.000    0.000    6.125 
#    0.000    0.000    0.000    0.000    0.000    2.125 
#
# Total GULP energy -792968.165089 kJ/mol
# GULP energy per Si atom -12390.127580 kJ/mol
# Density = 1.565312 g / cm^3
# Si number density = 15.688833 Si / 1000 Ang^3
#
#
#
# Elastic Constant Matrix: (Units=GPa)
#
#
# Indices 1 2 3 4 5 6 
#
# 1 80.4282 29.1991 43.3063 0.0000 0.0000 0.0000
# 2 29.1991 80.4265 43.3050 0.0000 0.0000 0.0000
# 3 43.3063 43.3050 85.2769 0.0000 0.0000 0.0000
# 4 0.0000 0.0000 0.0000 28.8979 0.0000 0.0000
# 5 0.0000 0.0000 0.0000 0.0000 28.8998 0.0000
# 6 0.0000 0.0000 0.0000 0.0000 0.0000 22.8741
#
#
#
# Elastic Compliance Matrix: (Units=1/GPa)
#
#
# Indices 1 2 3 4 5 6 
#
# 1 0.017377 -0.002143 -0.007736 0.000000 0.000000 0.000000
# 2 -0.002143 0.017377 -0.007736 0.000000 0.000000 0.000000
# 3 -0.007736 -0.007736 0.019584 0.000000 0.000000 0.000000
# 4 0.000000 0.000000 0.000000 0.034605 0.000000 0.000000
# 5 0.000000 0.000000 0.000000 0.000000 0.034602 0.000000
# 6 0.000000 0.000000 0.000000 0.000000 0.000000 0.043717
#
#
# Mechanical properties :
#
#
# Convention : Reuss Voigt Hill
#
# Bulk Modulus (GPa) = 52.33700 53.08358 52.71029
# Shear Modulus (GPa) = 23.93918 24.82244 24.38081
#
# Velocity S-wave (km/s) = 3.91048 3.98197 3.94639
# Velocity P-wave (km/s) = 7.33628 7.41958 7.37805
#
# Compressibility (1/GPa) = 0.01910694
#
# Stress axis : x y z
#
# Youngs Moduli (GPa) = 57.54691 57.54658 51.06291
#
# Poissons Ratio (x) = 0.12334 0.39504
# Poissons Ratio (y) = 0.12334 0.39502
# Poissons Ratio (z) = 0.44520 0.44518
#
# Static dielectric constant tensor:
#      x y z
#    x 2.845310 0.000000 0.000000 
#    y 0.000000 2.845270 0.000000 
#    z 0.000000 0.000000 3.033380 
# 
# 
# High freq. dielectric constant tensor:
#      x y z
#    x 1.587110 0.000000 0.000000 
#    y 0.000000 1.587110 0.000000 
#    z 0.000000 0.000000 1.604090 
# 
# From -- ./inp_files/6919.got.cif
#   From: 2010.03.12/outbox.cif.g09.slc.cpg/sg119_4_cif.got.tgz:6919.got - 2010.04.14 02:25:26.
