data_PCOD8310968
_publ_section_title
;
Structure prediction by ZEFSAII (Michael W. Deem and Ramdas Pophale) SiO2 
 PCOD8310968
Probable space group: I -4 M 2
;
_chemical_formula_sum "Si O2"
_cell_formula_units_Z 112
_cell_length_a 13.983168
_cell_length_b 13.983168
_cell_length_c 27.831039
_cell_angle_alpha 90.000000
_cell_angle_beta 90.000000
_cell_angle_gamma 90.000000
_cell_volume 5441.774872
_symmetry_space_group_name_H-M "I -4 M 2"
_symmetry_group_IT_number 119
_symmetry_cell_setting 'tetragonal'
loop_
_space_group_symop_operation_xyz
x,y,z
y,-x,-z
-x,-y,z
-y,x,-z
y,x,-z
-y,-x,-z
-x,y,z
x,-y,z
1/2+x,1/2+y,1/2+z
1/2+y,1/2-x,1/2-z
1/2-x,1/2-y,1/2+z
1/2-y,1/2+x,1/2-z
1/2+y,1/2+x,1/2-z
1/2-y,1/2-x,1/2-z
1/2-x,1/2+y,1/2+z
1/2+x,1/2-y,1/2+z
loop_
_atom_site_type_symbol
_atom_site_label
_atom_site_fract_x
_atom_site_fract_y
_atom_site_fract_z
Si Si1 0.113779 0.893138 0.263714
Si Si2 0.888515 0.893727 0.631036
Si Si3 0.111587 0.783832 0.173155
Si Si4 0.388798 0.248692 0.386664
Si Si5 0.212020 0.768117 0.445406
Si Si6 0.113476 0.606215 0.802693
Si Si7 0.110717 0.388983 0.390359
O O1 0.154146 0.865953 0.316645
O O2 0.150385 0.812900 0.226046
O O3 0.000000 0.895818 0.268242
O O4 0.149578 0.000000 0.248149
O O5 0.848899 0.829003 0.588983
O O6 0.000000 0.902291 0.623580
O O7 0.842357 0.000000 0.627631
O O8 0.148621 0.862332 0.135262
O O9 0.138801 0.674983 0.156854
O O10 0.000000 0.797255 0.173115
O O11 0.500000 0.240536 0.400380
O O12 0.325808 0.238060 0.434897
O O13 0.354040 0.172175 0.346770
O O14 0.199365 0.800636 0.500000
O O15 0.153307 0.670066 0.435321
O O16 0.156147 0.500000 0.811831
O O17 0.146871 0.646871 0.750000
O O18 0.000000 0.600739 0.800838
O O19 0.121937 0.500000 0.403455
O O20 0.000000 0.363437 0.379580
#
# Coordination Sequence:
#
# PCOD8310968 Si02
#       7
#    16  16  16  16  16  16  16
#     4   8  14  27  50  81 116 149 177 211 262 324
#     4   9  19  36  57  82 112 143 177 225 284 341
#     4   9  17  31  55  86 115 143 176 214 260 320
#     4  10  21  35  52  77 107 139 177 222 271 323
#     4  11  24  39  57  79 104 140 187 241 294 342
#     4   8  15  30  51  75 107 143 172 202 248 313
#     4   9  19  38  62  85 112 148 188 230 280 339
#
# _framework density 20.581520000000001
#
# number of rings (size 3 to 8) (size 9 to 14) (size 15 to 20)
#    0.000    2.857    0.000    2.143    0.000    4.286 
#    0.000    5.714    0.000    4.286    0.000    8.000 
#    0.000    0.000    0.000    0.000    0.000    0.000 
#
# Total GULP energy -693938.460769 kJ/mol
# GULP energy per Si atom -12391.758228 kJ/mol
# Density = 2.053468 g / cm^3
# Si number density = 20.581520 Si / 1000 Ang^3
#
#
#
# Elastic Constant Matrix: (Units=GPa)
#
#
# Indices 1 2 3 4 5 6 
#
# 1 78.6878 29.3046 45.8468 0.0000 0.0000 0.0000
# 2 29.3046 78.6876 45.8466 0.0000 0.0000 0.0000
# 3 45.8468 45.8466 146.0352 0.0000 0.0000 0.0000
# 4 0.0000 0.0000 0.0000 23.9282 0.0000 0.0000
# 5 0.0000 0.0000 0.0000 0.0000 23.9284 0.0000
# 6 0.0000 0.0000 0.0000 0.0000 0.0000 19.7325
#
#
#
# Elastic Compliance Matrix: (Units=1/GPa)
#
#
# Indices 1 2 3 4 5 6 
#
# 1 0.016438 -0.003812 -0.003964 0.000000 0.000000 0.000000
# 2 -0.003812 0.016438 -0.003964 0.000000 0.000000 0.000000
# 3 -0.003964 -0.003964 0.009336 0.000000 0.000000 0.000000
# 4 0.000000 0.000000 0.000000 0.041792 0.000000 0.000000
# 5 0.000000 0.000000 0.000000 0.000000 0.041791 0.000000
# 6 0.000000 0.000000 0.000000 0.000000 0.000000 0.050678
#
#
# Mechanical properties :
#
#
# Convention : Reuss Voigt Hill
#
# Bulk Modulus (GPa) = 53.38314 60.60076 56.99195
# Shear Modulus (GPa) = 24.24880 25.67864 24.96372
#
# Velocity S-wave (km/s) = 3.43619 3.53605 3.48648
# Velocity P-wave (km/s) = 6.46041 6.79556 6.63011
#
# Compressibility (1/GPa) = 0.01873251
#
# Stress axis : x y z
#
# Youngs Moduli (GPa) = 60.83614 60.83608 107.10793
#
# Poissons Ratio (x) = 0.23192 0.42454
# Poissons Ratio (y) = 0.23192 0.42454
# Poissons Ratio (z) = 0.24113 0.24113
#
# Static dielectric constant tensor:
#      x y z
#    x 3.874310 0.000000 0.000000 
#    y 0.000000 3.874310 0.000000 
#    z 0.000000 0.000000 3.565200 
# 
# 
# High freq. dielectric constant tensor:
#      x y z
#    x 1.810290 0.000000 0.000000 
#    y 0.000000 1.810290 0.000000 
#    z 0.000000 0.000000 1.772590 
# 
# From -- ./inp_files/9586.got.cif
#   From: 2010.03.12/outbox.cif.g09.slc.cpg/sg119_5_cif.got.tgz:9586.got - 2010.04.14 02:25:26.
