data_PCOD8310932
_publ_section_title
;
Structure prediction by ZEFSAII (Michael W. Deem and Ramdas Pophale) SiO2 
 PCOD8310932
Probable space group: I -4 M 2
;
_chemical_formula_sum "Si O2"
_cell_formula_units_Z 48
_cell_length_a 7.888262
_cell_length_b 7.888262
_cell_length_c 37.423413
_cell_angle_alpha 90.000000
_cell_angle_beta 90.000000
_cell_angle_gamma 90.000000
_cell_volume 2328.659800
_symmetry_space_group_name_H-M "I -4 M 2"
_symmetry_group_IT_number 119
_symmetry_cell_setting 'tetragonal'
loop_
_space_group_symop_operation_xyz
x,y,z
y,-x,-z
-x,-y,z
-y,x,-z
y,x,-z
-y,-x,-z
-x,y,z
x,-y,z
1/2+x,1/2+y,1/2+z
1/2+y,1/2-x,1/2-z
1/2-x,1/2-y,1/2+z
1/2-y,1/2+x,1/2-z
1/2+y,1/2+x,1/2-z
1/2-y,1/2-x,1/2-z
1/2-x,1/2+y,1/2+z
1/2+x,1/2-y,1/2+z
loop_
_atom_site_type_symbol
_atom_site_label
_atom_site_fract_x
_atom_site_fract_y
_atom_site_fract_z
Si Si1 0.800799 0.000000 0.835010
Si Si2 0.698407 0.000000 0.916515
Si Si3 0.693574 0.812373 0.463609
Si Si4 0.700341 0.187714 0.290313
O O1 0.761517 0.000000 0.876415
O O2 0.722725 0.170296 0.817005
O O3 0.000000 0.000000 0.828182
O O4 0.763907 0.170981 0.934664
O O5 0.500000 0.000000 0.918749
O O6 0.799473 0.799473 0.500000
O O7 0.500000 0.790588 0.475289
O O8 0.727225 0.000000 0.447048
O O9 0.500000 0.175540 0.294754
O O10 0.744522 0.244522 0.250000
O O11 0.777677 0.000000 0.298774
#
# Coordination Sequence:
#
# PCOD8310932 Si02
#       4
#     8   8  16  16
#     4  10  20  36  58  84 116 160 208 258 318 373
#     4  12  26  42  58  88 134 172 210 259 323 388
#     4  11  23  41  67  95 121 160 213 265 316 377
#     4   8  15  31  56  84 113 149 200 257 311 373
#
# _framework density 20.612711999999998
#
# number of rings (size 3 to 8) (size 9 to 14) (size 15 to 20)
#    0.000    2.000    1.667    3.500    0.000    3.667 
#    3.000    3.333    0.000    0.000    0.000    0.000 
#    0.000    0.000    0.000    0.000    0.000    0.000 
#
# Total GULP energy -297511.062556 kJ/mol
# GULP energy per Si atom -12396.294273 kJ/mol
# Density = 2.056580 g / cm^3
# Si number density = 20.612712 Si / 1000 Ang^3
#
#
#
# Elastic Constant Matrix: (Units=GPa)
#
#
# Indices 1 2 3 4 5 6 
#
# 1 123.6939 49.0800 58.6438 0.0000 0.0000 0.0000
# 2 49.0800 123.6937 58.6437 0.0000 0.0000 0.0000
# 3 58.6438 58.6437 154.2692 0.0000 0.0000 0.0000
# 4 0.0000 0.0000 0.0000 5.4275 0.0000 0.0000
# 5 0.0000 0.0000 0.0000 0.0000 5.4275 0.0000
# 6 0.0000 0.0000 0.0000 0.0000 0.0000 4.5843
#
#
#
# Elastic Compliance Matrix: (Units=1/GPa)
#
#
# Indices 1 2 3 4 5 6 
#
# 1 0.010602 -0.002801 -0.002965 0.000000 0.000000 0.000000
# 2 -0.002801 0.010602 -0.002965 0.000000 0.000000 0.000000
# 3 -0.002965 -0.002965 0.008737 0.000000 0.000000 0.000000
# 4 0.000000 0.000000 0.000000 0.184248 0.000000 0.000000
# 5 0.000000 0.000000 0.000000 0.000000 0.184247 0.000000
# 6 0.000000 0.000000 0.000000 0.000000 0.000000 0.218136
#
#
# Mechanical properties :
#
#
# Convention : Reuss Voigt Hill
#
# Bulk Modulus (GPa) = 80.14804 81.59911 80.87357
# Shear Modulus (GPa) = 7.83461 18.77380 13.30420
#
# Velocity S-wave (km/s) = 1.95169 3.02120 2.54330
# Velocity P-wave (km/s) = 6.63672 7.20020 6.92420
#
# Compressibility (1/GPa) = 0.01247691
#
# Stress axis : x y z
#
# Youngs Moduli (GPa) = 94.32471 94.32457 114.45890
#
# Poissons Ratio (x) = 0.26417 0.33943
# Poissons Ratio (y) = 0.26417 0.33943
# Poissons Ratio (z) = 0.27972 0.27972
#
# Static dielectric constant tensor:
#      x y z
#    x 4.043750 0.000000 0.000000 
#    y 0.000000 4.043750 0.000000 
#    z 0.000000 0.000000 3.553920 
# 
# 
# High freq. dielectric constant tensor:
#      x y z
#    x 1.806140 0.000000 0.000000 
#    y 0.000000 1.806140 0.000000 
#    z 0.000000 0.000000 1.791530 
# 
# From -- ./inp_files/9861.got.cif
#   From: 2010.03.12/outbox.cif.g09.slc.cpg/sg119_5_cif.got.tgz:9861.got - 2010.04.14 02:25:26.
