data_PCOD8310859
_publ_section_title
;
Structure prediction by ZEFSAII (Michael W. Deem and Ramdas Pophale) SiO2 
 PCOD8310859
Probable space group: I -4 M 2
;
_chemical_formula_sum "Si O2"
_cell_formula_units_Z 112
_cell_length_a 14.647166
_cell_length_b 14.647166
_cell_length_c 25.884824
_cell_angle_alpha 90.000000
_cell_angle_beta 90.000000
_cell_angle_gamma 90.000000
_cell_volume 5553.316469
_symmetry_space_group_name_H-M "I -4 M 2"
_symmetry_group_IT_number 119
_symmetry_cell_setting 'tetragonal'
loop_
_space_group_symop_operation_xyz
x,y,z
y,-x,-z
-x,-y,z
-y,x,-z
y,x,-z
-y,-x,-z
-x,y,z
x,-y,z
1/2+x,1/2+y,1/2+z
1/2+y,1/2-x,1/2-z
1/2-x,1/2-y,1/2+z
1/2-y,1/2+x,1/2-z
1/2+y,1/2+x,1/2-z
1/2-y,1/2-x,1/2-z
1/2-x,1/2+y,1/2+z
1/2+x,1/2-y,1/2+z
loop_
_atom_site_type_symbol
_atom_site_label
_atom_site_fract_x
_atom_site_fract_y
_atom_site_fract_z
Si Si1 0.652825 0.699104 0.917834
Si Si2 0.600023 0.398479 0.179446
Si Si3 0.602958 0.103679 0.189098
Si Si4 0.722818 0.397770 0.537152
Si Si5 0.756528 0.889970 0.762110
Si Si6 0.308066 0.277421 0.358311
Si Si7 0.600232 0.798928 0.015635
O O1 0.593574 0.638512 0.878746
O O2 0.709997 0.772337 0.884990
O O3 0.716660 0.628500 0.947597
O O4 0.594615 0.760236 0.957179
O O5 0.500000 0.348667 0.181561
O O6 0.585641 0.500000 0.200197
O O7 0.673724 0.353247 0.217969
O O8 0.500000 0.131359 0.171858
O O9 0.612171 0.112171 0.250000
O O10 0.676176 0.170640 0.163456
O O11 0.623777 0.000000 0.171622
O O12 0.669892 0.330109 0.500000
O O13 0.696011 0.500000 0.522586
O O14 0.697264 0.381374 0.597255
O O15 0.829832 0.381840 0.525035
O O16 0.659799 0.840202 0.750000
O O17 0.802937 0.856924 0.815583
O O18 0.741637 0.000000 0.762523
O O19 0.500000 0.835136 0.030481
#
# Coordination Sequence:
#
# PCOD8310859 Si02
#       7
#    16  16  16  16  16  16  16
#     4  10  19  36  58  89 122 162 198 244 302 367
#     4  10  21  36  57  88 123 158 201 248 299 367
#     4   9  19  34  54  88 131 168 204 244 295 371
#     4  11  24  44  65  90 124 161 209 261 314 374
#     4  11  24  43  65  91 124 164 210 260 314 367
#     4  11  21  39  60  90 118 162 202 256 312 365
#     4  10  20  38  63  92 125 160 202 254 310 370
#
# _framework density 20.168129
#
# number of rings (size 3 to 8) (size 9 to 14) (size 15 to 20)
#    0.000    1.714    4.286    2.143    0.000    5.143 
#    0.000    0.000    0.000    3.429    0.000    0.000 
#    0.000    0.000    0.000    0.000    0.000    0.000 
#
# Total GULP energy -694082.041551 kJ/mol
# GULP energy per Si atom -12394.322171 kJ/mol
# Density = 2.012223 g / cm^3
# Si number density = 20.168129 Si / 1000 Ang^3
#
#
#
# Elastic Constant Matrix: (Units=GPa)
#
#
# Indices 1 2 3 4 5 6 
#
# 1 86.2270 14.6027 30.9824 0.0000 0.0000 0.0000
# 2 14.6027 86.2299 30.9822 0.0000 0.0000 0.0000
# 3 30.9824 30.9822 116.3595 0.0000 0.0000 0.0000
# 4 0.0000 0.0000 0.0000 20.5811 0.0000 0.0000
# 5 0.0000 0.0000 0.0000 0.0000 20.5807 0.0000
# 6 0.0000 0.0000 0.0000 0.0000 0.0000 17.4544
#
#
#
# Elastic Compliance Matrix: (Units=1/GPa)
#
#
# Indices 1 2 3 4 5 6 
#
# 1 0.012910 -0.001052 -0.003157 0.000000 0.000000 0.000000
# 2 -0.001052 0.012909 -0.003157 0.000000 0.000000 0.000000
# 3 -0.003157 -0.003157 0.010275 0.000000 0.000000 0.000000
# 4 0.000000 0.000000 0.000000 0.048588 0.000000 0.000000
# 5 0.000000 0.000000 0.000000 0.000000 0.048589 0.000000
# 6 0.000000 0.000000 0.000000 0.000000 0.000000 0.057292
#
#
# Mechanical properties :
#
#
# Convention : Reuss Voigt Hill
#
# Bulk Modulus (GPa) = 46.81238 49.10566 47.95902
# Shear Modulus (GPa) = 23.53854 25.87320 24.70587
#
# Velocity S-wave (km/s) = 3.42001 3.58561 3.50379
# Velocity P-wave (km/s) = 6.23352 6.44540 6.34034
#
# Compressibility (1/GPa) = 0.02136187
#
# Stress axis : x y z
#
# Youngs Moduli (GPa) = 77.45988 77.46291 97.31968
#
# Poissons Ratio (x) = 0.08147 0.30728
# Poissons Ratio (y) = 0.08147 0.30726
# Poissons Ratio (z) = 0.24457 0.24457
#
# Static dielectric constant tensor:
#      x y z
#    x 3.534290 0.000000 0.000000 
#    y 0.000000 3.534290 0.000000 
#    z 0.000000 0.000000 3.993640 
# 
# 
# High freq. dielectric constant tensor:
#      x y z
#    x 1.774690 0.000000 0.000000 
#    y 0.000000 1.774690 0.000000 
#    z 0.000000 0.000000 1.800010 
# 
# From -- ./inp_files/8810.got.cif
#   From: 2010.03.12/outbox.cif.g09.slc.cpg/sg119_5_cif.got.tgz:8810.got - 2010.04.14 02:25:26.
