data_PCOD8310074
_publ_section_title
;
Structure prediction by ZEFSAII (Michael W. Deem and Ramdas Pophale) SiO2 
 PCOD8310074
Probable space group: P -4 C 2
;
_chemical_formula_sum "Si O2"
_cell_formula_units_Z 38
_cell_length_a 14.565487
_cell_length_b 14.565487
_cell_length_c 9.877864
_cell_angle_alpha 90.000000
_cell_angle_beta 90.000000
_cell_angle_gamma 90.000000
_cell_volume 2095.622546
_symmetry_space_group_name_H-M "P -4 C 2"
_symmetry_group_IT_number 116
_symmetry_cell_setting 'tetragonal'
loop_
_space_group_symop_operation_xyz
x,y,z
y,-x,-z
-x,-y,z
-y,x,-z
y,x,1/2-z
-y,-x,1/2-z
-x,y,1/2+z
x,-y,1/2+z
loop_
_atom_site_type_symbol
_atom_site_label
_atom_site_fract_x
_atom_site_fract_y
_atom_site_fract_z
Si Si1 0.849489 0.599096 0.822620
Si Si2 0.000000 0.000000 0.750000
Si Si3 0.013198 0.805769 0.146615
Si Si4 0.895494 0.536716 0.537281
Si Si5 0.973101 0.302176 0.891669
Si Si6 0.215046 0.784955 0.250000
O O1 0.841073 0.547360 0.678380
O O2 0.784871 0.689687 0.835682
O O3 0.955233 0.626672 0.831093
O O4 0.831547 0.530985 0.948172
O O5 0.085806 0.999133 0.851423
O O6 0.121896 0.782830 0.161659
O O7 0.947232 0.761190 0.262849
O O8 0.981151 0.766060 0.002567
O O9 0.894245 0.635852 0.460126
O O10 0.000000 0.500000 0.559981
#
# Coordination Sequence:
#
# PCOD8310074 Si02
#       6
#     8   2   8   8   8   4
#     4  10  20  31  55  74 109 132 175 221 288 336
#     4  10  24  38  48  74 104 166 222 236 246 314
#     4  10  21  33  52  67 108 149 204 229 268 295
#     4  10  18  31  52  80 101 133 178 232 282 340
#     4  10  18  33  50  75  99 142 182 240 276 316
#     4   9  18  37  46  72 104 153 161 228 268 336
#
# _framework density 18.133037000000002
#
# number of rings (size 3 to 8) (size 9 to 14) (size 15 to 20)
#    0.000    2.105    4.211    1.895    2.947    5.895 
#    0.000    0.000    0.000    1.263    0.000    0.000 
#    0.000    2.526    0.000    0.000    0.000    0.000 
#
# Total GULP energy -470765.568815 kJ/mol
# GULP energy per Si atom -12388.567600 kJ/mol
# Density = 1.809177 g / cm^3
# Si number density = 18.133037 Si / 1000 Ang^3
#
#
#
# Elastic Constant Matrix: (Units=GPa)
#
#
# Indices 1 2 3 4 5 6 
#
# 1 70.6805 12.5784 23.8419 0.0000 0.0000 0.0000
# 2 12.5784 70.6812 23.8419 0.0000 0.0000 0.0000
# 3 23.8419 23.8419 98.1556 0.0000 0.0000 0.0000
# 4 0.0000 0.0000 0.0000 20.8805 0.0000 0.0000
# 5 0.0000 0.0000 0.0000 0.0000 20.8807 0.0000
# 6 0.0000 0.0000 0.0000 0.0000 0.0000 17.1962
#
#
#
# Elastic Compliance Matrix: (Units=1/GPa)
#
#
# Indices 1 2 3 4 5 6 
#
# 1 0.015581 -0.001630 -0.003389 0.000000 0.000000 0.000000
# 2 -0.001630 0.015581 -0.003389 0.000000 0.000000 0.000000
# 3 -0.003389 -0.003389 0.011834 0.000000 0.000000 0.000000
# 4 0.000000 0.000000 0.000000 0.047892 0.000000 0.000000
# 5 0.000000 0.000000 0.000000 0.000000 0.047891 0.000000
# 6 0.000000 0.000000 0.000000 0.000000 0.000000 0.058152
#
#
# Mechanical properties :
#
#
# Convention : Reuss Voigt Hill
#
# Bulk Modulus (GPa) = 38.19425 40.00465 39.09945
# Shear Modulus (GPa) = 22.47457 23.74182 23.10820
#
# Velocity S-wave (km/s) = 3.52437 3.62237 3.57370
# Velocity P-wave (km/s) = 6.13764 6.29325 6.21593
#
# Compressibility (1/GPa) = 0.02618195
#
# Stress axis : x y z
#
# Youngs Moduli (GPa) = 64.17943 64.18010 84.50098
#
# Poissons Ratio (x) = 0.10460 0.28636
# Poissons Ratio (y) = 0.10459 0.28636
# Poissons Ratio (z) = 0.21749 0.21749
#
# Static dielectric constant tensor:
#      x y z
#    x 3.361610 0.000000 0.000000 
#    y 0.000000 3.361600 0.000000 
#    z 0.000000 0.000000 3.526490 
# 
# 
# High freq. dielectric constant tensor:
#      x y z
#    x 1.664860 0.000000 0.000000 
#    y 0.000000 1.664860 0.000000 
#    z 0.000000 0.000000 1.713010 
# 
# From -- ./inp_files/726.got.cif
#   From: 2010.03.12/outbox.cif.g09.slc.cpg/sg116_1_cif.got.tgz:726.got - 2010.04.14 02:15:44.
