data_PCOD8310360
_publ_section_title
;
Structure prediction by ZEFSAII (Michael W. Deem and Ramdas Pophale) SiO2 
 PCOD8310360
Probable space group: P -4 B 2
;
_chemical_formula_sum "Si O2"
_cell_formula_units_Z 36
_cell_length_a 13.640011
_cell_length_b 13.640011
_cell_length_c 9.289309
_cell_angle_alpha 90.000000
_cell_angle_beta 90.000000
_cell_angle_gamma 90.000000
_cell_volume 1728.275011
_symmetry_space_group_name_H-M "P -4 B 2"
_symmetry_group_IT_number 117
_symmetry_cell_setting 'tetragonal'
loop_
_space_group_symop_operation_xyz
x,y,z
y,-x,-z
-x,-y,z
-y,x,-z
1/2+y,1/2+x,-z
1/2-y,1/2-x,-z
1/2-x,1/2+y,z
1/2+x,1/2-y,z
loop_
_atom_site_type_symbol
_atom_site_label
_atom_site_fract_x
_atom_site_fract_y
_atom_site_fract_z
Si Si1 0.005115 0.652699 0.467326
Si Si2 0.933652 0.819298 0.675587
Si Si3 0.000000 0.000000 0.500000
Si Si4 0.500000 0.000000 0.000000
Si Si5 0.709239 0.951744 0.100093
Si Si6 0.387647 0.227797 0.215623
O O1 0.940752 0.559249 0.500000
O O2 0.954677 0.733424 0.565070
O O3 0.118220 0.618220 0.500000
O O4 0.015252 0.691416 0.303325
O O5 0.819095 0.840238 0.700169
O O6 0.977307 0.788891 0.829878
O O7 0.988769 0.911363 0.609858
O O8 0.500108 0.900231 0.905415
O O9 0.697056 0.854599 0.198709
O O10 0.752815 0.927007 0.943506
#
# Coordination Sequence:
#
# PCOD8310360 Si02
#       6
#     8   8   2   2   8   8
#     4  11  24  41  73 103 133 171 227 290 354 412
#     4  12  25  44  68  94 136 191 228 285 352 419
#     4  12  28  44  62  92 140 192 242 292 348 416
#     4   8  20  40  72 110 132 168 220 306 356 404
#     4  10  24  42  73  98 145 172 230 300 342 426
#     4  10  23  46  63 105 137 175 230 284 346 420
#
# _framework density 20.830020000000001
#
# number of rings (size 3 to 8) (size 9 to 14) (size 15 to 20)
#    0.000    1.556    4.444    0.000    6.222    6.222 
#    0.000    0.000    0.000    0.000    0.000    0.000 
#    0.000    0.000    0.000    0.000    0.000    0.000 
#
# Total GULP energy -446015.075161 kJ/mol
# GULP energy per Si atom -12389.307643 kJ/mol
# Density = 2.078261 g / cm^3
# Si number density = 20.830020 Si / 1000 Ang^3
#
#
#
# Elastic Constant Matrix: (Units=GPa)
#
#
# Indices 1 2 3 4 5 6 
#
# 1 100.6261 63.3104 56.7457 0.0000 0.0000 0.0000
# 2 63.3104 100.6288 56.7455 0.0000 0.0000 0.0000
# 3 56.7457 56.7455 128.7869 0.0000 0.0000 0.0000
# 4 0.0000 0.0000 0.0000 43.1267 0.0000 0.0000
# 5 0.0000 0.0000 0.0000 0.0000 43.1273 0.0000
# 6 0.0000 0.0000 0.0000 0.0000 0.0000 43.1374
#
#
#
# Elastic Compliance Matrix: (Units=1/GPa)
#
#
# Indices 1 2 3 4 5 6 
#
# 1 0.017788 -0.009010 -0.003868 0.000000 0.000000 0.000000
# 2 -0.009010 0.017787 -0.003867 0.000000 0.000000 0.000000
# 3 -0.003868 -0.003867 0.011173 0.000000 0.000000 0.000000
# 4 0.000000 0.000000 0.000000 0.023188 0.000000 0.000000
# 5 0.000000 0.000000 0.000000 0.000000 0.023187 0.000000
# 6 0.000000 0.000000 0.000000 0.000000 0.000000 0.023182
#
#
# Mechanical properties :
#
#
# Convention : Reuss Voigt Hill
#
# Bulk Modulus (GPa) = 75.42785 75.96056 75.69421
# Shear Modulus (GPa) = 32.42275 36.09429 34.25852
#
# Velocity S-wave (km/s) = 3.94958 4.16721 4.05985
# Velocity P-wave (km/s) = 7.55570 7.72659 7.64163
#
# Compressibility (1/GPa) = 0.01325770
#
# Stress axis : x y z
#
# Youngs Moduli (GPa) = 56.21887 56.22099 89.50296
#
# Poissons Ratio (x) = 0.50656 0.34616
# Poissons Ratio (y) = 0.50654 0.34613
# Poissons Ratio (z) = 0.21743 0.21742
#
# Static dielectric constant tensor:
#      x y z
#    x 3.293810 0.000000 0.000000 
#    y 0.000000 3.293820 0.000000 
#    z 0.000000 0.000000 3.966660 
# 
# 
# High freq. dielectric constant tensor:
#      x y z
#    x 1.809130 0.000000 0.000000 
#    y 0.000000 1.809130 0.000000 
#    z 0.000000 0.000000 1.829650 
# 
# From -- ./inp_files/1637.got.cif
#   From: 2010.03.12/outbox.cif.g09.slc.cpg/sg117_1_cif.got.tgz:1637.got - 2010.04.14 02:19:01.
