data_PCOD8310108
_publ_section_title
;
Structure prediction by ZEFSAII (Michael W. Deem and Ramdas Pophale) SiO2 
 PCOD8310108
Probable space group: P -4 C 2
;
_chemical_formula_sum "Si O2"
_cell_formula_units_Z 48
_cell_length_a 9.058499
_cell_length_b 9.058499
_cell_length_c 29.454344
_cell_angle_alpha 90.000000
_cell_angle_beta 90.000000
_cell_angle_gamma 90.000000
_cell_volume 2416.917555
_symmetry_space_group_name_H-M "P -4 C 2"
_symmetry_group_IT_number 116
_symmetry_cell_setting 'tetragonal'
loop_
_space_group_symop_operation_xyz
x,y,z
y,-x,-z
-x,-y,z
-y,x,-z
y,x,1/2-z
-y,-x,1/2-z
-x,y,1/2+z
x,-y,1/2+z
loop_
_atom_site_type_symbol
_atom_site_label
_atom_site_fract_x
_atom_site_fract_y
_atom_site_fract_z
Si Si1 0.192638 0.807363 0.250000
Si Si2 0.833073 0.279338 0.404233
Si Si3 0.640026 0.333580 0.325796
Si Si4 0.969854 0.827895 0.324561
Si Si5 0.067512 0.211284 0.515932
Si Si6 0.000000 0.500000 0.465881
Si Si7 0.308950 0.347326 0.302521
O O1 0.312400 0.794967 0.290515
O O2 0.034057 0.787665 0.274589
O O3 0.680436 0.306128 0.378120
O O4 0.806078 0.133342 0.433956
O O5 0.876942 0.418988 0.435228
O O6 0.956768 0.258441 0.366008
O O7 0.465467 0.335272 0.326862
O O8 0.729746 0.479781 0.309020
O O9 0.801406 0.770945 0.325310
O O10 0.000000 0.000000 0.333151
O O11 0.896673 0.158778 0.518143
O O12 0.081426 0.378203 0.497298
O O13 0.316076 0.316076 0.250000
#
# Coordination Sequence:
#
# PCOD8310108 Si02
#       7
#     4   8   8   8   8   4   8
#     4  10  19  39  56  84 122 160 206 243 305 348
#     4  10  22  40  62  93 121 154 207 250 312 364
#     4  10  20  39  60  90 123 165 205 260 299 370
#     4  11  24  38  58  89 123 161 206 258 297 369
#     4   9  20  40  66  89 121 158 195 249 320 382
#     4  10  20  40  68  92 118 158 208 248 316 390
#     4  11  20  38  61  82 124 171 214 243 310 354
#
# _framework density 19.860008000000001
#
# number of rings (size 3 to 8) (size 9 to 14) (size 15 to 20)
#    0.000    1.833    1.667    2.750    4.667    2.000 
#    6.000    6.667    0.000    4.500    0.000    0.000 
#    0.000    0.000    0.000    0.000    0.000    0.000 
#
# Total GULP energy -594909.067611 kJ/mol
# GULP energy per Si atom -12393.938909 kJ/mol
# Density = 1.981481 g / cm^3
# Si number density = 19.860008 Si / 1000 Ang^3
#
#
#
# Elastic Constant Matrix: (Units=GPa)
#
#
# Indices 1 2 3 4 5 6 
#
# 1 112.0845 53.7548 44.5169 0.0000 0.0000 0.0000
# 2 53.7548 112.0846 44.5168 0.0000 0.0000 0.0000
# 3 44.5169 44.5168 118.7173 0.0000 0.0000 0.0000
# 4 0.0000 0.0000 0.0000 29.2442 0.0000 0.0000
# 5 0.0000 0.0000 0.0000 0.0000 29.2441 0.0000
# 6 0.0000 0.0000 0.0000 0.0000 0.0000 29.1911
#
#
#
# Elastic Compliance Matrix: (Units=1/GPa)
#
#
# Indices 1 2 3 4 5 6 
#
# 1 0.012347 -0.004797 -0.002831 0.000000 0.000000 0.000000
# 2 -0.004797 0.012347 -0.002831 0.000000 0.000000 0.000000
# 3 -0.002831 -0.002831 0.010547 0.000000 0.000000 0.000000
# 4 0.000000 0.000000 0.000000 0.034195 0.000000 0.000000
# 5 0.000000 0.000000 0.000000 0.000000 0.034195 0.000000
# 6 0.000000 0.000000 0.000000 0.000000 0.000000 0.034257
#
#
# Mechanical properties :
#
#
# Convention : Reuss Voigt Hill
#
# Bulk Modulus (GPa) = 69.82256 69.82926 69.82591
# Shear Modulus (GPa) = 30.56621 30.87575 30.72098
#
# Velocity S-wave (km/s) = 3.92737 3.94721 3.93730
# Velocity P-wave (km/s) = 7.46990 7.48405 7.47698
#
# Compressibility (1/GPa) = 0.01432202
#
# Stress axis : x y z
#
# Youngs Moduli (GPa) = 80.99220 80.99226 94.81770
#
# Poissons Ratio (x) = 0.38852 0.26843
# Poissons Ratio (y) = 0.38852 0.26843
# Poissons Ratio (z) = 0.22929 0.22929
#
# Static dielectric constant tensor:
#      x y z
#    x 3.677580 0.000000 0.000000 
#    y 0.000000 3.677570 0.000000 
#    z 0.000000 0.000000 3.639940 
# 
# 
# High freq. dielectric constant tensor:
#      x y z
#    x 1.768970 0.000000 0.000000 
#    y 0.000000 1.768970 0.000000 
#    z 0.000000 0.000000 1.775310 
# 
# From -- ./inp_files/5297.got.cif
#   From: 2010.03.12/outbox.cif.g09.slc.cpg/sg116_3_cif.got.tgz:5297.got - 2010.04.14 02:15:44.
