data_PCOD8310617
_publ_section_title
;
Structure prediction by ZEFSAII (Michael W. Deem and Ramdas Pophale) SiO2 
 PCOD8310617
Probable space group: P -4 N 2
;
_chemical_formula_sum "Si O2"
_cell_formula_units_Z 40
_cell_length_a 12.338223
_cell_length_b 12.338223
_cell_length_c 12.899016
_cell_angle_alpha 90.000000
_cell_angle_beta 90.000000
_cell_angle_gamma 90.000000
_cell_volume 1963.639738
_symmetry_space_group_name_H-M "P -4 N 2"
_symmetry_group_IT_number 118
_symmetry_cell_setting 'tetragonal'
loop_
_space_group_symop_operation_xyz
x,y,z
y,-x,-z
-x,-y,z
-y,x,-z
1/2+y,1/2+x,1/2-z
1/2-y,1/2-x,1/2-z
1/2-x,1/2+y,1/2+z
1/2+x,1/2-y,1/2+z
loop_
_atom_site_type_symbol
_atom_site_label
_atom_site_fract_x
_atom_site_fract_y
_atom_site_fract_z
Si Si1 0.350089 0.272265 0.495796
Si Si2 0.473149 0.624179 0.637210
Si Si3 0.768702 0.120150 0.441705
Si Si4 0.610764 0.941081 0.366874
Si Si5 0.873741 0.996591 0.628070
O O1 0.440278 0.296819 0.582656
O O2 0.359271 0.352209 0.400266
O O3 0.231011 0.297197 0.542465
O O4 0.364153 0.151194 0.451286
O O5 0.500000 0.500000 0.614222
O O6 0.463786 0.651569 0.757410
O O7 0.871975 0.160682 0.377115
O O8 0.704195 0.032073 0.373886
O O9 0.804368 0.071979 0.552384
O O10 0.605741 0.894260 0.250000
O O11 0.500000 0.000000 0.398417
O O12 0.000000 0.000000 0.597904
#
# Coordination Sequence:
#
# PCOD8310617 Si02
#       5
#     8   8   8   8   8
#     4  12  23  44  67  96 140 172 225 277 341 402
#     4  11  25  40  66  98 127 172 217 279 337 401
#     4  12  23  44  67  95 133 177 222 280 325 407
#     4  11  27  43  67 101 137 180 224 284 348 406
#     4  11  22  41  67  96 127 167 226 268 327 396
#
# _framework density 20.370335000000001
#
# number of rings (size 3 to 8) (size 9 to 14) (size 15 to 20)
#    0.000    0.600    6.000    1.200    8.400    2.400 
#    0.000    0.000    0.000    0.000    0.000    0.000 
#    0.000    0.000    0.000    0.000    0.000    0.000 
#
# Total GULP energy -496071.493589 kJ/mol
# GULP energy per Si atom -12401.787340 kJ/mol
# Density = 2.032397 g / cm^3
# Si number density = 20.370335 Si / 1000 Ang^3
#
#
#
# Elastic Constant Matrix: (Units=GPa)
#
#
# Indices 1 2 3 4 5 6 
#
# 1 86.1667 13.4605 19.6889 0.0000 0.0000 0.0000
# 2 13.4605 86.1665 19.6888 0.0000 0.0000 0.0000
# 3 19.6889 19.6888 89.7767 0.0000 0.0000 0.0000
# 4 0.0000 0.0000 0.0000 -8.4688 0.0000 0.0000
# 5 0.0000 0.0000 0.0000 0.0000 -8.4557 0.0000
# 6 0.0000 0.0000 0.0000 0.0000 0.0000 40.5757
#
#
#
# Elastic Compliance Matrix: (Units=1/GPa)
#
#
# Indices 1 2 3 4 5 6 
#
# 1 0.012372 -0.001382 -0.002410 0.000000 0.000000 0.000000
# 2 -0.001382 0.012372 -0.002410 0.000000 0.000000 0.000000
# 3 -0.002410 -0.002410 0.012196 0.000000 0.000000 0.000000
# 4 0.000000 0.000000 0.000000 -0.118080 0.000000 0.000000
# 5 0.000000 0.000000 0.000000 0.000000 -0.118263 0.000000
# 6 0.000000 0.000000 0.000000 0.000000 0.000000 0.024645
#
#
# Mechanical properties :
#
#
# Convention : Reuss Voigt Hill
#
# Bulk Modulus (GPa) = 40.75781 40.86513 40.81147
# Shear Modulus (GPa) = -32.43065 18.68167 -6.87449
#
# Velocity S-wave (km/s) = -3.99438 3.03165 -1.83904
# Velocity P-wave (km/s) = 1.10526 5.68852 3.94573
#
# Compressibility (1/GPa) = 0.02453518
#
# Stress axis : x y z
#
# Youngs Moduli (GPa) = 80.82746 80.82733 81.99469
#
# Poissons Ratio (x) = 0.11170 0.19763
# Poissons Ratio (y) = 0.11170 0.19762
# Poissons Ratio (z) = 0.19481 0.19481
#
# Static dielectric constant tensor:
#      x y z
#    x 6.425660 0.000000 0.000000 
#    y 0.000000 6.427400 0.000000 
#    z 0.000000 0.000000 3.659080 
# 
# 
# High freq. dielectric constant tensor:
#      x y z
#    x 1.802160 0.000000 0.000000 
#    y 0.000000 1.802160 0.000000 
#    z 0.000000 0.000000 1.800310 
# 
# From -- ./inp_files/4048.got.cif
#   From: 2010.03.12/outbox.cif.g09.slc.cpg/sg118_3_cif.got.tgz:4048.got - 2010.04.14 02:21:17.
