data_PCOD8310410
_publ_section_title
;
Structure prediction by ZEFSAII (Michael W. Deem and Ramdas Pophale) SiO2 
 PCOD8310410
Probable space group: P -4 B 2
;
_chemical_formula_sum "Si O2"
_cell_formula_units_Z 56
_cell_length_a 14.692429
_cell_length_b 14.692429
_cell_length_c 11.344607
_cell_angle_alpha 90.000000
_cell_angle_beta 90.000000
_cell_angle_gamma 90.000000
_cell_volume 2448.931610
_symmetry_space_group_name_H-M "P -4 B 2"
_symmetry_group_IT_number 117
_symmetry_cell_setting 'tetragonal'
loop_
_space_group_symop_operation_xyz
x,y,z
y,-x,-z
-x,-y,z
-y,x,-z
1/2+y,1/2+x,-z
1/2-y,1/2-x,-z
1/2-x,1/2+y,z
1/2+x,1/2-y,z
loop_
_atom_site_type_symbol
_atom_site_label
_atom_site_fract_x
_atom_site_fract_y
_atom_site_fract_z
Si Si1 0.644971 0.787880 0.622129
Si Si2 0.087955 0.056028 0.678405
Si Si3 0.665763 0.979257 0.977894
Si Si4 0.444158 0.847553 0.585719
Si Si5 0.722606 0.339418 0.829601
Si Si6 0.622520 0.161556 0.841352
Si Si7 0.327237 0.407658 0.549015
O O1 0.693575 0.806426 0.500000
O O2 0.546566 0.832890 0.625500
O O3 0.700789 0.831629 0.729012
O O4 0.637757 0.679025 0.623630
O O5 0.127360 0.120922 0.780040
O O6 0.061601 0.111670 0.562001
O O7 0.169756 0.988031 0.644707
O O8 0.000000 0.000000 0.723810
O O9 0.740133 0.905316 0.933387
O O10 0.654009 0.063473 0.888811
O O11 0.570142 0.929859 0.000000
O O12 0.693513 0.025244 0.102961
O O13 0.436476 0.936476 0.500000
O O14 0.382674 0.850696 0.701884
O O15 0.398602 0.773343 0.499814
O O16 0.698157 0.238073 0.875143
#
# Coordination Sequence:
#
# PCOD8310410 Si02
#       7
#     8   8   8   8   8   8   8
#     4  12  24  41  64 105 152 194 243 303 379 450
#     4  12  22  40  67 104 152 199 238 291 380 465
#     4  11  28  54  80 102 145 199 255 318 387 455
#     4  12  25  41  68 107 148 187 245 310 369 454
#     4  12  27  47  76 113 146 193 257 324 379 458
#     4  11  25  50  77 109 142 196 257 309 383 461
#     4  12  20  40  65 100 154 200 237 286 380 468
#
# _framework density 22.867114999999998
#
# number of rings (size 3 to 8) (size 9 to 14) (size 15 to 20)
#    0.000    0.286    5.714    3.000    8.000    0.286 
#    2.571    0.000    0.000    0.000    0.000    0.000 
#    0.000    0.000    0.000    0.000    0.000    0.000 
#
# Total GULP energy -694223.596974 kJ/mol
# GULP energy per Si atom -12396.849946 kJ/mol
# Density = 2.281507 g / cm^3
# Si number density = 22.867115 Si / 1000 Ang^3
#
#
#
# Elastic Constant Matrix: (Units=GPa)
#
#
# Indices 1 2 3 4 5 6 
#
# 1 -72.4008 236.7356 33.6140 0.0000 0.0000 0.0000
# 2 236.7356 -72.4395 33.6292 0.0000 0.0000 0.0000
# 3 33.6140 33.6292 94.4650 0.0000 0.0000 0.0000
# 4 0.0000 0.0000 0.0000 28.4123 0.0000 0.0000
# 5 0.0000 0.0000 0.0000 0.0000 28.4074 0.0000
# 6 0.0000 0.0000 0.0000 0.0000 0.0000 44.9007
#
#
#
# Elastic Compliance Matrix: (Units=1/GPa)
#
#
# Indices 1 2 3 4 5 6 
#
# 1 0.001945 0.005179 -0.002536 0.000000 0.000000 0.000000
# 2 0.005179 0.001944 -0.002535 0.000000 0.000000 0.000000
# 3 -0.002536 -0.002535 0.012391 0.000000 0.000000 0.000000
# 4 0.000000 0.000000 0.000000 0.035196 0.000000 0.000000
# 5 0.000000 0.000000 0.000000 0.000000 0.035202 0.000000
# 6 0.000000 0.000000 0.000000 0.000000 0.000000 0.022271
#
#
# Mechanical properties :
#
#
# Convention : Reuss Voigt Hill
#
# Bulk Modulus (GPa) = 60.62027 61.95358 61.28693
# Shear Modulus (GPa) = 43.77095 -3.27954 20.24571
#
# Velocity S-wave (km/s) = 4.37984 -1.19887 2.97873
# Velocity P-wave (km/s) = 7.22113 5.02348 6.22013
#
# Compressibility (1/GPa) = 0.01649613
#
# Stress axis : x y z
#
# Youngs Moduli (GPa) = 514.14948 514.45140 80.70593
#
# Poissons Ratio (x) = -2.66435 0.20465
# Poissons Ratio (y) = -2.66278 0.20458
# Poissons Ratio (z) = 1.30378 1.30406
#
# Static dielectric constant tensor:
#      x y z
#    x 4.236770 0.000000 0.000000 
#    y 0.000000 4.236680 0.000000 
#    z 0.000000 0.000000 4.179810 
# 
# 
# High freq. dielectric constant tensor:
#      x y z
#    x 1.912040 0.000000 0.000000 
#    y 0.000000 1.912040 0.000000 
#    z 0.000000 0.000000 1.886970 
# 
# From -- ./inp_files/2875.got.cif
#   From: 2010.03.12/outbox.cif.g09.slc.cpg/sg117_2_cif.got.tgz:2875.got - 2010.04.14 02:19:01.
