data_PCOD8310492
_publ_section_title
;
Structure prediction by ZEFSAII (Michael W. Deem and Ramdas Pophale) SiO2 
 PCOD8310492
Probable space group: P -4 N 2
;
_chemical_formula_sum "Si O2"
_cell_formula_units_Z 56
_cell_length_a 11.415504
_cell_length_b 11.415504
_cell_length_c 21.892936
_cell_angle_alpha 90.000000
_cell_angle_beta 90.000000
_cell_angle_gamma 90.000000
_cell_volume 2852.950185
_symmetry_space_group_name_H-M "P -4 N 2"
_symmetry_group_IT_number 118
_symmetry_cell_setting 'tetragonal'
loop_
_space_group_symop_operation_xyz
x,y,z
y,-x,-z
-x,-y,z
-y,x,-z
1/2+y,1/2+x,1/2-z
1/2-y,1/2-x,1/2-z
1/2-x,1/2+y,1/2+z
1/2+x,1/2-y,1/2+z
loop_
_atom_site_type_symbol
_atom_site_label
_atom_site_fract_x
_atom_site_fract_y
_atom_site_fract_z
Si Si1 0.166385 0.189744 0.204468
Si Si2 0.785117 0.702819 0.081494
Si Si3 0.121621 0.539426 0.084374
Si Si4 0.287009 0.084064 0.804200
Si Si5 0.078051 0.827832 0.505222
Si Si6 0.538896 0.369911 0.351240
Si Si7 0.568012 0.329476 0.483945
O O1 0.266664 0.233337 0.250000
O O2 0.195104 0.202605 0.133027
O O3 0.046270 0.257208 0.220037
O O4 0.164678 0.048221 0.204982
O O5 0.817178 0.577203 0.110588
O O6 0.646663 0.703772 0.066885
O O7 0.862825 0.728521 0.020794
O O8 0.083820 0.625766 0.138491
O O9 0.216380 0.597089 0.039040
O O10 0.000000 0.500000 0.050913
O O11 0.344337 0.155664 0.750000
O O12 0.166933 0.144485 0.823304
O O13 0.943652 0.856534 0.522115
O O14 0.500000 0.500000 0.372192
O O15 0.539192 0.292438 0.413798
O O16 0.446185 0.351668 0.519143
#
# Coordination Sequence:
#
# PCOD8310492 Si02
#       7
#     8   8   8   8   8   8   8
#     4  11  22  38  59  88 124 155 201 253 303 371
#     4  11  21  34  59  91 118 161 194 243 308 359
#     4  11  22  35  58  90 119 150 192 249 303 365
#     4  11  23  39  59  84 119 154 199 253 306 358
#     4   9  21  41  57  79 120 159 196 239 291 365
#     4  10  20  37  58  90 118 160 206 248 308 376
#     4  11  18  31  58  90 129 156 191 253 319 368
#
# _framework density 19.628803999999999
#
# number of rings (size 3 to 8) (size 9 to 14) (size 15 to 20)
#    0.000    1.429    4.286    2.571    2.000    0.000 
#    2.571    0.000    0.000    0.429    0.000    0.000 
#    0.000    0.000    0.000    0.000    0.000    0.000 
#
# Total GULP energy -693980.272828 kJ/mol
# GULP energy per Si atom -12392.504872 kJ/mol
# Density = 1.958413 g / cm^3
# Si number density = 19.628804 Si / 1000 Ang^3
#
#
#
# Elastic Constant Matrix: (Units=GPa)
#
#
# Indices 1 2 3 4 5 6 
#
# 1 91.5216 37.2551 42.8856 0.0000 0.0000 0.0000
# 2 37.2551 91.5218 42.8865 0.0000 0.0000 0.0000
# 3 42.8856 42.8865 86.6222 0.0000 0.0000 0.0000
# 4 0.0000 0.0000 0.0000 27.6946 0.0000 0.0000
# 5 0.0000 0.0000 0.0000 0.0000 27.6945 0.0000
# 6 0.0000 0.0000 0.0000 0.0000 0.0000 22.7030
#
#
#
# Elastic Compliance Matrix: (Units=1/GPa)
#
#
# Indices 1 2 3 4 5 6 
#
# 1 0.015007 -0.003421 -0.005736 0.000000 0.000000 0.000000
# 2 -0.003421 0.015007 -0.005736 0.000000 0.000000 0.000000
# 3 -0.005736 -0.005736 0.017224 0.000000 0.000000 0.000000
# 4 0.000000 0.000000 0.000000 0.036108 0.000000 0.000000
# 5 0.000000 0.000000 0.000000 0.000000 0.036108 0.000000
# 6 0.000000 0.000000 0.000000 0.000000 0.000000 0.044047
#
#
# Mechanical properties :
#
#
# Convention : Reuss Voigt Hill
#
# Bulk Modulus (GPa) = 57.30130 57.30221 57.30176
# Shear Modulus (GPa) = 25.11246 25.39432 25.25339
#
# Velocity S-wave (km/s) = 3.58071 3.60074 3.59074
# Velocity P-wave (km/s) = 6.80816 6.82228 6.81522
#
# Compressibility (1/GPa) = 0.01745161
#
# Stress axis : x y z
#
# Youngs Moduli (GPa) = 66.63711 66.63642 58.05787
#
# Poissons Ratio (x) = 0.22795 0.33302
# Poissons Ratio (y) = 0.22795 0.33303
# Poissons Ratio (z) = 0.38223 0.38224
#
# Static dielectric constant tensor:
#      x y z
#    x 3.678330 0.000000 0.000000 
#    y 0.000000 3.678330 0.000000 
#    z 0.000000 0.000000 3.296650 
# 
# 
# High freq. dielectric constant tensor:
#      x y z
#    x 1.765450 0.000000 0.000000 
#    y 0.000000 1.765450 0.000000 
#    z 0.000000 0.000000 1.737410 
# 
# From -- ./inp_files/5685.got.cif
#   From: 2010.03.12/outbox.cif.g09.slc.cpg/sg118_3_cif.got.tgz:5685.got - 2010.04.14 02:21:17.
