data_PCOD8310245
_publ_section_title
;
Structure prediction by ZEFSAII (Michael W. Deem and Ramdas Pophale) SiO2 
 PCOD8310245
Probable space group: P -4 C 2
;
_chemical_formula_sum "Si O2"
_cell_formula_units_Z 40
_cell_length_a 14.478184
_cell_length_b 14.478184
_cell_length_c 8.903628
_cell_angle_alpha 90.000000
_cell_angle_beta 90.000000
_cell_angle_gamma 90.000000
_cell_volume 1866.359020
_symmetry_space_group_name_H-M "P -4 C 2"
_symmetry_group_IT_number 116
_symmetry_cell_setting 'tetragonal'
loop_
_space_group_symop_operation_xyz
x,y,z
y,-x,-z
-x,-y,z
-y,x,-z
y,x,1/2-z
-y,-x,1/2-z
-x,y,1/2+z
x,-y,1/2+z
loop_
_atom_site_type_symbol
_atom_site_label
_atom_site_fract_x
_atom_site_fract_y
_atom_site_fract_z
Si Si1 0.654423 0.245842 0.380187
Si Si2 0.430632 0.611331 0.575865
Si Si3 0.829264 0.192757 0.914760
Si Si4 0.594567 0.058579 0.284056
Si Si5 0.728873 0.979473 0.526097
O O1 0.680870 0.319131 0.250000
O O2 0.609993 0.291033 0.528461
O O3 0.748218 0.204046 0.444101
O O4 0.580093 0.166976 0.328642
O O5 0.539083 0.614340 0.541300
O O6 0.411739 0.588262 0.750000
O O7 0.785007 0.214994 0.750000
O O8 0.938602 0.210086 0.903278
O O9 0.804430 0.087926 0.954312
O O10 0.665569 0.069417 0.148545
O O11 0.500000 0.000000 0.249349
O O12 0.648944 0.007102 0.412555
#
# Coordination Sequence:
#
# PCOD8310245 Si02
#       5
#     8   8   8   8   8
#     4  11  23  42  69 101 137 186 231 286 353 417
#     4  11  23  44  68  98 138 181 235 295 351 417
#     4  11  23  43  67  94 135 176 226 286 349 416
#     4  11  24  44  67 100 139 183 227 286 346 417
#     4  11  23  43  68  97 136 178 229 286 348 416
#
# _framework density 21.432102
#
# number of rings (size 3 to 8) (size 9 to 14) (size 15 to 20)
#    0.000    1.000    4.000    3.600    0.000    2.000 
#   18.000    1.000    0.000    0.000    0.000    0.000 
#    0.000    0.000    0.000    0.000    0.000    0.000 
#
# Total GULP energy -495531.687448 kJ/mol
# GULP energy per Si atom -12388.292186 kJ/mol
# Density = 2.138332 g / cm^3
# Si number density = 21.432102 Si / 1000 Ang^3
#
#
#
# Elastic Constant Matrix: (Units=GPa)
#
#
# Indices 1 2 3 4 5 6 
#
# 1 -75.4952 220.5208 30.1501 0.0000 0.0000 0.0000
# 2 220.5208 -75.4967 30.1563 0.0000 0.0000 0.0000
# 3 30.1501 30.1563 131.4620 0.0000 0.0000 0.0000
# 4 0.0000 0.0000 0.0000 33.2393 0.0000 0.0000
# 5 0.0000 0.0000 0.0000 0.0000 33.2395 0.0000
# 6 0.0000 0.0000 0.0000 0.0000 0.0000 34.9312
#
#
#
# Elastic Compliance Matrix: (Units=1/GPa)
#
#
# Indices 1 2 3 4 5 6 
#
# 1 0.002122 0.005500 -0.001748 0.000000 0.000000 0.000000
# 2 0.005500 0.002122 -0.001748 0.000000 0.000000 0.000000
# 3 -0.001748 -0.001748 0.008409 0.000000 0.000000 0.000000
# 4 0.000000 0.000000 0.000000 0.030085 0.000000 0.000000
# 5 0.000000 0.000000 0.000000 0.000000 0.030085 0.000000
# 6 0.000000 0.000000 0.000000 0.000000 0.000000 0.028628
#
#
# Mechanical properties :
#
#
# Convention : Reuss Voigt Hill
#
# Bulk Modulus (GPa) = 60.02318 60.23605 60.12962
# Shear Modulus (GPa) = 48.54539 0.25819 24.40179
#
# Velocity S-wave (km/s) = 4.76445 0.34747 3.37792
# Velocity P-wave (km/s) = 7.63764 5.32236 6.58260
#
# Compressibility (1/GPa) = 0.01666023
#
# Stress axis : x y z
#
# Youngs Moduli (GPa) = 471.21883 471.24384 118.92327
#
# Poissons Ratio (x) = -2.59198 0.20793
# Poissons Ratio (y) = -2.59184 0.20791
# Poissons Ratio (z) = 0.82389 0.82385
#
# Static dielectric constant tensor:
#      x y z
#    x 3.884730 0.000000 0.000000 
#    y 0.000000 3.884730 0.000000 
#    z 0.000000 0.000000 8.183500 
# 
# 
# High freq. dielectric constant tensor:
#      x y z
#    x 1.834990 0.000000 0.000000 
#    y 0.000000 1.834990 0.000000 
#    z 0.000000 0.000000 1.862820 
# 
# From -- ./inp_files/803.got.cif
#   From: 2010.03.12/outbox.cif.g09.slc.cpg/sg116_1_cif.got.tgz:803.got - 2010.04.14 02:15:44.
