data_PCOD8310334
_publ_section_title
;
Structure prediction by ZEFSAII (Michael W. Deem and Ramdas Pophale) SiO2 
 PCOD8310334
Probable space group: P -4 B 2
;
_chemical_formula_sum "Si O2"
_cell_formula_units_Z 40
_cell_length_a 18.721637
_cell_length_b 18.721637
_cell_length_c 4.793387
_cell_angle_alpha 90.000000
_cell_angle_beta 90.000000
_cell_angle_gamma 90.000000
_cell_volume 1680.080667
_symmetry_space_group_name_H-M "P -4 B 2"
_symmetry_group_IT_number 117
_symmetry_cell_setting 'tetragonal'
loop_
_space_group_symop_operation_xyz
x,y,z
y,-x,-z
-x,-y,z
-y,x,-z
1/2+y,1/2+x,-z
1/2-y,1/2-x,-z
1/2-x,1/2+y,z
1/2+x,1/2-y,z
loop_
_atom_site_type_symbol
_atom_site_label
_atom_site_fract_x
_atom_site_fract_y
_atom_site_fract_z
Si Si1 0.466818 0.855551 0.442003
Si Si2 0.317028 0.116413 0.730935
Si Si3 0.083557 0.142218 0.258986
Si Si4 0.287060 0.896914 0.049509
Si Si5 0.345309 0.579102 0.772558
O O1 0.434680 0.934680 0.500000
O O2 0.552058 0.852143 0.455099
O O3 0.451751 0.835574 0.122886
O O4 0.426180 0.795497 0.633371
O O5 0.319344 0.180657 0.500000
O O6 0.237355 0.097383 0.830117
O O7 0.363858 0.136143 0.000000
O O8 0.106019 0.207401 0.060741
O O9 0.125619 0.136587 0.549505
O O10 0.000800 0.144630 0.342976
O O11 0.109575 0.077501 0.060594
O O12 0.317137 0.817137 0.000000
#
# Coordination Sequence:
#
# PCOD8310334 Si02
#       5
#     8   8   8   8   8
#     4  10  21  41  70 103 140 191 238 283 344 423
#     4  12  26  45  73 105 150 190 236 297 363 434
#     4  12  26  46  74 103 141 184 235 302 357 436
#     4  10  21  40  71 102 138 185 237 283 345 421
#     4  12  28  46  74 102 139 186 238 293 369 420
#
# _framework density 23.80838
#
# number of rings (size 3 to 8) (size 9 to 14) (size 15 to 20)
#    0.000    0.800    2.000    4.800    2.800    5.200 
#    0.000    1.000    0.000    0.000    0.000    0.000 
#    0.000    0.000    0.000    0.000    0.000    0.000 
#
# Total GULP energy -495843.091569 kJ/mol
# GULP energy per Si atom -12396.077289 kJ/mol
# Density = 2.375419 g / cm^3
# Si number density = 23.808380 Si / 1000 Ang^3
#
#
#
# Elastic Constant Matrix: (Units=GPa)
#
#
# Indices 1 2 3 4 5 6 
#
# 1 77.8691 68.5115 23.6833 0.0000 0.0000 0.0000
# 2 68.5115 77.8694 23.6846 0.0000 0.0000 0.0000
# 3 23.6833 23.6846 106.1333 0.0000 0.0000 0.0000
# 4 0.0000 0.0000 0.0000 35.5689 0.0000 0.0000
# 5 0.0000 0.0000 0.0000 0.0000 35.5688 0.0000
# 6 0.0000 0.0000 0.0000 0.0000 0.0000 31.2959
#
#
#
# Elastic Compliance Matrix: (Units=1/GPa)
#
#
# Indices 1 2 3 4 5 6 
#
# 1 0.057113 -0.049750 -0.001642 0.000000 0.000000 0.000000
# 2 -0.049750 0.057113 -0.001644 0.000000 0.000000 0.000000
# 3 -0.001642 -0.001644 0.010155 0.000000 0.000000 0.000000
# 4 0.000000 0.000000 0.000000 0.028114 0.000000 0.000000
# 5 0.000000 0.000000 0.000000 0.000000 0.028115 0.000000
# 6 0.000000 0.000000 0.000000 0.000000 0.000000 0.031953
#
#
# Mechanical properties :
#
#
# Convention : Reuss Voigt Hill
#
# Bulk Modulus (GPa) = 54.61684 54.84785 54.73234
# Shear Modulus (GPa) = 15.39695 30.21953 22.80824
#
# Velocity S-wave (km/s) = 2.54579 3.56656 3.09850
# Velocity P-wave (km/s) = 5.62418 6.32833 5.98661
#
# Compressibility (1/GPa) = 0.01830937
#
# Stress axis : x y z
#
# Youngs Moduli (GPa) = 17.50911 17.50904 98.46937
#
# Poissons Ratio (x) = 0.87108 0.16173
# Poissons Ratio (y) = 0.87108 0.16187
# Poissons Ratio (z) = 0.02876 0.02878
#
# Static dielectric constant tensor:
#      x y z
#    x 4.269450 0.000000 0.000000 
#    y 0.000000 4.269450 0.000000 
#    z 0.000000 0.000000 4.300040 
# 
# 
# High freq. dielectric constant tensor:
#      x y z
#    x 1.937720 0.000000 0.000000 
#    y 0.000000 1.937720 0.000000 
#    z 0.000000 0.000000 1.963060 
# 
# From -- ./inp_files/580.got.cif
#   From: 2010.03.12/outbox.cif.g09.slc.cpg/sg117_1_cif.got.tgz:580.got - 2010.04.14 02:19:01.
