data_PCOD8310846
_publ_section_title
;
Structure prediction by ZEFSAII (Michael W. Deem and Ramdas Pophale) SiO2 
 PCOD8310846
Probable space group: I -4 M 2
;
_chemical_formula_sum "Si O2"
_cell_formula_units_Z 128
_cell_length_a 23.791186
_cell_length_b 23.791186
_cell_length_c 13.218509
_cell_angle_alpha 90.000000
_cell_angle_beta 90.000000
_cell_angle_gamma 90.000000
_cell_volume 7481.947487
_symmetry_space_group_name_H-M "I -4 M 2"
_symmetry_group_IT_number 119
_symmetry_cell_setting 'tetragonal'
loop_
_space_group_symop_operation_xyz
x,y,z
y,-x,-z
-x,-y,z
-y,x,-z
y,x,-z
-y,-x,-z
-x,y,z
x,-y,z
1/2+x,1/2+y,1/2+z
1/2+y,1/2-x,1/2-z
1/2-x,1/2-y,1/2+z
1/2-y,1/2+x,1/2-z
1/2+y,1/2+x,1/2-z
1/2-y,1/2-x,1/2-z
1/2-x,1/2+y,1/2+z
1/2+x,1/2-y,1/2+z
loop_
_atom_site_type_symbol
_atom_site_label
_atom_site_fract_x
_atom_site_fract_y
_atom_site_fract_z
Si Si1 0.205520 0.274285 0.083528
Si Si2 0.252685 0.362257 0.231043
Si Si3 0.376686 0.149389 0.009800
Si Si4 0.065397 0.155306 0.374182
Si Si5 0.436517 0.346227 0.106861
Si Si6 0.935579 0.364662 0.823163
Si Si7 0.566095 0.144593 0.803254
Si Si8 0.726650 0.935041 0.333051
O O1 0.249148 0.314275 0.144313
O O2 0.169915 0.235675 0.162647
O O3 0.236591 0.236591 0.000000
O O4 0.161759 0.314464 0.028330
O O5 0.300289 0.406723 0.201664
O O6 0.195378 0.397494 0.243666
O O7 0.370336 0.091022 0.067339
O O8 0.396059 0.199500 0.082205
O O9 0.422950 0.141637 0.922899
O O10 0.072085 0.173904 0.490766
O O11 0.098878 0.097405 0.360194
O O12 0.000000 0.147241 0.344870
O O13 0.500000 0.364591 0.125792
O O14 0.419429 0.292597 0.175640
O O15 0.912512 0.412512 0.750000
O O16 0.923759 0.303071 0.774649
O O17 0.000000 0.376739 0.838623
O O18 0.500000 0.153155 0.782812
O O19 0.587211 0.087211 0.750000
O O20 0.719424 0.000000 0.366029
#
# Coordination Sequence:
#
# PCOD8310846 Si02
#       8
#    16  16  16  16  16  16  16  16
#     4  10  21  35  52  78 107 132 168 219 267 314
#     4  10  20  38  53  77 106 142 175 211 269 323
#     4  10  19  34  51  75  99 135 173 212 271 313
#     4  10  20  31  50  78 106 144 181 209 256 321
#     4   9  18  31  49  77 110 140 173 216 257 305
#     4   9  19  34  51  73 102 135 175 217 265 320
#     4  11  21  37  55  73 101 138 181 226 264 309
#     4   9  17  31  50  73 100 134 174 210 253 318
#
# _framework density 17.107845999999999
#
# number of rings (size 3 to 8) (size 9 to 14) (size 15 to 20)
#    0.000    2.250    2.500    2.250    3.500    3.500 
#    4.500    1.250    0.000    0.000    0.000    0.875 
#    0.000    0.000    0.000    0.125    0.000    0.000 
#
# Total GULP energy -793406.846755 kJ/mol
# GULP energy per Si atom -12396.981981 kJ/mol
# Density = 1.706891 g / cm^3
# Si number density = 17.107846 Si / 1000 Ang^3
#
#
#
# Elastic Constant Matrix: (Units=GPa)
#
#
# Indices 1 2 3 4 5 6 
#
# 1 102.4316 53.2831 40.0238 0.0000 0.0000 0.0000
# 2 53.2831 102.4316 40.0238 0.0000 0.0000 0.0000
# 3 40.0238 40.0238 70.5342 0.0000 0.0000 0.0000
# 4 0.0000 0.0000 0.0000 23.5709 0.0000 0.0000
# 5 0.0000 0.0000 0.0000 0.0000 23.5709 0.0000
# 6 0.0000 0.0000 0.0000 0.0000 0.0000 27.0298
#
#
#
# Elastic Compliance Matrix: (Units=1/GPa)
#
#
# Indices 1 2 3 4 5 6 
#
# 1 0.014707 -0.005640 -0.005145 0.000000 0.000000 0.000000
# 2 -0.005640 0.014707 -0.005145 0.000000 0.000000 0.000000
# 3 -0.005145 -0.005145 0.020016 0.000000 0.000000 0.000000
# 4 0.000000 0.000000 0.000000 0.042425 0.000000 0.000000
# 5 0.000000 0.000000 0.000000 0.000000 0.042425 0.000000
# 6 0.000000 0.000000 0.000000 0.000000 0.000000 0.036996
#
#
# Mechanical properties :
#
#
# Convention : Reuss Voigt Hill
#
# Bulk Modulus (GPa) = 56.91361 60.22875 58.57118
# Shear Modulus (GPa) = 23.92436 24.30545 24.11491
#
# Velocity S-wave (km/s) = 3.74363 3.77333 3.75851
# Velocity P-wave (km/s) = 7.21292 7.36653 7.29013
#
# Compressibility (1/GPa) = 0.01757049
#
# Stress axis : x y z
#
# Youngs Moduli (GPa) = 67.99653 67.99653 49.95930
#
# Poissons Ratio (x) = 0.38349 0.25703
# Poissons Ratio (y) = 0.38349 0.25703
# Poissons Ratio (z) = 0.34983 0.34983
#
# Static dielectric constant tensor:
#      x y z
#    x 3.168960 0.000000 0.000000 
#    y 0.000000 3.168960 0.000000 
#    z 0.000000 0.000000 3.183900 
# 
# 
# High freq. dielectric constant tensor:
#      x y z
#    x 1.657180 0.000000 0.000000 
#    y 0.000000 1.657180 0.000000 
#    z 0.000000 0.000000 1.642520 
# 
# From -- ./inp_files/4464.got.cif
#   From: 2010.03.12/outbox.cif.g09.slc.cpg/sg119_3_cif.got.tgz:4464.got - 2010.04.14 02:25:26.
