data_PCOD8310818
_publ_section_title
;
Structure prediction by ZEFSAII (Michael W. Deem and Ramdas Pophale) SiO2 
 PCOD8310818
Probable space group: I -4 M 2
;
_chemical_formula_sum "Si O2"
_cell_formula_units_Z 48
_cell_length_a 7.755128
_cell_length_b 7.755128
_cell_length_c 38.069063
_cell_angle_alpha 90.000000
_cell_angle_beta 90.000000
_cell_angle_gamma 90.000000
_cell_volume 2289.549979
_symmetry_space_group_name_H-M "I -4 M 2"
_symmetry_group_IT_number 119
_symmetry_cell_setting 'tetragonal'
loop_
_space_group_symop_operation_xyz
x,y,z
y,-x,-z
-x,-y,z
-y,x,-z
y,x,-z
-y,-x,-z
-x,y,z
x,-y,z
1/2+x,1/2+y,1/2+z
1/2+y,1/2-x,1/2-z
1/2-x,1/2-y,1/2+z
1/2-y,1/2+x,1/2-z
1/2+y,1/2+x,1/2-z
1/2-y,1/2-x,1/2-z
1/2-x,1/2+y,1/2+z
1/2+x,1/2-y,1/2+z
loop_
_atom_site_type_symbol
_atom_site_label
_atom_site_fract_x
_atom_site_fract_y
_atom_site_fract_z
Si Si1 0.295629 0.808946 0.289238
Si Si2 0.793694 0.000000 0.836426
Si Si3 0.500000 0.705055 0.584727
Si Si4 0.699316 0.191991 0.463196
O O1 0.500000 0.819521 0.292032
O O2 0.246373 0.746373 0.250000
O O3 0.221682 0.670782 0.316974
O O4 0.218155 0.000000 0.297167
O O5 0.719640 0.000000 0.875945
O O6 0.000000 0.000000 0.835842
O O7 0.500000 0.500000 0.586568
O O8 0.670381 0.773552 0.564657
O O9 0.798054 0.201947 0.500000
O O10 0.500000 0.232805 0.470871
O O11 0.724926 0.000000 0.447476
#
# Coordination Sequence:
#
# PCOD8310818 Si02
#       4
#    16   8   8  16
#     4   8  14  25  42  67 100 136 179 228 268 314
#     4   9  16  26  44  74 106 144 180 218 280 330
#     4   9  18  30  47  75 115 144 177 235 282 327
#     4  10  19  32  53  78 105 143 185 227 276 327
#
# _framework density 20.964818999999999
#
# number of rings (size 3 to 8) (size 9 to 14) (size 15 to 20)
#    0.000    3.000    1.667    1.000    0.000    1.667 
#    0.000    6.667    0.000    0.500    8.667    0.000 
#    0.000    0.000    0.000    0.000    0.000    0.000 
#
# Total GULP energy -297498.368368 kJ/mol
# GULP energy per Si atom -12395.765349 kJ/mol
# Density = 2.091710 g / cm^3
# Si number density = 20.964819 Si / 1000 Ang^3
#
#
#
# Elastic Constant Matrix: (Units=GPa)
#
#
# Indices 1 2 3 4 5 6 
#
# 1 92.4337 24.2393 59.6475 0.0000 0.0000 0.0000
# 2 24.2393 92.4343 59.6484 -0.0001 0.0000 0.0000
# 3 59.6475 59.6484 187.6453 0.0000 0.0000 0.0000
# 4 0.0000 -0.0001 0.0000 8.7975 0.0000 0.0000
# 5 0.0000 0.0000 0.0000 0.0000 8.7975 0.0000
# 6 0.0000 0.0000 0.0000 0.0000 0.0000 4.8293
#
#
#
# Elastic Compliance Matrix: (Units=1/GPa)
#
#
# Indices 1 2 3 4 5 6 
#
# 1 0.013681 -0.000983 -0.004036 0.000000 0.000000 0.000000
# 2 -0.000983 0.013681 -0.004036 0.000000 0.000000 0.000000
# 3 -0.004036 -0.004036 0.007895 0.000000 0.000000 0.000000
# 4 0.000000 0.000000 0.000000 0.113668 0.000000 0.000000
# 5 0.000000 0.000000 0.000000 0.000000 0.113669 0.000000
# 6 0.000000 0.000000 0.000000 0.000000 0.000000 0.207070
#
#
# Mechanical properties :
#
#
# Convention : Reuss Voigt Hill
#
# Bulk Modulus (GPa) = 58.32305 73.28707 65.80506
# Shear Modulus (GPa) = 10.13190 19.75007 14.94098
#
# Velocity S-wave (km/s) = 2.20075 3.07263 2.67248
# Velocity P-wave (km/s) = 5.85983 6.90080 6.40151
#
# Compressibility (1/GPa) = 0.01714588
#
# Stress axis : x y z
#
# Youngs Moduli (GPa) = 73.09406 73.09413 126.65656
#
# Poissons Ratio (x) = 0.07184 0.51124
# Poissons Ratio (y) = 0.07184 0.51124
# Poissons Ratio (z) = 0.29504 0.29504
#
# Static dielectric constant tensor:
#      x y z
#    x 3.678150 0.000000 0.000000 
#    y 0.000000 3.678150 0.000000 
#    z 0.000000 0.000000 3.869360 
# 
# 
# High freq. dielectric constant tensor:
#      x y z
#    x 1.799010 0.000000 0.000000 
#    y 0.000000 1.799010 0.000000 
#    z 0.000000 0.000000 1.807940 
# 
# From -- ./inp_files/9874.got.cif
#   From: 2010.03.12/outbox.cif.g09.slc.cpg/sg119_5_cif.got.tgz:9874.got - 2010.04.14 02:25:26.
