data_PCOD8310194
_publ_section_title
;
Structure prediction by ZEFSAII (Michael W. Deem and Ramdas Pophale) SiO2 
 PCOD8310194
Probable space group: P -4 C 2
;
_chemical_formula_sum "Si O2"
_cell_formula_units_Z 16
_cell_length_a 6.913292
_cell_length_b 6.913292
_cell_length_c 11.201310
_cell_angle_alpha 90.000000
_cell_angle_beta 90.000000
_cell_angle_gamma 90.000000
_cell_volume 535.351000
_symmetry_space_group_name_H-M "P -4 C 2"
_symmetry_group_IT_number 116
_symmetry_cell_setting 'tetragonal'
loop_
_space_group_symop_operation_xyz
x,y,z
y,-x,-z
-x,-y,z
-y,x,-z
y,x,1/2-z
-y,-x,1/2-z
-x,y,1/2+z
x,-y,1/2+z
loop_
_atom_site_type_symbol
_atom_site_label
_atom_site_fract_x
_atom_site_fract_y
_atom_site_fract_z
Si Si1 0.657902 0.241870 0.027563
Si Si2 0.713566 0.007780 0.309410
O O1 0.767659 0.209333 0.157832
O O2 0.428777 0.266987 0.047204
O O3 0.692559 0.057407 0.946193
O O4 0.876820 0.876820 0.250000
O O5 0.500000 0.000000 0.247613
#
# Coordination Sequence:
#
# PCOD8310194 Si02
#       2
#     8   8
#     4   9  20  43  68  94 135 184 233 291 360 433
#     4  10  22  43  70 101 139 185 242 303 363 430
#
# _framework density 29.88693
#
# number of rings (size 3 to 8) (size 9 to 14) (size 15 to 20)
#    0.000    2.500    0.000    0.000    0.000    7.000 
#    0.000   45.000    0.000    0.000    0.000    0.000 
#    0.000    0.000    0.000    0.000    0.000    0.000 
#
# Total GULP energy -198314.622747 kJ/mol
# GULP energy per Si atom -12394.663922 kJ/mol
# Density = 2.981891 g / cm^3
# Si number density = 29.886930 Si / 1000 Ang^3
#
#
#
# Elastic Constant Matrix: (Units=GPa)
#
#
# Indices 1 2 3 4 5 6 
#
# 1 191.7023 102.3170 47.6137 0.0000 0.0000 0.0000
# 2 102.3170 191.7023 47.6137 0.0000 0.0000 0.0000
# 3 47.6137 47.6137 85.0099 0.0000 0.0000 0.0000
# 4 0.0000 0.0000 0.0000 43.9241 0.0000 0.0000
# 5 0.0000 0.0000 0.0000 0.0000 43.9241 0.0000
# 6 0.0000 0.0000 0.0000 0.0000 0.0000 64.9224
#
#
#
# Elastic Compliance Matrix: (Units=1/GPa)
#
#
# Indices 1 2 3 4 5 6 
#
# 1 0.007671 -0.003516 -0.002327 0.000000 0.000000 0.000000
# 2 -0.003516 0.007671 -0.002327 0.000000 0.000000 0.000000
# 3 -0.002327 -0.002327 0.014370 0.000000 0.000000 0.000000
# 4 0.000000 0.000000 0.000000 0.022767 0.000000 0.000000
# 5 0.000000 0.000000 0.000000 0.000000 0.022767 0.000000
# 6 0.000000 0.000000 0.000000 0.000000 0.000000 0.015403
#
#
# Mechanical properties :
#
#
# Convention : Reuss Voigt Hill
#
# Bulk Modulus (GPa) = 74.78653 95.94480 85.36566
# Shear Modulus (GPa) = 44.86446 48.61215 46.73830
#
# Velocity S-wave (km/s) = 3.87866 4.03741 3.95883
# Velocity P-wave (km/s) = 6.71834 7.34210 7.03714
#
# Compressibility (1/GPa) = 0.01337139
#
# Stress axis : x y z
#
# Youngs Moduli (GPa) = 130.35803 130.35803 69.58875
#
# Poissons Ratio (x) = 0.45838 0.16194
# Poissons Ratio (y) = 0.45838 0.16194
# Poissons Ratio (z) = 0.30336 0.30336
#
# Static dielectric constant tensor:
#      x y z
#    x 6.449490 0.000000 0.000000 
#    y 0.000000 6.449490 0.000000 
#    z 0.000000 0.000000 6.178000 
# 
# 
# High freq. dielectric constant tensor:
#      x y z
#    x 2.256160 0.000000 0.000000 
#    y 0.000000 2.256160 0.000000 
#    z 0.000000 0.000000 2.248780 
# 
# From -- ./inp_files/349.got.cif
#   From: 2010.03.12/outbox.cif.g09.slc.cpg/sg116_1_cif.got.tgz:349.got - 2010.04.14 02:15:44.
