data_PCOD8310863
_publ_section_title
;
Structure prediction by ZEFSAII (Michael W. Deem and Ramdas Pophale) SiO2 
 PCOD8310863
Probable space group: I -4 M 2
;
_chemical_formula_sum "Si O2"
_cell_formula_units_Z 88
_cell_length_a 14.161831
_cell_length_b 14.161831
_cell_length_c 22.090574
_cell_angle_alpha 90.000000
_cell_angle_beta 90.000000
_cell_angle_gamma 90.000000
_cell_volume 4430.429351
_symmetry_space_group_name_H-M "I -4 M 2"
_symmetry_group_IT_number 119
_symmetry_cell_setting 'tetragonal'
loop_
_space_group_symop_operation_xyz
x,y,z
y,-x,-z
-x,-y,z
-y,x,-z
y,x,-z
-y,-x,-z
-x,y,z
x,-y,z
1/2+x,1/2+y,1/2+z
1/2+y,1/2-x,1/2-z
1/2-x,1/2-y,1/2+z
1/2-y,1/2+x,1/2-z
1/2+y,1/2+x,1/2-z
1/2-y,1/2-x,1/2-z
1/2-x,1/2+y,1/2+z
1/2+x,1/2-y,1/2+z
loop_
_atom_site_type_symbol
_atom_site_label
_atom_site_fract_x
_atom_site_fract_y
_atom_site_fract_z
Si Si1 0.266961 0.233040 0.750000
Si Si2 0.772283 0.111835 0.343205
Si Si3 0.703067 0.605914 0.351308
Si Si4 0.395521 0.300176 0.944832
Si Si5 0.282726 0.105338 0.102044
Si Si6 0.602753 0.170755 0.532887
O O1 0.161952 0.222824 0.721860
O O2 0.350804 0.226183 0.700082
O O3 0.854163 0.160303 0.382690
O O4 0.671726 0.133784 0.373411
O O5 0.787994 0.000000 0.337022
O O6 0.667522 0.500000 0.331909
O O7 0.621073 0.682887 0.363315
O O8 0.752792 0.597001 0.415059
O O9 0.500000 0.341219 0.951439
O O10 0.400605 0.186175 0.948558
O O11 0.332589 0.332589 0.000000
O O12 0.315492 0.000000 0.116632
O O13 0.274510 0.123537 0.030093
O O14 0.500000 0.118486 0.528684
#
# Coordination Sequence:
#
# PCOD8310863 Si02
#       6
#     8  16  16  16  16  16
#     4  10  22  40  60  86 116 162 210 256 302 350
#     4  11  24  42  62  87 120 161 206 254 305 360
#     4  10  20  37  61  87 119 159 200 248 305 362
#     4  12  23  39  63  93 129 163 200 250 310 371
#     4  10  20  36  62  93 123 154 190 244 312 377
#     4  10  19  37  65  93 123 156 196 244 304 371
#
# _framework density 19.862635000000001
#
# number of rings (size 3 to 8) (size 9 to 14) (size 15 to 20)
#    0.000    1.455    5.455    1.091    0.000    6.000 
#    0.000    1.818    0.000    3.545    0.000    0.000 
#    0.000    0.000    0.000    0.000    0.000    0.000 
#
# Total GULP energy -545216.836593 kJ/mol
# GULP energy per Si atom -12391.291741 kJ/mol
# Density = 1.981743 g / cm^3
# Si number density = 19.862635 Si / 1000 Ang^3
#
#
#
# Elastic Constant Matrix: (Units=GPa)
#
#
# Indices 1 2 3 4 5 6 
#
# 1 107.7492 26.5466 15.6288 0.0000 0.0000 0.0000
# 2 26.5466 107.7513 15.6290 0.0000 0.0000 0.0000
# 3 15.6288 15.6290 81.0180 0.0000 0.0000 0.0000
# 4 0.0000 0.0000 0.0000 17.8503 0.0000 0.0000
# 5 0.0000 0.0000 0.0000 0.0000 17.8503 0.0000
# 6 0.0000 0.0000 0.0000 0.0000 0.0000 11.8873
#
#
#
# Elastic Compliance Matrix: (Units=1/GPa)
#
#
# Indices 1 2 3 4 5 6 
#
# 1 0.010056 -0.002259 -0.001504 0.000000 0.000000 0.000000
# 2 -0.002259 0.010055 -0.001504 0.000000 0.000000 0.000000
# 3 -0.001504 -0.001504 0.012923 0.000000 0.000000 0.000000
# 4 0.000000 0.000000 0.000000 0.056021 0.000000 0.000000
# 5 0.000000 0.000000 0.000000 0.000000 0.056022 0.000000
# 6 0.000000 0.000000 0.000000 0.000000 0.000000 0.084123
#
#
# Mechanical properties :
#
#
# Convention : Reuss Voigt Hill
#
# Bulk Modulus (GPa) = 44.44470 45.79193 45.11832
# Shear Modulus (GPa) = 20.22369 25.43185 22.82777
#
# Velocity S-wave (km/s) = 3.19435 3.58213 3.39378
# Velocity P-wave (km/s) = 6.00248 6.34139 6.17426
#
# Compressibility (1/GPa) = 0.02249987
#
# Stress axis : x y z
#
# Youngs Moduli (GPa) = 99.44735 99.44926 77.38038
#
# Poissons Ratio (x) = 0.22468 0.11638
# Poissons Ratio (y) = 0.22468 0.11638
# Poissons Ratio (z) = 0.14956 0.14957
#
# Static dielectric constant tensor:
#      x y z
#    x 3.700940 0.000000 0.000000 
#    y 0.000000 3.700940 0.000000 
#    z 0.000000 0.000000 3.780820 
# 
# 
# High freq. dielectric constant tensor:
#      x y z
#    x 1.762570 0.000000 0.000000 
#    y 0.000000 1.762570 0.000000 
#    z 0.000000 0.000000 1.785370 
# 
# From -- ./inp_files/7660.got.cif
#   From: 2010.03.12/outbox.cif.g09.slc.cpg/sg119_4_cif.got.tgz:7660.got - 2010.04.14 02:25:26.
