data_PCOD8310224
_publ_section_title
;
Structure prediction by ZEFSAII (Michael W. Deem and Ramdas Pophale) SiO2 
 PCOD8310224
Probable space group: P -4 C 2
;
_chemical_formula_sum "Si O2"
_cell_formula_units_Z 48
_cell_length_a 13.838025
_cell_length_b 13.838025
_cell_length_c 11.060310
_cell_angle_alpha 90.000000
_cell_angle_beta 90.000000
_cell_angle_gamma 90.000000
_cell_volume 2117.949113
_symmetry_space_group_name_H-M "P -4 C 2"
_symmetry_group_IT_number 116
_symmetry_cell_setting 'tetragonal'
loop_
_space_group_symop_operation_xyz
x,y,z
y,-x,-z
-x,-y,z
-y,x,-z
y,x,1/2-z
-y,-x,1/2-z
-x,y,1/2+z
x,-y,1/2+z
loop_
_atom_site_type_symbol
_atom_site_label
_atom_site_fract_x
_atom_site_fract_y
_atom_site_fract_z
Si Si1 0.856371 0.624042 0.819880
Si Si2 0.739740 0.739740 0.250000
Si Si3 0.269146 0.090181 0.928235
Si Si4 0.423348 0.176733 0.104034
Si Si5 0.878321 0.761033 0.025027
Si Si6 0.647510 0.518526 0.538953
Si Si7 0.351836 0.648165 0.250000
O O1 0.899189 0.674949 0.699771
O O2 0.879513 0.508014 0.821749
O O3 0.742153 0.646351 0.833479
O O4 0.897446 0.665900 0.944542
O O5 0.633716 0.752874 0.194843
O O6 0.821514 0.748385 0.148767
O O7 0.213892 0.987812 0.936571
O O8 0.348186 0.106201 0.035462
O O9 0.178875 0.163390 0.939979
O O10 0.480383 0.243450 0.008382
O O11 0.599570 0.414063 0.532893
O O12 0.650707 0.548511 0.677809
#
# Coordination Sequence:
#
# PCOD8310224 Si02
#       7
#     8   4   8   8   8   8   4
#     4  12  24  45  74 101 143 191 233 293 360 446
#     4  10  26  46  68 106 148 182 232 310 356 428
#     4  11  26  49  76 107 143 190 239 304 369 433
#     4  11  25  42  69 101 143 190 238 290 367 429
#     4  11  26  49  76 106 145 183 241 304 369 437
#     4  11  24  36  58  96 135 185 247 294 347 422
#     4  12  20  41  64  90 137 188 232 290 356 416
#
# _framework density 22.663435
#
# number of rings (size 3 to 8) (size 9 to 14) (size 15 to 20)
#    0.000    0.833    5.000    1.000    9.333    2.333 
#    0.000    0.000    0.000    0.000    0.000    0.000 
#    0.000    0.000    0.000    0.000    0.000    0.000 
#
# Total GULP energy -594886.539101 kJ/mol
# GULP energy per Si atom -12393.469565 kJ/mol
# Density = 2.261185 g / cm^3
# Si number density = 22.663435 Si / 1000 Ang^3
#
#
#
# Elastic Constant Matrix: (Units=GPa)
#
#
# Indices 1 2 3 4 5 6 
#
# 1 121.8645 27.7633 36.2359 0.0000 0.0000 0.0000
# 2 27.7633 121.8646 36.2354 0.0000 0.0000 0.0000
# 3 36.2359 36.2354 121.9963 0.0000 0.0000 0.0000
# 4 0.0000 0.0000 0.0000 19.7066 0.0000 0.0000
# 5 0.0000 0.0000 0.0000 0.0000 19.7072 0.0000
# 6 0.0000 0.0000 0.0000 0.0000 0.0000 14.2776
#
#
#
# Elastic Compliance Matrix: (Units=1/GPa)
#
#
# Indices 1 2 3 4 5 6 
#
# 1 0.009217 -0.001410 -0.002319 0.000000 0.000000 0.000000
# 2 -0.001410 0.009217 -0.002319 0.000000 0.000000 0.000000
# 3 -0.002319 -0.002319 0.009574 0.000000 0.000000 0.000000
# 4 0.000000 0.000000 0.000000 0.050745 0.000000 0.000000
# 5 0.000000 0.000000 0.000000 0.000000 0.050743 0.000000
# 6 0.000000 0.000000 0.000000 0.000000 0.000000 0.070040
#
#
# Mechanical properties :
#
#
# Convention : Reuss Voigt Hill
#
# Bulk Modulus (GPa) = 62.84437 62.91052 62.87745
# Shear Modulus (GPa) = 23.04849 28.43766 25.74307
#
# Velocity S-wave (km/s) = 3.19249 3.54613 3.37395
# Velocity P-wave (km/s) = 6.43264 6.67724 6.55609
#
# Compressibility (1/GPa) = 0.01591232
#
# Stress axis : x y z
#
# Youngs Moduli (GPa) = 108.50016 108.50051 104.44580
#
# Poissons Ratio (x) = 0.15302 0.24217
# Poissons Ratio (y) = 0.15302 0.24217
# Poissons Ratio (z) = 0.25158 0.25157
#
# Static dielectric constant tensor:
#      x y z
#    x 4.049230 0.000000 0.000000 
#    y 0.000000 4.049230 0.000000 
#    z 0.000000 0.000000 4.108200 
# 
# 
# High freq. dielectric constant tensor:
#      x y z
#    x 1.885720 0.000000 0.000000 
#    y 0.000000 1.885720 0.000000 
#    z 0.000000 0.000000 1.901620 
# 
# From -- ./inp_files/1955.got.cif
#   From: 2010.03.12/outbox.cif.g09.slc.cpg/sg116_1_cif.got.tgz:1955.got - 2010.04.14 02:15:44.
