data_PCOD8310674
_publ_section_title
;
Structure prediction by ZEFSAII (Michael W. Deem and Ramdas Pophale) SiO2 
 PCOD8310674
Probable space group: I -4 M 2
;
_chemical_formula_sum "Si O2"
_cell_formula_units_Z 64
_cell_length_a 11.843587
_cell_length_b 11.843587
_cell_length_c 30.247437
_cell_angle_alpha 90.000000
_cell_angle_beta 90.000000
_cell_angle_gamma 90.000000
_cell_volume 4242.824716
_symmetry_space_group_name_H-M "I -4 M 2"
_symmetry_group_IT_number 119
_symmetry_cell_setting 'tetragonal'
loop_
_space_group_symop_operation_xyz
x,y,z
y,-x,-z
-x,-y,z
-y,x,-z
y,x,-z
-y,-x,-z
-x,y,z
x,-y,z
1/2+x,1/2+y,1/2+z
1/2+y,1/2-x,1/2-z
1/2-x,1/2-y,1/2+z
1/2-y,1/2+x,1/2-z
1/2+y,1/2+x,1/2-z
1/2-y,1/2-x,1/2-z
1/2-x,1/2+y,1/2+z
1/2+x,1/2-y,1/2+z
loop_
_atom_site_type_symbol
_atom_site_label
_atom_site_fract_x
_atom_site_fract_y
_atom_site_fract_z
Si Si1 0.873419 0.366151 0.877165
Si Si2 0.781249 0.133982 0.456208
Si Si3 0.866013 0.246333 0.710168
Si Si4 0.000000 0.865875 0.306723
Si Si5 0.000000 0.867378 0.403685
O O1 0.875180 0.500000 0.874308
O O2 0.824714 0.331873 0.925418
O O3 0.796394 0.320716 0.836657
O O4 0.000000 0.316407 0.872989
O O5 0.787838 0.212163 0.500000
O O6 0.890345 0.171425 0.429281
O O7 0.782370 0.000000 0.467987
O O8 0.818074 0.318074 0.750000
O O9 0.000000 0.256054 0.711600
O O10 0.826012 0.115975 0.716780
O O11 0.000000 0.811405 0.355460
O O12 0.000000 0.000000 0.309692
O O13 0.000000 0.000000 0.397417
#
# Coordination Sequence:
#
# PCOD8310674 Si02
#       5
#    16  16  16   8   8
#     4   9  17  27  38  58  90 119 141 171 214 262
#     4  10  16  22  37  61  87 112 140 174 213 257
#     4  10  18  28  44  65  90 118 146 178 218 263
#     4   9  16  28  42  61  89 117 147 182 217 254
#     4   9  14  22  36  58  86 110 138 178 216 251
#
# _framework density 15.084291
#
# number of rings (size 3 to 8) (size 9 to 14) (size 15 to 20)
#    0.000    2.500    3.750    0.750    0.000    1.250 
#    0.000    0.000    0.000    0.375    3.250    0.000 
#    3.750    0.000    0.000    0.000    0.000    0.000 
#
# Total GULP energy -396463.012381 kJ/mol
# GULP energy per Si atom -12389.469137 kJ/mol
# Density = 1.504996 g / cm^3
# Si number density = 15.084291 Si / 1000 Ang^3
#
#
#
# Elastic Constant Matrix: (Units=GPa)
#
#
# Indices 1 2 3 4 5 6 
#
# 1 57.9810 20.4443 29.0908 0.0000 0.0000 0.0000
# 2 20.4443 57.9809 29.0907 0.0000 0.0000 0.0000
# 3 29.0908 29.0907 98.1794 0.0000 0.0000 0.0000
# 4 0.0000 0.0000 0.0000 14.4986 0.0000 0.0000
# 5 0.0000 0.0000 0.0000 0.0000 14.4987 0.0000
# 6 0.0000 0.0000 0.0000 0.0000 0.0000 8.2874
#
#
#
# Elastic Compliance Matrix: (Units=1/GPa)
#
#
# Indices 1 2 3 4 5 6 
#
# 1 0.021492 -0.005148 -0.004843 0.000000 0.000000 0.000000
# 2 -0.005148 0.021492 -0.004843 0.000000 0.000000 0.000000
# 3 -0.004843 -0.004843 0.013055 0.000000 0.000000 0.000000
# 4 0.000000 0.000000 0.000000 0.068972 0.000000 0.000000
# 5 0.000000 0.000000 0.000000 0.000000 0.068972 0.000000
# 6 0.000000 0.000000 0.000000 0.000000 0.000000 0.120665
#
#
# Mechanical properties :
#
#
# Convention : Reuss Voigt Hill
#
# Bulk Modulus (GPa) = 37.91919 41.26586 39.59252
# Shear Modulus (GPa) = 14.16002 16.49131 15.32566
#
# Velocity S-wave (km/s) = 3.06719 3.31006 3.19094
# Velocity P-wave (km/s) = 6.14299 6.48266 6.31511
#
# Compressibility (1/GPa) = 0.02637187
#
# Stress axis : x y z
#
# Youngs Moduli (GPa) = 46.52874 46.52871 76.59784
#
# Poissons Ratio (x) = 0.23955 0.37094
# Poissons Ratio (y) = 0.23955 0.37093
# Poissons Ratio (z) = 0.22532 0.22532
#
# Static dielectric constant tensor:
#      x y z
#    x 2.752260 0.000000 0.000000 
#    y 0.000000 2.752260 0.000000 
#    z 0.000000 0.000000 3.030720 
# 
# 
# High freq. dielectric constant tensor:
#      x y z
#    x 1.537700 0.000000 0.000000 
#    y 0.000000 1.537700 0.000000 
#    z 0.000000 0.000000 1.587300 
# 
# From -- ./inp_files/9253.got.cif
#   From: 2010.03.12/outbox.cif.g09.slc.cpg/sg119_5_cif.got.tgz:9253.got - 2010.04.14 02:25:26.
