data_PCOD8310607
_publ_section_title
;
Structure prediction by ZEFSAII (Michael W. Deem and Ramdas Pophale) SiO2 
 PCOD8310607
Probable space group: P -4 N 2
;
_chemical_formula_sum "Si O2"
_cell_formula_units_Z 48
_cell_length_a 22.162345
_cell_length_b 22.162345
_cell_length_c 4.974231
_cell_angle_alpha 90.000000
_cell_angle_beta 90.000000
_cell_angle_gamma 90.000000
_cell_volume 2443.190732
_symmetry_space_group_name_H-M "P -4 N 2"
_symmetry_group_IT_number 118
_symmetry_cell_setting 'tetragonal'
loop_
_space_group_symop_operation_xyz
x,y,z
y,-x,-z
-x,-y,z
-y,x,-z
1/2+y,1/2+x,1/2-z
1/2-y,1/2-x,1/2-z
1/2-x,1/2+y,1/2+z
1/2+x,1/2-y,1/2+z
loop_
_atom_site_type_symbol
_atom_site_label
_atom_site_fract_x
_atom_site_fract_y
_atom_site_fract_z
Si Si1 0.364933 0.135067 0.750000
Si Si2 0.978377 0.224296 0.642903
Si Si3 0.891246 0.805604 0.788251
Si Si4 0.116178 0.327843 0.000157
Si Si5 0.514882 0.805992 0.634223
Si Si6 0.805721 0.305721 0.750000
Si Si7 0.351675 0.326186 0.226149
O O1 0.435868 0.144122 0.707683
O O2 0.323440 0.154044 0.502877
O O3 0.037279 0.186900 0.736338
O O4 0.991258 0.253181 0.353541
O O5 0.920630 0.180897 0.628472
O O6 0.963769 0.276915 0.854668
O O7 0.855898 0.813880 0.512132
O O8 0.875035 0.739958 0.901090
O O9 0.869690 0.853150 0.013293
O O10 0.160724 0.339277 0.250000
O O11 0.048405 0.340051 0.102405
O O12 0.128022 0.371979 0.750000
O O13 0.735765 0.318761 0.689484
#
# Coordination Sequence:
#
# PCOD8310607 Si02
#       7
#     4   8   8   8   8   4   8
#     4  12  20  40  61  92 120 162 202 258 304 363
#     4  11  22  43  61  85 126 163 204 238 305 381
#     4  11  25  39  62  91 119 167 194 244 310 366
#     4  11  23  40  59  85 124 168 205 246 298 368
#     4  11  21  39  62  85 118 167 209 245 302 365
#     4  12  24  36  60  98 131 150 188 259 326 350
#     4  12  23  40  63  94 127 154 199 257 303 368
#
# _framework density 19.646439000000001
#
# number of rings (size 3 to 8) (size 9 to 14) (size 15 to 20)
#    0.000    0.667    3.333    7.000    3.500    0.000 
#    0.000    0.417    0.000    6.000    0.000    0.000 
#    0.000    0.000    0.000    0.000    0.000    0.000 
#
# Total GULP energy -595491.897259 kJ/mol
# GULP energy per Si atom -12406.081193 kJ/mol
# Density = 1.960172 g / cm^3
# Si number density = 19.646439 Si / 1000 Ang^3
#
#
#
# Elastic Constant Matrix: (Units=GPa)
#
#
# Indices 1 2 3 4 5 6 
#
# 1 90.1169 50.6797 13.3929 0.0000 0.0000 0.0000
# 2 50.6797 90.1138 13.3919 0.0000 0.0000 0.0000
# 3 13.3929 13.3919 77.4616 0.0000 0.0000 0.0000
# 4 0.0000 0.0000 0.0000 34.9775 0.0000 0.0000
# 5 0.0000 0.0000 0.0000 0.0000 34.9763 0.0000
# 6 0.0000 0.0000 0.0000 0.0000 0.0000 24.1120
#
#
#
# Elastic Compliance Matrix: (Units=1/GPa)
#
#
# Indices 1 2 3 4 5 6 
#
# 1 0.016351 -0.009007 -0.001270 0.000000 0.000000 0.000000
# 2 -0.009007 0.016351 -0.001270 0.000000 0.000000 0.000000
# 3 -0.001270 -0.001270 0.013349 0.000000 0.000000 0.000000
# 4 0.000000 0.000000 0.000000 0.028590 0.000000 0.000000
# 5 0.000000 0.000000 0.000000 0.000000 0.028591 0.000000
# 6 0.000000 0.000000 0.000000 0.000000 0.000000 0.041473
#
#
# Mechanical properties :
#
#
# Convention : Reuss Voigt Hill
#
# Bulk Modulus (GPa) = 43.55794 45.84680 44.70237
# Shear Modulus (GPa) = 28.49825 30.82836 29.66330
#
# Velocity S-wave (km/s) = 3.81275 3.96556 3.88990
# Velocity P-wave (km/s) = 6.44994 6.65989 6.55576
#
# Compressibility (1/GPa) = 0.02295793
#
# Stress axis : x y z
#
# Youngs Moduli (GPa) = 61.15967 61.15770 74.91388
#
# Poissons Ratio (x) = 0.55084 0.09513
# Poissons Ratio (y) = 0.55085 0.09511
# Poissons Ratio (z) = 0.07766 0.07765
#
# Static dielectric constant tensor:
#      x y z
#    x 3.542050 0.000000 0.000000 
#    y 0.000000 3.542060 0.000000 
#    z 0.000000 0.000000 3.852060 
# 
# 
# High freq. dielectric constant tensor:
#      x y z
#    x 1.753640 0.000000 0.000000 
#    y 0.000000 1.753640 0.000000 
#    z 0.000000 0.000000 1.793850 
# 
# From -- ./inp_files/841.got.cif
#   From: 2010.03.12/outbox.cif.g09.slc.cpg/sg118_1_cif.got.tgz:841.got - 2010.04.14 02:21:17.
