data_PCOD8310454
_publ_section_title
;
Structure prediction by ZEFSAII (Michael W. Deem and Ramdas Pophale) SiO2 
 PCOD8310454
Probable space group: P -4 N 2
;
_chemical_formula_sum "Si O2"
_cell_formula_units_Z 64
_cell_length_a 11.472844
_cell_length_b 11.472844
_cell_length_c 26.752172
_cell_angle_alpha 90.000000
_cell_angle_beta 90.000000
_cell_angle_gamma 90.000000
_cell_volume 3521.285390
_symmetry_space_group_name_H-M "P -4 N 2"
_symmetry_group_IT_number 118
_symmetry_cell_setting 'tetragonal'
loop_
_space_group_symop_operation_xyz
x,y,z
y,-x,-z
-x,-y,z
-y,x,-z
1/2+y,1/2+x,1/2-z
1/2-y,1/2-x,1/2-z
1/2-x,1/2+y,1/2+z
1/2+x,1/2-y,1/2+z
loop_
_atom_site_type_symbol
_atom_site_label
_atom_site_fract_x
_atom_site_fract_y
_atom_site_fract_z
Si Si1 0.386585 0.570569 0.792973
Si Si2 0.327825 0.765512 0.089502
Si Si3 0.232918 0.097386 0.392703
Si Si4 0.712521 0.018125 0.753880
Si Si5 0.802857 0.313469 0.318590
Si Si6 0.986272 0.365799 0.872437
Si Si7 0.358176 0.374437 0.007126
Si Si8 0.433258 0.783302 0.274494
O O1 0.500000 0.500000 0.810865
O O2 0.324704 0.632383 0.840083
O O3 0.408382 0.669702 0.751530
O O4 0.303935 0.477104 0.767252
O O5 0.456936 0.723737 0.105335
O O6 0.229189 0.699447 0.123371
O O7 0.319280 0.906350 0.093617
O O8 0.309781 0.728940 0.031642
O O9 0.363052 0.148303 0.399682
O O10 0.164870 0.164294 0.436310
O O11 0.598344 0.098344 0.750000
O O12 0.717892 0.924223 0.708590
O O13 0.713062 0.953011 0.808187
O O14 0.694651 0.249629 0.293810
O O15 0.000000 0.500000 0.858291
O O16 0.979021 0.292736 0.820967
O O17 0.338079 0.511814 0.007718
O O18 0.411200 0.911200 0.250000
#
# Coordination Sequence:
#
# PCOD8310454 Si02
#       8
#     8   8   8   8   8   8   8   8
#     4  12  23  34  53  81 116 153 183 225 280 335
#     4   9  18  34  60  78 102 145 188 226 285 339
#     4  10  21  32  52  81 114 137 178 235 288 329
#     4  11  23  35  53  78 113 150 185 231 269 322
#     4  10  18  37  55  74 103 148 196 218 264 332
#     4   9  19  33  52  79 107 141 176 225 277 331
#     4   9  19  33  53  83 107 134 178 237 287 342
#     4  11  19  33  53  79 106 146 188 217 261 340
#
# _framework density 18.175182
#
# number of rings (size 3 to 8) (size 9 to 14) (size 15 to 20)
#    0.000    1.875    2.500    3.750    7.000    1.250 
#    0.000    0.000    2.750    1.500    0.000    0.000 
#    0.000    0.000    0.000    0.000    0.000    0.000 
#
# Total GULP energy -793041.041046 kJ/mol
# GULP energy per Si atom -12391.266266 kJ/mol
# Density = 1.813381 g / cm^3
# Si number density = 18.175182 Si / 1000 Ang^3
#
#
#
# Elastic Constant Matrix: (Units=GPa)
#
#
# Indices 1 2 3 4 5 6 
#
# 1 62.6820 37.1528 36.9962 0.0000 0.0000 0.0000
# 2 37.1528 62.6820 36.9962 0.0000 0.0000 0.0000
# 3 36.9962 36.9962 106.4930 0.0000 0.0000 0.0000
# 4 0.0000 0.0000 0.0000 24.9254 0.0000 0.0000
# 5 0.0000 0.0000 0.0000 0.0000 24.9254 0.0000
# 6 0.0000 0.0000 0.0000 0.0000 0.0000 29.6406
#
#
#
# Elastic Compliance Matrix: (Units=1/GPa)
#
#
# Indices 1 2 3 4 5 6 
#
# 1 0.026330 -0.012840 -0.004686 0.000000 0.000000 0.000000
# 2 -0.012840 0.026330 -0.004686 0.000000 0.000000 0.000000
# 3 -0.004686 -0.004686 0.012646 0.000000 0.000000 0.000000
# 4 0.000000 0.000000 0.000000 0.040120 0.000000 0.000000
# 5 0.000000 0.000000 0.000000 0.000000 0.040120 0.000000
# 6 0.000000 0.000000 0.000000 0.000000 0.000000 0.033737
#
#
# Mechanical properties :
#
#
# Convention : Reuss Voigt Hill
#
# Bulk Modulus (GPa) = 47.89164 50.46081 49.17622
# Shear Modulus (GPa) = 21.67590 23.94575 22.81083
#
# Velocity S-wave (km/s) = 3.45716 3.63367 3.54652
# Velocity P-wave (km/s) = 6.50717 6.74008 6.62464
#
# Compressibility (1/GPa) = 0.02088047
#
# Stress axis : x y z
#
# Youngs Moduli (GPa) = 37.97895 37.97895 79.07337
#
# Poissons Ratio (x) = 0.48767 0.37057
# Poissons Ratio (y) = 0.48767 0.37057
# Poissons Ratio (z) = 0.17799 0.17799
#
# Static dielectric constant tensor:
#      x y z
#    x 3.395740 0.000000 0.000000 
#    y 0.000000 3.395740 0.000000 
#    z 0.000000 0.000000 3.491680 
# 
# 
# High freq. dielectric constant tensor:
#      x y z
#    x 1.694930 0.000000 0.000000 
#    y 0.000000 1.694930 0.000000 
#    z 0.000000 0.000000 1.684080 
# 
# From -- ./inp_files/6580.got.cif
#   From: 2010.03.12/outbox.cif.g09.slc.cpg/sg118_4_cif.got.tgz:6580.got - 2010.04.14 02:21:17.
