data_PCOD8310840
_publ_section_title
;
Structure prediction by ZEFSAII (Michael W. Deem and Ramdas Pophale) SiO2 
 PCOD8310840
Probable space group: I -4 M 2
;
_chemical_formula_sum "Si O2"
_cell_formula_units_Z 128
_cell_length_a 23.932476
_cell_length_b 23.932476
_cell_length_c 13.668333
_cell_angle_alpha 90.000000
_cell_angle_beta 90.000000
_cell_angle_gamma 90.000000
_cell_volume 7828.720984
_symmetry_space_group_name_H-M "I -4 M 2"
_symmetry_group_IT_number 119
_symmetry_cell_setting 'tetragonal'
loop_
_space_group_symop_operation_xyz
x,y,z
y,-x,-z
-x,-y,z
-y,x,-z
y,x,-z
-y,-x,-z
-x,y,z
x,-y,z
1/2+x,1/2+y,1/2+z
1/2+y,1/2-x,1/2-z
1/2-x,1/2-y,1/2+z
1/2-y,1/2+x,1/2-z
1/2+y,1/2+x,1/2-z
1/2-y,1/2-x,1/2-z
1/2-x,1/2+y,1/2+z
1/2+x,1/2-y,1/2+z
loop_
_atom_site_type_symbol
_atom_site_label
_atom_site_fract_x
_atom_site_fract_y
_atom_site_fract_z
Si Si1 0.752233 0.563843 0.145745
Si Si2 0.344333 0.749617 0.235805
Si Si3 0.355932 0.062555 0.773653
Si Si4 0.357994 0.437000 0.464300
Si Si5 0.845031 0.750464 0.513465
Si Si6 0.866366 0.301512 0.061732
Si Si7 0.301582 0.633833 0.311259
Si Si8 0.935466 0.751996 0.901376
O O1 0.735117 0.500000 0.122608
O O2 0.817421 0.567512 0.176510
O O3 0.718361 0.585561 0.238740
O O4 0.735603 0.601252 0.052631
O O5 0.297581 0.797581 0.250000
O O6 0.365786 0.750562 0.124872
O O7 0.318727 0.688717 0.253168
O O8 0.397978 0.756791 0.305020
O O9 0.419752 0.080249 0.750000
O O10 0.339675 0.107096 0.855571
O O11 0.354057 0.000000 0.815717
O O12 0.419917 0.419917 0.500000
O O13 0.357328 0.500000 0.426077
O O14 0.349637 0.395251 0.373781
O O15 0.313352 0.428576 0.551748
O O16 0.795242 0.795242 0.500000
O O17 0.826089 0.688539 0.486667
O O18 0.846275 0.244706 0.111922
O O19 0.914192 0.292550 0.980768
O O20 0.000000 0.739682 0.874792
#
# Coordination Sequence:
#
# PCOD8310840 Si02
#       8
#    16  16  16  16  16  16  16  16
#     4  10  21  36  52  74 106 141 177 216 263 320
#     4  12  22  33  53  81 106 137 177 218 271 319
#     4  10  19  33  54  78 105 142 179 215 262 315
#     4  10  19  33  54  78 105 142 179 215 262 315
#     4  12  22  33  53  81 106 137 177 218 271 319
#     4  10  20  33  53  76 108 139 170 214 267 324
#     4  10  20  33  53  76 108 139 170 214 267 324
#     4  10  21  36  52  74 106 141 177 216 263 320
#
# _framework density 16.350052000000002
#
# number of rings (size 3 to 8) (size 9 to 14) (size 15 to 20)
#    0.000    1.500    5.000    1.500    0.000    3.750 
#    0.000    0.000    0.000    0.000    0.000    0.000 
#    0.000    2.500    0.000    0.000    0.000    0.000 
#
# Total GULP energy -793185.693609 kJ/mol
# GULP energy per Si atom -12393.526463 kJ/mol
# Density = 1.631284 g / cm^3
# Si number density = 16.350052 Si / 1000 Ang^3
#
#
#
# Elastic Constant Matrix: (Units=GPa)
#
#
# Indices 1 2 3 4 5 6 
#
# 1 90.5410 31.5846 26.2166 0.0000 0.0000 0.0000
# 2 31.5846 90.5415 26.2165 0.0000 0.0000 0.0000
# 3 26.2166 26.2165 86.7421 0.0000 0.0000 0.0000
# 4 0.0000 0.0000 0.0000 21.5089 0.0000 0.0000
# 5 0.0000 0.0000 0.0000 0.0000 21.5086 0.0000
# 6 0.0000 0.0000 0.0000 0.0000 0.0000 16.0904
#
#
#
# Elastic Compliance Matrix: (Units=1/GPa)
#
#
# Indices 1 2 3 4 5 6 
#
# 1 0.013185 -0.003776 -0.002844 0.000000 0.000000 0.000000
# 2 -0.003776 0.013185 -0.002844 0.000000 0.000000 0.000000
# 3 -0.002844 -0.002844 0.013247 0.000000 0.000000 0.000000
# 4 0.000000 0.000000 0.000000 0.046492 0.000000 0.000000
# 5 0.000000 0.000000 0.000000 0.000000 0.046493 0.000000
# 6 0.000000 0.000000 0.000000 0.000000 0.000000 0.062149
#
#
# Mechanical properties :
#
#
# Convention : Reuss Voigt Hill
#
# Bulk Modulus (GPa) = 48.33098 48.42889 48.37993
# Shear Modulus (GPa) = 22.66784 24.07539 23.37162
#
# Velocity S-wave (km/s) = 3.72749 3.84147 3.78491
# Velocity P-wave (km/s) = 6.93901 7.02568 6.98248
#
# Compressibility (1/GPa) = 0.02069066
#
# Stress axis : x y z
#
# Youngs Moduli (GPa) = 75.84111 75.84160 75.48639
#
# Poissons Ratio (x) = 0.28639 0.21467
# Poissons Ratio (y) = 0.28639 0.21467
# Poissons Ratio (z) = 0.21568 0.21568
#
# Static dielectric constant tensor:
#      x y z
#    x 3.075410 0.000000 0.000000 
#    y 0.000000 3.075390 0.000000 
#    z 0.000000 0.000000 3.147320 
# 
# 
# High freq. dielectric constant tensor:
#      x y z
#    x 1.621150 0.000000 0.000000 
#    y 0.000000 1.621150 0.000000 
#    z 0.000000 0.000000 1.628990 
# 
# From -- ./inp_files/4451.got.cif
#   From: 2010.03.12/outbox.cif.g09.slc.cpg/sg119_3_cif.got.tgz:4451.got - 2010.04.14 02:25:26.
