data_PCOD8310784
_publ_section_title
;
Structure prediction by ZEFSAII (Michael W. Deem and Ramdas Pophale) SiO2 
 PCOD8310784
Probable space group: I -4 M 2
;
_chemical_formula_sum "Si O2"
_cell_formula_units_Z 96
_cell_length_a 19.924438
_cell_length_b 19.924438
_cell_length_c 13.517200
_cell_angle_alpha 90.000000
_cell_angle_beta 90.000000
_cell_angle_gamma 90.000000
_cell_volume 5366.101711
_symmetry_space_group_name_H-M "I -4 M 2"
_symmetry_group_IT_number 119
_symmetry_cell_setting 'tetragonal'
loop_
_space_group_symop_operation_xyz
x,y,z
y,-x,-z
-x,-y,z
-y,x,-z
y,x,-z
-y,-x,-z
-x,y,z
x,-y,z
1/2+x,1/2+y,1/2+z
1/2+y,1/2-x,1/2-z
1/2-x,1/2-y,1/2+z
1/2-y,1/2+x,1/2-z
1/2+y,1/2+x,1/2-z
1/2-y,1/2-x,1/2-z
1/2-x,1/2+y,1/2+z
1/2+x,1/2-y,1/2+z
loop_
_atom_site_type_symbol
_atom_site_label
_atom_site_fract_x
_atom_site_fract_y
_atom_site_fract_z
Si Si1 0.074444 0.199938 0.930735
Si Si2 0.074601 0.716500 0.117072
Si Si3 0.076424 0.076348 0.193457
Si Si4 0.793114 0.669999 0.063369
Si Si5 0.796236 0.075505 0.685725
Si Si6 0.771453 0.299767 0.638958
O O1 0.084034 0.120948 0.905868
O O2 0.126563 0.240815 0.865307
O O3 0.000000 0.222644 0.897868
O O4 0.086535 0.218307 0.045809
O O5 0.129058 0.656872 0.095700
O O6 0.081417 0.742648 0.227390
O O7 0.000000 0.686269 0.099571
O O8 0.099791 0.129657 0.278392
O O9 0.000000 0.093818 0.161924
O O10 0.081644 0.000000 0.235891
O O11 0.734647 0.620106 0.098008
O O12 0.783214 0.742971 0.114343
O O13 0.789563 0.670371 0.943834
O O14 0.801608 0.000000 0.645191
O O15 0.797052 0.297052 0.750000
#
# Coordination Sequence:
#
# PCOD8310784 Si02
#       6
#    16  16  16  16  16  16
#     4   9  17  29  44  67  99 130 161 201 250 297
#     4   9  17  28  45  69  95 124 158 200 250 302
#     4   9  17  28  43  66 100 142 180 212 248 292
#     4  10  19  31  50  70  93 124 157 198 244 291
#     4  10  19  31  47  68  95 128 169 210 246 288
#     4  10  19  31  49  72  95 120 157 197 239 288
#
# _framework density 17.890082
#
# number of rings (size 3 to 8) (size 9 to 14) (size 15 to 20)
#    0.000    2.500    0.000    3.500    0.000    2.000 
#    0.000    3.333    0.000   11.500    0.000    2.333 
#    0.000    7.000    0.000    0.167    0.000    0.500 
#
# Total GULP energy -594644.958011 kJ/mol
# GULP energy per Si atom -12388.436625 kJ/mol
# Density = 1.784936 g / cm^3
# Si number density = 17.890082 Si / 1000 Ang^3
#
#
#
# Elastic Constant Matrix: (Units=GPa)
#
#
# Indices 1 2 3 4 5 6 
#
# 1 69.0913 27.7005 29.9949 0.0000 0.0000 0.0000
# 2 27.7005 69.0913 29.9949 0.0000 0.0000 0.0000
# 3 29.9949 29.9949 92.2490 0.0000 0.0000 0.0000
# 4 0.0000 0.0000 0.0000 21.7488 0.0000 0.0000
# 5 0.0000 0.0000 0.0000 0.0000 21.7488 0.0000
# 6 0.0000 0.0000 0.0000 0.0000 0.0000 24.7718
#
#
#
# Elastic Compliance Matrix: (Units=1/GPa)
#
#
# Indices 1 2 3 4 5 6 
#
# 1 0.018549 -0.005611 -0.004207 0.000000 0.000000 0.000000
# 2 -0.005611 0.018549 -0.004207 0.000000 0.000000 0.000000
# 3 -0.004207 -0.004207 0.013576 0.000000 0.000000 0.000000
# 4 0.000000 0.000000 0.000000 0.045979 0.000000 0.000000
# 5 0.000000 0.000000 0.000000 0.000000 0.045979 0.000000
# 6 0.000000 0.000000 0.000000 0.000000 0.000000 0.040369
#
#
# Mechanical properties :
#
#
# Convention : Reuss Voigt Hill
#
# Bulk Modulus (GPa) = 44.19781 45.09024 44.64402
# Shear Modulus (GPa) = 22.87347 23.16997 23.02172
#
# Velocity S-wave (km/s) = 3.57957 3.60269 3.59115
# Velocity P-wave (km/s) = 6.46864 6.52416 6.49646
#
# Compressibility (1/GPa) = 0.02262556
#
# Stress axis : x y z
#
# Youngs Moduli (GPa) = 53.90990 53.90990 73.65872
#
# Poissons Ratio (x) = 0.30246 0.30989
# Poissons Ratio (y) = 0.30246 0.30989
# Poissons Ratio (z) = 0.22681 0.22681
#
# Static dielectric constant tensor:
#      x y z
#    x 3.312380 0.000000 0.000000 
#    y 0.000000 3.312380 0.000000 
#    z 0.000000 0.000000 3.137740 
# 
# 
# High freq. dielectric constant tensor:
#      x y z
#    x 1.678680 0.000000 0.000000 
#    y 0.000000 1.678680 0.000000 
#    z 0.000000 0.000000 1.671920 
# 
# From -- ./inp_files/5544.got.cif
#   From: 2010.03.12/outbox.cif.g09.slc.cpg/sg119_3_cif.got.tgz:5544.got - 2010.04.14 02:25:26.
