data_PCOD8310750
_publ_section_title
;
Structure prediction by ZEFSAII (Michael W. Deem and Ramdas Pophale) SiO2 
 PCOD8310750
Probable space group: I -4 M 2
;
_chemical_formula_sum "Si O2"
_cell_formula_units_Z 112
_cell_length_a 13.904438
_cell_length_b 13.904438
_cell_length_c 27.139438
_cell_angle_alpha 90.000000
_cell_angle_beta 90.000000
_cell_angle_gamma 90.000000
_cell_volume 5246.959717
_symmetry_space_group_name_H-M "I -4 M 2"
_symmetry_group_IT_number 119
_symmetry_cell_setting 'tetragonal'
loop_
_space_group_symop_operation_xyz
x,y,z
y,-x,-z
-x,-y,z
-y,x,-z
y,x,-z
-y,-x,-z
-x,y,z
x,-y,z
1/2+x,1/2+y,1/2+z
1/2+y,1/2-x,1/2-z
1/2-x,1/2-y,1/2+z
1/2-y,1/2+x,1/2-z
1/2+y,1/2+x,1/2-z
1/2-y,1/2-x,1/2-z
1/2-x,1/2+y,1/2+z
1/2+x,1/2-y,1/2+z
loop_
_atom_site_type_symbol
_atom_site_label
_atom_site_fract_x
_atom_site_fract_y
_atom_site_fract_z
Si Si1 0.863141 0.892694 0.908151
Si Si2 0.607527 0.153048 0.574589
Si Si3 0.602458 0.707997 0.871086
Si Si4 0.889832 0.708363 0.968120
Si Si5 0.890341 0.240687 0.256486
Si Si6 0.727181 0.606343 0.684538
Si Si7 0.612446 0.203180 0.122518
O O1 0.751611 0.902715 0.895267
O O2 0.875433 0.821049 0.954766
O O3 0.912056 0.844968 0.860959
O O4 0.905745 0.000000 0.919423
O O5 0.500000 0.104175 0.572673
O O6 0.685830 0.092900 0.604616
O O7 0.654712 0.177868 0.520891
O O8 0.500000 0.656997 0.882214
O O9 0.616600 0.714499 0.813131
O O10 0.688254 0.643018 0.891770
O O11 0.856391 0.634716 0.926356
O O12 0.000000 0.689323 0.977097
O O13 0.847647 0.347647 0.250000
O O14 0.825723 0.163876 0.227400
O O15 0.000000 0.238842 0.237048
O O16 0.755874 0.500000 0.704098
O O17 0.823705 0.662651 0.667753
O O18 0.500000 0.196566 0.136260
#
# Coordination Sequence:
#
# PCOD8310750 Si02
#       7
#    16  16  16  16  16  16  16
#     4  10  18  31  57  93 132 169 207 254 313 380
#     4  10  20  38  63  90 128 171 212 263 322 387
#     4  11  24  42  65  91 122 163 214 268 323 383
#     4  10  21  36  60  94 129 171 216 257 315 389
#     4  11  23  43  67  96 131 170 216 267 323 383
#     4  11  23  41  67  98 133 174 217 260 320 394
#     4  11  23  42  67  93 130 171 210 267 326 382
#
# _framework density 21.345696
#
# number of rings (size 3 to 8) (size 9 to 14) (size 15 to 20)
#    0.000    1.429    4.286    2.571    0.000    6.714 
#    0.000    5.000    0.000    5.143    0.000    2.000 
#    0.000    0.000    0.000    0.000    0.000    0.000 
#
# Total GULP energy -693895.270586 kJ/mol
# GULP energy per Si atom -12390.986975 kJ/mol
# Density = 2.129711 g / cm^3
# Si number density = 21.345696 Si / 1000 Ang^3
#
#
#
# Elastic Constant Matrix: (Units=GPa)
#
#
# Indices 1 2 3 4 5 6 
#
# 1 112.5020 37.4573 22.8558 0.0000 0.0000 0.0000
# 2 37.4573 112.5020 22.8558 0.0000 0.0000 0.0000
# 3 22.8558 22.8558 82.0792 0.0000 0.0000 0.0000
# 4 0.0000 0.0000 0.0000 15.4497 0.0000 0.0000
# 5 0.0000 0.0000 0.0000 0.0000 15.4497 0.0000
# 6 0.0000 0.0000 0.0000 0.0000 0.0000 -1.9998
#
#
#
# Elastic Compliance Matrix: (Units=1/GPa)
#
#
# Indices 1 2 3 4 5 6 
#
# 1 0.010306 -0.003019 -0.002029 0.000000 0.000000 0.000000
# 2 -0.003019 0.010306 -0.002029 0.000000 0.000000 0.000000
# 3 -0.002029 -0.002029 0.013313 0.000000 0.000000 0.000000
# 4 0.000000 0.000000 0.000000 0.064726 0.000000 0.000000
# 5 0.000000 0.000000 0.000000 0.000000 0.064726 0.000000
# 6 0.000000 0.000000 0.000000 0.000000 0.000000 -0.500050
#
#
# Mechanical properties :
#
#
# Convention : Reuss Voigt Hill
#
# Bulk Modulus (GPa) = 50.57945 52.60233 51.59089
# Shear Modulus (GPa) = -15.82645 20.70753 2.44054
#
# Velocity S-wave (km/s) = -2.72588 3.11803 1.07043
# Velocity P-wave (km/s) = 3.72016 6.13672 5.07439
#
# Compressibility (1/GPa) = 0.01977088
#
# Stress axis : x y z
#
# Youngs Moduli (GPa) = 97.02890 97.02890 75.11211
#
# Poissons Ratio (x) = 0.29295 0.15241
# Poissons Ratio (y) = 0.29295 0.15241
# Poissons Ratio (z) = 0.19689 0.19689
#
# Static dielectric constant tensor:
#      x y z
#    x 3.953050 0.000000 0.000000 
#    y 0.000000 3.953050 0.000000 
#    z 0.000000 0.000000 3.564120 
# 
# 
# High freq. dielectric constant tensor:
#      x y z
#    x 1.832780 0.000000 0.000000 
#    y 0.000000 1.832780 0.000000 
#    z 0.000000 0.000000 1.832450 
# 
# From -- ./inp_files/9653.got.cif
#   From: 2010.03.12/outbox.cif.g09.slc.cpg/sg119_5_cif.got.tgz:9653.got - 2010.04.14 02:25:26.
