data_PCOD8310973
_publ_section_title
;
Structure prediction by ZEFSAII (Michael W. Deem and Ramdas Pophale) SiO2 
 PCOD8310973
Probable space group: I -4 M 2
;
_chemical_formula_sum "Si O2"
_cell_formula_units_Z 88
_cell_length_a 16.737270
_cell_length_b 16.737270
_cell_length_c 16.581861
_cell_angle_alpha 90.000000
_cell_angle_beta 90.000000
_cell_angle_gamma 90.000000
_cell_volume 4645.179646
_symmetry_space_group_name_H-M "I -4 M 2"
_symmetry_group_IT_number 119
_symmetry_cell_setting 'tetragonal'
loop_
_space_group_symop_operation_xyz
x,y,z
y,-x,-z
-x,-y,z
-y,x,-z
y,x,-z
-y,-x,-z
-x,y,z
x,-y,z
1/2+x,1/2+y,1/2+z
1/2+y,1/2-x,1/2-z
1/2-x,1/2-y,1/2+z
1/2-y,1/2+x,1/2-z
1/2+y,1/2+x,1/2-z
1/2-y,1/2-x,1/2-z
1/2-x,1/2+y,1/2+z
1/2+x,1/2-y,1/2+z
loop_
_atom_site_type_symbol
_atom_site_label
_atom_site_fract_x
_atom_site_fract_y
_atom_site_fract_z
Si Si1 0.408261 0.910899 0.474398
Si Si2 0.814951 0.589299 0.810762
Si Si3 0.333363 0.321254 0.858007
Si Si4 0.590692 0.590692 0.000000
Si Si5 0.277561 0.907584 0.773996
Si Si6 0.669969 0.764708 0.561935
O O1 0.500000 0.900822 0.447323
O O2 0.349804 0.905302 0.399563
O O3 0.385846 0.836755 0.530665
O O4 0.396928 0.000000 0.514829
O O5 0.790214 0.500000 0.787451
O O6 0.882501 0.617500 0.750000
O O7 0.737336 0.644480 0.802660
O O8 0.400252 0.287652 0.797165
O O9 0.301541 0.254535 0.917779
O O10 0.364531 0.389003 0.917456
O O11 0.609961 0.500000 0.018784
O O12 0.355791 0.855791 0.750000
O O13 0.236062 0.874876 0.856466
O O14 0.302562 0.000000 0.783470
O O15 0.689958 0.689958 0.500000
#
# Coordination Sequence:
#
# PCOD8310973 Si02
#       6
#    16  16  16   8  16  16
#     4  10  21  35  54  83 118 153 190 239 296 349
#     4  11  21  35  55  82 116 152 191 238 297 356
#     4  11  21  38  58  84 116 151 193 237 294 346
#     4  11  22  36  58  86 114 148 190 235 290 350
#     4  10  23  39  60  87 119 155 197 247 298 353
#     4  11  20  36  57  83 113 157 204 241 282 347
#
# _framework density 18.944369999999999
#
# number of rings (size 3 to 8) (size 9 to 14) (size 15 to 20)
#    0.000    1.364    2.727    3.818    0.000    6.182 
#    0.000    0.000    0.000    0.000    0.000    0.000 
#    0.000    3.273    0.000    0.000    0.000    0.000 
#
# Total GULP energy -545396.087018 kJ/mol
# GULP energy per Si atom -12395.365614 kJ/mol
# Density = 1.890125 g / cm^3
# Si number density = 18.944370 Si / 1000 Ang^3
#
#
#
# Elastic Constant Matrix: (Units=GPa)
#
#
# Indices 1 2 3 4 5 6 
#
# 1 353.1351 -239.1860 26.8887 0.0000 0.0000 0.0000
# 2 -239.1860 353.0855 26.9316 0.0000 0.0000 0.0000
# 3 26.8887 26.9316 89.5340 0.0000 0.0000 0.0000
# 4 0.0000 0.0000 0.0000 17.1475 0.0000 0.0000
# 5 0.0000 0.0000 0.0000 0.0000 17.1522 0.0000
# 6 0.0000 0.0000 0.0000 0.0000 0.0000 29.6295
#
#
#
# Elastic Compliance Matrix: (Units=1/GPa)
#
#
# Indices 1 2 3 4 5 6 
#
# 1 0.005959 0.004271 -0.003074 0.000000 0.000000 0.000000
# 2 0.004271 0.005960 -0.003075 0.000000 0.000000 0.000000
# 3 -0.003074 -0.003075 0.013017 0.000000 0.000000 0.000000
# 4 0.000000 0.000000 0.000000 0.058318 0.000000 0.000000
# 5 0.000000 0.000000 0.000000 0.000000 0.058301 0.000000
# 6 0.000000 0.000000 0.000000 0.000000 0.000000 0.033750
#
#
# Mechanical properties :
#
#
# Convention : Reuss Voigt Hill
#
# Bulk Modulus (GPa) = 47.21718 47.22480 47.22099
# Shear Modulus (GPa) = 26.86411 78.19387 52.52899
#
# Velocity S-wave (km/s) = 3.76979 6.43157 5.27145
# Velocity P-wave (km/s) = 6.62772 8.95186 7.87599
#
# Compressibility (1/GPa) = 0.02117873
#
# Stress axis : x y z
#
# Youngs Moduli (GPa) = 167.82158 167.78496 76.82100
#
# Poissons Ratio (x) = -0.71661 0.23616
# Poissons Ratio (y) = -0.71677 0.23626
# Poissons Ratio (z) = 0.51592 0.51601
#
# Static dielectric constant tensor:
#      x y z
#    x 3.550370 0.000000 0.000000 
#    y 0.000000 3.550390 0.000000 
#    z 0.000000 0.000000 3.416510 
# 
# 
# High freq. dielectric constant tensor:
#      x y z
#    x 1.730880 0.000000 0.000000 
#    y 0.000000 1.730880 0.000000 
#    z 0.000000 0.000000 1.741320 
# 
# From -- ./inp_files/5384.got.cif
#   From: 2010.03.12/outbox.cif.g09.slc.cpg/sg119_3_cif.got.tgz:5384.got - 2010.04.14 02:25:26.
