data_PCOD8310543
_publ_section_title
;
Structure prediction by ZEFSAII (Michael W. Deem and Ramdas Pophale) SiO2 
 PCOD8310543
Probable space group: P -4 N 2
;
_chemical_formula_sum "Si O2"
_cell_formula_units_Z 36
_cell_length_a 14.436934
_cell_length_b 14.436934
_cell_length_c 8.406658
_cell_angle_alpha 90.000000
_cell_angle_beta 90.000000
_cell_angle_gamma 90.000000
_cell_volume 1752.158226
_symmetry_space_group_name_H-M "P -4 N 2"
_symmetry_group_IT_number 118
_symmetry_cell_setting 'tetragonal'
loop_
_space_group_symop_operation_xyz
x,y,z
y,-x,-z
-x,-y,z
-y,x,-z
1/2+y,1/2+x,1/2-z
1/2-y,1/2-x,1/2-z
1/2-x,1/2+y,1/2+z
1/2+x,1/2-y,1/2+z
loop_
_atom_site_type_symbol
_atom_site_label
_atom_site_fract_x
_atom_site_fract_y
_atom_site_fract_z
Si Si1 0.216685 0.437528 0.723007
Si Si2 0.000000 0.500000 0.250000
Si Si3 0.000000 0.000000 0.500000
Si Si4 0.599941 0.657765 0.840429
Si Si5 0.187839 0.537757 0.406385
Si Si6 0.370436 0.209528 0.103350
O O1 0.134399 0.365602 0.750000
O O2 0.314671 0.390609 0.755044
O O3 0.227588 0.470412 0.541479
O O4 0.193776 0.524925 0.835161
O O5 0.093495 0.491910 0.349517
O O6 0.915395 0.979689 0.618859
O O7 0.552632 0.736935 0.732820
O O8 0.636833 0.693672 0.011981
O O9 0.158133 0.636597 0.471291
O O10 0.297810 0.202191 0.250000
#
# Coordination Sequence:
#
# PCOD8310543 Si02
#       6
#     8   2   2   8   8   8
#     4  11  24  41  68 101 138 176 231 286 361 423
#     4  12  20  40  74 108 144 172 240 290 364 428
#     4  12  28  44  74  92 140 192 238 292 356 432
#     4  12  24  49  65  97 140 187 236 291 354 434
#     4  11  24  40  72 102 139 183 230 299 350 430
#     4  10  21  43  69  96 134 182 227 292 358 413
#
# _framework density 20.54609
#
# number of rings (size 3 to 8) (size 9 to 14) (size 15 to 20)
#    0.000    0.889    4.444    2.667    0.000    4.889 
#    4.000    0.000    0.000    0.000    0.000    0.000 
#    0.000    0.000    0.000    0.000    0.000    0.000 
#
# Total GULP energy -446334.442333 kJ/mol
# GULP energy per Si atom -12398.178954 kJ/mol
# Density = 2.049933 g / cm^3
# Si number density = 20.546090 Si / 1000 Ang^3
#
#
#
# Elastic Constant Matrix: (Units=GPa)
#
#
# Indices 1 2 3 4 5 6 
#
# 1 62.8775 100.7208 68.3903 0.0000 0.0000 0.0000
# 2 100.7208 62.8753 68.3969 0.0000 0.0000 0.0000
# 3 68.3903 68.3969 131.7642 0.0000 0.0000 0.0000
# 4 0.0000 0.0000 0.0000 40.8038 0.0000 0.0000
# 5 0.0000 0.0000 0.0000 0.0000 40.8038 0.0000
# 6 0.0000 0.0000 0.0000 0.0000 0.0000 43.9391
#
#
#
# Elastic Compliance Matrix: (Units=1/GPa)
#
#
# Indices 1 2 3 4 5 6 
#
# 1 -0.007811 0.018612 -0.005607 0.000000 0.000000 0.000000
# 2 0.018612 -0.007814 -0.005604 0.000000 0.000000 0.000000
# 3 -0.005607 -0.005604 0.013409 0.000000 0.000000 0.000000
# 4 0.000000 0.000000 0.000000 0.024508 0.000000 0.000000
# 5 0.000000 0.000000 0.000000 0.000000 0.024508 0.000000
# 6 0.000000 0.000000 0.000000 0.000000 0.000000 0.022759
#
#
# Mechanical properties :
#
#
# Convention : Reuss Voigt Hill
#
# Bulk Modulus (GPa) = 79.45811 81.39258 80.42535
# Shear Modulus (GPa) = 84.81466 26.44327 55.62897
#
# Velocity S-wave (km/s) = 6.43194 3.59140 5.20903
# Velocity P-wave (km/s) = 9.69107 7.54309 8.68375
#
# Compressibility (1/GPa) = 0.01258525
#
# Stress axis : x y z
#
# Youngs Moduli (GPa) = -128.02588 -127.98361 74.57880
#
# Poissons Ratio (x) = 2.38200 0.41816
# Poissons Ratio (y) = 2.38279 0.41796
# Poissons Ratio (z) = -0.71784 -0.71726
#
# Static dielectric constant tensor:
#      x y z
#    x 3.878330 0.000000 0.000000 
#    y 0.000000 3.878350 0.000000 
#    z 0.000000 0.000000 5.427100 
# 
# 
# High freq. dielectric constant tensor:
#      x y z
#    x 1.808070 0.000000 0.000000 
#    y 0.000000 1.808070 0.000000 
#    z 0.000000 0.000000 1.818300 
# 
# From -- ./inp_files/1791.got.cif
#   From: 2010.03.12/outbox.cif.g09.slc.cpg/sg118_1_cif.got.tgz:1791.got - 2010.04.14 02:21:17.
