data_PCOD8310884
_publ_section_title
;
Structure prediction by ZEFSAII (Michael W. Deem and Ramdas Pophale) SiO2 
 PCOD8310884
Probable space group: I -4 M 2
;
_chemical_formula_sum "Si O2"
_cell_formula_units_Z 88
_cell_length_a 14.529255
_cell_length_b 14.529255
_cell_length_c 22.409368
_cell_angle_alpha 90.000000
_cell_angle_beta 90.000000
_cell_angle_gamma 90.000000
_cell_volume 4730.600797
_symmetry_space_group_name_H-M "I -4 M 2"
_symmetry_group_IT_number 119
_symmetry_cell_setting 'tetragonal'
loop_
_space_group_symop_operation_xyz
x,y,z
y,-x,-z
-x,-y,z
-y,x,-z
y,x,-z
-y,-x,-z
-x,y,z
x,-y,z
1/2+x,1/2+y,1/2+z
1/2+y,1/2-x,1/2-z
1/2-x,1/2-y,1/2+z
1/2-y,1/2+x,1/2-z
1/2+y,1/2+x,1/2-z
1/2-y,1/2-x,1/2-z
1/2-x,1/2+y,1/2+z
1/2+x,1/2-y,1/2+z
loop_
_atom_site_type_symbol
_atom_site_label
_atom_site_fract_x
_atom_site_fract_y
_atom_site_fract_z
Si Si1 0.288372 0.606086 0.448931
Si Si2 0.606330 0.606330 0.000000
Si Si3 0.750833 0.607990 0.769714
Si Si4 0.893383 0.106328 0.168719
Si Si5 0.894992 0.603776 0.991806
Si Si6 0.760269 0.107681 0.401673
O O1 0.336875 0.663126 0.500000
O O2 0.315177 0.500000 0.458054
O O3 0.325871 0.638988 0.384606
O O4 0.177636 0.621504 0.454787
O O5 0.647633 0.657761 0.057564
O O6 0.627740 0.500000 0.010175
O O7 0.770570 0.500000 0.770847
O O8 0.845003 0.654998 0.750000
O O9 0.665347 0.632494 0.727026
O O10 0.730357 0.649060 0.835609
O O11 0.000000 0.122643 0.184962
O O12 0.876494 0.000000 0.149682
O O13 0.869025 0.500000 0.014204
O O14 0.000000 0.607559 0.970238
O O15 0.836610 0.631525 0.933279
O O16 0.774350 0.000000 0.396050
#
# Coordination Sequence:
#
# PCOD8310884 Si02
#       6
#    16   8  16  16  16  16
#     4  10  20  32  53  82 109 138 172 215 266 317
#     4   9  18  32  52  78 104 128 161 208 258 306
#     4  10  22  36  52  75 104 139 177 214 256 311
#     4   9  19  36  55  77 107 139 174 218 266 317
#     4   9  19  34  51  75 108 142 174 211 257 309
#     4   9  19  34  50  72 100 133 172 211 250 298
#
# _framework density 18.602288000000001
#
# number of rings (size 3 to 8) (size 9 to 14) (size 15 to 20)
#    0.000    2.636    0.000    0.545    3.818    2.545 
#    0.000    5.455    0.000    1.091    0.000    0.000 
#    0.000    0.000    0.000   14.182    0.000    0.545 
#
# Total GULP energy -545380.504594 kJ/mol
# GULP energy per Si atom -12395.011468 kJ/mol
# Density = 1.855995 g / cm^3
# Si number density = 18.602288 Si / 1000 Ang^3
#
#
#
# Elastic Constant Matrix: (Units=GPa)
#
#
# Indices 1 2 3 4 5 6 
#
# 1 84.5629 44.3279 68.9985 0.0000 0.0000 0.0000
# 2 44.3279 84.5669 68.9975 0.0000 0.0000 0.0000
# 3 68.9985 68.9975 163.7730 0.0000 0.0000 0.0000
# 4 0.0000 0.0000 0.0000 25.7477 0.0000 0.0000
# 5 0.0000 0.0000 0.0000 0.0000 25.7494 0.0000
# 6 0.0000 0.0000 0.0000 0.0000 0.0000 18.2956
#
#
#
# Elastic Compliance Matrix: (Units=1/GPa)
#
#
# Indices 1 2 3 4 5 6 
#
# 1 0.019494 -0.005360 -0.005955 0.000000 0.000000 0.000000
# 2 -0.005360 0.019492 -0.005954 0.000000 0.000000 0.000000
# 3 -0.005955 -0.005954 0.011123 0.000000 0.000000 0.000000
# 4 0.000000 0.000000 0.000000 0.038838 0.000000 0.000000
# 5 0.000000 0.000000 0.000000 0.000000 0.038836 0.000000
# 6 0.000000 0.000000 0.000000 0.000000 0.000000 0.054658
#
#
# Mechanical properties :
#
#
# Convention : Reuss Voigt Hill
#
# Bulk Modulus (GPa) = 64.21675 77.50561 70.86118
# Shear Modulus (GPa) = 22.50537 23.99714 23.25125
#
# Velocity S-wave (km/s) = 3.48202 3.59557 3.53925
# Velocity P-wave (km/s) = 7.12473 7.68066 7.40791
#
# Compressibility (1/GPa) = 0.01557226
#
# Stress axis : x y z
#
# Youngs Moduli (GPa) = 51.29816 51.30257 89.90192
#
# Poissons Ratio (x) = 0.27497 0.53535
# Poissons Ratio (y) = 0.27494 0.53527
# Poissons Ratio (z) = 0.30547 0.30545
#
# Static dielectric constant tensor:
#      x y z
#    x 3.510470 0.000000 0.000000 
#    y 0.000000 3.510480 0.000000 
#    z 0.000000 0.000000 3.752570 
# 
# 
# High freq. dielectric constant tensor:
#      x y z
#    x 1.722400 0.000000 0.000000 
#    y 0.000000 1.722400 0.000000 
#    z 0.000000 0.000000 1.708200 
# 
# From -- ./inp_files/7708.got.cif
#   From: 2010.03.12/outbox.cif.g09.slc.cpg/sg119_4_cif.got.tgz:7708.got - 2010.04.14 02:25:26.
