data_PCOD8310656
_publ_section_title
;
Structure prediction by ZEFSAII (Michael W. Deem and Ramdas Pophale) SiO2 
 PCOD8310656
Probable space group: P -4 N 2
;
_chemical_formula_sum "Si O2"
_cell_formula_units_Z 22
_cell_length_a 5.212397
_cell_length_b 5.212397
_cell_length_c 31.209101
_cell_angle_alpha 90.000000
_cell_angle_beta 90.000000
_cell_angle_gamma 90.000000
_cell_volume 847.922639
_symmetry_space_group_name_H-M "P -4 N 2"
_symmetry_group_IT_number 118
_symmetry_cell_setting 'tetragonal'
loop_
_space_group_symop_operation_xyz
x,y,z
y,-x,-z
-x,-y,z
-y,x,-z
1/2+y,1/2+x,1/2-z
1/2-y,1/2-x,1/2-z
1/2-x,1/2+y,1/2+z
1/2+x,1/2-y,1/2+z
loop_
_atom_site_type_symbol
_atom_site_label
_atom_site_fract_x
_atom_site_fract_y
_atom_site_fract_z
Si Si1 0.663324 0.251520 0.298321
Si Si2 0.754654 0.330126 0.929137
Si Si3 0.500000 0.000000 0.861789
Si Si4 0.000000 0.000000 0.000000
O O1 0.500000 0.500000 0.307987
O O2 0.766813 0.266813 0.250000
O O3 0.897551 0.267052 0.331778
O O4 0.500000 0.000000 0.307050
O O5 0.500000 0.500000 0.935747
O O6 0.719861 0.124041 0.891276
O O7 0.000000 0.500000 0.916548
O O8 0.806693 0.172867 0.972402
#
# Coordination Sequence:
#
# PCOD8310656 Si02
#       4
#     8   8   4   2
#     4  11  30  53  85 127 175 231 287 352 430 514
#     4  12  32  54  87 127 171 229 291 363 437 525
#     4  12  31  52  86 130 174 226 294 360 441 506
#     4  12  32  56  80 128 168 236 288 364 444 520
#
# _framework density 25.94576
#
# number of rings (size 3 to 8) (size 9 to 14) (size 15 to 20)
#    0.000    0.364    0.000    2.727   30.545    0.000 
#    0.000    0.000    0.000    0.000    0.000    0.000 
#    0.000    0.000    0.000    0.000    0.000    0.000 
#
# Total GULP energy -272969.138509 kJ/mol
# GULP energy per Si atom -12407.688114 kJ/mol
# Density = 2.588671 g / cm^3
# Si number density = 25.945760 Si / 1000 Ang^3
#
#
#
# Elastic Constant Matrix: (Units=GPa)
#
#
# Indices 1 2 3 4 5 6 
#
# 1 171.3316 77.9677 85.2823 0.0000 0.0000 0.0000
# 2 77.9677 171.3316 85.2823 0.0000 0.0000 0.0000
# 3 85.2823 85.2823 202.4331 0.0000 0.0000 0.0000
# 4 0.0000 0.0000 0.0000 -77.6365 0.0000 0.0000
# 5 0.0000 0.0000 0.0000 0.0000 -77.6365 0.0000
# 6 0.0000 0.0000 0.0000 0.0000 0.0000 62.2937
#
#
#
# Elastic Compliance Matrix: (Units=1/GPa)
#
#
# Indices 1 2 3 4 5 6 
#
# 1 0.008173 -0.002538 -0.002374 0.000000 0.000000 0.000000
# 2 -0.002538 0.008173 -0.002374 0.000000 0.000000 0.000000
# 3 -0.002374 -0.002374 0.006940 0.000000 0.000000 0.000000
# 4 0.000000 0.000000 0.000000 -0.012881 0.000000 0.000000
# 5 0.000000 0.000000 0.000000 0.000000 -0.012881 0.000000
# 6 0.000000 0.000000 0.000000 0.000000 0.000000 0.016053
#
#
# Mechanical properties :
#
#
# Convention : Reuss Voigt Hill
#
# Bulk Modulus (GPa) = 114.74799 115.79565 115.27182
# Shear Modulus (GPa) = 161.00186 1.17508 81.08847
#
# Velocity S-wave (km/s) = 7.88593 0.67371 5.59651
# Velocity P-wave (km/s) = 11.28004 6.73290 9.28901
#
# Compressibility (1/GPa) = 0.00871475
#
# Stress axis : x y z
#
# Youngs Moduli (GPa) = 122.35120 122.35120 144.08509
#
# Poissons Ratio (x) = 0.31048 0.34209
# Poissons Ratio (y) = 0.31048 0.34209
# Poissons Ratio (z) = 0.29049 0.29049
#
# Static dielectric constant tensor:
#      x y z
#    x 4.907680 0.000000 0.000000 
#    y 0.000000 4.907680 0.000000 
#    z 0.000000 0.000000 5.049790 
# 
# 
# High freq. dielectric constant tensor:
#      x y z
#    x 2.049810 0.000000 0.000000 
#    y 0.000000 2.049810 0.000000 
#    z 0.000000 0.000000 2.060400 
# 
# From -- ./inp_files/6634.got.cif
#   From: 2010.03.12/outbox.cif.g09.slc.cpg/sg118_4_cif.got.tgz:6634.got - 2010.04.14 02:21:17.
