data_PCOD8310666
_publ_section_title
;
Structure prediction by ZEFSAII (Michael W. Deem and Ramdas Pophale) SiO2 
 PCOD8310666
Probable space group: P -4 N 2
;
_chemical_formula_sum "Si O2"
_cell_formula_units_Z 20
_cell_length_a 4.974622
_cell_length_b 4.974622
_cell_length_c 32.547396
_cell_angle_alpha 90.000000
_cell_angle_beta 90.000000
_cell_angle_gamma 90.000000
_cell_volume 805.445984
_symmetry_space_group_name_H-M "P -4 N 2"
_symmetry_group_IT_number 118
_symmetry_cell_setting 'tetragonal'
loop_
_space_group_symop_operation_xyz
x,y,z
y,-x,-z
-x,-y,z
-y,x,-z
1/2+y,1/2+x,1/2-z
1/2-y,1/2-x,1/2-z
1/2-x,1/2+y,1/2+z
1/2+x,1/2-y,1/2+z
loop_
_atom_site_type_symbol
_atom_site_label
_atom_site_fract_x
_atom_site_fract_y
_atom_site_fract_z
Si Si1 0.000000 0.500000 0.750000
Si Si2 0.247693 0.805012 0.376286
Si Si3 0.500000 0.500000 0.000000
Si Si4 0.500000 0.000000 0.946390
Si Si5 0.000000 0.000000 0.191514
O O1 0.953689 0.248960 0.779150
O O2 0.257515 0.590315 0.338771
O O3 0.233062 0.625613 0.417623
O O4 0.500000 0.000000 0.378472
O O5 0.000000 0.000000 0.369548
O O6 0.388763 0.751976 0.973560
#
# Coordination Sequence:
#
# PCOD8310666 Si02
#       5
#     2   8   2   4   4
#     4  12  32  48  82 116 174 206 260 350 410 478
#     4  12  28  54  87 120 156 222 274 336 392 504
#     4  12  32  48  82 120 172 212 260 352 410 480
#     4  12  30  54  81 123 166 214 278 329 419 472
#     4  12  30  54  79 123 162 214 274 329 417 472
#
# _framework density 24.830967000000001
#
# number of rings (size 3 to 8) (size 9 to 14) (size 15 to 20)
#    0.000    0.000    4.000    2.400    5.600    8.000 
#    0.000    0.000    0.000    0.000    0.000    0.000 
#    0.000    0.000    0.000    0.000    0.000    0.000 
#
# Total GULP energy -247796.202591 kJ/mol
# GULP energy per Si atom -12389.810130 kJ/mol
# Density = 2.477445 g / cm^3
# Si number density = 24.830967 Si / 1000 Ang^3
#
#
#
# Elastic Constant Matrix: (Units=GPa)
#
#
# Indices 1 2 3 4 5 6 
#
# 1 197.6932 82.6875 91.3721 0.0000 0.0000 0.0000
# 2 82.6875 197.6932 91.3721 0.0000 0.0000 0.0000
# 3 91.3721 91.3721 203.5208 0.0000 0.0000 0.0000
# 4 0.0000 0.0000 0.0000 37.4333 0.0000 0.0000
# 5 0.0000 0.0000 0.0000 0.0000 37.4333 0.0000
# 6 0.0000 0.0000 0.0000 0.0000 0.0000 35.8741
#
#
#
# Elastic Compliance Matrix: (Units=1/GPa)
#
#
# Indices 1 2 3 4 5 6 
#
# 1 0.006869 -0.001827 -0.002264 0.000000 0.000000 0.000000
# 2 -0.001827 0.006869 -0.002264 0.000000 0.000000 0.000000
# 3 -0.002264 -0.002264 0.006946 0.000000 0.000000 0.000000
# 4 0.000000 0.000000 0.000000 0.026714 0.000000 0.000000
# 5 0.000000 0.000000 0.000000 0.000000 0.026714 0.000000
# 6 0.000000 0.000000 0.000000 0.000000 0.000000 0.027875
#
#
# Mechanical properties :
#
#
# Convention : Reuss Voigt Hill
#
# Bulk Modulus (GPa) = 125.38467 125.53004 125.45735
# Shear Modulus (GPa) = 42.60646 44.37983 43.49314
#
# Velocity S-wave (km/s) = 4.14679 4.23221 4.18971
# Velocity P-wave (km/s) = 8.57512 8.63398 8.60460
#
# Compressibility (1/GPa) = 0.00797546
#
# Stress axis : x y z
#
# Youngs Moduli (GPa) = 145.59052 145.59052 143.96708
#
# Poissons Ratio (x) = 0.26594 0.32589
# Poissons Ratio (y) = 0.26594 0.32589
# Poissons Ratio (z) = 0.32956 0.32956
#
# Static dielectric constant tensor:
#      x y z
#    x 5.241000 0.000000 0.000000 
#    y 0.000000 5.241000 0.000000 
#    z 0.000000 0.000000 5.206100 
# 
# 
# High freq. dielectric constant tensor:
#      x y z
#    x 1.996510 0.000000 0.000000 
#    y 0.000000 1.996510 0.000000 
#    z 0.000000 0.000000 2.013100 
# 
# From -- ./inp_files/6616.got.cif
#   From: 2010.03.12/outbox.cif.g09.slc.cpg/sg118_4_cif.got.tgz:6616.got - 2010.04.14 02:21:17.
