data_PCOD8310386
_publ_section_title
;
Structure prediction by ZEFSAII (Michael W. Deem and Ramdas Pophale) SiO2 
 PCOD8310386
Probable space group: P -4 B 2
;
_chemical_formula_sum "Si O2"
_cell_formula_units_Z 30
_cell_length_a 13.987723
_cell_length_b 13.987723
_cell_length_c 7.132587
_cell_angle_alpha 90.000000
_cell_angle_beta 90.000000
_cell_angle_gamma 90.000000
_cell_volume 1395.536257
_symmetry_space_group_name_H-M "P -4 B 2"
_symmetry_group_IT_number 117
_symmetry_cell_setting 'tetragonal'
loop_
_space_group_symop_operation_xyz
x,y,z
y,-x,-z
-x,-y,z
-y,x,-z
1/2+y,1/2+x,-z
1/2-y,1/2-x,-z
1/2-x,1/2+y,z
1/2+x,1/2-y,z
loop_
_atom_site_type_symbol
_atom_site_label
_atom_site_fract_x
_atom_site_fract_y
_atom_site_fract_z
Si Si1 0.487872 0.812513 0.745590
Si Si2 0.500000 0.000000 0.000000
Si Si3 0.794900 0.778531 0.801915
Si Si4 0.844793 0.344793 0.500000
Si Si5 0.640364 0.452982 0.995837
O O1 0.500340 0.907088 0.869565
O O2 0.376306 0.788385 0.706748
O O3 0.542288 0.828081 0.545301
O O4 0.534200 0.724545 0.856836
O O5 0.702326 0.793058 0.677180
O O6 0.767863 0.732138 0.000000
O O7 0.830272 0.887302 0.821979
O O8 0.552306 0.396126 0.095079
#
# Coordination Sequence:
#
# PCOD8310386 Si02
#       5
#     8   2   8   4   8
#     4  11  24  41  66  99 135 182 229 283 351 422
#     4  12  24  42  68  92 138 196 230 272 348 444
#     4  11  22  44  67  95 134 181 224 285 355 419
#     4  12  26  41  64 103 132 172 232 292 336 418
#     4   9  19  39  70  96 123 172 227 280 342 407
#
# _framework density 21.497112999999999
#
# number of rings (size 3 to 8) (size 9 to 14) (size 15 to 20)
#    0.000    1.333    4.000    1.600    0.000    4.800 
#    0.000    0.000    0.000    0.000    0.000    0.000 
#    0.000    0.000    0.000    0.000    0.000    0.000 
#
# Total GULP energy -371675.178421 kJ/mol
# GULP energy per Si atom -12389.172614 kJ/mol
# Density = 2.144818 g / cm^3
# Si number density = 21.497113 Si / 1000 Ang^3
#
#
#
# Elastic Constant Matrix: (Units=GPa)
#
#
# Indices 1 2 3 4 5 6 
#
# 1 108.1010 38.3067 34.5644 0.0000 0.0000 0.0000
# 2 38.3067 108.1028 34.5651 0.0000 0.0000 0.0000
# 3 34.5644 34.5651 67.5014 0.0000 0.0000 0.0000
# 4 0.0000 0.0000 0.0000 27.1578 0.0000 0.0000
# 5 0.0000 0.0000 0.0000 0.0000 27.1579 0.0000
# 6 0.0000 0.0000 0.0000 0.0000 0.0000 27.0084
#
#
#
# Elastic Compliance Matrix: (Units=1/GPa)
#
#
# Indices 1 2 3 4 5 6 
#
# 1 0.011668 -0.002660 -0.004613 0.000000 0.000000 0.000000
# 2 -0.002660 0.011668 -0.004613 0.000000 0.000000 0.000000
# 3 -0.004613 -0.004613 0.019538 0.000000 0.000000 0.000000
# 4 0.000000 0.000000 0.000000 0.036822 0.000000 0.000000
# 5 0.000000 0.000000 0.000000 0.000000 0.036822 0.000000
# 6 0.000000 0.000000 0.000000 0.000000 0.000000 0.037025
#
#
# Mechanical properties :
#
#
# Convention : Reuss Voigt Hill
#
# Bulk Modulus (GPa) = 52.34519 55.39750 53.87135
# Shear Modulus (GPa) = 27.22101 28.01610 27.61856
#
# Velocity S-wave (km/s) = 3.56232 3.61397 3.58824
# Velocity P-wave (km/s) = 6.42829 6.57572 6.50242
#
# Compressibility (1/GPa) = 0.01910395
#
# Stress axis : x y z
#
# Youngs Moduli (GPa) = 85.70465 85.70568 51.18101
#
# Poissons Ratio (x) = 0.22795 0.23608
# Poissons Ratio (y) = 0.22795 0.23609
# Poissons Ratio (z) = 0.39533 0.39534
#
# Static dielectric constant tensor:
#      x y z
#    x 4.297180 0.000000 0.000000 
#    y 0.000000 4.297190 0.000000 
#    z 0.000000 0.000000 3.790010 
# 
# 
# High freq. dielectric constant tensor:
#      x y z
#    x 1.868550 0.000000 0.000000 
#    y 0.000000 1.868550 0.000000 
#    z 0.000000 0.000000 1.795910 
# 
# From -- ./inp_files/1430.got.cif
#   From: 2010.03.12/outbox.cif.g09.slc.cpg/sg117_1_cif.got.tgz:1430.got - 2010.04.14 02:19:01.
