data_PCOD8310033
_publ_section_title
;
Structure prediction by ZEFSAII (Michael W. Deem and Ramdas Pophale) SiO2 
 PCOD8310033
Probable space group: P -4 M 2
;
_chemical_formula_sum "Si O2"
_cell_formula_units_Z 40
_cell_length_a 9.830956
_cell_length_b 9.830956
_cell_length_c 25.065027
_cell_angle_alpha 90.000000
_cell_angle_beta 90.000000
_cell_angle_gamma 90.000000
_cell_volume 2422.477107
_symmetry_space_group_name_H-M "P -4 M 2"
_symmetry_group_IT_number 115
_symmetry_cell_setting 'tetragonal'
loop_
_space_group_symop_operation_xyz
x,y,z
y,-x,-z
-x,-y,z
-y,x,-z
y,x,-z
-y,-x,-z
-x,y,z
x,-y,z
loop_
_atom_site_type_symbol
_atom_site_label
_atom_site_fract_x
_atom_site_fract_y
_atom_site_fract_z
Si Si1 0.843977 0.344033 0.464718
Si Si2 0.151231 0.837768 0.058763
Si Si3 0.156026 0.343262 0.341152
Si Si4 0.349584 0.161450 0.148463
Si Si5 0.157166 0.659300 0.731650
O O1 0.750148 0.249853 0.500000
O O2 0.809515 0.500000 0.477912
O O3 0.815710 0.313394 0.402965
O O4 0.000000 0.312303 0.478805
O O5 0.248069 0.775471 0.104491
O O6 0.000000 0.779393 0.068714
O O7 0.147320 0.000000 0.061440
O O8 0.205388 0.794613 0.000000
O O9 0.187611 0.500000 0.327780
O O10 0.254924 0.248659 0.307858
O O11 0.000000 0.309045 0.326907
O O12 0.500000 0.220768 0.137528
O O13 0.301531 0.200357 0.207986
O O14 0.354123 0.000000 0.143460
O O15 0.181865 0.500000 0.721511
O O16 0.000000 0.696421 0.721499
#
# Coordination Sequence:
#
# PCOD8310033 Si02
#       5
#     8   8   8   8   8
#     4   9  19  35  52  71  96 124 154 189 228 270
#     4   8  13  21  35  57  82 107 140 181 219 257
#     4   9  19  35  51  68  94 126 156 187 227 274
#     4   8  14  25  40  59  86 117 145 177 220 266
#     4   9  18  31  47  70  96 120 153 195 232 270
#
# _framework density 16.512022999999999
#
# number of rings (size 3 to 8) (size 9 to 14) (size 15 to 20)
#    0.000    3.400    0.000    3.000    0.000    3.600 
#    0.000    8.000    0.000    1.200    0.000    2.800 
#    0.000    0.000    0.000    0.000    0.000    0.000 
#
# Total GULP energy -495793.205688 kJ/mol
# GULP energy per Si atom -12394.830142 kJ/mol
# Density = 1.647444 g / cm^3
# Si number density = 16.512023 Si / 1000 Ang^3
#
#
#
# Elastic Constant Matrix: (Units=GPa)
#
#
# Indices 1 2 3 4 5 6 
#
# 1 81.8536 60.5367 79.1216 0.0000 0.0000 0.0000
# 2 60.5367 81.8542 79.1220 0.0000 0.0000 0.0000
# 3 79.1216 79.1220 130.2472 0.0000 0.0000 0.0000
# 4 0.0000 0.0000 0.0000 -31.0270 0.0000 0.0000
# 5 0.0000 0.0000 0.0000 0.0000 -31.0194 0.0000
# 6 0.0000 0.0000 0.0000 0.0000 0.0000 26.3850
#
#
#
# Elastic Compliance Matrix: (Units=1/GPa)
#
#
# Indices 1 2 3 4 5 6 
#
# 1 0.034263 -0.012647 -0.013131 0.000000 0.000000 0.000000
# 2 -0.012647 0.034263 -0.013131 0.000000 0.000000 0.000000
# 3 -0.013131 -0.013131 0.023632 0.000000 0.000000 0.000000
# 4 0.000000 0.000000 0.000000 -0.032230 0.000000 0.000000
# 5 0.000000 0.000000 0.000000 0.000000 -0.032238 0.000000
# 6 0.000000 0.000000 0.000000 0.000000 0.000000 0.037900
#
#
# Mechanical properties :
#
#
# Convention : Reuss Voigt Hill
#
# Bulk Modulus (GPa) = 69.74091 81.27953 75.51022
# Shear Modulus (GPa) = 33.74057 -2.12063 15.80997
#
# Velocity S-wave (km/s) = 4.52530 -1.13450 3.09768
# Velocity P-wave (km/s) = 8.34461 6.90038 7.65662
#
# Compressibility (1/GPa) = 0.01433879
#
# Stress axis : x y z
#
# Youngs Moduli (GPa) = 29.18566 29.18580 42.31637
#
# Poissons Ratio (x) = 0.36912 0.55567
# Poissons Ratio (y) = 0.36912 0.55567
# Poissons Ratio (z) = 0.38324 0.38325
#
# Static dielectric constant tensor:
#      x y z
#    x 2.996830 0.000000 0.000000 
#    y 0.000000 2.996830 0.000000 
#    z 0.000000 0.000000 3.239350 
# 
# 
# High freq. dielectric constant tensor:
#      x y z
#    x 1.615010 0.000000 0.000000 
#    y 0.000000 1.615010 0.000000 
#    z 0.000000 0.000000 1.644080 
# 
# From -- ./inp_files/5122.got.cif
#   From: 2010.03.12/outbox.cif.g09.slc.cpg/sg115_3_cif.got.tgz:5122.got - 2010.04.14 02:11:21.
