data_PCOD8310655
_publ_section_title
;
Structure prediction by ZEFSAII (Michael W. Deem and Ramdas Pophale) SiO2 
 PCOD8310655
Probable space group: P -4 N 2
;
_chemical_formula_sum "Si O2"
_cell_formula_units_Z 20
_cell_length_a 5.144277
_cell_length_b 5.144277
_cell_length_c 27.770564
_cell_angle_alpha 90.000000
_cell_angle_beta 90.000000
_cell_angle_gamma 90.000000
_cell_volume 734.908705
_symmetry_space_group_name_H-M "P -4 N 2"
_symmetry_group_IT_number 118
_symmetry_cell_setting 'tetragonal'
loop_
_space_group_symop_operation_xyz
x,y,z
y,-x,-z
-x,-y,z
-y,x,-z
1/2+y,1/2+x,1/2-z
1/2-y,1/2-x,1/2-z
1/2-x,1/2+y,1/2+z
1/2+x,1/2-y,1/2+z
loop_
_atom_site_type_symbol
_atom_site_label
_atom_site_fract_x
_atom_site_fract_y
_atom_site_fract_z
Si Si1 0.253464 0.673171 0.574269
Si Si2 0.500000 0.500000 0.000000
Si Si3 0.737801 0.168258 0.818026
Si Si4 0.500000 0.000000 0.250000
O O1 0.500000 0.500000 0.562118
O O2 0.270397 0.811230 0.626106
O O3 0.000000 0.500000 0.572775
O O4 0.233146 0.895894 0.533827
O O5 0.761487 0.443120 0.787974
O O6 0.500000 0.000000 0.797470
O O7 0.000000 0.000000 0.810048
#
# Coordination Sequence:
#
# PCOD8310655 Si02
#       4
#     8   2   8   2
#     4  11  29  54  79 121 168 222 280 354 424 507
#     4  12  32  48  92 120 172 220 296 336 444 502
#     4  11  28  51  81 117 170 220 282 349 424 506
#     4  12  26  48  82 122 164 220 286 338 436 496
#
# _framework density 27.214268000000001
#
# number of rings (size 3 to 8) (size 9 to 14) (size 15 to 20)
#    0.000    0.800    2.000    0.600   22.400    0.000 
#    0.000    0.000    0.000    0.000    0.000    0.000 
#    0.000    0.000    0.000    0.000    0.000    0.000 
#
# Total GULP energy -247775.621943 kJ/mol
# GULP energy per Si atom -12388.781097 kJ/mol
# Density = 2.715233 g / cm^3
# Si number density = 27.214268 Si / 1000 Ang^3
#
#
#
# Elastic Constant Matrix: (Units=GPa)
#
#
# Indices 1 2 3 4 5 6 
#
# 1 158.9389 72.9455 67.0167 0.0000 0.0000 0.0000
# 2 72.9455 158.9389 67.0167 0.0000 0.0000 0.0000
# 3 67.0167 67.0167 242.9987 0.0000 0.0000 0.0000
# 4 0.0000 0.0000 0.0000 3.9024 0.0000 0.0000
# 5 0.0000 0.0000 0.0000 0.0000 3.9024 0.0000
# 6 0.0000 0.0000 0.0000 0.0000 0.0000 63.8869
#
#
#
# Elastic Compliance Matrix: (Units=1/GPa)
#
#
# Indices 1 2 3 4 5 6 
#
# 1 0.008380 -0.003249 -0.001415 0.000000 0.000000 0.000000
# 2 -0.003249 0.008380 -0.001415 0.000000 0.000000 0.000000
# 3 -0.001415 -0.001415 0.004896 0.000000 0.000000 0.000000
# 4 0.000000 0.000000 0.000000 0.256251 0.000000 0.000000
# 5 0.000000 0.000000 0.000000 0.000000 0.256251 0.000000
# 6 0.000000 0.000000 0.000000 0.000000 0.000000 0.015653
#
#
# Mechanical properties :
#
#
# Convention : Reuss Voigt Hill
#
# Bulk Modulus (GPa) = 105.29915 108.31493 106.80704
# Shear Modulus (GPa) = 8.84746 37.93152 23.38949
#
# Velocity S-wave (km/s) = 1.80502 3.73743 2.93483
# Velocity P-wave (km/s) = 6.56664 7.64929 7.12855
#
# Compressibility (1/GPa) = 0.00949675
#
# Stress axis : x y z
#
# Youngs Moduli (GPa) = 119.33794 119.33794 204.26184
#
# Poissons Ratio (x) = 0.38776 0.28901
# Poissons Ratio (y) = 0.38776 0.28901
# Poissons Ratio (z) = 0.16885 0.16885
#
# Static dielectric constant tensor:
#      x y z
#    x 4.967050 0.000000 0.000000 
#    y 0.000000 4.967050 0.000000 
#    z 0.000000 0.000000 5.561190 
# 
# 
# High freq. dielectric constant tensor:
#      x y z
#    x 2.090510 0.000000 0.000000 
#    y 0.000000 2.090510 0.000000 
#    z 0.000000 0.000000 2.127010 
# 
# From -- ./inp_files/5818.got.cif
#   From: 2010.03.12/outbox.cif.g09.slc.cpg/sg118_3_cif.got.tgz:5818.got - 2010.04.14 02:21:17.
