data_PCOD8310073
_publ_section_title
;
Structure prediction by ZEFSAII (Michael W. Deem and Ramdas Pophale) SiO2 
 PCOD8310073
Probable space group: P -4 C 2
;
_chemical_formula_sum "Si O2"
_cell_formula_units_Z 56
_cell_length_a 12.192150
_cell_length_b 12.192150
_cell_length_c 19.345616
_cell_angle_alpha 90.000000
_cell_angle_beta 90.000000
_cell_angle_gamma 90.000000
_cell_volume 2875.697218
_symmetry_space_group_name_H-M "P -4 C 2"
_symmetry_group_IT_number 116
_symmetry_cell_setting 'tetragonal'
loop_
_space_group_symop_operation_xyz
x,y,z
y,-x,-z
-x,-y,z
-y,x,-z
y,x,1/2-z
-y,-x,1/2-z
-x,y,1/2+z
x,-y,1/2+z
loop_
_atom_site_type_symbol
_atom_site_label
_atom_site_fract_x
_atom_site_fract_y
_atom_site_fract_z
Si Si1 0.276768 0.002104 0.009053
Si Si2 0.590460 0.210972 0.471625
Si Si3 0.844557 0.318100 0.290059
Si Si4 0.013809 0.172635 0.351129
Si Si5 0.822985 0.004775 0.369314
Si Si6 0.095079 0.416128 0.661246
Si Si7 0.376271 0.779186 0.055838
O O1 0.222467 0.052243 0.076771
O O2 0.340753 0.890947 0.021341
O O3 0.186162 0.977395 0.950576
O O4 0.364863 0.090106 0.985428
O O5 0.554801 0.195696 0.391051
O O6 0.681943 0.304022 0.475303
O O7 0.499359 0.243624 0.528418
O O8 0.767828 0.232173 0.250000
O O9 0.968868 0.266893 0.299669
O O10 0.858478 0.423577 0.239669
O O11 0.789565 0.362373 0.361051
O O12 0.117717 0.096927 0.327414
O O13 0.902331 0.107070 0.363717
O O14 0.705849 0.041770 0.341350
O O15 0.000000 0.500000 0.646203
#
# Coordination Sequence:
#
# PCOD8310073 Si02
#       7
#     8   8   8   8   8   8   8
#     4  10  18  33  54  84 126 156 200 259 313 360
#     4  11  22  39  62  91 120 158 210 266 316 366
#     4  11  20  40  58  87 125 167 206 247 327 389
#     4  10  19  29  54  82 122 162 204 246 300 381
#     4  10  18  31  49  85 119 167 203 250 304 359
#     4  11  22  37  59  84 125 170 213 254 311 378
#     4  11  23  38  65  90 119 160 206 266 309 384
#
# _framework density 19.473538999999999
#
# number of rings (size 3 to 8) (size 9 to 14) (size 15 to 20)
#    0.000    1.429    2.857    6.429    0.000    4.286 
#    0.000    0.000    0.000    2.571    0.000    0.000 
#    0.000    0.000    0.000    0.000    0.000    0.000 
#
# Total GULP energy -693741.957675 kJ/mol
# GULP energy per Si atom -12388.249244 kJ/mol
# Density = 1.942922 g / cm^3
# Si number density = 19.473539 Si / 1000 Ang^3
#
#
#
# Elastic Constant Matrix: (Units=GPa)
#
#
# Indices 1 2 3 4 5 6 
#
# 1 80.2459 19.1990 30.3723 0.0000 0.0000 0.0000
# 2 19.1990 80.2462 30.3725 0.0000 0.0000 0.0000
# 3 30.3723 30.3725 109.7468 0.0000 0.0000 0.0000
# 4 0.0000 0.0000 0.0000 25.6439 0.0000 0.0000
# 5 0.0000 0.0000 0.0000 0.0000 25.6434 0.0000
# 6 0.0000 0.0000 0.0000 0.0000 0.0000 54.0936
#
#
#
# Elastic Compliance Matrix: (Units=1/GPa)
#
#
# Indices 1 2 3 4 5 6 
#
# 1 0.014241 -0.002140 -0.003349 0.000000 0.000000 0.000000
# 2 -0.002140 0.014241 -0.003349 0.000000 0.000000 0.000000
# 3 -0.003349 -0.003349 0.010966 0.000000 0.000000 0.000000
# 4 0.000000 0.000000 0.000000 0.038996 0.000000 0.000000
# 5 0.000000 0.000000 0.000000 0.000000 0.038996 0.000000
# 6 0.000000 0.000000 0.000000 0.000000 0.000000 0.018486
#
#
# Mechanical properties :
#
#
# Convention : Reuss Voigt Hill
#
# Bulk Modulus (GPa) = 45.92989 47.79183 46.86086
# Shear Modulus (GPa) = 31.08301 33.76252 32.42277
#
# Velocity S-wave (km/s) = 3.99954 4.16837 4.08483
# Velocity P-wave (km/s) = 6.70563 6.91102 6.80910
#
# Compressibility (1/GPa) = 0.02177232
#
# Stress axis : x y z
#
# Youngs Moduli (GPa) = 70.21883 70.21894 91.19415
#
# Poissons Ratio (x) = 0.15024 0.30542
# Poissons Ratio (y) = 0.15024 0.30542
# Poissons Ratio (z) = 0.23517 0.23517
#
# Static dielectric constant tensor:
#      x y z
#    x 3.423170 0.000000 0.000000 
#    y 0.000000 3.423170 0.000000 
#    z 0.000000 0.000000 4.138990 
# 
# 
# High freq. dielectric constant tensor:
#      x y z
#    x 1.739490 0.000000 0.000000 
#    y 0.000000 1.739490 0.000000 
#    z 0.000000 0.000000 1.775020 
# 
# From -- ./inp_files/4155.got.cif
#   From: 2010.03.12/outbox.cif.g09.slc.cpg/sg116_3_cif.got.tgz:4155.got - 2010.04.14 02:15:44.
