data_PCOD8310893
_publ_section_title
;
Structure prediction by ZEFSAII (Michael W. Deem and Ramdas Pophale) SiO2 
 PCOD8310893
Probable space group: I -4 M 2
;
_chemical_formula_sum "Si O2"
_cell_formula_units_Z 88
_cell_length_a 17.690284
_cell_length_b 17.690284
_cell_length_c 15.210548
_cell_angle_alpha 90.000000
_cell_angle_beta 90.000000
_cell_angle_gamma 90.000000
_cell_volume 4760.082406
_symmetry_space_group_name_H-M "I -4 M 2"
_symmetry_group_IT_number 119
_symmetry_cell_setting 'tetragonal'
loop_
_space_group_symop_operation_xyz
x,y,z
y,-x,-z
-x,-y,z
-y,x,-z
y,x,-z
-y,-x,-z
-x,y,z
x,-y,z
1/2+x,1/2+y,1/2+z
1/2+y,1/2-x,1/2-z
1/2-x,1/2-y,1/2+z
1/2-y,1/2+x,1/2-z
1/2+y,1/2+x,1/2-z
1/2-y,1/2-x,1/2-z
1/2-x,1/2+y,1/2+z
1/2+x,1/2-y,1/2+z
loop_
_atom_site_type_symbol
_atom_site_label
_atom_site_fract_x
_atom_site_fract_y
_atom_site_fract_z
Si Si1 0.225951 0.416959 0.696302
Si Si2 0.916443 0.916443 0.000000
Si Si3 0.088109 0.707317 0.279835
Si Si4 0.654324 0.086062 0.375711
Si Si5 0.664409 0.773997 0.960551
Si Si6 0.696407 0.349392 0.371514
O O1 0.259436 0.500000 0.673171
O O2 0.142315 0.412892 0.652981
O O3 0.220216 0.407839 0.801787
O O4 0.275002 0.348995 0.657715
O O5 0.906391 0.857688 0.078351
O O6 0.000000 0.905615 0.960523
O O7 0.131687 0.631687 0.250000
O O8 0.114824 0.738888 0.373750
O O9 0.105715 0.774248 0.212465
O O10 0.000000 0.687651 0.281429
O O11 0.686049 0.110462 0.469677
O O12 0.623731 0.000000 0.382030
O O13 0.736303 0.826232 0.936930
O O14 0.694456 0.694456 0.000000
#
# Coordination Sequence:
#
# PCOD8310893 Si02
#       6
#    16   8  16  16  16  16
#     4  10  20  34  55  82 114 153 190 233 291 348
#     4  11  22  34  52  78 110 142 178 234 299 354
#     4  10  23  38  59  85 115 154 194 238 290 348
#     4  10  20  33  52  80 116 148 186 233 286 346
#     4  11  19  34  58  84 106 146 191 244 279 330
#     4  11  20  36  57  81 109 147 192 241 282 341
#
# _framework density 18.487075000000001
#
# number of rings (size 3 to 8) (size 9 to 14) (size 15 to 20)
#    0.000    1.545    2.727    2.727    5.091    0.545 
#    0.000    5.455    0.000    4.364    0.000    0.000 
#    0.000    4.727    0.000    0.000    0.000    0.000 
#
# Total GULP energy -545561.318211 kJ/mol
# GULP energy per Si atom -12399.120868 kJ/mol
# Density = 1.844500 g / cm^3
# Si number density = 18.487075 Si / 1000 Ang^3
#
#
#
# Elastic Constant Matrix: (Units=GPa)
#
#
# Indices 1 2 3 4 5 6 
#
# 1 107.4468 44.3097 48.8080 0.0000 0.0000 0.0000
# 2 44.3097 107.4468 48.8080 0.0000 0.0000 0.0000
# 3 48.8080 48.8080 135.0658 0.0000 0.0000 0.0000
# 4 0.0000 0.0000 0.0000 25.9509 0.0000 0.0000
# 5 0.0000 0.0000 0.0000 0.0000 25.9509 0.0000
# 6 0.0000 0.0000 0.0000 0.0000 0.0000 20.3533
#
#
#
# Elastic Compliance Matrix: (Units=1/GPa)
#
#
# Indices 1 2 3 4 5 6 
#
# 1 0.012212 -0.003627 -0.003102 0.000000 0.000000 0.000000
# 2 -0.003627 0.012212 -0.003102 0.000000 0.000000 0.000000
# 3 -0.003102 -0.003102 0.009646 0.000000 0.000000 0.000000
# 4 0.000000 0.000000 0.000000 0.038534 0.000000 0.000000
# 5 0.000000 0.000000 0.000000 0.000000 0.038534 0.000000
# 6 0.000000 0.000000 0.000000 0.000000 0.000000 0.049132
#
#
# Mechanical properties :
#
#
# Convention : Reuss Voigt Hill
#
# Bulk Modulus (GPa) = 69.41210 70.42344 69.91777
# Shear Modulus (GPa) = 27.06576 28.31994 27.69285
#
# Velocity S-wave (km/s) = 3.83042 3.91817 3.87454
# Velocity P-wave (km/s) = 7.56245 7.65803 7.61039
#
# Compressibility (1/GPa) = 0.01440671
#
# Stress axis : x y z
#
# Youngs Moduli (GPa) = 81.88806 81.88806 103.67048
#
# Poissons Ratio (x) = 0.29699 0.32162
# Poissons Ratio (y) = 0.29699 0.32162
# Poissons Ratio (z) = 0.25404 0.25404
#
# Static dielectric constant tensor:
#      x y z
#    x 3.327670 0.000000 0.000000 
#    y 0.000000 3.327670 0.000000 
#    z 0.000000 0.000000 3.601220 
# 
# 
# High freq. dielectric constant tensor:
#      x y z
#    x 1.707030 0.000000 0.000000 
#    y 0.000000 1.707030 0.000000 
#    z 0.000000 0.000000 1.733580 
# 
# From -- ./inp_files/5385.got.cif
#   From: 2010.03.12/outbox.cif.g09.slc.cpg/sg119_3_cif.got.tgz:5385.got - 2010.04.14 02:25:26.
