data_PCOD8310903
_publ_section_title
;
Structure prediction by ZEFSAII (Michael W. Deem and Ramdas Pophale) SiO2 
 PCOD8310903
Probable space group: I -4 M 2
;
_chemical_formula_sum "Si O2"
_cell_formula_units_Z 80
_cell_length_a 14.199729
_cell_length_b 14.199729
_cell_length_c 20.900345
_cell_angle_alpha 90.000000
_cell_angle_beta 90.000000
_cell_angle_gamma 90.000000
_cell_volume 4214.184710
_symmetry_space_group_name_H-M "I -4 M 2"
_symmetry_group_IT_number 119
_symmetry_cell_setting 'tetragonal'
loop_
_space_group_symop_operation_xyz
x,y,z
y,-x,-z
-x,-y,z
-y,x,-z
y,x,-z
-y,-x,-z
-x,y,z
x,-y,z
1/2+x,1/2+y,1/2+z
1/2+y,1/2-x,1/2-z
1/2-x,1/2-y,1/2+z
1/2-y,1/2+x,1/2-z
1/2+y,1/2+x,1/2-z
1/2-y,1/2-x,1/2-z
1/2-x,1/2+y,1/2+z
1/2+x,1/2-y,1/2+z
loop_
_atom_site_type_symbol
_atom_site_label
_atom_site_fract_x
_atom_site_fract_y
_atom_site_fract_z
Si Si1 0.712766 0.890260 0.558264
Si Si2 0.606480 0.111925 0.435839
Si Si3 0.895074 0.387567 0.180544
Si Si4 0.893395 0.895045 0.376343
Si Si5 0.208132 0.391313 0.806963
O O1 0.667666 0.844248 0.494612
O O2 0.668388 0.846550 0.623212
O O3 0.825026 0.872585 0.564285
O O4 0.688152 0.000000 0.556245
O O5 0.500000 0.150990 0.439855
O O6 0.654224 0.144540 0.370223
O O7 0.606958 0.000000 0.439348
O O8 0.896103 0.500000 0.180982
O O9 0.854731 0.354731 0.250000
O O10 0.000000 0.348453 0.169159
O O11 0.820528 0.880003 0.317956
O O12 0.000000 0.879565 0.349758
O O13 0.879786 0.000000 0.404949
O O14 0.182367 0.500000 0.791250
O O15 0.175665 0.324336 0.750000
#
# Coordination Sequence:
#
# PCOD8310903 Si02
#       5
#    16  16  16  16  16
#     4   9  16  27  44  65  92 128 164 199 243 293
#     4   9  17  29  47  73 102 129 160 202 254 309
#     4   8  13  21  35  58  88 121 157 196 239 291
#     4   9  19  35  52  72 101 137 177 217 255 306
#     4  10  20  34  53  76 101 132 170 215 269 321
#
# _framework density 18.983505999999998
#
# number of rings (size 3 to 8) (size 9 to 14) (size 15 to 20)
#    0.000    3.000    0.000    1.800    0.000    5.000 
#    0.000    3.000    0.000    9.600    0.000    0.000 
#    0.000    0.000    0.000    0.400    0.000   37.200 
#
# Total GULP energy -495698.104938 kJ/mol
# GULP energy per Si atom -12392.452623 kJ/mol
# Density = 1.894030 g / cm^3
# Si number density = 18.983506 Si / 1000 Ang^3
#
#
#
# Elastic Constant Matrix: (Units=GPa)
#
#
# Indices 1 2 3 4 5 6 
#
# 1 91.4595 32.7218 54.9847 0.0000 0.0000 0.0000
# 2 32.7218 91.4603 54.9852 0.0000 0.0000 0.0000
# 3 54.9847 54.9852 155.5258 0.0000 0.0000 0.0000
# 4 0.0000 0.0000 0.0000 18.8201 0.0000 0.0000
# 5 0.0000 0.0000 0.0000 0.0000 18.8199 0.0000
# 6 0.0000 0.0000 0.0000 0.0000 0.0000 12.4007
#
#
#
# Elastic Compliance Matrix: (Units=1/GPa)
#
#
# Indices 1 2 3 4 5 6 
#
# 1 0.014374 -0.002651 -0.004145 0.000000 0.000000 0.000000
# 2 -0.002651 0.014374 -0.004145 0.000000 0.000000 0.000000
# 3 -0.004145 -0.004145 0.009360 0.000000 0.000000 0.000000
# 4 0.000000 0.000000 0.000000 0.053135 0.000000 0.000000
# 5 0.000000 0.000000 0.000000 0.000000 0.053135 0.000000
# 6 0.000000 0.000000 0.000000 0.000000 0.000000 0.080641
#
#
# Mechanical properties :
#
#
# Convention : Reuss Voigt Hill
#
# Bulk Modulus (GPa) = 61.62178 69.31433 65.46805
# Shear Modulus (GPa) = 19.81704 23.05838 21.43771
#
# Velocity S-wave (km/s) = 3.23446 3.48897 3.36412
# Velocity P-wave (km/s) = 6.81764 7.26792 7.04638
#
# Compressibility (1/GPa) = 0.01622803
#
# Stress axis : x y z
#
# Youngs Moduli (GPa) = 69.57063 69.57098 106.83352
#
# Poissons Ratio (x) = 0.18442 0.44278
# Poissons Ratio (y) = 0.18442 0.44278
# Poissons Ratio (z) = 0.28834 0.28834
#
# Static dielectric constant tensor:
#      x y z
#    x 3.352820 0.000000 0.000000 
#    y 0.000000 3.352820 0.000000 
#    z 0.000000 0.000000 3.598450 
# 
# 
# High freq. dielectric constant tensor:
#      x y z
#    x 1.709820 0.000000 0.000000 
#    y 0.000000 1.709820 0.000000 
#    z 0.000000 0.000000 1.734010 
# 
# From -- ./inp_files/7547.got.cif
#   From: 2010.03.12/outbox.cif.g09.slc.cpg/sg119_4_cif.got.tgz:7547.got - 2010.04.14 02:25:26.
