data_PCOD8310473
_publ_section_title
;
Structure prediction by ZEFSAII (Michael W. Deem and Ramdas Pophale) SiO2 
 PCOD8310473
Probable space group: P -4 N 2
;
_chemical_formula_sum "Si O2"
_cell_formula_units_Z 32
_cell_length_a 9.169725
_cell_length_b 9.169725
_cell_length_c 17.544336
_cell_angle_alpha 90.000000
_cell_angle_beta 90.000000
_cell_angle_gamma 90.000000
_cell_volume 1475.195432
_symmetry_space_group_name_H-M "P -4 N 2"
_symmetry_group_IT_number 118
_symmetry_cell_setting 'tetragonal'
loop_
_space_group_symop_operation_xyz
x,y,z
y,-x,-z
-x,-y,z
-y,x,-z
1/2+y,1/2+x,1/2-z
1/2-y,1/2-x,1/2-z
1/2-x,1/2+y,1/2+z
1/2+x,1/2-y,1/2+z
loop_
_atom_site_type_symbol
_atom_site_label
_atom_site_fract_x
_atom_site_fract_y
_atom_site_fract_z
Si Si1 0.838938 0.525481 0.578934
Si Si2 0.899496 0.200091 0.161520
Si Si3 0.295640 0.986752 0.694249
Si Si4 0.172822 0.258347 0.070334
O O1 0.735968 0.593878 0.644351
O O2 0.844534 0.633535 0.506589
O O3 0.785711 0.367915 0.550578
O O4 0.000000 0.500000 0.612956
O O5 0.859647 0.371125 0.152327
O O6 0.955503 0.167239 0.248650
O O7 0.031244 0.173950 0.103127
O O8 0.413381 0.913381 0.750000
O O9 0.250452 0.870502 0.629781
#
# Coordination Sequence:
#
# PCOD8310473 Si02
#       4
#     8   8   8   8
#     4  12  25  39  62 101 133 167 222 293 336 388
#     4  10  19  39  67  97 125 171 224 269 323 407
#     4   9  19  40  70  94 123 178 226 259 325 411
#     4  11  21  40  66  93 129 172 225 271 336 404
#
# _framework density 21.692043000000002
#
# number of rings (size 3 to 8) (size 9 to 14) (size 15 to 20)
#    0.000    1.500    2.500    7.500    0.000    0.000 
#    0.000   26.250    0.000    0.000    0.000    0.000 
#    0.000    0.000    0.000    0.000    0.000    0.000 
#
# Total GULP energy -396520.678206 kJ/mol
# GULP energy per Si atom -12391.271194 kJ/mol
# Density = 2.164267 g / cm^3
# Si number density = 21.692043 Si / 1000 Ang^3
#
#
#
# Elastic Constant Matrix: (Units=GPa)
#
#
# Indices 1 2 3 4 5 6 
#
# 1 86.5752 55.7925 36.9822 0.0000 0.0000 0.0000
# 2 55.7925 86.5752 36.9822 0.0000 0.0000 0.0000
# 3 36.9822 36.9822 111.3617 0.0000 0.0000 0.0000
# 4 0.0000 0.0000 0.0000 27.3456 0.0000 0.0000
# 5 0.0000 0.0000 0.0000 0.0000 27.3456 0.0000
# 6 0.0000 0.0000 0.0000 0.0000 0.0000 31.2469
#
#
#
# Elastic Compliance Matrix: (Units=1/GPa)
#
#
# Indices 1 2 3 4 5 6 
#
# 1 0.020487 -0.011999 -0.002819 0.000000 0.000000 0.000000
# 2 -0.011999 0.020487 -0.002819 0.000000 0.000000 0.000000
# 3 -0.002819 -0.002819 0.010852 0.000000 0.000000 0.000000
# 4 0.000000 0.000000 0.000000 0.036569 0.000000 0.000000
# 5 0.000000 0.000000 0.000000 0.000000 0.036569 0.000000
# 6 0.000000 0.000000 0.000000 0.000000 0.000000 0.032003
#
#
# Mechanical properties :
#
#
# Convention : Reuss Voigt Hill
#
# Bulk Modulus (GPa) = 60.41074 60.44729 60.42902
# Shear Modulus (GPa) = 25.28336 27.50463 26.39399
#
# Velocity S-wave (km/s) = 3.41773 3.56470 3.49199
# Velocity P-wave (km/s) = 6.59426 6.69847 6.64657
#
# Compressibility (1/GPa) = 0.01655335
#
# Stress axis : x y z
#
# Youngs Moduli (GPa) = 48.81093 48.81093 92.14835
#
# Poissons Ratio (x) = 0.58566 0.25977
# Poissons Ratio (y) = 0.58566 0.25977
# Poissons Ratio (z) = 0.13760 0.13760
#
# Static dielectric constant tensor:
#      x y z
#    x 3.815040 0.000000 0.000000 
#    y 0.000000 3.815040 0.000000 
#    z 0.000000 0.000000 4.149030 
# 
# 
# High freq. dielectric constant tensor:
#      x y z
#    x 1.835880 0.000000 0.000000 
#    y 0.000000 1.835880 0.000000 
#    z 0.000000 0.000000 1.847560 
# 
# From -- ./inp_files/5327.got.cif
#   From: 2010.03.12/outbox.cif.g09.slc.cpg/sg118_3_cif.got.tgz:5327.got - 2010.04.14 02:21:17.
