data_PCOD8310627
_publ_section_title
;
Structure prediction by ZEFSAII (Michael W. Deem and Ramdas Pophale) SiO2 
 PCOD8310627
Probable space group: P -4 N 2
;
_chemical_formula_sum "Si O2"
_cell_formula_units_Z 40
_cell_length_a 8.547325
_cell_length_b 8.547325
_cell_length_c 22.413248
_cell_angle_alpha 90.000000
_cell_angle_beta 90.000000
_cell_angle_gamma 90.000000
_cell_volume 1637.439384
_symmetry_space_group_name_H-M "P -4 N 2"
_symmetry_group_IT_number 118
_symmetry_cell_setting 'tetragonal'
loop_
_space_group_symop_operation_xyz
x,y,z
y,-x,-z
-x,-y,z
-y,x,-z
1/2+y,1/2+x,1/2-z
1/2-y,1/2-x,1/2-z
1/2-x,1/2+y,1/2+z
1/2+x,1/2-y,1/2+z
loop_
_atom_site_type_symbol
_atom_site_label
_atom_site_fract_x
_atom_site_fract_y
_atom_site_fract_z
Si Si1 0.227726 0.951007 0.771144
Si Si2 0.886403 0.630198 0.894501
Si Si3 0.623806 0.378762 0.602947
Si Si4 0.948452 0.764338 0.721796
Si Si5 0.799896 0.169385 0.503876
O O1 0.401748 0.901748 0.750000
O O2 0.215712 0.958418 0.843143
O O3 0.116944 0.819921 0.741306
O O4 0.186072 0.115373 0.742303
O O5 0.758940 0.556178 0.849714
O O6 0.000000 0.500000 0.923541
O O7 0.005536 0.752777 0.863778
O O8 0.793465 0.723824 0.945597
O O9 0.500000 0.500000 0.571536
O O10 0.713310 0.257833 0.558747
O O11 0.904049 0.595952 0.750000
O O12 0.980275 0.217745 0.494880
#
# Coordination Sequence:
#
# PCOD8310627 Si02
#       5
#     8   8   8   8   8
#     4  11  24  42  72 108 147 196 241 313 393 460
#     4  12  25  45  73 107 145 202 257 318 397 471
#     4  12  25  48  72 110 153 198 260 319 394 479
#     4  11  23  43  67 105 144 185 248 306 380 463
#     4  11  28  48  75 109 152 203 266 334 396 464
#
# _framework density 24.428383
#
# number of rings (size 3 to 8) (size 9 to 14) (size 15 to 20)
#    0.000    0.600    6.000    1.200    5.600    2.000 
#    0.000    0.000    0.000    0.000    0.000    0.000 
#    0.000    0.000    0.000    0.000    0.000    0.000 
#
# Total GULP energy -495556.892005 kJ/mol
# GULP energy per Si atom -12388.922300 kJ/mol
# Density = 2.437278 g / cm^3
# Si number density = 24.428383 Si / 1000 Ang^3
#
#
#
# Elastic Constant Matrix: (Units=GPa)
#
#
# Indices 1 2 3 4 5 6 
#
# 1 61.0869 86.0199 43.5145 0.0000 0.0000 0.0000
# 2 86.0199 61.0904 43.5144 0.0000 0.0000 0.0000
# 3 43.5145 43.5144 149.4369 0.0000 0.0000 0.0000
# 4 0.0000 0.0000 0.0000 31.1095 0.0000 0.0000
# 5 0.0000 0.0000 0.0000 0.0000 31.1093 0.0000
# 6 0.0000 0.0000 0.0000 0.0000 0.0000 54.8714
#
#
#
# Elastic Compliance Matrix: (Units=1/GPa)
#
#
# Indices 1 2 3 4 5 6 
#
# 1 -0.015950 0.024161 -0.002391 0.000000 0.000000 0.000000
# 2 0.024161 -0.015948 -0.002392 0.000000 0.000000 0.000000
# 3 -0.002391 -0.002392 0.008084 0.000000 0.000000 0.000000
# 4 0.000000 0.000000 0.000000 0.032145 0.000000 0.000000
# 5 0.000000 0.000000 0.000000 0.000000 0.032145 0.000000
# 6 0.000000 0.000000 0.000000 0.000000 0.000000 0.018224
#
#
# Mechanical properties :
#
#
# Convention : Reuss Voigt Hill
#
# Bulk Modulus (GPa) = 66.91721 68.63465 67.77593
# Shear Modulus (GPa) = 200.60686 29.98907 115.29796
#
# Velocity S-wave (km/s) = 9.07186 3.50756 6.87756
# Velocity P-wave (km/s) = 11.71257 6.67542 9.53272
#
# Compressibility (1/GPa) = 0.01494384
#
# Stress axis : x y z
#
# Youngs Moduli (GPa) = -62.69776 -62.70252 123.69393
#
# Poissons Ratio (x) = 1.51498 0.29577
# Poissons Ratio (y) = 1.51486 0.29582
# Poissons Ratio (z) = -0.14992 -0.14996
#
# Static dielectric constant tensor:
#      x y z
#    x 4.571970 0.000000 0.000000 
#    y 0.000000 4.571970 0.000000 
#    z 0.000000 0.000000 4.112320 
# 
# 
# High freq. dielectric constant tensor:
#      x y z
#    x 1.984480 0.000000 0.000000 
#    y 0.000000 1.984480 0.000000 
#    z 0.000000 0.000000 1.956430 
# 
# From -- ./inp_files/6053.got.cif
#   From: 2010.03.12/outbox.cif.g09.slc.cpg/sg118_4_cif.got.tgz:6053.got - 2010.04.14 02:21:17.
