data_PCOD8310406
_publ_section_title
;
Structure prediction by ZEFSAII (Michael W. Deem and Ramdas Pophale) SiO2 
 PCOD8310406
Probable space group: P -4 B 2
;
_chemical_formula_sum "Si O2"
_cell_formula_units_Z 56
_cell_length_a 13.916537
_cell_length_b 13.916537
_cell_length_c 13.308417
_cell_angle_alpha 90.000000
_cell_angle_beta 90.000000
_cell_angle_gamma 90.000000
_cell_volume 2577.441148
_symmetry_space_group_name_H-M "P -4 B 2"
_symmetry_group_IT_number 117
_symmetry_cell_setting 'tetragonal'
loop_
_space_group_symop_operation_xyz
x,y,z
y,-x,-z
-x,-y,z
-y,x,-z
1/2+y,1/2+x,-z
1/2-y,1/2-x,-z
1/2-x,1/2+y,z
1/2+x,1/2-y,z
loop_
_atom_site_type_symbol
_atom_site_label
_atom_site_fract_x
_atom_site_fract_y
_atom_site_fract_z
Si Si1 0.655719 0.766802 0.599320
Si Si2 0.084505 0.065665 0.667721
Si Si3 0.613050 0.908750 0.883256
Si Si4 0.460086 0.864846 0.577917
Si Si5 0.713942 0.298893 0.789002
Si Si6 0.618654 0.091512 0.199922
Si Si7 0.325586 0.430704 0.526554
O O1 0.713233 0.786768 0.500000
O O2 0.568167 0.840668 0.612032
O O3 0.726201 0.770232 0.692301
O O4 0.621272 0.658575 0.580781
O O5 0.126740 0.130851 0.756832
O O6 0.034555 0.121026 0.575015
O O7 0.173606 0.010409 0.614923
O O8 0.000000 0.000000 0.715553
O O9 0.711387 0.848888 0.865633
O O10 0.519722 0.861155 0.830211
O O11 0.628156 0.018121 0.845775
O O12 0.589981 0.910020 0.000000
O O13 0.455111 0.955111 0.500000
O O14 0.400809 0.886366 0.679214
O O15 0.411405 0.782193 0.509649
O O16 0.662518 0.204624 0.837520
#
# Coordination Sequence:
#
# PCOD8310406 Si02
#       7
#     8   8   8   8   8   8   8
#     4  12  23  38  58  96 144 185 238 284 329 407
#     4  12  22  36  60  96 141 200 241 268 335 417
#     4  11  28  52  77 105 132 175 238 305 380 450
#     4  12  24  36  59  95 144 191 236 280 336 413
#     4  12  26  45  72 108 137 185 239 299 362 422
#     4  11  24  47  76 102 141 186 236 289 363 441
#     4  12  20  37  58  88 146 200 230 276 331 405
#
# _framework density 21.726974999999999
#
# number of rings (size 3 to 8) (size 9 to 14) (size 15 to 20)
#    0.000    0.286    7.143    2.143    6.000    1.429 
#    0.000    0.000    0.000    0.000    0.000    0.000 
#    0.000    0.000    0.000    0.000    0.000    0.000 
#
# Total GULP energy -693940.264884 kJ/mol
# GULP energy per Si atom -12391.790444 kJ/mol
# Density = 2.167752 g / cm^3
# Si number density = 21.726975 Si / 1000 Ang^3
#
#
#
# Elastic Constant Matrix: (Units=GPa)
#
#
# Indices 1 2 3 4 5 6 
#
# 1 119.6862 75.0019 37.1028 0.0000 0.0000 0.0000
# 2 75.0019 119.6867 37.1030 0.0000 0.0000 0.0000
# 3 37.1028 37.1030 96.8522 0.0000 0.0000 0.0000
# 4 0.0000 0.0000 0.0000 11.2094 0.0000 0.0000
# 5 0.0000 0.0000 0.0000 0.0000 11.2101 0.0000
# 6 0.0000 0.0000 0.0000 0.0000 0.0000 49.6702
#
#
#
# Elastic Compliance Matrix: (Units=1/GPa)
#
#
# Indices 1 2 3 4 5 6 
#
# 1 0.014197 -0.008182 -0.002304 0.000000 0.000000 0.000000
# 2 -0.008182 0.014197 -0.002304 0.000000 0.000000 0.000000
# 3 -0.002304 -0.002304 0.012090 0.000000 0.000000 0.000000
# 4 0.000000 0.000000 0.000000 0.089211 0.000000 0.000000
# 5 0.000000 0.000000 0.000000 0.000000 0.089206 0.000000
# 6 0.000000 0.000000 0.000000 0.000000 0.000000 0.020133
#
#
# Mechanical properties :
#
#
# Convention : Reuss Voigt Hill
#
# Bulk Modulus (GPa) = 67.10003 70.51561 68.80782
# Shear Modulus (GPa) = 18.54722 26.88576 22.71649
#
# Velocity S-wave (km/s) = 2.92490 3.52154 3.23699
# Velocity P-wave (km/s) = 6.50823 7.00434 6.76084
#
# Compressibility (1/GPa) = 0.01490312
#
# Stress axis : x y z
#
# Youngs Moduli (GPa) = 70.43793 70.43815 82.71033
#
# Poissons Ratio (x) = 0.57634 0.19057
# Poissons Ratio (y) = 0.57634 0.19058
# Poissons Ratio (z) = 0.16230 0.16230
#
# Static dielectric constant tensor:
#      x y z
#    x 4.274460 0.000000 0.000000 
#    y 0.000000 4.274470 0.000000 
#    z 0.000000 0.000000 3.559070 
# 
# 
# High freq. dielectric constant tensor:
#      x y z
#    x 1.869710 0.000000 0.000000 
#    y 0.000000 1.869710 0.000000 
#    z 0.000000 0.000000 1.809230 
# 
# From -- ./inp_files/2876.got.cif
#   From: 2010.03.12/outbox.cif.g09.slc.cpg/sg117_2_cif.got.tgz:2876.got - 2010.04.14 02:19:01.
