data_PCOD8310445
_publ_section_title
;
Structure prediction by ZEFSAII (Michael W. Deem and Ramdas Pophale) SiO2 
 PCOD8310445
Probable space group: P -4 N 2
;
_chemical_formula_sum "Si O2"
_cell_formula_units_Z 64
_cell_length_a 14.768816
_cell_length_b 14.768816
_cell_length_c 16.767289
_cell_angle_alpha 90.000000
_cell_angle_beta 90.000000
_cell_angle_gamma 90.000000
_cell_volume 3657.246302
_symmetry_space_group_name_H-M "P -4 N 2"
_symmetry_group_IT_number 118
_symmetry_cell_setting 'tetragonal'
loop_
_space_group_symop_operation_xyz
x,y,z
y,-x,-z
-x,-y,z
-y,x,-z
1/2+y,1/2+x,1/2-z
1/2-y,1/2-x,1/2-z
1/2-x,1/2+y,1/2+z
1/2+x,1/2-y,1/2+z
loop_
_atom_site_type_symbol
_atom_site_label
_atom_site_fract_x
_atom_site_fract_y
_atom_site_fract_z
Si Si1 0.120167 0.140261 0.659232
Si Si2 0.936165 0.712750 0.961896
Si Si3 0.331308 0.168694 0.839626
Si Si4 0.287249 0.936164 0.461897
Si Si5 0.072944 0.572944 0.014028
Si Si6 0.119560 0.984121 0.955725
Si Si7 0.880442 0.015883 0.544276
Si Si8 0.120168 0.140265 0.840768
O O1 0.226156 0.152419 0.647783
O O2 0.069249 0.223339 0.615721
O O3 0.098881 0.040448 0.624257
O O4 0.087884 0.142757 0.750000
O O5 0.844872 0.655129 0.972366
O O6 0.930753 0.776659 0.884278
O O7 0.024329 0.648047 0.958276
O O8 0.947960 0.777554 0.039485
O O9 0.361013 0.138988 0.750000
O O10 0.386432 0.113564 0.905251
O O11 0.226156 0.152432 0.852214
O O12 0.351950 0.024329 0.458278
O O13 0.222444 0.947956 0.539487
O O14 0.000000 0.500000 0.043945
O O15 0.098886 0.040451 0.875744
O O16 0.100267 0.050727 0.033199
O O17 0.899731 0.949275 0.466802
#
# Coordination Sequence:
#
# PCOD8310445 Si02
#       8
#     8   8   8   8   8   8   8   8
#     4  10  19  33  55  79 103 132 173 217 263 309
#     4  10  19  32  50  73 105 140 175 212 251 309
#     4  10  18  31  52  78 103 132 174 219 259 307
#     4  10  19  32  50  73 105 140 175 212 251 309
#     4  10  20  33  49  76 109 140 177 213 257 309
#     4   9  18  33  52  77 103 127 172 215 259 310
#     4   9  18  33  52  77 103 127 172 215 259 310
#     4  10  19  33  55  79 103 132 173 217 263 309
#
# _framework density 17.499506
#
# number of rings (size 3 to 8) (size 9 to 14) (size 15 to 20)
#    0.000    2.250    3.750    0.000    0.000    0.250 
#    0.000   10.625    0.000    3.000    0.000    0.000 
#    0.000    0.000    0.000    0.000    0.000    0.000 
#
# Total GULP energy -792885.444284 kJ/mol
# GULP energy per Si atom -12388.835067 kJ/mol
# Density = 1.745968 g / cm^3
# Si number density = 17.499506 Si / 1000 Ang^3
#
#
#
# Elastic Constant Matrix: (Units=GPa)
#
#
# Indices 1 2 3 4 5 6 
#
# 1 68.6578 43.7107 46.1112 0.0000 0.0000 0.0000
# 2 43.7107 68.6577 46.1116 0.0000 0.0000 0.0000
# 3 46.1112 46.1116 117.0980 0.0000 0.0000 0.0000
# 4 0.0000 0.0000 0.0000 22.1439 0.0000 0.0000
# 5 0.0000 0.0000 0.0000 0.0000 22.1439 0.0000
# 6 0.0000 0.0000 0.0000 0.0000 0.0000 25.4146
#
#
#
# Elastic Compliance Matrix: (Units=1/GPa)
#
#
# Indices 1 2 3 4 5 6 
#
# 1 0.026617 -0.013468 -0.005178 0.000000 0.000000 0.000000
# 2 -0.013468 0.026617 -0.005178 0.000000 0.000000 0.000000
# 3 -0.005178 -0.005178 0.012618 0.000000 0.000000 0.000000
# 4 0.000000 0.000000 0.000000 0.045159 0.000000 0.000000
# 5 0.000000 0.000000 0.000000 0.000000 0.045159 0.000000
# 6 0.000000 0.000000 0.000000 0.000000 0.000000 0.039347
#
#
# Mechanical properties :
#
#
# Convention : Reuss Voigt Hill
#
# Bulk Modulus (GPa) = 54.93253 58.47561 56.70407
# Shear Modulus (GPa) = 20.06159 21.83916 20.95038
#
# Velocity S-wave (km/s) = 3.38954 3.53652 3.46381
# Velocity P-wave (km/s) = 6.83942 7.08266 6.96210
#
# Compressibility (1/GPa) = 0.01820415
#
# Stress axis : x y z
#
# Youngs Moduli (GPa) = 37.57036 37.57006 79.25354
#
# Poissons Ratio (x) = 0.50599 0.41035
# Poissons Ratio (y) = 0.50600 0.41037
# Poissons Ratio (z) = 0.19453 0.19453
#
# Static dielectric constant tensor:
#      x y z
#    x 3.436930 0.000000 0.000000 
#    y 0.000000 3.436930 0.000000 
#    z 0.000000 0.000000 3.099750 
# 
# 
# High freq. dielectric constant tensor:
#      x y z
#    x 1.685240 0.000000 0.000000 
#    y 0.000000 1.685240 0.000000 
#    z 0.000000 0.000000 1.641960 
# 
# From -- ./inp_files/5051.got.cif
#   From: 2010.03.12/outbox.cif.g09.slc.cpg/sg118_3_cif.got.tgz:5051.got - 2010.04.14 02:21:17.
