data_PCOD8310873
_publ_section_title
;
Structure prediction by ZEFSAII (Michael W. Deem and Ramdas Pophale) SiO2 
 PCOD8310873
Probable space group: I -4 M 2
;
_chemical_formula_sum "Si O2"
_cell_formula_units_Z 64
_cell_length_a 14.959768
_cell_length_b 14.959768
_cell_length_c 13.968902
_cell_angle_alpha 90.000000
_cell_angle_beta 90.000000
_cell_angle_gamma 90.000000
_cell_volume 3126.165654
_symmetry_space_group_name_H-M "I -4 M 2"
_symmetry_group_IT_number 119
_symmetry_cell_setting 'tetragonal'
loop_
_space_group_symop_operation_xyz
x,y,z
y,-x,-z
-x,-y,z
-y,x,-z
y,x,-z
-y,-x,-z
-x,y,z
x,-y,z
1/2+x,1/2+y,1/2+z
1/2+y,1/2-x,1/2-z
1/2-x,1/2-y,1/2+z
1/2-y,1/2+x,1/2-z
1/2+y,1/2+x,1/2-z
1/2-y,1/2-x,1/2-z
1/2-x,1/2+y,1/2+z
1/2+x,1/2-y,1/2+z
loop_
_atom_site_type_symbol
_atom_site_label
_atom_site_fract_x
_atom_site_fract_y
_atom_site_fract_z
Si Si1 0.101004 0.898013 0.298649
Si Si2 0.752818 0.775645 0.639728
Si Si3 0.320177 0.399617 0.590262
Si Si4 0.901080 0.399830 0.135928
O O1 0.168020 0.844284 0.369379
O O2 0.122516 0.885889 0.186534
O O3 0.000000 0.862774 0.314132
O O4 0.110203 0.000000 0.330417
O O5 0.734276 0.765725 0.750000
O O6 0.757661 0.677310 0.590294
O O7 0.670623 0.830711 0.591961
O O8 0.385659 0.385659 0.500000
O O9 0.278933 0.500000 0.587248
O O10 0.879530 0.500000 0.099665
O O11 0.897716 0.397716 0.250000
O O12 0.000000 0.370619 0.100777
#
# Coordination Sequence:
#
# PCOD8310873 Si02
#       4
#    16  16  16  16
#     4   9  17  30  51  78 103 128 163 207 252 297
#     4   9  17  28  45  68  95 129 167 206 243 288
#     4  10  20  32  47  71 105 140 167 198 248 306
#     4   8  13  21  35  58  88 119 150 187 234 286
#
# _framework density 20.472363999999999
#
# number of rings (size 3 to 8) (size 9 to 14) (size 15 to 20)
#    0.000    3.000    0.000    2.250    0.000    8.250 
#    0.000    0.000    0.000    3.750    0.000    7.000 
#    0.000    0.000    0.000    0.000    0.000    0.000 
#
# Total GULP energy -396446.579842 kJ/mol
# GULP energy per Si atom -12388.955620 kJ/mol
# Density = 2.042577 g / cm^3
# Si number density = 20.472364 Si / 1000 Ang^3
#
#
#
# Elastic Constant Matrix: (Units=GPa)
#
#
# Indices 1 2 3 4 5 6 
#
# 1 142.4582 92.2122 28.3447 0.0000 0.0000 0.0000
# 2 92.2122 142.4580 28.3447 0.0000 0.0000 0.0000
# 3 28.3447 28.3447 33.7962 0.0000 0.0000 0.0000
# 4 0.0000 0.0000 0.0000 10.9417 0.0000 0.0000
# 5 0.0000 0.0000 0.0000 0.0000 10.9417 0.0000
# 6 0.0000 0.0000 0.0000 0.0000 0.0000 24.8498
#
#
#
# Elastic Compliance Matrix: (Units=1/GPa)
#
#
# Indices 1 2 3 4 5 6 
#
# 1 0.012623 -0.007279 -0.004482 0.000000 0.000000 0.000000
# 2 -0.007279 0.012623 -0.004482 0.000000 0.000000 0.000000
# 3 -0.004482 -0.004482 0.037107 0.000000 0.000000 0.000000
# 4 0.000000 0.000000 0.000000 0.091393 0.000000 0.000000
# 5 0.000000 0.000000 0.000000 0.000000 0.091393 0.000000
# 6 0.000000 0.000000 0.000000 0.000000 0.000000 0.040242
#
#
# Mechanical properties :
#
#
# Convention : Reuss Voigt Hill
#
# Bulk Modulus (GPa) = 33.48153 68.50174 50.99163
# Shear Modulus (GPa) = 15.25211 20.66737 17.95974
#
# Velocity S-wave (km/s) = 2.73245 3.18075 2.96508
# Velocity P-wave (km/s) = 5.13274 6.85732 6.05672
#
# Compressibility (1/GPa) = 0.02986721
#
# Stress axis : x y z
#
# Youngs Moduli (GPa) = 79.22006 79.21996 26.94898
#
# Poissons Ratio (x) = 0.57665 0.12079
# Poissons Ratio (y) = 0.57665 0.12078
# Poissons Ratio (z) = 0.35507 0.35506
#
# Static dielectric constant tensor:
#      x y z
#    x 4.083610 0.000000 0.000000 
#    y 0.000000 4.083590 0.000000 
#    z 0.000000 0.000000 3.359540 
# 
# 
# High freq. dielectric constant tensor:
#      x y z
#    x 1.796290 0.000000 0.000000 
#    y 0.000000 1.796290 0.000000 
#    z 0.000000 0.000000 1.757280 
# 
# From -- ./inp_files/5053.got.cif
#   From: 2010.03.12/outbox.cif.g09.slc.cpg/sg119_3_cif.got.tgz:5053.got - 2010.04.14 02:25:26.
