data_PCOD8310988
_publ_section_title
;
Structure prediction by ZEFSAII (Michael W. Deem and Ramdas Pophale) SiO2 
 PCOD8310988
Probable space group: I -4 M 2
;
_chemical_formula_sum "Si O2"
_cell_formula_units_Z 96
_cell_length_a 26.210674
_cell_length_b 26.210674
_cell_length_c 7.779502
_cell_angle_alpha 90.000000
_cell_angle_beta 90.000000
_cell_angle_gamma 90.000000
_cell_volume 5344.513452
_symmetry_space_group_name_H-M "I -4 M 2"
_symmetry_group_IT_number 119
_symmetry_cell_setting 'tetragonal'
loop_
_space_group_symop_operation_xyz
x,y,z
y,-x,-z
-x,-y,z
-y,x,-z
y,x,-z
-y,-x,-z
-x,y,z
x,-y,z
1/2+x,1/2+y,1/2+z
1/2+y,1/2-x,1/2-z
1/2-x,1/2-y,1/2+z
1/2-y,1/2+x,1/2-z
1/2+y,1/2+x,1/2-z
1/2-y,1/2-x,1/2-z
1/2-x,1/2+y,1/2+z
1/2+x,1/2-y,1/2+z
loop_
_atom_site_type_symbol
_atom_site_label
_atom_site_fract_x
_atom_site_fract_y
_atom_site_fract_z
Si Si1 0.173161 0.390960 0.131237
Si Si2 0.058207 0.360468 0.688902
Si Si3 0.559307 0.730120 0.829704
Si Si4 0.788736 0.291669 0.545840
Si Si5 0.058989 0.755085 0.726380
Si Si6 0.375110 0.293728 0.527184
O O1 0.128869 0.371132 0.250000
O O2 0.213402 0.425098 0.237767
O O3 0.145172 0.431885 0.011948
O O4 0.203150 0.344719 0.035290
O O5 0.096347 0.403654 0.750000
O O6 0.070342 0.304547 0.768210
O O7 0.000000 0.376991 0.725198
O O8 0.500000 0.718315 0.800705
O O9 0.593194 0.695353 0.703199
O O10 0.574725 0.728222 0.031831
O O11 0.763171 0.236830 0.500000
O O12 0.795460 0.295460 0.750000
O O13 0.754189 0.336369 0.463099
O O14 0.088709 0.788737 0.862585
O O15 0.000000 0.766698 0.750743
O O16 0.345458 0.345458 0.500000
#
# Coordination Sequence:
#
# PCOD8310988 Si02
#       6
#    16  16  16  16  16  16
#     4  11  19  34  54  76 104 136 183 227 270 328
#     4  10  21  37  56  76  98 133 181 234 287 335
#     4  10  21  37  56  78 107 146 190 232 273 322
#     4  11  22  33  49  75 112 149 182 224 270 329
#     4   9  19  37  57  79 109 146 187 231 276 329
#     4  11  22  34  52  82 113 149 187 224 275 332
#
# _framework density 17.962347000000001
#
# number of rings (size 3 to 8) (size 9 to 14) (size 15 to 20)
#    0.000    1.667    1.667    6.000    2.333    0.833 
#    0.000    0.833    0.000    0.000    0.000    0.000 
#    0.000    5.333    0.000   14.667    0.667    0.000 
#
# Total GULP energy -594794.768666 kJ/mol
# GULP energy per Si atom -12391.557681 kJ/mol
# Density = 1.792146 g / cm^3
# Si number density = 17.962347 Si / 1000 Ang^3
#
#
#
# Elastic Constant Matrix: (Units=GPa)
#
#
# Indices 1 2 3 4 5 6 
#
# 1 129.1326 -2.2826 40.4990 0.0000 0.0000 0.0000
# 2 -2.2826 129.1606 40.5712 0.0000 0.0000 0.0000
# 3 40.4990 40.5712 70.8726 0.0000 0.0000 0.0000
# 4 0.0000 0.0000 0.0000 29.4796 0.0000 0.0000
# 5 0.0000 0.0000 0.0000 0.0000 29.4691 0.0000
# 6 0.0000 0.0000 0.0000 0.0000 0.0000 25.9753
#
#
#
# Elastic Compliance Matrix: (Units=1/GPa)
#
#
# Indices 1 2 3 4 5 6 
#
# 1 0.010013 0.002407 -0.007100 0.000000 0.000000 0.000000
# 2 0.002407 0.010018 -0.007111 0.000000 0.000000 0.000000
# 3 -0.007100 -0.007111 0.022237 0.000000 0.000000 0.000000
# 4 0.000000 0.000000 0.000000 0.033922 0.000000 0.000000
# 5 0.000000 0.000000 0.000000 0.000000 0.033934 0.000000
# 6 0.000000 0.000000 0.000000 0.000000 0.000000 0.038498
#
#
# Mechanical properties :
#
#
# Convention : Reuss Voigt Hill
#
# Bulk Modulus (GPa) = 53.58370 54.08234 53.83302
# Shear Modulus (GPa) = 28.01902 33.67666 30.84784
#
# Velocity S-wave (km/s) = 3.95381 4.33465 4.14860
# Velocity P-wave (km/s) = 7.12316 7.43144 7.27893
#
# Compressibility (1/GPa) = 0.01866239
#
# Stress axis : x y z
#
# Youngs Moduli (GPa) = 99.86799 99.81659 44.96925
#
# Poissons Ratio (x) = -0.24027 0.31928
# Poissons Ratio (y) = -0.24040 0.31976
# Poissons Ratio (z) = 0.70905 0.70975
#
# Static dielectric constant tensor:
#      x y z
#    x 3.228140 0.000000 0.000000 
#    y 0.000000 3.228180 0.000000 
#    z 0.000000 0.000000 1.580900 
# 
# 
# High freq. dielectric constant tensor:
#      x y z
#    x 1.677110 0.000000 0.000000 
#    y 0.000000 1.677110 0.000000 
#    z 0.000000 0.000000 1.704510 
# 
# From -- ./inp_files/2725.got.cif
#   From: 2010.03.12/outbox.cif.g09.slc.cpg/sg119_2_cif.got.tgz:2725.got - 2010.04.14 02:25:26.
