data_PCOD8310373
_publ_section_title
;
Structure prediction by ZEFSAII (Michael W. Deem and Ramdas Pophale) SiO2 
 PCOD8310373
Probable space group: P -4 B 2
;
_chemical_formula_sum "Si O2"
_cell_formula_units_Z 64
_cell_length_a 19.435007
_cell_length_b 19.435007
_cell_length_c 9.992570
_cell_angle_alpha 90.000000
_cell_angle_beta 90.000000
_cell_angle_gamma 90.000000
_cell_volume 3774.388515
_symmetry_space_group_name_H-M "P -4 B 2"
_symmetry_group_IT_number 117
_symmetry_cell_setting 'tetragonal'
loop_
_space_group_symop_operation_xyz
x,y,z
y,-x,-z
-x,-y,z
-y,x,-z
1/2+y,1/2+x,-z
1/2-y,1/2-x,-z
1/2-x,1/2+y,z
1/2+x,1/2-y,z
loop_
_atom_site_type_symbol
_atom_site_label
_atom_site_fract_x
_atom_site_fract_y
_atom_site_fract_z
Si Si1 0.000900 0.110786 0.020613
Si Si2 0.755041 0.858049 0.151802
Si Si3 0.754409 0.632969 0.845476
Si Si4 0.505468 0.704089 0.266084
Si Si5 0.136880 0.257828 0.839609
Si Si6 0.296328 0.499067 0.227925
Si Si7 0.386957 0.499256 0.482084
Si Si8 0.752350 0.855898 0.839749
O O1 0.011518 0.172827 0.919548
O O2 0.989646 0.138096 0.169702
O O3 0.068956 0.065245 0.026067
O O4 0.822806 0.813864 0.186280
O O5 0.755974 0.928611 0.236643
O O6 0.686702 0.816657 0.192970
O O7 0.754374 0.876321 0.995251
O O8 0.750864 0.560657 0.768257
O O9 0.821437 0.674329 0.794023
O O10 0.760907 0.621300 0.003117
O O11 0.500200 0.677174 0.416890
O O12 0.575025 0.748758 0.249101
O O13 0.181349 0.190161 0.804839
O O14 0.065758 0.255380 0.755085
O O15 0.357647 0.496605 0.333278
O O16 0.431629 0.567862 0.495613
#
# Coordination Sequence:
#
# PCOD8310373 Si02
#       8
#     8   8   8   8   8   8   8   8
#     4  11  20  28  46  74  96 121 168 210 238 299
#     4   9  17  30  50  76 101 126 166 220 266 303
#     4   9  17  30  50  76 101 126 166 220 266 303
#     4  12  20  33  52  71  99 140 173 204 257 306
#     4   9  17  30  50  76 101 126 166 220 266 303
#     4  12  20  33  52  71  99 140 173 204 257 306
#     4  11  24  36  46  70 112 147 168 202 254 309
#     4   9  17  30  50  76 101 126 166 220 266 303
#
# _framework density 16.956389000000001
#
# number of rings (size 3 to 8) (size 9 to 14) (size 15 to 20)
#    0.000    1.750    2.500    6.000    0.000    2.000 
#    0.000    1.250    0.000    5.250    0.000    3.500 
#    0.000    2.000    0.000    0.000    0.000    0.000 
#
# Total GULP energy -793658.367034 kJ/mol
# GULP energy per Si atom -12400.911985 kJ/mol
# Density = 1.691780 g / cm^3
# Si number density = 16.956389 Si / 1000 Ang^3
#
#
#
# Elastic Constant Matrix: (Units=GPa)
#
#
# Indices 1 2 3 4 5 6 
#
# 1 98.4852 44.1055 18.5646 0.0000 0.0000 0.0000
# 2 44.1055 98.4852 18.5646 0.0000 0.0000 0.0000
# 3 18.5646 18.5646 31.5159 0.0000 0.0000 0.0000
# 4 0.0000 0.0000 0.0000 21.5500 0.0000 0.0000
# 5 0.0000 0.0000 0.0000 0.0000 21.5500 0.0000
# 6 0.0000 0.0000 0.0000 0.0000 0.0000 -14.5497
#
#
#
# Elastic Compliance Matrix: (Units=1/GPa)
#
#
# Indices 1 2 3 4 5 6 
#
# 1 0.013336 -0.005053 -0.004880 0.000000 0.000000 0.000000
# 2 -0.005053 0.013336 -0.004880 0.000000 0.000000 0.000000
# 3 -0.004880 -0.004880 0.037479 0.000000 0.000000 0.000000
# 4 0.000000 0.000000 0.000000 0.046404 0.000000 0.000000
# 5 0.000000 0.000000 0.000000 0.000000 0.046404 0.000000
# 6 0.000000 0.000000 0.000000 0.000000 0.000000 -0.068730
#
#
# Mechanical properties :
#
#
# Convention : Reuss Voigt Hill
#
# Bulk Modulus (GPa) = 28.96215 43.43950 36.20082
# Shear Modulus (GPa) = 38.65130 15.52684 27.08907
#
# Velocity S-wave (km/s) = 4.77954 3.02932 4.00130
# Velocity P-wave (km/s) = 6.89755 6.15709 6.53781
#
# Compressibility (1/GPa) = 0.03452783
#
# Stress axis : x y z
#
# Youngs Moduli (GPa) = 74.98253 74.98253 26.68188
#
# Poissons Ratio (x) = 0.37887 0.13020
# Poissons Ratio (y) = 0.37887 0.13020
# Poissons Ratio (z) = 0.36588 0.36588
#
# Static dielectric constant tensor:
#      x y z
#    x 3.210680 0.000000 0.000000 
#    y 0.000000 3.210680 0.000000 
#    z 0.000000 0.000000 2.939450 
# 
# 
# High freq. dielectric constant tensor:
#      x y z
#    x 1.645790 0.000000 0.000000 
#    y 0.000000 1.645790 0.000000 
#    z 0.000000 0.000000 1.625240 
# 
# From -- ./inp_files/2175.got.cif
#   From: 2010.03.12/outbox.cif.g09.slc.cpg/sg117_2_cif.got.tgz:2175.got - 2010.04.14 02:19:01.
