data_PCOD8310491
_publ_section_title
;
Structure prediction by ZEFSAII (Michael W. Deem and Ramdas Pophale) SiO2 
 PCOD8310491
Probable space group: P -4 N 2
;
_chemical_formula_sum "Si O2"
_cell_formula_units_Z 48
_cell_length_a 8.580191
_cell_length_b 8.580191
_cell_length_c 31.572343
_cell_angle_alpha 90.000000
_cell_angle_beta 90.000000
_cell_angle_gamma 90.000000
_cell_volume 2324.345713
_symmetry_space_group_name_H-M "P -4 N 2"
_symmetry_group_IT_number 118
_symmetry_cell_setting 'tetragonal'
loop_
_space_group_symop_operation_xyz
x,y,z
y,-x,-z
-x,-y,z
-y,x,-z
1/2+y,1/2+x,1/2-z
1/2-y,1/2-x,1/2-z
1/2-x,1/2+y,1/2+z
1/2+x,1/2-y,1/2+z
loop_
_atom_site_type_symbol
_atom_site_label
_atom_site_fract_x
_atom_site_fract_y
_atom_site_fract_z
Si Si1 0.059621 0.666245 0.412891
Si Si2 0.229431 0.110937 0.991591
Si Si3 0.747040 0.329263 0.929326
Si Si4 0.349899 0.107571 0.297158
Si Si5 0.178351 0.044815 0.135357
Si Si6 0.244693 0.893098 0.364230
O O1 0.205738 0.639896 0.444401
O O2 0.107058 0.768229 0.371494
O O3 0.000000 0.500000 0.395970
O O4 0.925558 0.762313 0.436475
O O5 0.357526 0.176943 0.024651
O O6 0.070914 0.205821 0.999188
O O7 0.850266 0.195458 0.906311
O O8 0.747806 0.489332 0.903756
O O9 0.324946 0.175055 0.250000
O O10 0.356464 0.266165 0.324044
O O11 0.500000 0.000000 0.297841
O O12 0.222528 0.991011 0.319998
O O13 0.296093 0.902118 0.133701
O O14 0.000000 0.000000 0.141139
#
# Coordination Sequence:
#
# PCOD8310491 Si02
#       6
#     8   8   8   8   8   8
#     4  12  24  40  57  88 119 165 217 268 328 385
#     4  11  25  41  60  84 114 164 214 271 313 375
#     4  11  23  39  59  83 119 158 210 264 326 377
#     4   8  16  35  62  94 123 157 204 254 318 391
#     4  10  20  36  63  90 115 160 204 259 309 387
#     4  10  22  39  62  87 123 164 207 265 317 386
#
# _framework density 20.650971999999999
#
# number of rings (size 3 to 8) (size 9 to 14) (size 15 to 20)
#    0.000    1.667    1.667    4.000    4.667    1.333 
#    0.000    3.333    0.000    0.000    0.000    8.167 
#    0.000    1.333    0.000    0.000    0.000    0.000 
#
# Total GULP energy -594784.187732 kJ/mol
# GULP energy per Si atom -12391.337244 kJ/mol
# Density = 2.060397 g / cm^3
# Si number density = 20.650972 Si / 1000 Ang^3
#
#
#
# Elastic Constant Matrix: (Units=GPa)
#
#
# Indices 1 2 3 4 5 6 
#
# 1 104.2851 34.9480 37.6880 0.0000 0.0000 0.0000
# 2 34.9480 104.2850 37.6880 0.0000 0.0000 0.0000
# 3 37.6880 37.6880 104.8563 0.0000 0.0000 0.0000
# 4 0.0000 0.0000 0.0000 17.7283 0.0000 0.0000
# 5 0.0000 0.0000 0.0000 0.0000 17.7282 0.0000
# 6 0.0000 0.0000 0.0000 0.0000 0.0000 37.6911
#
#
#
# Elastic Compliance Matrix: (Units=1/GPa)
#
#
# Indices 1 2 3 4 5 6 
#
# 1 0.011670 -0.002752 -0.003205 0.000000 0.000000 0.000000
# 2 -0.002752 0.011670 -0.003205 0.000000 0.000000 0.000000
# 3 -0.003205 -0.003205 0.011841 0.000000 0.000000 0.000000
# 4 0.000000 0.000000 0.000000 0.056407 0.000000 0.000000
# 5 0.000000 0.000000 0.000000 0.000000 0.056407 0.000000
# 6 0.000000 0.000000 0.000000 0.000000 0.000000 0.026531
#
#
# Mechanical properties :
#
#
# Convention : Reuss Voigt Hill
#
# Bulk Modulus (GPa) = 59.32933 59.34162 59.33547
# Shear Modulus (GPa) = 25.19271 28.16967 26.68119
#
# Velocity S-wave (km/s) = 3.49654 3.69736 3.59835
# Velocity P-wave (km/s) = 6.71513 6.85749 6.78668
#
# Compressibility (1/GPa) = 0.01685507
#
# Stress axis : x y z
#
# Youngs Moduli (GPa) = 85.69108 85.69104 84.45326
#
# Poissons Ratio (x) = 0.23586 0.27068
# Poissons Ratio (y) = 0.23586 0.27068
# Poissons Ratio (z) = 0.27465 0.27465
#
# Static dielectric constant tensor:
#      x y z
#    x 4.192500 0.000000 0.000000 
#    y 0.000000 4.192490 0.000000 
#    z 0.000000 0.000000 4.192560 
# 
# 
# High freq. dielectric constant tensor:
#      x y z
#    x 1.807390 0.000000 0.000000 
#    y 0.000000 1.807390 0.000000 
#    z 0.000000 0.000000 1.787890 
# 
# From -- ./inp_files/6867.got.cif
#   From: 2010.03.12/outbox.cif.g09.slc.cpg/sg118_4_cif.got.tgz:6867.got - 2010.04.14 02:21:17.
