data_PCOD8310728
_publ_section_title
;
Structure prediction by ZEFSAII (Michael W. Deem and Ramdas Pophale) SiO2 
 PCOD8310728
Probable space group: I -4 M 2
;
_chemical_formula_sum "Si O2"
_cell_formula_units_Z 112
_cell_length_a 14.877774
_cell_length_b 14.877774
_cell_length_c 25.441246
_cell_angle_alpha 90.000000
_cell_angle_beta 90.000000
_cell_angle_gamma 90.000000
_cell_volume 5631.372970
_symmetry_space_group_name_H-M "I -4 M 2"
_symmetry_group_IT_number 119
_symmetry_cell_setting 'tetragonal'
loop_
_space_group_symop_operation_xyz
x,y,z
y,-x,-z
-x,-y,z
-y,x,-z
y,x,-z
-y,-x,-z
-x,y,z
x,-y,z
1/2+x,1/2+y,1/2+z
1/2+y,1/2-x,1/2-z
1/2-x,1/2-y,1/2+z
1/2-y,1/2+x,1/2-z
1/2+y,1/2+x,1/2-z
1/2-y,1/2-x,1/2-z
1/2-x,1/2+y,1/2+z
1/2+x,1/2-y,1/2+z
loop_
_atom_site_type_symbol
_atom_site_label
_atom_site_fract_x
_atom_site_fract_y
_atom_site_fract_z
Si Si1 0.607077 0.719336 0.646173
Si Si2 0.900103 0.106470 0.356237
Si Si3 0.206932 0.898922 0.456361
Si Si4 0.360279 0.898489 0.014799
Si Si5 0.597489 0.895262 0.893971
Si Si6 0.106900 0.100680 0.240911
Si Si7 0.340529 0.596750 0.551329
O O1 0.500000 0.717871 0.646980
O O2 0.643315 0.822707 0.643319
O O3 0.646956 0.668772 0.697144
O O4 0.638767 0.672614 0.593052
O O5 0.830027 0.138442 0.400596
O O6 0.866003 0.138480 0.298569
O O7 0.000000 0.144997 0.368971
O O8 0.905875 0.000000 0.353542
O O9 0.169688 0.830313 0.500000
O O10 0.315903 0.905365 0.453479
O O11 0.169770 0.000000 0.466872
O O12 0.256735 0.890393 0.026792
O O13 0.396407 0.000000 0.029565
O O14 0.378475 0.877697 0.954223
O O15 0.500000 0.850433 0.880554
O O16 0.589918 0.000000 0.883315
O O17 0.000000 0.096797 0.236771
O O18 0.145692 0.000000 0.231042
O O19 0.403455 0.596546 0.500000
O O20 0.351550 0.500000 0.579567
#
# Coordination Sequence:
#
# PCOD8310728 Si02
#       7
#    16  16  16  16  16  16  16
#     4  10  18  28  46  76 108 143 186 229 273 330
#     4   8  15  30  51  77 114 151 178 216 275 339
#     4  11  22  34  55  86 115 146 183 230 283 337
#     4  10  21  37  52  71 106 151 193 228 268 326
#     4   9  17  30  47  67  98 144 191 230 269 312
#     4   8  14  26  46  74 110 149 182 213 262 338
#     4  11  20  30  45  69 107 148 179 223 279 329
#
# _framework density 19.888577000000002
#
# number of rings (size 3 to 8) (size 9 to 14) (size 15 to 20)
#    0.000    2.429    1.429    3.000    0.000    3.143 
#    0.000    0.000    0.000    0.857    0.000    1.000 
#    0.000    4.571    0.000   15.714    0.000    0.000 
#
# Total GULP energy -693772.450576 kJ/mol
# GULP energy per Si atom -12388.793760 kJ/mol
# Density = 1.984331 g / cm^3
# Si number density = 19.888577 Si / 1000 Ang^3
#
#
#
# Elastic Constant Matrix: (Units=GPa)
#
#
# Indices 1 2 3 4 5 6 
#
# 1 92.1158 18.6779 53.7738 0.0000 0.0000 0.0000
# 2 18.6779 92.1199 53.7743 0.0000 0.0000 0.0000
# 3 53.7738 53.7743 142.9796 0.0000 0.0000 0.0000
# 4 0.0000 0.0000 0.0000 14.3229 0.0000 0.0000
# 5 0.0000 0.0000 0.0000 0.0000 14.3235 0.0000
# 6 0.0000 0.0000 0.0000 0.0000 0.0000 11.7334
#
#
#
# Elastic Compliance Matrix: (Units=1/GPa)
#
#
# Indices 1 2 3 4 5 6 
#
# 1 0.013916 0.000299 -0.005346 0.000000 0.000000 0.000000
# 2 0.000299 0.013916 -0.005346 0.000000 0.000000 0.000000
# 3 -0.005346 -0.005346 0.011015 0.000000 0.000000 0.000000
# 4 0.000000 0.000000 0.000000 0.069818 0.000000 0.000000
# 5 0.000000 0.000000 0.000000 0.000000 0.069816 0.000000
# 6 0.000000 0.000000 0.000000 0.000000 0.000000 0.085227
#
#
# Mechanical properties :
#
#
# Convention : Reuss Voigt Hill
#
# Bulk Modulus (GPa) = 55.36884 64.40748 59.88816
# Shear Modulus (GPa) = 17.21084 21.47524 19.34304
#
# Velocity S-wave (km/s) = 2.94490 3.28956 3.12199
# Velocity P-wave (km/s) = 6.28197 6.84710 6.57061
#
# Compressibility (1/GPa) = 0.01806070
#
# Stress axis : x y z
#
# Youngs Moduli (GPa) = 71.85847 71.86230 90.78180
#
# Poissons Ratio (x) = -0.02151 0.48535
# Poissons Ratio (y) = -0.02151 0.48533
# Poissons Ratio (z) = 0.38418 0.38419
#
# Static dielectric constant tensor:
#      x y z
#    x 3.746000 0.000000 0.000000 
#    y 0.000000 3.746000 0.000000 
#    z 0.000000 0.000000 3.704690 
# 
# 
# High freq. dielectric constant tensor:
#      x y z
#    x 1.764010 0.000000 0.000000 
#    y 0.000000 1.764010 0.000000 
#    z 0.000000 0.000000 1.755470 
# 
# From -- ./inp_files/8806.got.cif
#   From: 2010.03.12/outbox.cif.g09.slc.cpg/sg119_5_cif.got.tgz:8806.got - 2010.04.14 02:25:26.
