data_PCOD8310394
_publ_section_title
;
Structure prediction by ZEFSAII (Michael W. Deem and Ramdas Pophale) SiO2 
 PCOD8310394
Probable space group: P -4 B 2
;
_chemical_formula_sum "Si O2"
_cell_formula_units_Z 40
_cell_length_a 15.089687
_cell_length_b 15.089687
_cell_length_c 8.664489
_cell_angle_alpha 90.000000
_cell_angle_beta 90.000000
_cell_angle_gamma 90.000000
_cell_volume 1972.892481
_symmetry_space_group_name_H-M "P -4 B 2"
_symmetry_group_IT_number 117
_symmetry_cell_setting 'tetragonal'
loop_
_space_group_symop_operation_xyz
x,y,z
y,-x,-z
-x,-y,z
-y,x,-z
1/2+y,1/2+x,-z
1/2-y,1/2-x,-z
1/2-x,1/2+y,z
1/2+x,1/2-y,z
loop_
_atom_site_type_symbol
_atom_site_label
_atom_site_fract_x
_atom_site_fract_y
_atom_site_fract_z
Si Si1 0.018716 0.861803 0.546977
Si Si2 0.501003 0.277652 0.868027
Si Si3 0.443701 0.087747 0.826507
Si Si4 0.671047 0.692072 0.069507
Si Si5 0.722862 0.878113 0.624432
O O1 0.040382 0.770106 0.461204
O O2 0.929293 0.899897 0.474081
O O3 0.008009 0.846800 0.728743
O O4 0.500342 0.177205 0.801643
O O5 0.592568 0.294772 0.957012
O O6 0.423151 0.294666 0.989018
O O7 0.363567 0.083115 0.707127
O O8 0.500000 0.000000 0.797373
O O9 0.406913 0.093088 0.000000
O O10 0.664968 0.710585 0.252115
O O11 0.741842 0.758158 0.000000
O O12 0.696979 0.803022 0.500000
#
# Coordination Sequence:
#
# PCOD8310394 Si02
#       5
#     8   8   8   8   8
#     4  11  25  43  66  98 138 177 224 276 348 420
#     4  12  25  45  69 102 136 180 230 284 349 414
#     4  11  24  44  67  95 133 175 225 285 338 407
#     4  12  26  45  72 103 136 182 232 286 345 418
#     4  12  22  46  69  93 139 180 218 291 340 403
#
# _framework density 20.274801
#
# number of rings (size 3 to 8) (size 9 to 14) (size 15 to 20)
#    0.000    0.400    8.000    0.000    5.600    0.800 
#    3.600    0.000    0.000    0.000    0.000    0.000 
#    0.000    0.000    0.000    0.000    0.000    0.000 
#
# Total GULP energy -496216.410905 kJ/mol
# GULP energy per Si atom -12405.410273 kJ/mol
# Density = 2.022865 g / cm^3
# Si number density = 20.274801 Si / 1000 Ang^3
#
#
#
# Elastic Constant Matrix: (Units=GPa)
#
#
# Indices 1 2 3 4 5 6 
#
# 1 122.8310 52.2135 30.4168 0.0000 0.0000 0.0000
# 2 52.2135 122.8250 30.4148 0.0000 0.0000 0.0000
# 3 30.4168 30.4148 92.7427 0.0000 0.0000 0.0000
# 4 0.0000 0.0000 0.0000 22.7391 0.0000 0.0000
# 5 0.0000 0.0000 0.0000 0.0000 22.7399 0.0000
# 6 0.0000 0.0000 0.0000 0.0000 0.0000 34.7740
#
#
#
# Elastic Compliance Matrix: (Units=1/GPa)
#
#
# Indices 1 2 3 4 5 6 
#
# 1 0.010304 -0.003857 -0.002115 0.000000 0.000000 0.000000
# 2 -0.003857 0.010305 -0.002115 0.000000 0.000000 0.000000
# 3 -0.002115 -0.002115 0.012170 0.000000 0.000000 0.000000
# 4 0.000000 0.000000 0.000000 0.043977 0.000000 0.000000
# 5 0.000000 0.000000 0.000000 0.000000 0.043976 0.000000
# 6 0.000000 0.000000 0.000000 0.000000 0.000000 0.028757
#
#
# Mechanical properties :
#
#
# Convention : Reuss Voigt Hill
#
# Bulk Modulus (GPa) = 60.21670 62.72100 61.46885
# Shear Modulus (GPa) = 29.20625 31.07416 30.14021
#
# Velocity S-wave (km/s) = 3.79954 3.91915 3.85981
# Velocity P-wave (km/s) = 7.00095 7.17512 7.08857
#
# Compressibility (1/GPa) = 0.01660669
#
# Stress axis : x y z
#
# Youngs Moduli (GPa) = 97.04601 97.04195 82.17239
#
# Poissons Ratio (x) = 0.37427 0.17377
# Poissons Ratio (y) = 0.37429 0.17376
# Poissons Ratio (z) = 0.20522 0.20520
#
# Static dielectric constant tensor:
#      x y z
#    x 3.755250 0.000000 0.000000 
#    y 0.000000 3.755260 0.000000 
#    z 0.000000 0.000000 3.889570 
# 
# 
# High freq. dielectric constant tensor:
#      x y z
#    x 1.797350 0.000000 0.000000 
#    y 0.000000 1.797350 0.000000 
#    z 0.000000 0.000000 1.801470 
# 
# From -- ./inp_files/1707.got.cif
#   From: 2010.03.12/outbox.cif.g09.slc.cpg/sg117_1_cif.got.tgz:1707.got - 2010.04.14 02:19:01.
