data_PCOD8310418
_publ_section_title
;
Structure prediction by ZEFSAII (Michael W. Deem and Ramdas Pophale) SiO2 
 PCOD8310418
Probable space group: P -4 B 2
;
_chemical_formula_sum "Si O2"
_cell_formula_units_Z 54
_cell_length_a 14.728374
_cell_length_b 14.728374
_cell_length_c 11.064829
_cell_angle_alpha 90.000000
_cell_angle_beta 90.000000
_cell_angle_gamma 90.000000
_cell_volume 2400.238038
_symmetry_space_group_name_H-M "P -4 B 2"
_symmetry_group_IT_number 117
_symmetry_cell_setting 'tetragonal'
loop_
_space_group_symop_operation_xyz
x,y,z
y,-x,-z
-x,-y,z
-y,x,-z
1/2+y,1/2+x,-z
1/2-y,1/2-x,-z
1/2-x,1/2+y,z
1/2+x,1/2-y,z
loop_
_atom_site_type_symbol
_atom_site_label
_atom_site_fract_x
_atom_site_fract_y
_atom_site_fract_z
Si Si1 0.358175 0.355924 0.027838
Si Si2 0.827168 0.863000 0.245778
Si Si3 0.581954 0.067484 0.246551
Si Si4 0.539238 0.266407 0.646675
Si Si5 0.770596 0.837909 0.735659
Si Si6 0.528908 0.243930 0.368541
Si Si7 0.000000 0.000000 0.000000
Si Si8 0.353859 0.853859 0.000000
O O1 0.371325 0.273990 0.124207
O O2 0.388584 0.323050 0.895386
O O3 0.421716 0.441773 0.070743
O O4 0.251424 0.378451 0.020814
O O5 0.741059 0.802311 0.284237
O O6 0.920468 0.811340 0.276171
O O7 0.831115 0.955097 0.322458
O O8 0.668944 0.013179 0.296079
O O9 0.561014 0.142144 0.347267
O O10 0.592742 0.114089 0.117126
O O11 0.500000 0.000000 0.233547
O O12 0.630122 0.299406 0.710164
O O13 0.555405 0.268376 0.504291
O O14 0.748389 0.920709 0.647874
#
# Coordination Sequence:
#
# PCOD8310418 Si02
#       8
#     8   8   8   8   8   8   2   4
#     4  12  22  47  72 102 143 184 233 295 366 432
#     4  12  25  46  73 105 142 190 241 301 368 430
#     4  12  26  46  73 105 144 188 244 301 359 428
#     4  12  26  45  71 103 145 194 242 295 360 431
#     4  12  25  46  73 105 142 190 241 301 368 430
#     4  12  26  45  71 103 145 194 242 295 360 431
#     4  12  28  36  72 108 134 180 232 284 352 442
#     4  12  23  50  72 108 146 185 234 302 374 431
#
# _framework density 22.497769000000002
#
# number of rings (size 3 to 8) (size 9 to 14) (size 15 to 20)
#    0.000    0.000    5.926    4.222    0.000    4.741 
#    0.000    4.444    0.000    0.000    0.000    0.000 
#    0.000    0.000    0.000    0.000    0.000    0.000 
#
# Total GULP energy -669678.390763 kJ/mol
# GULP energy per Si atom -12401.451681 kJ/mol
# Density = 2.244656 g / cm^3
# Si number density = 22.497769 Si / 1000 Ang^3
#
#
#
# Elastic Constant Matrix: (Units=GPa)
#
#
# Indices 1 2 3 4 5 6 
#
# 1 96.6300 15.9319 12.3044 0.0000 0.0000 0.0000
# 2 15.9319 96.6300 12.3044 0.0000 0.0000 0.0000
# 3 12.3044 12.3044 110.9385 0.0000 0.0000 0.0000
# 4 0.0000 0.0000 0.0000 20.1548 0.0000 0.0000
# 5 0.0000 0.0000 0.0000 0.0000 20.1548 0.0000
# 6 0.0000 0.0000 0.0000 0.0000 0.0000 32.2096
#
#
#
# Elastic Compliance Matrix: (Units=1/GPa)
#
#
# Indices 1 2 3 4 5 6 
#
# 1 0.010748 -0.001644 -0.001010 0.000000 0.000000 0.000000
# 2 -0.001644 0.010748 -0.001010 0.000000 0.000000 0.000000
# 3 -0.001010 -0.001010 0.009238 0.000000 0.000000 0.000000
# 4 0.000000 0.000000 0.000000 0.049616 0.000000 0.000000
# 5 0.000000 0.000000 0.000000 0.000000 0.049616 0.000000
# 6 0.000000 0.000000 0.000000 0.000000 0.000000 0.031047
#
#
# Mechanical properties :
#
#
# Convention : Reuss Voigt Hill
#
# Bulk Modulus (GPa) = 42.71998 42.80887 42.76443
# Shear Modulus (GPa) = 28.38614 32.08103 30.23358
#
# Velocity S-wave (km/s) = 3.55594 3.78029 3.66983
# Velocity P-wave (km/s) = 5.99077 6.17442 6.08329
#
# Compressibility (1/GPa) = 0.02340825
#
# Stress axis : x y z
#
# Youngs Moduli (GPa) = 93.03776 93.03776 108.24849
#
# Poissons Ratio (x) = 0.15291 0.10931
# Poissons Ratio (y) = 0.15291 0.10931
# Poissons Ratio (z) = 0.09395 0.09395
#
# Static dielectric constant tensor:
#      x y z
#    x 4.287510 0.000000 0.000000 
#    y 0.000000 4.287510 0.000000 
#    z 0.000000 0.000000 3.488380 
# 
# 
# High freq. dielectric constant tensor:
#      x y z
#    x 1.891780 0.000000 0.000000 
#    y 0.000000 1.891780 0.000000 
#    z 0.000000 0.000000 1.892480 
# 
# From -- ./inp_files/2911.got.cif
#   From: 2010.03.12/outbox.cif.g09.slc.cpg/sg117_2_cif.got.tgz:2911.got - 2010.04.14 02:19:01.
