data_PCOD8310682
_publ_section_title
;
Structure prediction by ZEFSAII (Michael W. Deem and Ramdas Pophale) SiO2 
 PCOD8310682
Probable space group: I -4 M 2
;
_chemical_formula_sum "Si O2"
_cell_formula_units_Z 88
_cell_length_a 14.888994
_cell_length_b 14.888994
_cell_length_c 20.500120
_cell_angle_alpha 90.000000
_cell_angle_beta 90.000000
_cell_angle_gamma 90.000000
_cell_volume 4544.510520
_symmetry_space_group_name_H-M "I -4 M 2"
_symmetry_group_IT_number 119
_symmetry_cell_setting 'tetragonal'
loop_
_space_group_symop_operation_xyz
x,y,z
y,-x,-z
-x,-y,z
-y,x,-z
y,x,-z
-y,-x,-z
-x,y,z
x,-y,z
1/2+x,1/2+y,1/2+z
1/2+y,1/2-x,1/2-z
1/2-x,1/2-y,1/2+z
1/2-y,1/2+x,1/2-z
1/2+y,1/2+x,1/2-z
1/2-y,1/2-x,1/2-z
1/2-x,1/2+y,1/2+z
1/2+x,1/2-y,1/2+z
loop_
_atom_site_type_symbol
_atom_site_label
_atom_site_fract_x
_atom_site_fract_y
_atom_site_fract_z
Si Si1 0.899791 0.500000 0.521722
Si Si2 0.898613 0.195279 0.783223
Si Si3 0.400376 0.193068 0.036994
Si Si4 0.759992 0.804281 0.343543
Si Si5 0.101701 0.000000 0.833410
Si Si6 0.605416 0.172405 0.885539
Si Si7 0.500000 0.208304 0.604735
O O1 0.894492 0.590233 0.564621
O O2 0.816960 0.500000 0.471574
O O3 0.000000 0.500000 0.485624
O O4 0.882875 0.229242 0.709260
O O5 0.826984 0.242706 0.830398
O O6 0.000000 0.223719 0.803023
O O7 0.887607 0.087751 0.788237
O O8 0.500000 0.232091 0.043668
O O9 0.338944 0.253788 0.082408
O O10 0.372330 0.192905 0.961366
O O11 0.853568 0.750315 0.340679
O O12 0.182806 0.000000 0.886877
O O13 0.000000 0.000000 0.865519
O O14 0.500000 0.161831 0.872106
O O15 0.660711 0.085417 0.862327
#
# Coordination Sequence:
#
# PCOD8310682 Si02
#       7
#     8  16  16  16   8  16   8
#     4   8  16  30  54  88 114 146 185 223 289 350
#     4  10  23  39  55  79 108 148 194 233 274 328
#     4   9  18  33  54  82 115 144 177 224 283 342
#     4  11  21  35  59  82 108 146 187 232 277 330
#     4  10  20  38  58  76 108 154 195 233 275 332
#     4  10  20  34  56  87 114 141 181 231 286 342
#     4  10  16  34  56  80 112 150 178 228 284 336
#
# _framework density 19.364021999999999
#
# number of rings (size 3 to 8) (size 9 to 14) (size 15 to 20)
#    0.000    2.182    1.818    3.000    2.545    0.000 
#    0.000    0.000    0.000    1.091    9.455    2.545 
#    0.000    0.000    0.000    0.000    0.000    0.000 
#
# Total GULP energy -545140.192842 kJ/mol
# GULP energy per Si atom -12389.549837 kJ/mol
# Density = 1.931995 g / cm^3
# Si number density = 19.364022 Si / 1000 Ang^3
#
#
#
# Elastic Constant Matrix: (Units=GPa)
#
#
# Indices 1 2 3 4 5 6 
#
# 1 118.1058 47.6523 27.4283 0.0000 0.0000 0.0000
# 2 47.6523 118.1058 27.4283 0.0000 0.0000 0.0000
# 3 27.4283 27.4283 38.6430 0.0000 0.0000 0.0000
# 4 0.0000 0.0000 0.0000 22.8869 0.0000 0.0000
# 5 0.0000 0.0000 0.0000 0.0000 22.8869 0.0000
# 6 0.0000 0.0000 0.0000 0.0000 0.0000 28.5053
#
#
#
# Elastic Compliance Matrix: (Units=1/GPa)
#
#
# Indices 1 2 3 4 5 6 
#
# 1 0.011039 -0.003154 -0.005597 0.000000 0.000000 0.000000
# 2 -0.003154 0.011039 -0.005597 0.000000 0.000000 0.000000
# 3 -0.005597 -0.005597 0.033823 0.000000 0.000000 0.000000
# 4 0.000000 0.000000 0.000000 0.043693 0.000000 0.000000
# 5 0.000000 0.000000 0.000000 0.000000 0.043693 0.000000
# 6 0.000000 0.000000 0.000000 0.000000 0.000000 0.035081
#
#
# Mechanical properties :
#
#
# Convention : Reuss Voigt Hill
#
# Bulk Modulus (GPa) = 36.75641 53.31914 45.03777
# Shear Modulus (GPa) = 23.13386 26.34554 24.73970
#
# Velocity S-wave (km/s) = 3.46017 3.69255 3.57825
# Velocity P-wave (km/s) = 5.91495 6.76571 6.35459
#
# Compressibility (1/GPa) = 0.02720614
#
# Stress axis : x y z
#
# Youngs Moduli (GPa) = 90.58444 90.58444 29.56580
#
# Poissons Ratio (x) = 0.28573 0.16547
# Poissons Ratio (y) = 0.28573 0.16547
# Poissons Ratio (z) = 0.50698 0.50698
#
# Static dielectric constant tensor:
#      x y z
#    x 3.633020 0.000000 0.000000 
#    y 0.000000 3.633020 0.000000 
#    z 0.000000 0.000000 3.087780 
# 
# 
# High freq. dielectric constant tensor:
#      x y z
#    x 1.760570 0.000000 0.000000 
#    y 0.000000 1.760570 0.000000 
#    z 0.000000 0.000000 1.716250 
# 
# From -- ./inp_files/7739.got.cif
#   From: 2010.03.12/outbox.cif.g09.slc.cpg/sg119_4_cif.got.tgz:7739.got - 2010.04.14 02:25:26.
