data_PCOD8310629
_publ_section_title
;
Structure prediction by ZEFSAII (Michael W. Deem and Ramdas Pophale) SiO2 
 PCOD8310629
Probable space group: P -4 N 2
;
_chemical_formula_sum "Si O2"
_cell_formula_units_Z 40
_cell_length_a 9.083220
_cell_length_b 9.083220
_cell_length_c 22.338738
_cell_angle_alpha 90.000000
_cell_angle_beta 90.000000
_cell_angle_gamma 90.000000
_cell_volume 1843.055022
_symmetry_space_group_name_H-M "P -4 N 2"
_symmetry_group_IT_number 118
_symmetry_cell_setting 'tetragonal'
loop_
_space_group_symop_operation_xyz
x,y,z
y,-x,-z
-x,-y,z
-y,x,-z
1/2+y,1/2+x,1/2-z
1/2-y,1/2-x,1/2-z
1/2-x,1/2+y,1/2+z
1/2+x,1/2-y,1/2+z
loop_
_atom_site_type_symbol
_atom_site_label
_atom_site_fract_x
_atom_site_fract_y
_atom_site_fract_z
Si Si1 0.914772 0.779535 0.497825
Si Si2 0.852743 0.923779 0.829387
Si Si3 0.911046 0.147016 0.301200
Si Si4 0.114213 0.369481 0.619886
Si Si5 0.602006 0.127791 0.880015
O O1 0.916975 0.660136 0.550264
O O2 0.841265 0.721475 0.436670
O O3 0.080783 0.822713 0.479808
O O4 0.792959 0.864619 0.765200
O O5 0.896541 0.790034 0.873941
O O6 0.742877 0.049212 0.852216
O O7 0.000000 0.000000 0.812934
O O8 0.771505 0.089617 0.338548
O O9 0.006169 0.275093 0.333479
O O10 0.000000 0.000000 0.295123
O O11 0.000000 0.500000 0.639955
O O12 0.500000 0.000000 0.906595
#
# Coordination Sequence:
#
# PCOD8310629 Si02
#       5
#     8   8   8   8   8
#     4  11  23  43  73 103 136 181 242 291 350 435
#     4  11  27  45  65 103 144 183 232 293 370 425
#     4  11  24  45  71  98 136 191 239 289 351 436
#     4  12  26  44  70 106 141 184 234 298 361 426
#     4  12  23  44  71 100 135 185 240 298 353 423
#
# _framework density 21.703095999999999
#
# number of rings (size 3 to 8) (size 9 to 14) (size 15 to 20)
#    0.000    0.600    4.000    3.000    5.600    2.400 
#    0.000    0.000    0.000    0.000    0.000    0.000 
#    0.000    0.000    0.000    0.000    0.000    0.000 
#
# Total GULP energy -495551.333972 kJ/mol
# GULP energy per Si atom -12388.783349 kJ/mol
# Density = 2.165370 g / cm^3
# Si number density = 21.703096 Si / 1000 Ang^3
#
#
#
# Elastic Constant Matrix: (Units=GPa)
#
#
# Indices 1 2 3 4 5 6 
#
# 1 113.8925 56.4315 45.3754 0.0000 0.0000 0.0000
# 2 56.4315 113.8925 45.3754 0.0000 0.0000 0.0000
# 3 45.3754 45.3754 138.4813 0.0000 0.0000 0.0000
# 4 0.0000 0.0000 0.0000 43.4084 0.0000 0.0000
# 5 0.0000 0.0000 0.0000 0.0000 43.4084 0.0000
# 6 0.0000 0.0000 0.0000 0.0000 0.0000 45.7500
#
#
#
# Elastic Compliance Matrix: (Units=1/GPa)
#
#
# Indices 1 2 3 4 5 6 
#
# 1 0.012258 -0.005145 -0.002331 0.000000 0.000000 0.000000
# 2 -0.005145 0.012258 -0.002331 0.000000 0.000000 0.000000
# 3 -0.002331 -0.002331 0.008749 0.000000 0.000000 0.000000
# 4 0.000000 0.000000 0.000000 0.023037 0.000000 0.000000
# 5 0.000000 0.000000 0.000000 0.000000 0.023037 0.000000
# 6 0.000000 0.000000 0.000000 0.000000 0.000000 0.021858
#
#
# Mechanical properties :
#
#
# Convention : Reuss Voigt Hill
#
# Bulk Modulus (GPa) = 73.25034 73.40346 73.32690
# Shear Modulus (GPa) = 39.88515 41.11899 40.50207
#
# Velocity S-wave (km/s) = 4.29156 4.35744 4.32463
# Velocity P-wave (km/s) = 7.64075 7.69490 7.66787
#
# Compressibility (1/GPa) = 0.01365181
#
# Stress axis : x y z
#
# Youngs Moduli (GPa) = 81.57911 81.57911 114.30472
#
# Poissons Ratio (x) = 0.41973 0.26641
# Poissons Ratio (y) = 0.41973 0.26641
# Poissons Ratio (z) = 0.19013 0.19013
#
# Static dielectric constant tensor:
#      x y z
#    x 4.239980 0.000000 0.000000 
#    y 0.000000 4.239980 0.000000 
#    z 0.000000 0.000000 3.910500 
# 
# 
# High freq. dielectric constant tensor:
#      x y z
#    x 1.863710 0.000000 0.000000 
#    y 0.000000 1.863710 0.000000 
#    z 0.000000 0.000000 1.861310 
# 
# From -- ./inp_files/5984.got.cif
#   From: 2010.03.12/outbox.cif.g09.slc.cpg/sg118_3_cif.got.tgz:5984.got - 2010.04.14 02:21:17.
