data_PCOD8310455
_publ_section_title
;
Structure prediction by ZEFSAII (Michael W. Deem and Ramdas Pophale) SiO2 
 PCOD8310455
Probable space group: P -4 N 2
;
_chemical_formula_sum "Si O2"
_cell_formula_units_Z 36
_cell_length_a 9.419531
_cell_length_b 9.419531
_cell_length_c 19.603554
_cell_angle_alpha 90.000000
_cell_angle_beta 90.000000
_cell_angle_gamma 90.000000
_cell_volume 1739.375597
_symmetry_space_group_name_H-M "P -4 N 2"
_symmetry_group_IT_number 118
_symmetry_cell_setting 'tetragonal'
loop_
_space_group_symop_operation_xyz
x,y,z
y,-x,-z
-x,-y,z
-y,x,-z
1/2+y,1/2+x,1/2-z
1/2-y,1/2-x,1/2-z
1/2-x,1/2+y,1/2+z
1/2+x,1/2-y,1/2+z
loop_
_atom_site_type_symbol
_atom_site_label
_atom_site_fract_x
_atom_site_fract_y
_atom_site_fract_z
Si Si1 0.000000 0.500000 0.250000
Si Si2 0.586842 0.782347 0.648951
Si Si3 0.221353 0.923872 0.318531
Si Si4 0.500000 0.000000 0.964776
Si Si5 0.208960 0.978352 0.469444
Si Si6 0.000000 0.500000 0.750000
Si Si7 0.000000 0.000000 0.203747
O O1 0.859492 0.506399 0.294315
O O2 0.752560 0.777764 0.671571
O O3 0.510511 0.629283 0.649640
O O4 0.560529 0.866885 0.578645
O O5 0.174533 0.993774 0.389411
O O6 0.130971 0.980851 0.255013
O O7 0.372658 0.989787 0.303036
O O8 0.552097 0.126729 0.013784
O O9 0.123605 0.842805 0.496895
#
# Coordination Sequence:
#
# PCOD8310455 Si02
#       7
#     2   8   8   4   8   2   4
#     4  10  18  38  66  90 126 174 198 264 332 396
#     4  11  23  43  66  98 139 164 223 279 330 405
#     4  12  24  44  64 100 139 171 223 282 330 407
#     4  11  25  47  70  97 133 185 222 282 332 387
#     4  11  24  45  71  97 130 182 233 271 324 404
#     4  12  24  42  66  94 144 172 206 284 352 386
#     4  12  22  42  69 101 136 172 214 284 344 390
#
# _framework density 20.697084
#
# number of rings (size 3 to 8) (size 9 to 14) (size 15 to 20)
#    0.000    0.667    6.667    2.000    0.000    2.667 
#    4.000    0.000    0.000    0.000    0.000    0.000 
#    0.000    0.000    0.000    0.000    0.000    0.000 
#
# Total GULP energy -445993.409347 kJ/mol
# GULP energy per Si atom -12388.705815 kJ/mol
# Density = 2.064998 g / cm^3
# Si number density = 20.697084 Si / 1000 Ang^3
#
#
#
# Elastic Constant Matrix: (Units=GPa)
#
#
# Indices 1 2 3 4 5 6 
#
# 1 118.1192 37.8510 19.2188 0.0000 0.0000 0.0000
# 2 37.8510 118.1192 19.2188 0.0000 0.0000 0.0000
# 3 19.2188 19.2188 81.5125 0.0000 0.0000 0.0000
# 4 0.0000 0.0000 0.0000 106.5289 0.0000 0.0000
# 5 0.0000 0.0000 0.0000 0.0000 106.5289 0.0000
# 6 0.0000 0.0000 0.0000 0.0000 0.0000 35.0434
#
#
#
# Elastic Compliance Matrix: (Units=1/GPa)
#
#
# Indices 1 2 3 4 5 6 
#
# 1 0.009633 -0.002826 -0.001605 0.000000 0.000000 0.000000
# 2 -0.002826 0.009633 -0.001605 0.000000 0.000000 0.000000
# 3 -0.001605 -0.001605 0.013025 0.000000 0.000000 0.000000
# 4 0.000000 0.000000 0.000000 0.009387 0.000000 0.000000
# 5 0.000000 0.000000 0.000000 0.000000 0.009387 0.000000
# 6 0.000000 0.000000 0.000000 0.000000 0.000000 0.028536
#
#
# Mechanical properties :
#
#
# Convention : Reuss Voigt Hill
#
# Bulk Modulus (GPa) = 49.45812 52.25869 50.85841
# Shear Modulus (GPa) = 50.80730 65.71774 58.26252
#
# Velocity S-wave (km/s) = 4.95997 5.64102 5.31142
# Velocity P-wave (km/s) = 7.53325 8.22996 7.88930
#
# Compressibility (1/GPa) = 0.02021913
#
# Stress axis : x y z
#
# Youngs Moduli (GPa) = 103.81396 103.81396 76.77617
#
# Poissons Ratio (x) = 0.29334 0.12322
# Poissons Ratio (y) = 0.29334 0.12322
# Poissons Ratio (z) = 0.16662 0.16662
#
# Static dielectric constant tensor:
#      x y z
#    x 4.140340 0.000000 0.000000 
#    y 0.000000 4.140340 0.000000 
#    z 0.000000 0.000000 3.867090 
# 
# 
# High freq. dielectric constant tensor:
#      x y z
#    x 1.810940 0.000000 0.000000 
#    y 0.000000 1.810940 0.000000 
#    z 0.000000 0.000000 1.815850 
# 
# From -- ./inp_files/5546.got.cif
#   From: 2010.03.12/outbox.cif.g09.slc.cpg/sg118_3_cif.got.tgz:5546.got - 2010.04.14 02:21:17.
