data_PCOD8310937
_publ_section_title
;
Structure prediction by ZEFSAII (Michael W. Deem and Ramdas Pophale) SiO2 
 PCOD8310937
Probable space group: I -4 M 2
;
_chemical_formula_sum "Si O2"
_cell_formula_units_Z 48
_cell_length_a 7.860375
_cell_length_b 7.860375
_cell_length_c 37.361241
_cell_angle_alpha 90.000000
_cell_angle_beta 90.000000
_cell_angle_gamma 90.000000
_cell_volume 2308.382774
_symmetry_space_group_name_H-M "I -4 M 2"
_symmetry_group_IT_number 119
_symmetry_cell_setting 'tetragonal'
loop_
_space_group_symop_operation_xyz
x,y,z
y,-x,-z
-x,-y,z
-y,x,-z
y,x,-z
-y,-x,-z
-x,y,z
x,-y,z
1/2+x,1/2+y,1/2+z
1/2+y,1/2-x,1/2-z
1/2-x,1/2-y,1/2+z
1/2-y,1/2+x,1/2-z
1/2+y,1/2+x,1/2-z
1/2-y,1/2-x,1/2-z
1/2-x,1/2+y,1/2+z
1/2+x,1/2-y,1/2+z
loop_
_atom_site_type_symbol
_atom_site_label
_atom_site_fract_x
_atom_site_fract_y
_atom_site_fract_z
Si Si1 0.701078 0.500000 0.913900
Si Si2 0.191345 0.500000 0.833951
Si Si3 0.697880 0.812464 0.788864
Si Si4 0.196517 0.690182 0.462968
O O1 0.500000 0.500000 0.907334
O O2 0.795608 0.500000 0.876436
O O3 0.761840 0.330750 0.934882
O O4 0.271375 0.325870 0.819464
O O5 0.000000 0.500000 0.820995
O O6 0.500000 0.840769 0.785168
O O7 0.759601 0.740400 0.750000
O O8 0.779624 0.000000 0.798132
O O9 0.297974 0.702027 0.500000
O O10 0.223886 0.500000 0.447009
O O11 0.000000 0.726098 0.471737
#
# Coordination Sequence:
#
# PCOD8310937 Si02
#       4
#     8   8  16  16
#     4  10  22  40  60  84 126 170 208 254 312 372
#     4  12  26  38  58  92 132 168 204 262 328 382
#     4   9  20  40  65  90 117 158 214 266 313 377
#     4  10  20  36  63  92 118 156 207 258 309 371
#
# _framework density 20.793779000000001
#
# number of rings (size 3 to 8) (size 9 to 14) (size 15 to 20)
#    0.000    2.000    1.667    2.500    2.333    3.667 
#    0.000    3.333    0.000    0.000    0.000    0.000 
#    0.000    0.000    0.000    0.000    0.000    0.000 
#
# Total GULP energy -297499.793348 kJ/mol
# GULP energy per Si atom -12395.824723 kJ/mol
# Density = 2.074645 g / cm^3
# Si number density = 20.793779 Si / 1000 Ang^3
#
#
#
# Elastic Constant Matrix: (Units=GPa)
#
#
# Indices 1 2 3 4 5 6 
#
# 1 100.6815 27.4358 47.1856 0.0000 0.0000 0.0000
# 2 27.4358 100.6819 47.1864 0.0000 0.0000 0.0000
# 3 47.1856 47.1864 132.9674 0.0000 0.0000 0.0000
# 4 0.0000 0.0000 0.0000 19.3645 0.0000 0.0000
# 5 0.0000 0.0000 0.0000 0.0000 19.3643 0.0000
# 6 0.0000 0.0000 0.0000 0.0000 0.0000 16.9570
#
#
#
# Elastic Compliance Matrix: (Units=1/GPa)
#
#
# Indices 1 2 3 4 5 6 
#
# 1 0.012110 -0.001542 -0.003750 0.000000 0.000000 0.000000
# 2 -0.001542 0.012110 -0.003750 0.000000 0.000000 0.000000
# 3 -0.003750 -0.003750 0.010182 0.000000 0.000000 0.000000
# 4 0.000000 0.000000 0.000000 0.051641 0.000000 0.000000
# 5 0.000000 0.000000 0.000000 0.000000 0.051641 0.000000
# 6 0.000000 0.000000 0.000000 0.000000 0.000000 0.058973
#
#
# Mechanical properties :
#
#
# Convention : Reuss Voigt Hill
#
# Bulk Modulus (GPa) = 61.28547 64.21627 62.75087
# Shear Modulus (GPa) = 22.70847 25.30536 24.00691
#
# Velocity S-wave (km/s) = 3.30825 3.49229 3.40151
# Velocity P-wave (km/s) = 6.64301 6.87102 6.75798
#
# Compressibility (1/GPa) = 0.01631708
#
# Stress axis : x y z
#
# Youngs Moduli (GPa) = 82.57518 82.57510 98.20989
#
# Poissons Ratio (x) = 0.12737 0.36830
# Poissons Ratio (y) = 0.12737 0.36831
# Poissons Ratio (z) = 0.30967 0.30967
#
# Static dielectric constant tensor:
#      x y z
#    x 3.671380 0.000000 0.000000 
#    y 0.000000 3.671380 0.000000 
#    z 0.000000 0.000000 3.617860 
# 
# 
# High freq. dielectric constant tensor:
#      x y z
#    x 1.812950 0.000000 0.000000 
#    y 0.000000 1.812950 0.000000 
#    z 0.000000 0.000000 1.798890 
# 
# From -- ./inp_files/9863.got.cif
#   From: 2010.03.12/outbox.cif.g09.slc.cpg/sg119_5_cif.got.tgz:9863.got - 2010.04.14 02:25:26.
