data_PCOD8310195
_publ_section_title
;
Structure prediction by ZEFSAII (Michael W. Deem and Ramdas Pophale) SiO2 
 PCOD8310195
Probable space group: P -4 C 2
;
_chemical_formula_sum "Si O2"
_cell_formula_units_Z 36
_cell_length_a 11.790590
_cell_length_b 11.790590
_cell_length_c 12.145983
_cell_angle_alpha 90.000000
_cell_angle_beta 90.000000
_cell_angle_gamma 90.000000
_cell_volume 1688.510417
_symmetry_space_group_name_H-M "P -4 C 2"
_symmetry_group_IT_number 116
_symmetry_cell_setting 'tetragonal'
loop_
_space_group_symop_operation_xyz
x,y,z
y,-x,-z
-x,-y,z
-y,x,-z
y,x,1/2-z
-y,-x,1/2-z
-x,y,1/2+z
x,-y,1/2+z
loop_
_atom_site_type_symbol
_atom_site_label
_atom_site_fract_x
_atom_site_fract_y
_atom_site_fract_z
Si Si1 0.341522 0.210280 0.005878
Si Si2 0.072166 0.804283 0.153373
Si Si3 0.125710 0.691512 0.766930
Si Si4 0.279324 0.444885 0.118431
Si Si5 0.500000 0.500000 0.250000
Si Si6 0.000000 0.000000 0.000000
O O1 0.334506 0.115423 0.102565
O O2 0.307295 0.332780 0.050550
O O3 0.256433 0.175282 0.908999
O O4 0.469119 0.216365 0.962234
O O5 0.119279 0.880722 0.250000
O O6 0.001071 0.885628 0.072327
O O7 0.994533 0.705610 0.206773
O O8 0.190390 0.809611 0.750000
O O9 0.194275 0.585932 0.716783
O O10 0.390774 0.501645 0.171095
#
# Coordination Sequence:
#
# PCOD8310195 Si02
#       6
#     8   8   8   8   2   2
#     4  11  24  42  67  99 139 180 231 294 365 431
#     4  12  25  41  70  99 133 184 239 290 359 436
#     4  10  22  44  62  95 136 174 228 300 345 419
#     4  11  23  41  68 100 136 180 232 294 356 434
#     4  12  20  42  76 100 132 190 232 298 348 424
#     4  12  22  44  72  98 128 188 246 296 352 426
#
# _framework density 21.320568000000002
#
# number of rings (size 3 to 8) (size 9 to 14) (size 15 to 20)
#    0.000    0.889    3.333    7.000    1.556    0.889 
#    0.000    2.222    0.000    0.000    0.000    0.000 
#    0.000    0.000    0.000    0.000    0.000    0.000 
#
# Total GULP energy -446560.863429 kJ/mol
# GULP energy per Si atom -12404.468429 kJ/mol
# Density = 2.127204 g / cm^3
# Si number density = 21.320568 Si / 1000 Ang^3
#
#
#
# Elastic Constant Matrix: (Units=GPa)
#
#
# Indices 1 2 3 4 5 6 
#
# 1 72.0762 61.9423 51.2194 0.0000 0.0000 0.0000
# 2 61.9423 72.0759 51.2188 0.0000 0.0000 0.0000
# 3 51.2194 51.2188 132.0178 0.0000 0.0000 0.0000
# 4 0.0000 0.0000 0.0000 33.1625 0.0000 0.0000
# 5 0.0000 0.0000 0.0000 0.0000 33.1629 0.0000
# 6 0.0000 0.0000 0.0000 0.0000 0.0000 32.2007
#
#
#
# Elastic Compliance Matrix: (Units=1/GPa)
#
#
# Indices 1 2 3 4 5 6 
#
# 1 0.054644 -0.044036 -0.004116 0.000000 0.000000 0.000000
# 2 -0.044036 0.054644 -0.004115 0.000000 0.000000 0.000000
# 3 -0.004116 -0.004115 0.010768 0.000000 0.000000 0.000000
# 4 0.000000 0.000000 0.000000 0.030155 0.000000 0.000000
# 5 0.000000 0.000000 0.000000 0.000000 0.030154 0.000000
# 6 0.000000 0.000000 0.000000 0.000000 0.000000 0.031055
#
#
# Mechanical properties :
#
#
# Convention : Reuss Voigt Hill
#
# Bulk Modulus (GPa) = 64.42786 67.21454 65.82120
# Shear Modulus (GPa) = 15.57015 27.15785 21.36400
#
# Velocity S-wave (km/s) = 2.70532 3.57289 3.16893
# Velocity P-wave (km/s) = 6.32792 6.97243 6.65798
#
# Compressibility (1/GPa) = 0.01552124
#
# Stress axis : x y z
#
# Youngs Moduli (GPa) = 18.30034 18.30039 92.86805
#
# Poissons Ratio (x) = 0.80589 0.38220
# Poissons Ratio (y) = 0.80588 0.38215
# Poissons Ratio (z) = 0.07532 0.07531
#
# Static dielectric constant tensor:
#      x y z
#    x 3.798650 0.000000 0.000000 
#    y 0.000000 3.798650 0.000000 
#    z 0.000000 0.000000 4.234860 
# 
# 
# High freq. dielectric constant tensor:
#      x y z
#    x 1.828080 0.000000 0.000000 
#    y 0.000000 1.828080 0.000000 
#    z 0.000000 0.000000 1.857490 
# 
# From -- ./inp_files/1763.got.cif
#   From: 2010.03.12/outbox.cif.g09.slc.cpg/sg116_1_cif.got.tgz:1763.got - 2010.04.14 02:15:44.
