data_PCOD8310366
_publ_section_title
;
Structure prediction by ZEFSAII (Michael W. Deem and Ramdas Pophale) SiO2 
 PCOD8310366
Probable space group: P -4 B 2
;
_chemical_formula_sum "Si O2"
_cell_formula_units_Z 26
_cell_length_a 9.077633
_cell_length_b 9.077633
_cell_length_c 14.305742
_cell_angle_alpha 90.000000
_cell_angle_beta 90.000000
_cell_angle_gamma 90.000000
_cell_volume 1178.842079
_symmetry_space_group_name_H-M "P -4 B 2"
_symmetry_group_IT_number 117
_symmetry_cell_setting 'tetragonal'
loop_
_space_group_symop_operation_xyz
x,y,z
y,-x,-z
-x,-y,z
-y,x,-z
1/2+y,1/2+x,-z
1/2-y,1/2-x,-z
1/2-x,1/2+y,z
1/2+x,1/2-y,z
loop_
_atom_site_type_symbol
_atom_site_label
_atom_site_fract_x
_atom_site_fract_y
_atom_site_fract_z
Si Si1 0.427942 0.714418 0.461820
Si Si2 0.000000 0.000000 0.000000
Si Si3 0.608569 0.621579 0.177575
Si Si4 0.072712 0.349394 0.267094
O O1 0.587057 0.684386 0.505696
O O2 0.369945 0.869945 0.500000
O O3 0.429276 0.728317 0.349928
O O4 0.084025 0.119415 0.933640
O O5 0.500000 0.500000 0.225271
O O6 0.765132 0.620086 0.227977
O O7 0.531153 0.781139 0.186604
O O8 0.000000 0.500000 0.302633
#
# Coordination Sequence:
#
# PCOD8310366 Si02
#       4
#     8   2   8   8
#     4  11  28  45  70 106 146 193 247 305 357 442
#     4   8  24  48  76 104 158 184 248 308 400 440
#     4  10  24  47  74 106 149 194 246 321 376 475
#     4  12  26  45  76 108 146 203 253 310 391 445
#
# _framework density 22.055539
#
# number of rings (size 3 to 8) (size 9 to 14) (size 15 to 20)
#    0.923    0.308    0.000    3.692   17.231    1.231 
#    0.000    1.538    0.000    0.000    0.000    0.000 
#    0.000    0.000    0.000    0.000    0.000    0.000 
#
# Total GULP energy -322243.340832 kJ/mol
# GULP energy per Si atom -12393.974647 kJ/mol
# Density = 2.200534 g / cm^3
# Si number density = 22.055539 Si / 1000 Ang^3
#
#
#
# Elastic Constant Matrix: (Units=GPa)
#
#
# Indices 1 2 3 4 5 6 
#
# 1 130.0742 51.3365 65.0427 0.0000 0.0000 0.0000
# 2 51.3365 130.0742 65.0427 0.0000 0.0000 0.0000
# 3 65.0427 65.0427 150.2869 0.0000 0.0000 0.0000
# 4 0.0000 0.0000 0.0000 27.5717 0.0000 0.0000
# 5 0.0000 0.0000 0.0000 0.0000 27.5717 0.0000
# 6 0.0000 0.0000 0.0000 0.0000 0.0000 56.7046
#
#
#
# Elastic Compliance Matrix: (Units=1/GPa)
#
#
# Indices 1 2 3 4 5 6 
#
# 1 0.010347 -0.002354 -0.003459 0.000000 0.000000 0.000000
# 2 -0.002354 0.010347 -0.003459 0.000000 0.000000 0.000000
# 3 -0.003459 -0.003459 0.009648 0.000000 0.000000 0.000000
# 4 0.000000 0.000000 0.000000 0.036269 0.000000 0.000000
# 5 0.000000 0.000000 0.000000 0.000000 0.036269 0.000000
# 6 0.000000 0.000000 0.000000 0.000000 0.000000 0.017635
#
#
# Mechanical properties :
#
#
# Convention : Reuss Voigt Hill
#
# Bulk Modulus (GPa) = 84.76730 85.91992 85.34361
# Shear Modulus (GPa) = 34.96704 37.63715 36.30209
#
# Velocity S-wave (km/s) = 3.98604 4.13543 4.06142
# Velocity P-wave (km/s) = 7.72669 7.86404 7.79566
#
# Compressibility (1/GPa) = 0.01179700
#
# Stress axis : x y z
#
# Youngs Moduli (GPa) = 96.64968 96.64968 103.64625
#
# Poissons Ratio (x) = 0.22749 0.35854
# Poissons Ratio (y) = 0.22749 0.35854
# Poissons Ratio (z) = 0.33434 0.33434
#
# Static dielectric constant tensor:
#      x y z
#    x 3.966980 0.000000 0.000000 
#    y 0.000000 3.966980 0.000000 
#    z 0.000000 0.000000 3.847710 
# 
# 
# High freq. dielectric constant tensor:
#      x y z
#    x 1.872520 0.000000 0.000000 
#    y 0.000000 1.872520 0.000000 
#    z 0.000000 0.000000 1.860310 
# 
# From -- ./inp_files/3293.got.cif
#   From: 2010.03.12/outbox.cif.g09.slc.cpg/sg117_2_cif.got.tgz:3293.got - 2010.04.14 02:19:01.
