data_PCOD8310694
_publ_section_title
;
Structure prediction by ZEFSAII (Michael W. Deem and Ramdas Pophale) SiO2 
 PCOD8310694
Probable space group: I -4 M 2
;
_chemical_formula_sum "Si O2"
_cell_formula_units_Z 112
_cell_length_a 16.906095
_cell_length_b 16.906095
_cell_length_c 24.542833
_cell_angle_alpha 90.000000
_cell_angle_beta 90.000000
_cell_angle_gamma 90.000000
_cell_volume 7014.735538
_symmetry_space_group_name_H-M "I -4 M 2"
_symmetry_group_IT_number 119
_symmetry_cell_setting 'tetragonal'
loop_
_space_group_symop_operation_xyz
x,y,z
y,-x,-z
-x,-y,z
-y,x,-z
y,x,-z
-y,-x,-z
-x,y,z
x,-y,z
1/2+x,1/2+y,1/2+z
1/2+y,1/2-x,1/2-z
1/2-x,1/2-y,1/2+z
1/2-y,1/2+x,1/2-z
1/2+y,1/2+x,1/2-z
1/2-y,1/2-x,1/2-z
1/2-x,1/2+y,1/2+z
1/2+x,1/2-y,1/2+z
loop_
_atom_site_type_symbol
_atom_site_label
_atom_site_fract_x
_atom_site_fract_y
_atom_site_fract_z
Si Si1 0.798246 0.326019 0.840884
Si Si2 0.407660 0.092075 0.546121
Si Si3 0.677752 0.413333 0.303846
Si Si4 0.913754 0.407513 0.921750
Si Si5 0.092302 0.771180 0.759760
Si Si6 0.790522 0.319036 0.373911
Si Si7 0.915261 0.684789 0.282855
O O1 0.846114 0.382044 0.880838
O O2 0.859671 0.283813 0.800890
O O3 0.739423 0.377098 0.802501
O O4 0.751963 0.265997 0.881898
O O5 0.500000 0.104651 0.561678
O O6 0.391580 0.114337 0.483647
O O7 0.352334 0.154689 0.577919
O O8 0.384579 0.000000 0.558197
O O9 0.643429 0.500000 0.317769
O O10 0.605924 0.360302 0.281336
O O11 0.721210 0.380630 0.358181
O O12 0.741750 0.418722 0.256835
O O13 0.922465 0.500000 0.916863
O O14 0.000000 0.369545 0.907394
O O15 0.000000 0.750158 0.762191
O O16 0.846339 0.298307 0.324053
O O17 0.895475 0.604526 0.250000
O O18 0.000000 0.672390 0.312003
#
# Coordination Sequence:
#
# PCOD8310694 Si02
#       7
#    16  16  16  16  16  16  16
#     4  10  19  31  47  69  92 115 147 184 232 273
#     4   9  18  31  47  68  92 120 154 185 218 265
#     4   9  17  29  43  61  88 120 150 179 216 256
#     4   9  18  33  50  67  90 118 146 184 233 277
#     4  10  19  31  47  67  89 115 150 186 221 267
#     4  10  17  28  45  66  91 120 148 184 221 259
#     4   9  16  26  39  58  87 120 149 180 215 253
#
# _framework density 15.966388999999999
#
# number of rings (size 3 to 8) (size 9 to 14) (size 15 to 20)
#    0.000    2.571    1.429    2.571    0.000    1.571 
#    0.000    0.000    0.000    3.429    0.000    0.000 
#    0.000    0.000    0.000   33.143    0.000    0.000 
#
# Total GULP energy -693730.806478 kJ/mol
# GULP energy per Si atom -12388.050116 kJ/mol
# Density = 1.593005 g / cm^3
# Si number density = 15.966389 Si / 1000 Ang^3
#
#
#
# Elastic Constant Matrix: (Units=GPa)
#
#
# Indices 1 2 3 4 5 6 
#
# 1 20.9843 59.4394 22.4563 0.0000 0.0000 0.0000
# 2 59.4394 20.9775 22.4464 0.0000 0.0000 0.0000
# 3 22.4563 22.4464 63.3464 0.0000 0.0000 0.0000
# 4 0.0000 0.0000 0.0000 3.4512 0.0000 0.0000
# 5 0.0000 0.0000 0.0000 0.0000 3.4550 0.0000
# 6 0.0000 0.0000 0.0000 0.0000 0.0000 22.8260
#
#
#
# Elastic Compliance Matrix: (Units=1/GPa)
#
#
# Indices 1 2 3 4 5 6 
#
# 1 -0.005250 0.020752 -0.005492 0.000000 0.000000 0.000000
# 2 0.020752 -0.005250 -0.005496 0.000000 0.000000 0.000000
# 3 -0.005492 -0.005496 0.019681 0.000000 0.000000 0.000000
# 4 0.000000 0.000000 0.000000 0.289751 0.000000 0.000000
# 5 0.000000 0.000000 0.000000 0.000000 0.289432 0.000000
# 6 0.000000 0.000000 0.000000 0.000000 0.000000 0.043810
#
#
# Mechanical properties :
#
#
# Convention : Reuss Voigt Hill
#
# Bulk Modulus (GPa) = 34.83326 34.88804 34.86065
# Shear Modulus (GPa) = 8.03578 6.01086 7.02332
#
# Velocity S-wave (km/s) = 2.24585 1.94239 2.09961
# Velocity P-wave (km/s) = 5.34688 5.18930 5.26868
#
# Compressibility (1/GPa) = 0.02870820
#
# Stress axis : x y z
#
# Youngs Moduli (GPa) = -190.48243 -190.48492 50.81070
#
# Poissons Ratio (x) = 3.95299 0.27907
# Poissons Ratio (y) = 3.95294 0.27928
# Poissons Ratio (z) = -1.04620 -1.04699
#
# Static dielectric constant tensor:
#      x y z
#    x 3.277390 0.000000 0.000000 
#    y 0.000000 3.277430 0.000000 
#    z 0.000000 0.000000 2.958840 
# 
# 
# High freq. dielectric constant tensor:
#      x y z
#    x 1.608890 0.000000 0.000000 
#    y 0.000000 1.608890 0.000000 
#    z 0.000000 0.000000 1.595040 
# 
# From -- ./inp_files/8978.got.cif
#   From: 2010.03.12/outbox.cif.g09.slc.cpg/sg119_5_cif.got.tgz:8978.got - 2010.04.14 02:25:26.
