data_PCOD8310845
_publ_section_title
;
Structure prediction by ZEFSAII (Michael W. Deem and Ramdas Pophale) SiO2 
 PCOD8310845
Probable space group: I -4 M 2
;
_chemical_formula_sum "Si O2"
_cell_formula_units_Z 96
_cell_length_a 14.876490
_cell_length_b 14.876490
_cell_length_c 19.888330
_cell_angle_alpha 90.000000
_cell_angle_beta 90.000000
_cell_angle_gamma 90.000000
_cell_volume 4401.485412
_symmetry_space_group_name_H-M "I -4 M 2"
_symmetry_group_IT_number 119
_symmetry_cell_setting 'tetragonal'
loop_
_space_group_symop_operation_xyz
x,y,z
y,-x,-z
-x,-y,z
-y,x,-z
y,x,-z
-y,-x,-z
-x,y,z
x,-y,z
1/2+x,1/2+y,1/2+z
1/2+y,1/2-x,1/2-z
1/2-x,1/2-y,1/2+z
1/2-y,1/2+x,1/2-z
1/2+y,1/2+x,1/2-z
1/2-y,1/2-x,1/2-z
1/2-x,1/2+y,1/2+z
1/2+x,1/2-y,1/2+z
loop_
_atom_site_type_symbol
_atom_site_label
_atom_site_fract_x
_atom_site_fract_y
_atom_site_fract_z
Si Si1 0.282999 0.606514 0.683950
Si Si2 0.895900 0.103556 0.688132
Si Si3 0.903468 0.836244 0.064187
Si Si4 0.903255 0.604653 0.637372
Si Si5 0.793327 0.899820 0.554591
Si Si6 0.136482 0.398684 0.482697
O O1 0.289723 0.500000 0.673904
O O2 0.332958 0.637157 0.751287
O O3 0.327774 0.651310 0.619336
O O4 0.178897 0.640650 0.683343
O O5 0.833561 0.131097 0.625860
O O6 0.000000 0.121400 0.669792
O O7 0.881368 0.000000 0.709289
O O8 0.893704 0.741022 0.028762
O O9 0.000000 0.848118 0.100373
O O10 0.901846 0.901846 0.000000
O O11 0.911909 0.500000 0.650456
O O12 0.885115 0.623602 0.559597
O O13 0.000000 0.650029 0.658079
O O14 0.828246 0.828246 0.500000
O O15 0.684157 0.905274 0.559709
O O16 0.829689 0.000000 0.537391
O O17 0.099769 0.500000 0.463498
#
# Coordination Sequence:
#
# PCOD8310845 Si02
#       6
#    16  16  16  16  16  16
#     4  10  19  33  56  88 127 168 208 256 317 384
#     4   9  19  37  60  90 130 170 207 254 319 386
#     4  11  20  31  51  84 126 166 208 257 310 372
#     4   9  17  31  54  85 123 167 209 249 301 369
#     4  11  23  39  65  96 126 164 214 266 319 378
#     4  10  21  38  59  88 127 166 208 262 317 368
#
# _framework density 21.810818000000001
#
# number of rings (size 3 to 8) (size 9 to 14) (size 15 to 20)
#    0.000    2.000    1.667    2.500    0.000    3.667 
#    0.000    0.833    0.000    1.000    0.000    3.500 
#    0.000   10.667    0.000    0.000    0.000    0.000 
#
# Total GULP energy -594840.199488 kJ/mol
# GULP energy per Si atom -12392.504156 kJ/mol
# Density = 2.176118 g / cm^3
# Si number density = 21.810818 Si / 1000 Ang^3
#
#
#
# Elastic Constant Matrix: (Units=GPa)
#
#
# Indices 1 2 3 4 5 6 
#
# 1 120.7532 38.6930 66.0715 0.0000 0.0000 0.0000
# 2 38.6930 120.7532 66.0715 0.0000 0.0000 0.0000
# 3 66.0715 66.0715 129.7556 0.0000 0.0000 0.0000
# 4 0.0000 0.0000 0.0000 20.2788 0.0000 0.0000
# 5 0.0000 0.0000 0.0000 0.0000 20.2788 0.0000
# 6 0.0000 0.0000 0.0000 0.0000 0.0000 18.4980
#
#
#
# Elastic Compliance Matrix: (Units=1/GPa)
#
#
# Indices 1 2 3 4 5 6 
#
# 1 0.011518 -0.000668 -0.005525 0.000000 0.000000 0.000000
# 2 -0.000668 0.011518 -0.005525 0.000000 0.000000 0.000000
# 3 -0.005525 -0.005525 0.013334 0.000000 0.000000 0.000000
# 4 0.000000 0.000000 0.000000 0.049313 0.000000 0.000000
# 5 0.000000 0.000000 0.000000 0.000000 0.049313 0.000000
# 6 0.000000 0.000000 0.000000 0.000000 0.000000 0.054060
#
#
# Mechanical properties :
#
#
# Convention : Reuss Voigt Hill
#
# Bulk Modulus (GPa) = 77.31325 79.21488 78.26406
# Shear Modulus (GPa) = 23.06237 25.17286 24.11762
#
# Velocity S-wave (km/s) = 3.25527 3.40096 3.32891
# Velocity P-wave (km/s) = 7.04650 7.19861 7.12296
#
# Compressibility (1/GPa) = 0.01293439
#
# Stress axis : x y z
#
# Youngs Moduli (GPa) = 86.81687 86.81686 74.99797
#
# Poissons Ratio (x) = 0.05797 0.41438
# Poissons Ratio (y) = 0.05797 0.41438
# Poissons Ratio (z) = 0.47968 0.47968
#
# Static dielectric constant tensor:
#      x y z
#    x 4.236830 0.000000 0.000000 
#    y 0.000000 4.236830 0.000000 
#    z 0.000000 0.000000 3.709430 
# 
# 
# High freq. dielectric constant tensor:
#      x y z
#    x 1.861290 0.000000 0.000000 
#    y 0.000000 1.861290 0.000000 
#    z 0.000000 0.000000 1.837170 
# 
# From -- ./inp_files/7787.got.cif
#   From: 2010.03.12/outbox.cif.g09.slc.cpg/sg119_4_cif.got.tgz:7787.got - 2010.04.14 02:25:26.
