data_PCOD8310118
_publ_section_title
;
Structure prediction by ZEFSAII (Michael W. Deem and Ramdas Pophale) SiO2 
 PCOD8310118
Probable space group: P -4 C 2
;
_chemical_formula_sum "Si O2"
_cell_formula_units_Z 56
_cell_length_a 20.532093
_cell_length_b 20.532093
_cell_length_c 8.752018
_cell_angle_alpha 90.000000
_cell_angle_beta 90.000000
_cell_angle_gamma 90.000000
_cell_volume 3689.560598
_symmetry_space_group_name_H-M "P -4 C 2"
_symmetry_group_IT_number 116
_symmetry_cell_setting 'tetragonal'
loop_
_space_group_symop_operation_xyz
x,y,z
y,-x,-z
-x,-y,z
-y,x,-z
y,x,1/2-z
-y,-x,1/2-z
-x,y,1/2+z
x,-y,1/2+z
loop_
_atom_site_type_symbol
_atom_site_label
_atom_site_fract_x
_atom_site_fract_y
_atom_site_fract_z
Si Si1 0.307357 0.879744 0.563515
Si Si2 0.007143 0.775454 0.049942
Si Si3 0.433849 0.069459 0.557780
Si Si4 0.309764 0.121229 0.410710
Si Si5 0.203544 0.212751 0.917683
Si Si6 0.432761 0.928059 0.419163
Si Si7 0.152743 0.068519 0.673890
O O1 0.328450 0.865074 0.736238
O O2 0.259928 0.823353 0.508347
O O3 0.372551 0.881171 0.460789
O O4 0.269750 0.948444 0.556157
O O5 0.941817 0.736206 0.084565
O O6 0.047325 0.793518 0.200795
O O7 0.986250 0.842243 0.958556
O O8 0.374564 0.114880 0.510106
O O9 0.500203 0.099913 0.489055
O O10 0.439396 0.064939 0.738846
O O11 0.419651 0.998393 0.491165
O O12 0.275250 0.184255 0.483049
O O13 0.231255 0.231255 0.750000
O O14 0.139092 0.168537 0.897847
O O15 0.080307 0.080307 0.750000
#
# Coordination Sequence:
#
# PCOD8310118 Si02
#       7
#     8   8   8   8   8   8   8
#     4  12  20  33  49  73  95 118 153 194 240 283
#     4  11  20  31  49  69  85 113 144 185 240 288
#     4  11  21  34  46  70  95 129 157 188 234 282
#     4  11  22  32  51  71  95 119 158 192 241 286
#     4  10  20  33  50  71  94 115 151 198 237 285
#     4  11  22  32  49  67  99 126 157 192 230 288
#     4  10  20  35  49  69  85 109 145 191 240 300
#
# _framework density 15.177959
#
# number of rings (size 3 to 8) (size 9 to 14) (size 15 to 20)
#    0.000    1.143    5.714    4.714    2.000    0.000 
#    0.000    0.714    0.000    1.286    0.000    0.000 
#    0.000    0.000    0.000    0.000    0.000    0.714 
#
# Total GULP energy -694124.981508 kJ/mol
# GULP energy per Si atom -12395.088956 kJ/mol
# Density = 1.514341 g / cm^3
# Si number density = 15.177959 Si / 1000 Ang^3
#
#
#
# Elastic Constant Matrix: (Units=GPa)
#
#
# Indices 1 2 3 4 5 6 
#
# 1 66.6490 44.8837 32.7155 0.0000 0.0000 0.0000
# 2 44.8837 66.6490 32.7155 0.0000 0.0000 0.0000
# 3 32.7155 32.7155 122.2975 0.0000 0.0000 0.0000
# 4 0.0000 0.0000 0.0000 23.3832 0.0000 0.0000
# 5 0.0000 0.0000 0.0000 0.0000 23.3832 0.0000
# 6 0.0000 0.0000 0.0000 0.0000 0.0000 13.9925
#
#
#
# Elastic Compliance Matrix: (Units=1/GPa)
#
#
# Indices 1 2 3 4 5 6 
#
# 1 0.028290 -0.017655 -0.002845 0.000000 0.000000 0.000000
# 2 -0.017655 0.028290 -0.002845 0.000000 0.000000 0.000000
# 3 -0.002845 -0.002845 0.009699 0.000000 0.000000 0.000000
# 4 0.000000 0.000000 0.000000 0.042766 0.000000 0.000000
# 5 0.000000 0.000000 0.000000 0.000000 0.042766 0.000000
# 6 0.000000 0.000000 0.000000 0.000000 0.000000 0.071467
#
#
# Mechanical properties :
#
#
# Convention : Reuss Voigt Hill
#
# Bulk Modulus (GPa) = 51.04888 52.91388 51.98138
# Shear Modulus (GPa) = 18.08340 21.83713 19.96026
#
# Velocity S-wave (km/s) = 3.45545 3.79719 3.63034
# Velocity P-wave (km/s) = 7.04462 7.35954 7.20380
#
# Compressibility (1/GPa) = 0.01958907
#
# Stress axis : x y z
#
# Youngs Moduli (GPa) = 35.34829 35.34829 103.10477
#
# Poissons Ratio (x) = 0.62407 0.29333
# Poissons Ratio (y) = 0.62407 0.29333
# Poissons Ratio (z) = 0.10056 0.10056
#
# Static dielectric constant tensor:
#      x y z
#    x 2.851870 0.000000 0.000000 
#    y 0.000000 2.851870 0.000000 
#    z 0.000000 0.000000 3.185050 
# 
# 
# High freq. dielectric constant tensor:
#      x y z
#    x 1.547700 0.000000 0.000000 
#    y 0.000000 1.547700 0.000000 
#    z 0.000000 0.000000 1.608600 
# 
# From -- ./inp_files/1115.got.cif
#   From: 2010.03.12/outbox.cif.g09.slc.cpg/sg116_1_cif.got.tgz:1115.got - 2010.04.14 02:15:44.
