data_PCOD8310701
_publ_section_title
;
Structure prediction by ZEFSAII (Michael W. Deem and Ramdas Pophale) SiO2 
 PCOD8310701
Probable space group: I -4 M 2
;
_chemical_formula_sum "Si O2"
_cell_formula_units_Z 88
_cell_length_a 30.665691
_cell_length_b 30.665691
_cell_length_c 5.421535
_cell_angle_alpha 90.000000
_cell_angle_beta 90.000000
_cell_angle_gamma 90.000000
_cell_volume 5098.328047
_symmetry_space_group_name_H-M "I -4 M 2"
_symmetry_group_IT_number 119
_symmetry_cell_setting 'tetragonal'
loop_
_space_group_symop_operation_xyz
x,y,z
y,-x,-z
-x,-y,z
-y,x,-z
y,x,-z
-y,-x,-z
-x,y,z
x,-y,z
1/2+x,1/2+y,1/2+z
1/2+y,1/2-x,1/2-z
1/2-x,1/2-y,1/2+z
1/2-y,1/2+x,1/2-z
1/2+y,1/2+x,1/2-z
1/2-y,1/2-x,1/2-z
1/2-x,1/2+y,1/2+z
1/2+x,1/2-y,1/2+z
loop_
_atom_site_type_symbol
_atom_site_label
_atom_site_fract_x
_atom_site_fract_y
_atom_site_fract_z
Si Si1 0.828364 0.171637 0.000000
Si Si2 0.449987 0.242098 0.430924
Si Si3 0.050702 0.839401 0.363891
Si Si4 0.590355 0.755560 0.933462
Si Si5 0.747838 0.314378 0.154730
Si Si6 0.660581 0.579465 0.639367
O O1 0.832393 0.218478 0.124049
O O2 0.869109 0.168726 0.811433
O O3 0.500000 0.228644 0.462326
O O4 0.424337 0.223020 0.671910
O O5 0.445966 0.294425 0.418948
O O6 0.432213 0.222048 0.172501
O O7 0.077054 0.795111 0.421459
O O8 0.071576 0.864640 0.125302
O O9 0.000000 0.830594 0.320320
O O10 0.058910 0.865018 0.624526
O O11 0.642019 0.761422 0.989934
O O12 0.791440 0.291440 0.250000
O O13 0.720431 0.279570 0.000000
#
# Coordination Sequence:
#
# PCOD8310701 Si02
#       6
#     8  16  16  16  16  16
#     4  12  22  36  44  62  90 120 164 199 228 260
#     4  10  17  31  50  69  86 105 136 184 247 300
#     4  10  17  30  47  65  83 103 137 179 233 286
#     4  10  19  31  45  67  86 106 148 196 232 282
#     4  12  24  35  48  60  86 131 176 213 235 258
#     4  10  19  28  45  63  85 110 137 182 218 278
#
# _framework density 17.260560000000002
#
# number of rings (size 3 to 8) (size 9 to 14) (size 15 to 20)
#    0.000    1.455    4.545    7.636    0.000    0.000 
#    0.000    0.000    0.000    0.000    0.000    0.000 
#    0.000    0.000    0.000    0.000    0.000   88.636 
#
# Total GULP energy -545099.032369 kJ/mol
# GULP energy per Si atom -12388.614372 kJ/mol
# Density = 1.722127 g / cm^3
# Si number density = 17.260560 Si / 1000 Ang^3
#
#
#
# Elastic Constant Matrix: (Units=GPa)
#
#
# Indices 1 2 3 4 5 6 
#
# 1 44.0116 37.3070 19.5883 0.0000 0.0000 0.0000
# 2 37.3070 44.0055 19.5825 0.0000 0.0000 0.0000
# 3 19.5883 19.5825 154.9215 0.0000 0.0000 0.0000
# 4 0.0000 0.0000 0.0000 18.4778 0.0000 0.0000
# 5 0.0000 0.0000 0.0000 0.0000 18.4770 0.0000
# 6 0.0000 0.0000 0.0000 0.0000 0.0000 -0.1160
#
#
#
# Elastic Compliance Matrix: (Units=1/GPa)
#
#
# Indices 1 2 3 4 5 6 
#
# 1 0.081153 -0.068062 -0.001658 0.000000 0.000000 0.000000
# 2 -0.068062 0.081162 -0.001653 0.000000 0.000000 0.000000
# 3 -0.001658 -0.001653 0.006873 0.000000 0.000000 0.000000
# 4 0.000000 0.000000 0.000000 0.054119 0.000000 0.000000
# 5 0.000000 0.000000 0.000000 0.000000 0.054121 0.000000
# 6 0.000000 0.000000 0.000000 0.000000 0.000000 -8.621388
#
#
# Mechanical properties :
#
#
# Convention : Reuss Voigt Hill
#
# Bulk Modulus (GPa) = 37.81879 43.98827 40.90353
# Shear Modulus (GPa) = -0.61032 18.46515 8.92742
#
# Velocity S-wave (km/s) = -0.59528 3.27431 2.27670
# Velocity P-wave (km/s) = 4.63526 6.31150 5.53717
#
# Compressibility (1/GPa) = 0.02644188
#
# Stress axis : x y z
#
# Youngs Moduli (GPa) = 12.32247 12.32110 145.48698
#
# Poissons Ratio (x) = 0.83860 0.24118
# Poissons Ratio (y) = 0.83869 0.24053
# Poissons Ratio (z) = 0.02043 0.02037
#
# Static dielectric constant tensor:
#      x y z
#    x 2.855870 0.000000 0.000000 
#    y 0.000000 2.855870 0.000000 
#    z 0.000000 0.000000 4.720940 
# 
# 
# High freq. dielectric constant tensor:
#      x y z
#    x 1.608940 0.000000 0.000000 
#    y 0.000000 1.608940 0.000000 
#    z 0.000000 0.000000 1.705560 
# 
# From -- ./inp_files/1105.got.cif
#   From: 2010.03.12/outbox.cif.g09.slc.cpg/sg119_1_cif.got.tgz:1105.got - 2010.04.14 02:25:26.
