data_PCOD8310427
_publ_section_title
;
Structure prediction by ZEFSAII (Michael W. Deem and Ramdas Pophale) SiO2 
 PCOD8310427
Probable space group: P -4 N 2
;
_chemical_formula_sum "Si O2"
_cell_formula_units_Z 46
_cell_length_a 17.005080
_cell_length_b 17.005080
_cell_length_c 7.676904
_cell_angle_alpha 90.000000
_cell_angle_beta 90.000000
_cell_angle_gamma 90.000000
_cell_volume 2219.951409
_symmetry_space_group_name_H-M "P -4 N 2"
_symmetry_group_IT_number 118
_symmetry_cell_setting 'tetragonal'
loop_
_space_group_symop_operation_xyz
x,y,z
y,-x,-z
-x,-y,z
-y,x,-z
1/2+y,1/2+x,1/2-z
1/2-y,1/2-x,1/2-z
1/2-x,1/2+y,1/2+z
1/2+x,1/2-y,1/2+z
loop_
_atom_site_type_symbol
_atom_site_label
_atom_site_fract_x
_atom_site_fract_y
_atom_site_fract_z
Si Si1 0.438186 0.389857 0.457077
Si Si2 0.500000 0.000000 0.250000
Si Si3 0.110668 0.052055 0.446390
Si Si4 0.712382 0.381900 0.231978
Si Si5 0.582530 0.111050 0.484082
Si Si6 0.361116 0.019258 0.709546
Si Si7 0.300015 0.800015 0.250000
O O1 0.395520 0.468865 0.517052
O O2 0.420313 0.375262 0.252583
O O3 0.406093 0.320079 0.577970
O O4 0.491298 0.919077 0.363969
O O5 0.184165 0.069167 0.566093
O O6 0.040589 0.096406 0.546252
O O7 0.803118 0.406455 0.220040
O O8 0.692001 0.291068 0.196378
O O9 0.545766 0.158533 0.644151
O O10 0.640968 0.176145 0.404367
O O11 0.633245 0.031804 0.531293
O O12 0.447671 0.052330 0.750000
#
# Coordination Sequence:
#
# PCOD8310427 Si02
#       7
#     8   2   8   8   8   8   4
#     4  11  21  39  65  95 126 176 232 265 310 403
#     4  10  16  38  68 100 112 152 220 294 288 414
#     4  11  21  39  65  95 126 176 232 265 310 403
#     4  12  26  43  63  95 146 171 216 284 355 387
#     4  10  22  41  73  94 127 170 236 262 343 400
#     4  11  22  45  69  96 124 181 224 287 327 396
#     4  11  28  43  60 105 142 165 206 292 352 403
#
# _framework density 20.721174999999999
#
# number of rings (size 3 to 8) (size 9 to 14) (size 15 to 20)
#    0.000    1.043    6.087    1.565    4.870    0.000 
#    6.261    0.000    0.000    0.000    0.000    0.000 
#    0.000    0.000    0.000    0.000    0.000    0.000 
#
# Total GULP energy -569862.971531 kJ/mol
# GULP energy per Si atom -12388.325468 kJ/mol
# Density = 2.067401 g / cm^3
# Si number density = 20.721175 Si / 1000 Ang^3
#
#
#
# Elastic Constant Matrix: (Units=GPa)
#
#
# Indices 1 2 3 4 5 6 
#
# 1 96.8003 14.2775 16.3121 0.0000 0.0000 0.0000
# 2 14.2775 96.8040 16.3128 0.0000 0.0000 0.0000
# 3 16.3121 16.3128 123.4006 0.0000 0.0000 0.0000
# 4 0.0000 0.0000 0.0000 22.8234 0.0000 0.0000
# 5 0.0000 0.0000 0.0000 0.0000 22.8240 0.0000
# 6 0.0000 0.0000 0.0000 0.0000 0.0000 31.8974
#
#
#
# Elastic Compliance Matrix: (Units=1/GPa)
#
#
# Indices 1 2 3 4 5 6 
#
# 1 0.010742 -0.001376 -0.001238 0.000000 0.000000 0.000000
# 2 -0.001376 0.010742 -0.001238 0.000000 0.000000 0.000000
# 3 -0.001238 -0.001238 0.008431 0.000000 0.000000 0.000000
# 4 0.000000 0.000000 0.000000 0.043815 0.000000 0.000000
# 5 0.000000 0.000000 0.000000 0.000000 0.043814 0.000000
# 6 0.000000 0.000000 0.000000 0.000000 0.000000 0.031351
#
#
# Mechanical properties :
#
#
# Convention : Reuss Voigt Hill
#
# Bulk Modulus (GPa) = 45.02293 45.64554 45.33424
# Shear Modulus (GPa) = 30.48759 33.51579 32.00169
#
# Velocity S-wave (km/s) = 3.83995 4.02614 3.93414
# Velocity P-wave (km/s) = 6.43703 6.60979 6.52398
#
# Compressibility (1/GPa) = 0.02221090
#
# Stress axis : x y z
#
# Youngs Moduli (GPa) = 93.09173 93.09522 118.60955
#
# Poissons Ratio (x) = 0.12807 0.14685
# Poissons Ratio (y) = 0.12807 0.14685
# Poissons Ratio (z) = 0.11526 0.11526
#
# Static dielectric constant tensor:
#      x y z
#    x 3.608880 0.000000 0.000000 
#    y 0.000000 3.608870 0.000000 
#    z 0.000000 0.000000 3.943080 
# 
# 
# High freq. dielectric constant tensor:
#      x y z
#    x 1.801110 0.000000 0.000000 
#    y 0.000000 1.801110 0.000000 
#    z 0.000000 0.000000 1.820700 
# 
# From -- ./inp_files/2143.got.cif
#   From: 2010.03.12/outbox.cif.g09.slc.cpg/sg118_2_cif.got.tgz:2143.got - 2010.04.14 02:21:17.
