data_PCOD8310124
_publ_section_title
;
Structure prediction by ZEFSAII (Michael W. Deem and Ramdas Pophale) SiO2 
 PCOD8310124
Probable space group: P -4 C 2
;
_chemical_formula_sum "Si O2"
_cell_formula_units_Z 40
_cell_length_a 14.664897
_cell_length_b 14.664897
_cell_length_c 9.099401
_cell_angle_alpha 90.000000
_cell_angle_beta 90.000000
_cell_angle_gamma 90.000000
_cell_volume 1956.909936
_symmetry_space_group_name_H-M "P -4 C 2"
_symmetry_group_IT_number 116
_symmetry_cell_setting 'tetragonal'
loop_
_space_group_symop_operation_xyz
x,y,z
y,-x,-z
-x,-y,z
-y,x,-z
y,x,1/2-z
-y,-x,1/2-z
-x,y,1/2+z
x,-y,1/2+z
loop_
_atom_site_type_symbol
_atom_site_label
_atom_site_fract_x
_atom_site_fract_y
_atom_site_fract_z
Si Si1 0.815265 0.385796 0.000769
Si Si2 0.766382 0.889515 0.436299
Si Si3 0.366799 0.720552 0.980247
Si Si4 0.765364 0.507876 0.763973
Si Si5 0.233884 0.066976 0.112676
O O1 0.826765 0.429200 0.160177
O O2 0.709354 0.357580 0.972847
O O3 0.836196 0.457681 0.871813
O O4 0.889552 0.308468 0.994305
O O5 0.689518 0.815989 0.481333
O O6 0.734749 0.933300 0.282063
O O7 0.868664 0.852943 0.412249
O O8 0.779402 0.963344 0.564131
O O9 0.434269 0.711341 0.838798
O O10 0.425748 0.705082 0.129839
#
# Coordination Sequence:
#
# PCOD8310124 Si02
#       5
#     8   8   8   8   8
#     4  10  20  38  60  84 116 155 193 234 287 343
#     4  10  22  40  61  86 118 153 190 234 283 338
#     4  10  20  38  60  84 116 155 193 234 287 343
#     4  10  20  34  61  87 112 152 198 234 284 343
#     4  10  22  40  61  86 118 153 190 234 283 338
#
# _framework density 20.440389
#
# number of rings (size 3 to 8) (size 9 to 14) (size 15 to 20)
#    0.000    2.000    2.000    1.200    2.800    1.200 
#    0.000    8.000    0.000   42.000    0.000    0.000 
#    0.000    0.000    0.000    0.000    0.000    0.000 
#
# Total GULP energy -495609.611947 kJ/mol
# GULP energy per Si atom -12390.240299 kJ/mol
# Density = 2.039387 g / cm^3
# Si number density = 20.440389 Si / 1000 Ang^3
#
#
#
# Elastic Constant Matrix: (Units=GPa)
#
#
# Indices 1 2 3 4 5 6 
#
# 1 84.0821 14.2750 33.7934 0.0000 0.0000 0.0000
# 2 14.2750 84.0821 33.7934 0.0000 0.0000 0.0000
# 3 33.7934 33.7934 134.5269 0.0000 0.0000 0.0000
# 4 0.0000 0.0000 0.0000 30.0117 0.0000 0.0000
# 5 0.0000 0.0000 0.0000 0.0000 30.0117 0.0000
# 6 0.0000 0.0000 0.0000 0.0000 0.0000 6.1808
#
#
#
# Elastic Compliance Matrix: (Units=1/GPa)
#
#
# Indices 1 2 3 4 5 6 
#
# 1 0.013307 -0.001019 -0.003087 0.000000 0.000000 0.000000
# 2 -0.001019 0.013307 -0.003087 0.000000 0.000000 0.000000
# 3 -0.003087 -0.003087 0.008984 0.000000 0.000000 0.000000
# 4 0.000000 0.000000 0.000000 0.033320 0.000000 0.000000
# 5 0.000000 0.000000 0.000000 0.000000 0.033320 0.000000
# 6 0.000000 0.000000 0.000000 0.000000 0.000000 0.161790
#
#
# Mechanical properties :
#
#
# Convention : Reuss Voigt Hill
#
# Bulk Modulus (GPa) = 47.14010 51.82385 49.48197
# Shear Modulus (GPa) = 17.51412 27.96280 22.73846
#
# Velocity S-wave (km/s) = 2.93036 3.70268 3.33893
# Velocity P-wave (km/s) = 5.87891 6.60973 6.25500
#
# Compressibility (1/GPa) = 0.02121336
#
# Stress axis : x y z
#
# Youngs Moduli (GPa) = 75.15029 75.15029 111.30558
#
# Poissons Ratio (x) = 0.07654 0.34358
# Poissons Ratio (y) = 0.07654 0.34358
# Poissons Ratio (z) = 0.23197 0.23197
#
# Static dielectric constant tensor:
#      x y z
#    x 3.560010 0.000000 0.000000 
#    y 0.000000 3.560010 0.000000 
#    z 0.000000 0.000000 3.934830 
# 
# 
# High freq. dielectric constant tensor:
#      x y z
#    x 1.780610 0.000000 0.000000 
#    y 0.000000 1.780610 0.000000 
#    z 0.000000 0.000000 1.821200 
# 
# From -- ./inp_files/765.got.cif
#   From: 2010.03.12/outbox.cif.g09.slc.cpg/sg116_1_cif.got.tgz:765.got - 2010.04.14 02:15:44.
