data_PCOD8310614
_publ_section_title
;
Structure prediction by ZEFSAII (Michael W. Deem and Ramdas Pophale) SiO2 
 PCOD8310614
Probable space group: P -4 N 2
;
_chemical_formula_sum "Si O2"
_cell_formula_units_Z 34
_cell_length_a 14.056465
_cell_length_b 14.056465
_cell_length_c 8.497718
_cell_angle_alpha 90.000000
_cell_angle_beta 90.000000
_cell_angle_gamma 90.000000
_cell_volume 1679.014883
_symmetry_space_group_name_H-M "P -4 N 2"
_symmetry_group_IT_number 118
_symmetry_cell_setting 'tetragonal'
loop_
_space_group_symop_operation_xyz
x,y,z
y,-x,-z
-x,-y,z
-y,x,-z
1/2+y,1/2+x,1/2-z
1/2-y,1/2-x,1/2-z
1/2-x,1/2+y,1/2+z
1/2+x,1/2-y,1/2+z
loop_
_atom_site_type_symbol
_atom_site_label
_atom_site_fract_x
_atom_site_fract_y
_atom_site_fract_z
Si Si1 0.500000 0.500000 0.500000
Si Si2 0.894364 0.252971 0.313697
Si Si3 0.246247 0.607505 0.815819
Si Si4 0.574594 0.311661 0.650569
Si Si5 0.102690 0.251928 0.808918
O O1 0.528300 0.412883 0.610580
O O2 0.852196 0.352196 0.250000
O O3 0.881660 0.248786 0.498846
O O4 0.838598 0.165347 0.236676
O O5 0.004309 0.246376 0.264956
O O6 0.145311 0.645311 0.750000
O O7 0.327263 0.673331 0.740533
O O8 0.260174 0.498854 0.770335
O O9 0.592480 0.247158 0.497134
O O10 0.150436 0.349565 0.750000
#
# Coordination Sequence:
#
# PCOD8310614 Si02
#       5
#     2   8   8   8   8
#     4  12  20  36  66  96 124 168 198 268 320 360
#     4  11  23  40  63  95 128 163 209 259 316 382
#     4  12  24  40  63  92 124 170 215 258 311 377
#     4  12  21  40  66  93 128 165 208 263 318 375
#     4  11  22  40  62  90 125 164 204 263 321 374
#
# _framework density 20.249969
#
# number of rings (size 3 to 8) (size 9 to 14) (size 15 to 20)
#    0.000    0.471    4.706    5.647    0.000    0.471 
#    0.000    2.353    0.000    4.941    0.000    0.000 
#    0.000    0.000    0.000    0.000    0.000    0.000 
#
# Total GULP energy -421807.726384 kJ/mol
# GULP energy per Si atom -12406.109600 kJ/mol
# Density = 2.020388 g / cm^3
# Si number density = 20.249969 Si / 1000 Ang^3
#
#
#
# Elastic Constant Matrix: (Units=GPa)
#
#
# Indices 1 2 3 4 5 6 
#
# 1 65.1310 18.1207 -1.6999 0.0000 0.0000 0.0000
# 2 18.1207 65.1307 -1.6962 0.0000 0.0000 0.0000
# 3 -1.6999 -1.6962 79.8700 0.0000 0.0000 0.0000
# 4 0.0000 0.0000 0.0000 33.7404 0.0000 0.0000
# 5 0.0000 0.0000 0.0000 0.0000 33.7412 0.0000
# 6 0.0000 0.0000 0.0000 0.0000 0.0000 34.1547
#
#
#
# Elastic Compliance Matrix: (Units=1/GPa)
#
#
# Indices 1 2 3 4 5 6 
#
# 1 0.016647 -0.004625 0.000256 0.000000 0.000000 0.000000
# 2 -0.004625 0.016647 0.000255 0.000000 0.000000 0.000000
# 3 0.000256 0.000255 0.012531 0.000000 0.000000 0.000000
# 4 0.000000 0.000000 0.000000 0.029638 0.000000 0.000000
# 5 0.000000 0.000000 0.000000 0.000000 0.029637 0.000000
# 6 0.000000 0.000000 0.000000 0.000000 0.000000 0.029279
#
#
# Mechanical properties :
#
#
# Convention : Reuss Voigt Hill
#
# Bulk Modulus (GPa) = 26.59714 26.62009 26.60861
# Shear Modulus (GPa) = 32.22905 33.35439 32.79172
#
# Velocity S-wave (km/s) = 3.99376 4.06289 4.02848
# Velocity P-wave (km/s) = 5.86769 5.93159 5.89973
#
# Compressibility (1/GPa) = 0.03759803
#
# Stress axis : x y z
#
# Youngs Moduli (GPa) = 60.07053 60.07037 79.80076
#
# Poissons Ratio (x) = 0.27782 -0.02044
# Poissons Ratio (y) = 0.27782 -0.02036
# Poissons Ratio (z) = -0.01538 -0.01532
#
# Static dielectric constant tensor:
#      x y z
#    x 3.588590 0.000000 0.000000 
#    y 0.000000 3.588600 0.000000 
#    z 0.000000 0.000000 3.736520 
# 
# 
# High freq. dielectric constant tensor:
#      x y z
#    x 1.791200 0.000000 0.000000 
#    y 0.000000 1.791200 0.000000 
#    z 0.000000 0.000000 1.806250 
# 
# From -- ./inp_files/1657.got.cif
#   From: 2010.03.12/outbox.cif.g09.slc.cpg/sg118_1_cif.got.tgz:1657.got - 2010.04.14 02:21:17.
