data_PCOD8310886
_publ_section_title
;
Structure prediction by ZEFSAII (Michael W. Deem and Ramdas Pophale) SiO2 
 PCOD8310886
Probable space group: I -4 M 2
;
_chemical_formula_sum "Si O2"
_cell_formula_units_Z 112
_cell_length_a 14.441788
_cell_length_b 14.441788
_cell_length_c 29.003970
_cell_angle_alpha 90.000000
_cell_angle_beta 90.000000
_cell_angle_gamma 90.000000
_cell_volume 6049.219982
_symmetry_space_group_name_H-M "I -4 M 2"
_symmetry_group_IT_number 119
_symmetry_cell_setting 'tetragonal'
loop_
_space_group_symop_operation_xyz
x,y,z
y,-x,-z
-x,-y,z
-y,x,-z
y,x,-z
-y,-x,-z
-x,y,z
x,-y,z
1/2+x,1/2+y,1/2+z
1/2+y,1/2-x,1/2-z
1/2-x,1/2-y,1/2+z
1/2-y,1/2+x,1/2-z
1/2+y,1/2+x,1/2-z
1/2-y,1/2-x,1/2-z
1/2-x,1/2+y,1/2+z
1/2+x,1/2-y,1/2+z
loop_
_atom_site_type_symbol
_atom_site_label
_atom_site_fract_x
_atom_site_fract_y
_atom_site_fract_z
Si Si1 0.605315 0.605315 0.000000
Si Si2 0.778744 0.606475 0.938040
Si Si3 0.742590 0.892597 0.332043
Si Si4 0.760810 0.396660 0.305840
Si Si5 0.392124 0.107877 0.250000
Si Si6 0.603651 0.605694 0.375014
Si Si7 0.737990 0.395427 0.199051
Si Si8 0.893383 0.775317 0.965013
O O1 0.675033 0.625187 0.957452
O O2 0.619202 0.500000 0.018301
O O3 0.807636 0.500000 0.946952
O O4 0.787144 0.630898 0.884042
O O5 0.851129 0.672091 0.964436
O O6 0.665255 0.858477 0.295094
O O7 0.841262 0.846759 0.323014
O O8 0.759456 0.000000 0.325894
O O9 0.791527 0.500000 0.318969
O O10 0.673637 0.362694 0.335363
O O11 0.727433 0.390355 0.253674
O O12 0.849359 0.334097 0.316779
O O13 0.500000 0.125752 0.260830
O O14 0.500000 0.613726 0.354906
O O15 0.622766 0.500000 0.391370
O O16 0.618009 0.676392 0.416108
O O17 0.736703 0.500000 0.180568
O O18 0.000000 0.768244 0.980329
O O19 0.838733 0.838733 0.000000
#
# Coordination Sequence:
#
# PCOD8310886 Si02
#       8
#     8  16  16  16   8  16  16  16
#     4   9  18  36  62  84 105 140 188 242 295 342
#     4  10  21  38  58  82 110 143 187 232 279 333
#     4  10  21  35  54  81 113 147 185 226 269 327
#     4   9  18  33  52  73 101 138 182 227 269 319
#     4   9  18  34  56  82 116 155 186 218 268 331
#     4   9  18  33  54  79 105 136 175 217 262 320
#     4  10  20  33  49  72 104 141 180 225 275 319
#     4  11  22  36  56  82 111 142 174 214 270 325
#
# _framework density 18.514783999999999
#
# number of rings (size 3 to 8) (size 9 to 14) (size 15 to 20)
#    0.000    2.286    0.714    2.143    0.000    3.286 
#    0.000    9.286    0.000    0.000    0.000    2.000 
#    0.000    0.000    0.000    0.000    0.000    0.000 
#
# Total GULP energy -694374.757320 kJ/mol
# GULP energy per Si atom -12399.549238 kJ/mol
# Density = 1.847264 g / cm^3
# Si number density = 18.514784 Si / 1000 Ang^3
#
#
#
# Elastic Constant Matrix: (Units=GPa)
#
#
# Indices 1 2 3 4 5 6 
#
# 1 113.2649 71.3033 55.9365 0.0000 0.0000 0.0000
# 2 71.3033 113.2640 55.9366 0.0000 0.0000 0.0000
# 3 55.9365 55.9366 81.0972 0.0000 0.0000 0.0000
# 4 0.0000 0.0000 0.0000 27.5770 0.0000 0.0000
# 5 0.0000 0.0000 0.0000 0.0000 27.5769 0.0000
# 6 0.0000 0.0000 0.0000 0.0000 0.0000 32.7364
#
#
#
# Elastic Compliance Matrix: (Units=1/GPa)
#
#
# Indices 1 2 3 4 5 6 
#
# 1 0.016571 -0.007260 -0.006422 0.000000 0.000000 0.000000
# 2 -0.007260 0.016571 -0.006422 0.000000 0.000000 0.000000
# 3 -0.006422 -0.006422 0.021190 0.000000 0.000000 0.000000
# 4 0.000000 0.000000 0.000000 0.036262 0.000000 0.000000
# 5 0.000000 0.000000 0.000000 0.000000 0.036262 0.000000
# 6 0.000000 0.000000 0.000000 0.000000 0.000000 0.030547
#
#
# Mechanical properties :
#
#
# Convention : Reuss Voigt Hill
#
# Bulk Modulus (GPa) = 70.80491 74.88654 72.84573
# Shear Modulus (GPa) = 24.71331 25.87473 25.29402
#
# Velocity S-wave (km/s) = 3.65744 3.74239 3.70016
# Velocity P-wave (km/s) = 7.49408 7.69472 7.59506
#
# Compressibility (1/GPa) = 0.01412331
#
# Stress axis : x y z
#
# Youngs Moduli (GPa) = 60.34649 60.34554 47.19207
#
# Poissons Ratio (x) = 0.43813 0.30306
# Poissons Ratio (y) = 0.43814 0.30307
# Poissons Ratio (z) = 0.38754 0.38755
#
# Static dielectric constant tensor:
#      x y z
#    x 3.779380 0.000000 0.000000 
#    y 0.000000 3.779390 0.000000 
#    z 0.000000 0.000000 3.427020 
# 
# 
# High freq. dielectric constant tensor:
#      x y z
#    x 1.724350 0.000000 0.000000 
#    y 0.000000 1.724350 0.000000 
#    z 0.000000 0.000000 1.704980 
# 
# From -- ./inp_files/9661.got.cif
#   From: 2010.03.12/outbox.cif.g09.slc.cpg/sg119_5_cif.got.tgz:9661.got - 2010.04.14 02:25:26.
