data_PCOD8310686
_publ_section_title
;
Structure prediction by ZEFSAII (Michael W. Deem and Ramdas Pophale) SiO2 
 PCOD8310686
Probable space group: I -4 M 2
;
_chemical_formula_sum "Si O2"
_cell_formula_units_Z 80
_cell_length_a 14.402119
_cell_length_b 14.402119
_cell_length_c 25.837411
_cell_angle_alpha 90.000000
_cell_angle_beta 90.000000
_cell_angle_gamma 90.000000
_cell_volume 5359.222446
_symmetry_space_group_name_H-M "I -4 M 2"
_symmetry_group_IT_number 119
_symmetry_cell_setting 'tetragonal'
loop_
_space_group_symop_operation_xyz
x,y,z
y,-x,-z
-x,-y,z
-y,x,-z
y,x,-z
-y,-x,-z
-x,y,z
x,-y,z
1/2+x,1/2+y,1/2+z
1/2+y,1/2-x,1/2-z
1/2-x,1/2-y,1/2+z
1/2-y,1/2+x,1/2-z
1/2+y,1/2+x,1/2-z
1/2-y,1/2-x,1/2-z
1/2-x,1/2+y,1/2+z
1/2+x,1/2-y,1/2+z
loop_
_atom_site_type_symbol
_atom_site_label
_atom_site_fract_x
_atom_site_fract_y
_atom_site_fract_z
Si Si1 0.601982 0.610154 0.743909
Si Si2 0.707854 0.109511 0.202685
Si Si3 0.893075 0.604841 0.599074
Si Si4 0.608224 0.715491 0.043733
Si Si5 0.109717 0.102694 0.641481
O O1 0.500000 0.648603 0.726533
O O2 0.596084 0.500000 0.746461
O O3 0.683537 0.641094 0.704802
O O4 0.627901 0.648652 0.801419
O O5 0.653266 0.153266 0.250000
O O6 0.667038 0.140683 0.147643
O O7 0.697539 0.000000 0.209123
O O8 0.865677 0.500000 0.582252
O O9 0.877285 0.673285 0.550002
O O10 0.000000 0.609740 0.616917
O O11 0.500000 0.691023 0.031871
O O12 0.644152 0.673424 0.097960
O O13 0.674658 0.674658 0.000000
O O14 0.000000 0.106067 0.643781
O O15 0.144046 0.000000 0.625682
#
# Coordination Sequence:
#
# PCOD8310686 Si02
#       5
#    16  16  16  16  16
#     4   8  14  24  37  54  79 111 139 160 188 227
#     4  10  17  24  38  60  85 112 140 166 192 232
#     4   9  18  30  41  56  81 110 136 163 197 237
#     4  10  18  27  41  60  80 102 130 163 200 244
#     4   8  13  21  33  52  80 107 126 149 186 230
#
# _framework density 14.927538999999999
#
# number of rings (size 3 to 8) (size 9 to 14) (size 15 to 20)
#    0.000    3.000    0.000    3.600    0.000    5.200 
#    0.000    0.000    0.000    1.200    0.000    0.000 
#    0.000    0.400    0.000    0.000    0.000    0.000 
#
# Total GULP energy -495573.578957 kJ/mol
# GULP energy per Si atom -12389.339474 kJ/mol
# Density = 1.489356 g / cm^3
# Si number density = 14.927539 Si / 1000 Ang^3
#
#
#
# Elastic Constant Matrix: (Units=GPa)
#
#
# Indices 1 2 3 4 5 6 
#
# 1 60.9579 29.0756 41.8769 0.0000 0.0000 0.0000
# 2 29.0756 60.9579 41.8769 0.0000 0.0000 0.0000
# 3 41.8769 41.8769 64.4167 0.0000 0.0000 0.0000
# 4 0.0000 0.0000 0.0000 21.8555 0.0000 0.0000
# 5 0.0000 0.0000 0.0000 0.0000 21.8555 0.0000
# 6 0.0000 0.0000 0.0000 0.0000 0.0000 10.5179
#
#
#
# Elastic Compliance Matrix: (Units=1/GPa)
#
#
# Indices 1 2 3 4 5 6 
#
# 1 0.029733 -0.001632 -0.018268 0.000000 0.000000 0.000000
# 2 -0.001632 0.029733 -0.018268 0.000000 0.000000 0.000000
# 3 -0.018268 -0.018268 0.039276 0.000000 0.000000 0.000000
# 4 0.000000 0.000000 0.000000 0.045755 0.000000 0.000000
# 5 0.000000 0.000000 0.000000 0.000000 0.045755 0.000000
# 6 0.000000 0.000000 0.000000 0.000000 0.000000 0.095076
#
#
# Mechanical properties :
#
#
# Convention : Reuss Voigt Hill
#
# Bulk Modulus (GPa) = 44.63285 45.77681 45.20483
# Shear Modulus (GPa) = 13.54520 15.74601 14.64560
#
# Velocity S-wave (km/s) = 3.01557 3.25134 3.13567
# Velocity P-wave (km/s) = 6.48764 6.69533 6.59230
#
# Compressibility (1/GPa) = 0.02240502
#
# Stress axis : x y z
#
# Youngs Moduli (GPa) = 33.63236 33.63236 25.46067
#
# Poissons Ratio (x) = 0.05489 0.46513
# Poissons Ratio (y) = 0.05489 0.46513
# Poissons Ratio (z) = 0.61441 0.61441
#
# Static dielectric constant tensor:
#      x y z
#    x 2.919930 0.000000 0.000000 
#    y 0.000000 2.919930 0.000000 
#    z 0.000000 0.000000 2.845740 
# 
# 
# High freq. dielectric constant tensor:
#      x y z
#    x 1.549970 0.000000 0.000000 
#    y 0.000000 1.549970 0.000000 
#    z 0.000000 0.000000 1.547570 
# 
# From -- ./inp_files/7555.got.cif
#   From: 2010.03.12/outbox.cif.g09.slc.cpg/sg119_4_cif.got.tgz:7555.got - 2010.04.14 02:25:26.
