data_PCOD8310549
_publ_section_title
;
Structure prediction by ZEFSAII (Michael W. Deem and Ramdas Pophale) SiO2 
 PCOD8310549
Probable space group: P -4 N 2
;
_chemical_formula_sum "Si O2"
_cell_formula_units_Z 56
_cell_length_a 11.125043
_cell_length_b 11.125043
_cell_length_c 24.759951
_cell_angle_alpha 90.000000
_cell_angle_beta 90.000000
_cell_angle_gamma 90.000000
_cell_volume 3064.454500
_symmetry_space_group_name_H-M "P -4 N 2"
_symmetry_group_IT_number 118
_symmetry_cell_setting 'tetragonal'
loop_
_space_group_symop_operation_xyz
x,y,z
y,-x,-z
-x,-y,z
-y,x,-z
1/2+y,1/2+x,1/2-z
1/2-y,1/2-x,1/2-z
1/2-x,1/2+y,1/2+z
1/2+x,1/2-y,1/2+z
loop_
_atom_site_type_symbol
_atom_site_label
_atom_site_fract_x
_atom_site_fract_y
_atom_site_fract_z
Si Si1 0.217933 0.911442 0.235492
Si Si2 0.124910 0.549635 0.336266
Si Si3 0.688585 0.481331 0.432611
Si Si4 0.276369 0.640827 0.796644
Si Si5 0.245490 0.514529 0.233855
Si Si6 0.472868 0.300902 0.445206
Si Si7 0.635468 0.954996 0.146267
O O1 0.320603 0.820603 0.250000
O O2 0.088548 0.845865 0.231534
O O3 0.198908 0.002279 0.284674
O O4 0.260887 0.980465 0.181845
O O5 0.216230 0.551176 0.386037
O O6 0.164455 0.465854 0.284733
O O7 0.104682 0.681175 0.308762
O O8 0.000000 0.500000 0.359409
O O9 0.584541 0.383721 0.429563
O O10 0.642157 0.618670 0.426897
O O11 0.741681 0.469085 0.492818
O O12 0.196365 0.696365 0.750000
O O13 0.404555 0.706165 0.802123
O O14 0.190440 0.645186 0.848846
O O15 0.481021 0.173621 0.414827
O O16 0.500000 0.000000 0.159405
#
# Coordination Sequence:
#
# PCOD8310549 Si02
#       7
#     8   8   8   8   8   8   8
#     4  11  20  36  52  77 112 151 186 223 273 337
#     4  11  22  33  53  77 116 149 183 227 286 332
#     4   9  20  39  58  83 109 144 188 243 286 344
#     4  10  22  34  53  77 114 144 186 226 276 336
#     4  11  22  37  50  81 116 152 191 224 270 347
#     4   9  20  38  60  82 110 139 191 242 292 337
#     4  11  22  35  58  82 113 148 185 236 291 335
#
# _framework density 18.274052999999999
#
# number of rings (size 3 to 8) (size 9 to 14) (size 15 to 20)
#    0.000    1.714    2.857    3.857    6.000    0.571 
#    0.000    0.000    0.000    0.000    0.000    0.000 
#    0.000    0.000    0.000    0.000    0.000    0.000 
#
# Total GULP energy -693740.200106 kJ/mol
# GULP energy per Si atom -12388.217859 kJ/mol
# Density = 1.823246 g / cm^3
# Si number density = 18.274053 Si / 1000 Ang^3
#
#
#
# Elastic Constant Matrix: (Units=GPa)
#
#
# Indices 1 2 3 4 5 6 
#
# 1 ******************** 43.4575 0.0000 0.0000 0.0000
# 2 ******************** 43.4575 0.0000 0.0000 0.0000
# 3 43.4575 43.4575 106.2963 0.0000 0.0000 0.0000
# 4 0.0000 0.0000 0.0000 2.6437 0.0000 0.0000
# 5 0.0000 0.0000 0.0000 0.0000 2.6437 0.0000
# 6 0.0000 0.0000 0.0000 0.0000 0.0000 17.0999
#
#
#
# Elastic Compliance Matrix: (Units=1/GPa)
#
#
# Indices 1 2 3 4 5 6 
#
# 1 0.007035 0.007031 -0.005751 0.000000 0.000000 0.000000
# 2 0.007031 0.007035 -0.005751 0.000000 0.000000 0.000000
# 3 -0.005751 -0.005751 0.014110 0.000000 0.000000 0.000000
# 4 0.000000 0.000000 0.000000 0.378260 0.000000 0.000000
# 5 0.000000 0.000000 0.000000 0.000000 0.378260 0.000000
# 6 0.000000 0.000000 0.000000 0.000000 0.000000 0.058480
#
#
# Mechanical properties :
#
#
# Convention : Reuss Voigt Hill
#
# Bulk Modulus (GPa) = 51.97692 54.81986 53.39839
# Shear Modulus (GPa) = 5.82388 25227.32468 12616.57428
#
# Velocity S-wave (km/s) = 1.78714 117.62213 83.18101
# Velocity P-wave (km/s) = 5.72392 135.92897 96.20148
#
# Compressibility (1/GPa) = 0.01923931
#
# Stress axis : x y z
#
# Youngs Moduli (GPa) = 142.14461 142.14461 70.87237
#
# Poissons Ratio (x) = -0.99944 0.40757
# Poissons Ratio (y) = -0.99944 0.40757
# Poissons Ratio (z) = 0.81744 0.81744
#
# Static dielectric constant tensor:
#      x y z
#    x 0.000000 0.000000 0.000000 
#    y 0.000000 0.000000 0.000000 
#    z 0.000000 0.000000 0.000000 
# 
# 
# High freq. dielectric constant tensor:
#      x y z
#    x 1.710320 0.000000 0.000000 
#    y 0.000000 1.710320 0.000000 
#    z 0.000000 0.000000 1.680500 
# 
# From -- ./inp_files/6235.got.cif
#   From: 2010.03.12/outbox.cif.g09.slc.cpg/sg118_4_cif.got.tgz:6235.got - 2010.04.14 02:21:17.
