data_PCOD8310692
_publ_section_title
;
Structure prediction by ZEFSAII (Michael W. Deem and Ramdas Pophale) SiO2 
 PCOD8310692
Probable space group: I -4 M 2
;
_chemical_formula_sum "Si O2"
_cell_formula_units_Z 128
_cell_length_a 19.017157
_cell_length_b 19.017157
_cell_length_c 22.970026
_cell_angle_alpha 90.000000
_cell_angle_beta 90.000000
_cell_angle_gamma 90.000000
_cell_volume 8307.161823
_symmetry_space_group_name_H-M "I -4 M 2"
_symmetry_group_IT_number 119
_symmetry_cell_setting 'tetragonal'
loop_
_space_group_symop_operation_xyz
x,y,z
y,-x,-z
-x,-y,z
-y,x,-z
y,x,-z
-y,-x,-z
-x,y,z
x,-y,z
1/2+x,1/2+y,1/2+z
1/2+y,1/2-x,1/2-z
1/2-x,1/2-y,1/2+z
1/2-y,1/2+x,1/2-z
1/2+y,1/2+x,1/2-z
1/2-y,1/2-x,1/2-z
1/2-x,1/2+y,1/2+z
1/2+x,1/2-y,1/2+z
loop_
_atom_site_type_symbol
_atom_site_label
_atom_site_fract_x
_atom_site_fract_y
_atom_site_fract_z
Si Si1 0.632662 0.683703 0.054914
Si Si2 0.680975 0.421739 0.828341
Si Si3 0.080959 0.419431 0.593670
Si Si4 0.682752 0.080357 0.505364
Si Si5 0.186796 0.917815 0.721797
Si Si6 0.734989 0.306129 0.304773
Si Si7 0.144904 0.726911 0.380706
Si Si8 0.674538 0.838397 0.314424
O O1 0.572492 0.666655 0.101946
O O2 0.707139 0.678992 0.086941
O O3 0.629678 0.629678 0.000000
O O4 0.626623 0.762339 0.030851
O O5 0.693828 0.500000 0.803701
O O6 0.612544 0.388360 0.798554
O O7 0.747763 0.371766 0.818295
O O8 0.104849 0.500000 0.594181
O O9 0.090398 0.391592 0.527409
O O10 0.128906 0.377280 0.638585
O O11 0.000000 0.410410 0.613307
O O12 0.678427 0.103149 0.573088
O O13 0.708283 0.000000 0.503537
O O14 0.202786 0.880213 0.783910
O O15 0.245902 0.904944 0.671939
O O16 0.179773 0.000000 0.733971
O O17 0.773426 0.273426 0.250000
O O18 0.791663 0.320549 0.355538
O O19 0.678611 0.246361 0.324833
O O20 0.644866 0.855135 0.250000
#
# Coordination Sequence:
#
# PCOD8310692 Si02
#       8
#    16  16  16  16  16  16  16  16
#     4   9  16  26  44  68  91 120 160 199 231 265
#     4  11  19  30  49  71  97 130 164 200 237 283
#     4  10  21  33  44  64  98 131 158 198 243 279
#     4  10  17  27  44  66  92 123 156 188 229 284
#     4  10  19  32  48  70  98 124 155 196 245 291
#     4   9  15  31  49  68  92 118 150 203 240 273
#     4   9  16  28  48  70  88 118 158 198 233 272
#     4  11  18  33  51  69  90 124 164 203 237 280
#
# _framework density 15.408391
#
# number of rings (size 3 to 8) (size 9 to 14) (size 15 to 20)
#    0.000    2.125    6.250    1.125    0.000    1.250 
#    0.000    1.875    0.000    0.000    0.000    0.000 
#    0.000   12.250    0.000    0.000    0.000    0.000 
#
# Total GULP energy -793059.986045 kJ/mol
# GULP energy per Si atom -12391.562282 kJ/mol
# Density = 1.537332 g / cm^3
# Si number density = 15.408391 Si / 1000 Ang^3
#
#
#
# Elastic Constant Matrix: (Units=GPa)
#
#
# Indices 1 2 3 4 5 6 
#
# 1 85.8847 39.7008 39.5891 0.0000 0.0000 0.0000
# 2 39.7008 85.8845 39.5891 0.0000 0.0000 0.0000
# 3 39.5891 39.5891 74.7213 0.0000 0.0000 0.0000
# 4 0.0000 0.0000 0.0000 21.4874 0.0000 0.0000
# 5 0.0000 0.0000 0.0000 0.0000 21.4874 0.0000
# 6 0.0000 0.0000 0.0000 0.0000 0.0000 14.5229
#
#
#
# Elastic Compliance Matrix: (Units=1/GPa)
#
#
# Indices 1 2 3 4 5 6 
#
# 1 0.016805 -0.004848 -0.006335 0.000000 0.000000 0.000000
# 2 -0.004848 0.016805 -0.006335 0.000000 0.000000 0.000000
# 3 -0.006335 -0.006335 0.020096 0.000000 0.000000 0.000000
# 4 0.000000 0.000000 0.000000 0.046539 0.000000 0.000000
# 5 0.000000 0.000000 0.000000 0.000000 0.046539 0.000000
# 6 0.000000 0.000000 0.000000 0.000000 0.000000 0.068857
#
#
# Mechanical properties :
#
#
# Convention : Reuss Voigt Hill
#
# Bulk Modulus (GPa) = 53.56325 53.80538 53.68432
# Shear Modulus (GPa) = 19.46293 20.00698 19.73496
#
# Velocity S-wave (km/s) = 3.55792 3.60731 3.58270
# Velocity P-wave (km/s) = 7.19140 7.23502 7.21325
#
# Compressibility (1/GPa) = 0.01866952
#
# Stress axis : x y z
#
# Youngs Moduli (GPa) = 59.50733 59.50718 49.76136
#
# Poissons Ratio (x) = 0.28849 0.31524
# Poissons Ratio (y) = 0.28849 0.31524
# Poissons Ratio (z) = 0.37698 0.37698
#
# Static dielectric constant tensor:
#      x y z
#    x 2.884270 0.000000 0.000000 
#    y 0.000000 2.884270 0.000000 
#    z 0.000000 0.000000 3.378080 
# 
# 
# High freq. dielectric constant tensor:
#      x y z
#    x 1.569610 0.000000 0.000000 
#    y 0.000000 1.569610 0.000000 
#    z 0.000000 0.000000 1.592440 
# 
# From -- ./inp_files/9049.got.cif
#   From: 2010.03.12/outbox.cif.g09.slc.cpg/sg119_5_cif.got.tgz:9049.got - 2010.04.14 02:25:26.
