data_PCOD8310969
_publ_section_title
;
Structure prediction by ZEFSAII (Michael W. Deem and Ramdas Pophale) SiO2 
 PCOD8310969
Probable space group: I -4 M 2
;
_chemical_formula_sum "Si O2"
_cell_formula_units_Z 128
_cell_length_a 25.299766
_cell_length_b 25.299766
_cell_length_c 11.275421
_cell_angle_alpha 90.000000
_cell_angle_beta 90.000000
_cell_angle_gamma 90.000000
_cell_volume 7217.150723
_symmetry_space_group_name_H-M "I -4 M 2"
_symmetry_group_IT_number 119
_symmetry_cell_setting 'tetragonal'
loop_
_space_group_symop_operation_xyz
x,y,z
y,-x,-z
-x,-y,z
-y,x,-z
y,x,-z
-y,-x,-z
-x,y,z
x,-y,z
1/2+x,1/2+y,1/2+z
1/2+y,1/2-x,1/2-z
1/2-x,1/2-y,1/2+z
1/2-y,1/2+x,1/2-z
1/2+y,1/2+x,1/2-z
1/2-y,1/2-x,1/2-z
1/2-x,1/2+y,1/2+z
1/2+x,1/2-y,1/2+z
loop_
_atom_site_type_symbol
_atom_site_label
_atom_site_fract_x
_atom_site_fract_y
_atom_site_fract_z
Si Si1 0.390650 0.061549 0.371110
Si Si2 0.110081 0.777760 0.852076
Si Si3 0.643146 0.438029 0.463214
Si Si4 0.559825 0.767735 0.132471
Si Si5 0.733114 0.352240 0.037352
Si Si6 0.731271 0.182303 0.969551
Si Si7 0.637768 0.693652 0.713534
Si Si8 0.937061 0.559704 0.381246
O O1 0.412617 0.087384 0.250000
O O2 0.328964 0.072463 0.376925
O O3 0.411753 0.084573 0.498515
O O4 0.405032 0.000000 0.362464
O O5 0.075754 0.814301 0.937412
O O6 0.068415 0.750282 0.766755
O O7 0.154030 0.812315 0.783361
O O8 0.140112 0.730778 0.922831
O O9 0.586769 0.413232 0.500000
O O10 0.635799 0.500000 0.446195
O O11 0.663774 0.412609 0.341092
O O12 0.500000 0.755163 0.093534
O O13 0.599540 0.734148 0.052873
O O14 0.791547 0.326085 0.049724
O O15 0.712646 0.378460 0.157319
O O16 0.692508 0.307493 0.000000
O O17 0.752026 0.152423 0.853347
O O18 0.773282 0.226719 0.000000
O O19 0.916866 0.500000 0.393178
O O20 0.917713 0.582288 0.250000
O O21 0.000000 0.562815 0.379087
#
# Coordination Sequence:
#
# PCOD8310969 Si02
#       8
#    16  16  16  16  16  16  16  16
#     4  10  21  35  52  78 108 140 181 228 274 322
#     4   9  17  34  54  75 104 139 177 219 268 324
#     4   9  18  32  55  81 108 139 172 222 273 322
#     4  11  24  36  50  75 110 145 179 220 274 331
#     4  11  20  33  54  78 104 140 180 219 263 317
#     4   8  17  29  52  82 104 129 170 226 272 312
#     4   9  17  33  52  80 108 132 180 219 262 320
#     4   8  14  28  53  78  97 127 173 222 270 319
#
# _framework density 17.735531000000002
#
# number of rings (size 3 to 8) (size 9 to 14) (size 15 to 20)
#    0.000    2.625    1.250    3.000    1.750    1.250 
#    0.000    1.250    0.000    0.000    0.000    0.000 
#    0.000    0.250    0.000    0.000    0.000    0.000 
#
# Total GULP energy -793071.547109 kJ/mol
# GULP energy per Si atom -12391.742924 kJ/mol
# Density = 1.769516 g / cm^3
# Si number density = 17.735531 Si / 1000 Ang^3
#
#
#
# Elastic Constant Matrix: (Units=GPa)
#
#
# Indices 1 2 3 4 5 6 
#
# 1 67.8041 56.8198 45.1052 0.0000 0.0000 0.0000
# 2 56.8198 67.8058 45.1062 0.0000 0.0000 0.0000
# 3 45.1052 45.1062 129.8829 0.0000 0.0000 0.0000
# 4 0.0000 0.0000 0.0000 19.3850 0.0000 0.0000
# 5 0.0000 0.0000 0.0000 0.0000 19.3855 0.0000
# 6 0.0000 0.0000 0.0000 0.0000 0.0000 18.5339
#
#
#
# Elastic Compliance Matrix: (Units=1/GPa)
#
#
# Indices 1 2 3 4 5 6 
#
# 1 0.050876 -0.040157 -0.003722 0.000000 0.000000 0.000000
# 2 -0.040157 0.050875 -0.003723 0.000000 0.000000 0.000000
# 3 -0.003722 -0.003723 0.010285 0.000000 0.000000 0.000000
# 4 0.000000 0.000000 0.000000 0.051586 0.000000 0.000000
# 5 0.000000 0.000000 0.000000 0.000000 0.051585 0.000000
# 6 0.000000 0.000000 0.000000 0.000000 0.000000 0.053955
#
#
# Mechanical properties :
#
#
# Convention : Reuss Voigt Hill
#
# Bulk Modulus (GPa) = 59.40927 62.17280 60.79103
# Shear Modulus (GPa) = 13.51445 19.35834 16.43639
#
# Velocity S-wave (km/s) = 2.76343 3.30737 3.04756
# Velocity P-wave (km/s) = 6.61453 7.05100 6.83625
#
# Compressibility (1/GPa) = 0.01683239
#
# Stress axis : x y z
#
# Youngs Moduli (GPa) = 19.65579 19.65612 97.23254
#
# Poissons Ratio (x) = 0.78932 0.36191
# Poissons Ratio (y) = 0.78931 0.36195
# Poissons Ratio (z) = 0.07316 0.07317
#
# Static dielectric constant tensor:
#      x y z
#    x 3.129600 0.000000 0.000000 
#    y 0.000000 3.129610 0.000000 
#    z 0.000000 0.000000 3.467180 
# 
# 
# High freq. dielectric constant tensor:
#      x y z
#    x 1.666210 0.000000 0.000000 
#    y 0.000000 1.666210 0.000000 
#    z 0.000000 0.000000 1.696230 
# 
# From -- ./inp_files/4471.got.cif
#   From: 2010.03.12/outbox.cif.g09.slc.cpg/sg119_3_cif.got.tgz:4471.got - 2010.04.14 02:25:26.
