data_PCOD8310700
_publ_section_title
;
Structure prediction by ZEFSAII (Michael W. Deem and Ramdas Pophale) SiO2 
 PCOD8310700
Probable space group: I -4 M 2
;
_chemical_formula_sum "Si O2"
_cell_formula_units_Z 128
_cell_length_a 17.435621
_cell_length_b 17.435621
_cell_length_c 25.559421
_cell_angle_alpha 90.000000
_cell_angle_beta 90.000000
_cell_angle_gamma 90.000000
_cell_volume 7770.086467
_symmetry_space_group_name_H-M "I -4 M 2"
_symmetry_group_IT_number 119
_symmetry_cell_setting 'tetragonal'
loop_
_space_group_symop_operation_xyz
x,y,z
y,-x,-z
-x,-y,z
-y,x,-z
y,x,-z
-y,-x,-z
-x,y,z
x,-y,z
1/2+x,1/2+y,1/2+z
1/2+y,1/2-x,1/2-z
1/2-x,1/2-y,1/2+z
1/2-y,1/2+x,1/2-z
1/2+y,1/2+x,1/2-z
1/2-y,1/2-x,1/2-z
1/2-x,1/2+y,1/2+z
1/2+x,1/2-y,1/2+z
loop_
_atom_site_type_symbol
_atom_site_label
_atom_site_fract_x
_atom_site_fract_y
_atom_site_fract_z
Si Si1 0.913158 0.301726 0.516702
Si Si2 0.913200 0.700126 0.931439
Si Si3 0.916559 0.132485 0.554972
Si Si4 0.743952 0.364531 0.093238
Si Si5 0.302404 0.705547 0.621070
Si Si6 0.828455 0.416234 0.187829
Si Si7 0.416010 0.688803 0.527925
Si Si8 0.911905 0.266004 0.203328
O O1 0.876556 0.366533 0.554179
O O2 0.910487 0.223495 0.548721
O O3 0.867650 0.287522 0.462519
O O4 0.000000 0.326857 0.503929
O O5 0.870944 0.750468 0.885855
O O6 0.000000 0.681178 0.912076
O O7 0.916149 0.745015 0.985367
O O8 0.910980 0.089021 0.500000
O O9 0.844560 0.107395 0.590261
O O10 0.000000 0.111345 0.579898
O O11 0.746730 0.278632 0.116618
O O12 0.783550 0.421933 0.133460
O O13 0.362660 0.714136 0.574755
O O14 0.351558 0.707354 0.675373
O O15 0.865547 0.500000 0.198775
O O16 0.895327 0.352986 0.183537
O O17 0.766993 0.397293 0.234194
O O18 0.388976 0.611025 0.500000
O O19 0.500000 0.674299 0.551133
O O20 0.000000 0.244131 0.189447
#
# Coordination Sequence:
#
# PCOD8310700 Si02
#       8
#    16  16  16  16  16  16  16  16
#     4  10  18  29  45  68  94 126 159 186 228 281
#     4  10  19  30  44  66  92 122 156 195 239 280
#     4   9  18  29  45  67  92 122 157 190 220 264
#     4  10  17  29  50  65  91 127 159 191 230 275
#     4  10  17  29  49  64  86 121 161 197 229 279
#     4   9  18  31  46  71  99 123 157 196 237 282
#     4   9  17  26  40  60  84 113 149 188 227 270
#     4   9  18  31  49  70  93 125 161 197 239 280
#
# _framework density 16.473434000000001
#
# number of rings (size 3 to 8) (size 9 to 14) (size 15 to 20)
#    0.000    2.500    2.500    0.750    0.000    1.250 
#    0.000    1.250    0.000    3.375    0.000    1.750 
#    0.000    0.000    0.000    0.000    0.250    0.000 
#
# Total GULP energy -793020.165589 kJ/mol
# GULP energy per Si atom -12390.940087 kJ/mol
# Density = 1.643594 g / cm^3
# Si number density = 16.473434 Si / 1000 Ang^3
#
#
#
# Elastic Constant Matrix: (Units=GPa)
#
#
# Indices 1 2 3 4 5 6 
#
# 1 76.5471 16.4998 9.7376 0.0000 0.0000 0.0000
# 2 16.4998 76.5484 9.7371 0.0000 0.0000 0.0000
# 3 9.7376 9.7371 41.2815 0.0000 0.0000 0.0000
# 4 0.0000 0.0000 0.0000 17.5147 0.0000 0.0000
# 5 0.0000 0.0000 0.0000 0.0000 17.5146 0.0000
# 6 0.0000 0.0000 0.0000 0.0000 0.0000 11.3189
#
#
#
# Elastic Compliance Matrix: (Units=1/GPa)
#
#
# Indices 1 2 3 4 5 6 
#
# 1 0.013979 -0.002674 -0.002667 0.000000 0.000000 0.000000
# 2 -0.002674 0.013979 -0.002667 0.000000 0.000000 0.000000
# 3 -0.002667 -0.002667 0.025482 0.000000 0.000000 0.000000
# 4 0.000000 0.000000 0.000000 0.057095 0.000000 0.000000
# 5 0.000000 0.000000 0.000000 0.000000 0.057095 0.000000
# 6 0.000000 0.000000 0.000000 0.000000 0.000000 0.088348
#
#
# Mechanical properties :
#
#
# Convention : Reuss Voigt Hill
#
# Bulk Modulus (GPa) = 26.71945 29.59179 28.15562
# Shear Modulus (GPa) = 17.57662 19.82981 18.70321
#
# Velocity S-wave (km/s) = 3.26999 3.47327 3.37316
# Velocity P-wave (km/s) = 5.52377 5.83842 5.68327
#
# Compressibility (1/GPa) = 0.03742592
#
# Stress axis : x y z
#
# Youngs Moduli (GPa) = 71.53341 71.53489 39.24349
#
# Poissons Ratio (x) = 0.19129 0.10465
# Poissons Ratio (y) = 0.19128 0.10464
# Poissons Ratio (z) = 0.19076 0.19075
#
# Static dielectric constant tensor:
#      x y z
#    x 3.156250 0.000000 0.000000 
#    y 0.000000 3.156250 0.000000 
#    z 0.000000 0.000000 2.943100 
# 
# 
# High freq. dielectric constant tensor:
#      x y z
#    x 1.626300 0.000000 0.000000 
#    y 0.000000 1.626300 0.000000 
#    z 0.000000 0.000000 1.599850 
# 
# From -- ./inp_files/9043.got.cif
#   From: 2010.03.12/outbox.cif.g09.slc.cpg/sg119_5_cif.got.tgz:9043.got - 2010.04.14 02:25:26.
