data_PCOD8310610
_publ_section_title
;
Structure prediction by ZEFSAII (Michael W. Deem and Ramdas Pophale) SiO2 
 PCOD8310610
Probable space group: P -4 N 2
;
_chemical_formula_sum "Si O2"
_cell_formula_units_Z 34
_cell_length_a 10.548516
_cell_length_b 10.548516
_cell_length_c 13.583217
_cell_angle_alpha 90.000000
_cell_angle_beta 90.000000
_cell_angle_gamma 90.000000
_cell_volume 1511.420717
_symmetry_space_group_name_H-M "P -4 N 2"
_symmetry_group_IT_number 118
_symmetry_cell_setting 'tetragonal'
loop_
_space_group_symop_operation_xyz
x,y,z
y,-x,-z
-x,-y,z
-y,x,-z
1/2+y,1/2+x,1/2-z
1/2-y,1/2-x,1/2-z
1/2-x,1/2+y,1/2+z
1/2+x,1/2-y,1/2+z
loop_
_atom_site_type_symbol
_atom_site_label
_atom_site_fract_x
_atom_site_fract_y
_atom_site_fract_z
Si Si1 0.428976 0.170512 0.075455
Si Si2 0.206600 0.513112 0.286814
Si Si3 0.392506 0.763876 0.896970
Si Si4 0.000000 0.500000 0.750000
Si Si5 0.304146 0.554267 0.479540
O O1 0.351848 0.299479 0.084375
O O2 0.328047 0.064029 0.039018
O O3 0.492669 0.123512 0.178067
O O4 0.539138 0.193425 0.996616
O O5 0.080199 0.580199 0.250000
O O6 0.289265 0.487323 0.188268
O O7 0.171898 0.385968 0.347282
O O8 0.284732 0.596778 0.365363
O O9 0.408604 0.649874 0.520973
#
# Coordination Sequence:
#
# PCOD8310610 Si02
#       5
#     8   8   8   2   8
#     4  12  26  48  70 106 144 191 237 306 373 440
#     4  11  21  41  76 102 130 191 243 290 352 437
#     4  11  24  44  73 101 140 182 248 294 363 440
#     4  12  28  44  76 106 154 190 236 304 392 446
#     4  11  24  44  71 106 146 186 243 306 368 441
#
# _framework density 22.495391000000001
#
# number of rings (size 3 to 8) (size 9 to 14) (size 15 to 20)
#    0.000    0.706    4.706    4.235    0.000    0.471 
#    6.353    0.000    0.000    0.000    0.000    0.000 
#    0.000    0.000    0.000    0.000    0.000    0.000 
#
# Total GULP energy -421230.438248 kJ/mol
# GULP energy per Si atom -12389.130537 kJ/mol
# Density = 2.244419 g / cm^3
# Si number density = 22.495391 Si / 1000 Ang^3
#
#
#
# Elastic Constant Matrix: (Units=GPa)
#
#
# Indices 1 2 3 4 5 6 
#
# 1 85.0052 47.5079 59.6428 0.0000 0.0000 0.0000
# 2 47.5079 85.0052 59.6428 0.0000 0.0000 0.0000
# 3 59.6428 59.6428 207.6089 0.0000 0.0000 0.0000
# 4 0.0000 0.0000 0.0000 26.7453 0.0000 0.0000
# 5 0.0000 0.0000 0.0000 0.0000 26.7453 0.0000
# 6 0.0000 0.0000 0.0000 0.0000 0.0000 28.5501
#
#
#
# Elastic Compliance Matrix: (Units=1/GPa)
#
#
# Indices 1 2 3 4 5 6 
#
# 1 0.018424 -0.008245 -0.002924 0.000000 0.000000 0.000000
# 2 -0.008245 0.018424 -0.002924 0.000000 0.000000 0.000000
# 3 -0.002924 -0.002924 0.006497 0.000000 0.000000 0.000000
# 4 0.000000 0.000000 0.000000 0.037390 0.000000 0.000000
# 5 0.000000 0.000000 0.000000 0.000000 0.037390 0.000000
# 6 0.000000 0.000000 0.000000 0.000000 0.000000 0.035026
#
#
# Mechanical properties :
#
#
# Convention : Reuss Voigt Hill
#
# Bulk Modulus (GPa) = 65.97357 79.02292 72.49824
# Shear Modulus (GPa) = 26.82565 30.46322 28.64444
#
# Velocity S-wave (km/s) = 3.45700 3.68394 3.57227
# Velocity P-wave (km/s) = 6.73244 7.30068 7.02231
#
# Compressibility (1/GPa) = 0.01515759
#
# Stress axis : x y z
#
# Youngs Moduli (GPa) = 54.27810 54.27810 153.91968
#
# Poissons Ratio (x) = 0.44752 0.45009
# Poissons Ratio (y) = 0.44752 0.45009
# Poissons Ratio (z) = 0.15872 0.15872
#
# Static dielectric constant tensor:
#      x y z
#    x 4.034470 0.000000 0.000000 
#    y 0.000000 4.034470 0.000000 
#    z 0.000000 0.000000 5.303890 
# 
# 
# High freq. dielectric constant tensor:
#      x y z
#    x 1.875080 0.000000 0.000000 
#    y 0.000000 1.875080 0.000000 
#    z 0.000000 0.000000 1.914800 
# 
# From -- ./inp_files/3025.got.cif
#   From: 2010.03.12/outbox.cif.g09.slc.cpg/sg118_2_cif.got.tgz:3025.got - 2010.04.14 02:21:17.
