data_PCOD8310675
_publ_section_title
;
Structure prediction by ZEFSAII (Michael W. Deem and Ramdas Pophale) SiO2 
 PCOD8310675
Probable space group: I -4 M 2
;
_chemical_formula_sum "Si O2"
_cell_formula_units_Z 120
_cell_length_a 23.154834
_cell_length_b 23.154834
_cell_length_c 15.258404
_cell_angle_alpha 90.000000
_cell_angle_beta 90.000000
_cell_angle_gamma 90.000000
_cell_volume 8180.737422
_symmetry_space_group_name_H-M "I -4 M 2"
_symmetry_group_IT_number 119
_symmetry_cell_setting 'tetragonal'
loop_
_space_group_symop_operation_xyz
x,y,z
y,-x,-z
-x,-y,z
-y,x,-z
y,x,-z
-y,-x,-z
-x,y,z
x,-y,z
1/2+x,1/2+y,1/2+z
1/2+y,1/2-x,1/2-z
1/2-x,1/2-y,1/2+z
1/2-y,1/2+x,1/2-z
1/2+y,1/2+x,1/2-z
1/2-y,1/2-x,1/2-z
1/2-x,1/2+y,1/2+z
1/2+x,1/2-y,1/2+z
loop_
_atom_site_type_symbol
_atom_site_label
_atom_site_fract_x
_atom_site_fract_y
_atom_site_fract_z
Si Si1 0.435938 0.386174 0.180959
Si Si2 0.435589 0.313948 0.835434
Si Si3 0.563908 0.334778 0.367021
Si Si4 0.780071 0.826627 0.088272
Si Si5 0.324191 0.732868 0.757237
Si Si6 0.209116 0.936095 0.461764
Si Si7 0.065906 0.934095 0.000000
Si Si8 0.256628 0.682926 0.918569
O O1 0.500000 0.416694 0.183257
O O2 0.382358 0.430017 0.185717
O O3 0.430781 0.343581 0.263424
O O4 0.430357 0.349915 0.092082
O O5 0.500000 0.294946 0.807929
O O6 0.391737 0.271636 0.782829
O O7 0.425133 0.305783 0.937862
O O8 0.500000 0.315174 0.393771
O O9 0.604933 0.281950 0.395616
O O10 0.581263 0.393933 0.417052
O O11 0.816705 0.795377 0.163206
O O12 0.713596 0.805848 0.084671
O O13 0.812887 0.812887 0.000000
O O14 0.298698 0.798698 0.750000
O O15 0.289469 0.695581 0.828507
O O16 0.252921 0.885890 0.429440
O O17 0.236771 0.000000 0.447528
O O18 0.000000 0.924427 0.031143
O O19 0.293513 0.706488 0.000000
#
# Coordination Sequence:
#
# PCOD8310675 Si02
#       8
#    16  16  16  16  16  16   8  16
#     4  10  19  30  43  60  88 123 157 188 219 260
#     4  11  20  30  46  67  93 121 153 186 223 269
#     4  10  18  30  44  58  83 113 151 196 231 266
#     4  10  19  29  44  66  82 110 153 188 232 273
#     4  10  19  32  48  65  88 116 151 191 230 273
#     4  10  18  29  46  67  92 119 148 184 226 271
#     4   9  18  30  42  54  72 108 156 198 232 264
#     4  10  16  28  49  64  87 114 145 187 225 278
#
# _framework density 14.668604
#
# number of rings (size 3 to 8) (size 9 to 14) (size 15 to 20)
#    0.000    1.933    4.667    0.400    0.000    0.800 
#    0.000    2.000    0.000    2.400    0.000    0.000 
#    0.000    0.800    0.000    2.933    0.000   20.800 
#
# Total GULP energy -743576.371618 kJ/mol
# GULP energy per Si atom -12392.939527 kJ/mol
# Density = 1.463522 g / cm^3
# Si number density = 14.668604 Si / 1000 Ang^3
#
#
#
# Elastic Constant Matrix: (Units=GPa)
#
#
# Indices 1 2 3 4 5 6 
#
# 1 90.8632 57.5939 26.5819 0.0000 0.0000 0.0000
# 2 57.5939 90.8630 26.5821 0.0000 0.0000 0.0000
# 3 26.5819 26.5821 81.1084 0.0000 0.0000 0.0000
# 4 0.0000 0.0000 0.0000 18.7037 0.0000 0.0000
# 5 0.0000 0.0000 0.0000 0.0000 18.7036 0.0000
# 6 0.0000 0.0000 0.0000 0.0000 0.0000 24.2310
#
#
#
# Elastic Compliance Matrix: (Units=1/GPa)
#
#
# Indices 1 2 3 4 5 6 
#
# 1 0.018845 -0.011213 -0.002501 0.000000 0.000000 0.000000
# 2 -0.011213 0.018845 -0.002501 0.000000 0.000000 0.000000
# 3 -0.002501 -0.002501 0.013969 0.000000 0.000000 0.000000
# 4 0.000000 0.000000 0.000000 0.053465 0.000000 0.000000
# 5 0.000000 0.000000 0.000000 0.000000 0.053466 0.000000
# 6 0.000000 0.000000 0.000000 0.000000 0.000000 0.041269
#
#
# Mechanical properties :
#
#
# Convention : Reuss Voigt Hill
#
# Bulk Modulus (GPa) = 52.00942 53.81672 52.91307
# Shear Modulus (GPa) = 20.94693 22.46610 21.70651
#
# Velocity S-wave (km/s) = 3.78300 3.91778 3.85098
# Velocity P-wave (km/s) = 7.39018 7.56527 7.47824
#
# Compressibility (1/GPa) = 0.01922729
#
# Stress axis : x y z
#
# Youngs Moduli (GPa) = 53.06539 53.06514 71.58906
#
# Poissons Ratio (x) = 0.59502 0.17905
# Poissons Ratio (y) = 0.59503 0.17906
# Poissons Ratio (z) = 0.13272 0.13273
#
# Static dielectric constant tensor:
#      x y z
#    x 2.889020 0.000000 0.000000 
#    y 0.000000 2.889010 0.000000 
#    z 0.000000 0.000000 3.034280 
# 
# 
# High freq. dielectric constant tensor:
#      x y z
#    x 1.534120 0.000000 0.000000 
#    y 0.000000 1.534120 0.000000 
#    z 0.000000 0.000000 1.582750 
# 
# From -- ./inp_files/5722.got.cif
#   From: 2010.03.12/outbox.cif.g09.slc.cpg/sg119_3_cif.got.tgz:5722.got - 2010.04.14 02:25:26.
