data_PCOD8310278
_publ_section_title
;
Structure prediction by ZEFSAII (Michael W. Deem and Ramdas Pophale) SiO2 
 PCOD8310278
Probable space group: P -4 B 2
;
_chemical_formula_sum "Si O2"
_cell_formula_units_Z 40
_cell_length_a 14.129986
_cell_length_b 14.129986
_cell_length_c 9.309043
_cell_angle_alpha 90.000000
_cell_angle_beta 90.000000
_cell_angle_gamma 90.000000
_cell_volume 1858.610984
_symmetry_space_group_name_H-M "P -4 B 2"
_symmetry_group_IT_number 117
_symmetry_cell_setting 'tetragonal'
loop_
_space_group_symop_operation_xyz
x,y,z
y,-x,-z
-x,-y,z
-y,x,-z
1/2+y,1/2+x,-z
1/2-y,1/2-x,-z
1/2-x,1/2+y,z
1/2+x,1/2-y,z
loop_
_atom_site_type_symbol
_atom_site_label
_atom_site_fract_x
_atom_site_fract_y
_atom_site_fract_z
Si Si1 0.000000 0.500000 0.000000
Si Si2 0.250444 0.130585 0.706473
Si Si3 0.292681 0.995308 0.448117
Si Si4 0.500000 0.000000 0.500000
Si Si5 0.440516 0.181614 0.843562
Si Si6 0.941314 0.140628 0.037209
Si Si7 0.786928 0.713073 0.500000
O O1 0.902489 0.505183 0.091981
O O2 0.345478 0.125790 0.798358
O O3 0.160686 0.091923 0.797818
O O4 0.241470 0.238239 0.650332
O O5 0.257324 0.074019 0.557055
O O6 0.264140 0.897435 0.521497
O O7 0.404670 0.000689 0.407191
O O8 0.256252 0.011971 0.286091
O O9 0.415971 0.262257 0.957998
O O10 0.053337 0.118016 0.029367
#
# Coordination Sequence:
#
# PCOD8310278 Si02
#       7
#     2   8   8   2   8   8   4
#     4  12  26  40  70 104 146 188 224 298 378 436
#     4  12  23  46  67 103 143 182 237 299 348 433
#     4  11  23  38  69  97 139 180 222 290 358 417
#     4  10  16  36  56  94 136 162 208 270 342 410
#     4  12  23  46  67 103 143 179 238 293 362 432
#     4  11  27  49  69  95 141 196 242 295 355 431
#     4  11  25  39  70 107 137 183 232 284 370 423
#
# _framework density 21.521446999999998
#
# number of rings (size 3 to 8) (size 9 to 14) (size 15 to 20)
#    0.000    0.600    6.000    1.800    5.600    0.000 
#    3.600    0.000    0.000    2.400    0.000    0.000 
#    0.000    0.000    0.000    0.000    0.000    0.000 
#
# Total GULP energy -495653.675373 kJ/mol
# GULP energy per Si atom -12391.341884 kJ/mol
# Density = 2.147246 g / cm^3
# Si number density = 21.521447 Si / 1000 Ang^3
#
#
#
# Elastic Constant Matrix: (Units=GPa)
#
#
# Indices 1 2 3 4 5 6 
#
# 1 98.6915 29.9231 57.1928 0.0000 0.0000 0.0000
# 2 29.9231 98.6898 57.1928 0.0000 0.0000 0.0000
# 3 57.1928 57.1928 139.7484 0.0000 0.0000 0.0000
# 4 0.0000 0.0000 0.0000 34.8405 0.0000 0.0000
# 5 0.0000 0.0000 0.0000 0.0000 34.8402 0.0000
# 6 0.0000 0.0000 0.0000 0.0000 0.0000 28.3682
#
#
#
# Elastic Compliance Matrix: (Units=1/GPa)
#
#
# Indices 1 2 3 4 5 6 
#
# 1 0.013383 -0.001158 -0.005003 0.000000 0.000000 0.000000
# 2 -0.001158 0.013383 -0.005003 0.000000 0.000000 0.000000
# 3 -0.005003 -0.005003 0.011251 0.000000 0.000000 0.000000
# 4 0.000000 0.000000 0.000000 0.028702 0.000000 0.000000
# 5 0.000000 0.000000 0.000000 0.000000 0.028702 0.000000
# 6 0.000000 0.000000 0.000000 0.000000 0.000000 0.035251
#
#
# Mechanical properties :
#
#
# Convention : Reuss Voigt Hill
#
# Bulk Modulus (GPa) = 63.74246 69.52745 66.63495
# Shear Modulus (GPa) = 31.59928 32.46450 32.03189
#
# Velocity S-wave (km/s) = 3.83596 3.88812 3.86213
# Velocity P-wave (km/s) = 7.02153 7.24796 7.13564
#
# Compressibility (1/GPa) = 0.01568813
#
# Stress axis : x y z
#
# Youngs Moduli (GPa) = 74.72086 74.71925 88.88259
#
# Poissons Ratio (x) = 0.08656 0.44468
# Poissons Ratio (y) = 0.08656 0.44469
# Poissons Ratio (z) = 0.37383 0.37383
#
# Static dielectric constant tensor:
#      x y z
#    x 3.919710 0.000000 0.000000 
#    y 0.000000 3.919720 0.000000 
#    z 0.000000 0.000000 3.993670 
# 
# 
# High freq. dielectric constant tensor:
#      x y z
#    x 1.840130 0.000000 0.000000 
#    y 0.000000 1.840130 0.000000 
#    z 0.000000 0.000000 1.853770 
# 
# From -- ./inp_files/1799.got.cif
#   From: 2010.03.12/outbox.cif.g09.slc.cpg/sg117_1_cif.got.tgz:1799.got - 2010.04.14 02:19:01.
