data_PCOD8310528
_publ_section_title
;
Structure prediction by ZEFSAII (Michael W. Deem and Ramdas Pophale) SiO2 
 PCOD8310528
Probable space group: P -4 N 2
;
_chemical_formula_sum "Si O2"
_cell_formula_units_Z 42
_cell_length_a 14.658582
_cell_length_b 14.658582
_cell_length_c 8.453459
_cell_angle_alpha 90.000000
_cell_angle_beta 90.000000
_cell_angle_gamma 90.000000
_cell_volume 1816.428771
_symmetry_space_group_name_H-M "P -4 N 2"
_symmetry_group_IT_number 118
_symmetry_cell_setting 'tetragonal'
loop_
_space_group_symop_operation_xyz
x,y,z
y,-x,-z
-x,-y,z
-y,x,-z
1/2+y,1/2+x,1/2-z
1/2-y,1/2-x,1/2-z
1/2-x,1/2+y,1/2+z
1/2+x,1/2-y,1/2+z
loop_
_atom_site_type_symbol
_atom_site_label
_atom_site_fract_x
_atom_site_fract_y
_atom_site_fract_z
Si Si1 0.737226 0.055991 0.056573
Si Si2 0.048062 0.412613 0.433335
Si Si3 0.500000 0.500000 0.500000
Si Si4 0.869458 0.924531 0.517560
Si Si5 0.564063 0.799446 0.158486
Si Si6 0.910929 0.163134 0.133487
O O1 0.817526 0.131688 0.046726
O O2 0.721746 0.023441 0.234528
O O3 0.647179 0.108218 0.002992
O O4 0.752663 0.962501 0.952267
O O5 0.065934 0.434067 0.250000
O O6 0.000000 0.500000 0.513477
O O7 0.977177 0.334224 0.488663
O O8 0.581389 0.483335 0.379144
O O9 0.798199 0.889661 0.383178
O O10 0.822062 0.893935 0.681880
O O11 0.965684 0.876716 0.489503
O O12 0.634711 0.865290 0.250000
#
# Coordination Sequence:
#
# PCOD8310528 Si02
#       6
#     8   8   2   8   8   8
#     4  11  23  43  70 102 137 181 222 291 350 420
#     4  11  24  46  74  95 129 181 235 278 343 424
#     4   8  16  32  66  92 132 184 214 268 344 428
#     4  11  23  42  70 101 141 185 236 289 356 421
#     4  12  25  46  69 104 139 185 236 288 352 421
#     4  10  21  39  65 102 138 171 231 279 352 416
#
# _framework density 23.122294
#
# number of rings (size 3 to 8) (size 9 to 14) (size 15 to 20)
#    0.000    1.143    3.810    2.857    5.333    0.000 
#    3.429    0.000    0.000    0.000    0.000    0.000 
#    0.000    0.000    0.000    0.000    0.000    0.000 
#
# Total GULP energy -520336.516037 kJ/mol
# GULP energy per Si atom -12388.964668 kJ/mol
# Density = 2.306967 g / cm^3
# Si number density = 23.122294 Si / 1000 Ang^3
#
#
#
# Elastic Constant Matrix: (Units=GPa)
#
#
# Indices 1 2 3 4 5 6 
#
# 1 88.6440 31.6432 22.9327 0.0000 0.0000 0.0000
# 2 31.6432 88.6425 22.9329 0.0000 0.0000 0.0000
# 3 22.9327 22.9329 94.9769 0.0000 0.0000 0.0000
# 4 0.0000 0.0000 0.0000 32.6855 0.0000 0.0000
# 5 0.0000 0.0000 0.0000 0.0000 32.6853 0.0000
# 6 0.0000 0.0000 0.0000 0.0000 0.0000 23.5266
#
#
#
# Elastic Compliance Matrix: (Units=1/GPa)
#
#
# Indices 1 2 3 4 5 6 
#
# 1 0.013350 -0.004194 -0.002211 0.000000 0.000000 0.000000
# 2 -0.004194 0.013350 -0.002211 0.000000 0.000000 0.000000
# 3 -0.002211 -0.002211 0.011597 0.000000 0.000000 0.000000
# 4 0.000000 0.000000 0.000000 0.030595 0.000000 0.000000
# 5 0.000000 0.000000 0.000000 0.000000 0.030595 0.000000
# 6 0.000000 0.000000 0.000000 0.000000 0.000000 0.042505
#
#
# Mechanical properties :
#
#
# Convention : Reuss Voigt Hill
#
# Bulk Modulus (GPa) = 47.46992 47.47566 47.47279
# Shear Modulus (GPa) = 30.07623 30.76313 30.41968
#
# Velocity S-wave (km/s) = 3.61050 3.65149 3.63105
# Velocity P-wave (km/s) = 6.16080 6.19313 6.17699
#
# Compressibility (1/GPa) = 0.02106597
#
# Stress axis : x y z
#
# Youngs Moduli (GPa) = 74.90607 74.90458 86.23262
#
# Poissons Ratio (x) = 0.31413 0.19065
# Poissons Ratio (y) = 0.31413 0.19066
# Poissons Ratio (z) = 0.16561 0.16561
#
# Static dielectric constant tensor:
#      x y z
#    x 4.163050 0.000000 0.000000 
#    y 0.000000 4.163040 0.000000 
#    z 0.000000 0.000000 4.293530 
# 
# 
# High freq. dielectric constant tensor:
#      x y z
#    x 1.903740 0.000000 0.000000 
#    y 0.000000 1.903740 0.000000 
#    z 0.000000 0.000000 1.916600 
# 
# From -- ./inp_files/1919.got.cif
#   From: 2010.03.12/outbox.cif.g09.slc.cpg/sg118_1_cif.got.tgz:1919.got - 2010.04.14 02:21:17.
