data_PCOD8310308
_publ_section_title
;
Structure prediction by ZEFSAII (Michael W. Deem and Ramdas Pophale) SiO2 
 PCOD8310308
Probable space group: P -4 B 2
;
_chemical_formula_sum "Si O2"
_cell_formula_units_Z 42
_cell_length_a 14.310730
_cell_length_b 14.310730
_cell_length_c 10.382787
_cell_angle_alpha 90.000000
_cell_angle_beta 90.000000
_cell_angle_gamma 90.000000
_cell_volume 2126.363558
_symmetry_space_group_name_H-M "P -4 B 2"
_symmetry_group_IT_number 117
_symmetry_cell_setting 'tetragonal'
loop_
_space_group_symop_operation_xyz
x,y,z
y,-x,-z
-x,-y,z
-y,x,-z
1/2+y,1/2+x,-z
1/2-y,1/2-x,-z
1/2-x,1/2+y,z
1/2+x,1/2-y,z
loop_
_atom_site_type_symbol
_atom_site_label
_atom_site_fract_x
_atom_site_fract_y
_atom_site_fract_z
Si Si1 0.550054 0.360116 0.481772
Si Si2 0.999407 0.309429 0.656555
Si Si3 0.000000 0.500000 0.500000
Si Si4 0.782768 0.643819 0.132940
Si Si5 0.163441 0.809196 0.739669
Si Si6 0.601036 0.606219 0.993237
O O1 0.444411 0.392860 0.450112
O O2 0.552759 0.269892 0.573933
O O3 0.598964 0.335257 0.348091
O O4 0.999809 0.408624 0.587841
O O5 0.052815 0.321446 0.793137
O O6 0.891292 0.277961 0.675459
O O7 0.786385 0.730054 0.230681
O O8 0.673917 0.633688 0.102422
O O9 0.841090 0.658911 0.000000
O O10 0.107082 0.828258 0.869833
O O11 0.618761 0.500569 0.944842
#
# Coordination Sequence:
#
# PCOD8310308 Si02
#       6
#     8   8   2   8   8   8
#     4   9  20  35  64  97 122 152 200 264 331 372
#     4  11  23  44  60  88 126 163 218 256 304 381
#     4  12  28  44  62  84 120 188 224 246 300 380
#     4  10  22  41  61  91 126 163 206 255 314 379
#     4  10  21  38  61  94 124 160 202 254 319 378
#     4  10  20  35  63  94 125 158 198 262 326 376
#
# _framework density 19.752030000000001
#
# number of rings (size 3 to 8) (size 9 to 14) (size 15 to 20)
#    0.000    1.905    1.905    1.143    2.667    4.571 
#    6.857    0.476    0.000    0.000    0.000    0.000 
#    0.000    0.000    0.000    0.000    0.000    0.000 
#
# Total GULP energy -520778.029359 kJ/mol
# GULP energy per Si atom -12399.476890 kJ/mol
# Density = 1.970707 g / cm^3
# Si number density = 19.752030 Si / 1000 Ang^3
#
#
#
# Elastic Constant Matrix: (Units=GPa)
#
#
# Indices 1 2 3 4 5 6 
#
# 1 105.9795 41.7463 50.3706 0.0000 0.0000 0.0000
# 2 41.7463 105.9799 50.3703 0.0000 0.0000 0.0000
# 3 50.3706 50.3703 84.9521 0.0000 0.0000 0.0000
# 4 0.0000 0.0000 0.0000 35.9787 0.0000 0.0000
# 5 0.0000 0.0000 0.0000 0.0000 35.9790 0.0000
# 6 0.0000 0.0000 0.0000 0.0000 0.0000 24.5725
#
#
#
# Elastic Compliance Matrix: (Units=1/GPa)
#
#
# Indices 1 2 3 4 5 6 
#
# 1 0.013466 -0.002102 -0.006738 0.000000 0.000000 0.000000
# 2 -0.002102 0.013466 -0.006738 0.000000 0.000000 0.000000
# 3 -0.006738 -0.006738 0.019762 0.000000 0.000000 0.000000
# 4 0.000000 0.000000 0.000000 0.027794 0.000000 0.000000
# 5 0.000000 0.000000 0.000000 0.000000 0.027794 0.000000
# 6 0.000000 0.000000 0.000000 0.000000 0.000000 0.040696
#
#
# Mechanical properties :
#
#
# Convention : Reuss Voigt Hill
#
# Bulk Modulus (GPa) = 64.35966 64.65401 64.50683
# Shear Modulus (GPa) = 27.88390 29.60098 28.74244
#
# Velocity S-wave (km/s) = 3.76133 3.87541 3.81880
# Velocity P-wave (km/s) = 7.17761 7.26836 7.22312
#
# Compressibility (1/GPa) = 0.01553768
#
# Stress axis : x y z
#
# Youngs Moduli (GPa) = 74.25887 74.25964 50.60218
#
# Poissons Ratio (x) = 0.15609 0.34098
# Poissons Ratio (y) = 0.15608 0.34097
# Poissons Ratio (z) = 0.50038 0.50038
#
# Static dielectric constant tensor:
#      x y z
#    x 3.635170 0.000000 0.000000 
#    y 0.000000 3.635170 0.000000 
#    z 0.000000 0.000000 3.572220 
# 
# 
# High freq. dielectric constant tensor:
#      x y z
#    x 1.770560 0.000000 0.000000 
#    y 0.000000 1.770560 0.000000 
#    z 0.000000 0.000000 1.769330 
# 
# From -- ./inp_files/1786.got.cif
#   From: 2010.03.12/outbox.cif.g09.slc.cpg/sg117_1_cif.got.tgz:1786.got - 2010.04.14 02:19:01.
