data_PCOD8310773
_publ_section_title
;
Structure prediction by ZEFSAII (Michael W. Deem and Ramdas Pophale) SiO2 
 PCOD8310773
Probable space group: I -4 M 2
;
_chemical_formula_sum "Si O2"
_cell_formula_units_Z 104
_cell_length_a 14.596543
_cell_length_b 14.596543
_cell_length_c 28.388054
_cell_angle_alpha 90.000000
_cell_angle_beta 90.000000
_cell_angle_gamma 90.000000
_cell_volume 6048.332315
_symmetry_space_group_name_H-M "I -4 M 2"
_symmetry_group_IT_number 119
_symmetry_cell_setting 'tetragonal'
loop_
_space_group_symop_operation_xyz
x,y,z
y,-x,-z
-x,-y,z
-y,x,-z
y,x,-z
-y,-x,-z
-x,y,z
x,-y,z
1/2+x,1/2+y,1/2+z
1/2+y,1/2-x,1/2-z
1/2-x,1/2-y,1/2+z
1/2-y,1/2+x,1/2-z
1/2+y,1/2+x,1/2-z
1/2-y,1/2-x,1/2-z
1/2-x,1/2+y,1/2+z
1/2+x,1/2-y,1/2+z
loop_
_atom_site_type_symbol
_atom_site_label
_atom_site_fract_x
_atom_site_fract_y
_atom_site_fract_z
Si Si1 0.287210 0.712791 0.500000
Si Si2 0.101034 0.102036 0.278020
Si Si3 0.214955 0.262035 0.303127
Si Si4 0.395797 0.896741 0.632729
Si Si5 0.106603 0.393000 0.477999
Si Si6 0.603395 0.395507 0.575120
Si Si7 0.823752 0.100214 0.176986
O O1 0.317568 0.821576 0.499482
O O2 0.328927 0.669891 0.547139
O O3 0.170462 0.162931 0.308003
O O4 0.109316 0.108208 0.221618
O O5 0.000000 0.135587 0.291222
O O6 0.119266 0.000000 0.295873
O O7 0.201011 0.298989 0.250000
O O8 0.172990 0.333647 0.339022
O O9 0.321636 0.246956 0.316697
O O10 0.500000 0.876352 0.646961
O O11 0.381964 0.881930 0.577581
O O12 0.368929 0.000000 0.646877
O O13 0.128535 0.500000 0.492245
O O14 0.000000 0.370552 0.492411
O O15 0.500000 0.366921 0.562544
O O16 0.622116 0.500000 0.559821
O O17 0.616371 0.382728 0.630720
O O18 0.775841 0.000000 0.175276
#
# Coordination Sequence:
#
# PCOD8310773 Si02
#       7
#     8  16  16  16  16  16  16
#     4  12  20  29  50  75  96 120 156 200 236 266
#     4   9  17  30  47  66  89 119 156 194 230 269
#     4  10  19  28  44  69  93 119 155 197 229 260
#     4   9  18  32  48  67  95 128 154 178 219 280
#     4   9  19  35  52  70  95 129 163 189 224 284
#     4  10  19  29  44  71 103 126 145 178 230 289
#     4   9  18  31  45  62  91 130 158 178 218 280
#
# _framework density 17.194821999999998
#
# number of rings (size 3 to 8) (size 9 to 14) (size 15 to 20)
#    0.000    2.462    0.000    4.154    0.000    7.385 
#    0.000    0.769    0.000    4.385    0.000    7.538 
#    0.000    0.000    0.000    0.000    0.000    0.000 
#
# Total GULP energy -644327.848482 kJ/mol
# GULP energy per Si atom -12390.920163 kJ/mol
# Density = 1.715569 g / cm^3
# Si number density = 17.194822 Si / 1000 Ang^3
#
#
#
# Elastic Constant Matrix: (Units=GPa)
#
#
# Indices 1 2 3 4 5 6 
#
# 1 114.4631 74.4399 29.5653 0.0000 0.0000 0.0000
# 2 74.4399 114.4635 29.5655 0.0000 0.0000 0.0000
# 3 29.5653 29.5655 40.0513 0.0000 0.0000 0.0000
# 4 0.0000 0.0000 0.0000 20.6988 0.0000 0.0000
# 5 0.0000 0.0000 0.0000 0.0000 20.6989 0.0000
# 6 0.0000 0.0000 0.0000 0.0000 0.0000 27.9483
#
#
#
# Elastic Compliance Matrix: (Units=1/GPa)
#
#
# Indices 1 2 3 4 5 6 
#
# 1 0.015935 -0.009050 -0.005082 0.000000 0.000000 0.000000
# 2 -0.009050 0.015935 -0.005082 0.000000 0.000000 0.000000
# 3 -0.005082 -0.005082 0.032471 0.000000 0.000000 0.000000
# 4 0.000000 0.000000 0.000000 0.048312 0.000000 0.000000
# 5 0.000000 0.000000 0.000000 0.000000 0.048312 0.000000
# 6 0.000000 0.000000 0.000000 0.000000 0.000000 0.035780
#
#
# Mechanical properties :
#
#
# Convention : Reuss Voigt Hill
#
# Bulk Modulus (GPa) = 38.59251 59.56879 49.08065
# Shear Modulus (GPa) = 20.50767 22.89635 21.70201
#
# Velocity S-wave (km/s) = 3.45725 3.65305 3.55649
# Velocity P-wave (km/s) = 6.19917 7.24649 6.74320
#
# Compressibility (1/GPa) = 0.02591177
#
# Stress axis : x y z
#
# Youngs Moduli (GPa) = 62.75510 62.75522 30.79674
#
# Poissons Ratio (x) = 0.56796 0.15651
# Poissons Ratio (y) = 0.56796 0.15651
# Poissons Ratio (z) = 0.31892 0.31893
#
# Static dielectric constant tensor:
#      x y z
#    x 3.359320 0.000000 0.000000 
#    y 0.000000 3.359300 0.000000 
#    z 0.000000 0.000000 3.047650 
# 
# 
# High freq. dielectric constant tensor:
#      x y z
#    x 1.654560 0.000000 0.000000 
#    y 0.000000 1.654560 0.000000 
#    z 0.000000 0.000000 1.647920 
# 
# From -- ./inp_files/10456.got.cif
#   From: 2010.03.12/outbox.cif.g09.slc.cpg/sg119_6_cif.got.tgz:10456.got - 2010.04.14 02:25:26.
