data_PCOD8310518
_publ_section_title
;
Structure prediction by ZEFSAII (Michael W. Deem and Ramdas Pophale) SiO2 
 PCOD8310518
Probable space group: P -4 N 2
;
_chemical_formula_sum "Si O2"
_cell_formula_units_Z 54
_cell_length_a 14.865961
_cell_length_b 14.865961
_cell_length_c 11.975748
_cell_angle_alpha 90.000000
_cell_angle_beta 90.000000
_cell_angle_gamma 90.000000
_cell_volume 2646.601943
_symmetry_space_group_name_H-M "P -4 N 2"
_symmetry_group_IT_number 118
_symmetry_cell_setting 'tetragonal'
loop_
_space_group_symop_operation_xyz
x,y,z
y,-x,-z
-x,-y,z
-y,x,-z
1/2+y,1/2+x,1/2-z
1/2-y,1/2-x,1/2-z
1/2-x,1/2+y,1/2+z
1/2+x,1/2-y,1/2+z
loop_
_atom_site_type_symbol
_atom_site_label
_atom_site_fract_x
_atom_site_fract_y
_atom_site_fract_z
Si Si1 0.728946 0.963165 0.829608
Si Si2 0.153048 0.263015 0.067541
Si Si3 0.108447 0.700652 0.404278
Si Si4 0.190300 0.528570 0.852971
Si Si5 0.741615 0.164064 0.362116
Si Si6 0.786171 0.286171 0.750000
Si Si7 0.579715 0.608862 0.529948
Si Si8 0.000000 0.500000 0.750000
O O1 0.711210 0.962313 0.697291
O O2 0.668687 0.888394 0.890587
O O3 0.834177 0.942973 0.858189
O O4 0.702962 0.062045 0.873436
O O5 0.239438 0.262966 0.146436
O O6 0.165927 0.324792 0.958313
O O7 0.155347 0.159025 0.035493
O O8 0.055755 0.692986 0.518405
O O9 0.167228 0.791352 0.406369
O O10 0.254060 0.441558 0.836245
O O11 0.227054 0.606542 0.770089
O O12 0.088461 0.499444 0.826433
O O13 0.716004 0.216004 0.250000
O O14 0.494283 0.607755 0.444233
#
# Coordination Sequence:
#
# PCOD8310518 Si02
#       8
#     8   8   8   8   8   4   8   2
#     4  10  21  37  63  91 128 171 213 268 330 394
#     4  11  23  38  64  91 127 165 216 266 333 390
#     4  11  22  42  61  94 133 173 216 272 332 394
#     4  11  25  41  67  93 134 173 221 282 333 404
#     4  12  23  43  67  96 124 178 226 269 331 405
#     4  11  24  45  60  95 126 177 214 274 328 397
#     4   9  17  33  58  89 117 154 206 269 314 368
#     4  10  24  44  64 102 128 174 228 280 350 402
#
# _framework density 20.403521999999999
#
# number of rings (size 3 to 8) (size 9 to 14) (size 15 to 20)
#    0.000    1.333    5.185    0.000    4.148    3.556 
#    0.000    0.000    0.000    2.222    0.000    0.000 
#    0.000    0.000    0.000    0.000    0.000    0.000 
#
# Total GULP energy -669334.251476 kJ/mol
# GULP energy per Si atom -12395.078731 kJ/mol
# Density = 2.035708 g / cm^3
# Si number density = 20.403522 Si / 1000 Ang^3
#
#
#
# Elastic Constant Matrix: (Units=GPa)
#
#
# Indices 1 2 3 4 5 6 
#
# 1 86.8912 30.5822 24.4094 0.0000 0.0000 0.0000
# 2 30.5822 86.8912 24.4094 0.0000 0.0000 0.0000
# 3 24.4094 24.4094 98.8863 0.0000 0.0000 0.0000
# 4 0.0000 0.0000 0.0000 33.1042 0.0000 0.0000
# 5 0.0000 0.0000 0.0000 0.0000 33.1042 0.0000
# 6 0.0000 0.0000 0.0000 0.0000 0.0000 22.9681
#
#
#
# Elastic Compliance Matrix: (Units=1/GPa)
#
#
# Indices 1 2 3 4 5 6 
#
# 1 0.013622 -0.004137 -0.002341 0.000000 0.000000 0.000000
# 2 -0.004137 0.013622 -0.002341 0.000000 0.000000 0.000000
# 3 -0.002341 -0.002341 0.011269 0.000000 0.000000 0.000000
# 4 0.000000 0.000000 0.000000 0.030208 0.000000 0.000000
# 5 0.000000 0.000000 0.000000 0.000000 0.030208 0.000000
# 6 0.000000 0.000000 0.000000 0.000000 0.000000 0.043539
#
#
# Mechanical properties :
#
#
# Convention : Reuss Voigt Hill
#
# Bulk Modulus (GPa) = 47.90656 47.94118 47.92387
# Shear Modulus (GPa) = 29.92853 30.71982 30.32417
#
# Velocity S-wave (km/s) = 3.83408 3.88443 3.85934
# Velocity P-wave (km/s) = 6.56740 6.60802 6.58774
#
# Compressibility (1/GPa) = 0.02087397
#
# Stress axis : x y z
#
# Youngs Moduli (GPa) = 73.40862 73.40862 88.74246
#
# Poissons Ratio (x) = 0.30367 0.20779
# Poissons Ratio (y) = 0.30367 0.20779
# Poissons Ratio (z) = 0.17188 0.17188
#
# Static dielectric constant tensor:
#      x y z
#    x 3.801280 0.000000 0.000000 
#    y 0.000000 3.801280 0.000000 
#    z 0.000000 0.000000 3.750020 
# 
# 
# High freq. dielectric constant tensor:
#      x y z
#    x 1.795420 0.000000 0.000000 
#    y 0.000000 1.795420 0.000000 
#    z 0.000000 0.000000 1.795120 
# 
# From -- ./inp_files/3455.got.cif
#   From: 2010.03.12/outbox.cif.g09.slc.cpg/sg118_2_cif.got.tgz:3455.got - 2010.04.14 02:21:17.
