data_PCOD8310870
_publ_section_title
;
Structure prediction by ZEFSAII (Michael W. Deem and Ramdas Pophale) SiO2 
 PCOD8310870
Probable space group: I -4 M 2
;
_chemical_formula_sum "Si O2"
_cell_formula_units_Z 104
_cell_length_a 20.169248
_cell_length_b 20.169248
_cell_length_c 15.643917
_cell_angle_alpha 90.000000
_cell_angle_beta 90.000000
_cell_angle_gamma 90.000000
_cell_volume 6363.922985
_symmetry_space_group_name_H-M "I -4 M 2"
_symmetry_group_IT_number 119
_symmetry_cell_setting 'tetragonal'
loop_
_space_group_symop_operation_xyz
x,y,z
y,-x,-z
-x,-y,z
-y,x,-z
y,x,-z
-y,-x,-z
-x,y,z
x,-y,z
1/2+x,1/2+y,1/2+z
1/2+y,1/2-x,1/2-z
1/2-x,1/2-y,1/2+z
1/2-y,1/2+x,1/2-z
1/2+y,1/2+x,1/2-z
1/2-y,1/2-x,1/2-z
1/2-x,1/2+y,1/2+z
1/2+x,1/2-y,1/2+z
loop_
_atom_site_type_symbol
_atom_site_label
_atom_site_fract_x
_atom_site_fract_y
_atom_site_fract_z
Si Si1 0.576116 0.173324 0.990072
Si Si2 0.835390 0.775260 0.576478
Si Si3 0.923323 0.660429 0.914922
Si Si4 0.423646 0.923646 0.250000
Si Si5 0.922304 0.320501 0.289829
Si Si6 0.823656 0.212019 0.252849
Si Si7 0.778649 0.832330 0.081765
O O1 0.500000 0.159622 0.010085
O O2 0.589267 0.187396 0.891007
O O3 0.599606 0.232254 0.053753
O O4 0.618357 0.107841 0.008441
O O5 0.828024 0.828024 0.500000
O O6 0.838656 0.814042 0.667014
O O7 0.771253 0.729038 0.580088
O O8 0.903500 0.625445 0.825982
O O9 0.899808 0.736402 0.917806
O O10 0.000000 0.659392 0.931631
O O11 0.500000 0.912783 0.221681
O O12 0.883939 0.383939 0.250000
O O13 0.893189 0.251663 0.253518
O O14 0.000000 0.327441 0.266900
O O15 0.764484 0.264484 0.250000
O O16 0.823368 0.168471 0.166884
O O17 0.827406 0.827406 0.000000
#
# Coordination Sequence:
#
# PCOD8310870 Si02
#       7
#    16  16  16   8  16  16  16
#     4  10  20  32  47  70 101 131 162 198 233 283
#     4   9  15  28  47  69  90 120 156 195 245 285
#     4  10  21  33  47  68  95 131 164 196 235 283
#     4   9  18  32  46  64  96 134 168 194 221 272
#     4  10  21  34  48  69  97 131 167 201 234 279
#     4   9  17  30  50  68  91 122 155 201 250 286
#     4   9  19  31  47  69  91 118 159 203 248 286
#
# _framework density 16.342120999999999
#
# number of rings (size 3 to 8) (size 9 to 14) (size 15 to 20)
#    0.000    2.538    1.538    0.462   11.846    1.692 
#    0.000    1.538    0.000    0.000    0.000    0.000 
#    0.000    5.538    0.000    0.000    0.000    0.000 
#
# Total GULP energy -644552.662277 kJ/mol
# GULP energy per Si atom -12395.243505 kJ/mol
# Density = 1.630493 g / cm^3
# Si number density = 16.342121 Si / 1000 Ang^3
#
#
#
# Elastic Constant Matrix: (Units=GPa)
#
#
# Indices 1 2 3 4 5 6 
#
# 1 53.1762 54.9831 33.9751 0.0000 0.0000 0.0000
# 2 54.9831 53.1762 33.9751 0.0000 0.0000 0.0000
# 3 33.9751 33.9751 94.1619 0.0000 0.0000 0.0000
# 4 0.0000 0.0000 0.0000 22.2303 0.0000 0.0000
# 5 0.0000 0.0000 0.0000 0.0000 22.2303 0.0000
# 6 0.0000 0.0000 0.0000 0.0000 0.0000 18.6258
#
#
#
# Elastic Compliance Matrix: (Units=1/GPa)
#
#
# Indices 1 2 3 4 5 6 
#
# 1 -0.270736 0.282692 -0.004314 0.000000 0.000000 0.000000
# 2 0.282692 -0.270736 -0.004314 0.000000 0.000000 0.000000
# 3 -0.004314 -0.004314 0.013733 0.000000 0.000000 0.000000
# 4 0.000000 0.000000 0.000000 0.044984 0.000000 0.000000
# 5 0.000000 0.000000 0.000000 0.000000 0.044984 0.000000
# 6 0.000000 0.000000 0.000000 0.000000 0.000000 0.053689
#
#
# Mechanical properties :
#
#
# Convention : Reuss Voigt Hill
#
# Bulk Modulus (GPa) = 49.04558 49.59789 49.32174
# Shear Modulus (GPa) = -5.40297 17.78938 6.19320
#
# Velocity S-wave (km/s) = -1.82026 3.30291 1.94883
# Velocity P-wave (km/s) = 5.06548 6.70532 5.94224
#
# Compressibility (1/GPa) = 0.02038920
#
# Stress axis : x y z
#
# Youngs Moduli (GPa) = -3.69363 -3.69363 72.81741
#
# Poissons Ratio (x) = 1.04416 0.31412
# Poissons Ratio (y) = 1.04416 0.31412
# Poissons Ratio (z) = -0.01593 -0.01593
#
# Static dielectric constant tensor:
#      x y z
#    x 2.882890 0.000000 0.000000 
#    y 0.000000 2.882890 0.000000 
#    z 0.000000 0.000000 3.421630 
# 
# 
# High freq. dielectric constant tensor:
#      x y z
#    x 1.596830 0.000000 0.000000 
#    y 0.000000 1.596830 0.000000 
#    z 0.000000 0.000000 1.647030 
# 
# From -- ./inp_files/5626.got.cif
#   From: 2010.03.12/outbox.cif.g09.slc.cpg/sg119_3_cif.got.tgz:5626.got - 2010.04.14 02:25:26.
