data_PCOD8310005
_publ_section_title
;
Structure prediction by ZEFSAII (Michael W. Deem and Ramdas Pophale) SiO2 
 PCOD8310005
Probable space group: P -4 M 2
;
_chemical_formula_sum "Si O2"
_cell_formula_units_Z 32
_cell_length_a 9.366252
_cell_length_b 9.366252
_cell_length_c 20.598287
_cell_angle_alpha 90.000000
_cell_angle_beta 90.000000
_cell_angle_gamma 90.000000
_cell_volume 1807.019261
_symmetry_space_group_name_H-M "P -4 M 2"
_symmetry_group_IT_number 115
_symmetry_cell_setting 'tetragonal'
loop_
_space_group_symop_operation_xyz
x,y,z
y,-x,-z
-x,-y,z
-y,x,-z
y,x,-z
-y,-x,-z
-x,y,z
x,-y,z
loop_
_atom_site_type_symbol
_atom_site_label
_atom_site_fract_x
_atom_site_fract_y
_atom_site_fract_z
Si Si1 0.667948 0.665512 0.891018
Si Si2 0.833977 0.833977 0.500000
Si Si3 0.330674 0.342611 0.254167
Si Si4 0.833954 0.334289 0.625115
Si Si5 0.832273 0.167728 0.000000
O O1 0.500000 0.689785 0.903493
O O2 0.706385 0.500000 0.904072
O O3 0.710099 0.712097 0.817750
O O4 0.760293 0.765740 0.936683
O O5 0.749772 0.775868 0.437421
O O6 0.000000 0.802927 0.488235
O O7 0.500000 0.348769 0.257390
O O8 0.267117 0.500000 0.266802
O O9 0.271075 0.239165 0.310089
O O10 0.797808 0.500000 0.614773
O O11 0.000000 0.306650 0.634550
O O12 0.000000 0.199959 0.998310
#
# Coordination Sequence:
#
# PCOD8310005 Si02
#       5
#     8   4   8   8   4
#     4   9  18  34  56  78  98 125 163 202 241 291
#     4   9  18  32  46  61  88 126 160 189 228 276
#     4   8  15  29  49  73  98 120 147 189 237 282
#     4   9  17  29  46  68  92 119 154 193 229 271
#     4  11  24  37  48  70 104 135 164 201 242 284
#
# _framework density 17.708722000000002
#
# number of rings (size 3 to 8) (size 9 to 14) (size 15 to 20)
#    0.000    3.000    0.000    2.250    0.000    5.000 
#    0.000    3.750    0.000    4.500    0.000    0.000 
#    0.000    0.000    0.000    0.000    0.000    0.000 
#
# Total GULP energy -396705.021687 kJ/mol
# GULP energy per Si atom -12397.031928 kJ/mol
# Density = 1.766842 g / cm^3
# Si number density = 17.708722 Si / 1000 Ang^3
#
#
#
# Elastic Constant Matrix: (Units=GPa)
#
#
# Indices 1 2 3 4 5 6 
#
# 1 67.0908 47.1007 74.6236 0.0000 0.0000 0.0000
# 2 47.1007 67.0900 74.6233 0.0000 0.0000 0.0000
# 3 74.6236 74.6233 193.0946 0.0000 0.0000 0.0000
# 4 0.0000 0.0000 0.0000 6.7853 0.0000 0.0000
# 5 0.0000 0.0000 0.0000 0.0000 6.7814 0.0000
# 6 0.0000 0.0000 0.0000 0.0000 0.0000 21.5846
#
#
#
# Elastic Compliance Matrix: (Units=1/GPa)
#
#
# Indices 1 2 3 4 5 6 
#
# 1 0.033860 -0.016165 -0.006838 0.000000 0.000000 0.000000
# 2 -0.016165 0.033861 -0.006839 0.000000 0.000000 0.000000
# 3 -0.006838 -0.006839 0.010464 0.000000 0.000000 0.000000
# 4 0.000000 0.000000 0.000000 0.147378 0.000000 0.000000
# 5 0.000000 0.000000 0.000000 0.000000 0.147462 0.000000
# 6 0.000000 0.000000 0.000000 0.000000 0.000000 0.046329
#
#
# Mechanical properties :
#
#
# Convention : Reuss Voigt Hill
#
# Bulk Modulus (GPa) = 54.05198 79.99673 67.02436
# Shear Modulus (GPa) = 10.30491 15.75878 13.03185
#
# Velocity S-wave (km/s) = 2.41490 2.98634 2.71569
# Velocity P-wave (km/s) = 6.19393 7.56060 6.91113
#
# Compressibility (1/GPa) = 0.01850071
#
# Stress axis : x y z
#
# Youngs Moduli (GPa) = 29.53329 29.53284 95.56226
#
# Poissons Ratio (x) = 0.47741 0.65349
# Poissons Ratio (y) = 0.47742 0.65350
# Poissons Ratio (z) = 0.20196 0.20196
#
# Static dielectric constant tensor:
#      x y z
#    x 3.176300 0.000000 0.000000 
#    y 0.000000 3.176310 0.000000 
#    z 0.000000 0.000000 3.653350 
# 
# 
# High freq. dielectric constant tensor:
#      x y z
#    x 1.665350 0.000000 0.000000 
#    y 0.000000 1.665350 0.000000 
#    z 0.000000 0.000000 1.702050 
# 
# From -- ./inp_files/5035.got.cif
#   From: 2010.03.12/outbox.cif.g09.slc.cpg/sg115_3_cif.got.tgz:5035.got - 2010.04.14 02:11:21.
