data_PCOD8310555
_publ_section_title
;
Structure prediction by ZEFSAII (Michael W. Deem and Ramdas Pophale) SiO2 
 PCOD8310555
Probable space group: P -4 N 2
;
_chemical_formula_sum "Si O2"
_cell_formula_units_Z 38
_cell_length_a 17.594127
_cell_length_b 17.594127
_cell_length_c 5.882106
_cell_angle_alpha 90.000000
_cell_angle_beta 90.000000
_cell_angle_gamma 90.000000
_cell_volume 1820.825352
_symmetry_space_group_name_H-M "P -4 N 2"
_symmetry_group_IT_number 118
_symmetry_cell_setting 'tetragonal'
loop_
_space_group_symop_operation_xyz
x,y,z
y,-x,-z
-x,-y,z
-y,x,-z
1/2+y,1/2+x,1/2-z
1/2-y,1/2-x,1/2-z
1/2-x,1/2+y,1/2+z
1/2+x,1/2-y,1/2+z
loop_
_atom_site_type_symbol
_atom_site_label
_atom_site_fract_x
_atom_site_fract_y
_atom_site_fract_z
Si Si1 0.000000 0.000000 0.500000
Si Si2 0.785134 0.956400 0.892676
Si Si3 0.865724 0.077324 0.214892
Si Si4 0.365976 0.021402 0.121638
Si Si5 0.266292 0.950617 0.501009
Si Si6 0.904015 0.595986 0.250000
O O1 0.037506 0.061745 0.667751
O O2 0.843179 0.886366 0.904192
O O3 0.772137 0.977333 0.627783
O O4 0.702828 0.933786 0.995564
O O5 0.825771 0.024508 0.028685
O O6 0.802818 0.098679 0.403592
O O7 0.420573 0.079428 0.250000
O O8 0.327383 0.969943 0.309785
O O9 0.414774 0.968650 0.946105
O O10 0.315720 0.905577 0.682679
#
# Coordination Sequence:
#
# PCOD8310555 Si02
#       6
#     2   8   8   8   8   4
#     4  12  20  34  68  96 122 172 240 266 336 384
#     4  10  22  38  64  90 135 169 217 273 329 392
#     4  11  21  37  61  95 128 173 217 274 322 395
#     4  10  23  42  69  95 129 166 221 278 336 398
#     4  10  22  39  64  90 131 165 216 271 329 392
#     4  10  22  41  66  96 124 172 214 278 327 400
#
# _framework density 20.869658000000001
#
# number of rings (size 3 to 8) (size 9 to 14) (size 15 to 20)
#    0.000    1.684    2.105    1.895    0.000    5.895 
#    0.000    0.000   55.579    0.000    0.000    0.000 
#    0.000    0.000    0.000    0.000    0.000    0.000 
#
# Total GULP energy -470849.905242 kJ/mol
# GULP energy per Si atom -12390.786980 kJ/mol
# Density = 2.082216 g / cm^3
# Si number density = 20.869658 Si / 1000 Ang^3
#
#
#
# Elastic Constant Matrix: (Units=GPa)
#
#
# Indices 1 2 3 4 5 6 
#
# 1 105.7073 69.6500 40.1400 0.0000 0.0000 0.0000
# 2 69.6500 105.7084 40.1383 0.0000 0.0000 0.0000
# 3 40.1400 40.1383 98.1251 0.0000 0.0000 0.0000
# 4 0.0000 0.0000 0.0000 37.1244 0.0000 0.0000
# 5 0.0000 0.0000 0.0000 0.0000 37.1254 0.0000
# 6 0.0000 0.0000 0.0000 0.0000 0.0000 22.5977
#
#
#
# Elastic Compliance Matrix: (Units=1/GPa)
#
#
# Indices 1 2 3 4 5 6 
#
# 1 0.017375 -0.010358 -0.002871 0.000000 0.000000 0.000000
# 2 -0.010358 0.017375 -0.002870 0.000000 0.000000 0.000000
# 3 -0.002871 -0.002870 0.012539 0.000000 0.000000 0.000000
# 4 0.000000 0.000000 0.000000 0.026936 0.000000 0.000000
# 5 0.000000 0.000000 0.000000 0.000000 0.026936 0.000000
# 6 0.000000 0.000000 0.000000 0.000000 0.000000 0.044252
#
#
# Mechanical properties :
#
#
# Convention : Reuss Voigt Hill
#
# Bulk Modulus (GPa) = 66.26206 67.71082 66.98644
# Shear Modulus (GPa) = 27.37604 30.01034 28.69319
#
# Velocity S-wave (km/s) = 3.62576 3.79620 3.71195
# Velocity P-wave (km/s) = 7.02478 7.19235 7.10906
#
# Compressibility (1/GPa) = 0.01509159
#
# Stress axis : x y z
#
# Youngs Moduli (GPa) = 57.55353 57.55512 79.74952
#
# Poissons Ratio (x) = 0.59617 0.22893
# Poissons Ratio (y) = 0.59616 0.22887
# Poissons Ratio (z) = 0.16521 0.16518
#
# Static dielectric constant tensor:
#      x y z
#    x 3.904620 0.000000 0.000000 
#    y 0.000000 3.904620 0.000000 
#    z 0.000000 0.000000 4.266110 
# 
# 
# High freq. dielectric constant tensor:
#      x y z
#    x 1.806470 0.000000 0.000000 
#    y 0.000000 1.806470 0.000000 
#    z 0.000000 0.000000 1.839930 
# 
# From -- ./inp_files/638.got.cif
#   From: 2010.03.12/outbox.cif.g09.slc.cpg/sg118_1_cif.got.tgz:638.got - 2010.04.14 02:21:17.
