data_PCOD8310465
_publ_section_title
;
Structure prediction by ZEFSAII (Michael W. Deem and Ramdas Pophale) SiO2 
 PCOD8310465
Probable space group: P -4 N 2
;
_chemical_formula_sum "Si O2"
_cell_formula_units_Z 56
_cell_length_a 12.217734
_cell_length_b 12.217734
_cell_length_c 20.588675
_cell_angle_alpha 90.000000
_cell_angle_beta 90.000000
_cell_angle_gamma 90.000000
_cell_volume 3073.333779
_symmetry_space_group_name_H-M "P -4 N 2"
_symmetry_group_IT_number 118
_symmetry_cell_setting 'tetragonal'
loop_
_space_group_symop_operation_xyz
x,y,z
y,-x,-z
-x,-y,z
-y,x,-z
1/2+y,1/2+x,1/2-z
1/2-y,1/2-x,1/2-z
1/2-x,1/2+y,1/2+z
1/2+x,1/2-y,1/2+z
loop_
_atom_site_type_symbol
_atom_site_label
_atom_site_fract_x
_atom_site_fract_y
_atom_site_fract_z
Si Si1 0.629770 0.500000 0.249481
Si Si2 0.266756 0.627442 0.798406
Si Si3 0.124397 0.624650 0.921304
Si Si4 0.627442 0.266756 0.201594
Si Si5 0.677876 0.322124 0.500000
Si Si6 0.124650 0.375603 0.578696
Si Si7 0.874410 1.000000 0.894995
O O1 0.500000 0.500000 0.252838
O O2 0.668899 0.607769 0.209677
O O3 0.668899 0.392231 0.209678
O O4 0.681731 0.500000 0.323084
O O5 0.190059 0.690059 0.750000
O O6 0.218092 0.652424 0.869120
O O7 0.257581 0.500000 0.781637
O O8 0.133240 0.500000 0.944133
O O9 1.000000 0.649169 0.895999
O O10 0.152991 0.696397 0.984137
O O11 0.690058 0.190058 0.250000
O O12 0.652424 0.218092 0.130880
O O13 0.652991 0.196397 0.484137
O O14 0.607896 0.349088 0.563798
O O15 0.650912 0.392103 0.436202
O O16 0.000000 0.000000 0.878558
#
# Coordination Sequence:
#
# PCOD8310465 Si02
#       7
#     8   8   8   8   8   8   8
#     4   9  20  34  54  82 116 148 178 224 278 338
#     4  10  19  34  55  83 112 147 184 229 282 329
#     4  10  21  36  55  80 112 144 186 233 283 339
#     4  10  19  34  55  83 112 147 184 229 282 329
#     4  12  19  34  54  81 112 144 186 238 290 331
#     4  10  21  36  55  80 112 144 186 233 283 339
#     4  11  18  30  53  87 113 137 182 233 287 333
#
# _framework density 18.221254999999999
#
# number of rings (size 3 to 8) (size 9 to 14) (size 15 to 20)
#    0.000    1.714    2.857    2.571    0.000    3.714 
#    2.571    0.000    0.000    0.429    0.000    0.000 
#    0.000    0.000    0.000    0.000    0.000    0.000 
#
# Total GULP energy -694096.703858 kJ/mol
# GULP energy per Si atom -12394.583997 kJ/mol
# Density = 1.817978 g / cm^3
# Si number density = 18.221255 Si / 1000 Ang^3
#
#
#
# Elastic Constant Matrix: (Units=GPa)
#
#
# Indices 1 2 3 4 5 6 
#
# 1 -60.5717 183.9387 51.5119 0.0000 0.0000 0.0000
# 2 183.9387 -60.5717 51.5119 0.0000 0.0000 0.0000
# 3 51.5119 51.5119 77.1371 0.0000 0.0000 0.0000
# 4 0.0000 0.0000 0.0000 7.7411 0.0000 0.0000
# 5 0.0000 0.0000 0.0000 0.0000 7.7411 0.0000
# 6 0.0000 0.0000 0.0000 0.0000 0.0000 20.1083
#
#
#
# Elastic Compliance Matrix: (Units=1/GPa)
#
#
# Indices 1 2 3 4 5 6 
#
# 1 0.007118 0.011208 -0.012238 0.000000 0.000000 0.000000
# 2 0.011208 0.007118 -0.012238 0.000000 0.000000 0.000000
# 3 -0.012238 -0.012238 0.029309 0.000000 0.000000 0.000000
# 4 0.000000 0.000000 0.000000 0.129180 0.000000 0.000000
# 5 0.000000 0.000000 0.000000 0.000000 0.129180 0.000000
# 6 0.000000 0.000000 0.000000 0.000000 0.000000 0.049731
#
#
# Mechanical properties :
#
#
# Convention : Reuss Voigt Hill
#
# Bulk Modulus (GPa) = 58.79324 58.87984 58.83654
# Shear Modulus (GPa) = 13.02621 -14.94648 -0.96013
#
# Velocity S-wave (km/s) = 2.67665 -2.86715 -0.72669
# Velocity P-wave (km/s) = 6.47216 4.62852 5.62637
#
# Compressibility (1/GPa) = 0.01700876
#
# Stress axis : x y z
#
# Youngs Moduli (GPa) = 140.48923 140.48923 34.11947
#
# Poissons Ratio (x) = -1.57457 0.41755
# Poissons Ratio (y) = -1.57457 0.41755
# Poissons Ratio (z) = 1.71929 1.71929
#
# Static dielectric constant tensor:
#      x y z
#    x 3.519050 0.000000 0.000000 
#    y 0.000000 3.519050 0.000000 
#    z 0.000000 0.000000 4.180220 
# 
# 
# High freq. dielectric constant tensor:
#      x y z
#    x 1.701190 0.000000 0.000000 
#    y 0.000000 1.701190 0.000000 
#    z 0.000000 0.000000 1.692500 
# 
# From -- ./inp_files/5735.got.cif
#   From: 2010.03.12/outbox.cif.g09.slc.cpg/sg118_3_cif.got.tgz:5735.got - 2010.04.14 02:21:17.
