data_PCOD8310986
_publ_section_title
;
Structure prediction by ZEFSAII (Michael W. Deem and Ramdas Pophale) SiO2 
 PCOD8310986
Probable space group: I -4 M 2
;
_chemical_formula_sum "Si O2"
_cell_formula_units_Z 88
_cell_length_a 18.176174
_cell_length_b 18.176174
_cell_length_c 14.638768
_cell_angle_alpha 90.000000
_cell_angle_beta 90.000000
_cell_angle_gamma 90.000000
_cell_volume 4836.258111
_symmetry_space_group_name_H-M "I -4 M 2"
_symmetry_group_IT_number 119
_symmetry_cell_setting 'tetragonal'
loop_
_space_group_symop_operation_xyz
x,y,z
y,-x,-z
-x,-y,z
-y,x,-z
y,x,-z
-y,-x,-z
-x,y,z
x,-y,z
1/2+x,1/2+y,1/2+z
1/2+y,1/2-x,1/2-z
1/2-x,1/2-y,1/2+z
1/2-y,1/2+x,1/2-z
1/2+y,1/2+x,1/2-z
1/2-y,1/2-x,1/2-z
1/2-x,1/2+y,1/2+z
1/2+x,1/2-y,1/2+z
loop_
_atom_site_type_symbol
_atom_site_label
_atom_site_fract_x
_atom_site_fract_y
_atom_site_fract_z
Si Si1 0.663662 0.158018 0.406075
Si Si2 0.082907 0.582907 0.750000
Si Si3 0.585354 0.198410 0.904628
Si Si4 0.304058 0.704511 0.808217
Si Si5 0.417949 0.917949 0.750000
Si Si6 0.583886 0.416115 0.500000
Si Si7 0.086148 0.198295 0.846003
O O1 0.638930 0.096798 0.332888
O O2 0.665938 0.123999 0.505928
O O3 0.745485 0.184372 0.385216
O O4 0.607124 0.225944 0.396883
O O5 0.095135 0.500000 0.714851
O O6 0.500000 0.216264 0.923783
O O7 0.622397 0.271952 0.862555
O O8 0.598364 0.134076 0.833750
O O9 0.273215 0.773215 0.750000
O O10 0.317190 0.633387 0.744911
O O11 0.500000 0.906016 0.712233
O O12 0.500000 0.402001 0.529226
O O13 0.632273 0.394003 0.586428
O O14 0.000000 0.199870 0.819802
#
# Coordination Sequence:
#
# PCOD8310986 Si02
#       7
#    16   8  16  16   8   8  16
#     4  11  22  37  59  83 119 152 196 247 295 354
#     4  11  22  37  58  88 124 157 196 245 300 368
#     4  11  23  38  59  84 116 157 197 239 296 353
#     4  10  21  38  57  82 115 149 195 249 287 343
#     4   9  20  37  54  78 114 151 188 229 274 340
#     4   9  20  36  54  86 122 148 190 250 303 358
#     4  10  21  36  60  85 113 157 197 242 304 355
#
# _framework density 18.195886000000002
#
# number of rings (size 3 to 8) (size 9 to 14) (size 15 to 20)
#    0.000    1.727    3.636    1.636    5.091    2.909 
#    0.000    5.455    0.000    0.000    0.000    0.000 
#    0.000    0.000    0.000    0.000    0.000    0.000 
#
# Total GULP energy -545595.812437 kJ/mol
# GULP energy per Si atom -12399.904828 kJ/mol
# Density = 1.815447 g / cm^3
# Si number density = 18.195886 Si / 1000 Ang^3
#
#
#
# Elastic Constant Matrix: (Units=GPa)
#
#
# Indices 1 2 3 4 5 6 
#
# 1 83.2971 60.1590 52.7196 0.0000 0.0000 0.0000
# 2 60.1590 83.2987 52.7191 0.0000 0.0000 0.0000
# 3 52.7196 52.7191 108.4309 0.0000 0.0000 0.0000
# 4 0.0000 0.0000 0.0000 26.4039 0.0000 0.0000
# 5 0.0000 0.0000 0.0000 0.0000 26.4041 0.0000
# 6 0.0000 0.0000 0.0000 0.0000 0.0000 29.8460
#
#
#
# Elastic Compliance Matrix: (Units=1/GPa)
#
#
# Indices 1 2 3 4 5 6 
#
# 1 0.027033 -0.016185 -0.005274 0.000000 0.000000 0.000000
# 2 -0.016185 0.027032 -0.005273 0.000000 0.000000 0.000000
# 3 -0.005274 -0.005273 0.014351 0.000000 0.000000 0.000000
# 4 0.000000 0.000000 0.000000 0.037873 0.000000 0.000000
# 5 0.000000 0.000000 0.000000 0.000000 0.037873 0.000000
# 6 0.000000 0.000000 0.000000 0.000000 0.000000 0.033505
#
#
# Mechanical properties :
#
#
# Convention : Reuss Voigt Hill
#
# Bulk Modulus (GPa) = 66.89249 67.35801 67.12525
# Shear Modulus (GPa) = 21.17615 23.82607 22.50111
#
# Velocity S-wave (km/s) = 3.41513 3.62252 3.52035
# Velocity P-wave (km/s) = 7.23831 7.38887 7.31398
#
# Compressibility (1/GPa) = 0.01494936
#
# Stress axis : x y z
#
# Youngs Moduli (GPa) = 36.99250 36.99381 69.68296
#
# Poissons Ratio (x) = 0.59875 0.36751
# Poissons Ratio (y) = 0.59873 0.36747
# Poissons Ratio (z) = 0.19510 0.19509
#
# Static dielectric constant tensor:
#      x y z
#    x 3.463870 0.000000 0.000000 
#    y 0.000000 3.463850 0.000000 
#    z 0.000000 0.000000 3.304550 
# 
# 
# High freq. dielectric constant tensor:
#      x y z
#    x 1.708900 0.000000 0.000000 
#    y 0.000000 1.708900 0.000000 
#    z 0.000000 0.000000 1.702260 
# 
# From -- ./inp_files/5431.got.cif
#   From: 2010.03.12/outbox.cif.g09.slc.cpg/sg119_3_cif.got.tgz:5431.got - 2010.04.14 02:25:26.
