data_PCOD8310387
_publ_section_title
;
Structure prediction by ZEFSAII (Michael W. Deem and Ramdas Pophale) SiO2 
 PCOD8310387
Probable space group: P -4 B 2
;
_chemical_formula_sum "Si O2"
_cell_formula_units_Z 26
_cell_length_a 15.025574
_cell_length_b 15.025574
_cell_length_c 5.032465
_cell_angle_alpha 90.000000
_cell_angle_beta 90.000000
_cell_angle_gamma 90.000000
_cell_volume 1136.168924
_symmetry_space_group_name_H-M "P -4 B 2"
_symmetry_group_IT_number 117
_symmetry_cell_setting 'tetragonal'
loop_
_space_group_symop_operation_xyz
x,y,z
y,-x,-z
-x,-y,z
-y,x,-z
1/2+y,1/2+x,-z
1/2-y,1/2-x,-z
1/2-x,1/2+y,z
1/2+x,1/2-y,z
loop_
_atom_site_type_symbol
_atom_site_label
_atom_site_fract_x
_atom_site_fract_y
_atom_site_fract_z
Si Si1 0.546752 0.312459 0.354945
Si Si2 0.500000 0.500000 0.500000
Si Si3 0.681405 0.894050 0.753121
Si Si4 0.277716 0.345315 0.122426
O O1 0.488397 0.404183 0.355659
O O2 0.488168 0.231250 0.245185
O O3 0.582321 0.279689 0.641421
O O4 0.621409 0.333407 0.134297
O O5 0.619048 0.880953 0.500000
O O6 0.755303 0.817333 0.759269
O O7 0.614331 0.885670 0.000000
O O8 0.179321 0.320680 0.000000
#
# Coordination Sequence:
#
# PCOD8310387 Si02
#       4
#     8   2   8   8
#     4  12  25  41  66  97 141 168 209 278 327 393
#     4  12  28  38  64 110 144 166 196 266 364 390
#     4  11  23  41  65  93 132 176 223 258 318 395
#     4  11  24  41  65  92 131 180 223 257 316 398
#
# _framework density 22.883918000000001
#
# number of rings (size 3 to 8) (size 9 to 14) (size 15 to 20)
#    0.000    0.615    3.077    6.462    4.308    1.231 
#    0.000    0.000    0.000   13.846    0.000    0.000 
#    0.000    0.000    0.000    0.000    0.000    0.000 
#
# Total GULP energy -322172.684388 kJ/mol
# GULP energy per Si atom -12391.257092 kJ/mol
# Density = 2.283183 g / cm^3
# Si number density = 22.883918 Si / 1000 Ang^3
#
#
#
# Elastic Constant Matrix: (Units=GPa)
#
#
# Indices 1 2 3 4 5 6 
#
# 1 53.5986 25.4124 32.7306 0.0000 0.0000 0.0000
# 2 25.4124 53.5973 32.7299 0.0000 0.0000 0.0000
# 3 32.7306 32.7299 169.0351 0.0000 0.0000 0.0000
# 4 0.0000 0.0000 0.0000 22.4948 0.0000 0.0000
# 5 0.0000 0.0000 0.0000 0.0000 22.4940 0.0000
# 6 0.0000 0.0000 0.0000 0.0000 0.0000 38.7386
#
#
#
# Elastic Compliance Matrix: (Units=1/GPa)
#
#
# Indices 1 2 3 4 5 6 
#
# 1 0.025277 -0.010202 -0.002919 0.000000 0.000000 0.000000
# 2 -0.010202 0.025277 -0.002919 0.000000 0.000000 0.000000
# 3 -0.002919 -0.002919 0.007046 0.000000 0.000000 0.000000
# 4 0.000000 0.000000 0.000000 0.044455 0.000000 0.000000
# 5 0.000000 0.000000 0.000000 0.000000 0.044456 0.000000
# 6 0.000000 0.000000 0.000000 0.000000 0.000000 0.025814
#
#
# Mechanical properties :
#
#
# Convention : Reuss Voigt Hill
#
# Bulk Modulus (GPa) = 39.18436 50.88629 45.03533
# Shear Modulus (GPa) = 23.48383 29.10269 26.29326
#
# Velocity S-wave (km/s) = 3.20694 3.57003 3.39334
# Velocity P-wave (km/s) = 5.55633 6.26726 5.92247
#
# Compressibility (1/GPa) = 0.02552038
#
# Stress axis : x y z
#
# Youngs Moduli (GPa) = 39.56195 39.56110 141.91796
#
# Poissons Ratio (x) = 0.40361 0.41426
# Poissons Ratio (y) = 0.40362 0.41425
# Poissons Ratio (z) = 0.11548 0.11548
#
# Static dielectric constant tensor:
#      x y z
#    x 4.022520 0.000000 0.000000 
#    y 0.000000 4.022530 0.000000 
#    z 0.000000 0.000000 4.352610 
# 
# 
# High freq. dielectric constant tensor:
#      x y z
#    x 1.888210 0.000000 0.000000 
#    y 0.000000 1.888210 0.000000 
#    z 0.000000 0.000000 1.918520 
# 
# From -- ./inp_files/297.got.cif
#   From: 2010.03.12/outbox.cif.g09.slc.cpg/sg117_1_cif.got.tgz:297.got - 2010.04.14 02:19:01.
