data_PCOD8310940
_publ_section_title
;
Structure prediction by ZEFSAII (Michael W. Deem and Ramdas Pophale) SiO2 
 PCOD8310940
Probable space group: I -4 M 2
;
_chemical_formula_sum "Si O2"
_cell_formula_units_Z 112
_cell_length_a 30.882905
_cell_length_b 30.882905
_cell_length_c 5.484806
_cell_angle_alpha 90.000000
_cell_angle_beta 90.000000
_cell_angle_gamma 90.000000
_cell_volume 5231.154681
_symmetry_space_group_name_H-M "I -4 M 2"
_symmetry_group_IT_number 119
_symmetry_cell_setting 'tetragonal'
loop_
_space_group_symop_operation_xyz
x,y,z
y,-x,-z
-x,-y,z
-y,x,-z
y,x,-z
-y,-x,-z
-x,y,z
x,-y,z
1/2+x,1/2+y,1/2+z
1/2+y,1/2-x,1/2-z
1/2-x,1/2-y,1/2+z
1/2-y,1/2+x,1/2-z
1/2+y,1/2+x,1/2-z
1/2-y,1/2-x,1/2-z
1/2-x,1/2+y,1/2+z
1/2+x,1/2-y,1/2+z
loop_
_atom_site_type_symbol
_atom_site_label
_atom_site_fract_x
_atom_site_fract_y
_atom_site_fract_z
Si Si1 0.170787 0.390890 0.137302
Si Si2 0.397543 0.251810 0.149958
Si Si3 0.327365 0.449824 0.026246
Si Si4 0.885861 0.450993 0.844390
Si Si5 0.765953 0.196916 0.247793
Si Si6 0.621071 0.549983 0.525183
Si Si7 0.452279 0.199257 0.475925
O O1 0.153625 0.346375 0.250000
O O2 0.201173 0.417914 0.312916
O O3 0.205072 0.378536 0.933428
O O4 0.129866 0.420310 0.062311
O O5 0.417311 0.286235 0.960149
O O6 0.354961 0.269381 0.282231
O O7 0.439625 0.240051 0.310631
O O8 0.313007 0.500000 0.016380
O O9 0.354017 0.438161 0.777938
O O10 0.351672 0.440432 0.279936
O O11 0.894720 0.500000 0.935752
O O12 0.931035 0.431035 0.750000
O O13 0.847971 0.450487 0.646247
O O14 0.790030 0.209971 0.500000
O O15 0.717550 0.217550 0.250000
O O16 0.788355 0.211646 0.000000
O O17 0.577648 0.577648 0.500000
O O18 0.607009 0.500000 0.533820
O O19 0.500000 0.207973 0.579987
#
# Coordination Sequence:
#
# PCOD8310940 Si02
#       7
#    16  16  16  16  16  16  16
#     4  11  23  38  64  92 122 160 213 276 336 396
#     4  11  26  39  67  94 122 169 219 267 322 405
#     4  10  23  42  63  96 138 176 217 272 331 390
#     4  10  20  37  56  83 119 160 206 260 328 401
#     4  10  25  45  65  91 130 169 215 276 336 391
#     4  10  22  42  69 100 138 180 222 272 325 384
#     4  10  22  39  62  92 124 158 203 267 332 390
#
# _framework density 21.410187000000001
#
# number of rings (size 3 to 8) (size 9 to 14) (size 15 to 20)
#    0.000    1.714    1.429    1.286    6.000    4.286 
#    0.000    0.000    0.000    2.571    0.000    0.000 
#    0.000    0.000    0.000    0.000    0.000    0.000 
#
# Total GULP energy -693822.622874 kJ/mol
# GULP energy per Si atom -12389.689694 kJ/mol
# Density = 2.136146 g / cm^3
# Si number density = 21.410187 Si / 1000 Ang^3
#
#
#
# Elastic Constant Matrix: (Units=GPa)
#
#
# Indices 1 2 3 4 5 6 
#
# 1 -105.4776 268.5728 26.2979 0.0000 0.0000 0.0000
# 2 268.5728 -105.4435 26.2962 0.0000 0.0000 0.0000
# 3 26.2979 26.2962 108.9760 0.0000 0.0000 0.0000
# 4 0.0000 0.0000 0.0000 17.6438 0.0000 0.0000
# 5 0.0000 0.0000 0.0000 0.0000 17.6500 0.0000
# 6 0.0000 0.0000 0.0000 0.0000 0.0000 28.7987
#
#
#
# Elastic Compliance Matrix: (Units=1/GPa)
#
#
# Indices 1 2 3 4 5 6 
#
# 1 0.001987 0.004661 -0.001604 0.000000 0.000000 0.000000
# 2 0.004661 0.001988 -0.001604 0.000000 0.000000 0.000000
# 3 -0.001604 -0.001604 0.009951 0.000000 0.000000 0.000000
# 4 0.000000 0.000000 0.000000 0.056677 0.000000 0.000000
# 5 0.000000 0.000000 0.000000 0.000000 0.056657 0.000000
# 6 0.000000 0.000000 0.000000 0.000000 0.000000 0.034724
#
#
# Mechanical properties :
#
#
# Convention : Reuss Voigt Hill
#
# Bulk Modulus (GPa) = 59.41890 60.04320 59.73105
# Shear Modulus (GPa) = 30.36034 -15.38897 7.48568
#
# Velocity S-wave (km/s) = 3.76976 -2.68389 1.87187
# Velocity P-wave (km/s) = 6.83820 4.30125 5.71234
#
# Compressibility (1/GPa) = 0.01682966
#
# Stress axis : x y z
#
# Youngs Moduli (GPa) = 503.29147 503.13478 100.49677
#
# Poissons Ratio (x) = -2.34500 0.16121
# Poissons Ratio (y) = -2.34573 0.16123
# Poissons Ratio (z) = 0.80735 0.80719
#
# Static dielectric constant tensor:
#      x y z
#    x 3.838710 0.000000 0.000000 
#    y 0.000000 3.838710 0.000000 
#    z 0.000000 0.000000 5.957320 
# 
# 
# High freq. dielectric constant tensor:
#      x y z
#    x 1.839330 0.000000 0.000000 
#    y 0.000000 1.839330 0.000000 
#    z 0.000000 0.000000 1.840460 
# 
# From -- ./inp_files/1225.got.cif
#   From: 2010.03.12/outbox.cif.g09.slc.cpg/sg119_1_cif.got.tgz:1225.got - 2010.04.14 02:25:26.
