data_PCOD8310935
_publ_section_title
;
Structure prediction by ZEFSAII (Michael W. Deem and Ramdas Pophale) SiO2 
 PCOD8310935
Probable space group: I -4 M 2
;
_chemical_formula_sum "Si O2"
_cell_formula_units_Z 72
_cell_length_a 14.627098
_cell_length_b 14.627098
_cell_length_c 15.370152
_cell_angle_alpha 90.000000
_cell_angle_beta 90.000000
_cell_angle_gamma 90.000000
_cell_volume 3288.474698
_symmetry_space_group_name_H-M "I -4 M 2"
_symmetry_group_IT_number 119
_symmetry_cell_setting 'tetragonal'
loop_
_space_group_symop_operation_xyz
x,y,z
y,-x,-z
-x,-y,z
-y,x,-z
y,x,-z
-y,-x,-z
-x,y,z
x,-y,z
1/2+x,1/2+y,1/2+z
1/2+y,1/2-x,1/2-z
1/2-x,1/2-y,1/2+z
1/2-y,1/2+x,1/2-z
1/2+y,1/2+x,1/2-z
1/2-y,1/2-x,1/2-z
1/2-x,1/2+y,1/2+z
1/2+x,1/2-y,1/2+z
loop_
_atom_site_type_symbol
_atom_site_label
_atom_site_fract_x
_atom_site_fract_y
_atom_site_fract_z
Si Si1 0.720109 0.662334 0.152188
Si Si2 0.840126 0.261783 0.926657
Si Si3 0.900203 0.900203 0.500000
Si Si4 0.604975 0.898002 0.933789
Si Si5 0.398485 0.396525 0.310767
O O1 0.698931 0.771537 0.147952
O O2 0.829152 0.644705 0.139883
O O3 0.682043 0.625875 0.243233
O O4 0.673436 0.607440 0.074938
O O5 0.898134 0.176407 0.889880
O O6 0.771262 0.228739 0.000000
O O7 0.898311 0.341439 0.972768
O O8 0.000000 0.888664 0.543077
O O9 0.500000 0.874164 0.954515
O O10 0.615081 0.000000 0.894677
O O11 0.500000 0.390485 0.268055
O O12 0.381839 0.500000 0.346463
#
# Coordination Sequence:
#
# PCOD8310935 Si02
#       5
#    16  16   8  16  16
#     4  11  21  38  60  90 126 157 197 250 309 367
#     4  10  22  40  60  86 119 163 206 246 296 356
#     4  11  20  32  58  92 124 159 196 242 306 371
#     4  10  20  36  62  92 121 159 205 249 295 357
#     4  11  24  40  61  91 125 159 199 254 312 365
#
# _framework density 21.894649999999999
#
# number of rings (size 3 to 8) (size 9 to 14) (size 15 to 20)
#    0.000    1.444    3.333    4.000    0.000    7.111 
#    0.000    1.111    0.000    1.333    0.000   15.556 
#    0.000    0.000    0.000    0.000    0.000    0.000 
#
# Total GULP energy -446106.920219 kJ/mol
# GULP energy per Si atom -12391.858895 kJ/mol
# Density = 2.184482 g / cm^3
# Si number density = 21.894650 Si / 1000 Ang^3
#
#
#
# Elastic Constant Matrix: (Units=GPa)
#
#
# Indices 1 2 3 4 5 6 
#
# 1 118.8804 20.7054 24.9933 0.0000 0.0000 0.0000
# 2 20.7054 118.8795 24.9928 0.0000 0.0000 0.0000
# 3 24.9933 24.9928 57.7819 0.0000 0.0000 0.0000
# 4 0.0000 0.0000 0.0000 19.8858 0.0000 0.0000
# 5 0.0000 0.0000 0.0000 0.0000 19.8866 0.0000
# 6 0.0000 0.0000 0.0000 0.0000 0.0000 29.1237
#
#
#
# Elastic Compliance Matrix: (Units=1/GPa)
#
#
# Indices 1 2 3 4 5 6 
#
# 1 0.009332 -0.000854 -0.003667 0.000000 0.000000 0.000000
# 2 -0.000854 0.009332 -0.003667 0.000000 0.000000 0.000000
# 3 -0.003667 -0.003667 0.020478 0.000000 0.000000 0.000000
# 4 0.000000 0.000000 0.000000 0.050287 0.000000 0.000000
# 5 0.000000 0.000000 0.000000 0.000000 0.050285 0.000000
# 6 0.000000 0.000000 0.000000 0.000000 0.000000 0.034336
#
#
# Mechanical properties :
#
#
# Convention : Reuss Voigt Hill
#
# Bulk Modulus (GPa) = 43.92538 48.54722 46.23630
# Shear Modulus (GPa) = 25.25069 28.76923 27.00996
#
# Velocity S-wave (km/s) = 3.39968 3.62882 3.51612
# Velocity P-wave (km/s) = 5.95954 6.30706 6.13577
#
# Compressibility (1/GPa) = 0.02276588
#
# Stress axis : x y z
#
# Youngs Moduli (GPa) = 107.16363 107.16315 48.83181
#
# Poissons Ratio (x) = 0.09156 0.17905
# Poissons Ratio (y) = 0.09156 0.17905
# Poissons Ratio (z) = 0.39294 0.39293
#
# Static dielectric constant tensor:
#      x y z
#    x 4.242660 0.000000 0.000000 
#    y 0.000000 4.242660 0.000000 
#    z 0.000000 0.000000 3.772690 
# 
# 
# High freq. dielectric constant tensor:
#      x y z
#    x 1.871280 0.000000 0.000000 
#    y 0.000000 1.871280 0.000000 
#    z 0.000000 0.000000 1.827470 
# 
# From -- ./inp_files/6383.got.cif
#   From: 2010.03.12/outbox.cif.g09.slc.cpg/sg119_4_cif.got.tgz:6383.got - 2010.04.14 02:25:26.
