data_PCOD8310367
_publ_section_title
;
Structure prediction by ZEFSAII (Michael W. Deem and Ramdas Pophale) SiO2 
 PCOD8310367
Probable space group: P -4 B 2
;
_chemical_formula_sum "Si O2"
_cell_formula_units_Z 28
_cell_length_a 15.853912
_cell_length_b 15.853912
_cell_length_c 5.008648
_cell_angle_alpha 90.000000
_cell_angle_beta 90.000000
_cell_angle_gamma 90.000000
_cell_volume 1258.906273
_symmetry_space_group_name_H-M "P -4 B 2"
_symmetry_group_IT_number 117
_symmetry_cell_setting 'tetragonal'
loop_
_space_group_symop_operation_xyz
x,y,z
y,-x,-z
-x,-y,z
-y,x,-z
1/2+y,1/2+x,-z
1/2-y,1/2-x,-z
1/2-x,1/2+y,z
1/2+x,1/2-y,z
loop_
_atom_site_type_symbol
_atom_site_label
_atom_site_fract_x
_atom_site_fract_y
_atom_site_fract_z
Si Si1 0.425830 0.310837 0.816473
Si Si2 0.637078 0.862923 0.000000
Si Si3 0.117377 0.464934 0.749325
Si Si4 0.196138 0.961501 0.689633
O O1 0.501973 0.299944 0.608689
O O2 0.367811 0.384722 0.706406
O O3 0.370754 0.225837 0.845256
O O4 0.466401 0.333052 0.102720
O O5 0.565829 0.871891 0.228800
O O6 0.060863 0.439138 0.500000
O O7 0.210725 0.424765 0.748877
O O8 0.067265 0.432736 0.000000
#
# Coordination Sequence:
#
# PCOD8310367 Si02
#       4
#     8   4   8   8
#     4  11  25  45  68  98 138 174 233 276 345 398
#     4  10  25  44  70  98 138 181 222 286 344 416
#     4  11  24  42  67  97 134 171 223 266 337 398
#     4  11  25  44  67 102 132 180 228 276 338 409
#
# _framework density 22.241527000000001
#
# number of rings (size 3 to 8) (size 9 to 14) (size 15 to 20)
#    0.000    1.143    0.000    5.571    2.000   17.143 
#    5.143    0.000    0.000    0.000    0.000    0.000 
#    0.000    0.000    0.000    0.000    0.000    0.000 
#
# Total GULP energy -347284.305212 kJ/mol
# GULP energy per Si atom -12403.010900 kJ/mol
# Density = 2.219090 g / cm^3
# Si number density = 22.241527 Si / 1000 Ang^3
#
#
#
# Elastic Constant Matrix: (Units=GPa)
#
#
# Indices 1 2 3 4 5 6 
#
# 1 116.8707 69.0299 31.8729 0.0000 0.0000 0.0000
# 2 69.0299 116.8685 31.8723 0.0000 0.0000 0.0000
# 3 31.8729 31.8723 121.1722 0.0000 0.0000 0.0000
# 4 0.0000 0.0000 0.0000 15.4471 0.0000 0.0000
# 5 0.0000 0.0000 0.0000 0.0000 15.4512 0.0000
# 6 0.0000 0.0000 0.0000 0.0000 0.0000 37.6204
#
#
#
# Elastic Compliance Matrix: (Units=1/GPa)
#
#
# Indices 1 2 3 4 5 6 
#
# 1 0.013408 -0.007495 -0.001555 0.000000 0.000000 0.000000
# 2 -0.007495 0.013408 -0.001555 0.000000 0.000000 0.000000
# 3 -0.001555 -0.001555 0.009071 0.000000 0.000000 0.000000
# 4 0.000000 0.000000 0.000000 0.064737 0.000000 0.000000
# 5 0.000000 0.000000 0.000000 0.000000 0.064720 0.000000
# 6 0.000000 0.000000 0.000000 0.000000 0.000000 0.026581
#
#
# Mechanical properties :
#
#
# Convention : Reuss Voigt Hill
#
# Bulk Modulus (GPa) = 68.14262 68.94019 68.54140
# Shear Modulus (GPa) = 22.93284 28.51282 25.72283
#
# Velocity S-wave (km/s) = 3.21453 3.58434 3.40446
# Velocity P-wave (km/s) = 6.66946 6.94215 6.80717
#
# Compressibility (1/GPa) = 0.01467510
#
# Stress axis : x y z
#
# Youngs Moduli (GPa) = 74.58389 74.58260 110.24302
#
# Poissons Ratio (x) = 0.55902 0.17145
# Poissons Ratio (y) = 0.55903 0.17145
# Poissons Ratio (z) = 0.11599 0.11599
#
# Static dielectric constant tensor:
#      x y z
#    x 4.164750 0.000000 0.000000 
#    y 0.000000 4.164790 0.000000 
#    z 0.000000 0.000000 3.964520 
# 
# 
# High freq. dielectric constant tensor:
#      x y z
#    x 1.878480 0.000000 0.000000 
#    y 0.000000 1.878480 0.000000 
#    z 0.000000 0.000000 1.889130 
# 
# From -- ./inp_files/287.got.cif
#   From: 2010.03.12/outbox.cif.g09.slc.cpg/sg117_1_cif.got.tgz:287.got - 2010.04.14 02:19:01.
