data_PCOD8310175
_publ_section_title
;
Structure prediction by ZEFSAII (Michael W. Deem and Ramdas Pophale) SiO2 
 PCOD8310175
Probable space group: P -4 C 2
;
_chemical_formula_sum "Si O2"
_cell_formula_units_Z 40
_cell_length_a 8.628000
_cell_length_b 8.628000
_cell_length_c 26.472006
_cell_angle_alpha 90.000000
_cell_angle_beta 90.000000
_cell_angle_gamma 90.000000
_cell_volume 1970.639236
_symmetry_space_group_name_H-M "P -4 C 2"
_symmetry_group_IT_number 116
_symmetry_cell_setting 'tetragonal'
loop_
_space_group_symop_operation_xyz
x,y,z
y,-x,-z
-x,-y,z
-y,x,-z
y,x,1/2-z
-y,-x,1/2-z
-x,y,1/2+z
x,-y,1/2+z
loop_
_atom_site_type_symbol
_atom_site_label
_atom_site_fract_x
_atom_site_fract_y
_atom_site_fract_z
Si Si1 0.500000 0.500000 0.357833
Si Si2 0.000000 0.500000 0.146562
Si Si3 0.252816 0.694933 0.090293
Si Si4 0.207838 0.866810 0.509188
Si Si5 0.291049 0.754153 0.808232
Si Si6 0.320721 0.966529 0.614078
O O1 0.626474 0.418323 0.393593
O O2 0.591202 0.616732 0.321759
O O3 0.879494 0.415124 0.110859
O O4 0.917553 0.626149 0.181836
O O5 0.230126 0.869989 0.111363
O O6 0.243066 0.697552 0.029295
O O7 0.294531 0.868714 0.562737
O O8 0.035803 0.799425 0.517005
O O9 0.249589 0.750412 0.750000
O O10 0.131673 0.744674 0.839452
O O11 0.500000 0.000000 0.621911
#
# Coordination Sequence:
#
# PCOD8310175 Si02
#       6
#     4   4   8   8   8   8
#     4  10  21  42  61  96 124 176 206 274 322 404
#     4  10  24  40  64  92 124 166 216 270 324 394
#     4  10  21  41  65  91 132 166 212 261 328 394
#     4   9  19  36  62  91 124 168 203 254 323 384
#     4  11  24  42  65  90 129 168 221 271 338 385
#     4  11  22  40  64  94 128 166 216 267 317 393
#
# _framework density 20.297981
#
# number of rings (size 3 to 8) (size 9 to 14) (size 15 to 20)
#    0.000    1.800    2.000    1.500    2.800    2.400 
#    3.600    3.000    0.000    0.000    0.000    0.000 
#    0.000    0.000    0.000    0.000    0.000    0.000 
#
# Total GULP energy -496147.560074 kJ/mol
# GULP energy per Si atom -12403.689002 kJ/mol
# Density = 2.025178 g / cm^3
# Si number density = 20.297981 Si / 1000 Ang^3
#
#
#
# Elastic Constant Matrix: (Units=GPa)
#
#
# Indices 1 2 3 4 5 6 
#
# 1 74.4216 15.7307 48.3094 0.0000 0.0000 0.0000
# 2 15.7307 74.4216 48.3094 0.0000 0.0000 0.0000
# 3 48.3094 48.3094 151.9009 0.0000 0.0000 0.0000
# 4 0.0000 0.0000 0.0000 24.5089 0.0000 0.0000
# 5 0.0000 0.0000 0.0000 0.0000 24.5090 0.0000
# 6 0.0000 0.0000 0.0000 0.0000 0.0000 33.4505
#
#
#
# Elastic Compliance Matrix: (Units=1/GPa)
#
#
# Indices 1 2 3 4 5 6 
#
# 1 0.016933 -0.000105 -0.005352 0.000000 0.000000 0.000000
# 2 -0.000105 0.016933 -0.005352 0.000000 0.000000 0.000000
# 3 -0.005352 -0.005352 0.009987 0.000000 0.000000 0.000000
# 4 0.000000 0.000000 0.000000 0.040801 0.000000 0.000000
# 5 0.000000 0.000000 0.000000 0.000000 0.040801 0.000000
# 6 0.000000 0.000000 0.000000 0.000000 0.000000 0.029895
#
#
# Mechanical properties :
#
#
# Convention : Reuss Voigt Hill
#
# Bulk Modulus (GPa) = 44.97196 58.38255 51.67726
# Shear Modulus (GPa) = 27.11768 29.05332 28.08550
#
# Velocity S-wave (km/s) = 3.65907 3.78741 3.72379
# Velocity P-wave (km/s) = 6.32896 6.92468 6.63351
#
# Compressibility (1/GPa) = 0.02223608
#
# Stress axis : x y z
#
# Youngs Moduli (GPa) = 59.05534 59.05536 100.12626
#
# Poissons Ratio (x) = 0.00621 0.53586
# Poissons Ratio (y) = 0.00621 0.53586
# Poissons Ratio (z) = 0.31606 0.31606
#
# Static dielectric constant tensor:
#      x y z
#    x 3.874350 0.000000 0.000000 
#    y 0.000000 3.874350 0.000000 
#    z 0.000000 0.000000 3.462370 
# 
# 
# High freq. dielectric constant tensor:
#      x y z
#    x 1.800050 0.000000 0.000000 
#    y 0.000000 1.800050 0.000000 
#    z 0.000000 0.000000 1.781310 
# 
# From -- ./inp_files/4498.got.cif
#   From: 2010.03.12/outbox.cif.g09.slc.cpg/sg116_3_cif.got.tgz:4498.got - 2010.04.14 02:15:44.
