data_PCOD8310158
_publ_section_title
;
Structure prediction by ZEFSAII (Michael W. Deem and Ramdas Pophale) SiO2 
 PCOD8310158
Probable space group: P -4 C 2
;
_chemical_formula_sum "Si O2"
_cell_formula_units_Z 40
_cell_length_a 19.324552
_cell_length_b 19.324552
_cell_length_c 5.041031
_cell_angle_alpha 90.000000
_cell_angle_beta 90.000000
_cell_angle_gamma 90.000000
_cell_volume 1882.514097
_symmetry_space_group_name_H-M "P -4 C 2"
_symmetry_group_IT_number 116
_symmetry_cell_setting 'tetragonal'
loop_
_space_group_symop_operation_xyz
x,y,z
y,-x,-z
-x,-y,z
-y,x,-z
y,x,1/2-z
-y,-x,1/2-z
-x,y,1/2+z
x,-y,1/2+z
loop_
_atom_site_type_symbol
_atom_site_label
_atom_site_fract_x
_atom_site_fract_y
_atom_site_fract_z
Si Si1 0.769871 0.830284 0.995556
Si Si2 0.851123 0.547465 0.390095
Si Si3 0.645145 0.730119 0.047781
Si Si4 0.544007 0.649250 0.716088
Si Si5 0.330042 0.045718 0.029150
O O1 0.823102 0.823102 0.750000
O O2 0.814913 0.814913 0.250000
O O3 0.709587 0.774376 0.947975
O O4 0.737393 0.905608 0.039922
O O5 0.855251 0.513457 0.678833
O O6 0.780725 0.588454 0.321112
O O7 0.914674 0.600384 0.387834
O O8 0.669138 0.669138 0.250000
O O9 0.608793 0.698711 0.785623
O O10 0.570061 0.570061 0.750000
O O11 0.519669 0.663289 0.416707
O O12 0.327600 0.981590 0.229128
#
# Coordination Sequence:
#
# PCOD8310158 Si02
#       5
#     8   8   8   8   8
#     4  10  21  38  62  90 123 157 194 243 295 341
#     4  11  24  40  60  86 120 161 204 250 300 365
#     4  10  22  40  62  86 111 143 191 251 311 359
#     4  12  25  40  57  74  97 131 174 229 293 363
#     4  11  23  39  61  91 128 167 205 245 290 348
#
# _framework density 21.248177999999999
#
# number of rings (size 3 to 8) (size 9 to 14) (size 15 to 20)
#    0.000    1.200    0.000    6.000    0.000   14.800 
#    0.000    0.000    0.000    0.000    0.000    0.000 
#    0.000   28.000    0.000    0.000    0.000    0.000 
#
# Total GULP energy -495972.065926 kJ/mol
# GULP energy per Si atom -12399.301648 kJ/mol
# Density = 2.119982 g / cm^3
# Si number density = 21.248178 Si / 1000 Ang^3
#
#
#
# Elastic Constant Matrix: (Units=GPa)
#
#
# Indices 1 2 3 4 5 6 
#
# 1 -60.6802 185.7393 23.4867 0.0000 0.0000 0.0000
# 2 185.7393 -60.6802 23.4867 0.0000 0.0000 0.0000
# 3 23.4867 23.4867 86.4862 0.0000 0.0000 0.0000
# 4 0.0000 0.0000 0.0000 20.5164 0.0000 0.0000
# 5 0.0000 0.0000 0.0000 0.0000 20.5164 0.0000
# 6 0.0000 0.0000 0.0000 0.0000 0.0000 30.2305
#
#
#
# Elastic Compliance Matrix: (Units=1/GPa)
#
#
# Indices 1 2 3 4 5 6 
#
# 1 0.002423 0.006481 -0.002418 0.000000 0.000000 0.000000
# 2 0.006481 0.002423 -0.002418 0.000000 0.000000 0.000000
# 3 -0.002418 -0.002418 0.012876 0.000000 0.000000 0.000000
# 4 0.000000 0.000000 0.000000 0.048741 0.000000 0.000000
# 5 0.000000 0.000000 0.000000 0.000000 0.048741 0.000000
# 6 0.000000 0.000000 0.000000 0.000000 0.000000 0.033079
#
#
# Mechanical properties :
#
#
# Convention : Reuss Voigt Hill
#
# Bulk Modulus (GPa) = 47.59120 47.83902 47.71511
# Shear Modulus (GPa) = 32.89505 -3.58647 14.65429
#
# Velocity S-wave (km/s) = 3.93890 -1.30060 2.62901
# Velocity P-wave (km/s) = 6.56757 4.50643 5.63209
#
# Compressibility (1/GPa) = 0.02101229
#
# Stress axis : x y z
#
# Youngs Moduli (GPa) = 412.67885 412.67885 77.66432
#
# Poissons Ratio (x) = -2.67470 0.18780
# Poissons Ratio (y) = -2.67470 0.18780
# Poissons Ratio (z) = 0.99792 0.99792
#
# Static dielectric constant tensor:
#      x y z
#    x 4.019110 0.000000 0.000000 
#    y 0.000000 4.019110 0.000000 
#    z 0.000000 0.000000 3.801620 
# 
# 
# High freq. dielectric constant tensor:
#      x y z
#    x 1.823870 0.000000 0.000000 
#    y 0.000000 1.823870 0.000000 
#    z 0.000000 0.000000 1.843820 
# 
# From -- ./inp_files/134.got.cif
#   From: 2010.03.12/outbox.cif.g09.slc.cpg/sg116_1_cif.got.tgz:134.got - 2010.04.14 02:15:44.
