data_PCOD8310595
_publ_section_title
;
Structure prediction by ZEFSAII (Michael W. Deem and Ramdas Pophale) SiO2 
 PCOD8310595
Probable space group: P -4 N 2
;
_chemical_formula_sum "Si O2"
_cell_formula_units_Z 40
_cell_length_a 13.373303
_cell_length_b 13.373303
_cell_length_c 10.188229
_cell_angle_alpha 90.000000
_cell_angle_beta 90.000000
_cell_angle_gamma 90.000000
_cell_volume 1822.116191
_symmetry_space_group_name_H-M "P -4 N 2"
_symmetry_group_IT_number 118
_symmetry_cell_setting 'tetragonal'
loop_
_space_group_symop_operation_xyz
x,y,z
y,-x,-z
-x,-y,z
-y,x,-z
1/2+y,1/2+x,1/2-z
1/2-y,1/2-x,1/2-z
1/2-x,1/2+y,1/2+z
1/2+x,1/2-y,1/2+z
loop_
_atom_site_type_symbol
_atom_site_label
_atom_site_fract_x
_atom_site_fract_y
_atom_site_fract_z
Si Si1 0.342164 0.462209 0.992251
Si Si2 0.701346 0.047052 0.742768
Si Si3 0.382381 0.472920 0.714776
Si Si4 0.844797 0.238592 0.143588
Si Si5 0.280120 0.670038 0.643160
O O1 0.319402 0.433597 0.842024
O O2 0.384831 0.573544 0.961818
O O3 0.250486 0.458882 0.095426
O O4 0.587712 0.087712 0.750000
O O5 0.762463 0.123300 0.833127
O O6 0.696984 0.939144 0.807873
O O7 0.500000 0.500000 0.744693
O O8 0.380298 0.375838 0.623250
O O9 0.317475 0.556674 0.644736
O O10 0.757063 0.257063 0.250000
O O11 0.807649 0.270724 0.998543
O O12 0.194326 0.694326 0.750000
#
# Coordination Sequence:
#
# PCOD8310595 Si02
#       5
#     8   8   8   8   8
#     4  11  17  35  64 101 126 165 212 272 332 387
#     4  11  24  40  66  95 136 178 217 272 336 397
#     4  12  22  40  72 102 133 171 221 283 336 387
#     4  12  27  43  67 100 132 176 227 272 330 400
#     4  11  25  43  66  99 140 170 212 281 341 388
#
# _framework density 21.952497000000001
#
# number of rings (size 3 to 8) (size 9 to 14) (size 15 to 20)
#    0.000    0.600    8.000    1.200    8.400    0.400 
#    0.000    0.000    0.000    0.600    0.000    0.000 
#    0.000    0.000    0.000    0.000    0.000    0.000 
#
# Total GULP energy -495577.141672 kJ/mol
# GULP energy per Si atom -12389.428542 kJ/mol
# Density = 2.190253 g / cm^3
# Si number density = 21.952497 Si / 1000 Ang^3
#
#
#
# Elastic Constant Matrix: (Units=GPa)
#
#
# Indices 1 2 3 4 5 6 
#
# 1 68.1475 24.6640 37.8167 0.0000 0.0000 0.0000
# 2 24.6640 68.1475 37.8167 0.0000 0.0000 0.0000
# 3 37.8167 37.8167 157.5594 0.0000 0.0000 0.0000
# 4 0.0000 0.0000 0.0000 25.8300 0.0000 0.0000
# 5 0.0000 0.0000 0.0000 0.0000 25.8300 0.0000
# 6 0.0000 0.0000 0.0000 0.0000 0.0000 34.9309
#
#
#
# Elastic Compliance Matrix: (Units=1/GPa)
#
#
# Indices 1 2 3 4 5 6 
#
# 1 0.018196 -0.004801 -0.003215 0.000000 0.000000 0.000000
# 2 -0.004801 0.018196 -0.003215 0.000000 0.000000 0.000000
# 3 -0.003215 -0.003215 0.007890 0.000000 0.000000 0.000000
# 4 0.000000 0.000000 0.000000 0.038715 0.000000 0.000000
# 5 0.000000 0.000000 0.000000 0.000000 0.038715 0.000000
# 6 0.000000 0.000000 0.000000 0.000000 0.000000 0.028628
#
#
# Mechanical properties :
#
#
# Convention : Reuss Voigt Hill
#
# Bulk Modulus (GPa) = 45.83090 54.93882 50.38486
# Shear Modulus (GPa) = 27.76630 30.22196 28.99413
#
# Velocity S-wave (km/s) = 3.56031 3.71441 3.63818
# Velocity P-wave (km/s) = 6.15010 6.59366 6.37574
#
# Compressibility (1/GPa) = 0.02181934
#
# Stress axis : x y z
#
# Youngs Moduli (GPa) = 54.95770 54.95770 126.74194
#
# Poissons Ratio (x) = 0.26388 0.40746
# Poissons Ratio (y) = 0.26388 0.40746
# Poissons Ratio (z) = 0.17668 0.17668
#
# Static dielectric constant tensor:
#      x y z
#    x 3.940030 0.000000 0.000000 
#    y 0.000000 3.940030 0.000000 
#    z 0.000000 0.000000 4.141750 
# 
# 
# High freq. dielectric constant tensor:
#      x y z
#    x 1.844990 0.000000 0.000000 
#    y 0.000000 1.844990 0.000000 
#    z 0.000000 0.000000 1.877540 
# 
# From -- ./inp_files/1908.got.cif
#   From: 2010.03.12/outbox.cif.g09.slc.cpg/sg118_1_cif.got.tgz:1908.got - 2010.04.14 02:21:17.
