data_PCOD8310388
_publ_section_title
;
Structure prediction by ZEFSAII (Michael W. Deem and Ramdas Pophale) SiO2 
 PCOD8310388
Probable space group: P -4 B 2
;
_chemical_formula_sum "Si O2"
_cell_formula_units_Z 44
_cell_length_a 14.082518
_cell_length_b 14.082518
_cell_length_c 11.003721
_cell_angle_alpha 90.000000
_cell_angle_beta 90.000000
_cell_angle_gamma 90.000000
_cell_volume 2182.228384
_symmetry_space_group_name_H-M "P -4 B 2"
_symmetry_group_IT_number 117
_symmetry_cell_setting 'tetragonal'
loop_
_space_group_symop_operation_xyz
x,y,z
y,-x,-z
-x,-y,z
-y,x,-z
1/2+y,1/2+x,-z
1/2-y,1/2-x,-z
1/2-x,1/2+y,z
1/2+x,1/2-y,z
loop_
_atom_site_type_symbol
_atom_site_label
_atom_site_fract_x
_atom_site_fract_y
_atom_site_fract_z
Si Si1 0.659168 0.683916 0.747348
Si Si2 0.844502 0.794727 0.735069
Si Si3 0.705244 0.990960 0.103016
Si Si4 0.821388 0.980113 0.866028
Si Si5 0.500000 0.000000 0.000000
Si Si6 0.895948 0.892991 0.497531
Si Si7 0.000000 0.000000 0.000000
O O1 0.767136 0.713214 0.732295
O O2 0.605458 0.761393 0.830345
O O3 0.657043 0.580109 0.804551
O O4 0.615183 0.678522 0.612637
O O5 0.924433 0.753433 0.823047
O O6 0.795807 0.893754 0.776904
O O7 0.882585 0.812327 0.599311
O O8 0.590986 0.999237 0.091557
O O9 0.739087 0.991519 0.964104
O O10 0.921179 0.944786 0.922549
O O11 0.002640 0.882266 0.444039
#
# Coordination Sequence:
#
# PCOD8310388 Si02
#       7
#     8   8   8   8   2   8   2
#     4  12  24  41  67  96 131 172 222 276 334 402
#     4  12  24  41  67  96 131 172 222 276 334 402
#     4  12  24  43  64  95 135 178 221 263 333 404
#     4  12  22  39  65 102 133 166 216 282 335 388
#     4  12  28  44  60  92 150 192 220 256 328 442
#     4  11  23  42  70  96 127 165 218 288 346 379
#     4  12  20  36  64  98 132 152 208 284 330 368
#
# _framework density 20.162876000000001
#
# number of rings (size 3 to 8) (size 9 to 14) (size 15 to 20)
#    0.000    0.182    7.273    2.727    0.000    1.455 
#    0.000    0.000    0.000    0.000    0.000    0.000 
#    0.000    0.000    0.000    0.000    0.000    0.000 
#
# Total GULP energy -545565.180434 kJ/mol
# GULP energy per Si atom -12399.208646 kJ/mol
# Density = 2.011698 g / cm^3
# Si number density = 20.162876 Si / 1000 Ang^3
#
#
#
# Elastic Constant Matrix: (Units=GPa)
#
#
# Indices 1 2 3 4 5 6 
#
# 1 98.7793 23.0478 33.4496 0.0000 0.0000 0.0000
# 2 23.0478 98.7793 33.4496 0.0000 0.0000 0.0000
# 3 33.4496 33.4496 100.5885 0.0000 0.0000 0.0000
# 4 0.0000 0.0000 0.0000 28.4439 0.0000 0.0000
# 5 0.0000 0.0000 0.0000 0.0000 28.4439 0.0000
# 6 0.0000 0.0000 0.0000 0.0000 0.0000 20.5240
#
#
#
# Elastic Compliance Matrix: (Units=1/GPa)
#
#
# Indices 1 2 3 4 5 6 
#
# 1 0.011623 -0.001581 -0.003339 0.000000 0.000000 0.000000
# 2 -0.001581 0.011623 -0.003339 0.000000 0.000000 0.000000
# 3 -0.003339 -0.003339 0.012162 0.000000 0.000000 0.000000
# 4 0.000000 0.000000 0.000000 0.035157 0.000000 0.000000
# 5 0.000000 0.000000 0.000000 0.000000 0.035157 0.000000
# 6 0.000000 0.000000 0.000000 0.000000 0.000000 0.048723
#
#
# Mechanical properties :
#
#
# Convention : Reuss Voigt Hill
#
# Bulk Modulus (GPa) = 52.94053 53.11566 53.02809
# Shear Modulus (GPa) = 28.20670 29.36236 28.78453
#
# Velocity S-wave (km/s) = 3.74430 3.82024 3.78246
# Velocity P-wave (km/s) = 6.70869 6.77196 6.74040
#
# Compressibility (1/GPa) = 0.01888912
#
# Stress axis : x y z
#
# Youngs Moduli (GPa) = 86.03381 86.03381 82.22025
#
# Poissons Ratio (x) = 0.13604 0.27457
# Poissons Ratio (y) = 0.13604 0.27457
# Poissons Ratio (z) = 0.28730 0.28730
#
# Static dielectric constant tensor:
#      x y z
#    x 3.593780 0.000000 0.000000 
#    y 0.000000 3.593780 0.000000 
#    z 0.000000 0.000000 3.623630 
# 
# 
# High freq. dielectric constant tensor:
#      x y z
#    x 1.788300 0.000000 0.000000 
#    y 0.000000 1.788300 0.000000 
#    z 0.000000 0.000000 1.787870 
# 
# From -- ./inp_files/2708.got.cif
#   From: 2010.03.12/outbox.cif.g09.slc.cpg/sg117_2_cif.got.tgz:2708.got - 2010.04.14 02:19:01.
