data_PCOD8310639
_publ_section_title
;
Structure prediction by ZEFSAII (Michael W. Deem and Ramdas Pophale) SiO2 
 PCOD8310639
Probable space group: P -4 N 2
;
_chemical_formula_sum "Si O2"
_cell_formula_units_Z 34
_cell_length_a 8.524759
_cell_length_b 8.524759
_cell_length_c 20.338002
_cell_angle_alpha 90.000000
_cell_angle_beta 90.000000
_cell_angle_gamma 90.000000
_cell_volume 1477.993438
_symmetry_space_group_name_H-M "P -4 N 2"
_symmetry_group_IT_number 118
_symmetry_cell_setting 'tetragonal'
loop_
_space_group_symop_operation_xyz
x,y,z
y,-x,-z
-x,-y,z
-y,x,-z
1/2+y,1/2+x,1/2-z
1/2-y,1/2-x,1/2-z
1/2-x,1/2+y,1/2+z
1/2+x,1/2-y,1/2+z
loop_
_atom_site_type_symbol
_atom_site_label
_atom_site_fract_x
_atom_site_fract_y
_atom_site_fract_z
Si Si1 0.500000 0.500000 0.000000
Si Si2 0.162249 0.560719 0.436008
Si Si3 0.094757 0.761116 0.692738
Si Si4 0.277096 0.251223 0.060839
Si Si5 0.741682 0.401074 0.192161
O O1 0.361484 0.419751 0.043471
O O2 0.244745 0.401011 0.412109
O O3 0.243633 0.644745 0.496994
O O4 0.147228 0.679932 0.376112
O O5 0.000000 0.500000 0.465496
O O6 0.142250 0.642250 0.750000
O O7 0.122556 0.678988 0.621343
O O8 0.913833 0.799529 0.702514
O O9 0.203765 0.915418 0.693559
O O10 0.863615 0.363615 0.250000
#
# Coordination Sequence:
#
# PCOD8310639 Si02
#       5
#     2   8   8   8   8
#     4  12  20  40  72 104 136 184 232 294 344 440
#     4  12  25  42  73 103 136 188 231 297 353 419
#     4  11  24  44  70 102 142 188 237 294 349 421
#     4  12  24  43  69 103 141 180 241 286 359 420
#     4  11  25  44  71 104 141 185 240 287 352 428
#
# _framework density 23.004162999999998
#
# number of rings (size 3 to 8) (size 9 to 14) (size 15 to 20)
#    0.000    0.471    4.706    4.235    0.000    2.824 
#    0.000    0.000    0.000    0.000    0.000    0.000 
#    0.000    0.000    0.000    0.000    0.000    0.000 
#
# Total GULP energy -421496.168088 kJ/mol
# GULP energy per Si atom -12396.946120 kJ/mol
# Density = 2.295180 g / cm^3
# Si number density = 23.004163 Si / 1000 Ang^3
#
#
#
# Elastic Constant Matrix: (Units=GPa)
#
#
# Indices 1 2 3 4 5 6 
#
# 1 82.8841 29.7537 28.4361 0.0000 0.0000 0.0000
# 2 29.7537 82.8841 28.4361 0.0000 0.0000 0.0000
# 3 28.4361 28.4361 129.3779 0.0000 0.0000 0.0000
# 4 0.0000 0.0000 0.0000 17.9319 0.0000 0.0000
# 5 0.0000 0.0000 0.0000 0.0000 17.9319 0.0000
# 6 0.0000 0.0000 0.0000 0.0000 0.0000 22.3337
#
#
#
# Elastic Compliance Matrix: (Units=1/GPa)
#
#
# Indices 1 2 3 4 5 6 
#
# 1 0.014404 -0.004418 -0.002195 0.000000 0.000000 0.000000
# 2 -0.004418 0.014404 -0.002195 0.000000 0.000000 0.000000
# 3 -0.002195 -0.002195 0.008694 0.000000 0.000000 0.000000
# 4 0.000000 0.000000 0.000000 0.055767 0.000000 0.000000
# 5 0.000000 0.000000 0.000000 0.000000 0.055767 0.000000
# 6 0.000000 0.000000 0.000000 0.000000 0.000000 0.044775
#
#
# Mechanical properties :
#
#
# Convention : Reuss Voigt Hill
#
# Bulk Modulus (GPa) = 50.28392 52.04419 51.16405
# Shear Modulus (GPa) = 22.93005 25.54084 24.23544
#
# Velocity S-wave (km/s) = 3.16060 3.33569 3.24933
# Velocity P-wave (km/s) = 5.93509 6.12443 6.03050
#
# Compressibility (1/GPa) = 0.01988707
#
# Stress axis : x y z
#
# Youngs Moduli (GPa) = 69.42546 69.42546 115.02015
#
# Poissons Ratio (x) = 0.30670 0.25246
# Poissons Ratio (y) = 0.30670 0.25246
# Poissons Ratio (z) = 0.15238 0.15238
#
# Static dielectric constant tensor:
#      x y z
#    x 4.392590 0.000000 0.000000 
#    y 0.000000 4.392590 0.000000 
#    z 0.000000 0.000000 4.184220 
# 
# 
# High freq. dielectric constant tensor:
#      x y z
#    x 1.903740 0.000000 0.000000 
#    y 0.000000 1.903740 0.000000 
#    z 0.000000 0.000000 1.921900 
# 
# From -- ./inp_files/5455.got.cif
#   From: 2010.03.12/outbox.cif.g09.slc.cpg/sg118_3_cif.got.tgz:5455.got - 2010.04.14 02:21:17.
