data_PCOD8310289
_publ_section_title
;
Structure prediction by ZEFSAII (Michael W. Deem and Ramdas Pophale) SiO2 
 PCOD8310289
Probable space group: P -4 B 2
;
_chemical_formula_sum "Si O2"
_cell_formula_units_Z 48
_cell_length_a 12.011408
_cell_length_b 12.011408
_cell_length_c 18.007030
_cell_angle_alpha 90.000000
_cell_angle_beta 90.000000
_cell_angle_gamma 90.000000
_cell_volume 2597.944844
_symmetry_space_group_name_H-M "P -4 B 2"
_symmetry_group_IT_number 117
_symmetry_cell_setting 'tetragonal'
loop_
_space_group_symop_operation_xyz
x,y,z
y,-x,-z
-x,-y,z
-y,x,-z
1/2+y,1/2+x,-z
1/2-y,1/2-x,-z
1/2-x,1/2+y,z
1/2+x,1/2-y,z
loop_
_atom_site_type_symbol
_atom_site_label
_atom_site_fract_x
_atom_site_fract_y
_atom_site_fract_z
Si Si1 0.967185 0.176247 0.416184
Si Si2 0.746304 0.888097 0.057086
Si Si3 0.718646 0.065805 0.954704
Si Si4 0.098002 0.589913 0.662082
Si Si5 0.176189 0.032511 0.408591
Si Si6 0.571104 0.891223 0.170793
O O1 0.948102 0.298569 0.386089
O O2 0.963426 0.194226 0.503870
O O3 0.086026 0.128110 0.388615
O O4 0.871675 0.090158 0.388808
O O5 0.833102 0.792289 0.073473
O O6 0.691147 0.918732 0.135416
O O7 0.649975 0.850026 0.000000
O O8 0.793214 0.997411 0.015143
O O9 0.696704 0.995597 0.879940
O O10 0.609108 0.109108 0.000000
O O11 0.053017 0.710650 0.636847
O O12 0.147775 0.594273 0.745525
O O13 0.000000 0.500000 0.652804
O O14 0.500000 0.000000 0.174843
#
# Coordination Sequence:
#
# PCOD8310289 Si02
#       6
#     8   8   8   8   8   8
#     4   9  20  40  63  83 116 156 197 246 294 342
#     4   9  19  32  55  82  99 140 185 228 271 322
#     4  10  18  34  58  79 106 140 185 229 272 327
#     4  11  24  36  56  92 121 154 196 240 288 354
#     4   9  20  40  62  86 113 156 200 241 299 344
#     4  10  20  37  55  78 115 152 181 221 280 339
#
# _framework density 18.476143
#
# number of rings (size 3 to 8) (size 9 to 14) (size 15 to 20)
#    0.000    2.333    1.667    1.500    2.333    3.000 
#    3.000    0.000    0.000    0.000    0.000    0.000 
#    0.000    0.000    0.000    0.000    0.000    0.000 
#
# Total GULP energy -594816.105551 kJ/mol
# GULP energy per Si atom -12392.002199 kJ/mol
# Density = 1.843409 g / cm^3
# Si number density = 18.476143 Si / 1000 Ang^3
#
#
#
# Elastic Constant Matrix: (Units=GPa)
#
#
# Indices 1 2 3 4 5 6 
#
# 1 97.7219 41.8016 51.2085 0.0000 0.0000 0.0000
# 2 41.8016 97.7223 51.2085 0.0000 0.0000 0.0000
# 3 51.2085 51.2085 89.3934 0.0000 0.0000 0.0000
# 4 0.0000 0.0000 0.0000 187.4062 0.0000 0.0000
# 5 0.0000 0.0000 0.0000 0.0000 187.4118 0.0000
# 6 0.0000 0.0000 0.0000 0.0000 0.0000 24.8401
#
#
#
# Elastic Compliance Matrix: (Units=1/GPa)
#
#
# Indices 1 2 3 4 5 6 
#
# 1 0.015125 -0.002757 -0.007085 0.000000 0.000000 0.000000
# 2 -0.002757 0.015125 -0.007085 0.000000 0.000000 0.000000
# 3 -0.007085 -0.007085 0.019304 0.000000 0.000000 0.000000
# 4 0.000000 0.000000 0.000000 0.005336 0.000000 0.000000
# 5 0.000000 0.000000 0.000000 0.000000 0.005336 0.000000
# 6 0.000000 0.000000 0.000000 0.000000 0.000000 0.040257
#
#
# Mechanical properties :
#
#
# Convention : Reuss Voigt Hill
#
# Bulk Modulus (GPa) = 63.69494 63.69722 63.69608
# Shear Modulus (GPa) = 35.82414 89.30621 62.56518
#
# Velocity S-wave (km/s) = 4.40812 6.95995 5.82548
# Velocity P-wave (km/s) = 7.77545 9.95681 8.93297
#
# Compressibility (1/GPa) = 0.01569983
#
# Stress axis : x y z
#
# Youngs Moduli (GPa) = 66.11462 66.11496 51.80390
#
# Poissons Ratio (x) = 0.18230 0.36703
# Poissons Ratio (y) = 0.18230 0.36702
# Poissons Ratio (z) = 0.46841 0.46841
#
# Static dielectric constant tensor:
#      x y z
#    x 3.363850 0.000000 0.000000 
#    y 0.000000 3.363860 0.000000 
#    z 0.000000 0.000000 3.641250 
# 
# 
# High freq. dielectric constant tensor:
#      x y z
#    x 1.715240 0.000000 0.000000 
#    y 0.000000 1.715240 0.000000 
#    z 0.000000 0.000000 1.711230 
# 
# From -- ./inp_files/3363.got.cif
#   From: 2010.03.12/outbox.cif.g09.slc.cpg/sg117_2_cif.got.tgz:3363.got - 2010.04.14 02:19:01.
