data_PCOD8310377
_publ_section_title
;
Structure prediction by ZEFSAII (Michael W. Deem and Ramdas Pophale) SiO2 
 PCOD8310377
Probable space group: P -4 B 2
;
_chemical_formula_sum "Si O2"
_cell_formula_units_Z 48
_cell_length_a 13.664357
_cell_length_b 13.664357
_cell_length_c 13.986131
_cell_angle_alpha 90.000000
_cell_angle_beta 90.000000
_cell_angle_gamma 90.000000
_cell_volume 2611.415586
_symmetry_space_group_name_H-M "P -4 B 2"
_symmetry_group_IT_number 117
_symmetry_cell_setting 'tetragonal'
loop_
_space_group_symop_operation_xyz
x,y,z
y,-x,-z
-x,-y,z
-y,x,-z
1/2+y,1/2+x,-z
1/2-y,1/2-x,-z
1/2-x,1/2+y,z
1/2+x,1/2-y,z
loop_
_atom_site_type_symbol
_atom_site_label
_atom_site_fract_x
_atom_site_fract_y
_atom_site_fract_z
Si Si1 0.605595 0.259744 0.307754
Si Si2 0.740257 0.394405 0.192246
Si Si3 0.556296 0.649926 0.003917
Si Si4 0.237168 0.907598 0.295278
Si Si5 0.407598 0.262833 0.204722
Si Si6 0.149926 0.943704 0.496083
O O1 0.647120 0.352880 0.250000
O O2 0.672768 0.166001 0.293303
O O3 0.499305 0.232194 0.268792
O O4 0.601987 0.286617 0.419009
O O5 0.713383 0.398013 0.080991
O O6 0.767807 0.500695 0.231208
O O7 0.833999 0.327232 0.206697
O O8 0.621577 0.554227 0.022425
O O9 0.557177 0.716289 0.097684
O O10 0.140718 0.859282 0.250000
O O11 0.216289 0.942823 0.402316
O O12 0.054227 0.878423 0.477575
#
# Coordination Sequence:
#
# PCOD8310377 Si02
#       6
#     8   8   8   8   8   8
#     4  11  23  40  62  88 123 162 202 249 303 360
#     4  11  23  40  62  88 123 162 202 249 303 360
#     4  11  21  36  64  93 120 156 202 255 304 354
#     4  11  23  40  62  88 123 162 202 249 303 360
#     4  11  23  40  62  88 123 162 202 249 303 360
#     4  11  21  36  64  93 120 156 202 255 304 354
#
# _framework density 18.380834
#
# number of rings (size 3 to 8) (size 9 to 14) (size 15 to 20)
#    0.000    1.000    6.667    1.000    0.000    1.333 
#    0.000    1.667    0.000    4.000    0.000    0.000 
#    0.000    0.000    0.000    0.000    0.000    0.000 
#
# Total GULP energy -595557.128894 kJ/mol
# GULP energy per Si atom -12407.440185 kJ/mol
# Density = 1.833900 g / cm^3
# Si number density = 18.380834 Si / 1000 Ang^3
#
#
#
# Elastic Constant Matrix: (Units=GPa)
#
#
# Indices 1 2 3 4 5 6 
#
# 1 83.1263 30.8455 18.0303 0.0000 0.0000 0.0000
# 2 30.8455 83.1263 18.0303 0.0000 0.0000 0.0000
# 3 18.0303 18.0303 95.1197 0.0000 0.0000 0.0000
# 4 0.0000 0.0000 0.0000 31.0117 0.0000 0.0000
# 5 0.0000 0.0000 0.0000 0.0000 31.0117 0.0000
# 6 0.0000 0.0000 0.0000 0.0000 0.0000 18.6820
#
#
#
# Elastic Compliance Matrix: (Units=1/GPa)
#
#
# Indices 1 2 3 4 5 6 
#
# 1 0.014231 -0.004897 -0.001769 0.000000 0.000000 0.000000
# 2 -0.004897 0.014231 -0.001769 0.000000 0.000000 0.000000
# 3 -0.001769 -0.001769 0.011184 0.000000 0.000000 0.000000
# 4 0.000000 0.000000 0.000000 0.032246 0.000000 0.000000
# 5 0.000000 0.000000 0.000000 0.000000 0.032246 0.000000
# 6 0.000000 0.000000 0.000000 0.000000 0.000000 0.053527
#
#
# Mechanical properties :
#
#
# Convention : Reuss Voigt Hill
#
# Bulk Modulus (GPa) = 43.90876 43.90941 43.90908
# Shear Modulus (GPa) = 27.45346 29.10552 28.27949
#
# Velocity S-wave (km/s) = 3.86889 3.98360 3.92667
# Velocity P-wave (km/s) = 6.62556 6.71560 6.67073
#
# Compressibility (1/GPa) = 0.02277450
#
# Stress axis : x y z
#
# Youngs Moduli (GPa) = 70.27071 70.27071 89.41498
#
# Poissons Ratio (x) = 0.34410 0.15820
# Poissons Ratio (y) = 0.34410 0.15820
# Poissons Ratio (z) = 0.12433 0.12433
#
# Static dielectric constant tensor:
#      x y z
#    x 3.299220 0.000000 0.000000 
#    y 0.000000 3.299220 0.000000 
#    z 0.000000 0.000000 3.436510 
# 
# 
# High freq. dielectric constant tensor:
#      x y z
#    x 1.709720 0.000000 0.000000 
#    y 0.000000 1.709720 0.000000 
#    z 0.000000 0.000000 1.730590 
# 
# From -- ./inp_files/2754.got.cif
#   From: 2010.03.12/outbox.cif.g09.slc.cpg/sg117_2_cif.got.tgz:2754.got - 2010.04.14 02:19:01.
