data_PCOD8310842
_publ_section_title
;
Structure prediction by ZEFSAII (Michael W. Deem and Ramdas Pophale) SiO2 
 PCOD8310842
Probable space group: I -4 M 2
;
_chemical_formula_sum "Si O2"
_cell_formula_units_Z 112
_cell_length_a 14.916512
_cell_length_b 14.916512
_cell_length_c 26.304844
_cell_angle_alpha 90.000000
_cell_angle_beta 90.000000
_cell_angle_gamma 90.000000
_cell_volume 5852.889087
_symmetry_space_group_name_H-M "I -4 M 2"
_symmetry_group_IT_number 119
_symmetry_cell_setting 'tetragonal'
loop_
_space_group_symop_operation_xyz
x,y,z
y,-x,-z
-x,-y,z
-y,x,-z
y,x,-z
-y,-x,-z
-x,y,z
x,-y,z
1/2+x,1/2+y,1/2+z
1/2+y,1/2-x,1/2-z
1/2-x,1/2-y,1/2+z
1/2-y,1/2+x,1/2-z
1/2+y,1/2+x,1/2-z
1/2-y,1/2-x,1/2-z
1/2-x,1/2+y,1/2+z
1/2+x,1/2-y,1/2+z
loop_
_atom_site_type_symbol
_atom_site_label
_atom_site_fract_x
_atom_site_fract_y
_atom_site_fract_z
Si Si1 0.602519 0.101601 0.490290
Si Si2 0.828682 0.282918 0.603619
Si Si3 0.734288 0.658662 0.452835
Si Si4 0.334097 0.899569 0.202465
Si Si5 0.106254 0.100491 0.639082
Si Si6 0.108140 0.000000 0.935509
Si Si7 0.893567 0.000000 0.820958
Si Si8 0.349321 0.606207 0.750582
O O1 0.500000 0.112045 0.472132
O O2 0.663523 0.124884 0.441910
O O3 0.616899 0.166301 0.539700
O O4 0.623093 0.000000 0.507932
O O5 0.719981 0.279287 0.597512
O O6 0.857188 0.331873 0.656406
O O7 0.861342 0.179391 0.601524
O O8 0.725989 0.725989 0.500000
O O9 0.653603 0.587722 0.458677
O O10 0.404081 0.904081 0.250000
O O11 0.247350 0.863697 0.232302
O O12 0.323270 0.000000 0.179523
O O13 0.146286 0.124186 0.694681
O O14 0.000000 0.101059 0.640083
O O15 0.139493 0.000000 0.622690
O O16 0.141230 0.000000 0.877791
O O17 0.000000 0.000000 0.944937
O O18 0.854416 0.085518 0.792193
O O19 0.000000 0.000000 0.822046
O O20 0.358530 0.500000 0.753749
#
# Coordination Sequence:
#
# PCOD8310842 Si02
#       8
#    16  16  16  16  16   8   8  16
#     4  10  21  40  64  83 109 151 195 243 298 359
#     4  11  22  37  57  86 118 151 194 246 293 347
#     4  10  23  38  57  85 115 144 189 241 294 362
#     4  11  22  34  50  76 117 162 201 240 281 337
#     4  10  19  33  55  81 109 149 194 236 284 336
#     4  11  22  34  57  85 115 153 188 236 297 348
#     4   9  16  28  48  77 105 139 187 224 266 330
#     4   9  16  29  48  70 104 148 188 225 269 324
#
# _framework density 19.135847999999999
#
# number of rings (size 3 to 8) (size 9 to 14) (size 15 to 20)
#    0.000    1.857    2.857    1.714    1.000    3.571 
#    0.000    0.000    0.000    0.000    0.000    7.000 
#    0.000    0.000    0.000    0.000    0.000    0.000 
#
# Total GULP energy -693810.339459 kJ/mol
# GULP energy per Si atom -12389.470347 kJ/mol
# Density = 1.909229 g / cm^3
# Si number density = 19.135848 Si / 1000 Ang^3
#
#
#
# Elastic Constant Matrix: (Units=GPa)
#
#
# Indices 1 2 3 4 5 6 
#
# 1 107.3081 37.5090 22.4476 0.0000 0.0000 0.0000
# 2 37.5090 107.3081 22.4476 0.0000 0.0000 0.0000
# 3 22.4476 22.4476 61.9522 0.0000 0.0000 0.0000
# 4 0.0000 0.0000 0.0000 22.7950 0.0000 0.0000
# 5 0.0000 0.0000 0.0000 0.0000 22.7950 0.0000
# 6 0.0000 0.0000 0.0000 0.0000 0.0000 22.5368
#
#
#
# Elastic Compliance Matrix: (Units=1/GPa)
#
#
# Indices 1 2 3 4 5 6 
#
# 1 0.011053 -0.003274 -0.002819 0.000000 0.000000 0.000000
# 2 -0.003274 0.011053 -0.002819 0.000000 0.000000 0.000000
# 3 -0.002819 -0.002819 0.018184 0.000000 0.000000 0.000000
# 4 0.000000 0.000000 0.000000 0.043869 0.000000 0.000000
# 5 0.000000 0.000000 0.000000 0.000000 0.043869 0.000000
# 6 0.000000 0.000000 0.000000 0.000000 0.000000 0.044372
#
#
# Mechanical properties :
#
#
# Convention : Reuss Voigt Hill
#
# Bulk Modulus (GPa) = 44.50847 49.04186 46.77516
# Shear Modulus (GPa) = 25.28931 26.56964 25.92947
#
# Velocity S-wave (km/s) = 3.63928 3.73027 3.68505
# Velocity P-wave (km/s) = 6.40069 6.65110 6.52710
#
# Compressibility (1/GPa) = 0.02246763
#
# Stress axis : x y z
#
# Youngs Moduli (GPa) = 90.47353 90.47353 54.99318
#
# Poissons Ratio (x) = 0.29620 0.15501
# Poissons Ratio (y) = 0.29620 0.15501
# Poissons Ratio (z) = 0.25501 0.25501
#
# Static dielectric constant tensor:
#      x y z
#    x 3.521730 0.000000 0.000000 
#    y 0.000000 3.521730 0.000000 
#    z 0.000000 0.000000 3.514260 
# 
# 
# High freq. dielectric constant tensor:
#      x y z
#    x 1.735100 0.000000 0.000000 
#    y 0.000000 1.735100 0.000000 
#    z 0.000000 0.000000 1.732780 
# 
# From -- ./inp_files/9677.got.cif
#   From: 2010.03.12/outbox.cif.g09.slc.cpg/sg119_5_cif.got.tgz:9677.got - 2010.04.14 02:25:26.
