data_PCOD8310769
_publ_section_title
;
Structure prediction by ZEFSAII (Michael W. Deem and Ramdas Pophale) SiO2 
 PCOD8310769
Probable space group: I -4 M 2
;
_chemical_formula_sum "Si O2"
_cell_formula_units_Z 80
_cell_length_a 16.770240
_cell_length_b 16.770240
_cell_length_c 15.074059
_cell_angle_alpha 90.000000
_cell_angle_beta 90.000000
_cell_angle_gamma 90.000000
_cell_volume 4239.442668
_symmetry_space_group_name_H-M "I -4 M 2"
_symmetry_group_IT_number 119
_symmetry_cell_setting 'tetragonal'
loop_
_space_group_symop_operation_xyz
x,y,z
y,-x,-z
-x,-y,z
-y,x,-z
y,x,-z
-y,-x,-z
-x,y,z
x,-y,z
1/2+x,1/2+y,1/2+z
1/2+y,1/2-x,1/2-z
1/2-x,1/2-y,1/2+z
1/2-y,1/2+x,1/2-z
1/2+y,1/2+x,1/2-z
1/2-y,1/2-x,1/2-z
1/2-x,1/2+y,1/2+z
1/2+x,1/2-y,1/2+z
loop_
_atom_site_type_symbol
_atom_site_label
_atom_site_fract_x
_atom_site_fract_y
_atom_site_fract_z
Si Si1 0.185475 0.821393 0.252622
Si Si2 0.169210 0.910252 0.572997
Si Si3 0.680337 0.188079 0.996851
Si Si4 0.680759 0.908266 0.174684
Si Si5 0.308385 0.092499 0.821850
O O1 0.253952 0.753952 0.250000
O O2 0.156089 0.843517 0.350859
O O3 0.226562 0.897818 0.206608
O O4 0.109818 0.784840 0.200623
O O5 0.099254 0.900747 0.500000
O O6 0.252051 0.892245 0.523219
O O7 0.168899 0.000000 0.611175
O O8 0.663686 0.145459 0.089303
O O9 0.764583 0.235418 0.000000
O O10 0.677382 0.121600 0.921093
O O11 0.618670 0.881331 0.250000
O O12 0.666481 0.000000 0.151138
O O13 0.364427 0.135574 0.750000
O O14 0.326921 0.000000 0.815957
#
# Coordination Sequence:
#
# PCOD8310769 Si02
#       5
#    16  16  16  16  16
#     4  10  18  37  60  83 110 151 194 237 285 341
#     4  11  22  36  58  86 117 153 195 243 291 346
#     4  11  20  38  62  85 113 153 200 239 286 348
#     4  11  23  39  60  86 116 154 200 245 287 340
#     4  11  21  36  59  90 121 149 184 234 294 353
#
# _framework density 18.870405999999999
#
# number of rings (size 3 to 8) (size 9 to 14) (size 15 to 20)
#    0.000    1.200    6.000    4.800    0.000    3.800 
#    0.000    0.000    0.000    5.400    0.000    1.400 
#    0.000    0.000    0.000    0.000    0.000    0.000 
#
# Total GULP energy -495796.618389 kJ/mol
# GULP energy per Si atom -12394.915460 kJ/mol
# Density = 1.882746 g / cm^3
# Si number density = 18.870406 Si / 1000 Ang^3
#
#
#
# Elastic Constant Matrix: (Units=GPa)
#
#
# Indices 1 2 3 4 5 6 
#
# 1 56.7166 20.3877 6.3399 0.0000 0.0000 0.0000
# 2 20.3877 56.7203 6.3438 0.0000 0.0000 0.0000
# 3 6.3399 6.3438 97.0020 0.0000 0.0000 0.0000
# 4 0.0000 0.0000 0.0000 22.4172 0.0000 0.0000
# 5 0.0000 0.0000 0.0000 0.0000 22.4172 0.0000
# 6 0.0000 0.0000 0.0000 0.0000 0.0000 15.7389
#
#
#
# Elastic Compliance Matrix: (Units=1/GPa)
#
#
# Indices 1 2 3 4 5 6 
#
# 1 0.020318 -0.007207 -0.000857 0.000000 0.000000 0.000000
# 2 -0.007207 0.020317 -0.000858 0.000000 0.000000 0.000000
# 3 -0.000857 -0.000858 0.010421 0.000000 0.000000 0.000000
# 4 0.000000 0.000000 0.000000 0.044609 0.000000 0.000000
# 5 0.000000 0.000000 0.000000 0.000000 0.044609 0.000000
# 6 0.000000 0.000000 0.000000 0.000000 0.000000 0.063537
#
#
# Mechanical properties :
#
#
# Convention : Reuss Voigt Hill
#
# Bulk Modulus (GPa) = 30.10878 30.73130 30.42004
# Shear Modulus (GPa) = 21.48467 23.93918 22.71193
#
# Velocity S-wave (km/s) = 3.37788 3.56562 3.47302
# Velocity P-wave (km/s) = 5.58602 5.76822 5.67785
#
# Compressibility (1/GPa) = 0.03321291
#
# Stress axis : x y z
#
# Youngs Moduli (GPa) = 49.21727 49.22008 95.95874
#
# Poissons Ratio (x) = 0.35475 0.08220
# Poissons Ratio (y) = 0.35473 0.08230
# Poissons Ratio (z) = 0.04216 0.04221
#
# Static dielectric constant tensor:
#      x y z
#    x 3.478850 0.000000 0.000000 
#    y 0.000000 3.478850 0.000000 
#    z 0.000000 0.000000 3.662240 
# 
# 
# High freq. dielectric constant tensor:
#      x y z
#    x 1.714240 0.000000 0.000000 
#    y 0.000000 1.714240 0.000000 
#    z 0.000000 0.000000 1.750460 
# 
# From -- ./inp_files/5293.got.cif
#   From: 2010.03.12/outbox.cif.g09.slc.cpg/sg119_3_cif.got.tgz:5293.got - 2010.04.14 02:25:26.
