data_PCOD8310800
_publ_section_title
;
Structure prediction by ZEFSAII (Michael W. Deem and Ramdas Pophale) SiO2 
 PCOD8310800
Probable space group: I -4 M 2
;
_chemical_formula_sum "Si O2"
_cell_formula_units_Z 80
_cell_length_a 11.846632
_cell_length_b 11.846632
_cell_length_c 33.501768
_cell_angle_alpha 90.000000
_cell_angle_beta 90.000000
_cell_angle_gamma 90.000000
_cell_volume 4701.728232
_symmetry_space_group_name_H-M "I -4 M 2"
_symmetry_group_IT_number 119
_symmetry_cell_setting 'tetragonal'
loop_
_space_group_symop_operation_xyz
x,y,z
y,-x,-z
-x,-y,z
-y,x,-z
y,x,-z
-y,-x,-z
-x,y,z
x,-y,z
1/2+x,1/2+y,1/2+z
1/2+y,1/2-x,1/2-z
1/2-x,1/2-y,1/2+z
1/2-y,1/2+x,1/2-z
1/2+y,1/2+x,1/2-z
1/2-y,1/2-x,1/2-z
1/2-x,1/2+y,1/2+z
1/2+x,1/2-y,1/2+z
loop_
_atom_site_type_symbol
_atom_site_label
_atom_site_fract_x
_atom_site_fract_y
_atom_site_fract_z
Si Si1 0.705204 0.733202 0.437715
Si Si2 0.126337 0.372811 0.490327
Si Si3 0.000000 0.133756 0.184301
Si Si4 0.369782 0.130769 0.365802
Si Si5 0.131320 0.759619 0.784211
Si Si6 0.370654 0.500000 0.404035
O O1 0.829783 0.713036 0.456120
O O2 0.629188 0.797045 0.470183
O O3 0.710599 0.807570 0.397730
O O4 0.655346 0.610014 0.429733
O O5 0.128082 0.500000 0.473324
O O6 0.000000 0.335225 0.501831
O O7 0.112074 0.171885 0.208004
O O8 0.000000 0.189413 0.139750
O O9 0.000000 0.000000 0.180682
O O10 0.500000 0.148297 0.378756
O O11 0.347501 0.185368 0.323250
O O12 0.337096 0.000000 0.363762
O O13 0.209153 0.709153 0.750000
O O14 0.000000 0.753835 0.771486
O O15 0.500000 0.500000 0.393352
#
# Coordination Sequence:
#
# PCOD8310800 Si02
#       6
#    16  16   8  16  16   8
#     4  11  20  32  53  78 102 138 174 217 264 311
#     4  10  21  36  50  71 105 142 177 212 258 314
#     4   9  18  32  52  76 110 146 170 210 270 320
#     4  10  19  31  51  79 111 143 173 211 262 315
#     4  10  19  32  52  79 109 142 176 215 262 313
#     4  11  18  30  51  81 113 131 168 217 273 325
#
# _framework density 17.015021000000001
#
# number of rings (size 3 to 8) (size 9 to 14) (size 15 to 20)
#    0.000    1.800    3.000    3.000    0.000    2.600 
#    0.000    0.000    2.200   10.500    2.600    0.000 
#    0.000    0.000    0.000    0.000    0.000    0.000 
#
# Total GULP energy -495908.902713 kJ/mol
# GULP energy per Si atom -12397.722568 kJ/mol
# Density = 1.697629 g / cm^3
# Si number density = 17.015021 Si / 1000 Ang^3
#
#
#
# Elastic Constant Matrix: (Units=GPa)
#
#
# Indices 1 2 3 4 5 6 
#
# 1 115.8638 41.3003 60.4133 0.0000 0.0000 0.0000
# 2 41.3003 115.8637 60.4133 0.0000 0.0000 0.0000
# 3 60.4133 60.4133 111.6207 0.0000 0.0000 0.0000
# 4 0.0000 0.0000 0.0000 31.1413 0.0000 0.0000
# 5 0.0000 0.0000 0.0000 0.0000 31.1413 0.0000
# 6 0.0000 0.0000 0.0000 0.0000 0.0000 19.9134
#
#
#
# Elastic Compliance Matrix: (Units=1/GPa)
#
#
# Indices 1 2 3 4 5 6 
#
# 1 0.012154 -0.001257 -0.005898 0.000000 0.000000 0.000000
# 2 -0.001257 0.012154 -0.005898 0.000000 0.000000 0.000000
# 3 -0.005898 -0.005898 0.015343 0.000000 0.000000 0.000000
# 4 0.000000 0.000000 0.000000 0.032112 0.000000 0.000000
# 5 0.000000 0.000000 0.000000 0.000000 0.032112 0.000000
# 6 0.000000 0.000000 0.000000 0.000000 0.000000 0.050217
#
#
# Mechanical properties :
#
#
# Convention : Reuss Voigt Hill
#
# Bulk Modulus (GPa) = 73.82389 74.17803 74.00096
# Shear Modulus (GPa) = 27.06891 28.52059 27.79475
#
# Velocity S-wave (km/s) = 3.99291 4.09858 4.04609
# Velocity P-wave (km/s) = 8.04609 8.12946 8.08788
#
# Compressibility (1/GPa) = 0.01354575
#
# Stress axis : x y z
#
# Youngs Moduli (GPa) = 82.27598 82.27598 65.17538
#
# Poissons Ratio (x) = 0.10344 0.38440
# Poissons Ratio (y) = 0.10344 0.38440
# Poissons Ratio (z) = 0.48525 0.48525
#
# Static dielectric constant tensor:
#      x y z
#    x 3.143750 0.000000 0.000000 
#    y 0.000000 3.143750 0.000000 
#    z 0.000000 0.000000 3.211270 
# 
# 
# High freq. dielectric constant tensor:
#      x y z
#    x 1.640550 0.000000 0.000000 
#    y 0.000000 1.640550 0.000000 
#    z 0.000000 0.000000 1.660430 
# 
# From -- ./inp_files/10175.got.cif
#   From: 2010.03.12/outbox.cif.g09.slc.cpg/sg119_6_cif.got.tgz:10175.got - 2010.04.14 02:25:26.
