data_PCOD8310889
_publ_section_title
;
Structure prediction by ZEFSAII (Michael W. Deem and Ramdas Pophale) SiO2 
 PCOD8310889
Probable space group: I -4 M 2
;
_chemical_formula_sum "Si O2"
_cell_formula_units_Z 48
_cell_length_a 9.344099
_cell_length_b 9.344099
_cell_length_c 30.895853
_cell_angle_alpha 90.000000
_cell_angle_beta 90.000000
_cell_angle_gamma 90.000000
_cell_volume 2697.584468
_symmetry_space_group_name_H-M "I -4 M 2"
_symmetry_group_IT_number 119
_symmetry_cell_setting 'tetragonal'
loop_
_space_group_symop_operation_xyz
x,y,z
y,-x,-z
-x,-y,z
-y,x,-z
y,x,-z
-y,-x,-z
-x,y,z
x,-y,z
1/2+x,1/2+y,1/2+z
1/2+y,1/2-x,1/2-z
1/2-x,1/2-y,1/2+z
1/2-y,1/2+x,1/2-z
1/2+y,1/2+x,1/2-z
1/2-y,1/2-x,1/2-z
1/2-x,1/2+y,1/2+z
1/2+x,1/2-y,1/2+z
loop_
_atom_site_type_symbol
_atom_site_label
_atom_site_fract_x
_atom_site_fract_y
_atom_site_fract_z
Si Si1 0.666656 0.168084 0.962936
Si Si2 0.658579 0.669778 0.380921
Si Si3 0.838612 0.169021 0.214664
O O1 0.500000 0.205218 0.963782
O O2 0.729381 0.221772 0.917014
O O3 0.695137 0.000000 0.969873
O O4 0.745854 0.254147 0.000000
O O5 0.500000 0.731421 0.391744
O O6 0.649040 0.500000 0.379804
O O7 0.709785 0.720534 0.333294
O O8 0.737984 0.237984 0.250000
O O9 0.000000 0.226484 0.220942
O O10 0.834465 0.000000 0.220448
#
# Coordination Sequence:
#
# PCOD8310889 Si02
#       3
#    16  16  16
#     4  10  20  33  51  75 100 127 162 202 244 292
#     4   8  15  30  51  72  95 126 165 206 242 280
#     4   9  18  32  50  74 102 130 163 202 243 289
#
# _framework density 17.793697999999999
#
# number of rings (size 3 to 8) (size 9 to 14) (size 15 to 20)
#    0.000    3.000    0.000    3.000    0.000    4.000 
#    0.000    5.000    0.000    2.000    0.000    0.000 
#    0.000    0.000    0.000    0.000    0.000    0.000 
#
# Total GULP energy -297498.667430 kJ/mol
# GULP energy per Si atom -12395.777810 kJ/mol
# Density = 1.775320 g / cm^3
# Si number density = 17.793698 Si / 1000 Ang^3
#
#
#
# Elastic Constant Matrix: (Units=GPa)
#
#
# Indices 1 2 3 4 5 6 
#
# 1 59.0501 38.6472 66.8813 0.0000 0.0000 0.0000
# 2 38.6472 59.0541 66.8821 0.0000 0.0000 0.0000
# 3 66.8813 66.8821 179.1458 0.0000 0.0000 0.0000
# 4 0.0000 0.0000 0.0000 29.6951 0.0000 0.0000
# 5 0.0000 0.0000 0.0000 0.0000 29.6950 0.0000
# 6 0.0000 0.0000 0.0000 0.0000 0.0000 24.5124
#
#
#
# Elastic Compliance Matrix: (Units=1/GPa)
#
#
# Indices 1 2 3 4 5 6 
#
# 1 0.034975 -0.014035 -0.007817 0.000000 0.000000 0.000000
# 2 -0.014035 0.034971 -0.007816 0.000000 0.000000 0.000000
# 3 -0.007817 -0.007816 0.011419 0.000000 0.000000 0.000000
# 4 0.000000 0.000000 0.000000 0.033676 0.000000 0.000000
# 5 0.000000 0.000000 0.000000 0.000000 0.033676 0.000000
# 6 0.000000 0.000000 0.000000 0.000000 0.000000 0.040796
#
#
# Mechanical properties :
#
#
# Convention : Reuss Voigt Hill
#
# Bulk Modulus (GPa) = 45.39911 71.34125 58.37018
# Shear Modulus (GPa) = 19.51669 25.10312 22.30990
#
# Velocity S-wave (km/s) = 3.31544 3.76012 3.54476
# Velocity P-wave (km/s) = 6.34237 7.68322 7.04477
#
# Compressibility (1/GPa) = 0.02202686
#
# Stress axis : x y z
#
# Youngs Moduli (GPa) = 28.59224 28.59505 87.57595
#
# Poissons Ratio (x) = 0.40133 0.68461
# Poissons Ratio (y) = 0.40129 0.68452
# Poissons Ratio (z) = 0.22352 0.22351
#
# Static dielectric constant tensor:
#      x y z
#    x 3.133960 0.000000 0.000000 
#    y 0.000000 3.133970 0.000000 
#    z 0.000000 0.000000 3.668420 
# 
# 
# High freq. dielectric constant tensor:
#      x y z
#    x 1.665590 0.000000 0.000000 
#    y 0.000000 1.665590 0.000000 
#    z 0.000000 0.000000 1.705640 
# 
# From -- ./inp_files/8325.got.cif
#   From: 2010.03.12/outbox.cif.g09.slc.cpg/sg119_5_cif.got.tgz:8325.got - 2010.04.14 02:25:26.
