data_PCOD8310128
_publ_section_title
;
Structure prediction by ZEFSAII (Michael W. Deem and Ramdas Pophale) SiO2 
 PCOD8310128
Probable space group: P -4 C 2
;
_chemical_formula_sum "Si O2"
_cell_formula_units_Z 42
_cell_length_a 17.341958
_cell_length_b 17.341958
_cell_length_c 8.777899
_cell_angle_alpha 90.000000
_cell_angle_beta 90.000000
_cell_angle_gamma 90.000000
_cell_volume 2639.896132
_symmetry_space_group_name_H-M "P -4 C 2"
_symmetry_group_IT_number 116
_symmetry_cell_setting 'tetragonal'
loop_
_space_group_symop_operation_xyz
x,y,z
y,-x,-z
-x,-y,z
-y,x,-z
y,x,1/2-z
-y,-x,1/2-z
-x,y,1/2+z
x,-y,1/2+z
loop_
_atom_site_type_symbol
_atom_site_label
_atom_site_fract_x
_atom_site_fract_y
_atom_site_fract_z
Si Si1 0.500000 0.000000 0.624928
Si Si2 0.654673 0.444022 0.048345
Si Si3 0.552744 0.106976 0.375333
Si Si4 0.226916 0.577589 0.561590
Si Si5 0.500000 0.500000 0.500000
Si Si6 0.349053 0.232236 0.757608
Si Si7 0.342997 0.657004 0.750000
O O1 0.443384 0.946948 0.523389
O O2 0.554623 0.946488 0.726681
O O3 0.702868 0.521505 0.023257
O O4 0.691915 0.389930 0.175375
O O5 0.569243 0.466736 0.105152
O O6 0.646517 0.404366 0.883901
O O7 0.472272 0.155493 0.373887
O O8 0.629001 0.161663 0.371838
O O9 0.204715 0.620278 0.405735
O O10 0.256311 0.642579 0.682650
O O11 0.257801 0.257801 0.750000
#
# Coordination Sequence:
#
# PCOD8310128 Si02
#       7
#     4   8   8   8   2   8   4
#     4  10  20  36  56  80  88 120 168 222 280 282
#     4  11  22  32  43  55  84 118 171 213 258 292
#     4  10  21  35  55  72  98 121 164 223 259 311
#     4  11  22  35  45  64  91 125 161 215 261 305
#     4  12  20  34  40  54  80 118 172 226 244 282
#     4  11  20  36  48  67  94 129 155 199 264 324
#     4  12  22  33  44  60  80 124 166 196 259 320
#
# _framework density 15.909717000000001
#
# number of rings (size 3 to 8) (size 9 to 14) (size 15 to 20)
#    0.000    1.143    5.714    2.286    2.667    0.381 
#    0.000    0.000    0.000    0.000    0.000    0.000 
#    0.000    0.000    0.000    0.000    0.000    2.857 
#
# Total GULP energy -520367.471779 kJ/mol
# GULP energy per Si atom -12389.701709 kJ/mol
# Density = 1.587351 g / cm^3
# Si number density = 15.909717 Si / 1000 Ang^3
#
#
#
# Elastic Constant Matrix: (Units=GPa)
#
#
# Indices 1 2 3 4 5 6 
#
# 1 74.4783 21.9999 24.7011 0.0000 0.0000 0.0000
# 2 21.9999 74.4784 24.7012 0.0000 0.0000 0.0000
# 3 24.7011 24.7012 76.1724 0.0000 0.0000 0.0000
# 4 0.0000 0.0000 0.0000 17.0110 0.0000 0.0000
# 5 0.0000 0.0000 0.0000 0.0000 17.0111 0.0000
# 6 0.0000 0.0000 0.0000 0.0000 0.0000 16.2624
#
#
#
# Elastic Compliance Matrix: (Units=1/GPa)
#
#
# Indices 1 2 3 4 5 6 
#
# 1 0.015742 -0.003313 -0.004030 0.000000 0.000000 0.000000
# 2 -0.003313 0.015742 -0.004030 0.000000 0.000000 0.000000
# 3 -0.004030 -0.004030 0.015742 0.000000 0.000000 0.000000
# 4 0.000000 0.000000 0.000000 0.058785 0.000000 0.000000
# 5 0.000000 0.000000 0.000000 0.000000 0.058785 0.000000
# 6 0.000000 0.000000 0.000000 0.000000 0.000000 0.061491
#
#
# Mechanical properties :
#
#
# Convention : Reuss Voigt Hill
#
# Bulk Modulus (GPa) = 40.85288 40.88149 40.86718
# Shear Modulus (GPa) = 19.44043 20.30537 19.87290
#
# Velocity S-wave (km/s) = 3.49939 3.57639 3.53810
# Velocity P-wave (km/s) = 6.48547 6.54262 6.51411
#
# Compressibility (1/GPa) = 0.02447808
#
# Stress axis : x y z
#
# Youngs Moduli (GPa) = 63.52381 63.52383 63.52410
#
# Poissons Ratio (x) = 0.21047 0.25603
# Poissons Ratio (y) = 0.21047 0.25603
# Poissons Ratio (z) = 0.25603 0.25603
#
# Static dielectric constant tensor:
#      x y z
#    x 3.006620 0.000000 0.000000 
#    y 0.000000 3.006610 0.000000 
#    z 0.000000 0.000000 3.172200 
# 
# 
# High freq. dielectric constant tensor:
#      x y z
#    x 1.573230 0.000000 0.000000 
#    y 0.000000 1.573230 0.000000 
#    z 0.000000 0.000000 1.630700 
# 
# From -- ./inp_files/937.got.cif
#   From: 2010.03.12/outbox.cif.g09.slc.cpg/sg116_1_cif.got.tgz:937.got - 2010.04.14 02:15:44.
