data_PCOD8310827
_publ_section_title
;
Structure prediction by ZEFSAII (Michael W. Deem and Ramdas Pophale) SiO2 
 PCOD8310827
Probable space group: I -4 M 2
;
_chemical_formula_sum "Si O2"
_cell_formula_units_Z 112
_cell_length_a 22.141240
_cell_length_b 22.141240
_cell_length_c 12.873532
_cell_angle_alpha 90.000000
_cell_angle_beta 90.000000
_cell_angle_gamma 90.000000
_cell_volume 6311.049636
_symmetry_space_group_name_H-M "I -4 M 2"
_symmetry_group_IT_number 119
_symmetry_cell_setting 'tetragonal'
loop_
_space_group_symop_operation_xyz
x,y,z
y,-x,-z
-x,-y,z
-y,x,-z
y,x,-z
-y,-x,-z
-x,y,z
x,-y,z
1/2+x,1/2+y,1/2+z
1/2+y,1/2-x,1/2-z
1/2-x,1/2-y,1/2+z
1/2-y,1/2+x,1/2-z
1/2+y,1/2+x,1/2-z
1/2-y,1/2-x,1/2-z
1/2-x,1/2+y,1/2+z
1/2+x,1/2-y,1/2+z
loop_
_atom_site_type_symbol
_atom_site_label
_atom_site_fract_x
_atom_site_fract_y
_atom_site_fract_z
Si Si1 0.661554 0.656005 0.745689
Si Si2 0.763954 0.933614 0.633543
Si Si3 0.434116 0.159390 0.712115
Si Si4 0.139505 0.224695 0.557619
Si Si5 0.568596 0.630187 0.586650
Si Si6 0.265960 0.929426 0.986597
Si Si7 0.216697 0.673119 0.645848
O O1 0.619717 0.703595 0.804523
O O2 0.699495 0.616510 0.830148
O O3 0.616162 0.614984 0.678283
O O4 0.713198 0.688572 0.674902
O O5 0.699976 0.939910 0.686526
O O6 0.753483 0.916670 0.512341
O O7 0.796562 0.000000 0.639836
O O8 0.500000 0.135270 0.679799
O O9 0.396109 0.103892 0.750000
O O10 0.407311 0.195195 0.612680
O O11 0.167992 0.167992 0.500000
O O12 0.190425 0.276401 0.568595
O O13 0.579247 0.579247 0.500000
O O14 0.500000 0.626322 0.628030
O O15 0.583202 0.696228 0.541115
O O16 0.275812 0.000000 0.011374
O O17 0.285623 0.891758 0.088420
O O18 0.174667 0.674667 0.750000
#
# Coordination Sequence:
#
# PCOD8310827 Si02
#       7
#    16  16  16  16  16  16  16
#     4  10  19  33  50  75 105 134 173 216 267 322
#     4  10  19  34  52  75 107 140 179 217 262 327
#     4  10  20  32  51  78 106 140 178 217 268 322
#     4   9  20  31  48  77 107 140 173 214 268 319
#     4  11  21  35  55  77 106 140 176 222 267 317
#     4  10  20  34  53  79 108 140 178 217 269 325
#     4  10  20  33  51  78 110 137 175 217 270 322
#
# _framework density 17.746651
#
# number of rings (size 3 to 8) (size 9 to 14) (size 15 to 20)
#    0.000    2.000    2.857    1.286    2.000    3.143 
#    0.000    3.571    0.000    0.857    0.000    0.000 
#    0.000   15.143    0.000    0.000    0.000    0.000 
#
# Total GULP energy -693805.374691 kJ/mol
# GULP energy per Si atom -12389.381691 kJ/mol
# Density = 1.770626 g / cm^3
# Si number density = 17.746651 Si / 1000 Ang^3
#
#
#
# Elastic Constant Matrix: (Units=GPa)
#
#
# Indices 1 2 3 4 5 6 
#
# 1 77.7382 36.6533 51.7414 0.0000 0.0000 0.0000
# 2 36.6533 77.7411 51.7422 0.0000 0.0000 0.0000
# 3 51.7414 51.7422 104.7704 0.0000 0.0000 0.0000
# 4 0.0000 0.0000 0.0000 27.6797 0.0000 0.0000
# 5 0.0000 0.0000 0.0000 0.0000 27.6803 0.0000
# 6 0.0000 0.0000 0.0000 0.0000 0.0000 20.7269
#
#
#
# Elastic Compliance Matrix: (Units=1/GPa)
#
#
# Indices 1 2 3 4 5 6 
#
# 1 0.020070 -0.004269 -0.007804 0.000000 0.000000 0.000000
# 2 -0.004269 0.020070 -0.007803 0.000000 0.000000 0.000000
# 3 -0.007804 -0.007803 0.017252 0.000000 0.000000 0.000000
# 4 0.000000 0.000000 0.000000 0.036128 0.000000 0.000000
# 5 0.000000 0.000000 0.000000 0.000000 0.036127 0.000000
# 6 0.000000 0.000000 0.000000 0.000000 0.000000 0.048246
#
#
# Mechanical properties :
#
#
# Convention : Reuss Voigt Hill
#
# Bulk Modulus (GPa) = 56.68772 60.05816 58.37294
# Shear Modulus (GPa) = 22.36882 23.22490 22.79686
#
# Velocity S-wave (km/s) = 3.55414 3.62151 3.58798
# Velocity P-wave (km/s) = 6.98961 7.16956 7.08015
#
# Compressibility (1/GPa) = 0.01764051
#
# Stress axis : x y z
#
# Youngs Moduli (GPa) = 49.82448 49.82655 57.96313
#
# Poissons Ratio (x) = 0.21271 0.45232
# Poissons Ratio (y) = 0.21270 0.45231
# Poissons Ratio (z) = 0.38881 0.38882
#
# Static dielectric constant tensor:
#      x y z
#    x 3.232150 0.000000 0.000000 
#    y 0.000000 3.232150 0.000000 
#    z 0.000000 0.000000 3.783440 
# 
# 
# High freq. dielectric constant tensor:
#      x y z
#    x 1.664330 0.000000 0.000000 
#    y 0.000000 1.664330 0.000000 
#    z 0.000000 0.000000 1.699360 
# 
# From -- ./inp_files/4392.got.cif
#   From: 2010.03.12/outbox.cif.g09.slc.cpg/sg119_3_cif.got.tgz:4392.got - 2010.04.14 02:25:26.
