data_PCOD8310244
_publ_section_title
;
Structure prediction by ZEFSAII (Michael W. Deem and Ramdas Pophale) SiO2 
 PCOD8310244
Probable space group: P -4 C 2
;
_chemical_formula_sum "Si O2"
_cell_formula_units_Z 40
_cell_length_a 14.324680
_cell_length_b 14.324680
_cell_length_c 8.912984
_cell_angle_alpha 90.000000
_cell_angle_beta 90.000000
_cell_angle_gamma 90.000000
_cell_volume 1828.912739
_symmetry_space_group_name_H-M "P -4 C 2"
_symmetry_group_IT_number 116
_symmetry_cell_setting 'tetragonal'
loop_
_space_group_symop_operation_xyz
x,y,z
y,-x,-z
-x,-y,z
-y,x,-z
y,x,1/2-z
-y,-x,1/2-z
-x,y,1/2+z
x,-y,1/2+z
loop_
_atom_site_type_symbol
_atom_site_label
_atom_site_fract_x
_atom_site_fract_y
_atom_site_fract_z
Si Si1 0.606112 0.745147 0.815748
Si Si2 0.111905 0.940820 0.588207
Si Si3 0.316958 0.095410 0.170930
Si Si4 0.715403 0.413949 0.836393
Si Si5 0.399336 0.957901 0.375563
O O1 0.699915 0.699915 0.750000
O O2 0.521346 0.718212 0.708711
O O3 0.616379 0.856217 0.805771
O O4 0.590759 0.707802 0.984179
O O5 0.063092 0.936909 0.750000
O O6 0.214254 0.894817 0.598778
O O7 0.048487 0.883243 0.468468
O O8 0.354966 0.195675 0.221349
O O9 0.318300 0.026654 0.313595
O O10 0.388366 0.048759 0.053567
O O11 0.626375 0.373626 0.750000
O O12 0.500000 0.000000 0.335663
#
# Coordination Sequence:
#
# PCOD8310244 Si02
#       5
#     8   8   8   8   8
#     4  11  25  43  69 101 137 184 229 291 351 431
#     4  11  23  41  63  92 138 187 237 291 349 414
#     4  11  24  39  68  99 135 187 235 295 346 426
#     4  11  24  44  68  99 138 176 231 286 351 418
#     4  11  23  41  66  98 138 180 231 292 360 414
#
# _framework density 21.870916000000001
#
# number of rings (size 3 to 8) (size 9 to 14) (size 15 to 20)
#    0.000    1.000    2.000    4.800    2.800    5.200 
#    0.000    2.000    0.000    0.000    0.000    0.000 
#    0.000    0.000    0.000    0.000    0.000    0.000 
#
# Total GULP energy -496052.674524 kJ/mol
# GULP energy per Si atom -12401.316863 kJ/mol
# Density = 2.182114 g / cm^3
# Si number density = 21.870916 Si / 1000 Ang^3
#
#
#
# Elastic Constant Matrix: (Units=GPa)
#
#
# Indices 1 2 3 4 5 6 
#
# 1 98.9232 25.2958 15.8988 0.0000 0.0000 0.0000
# 2 25.2958 98.9207 15.8977 0.0000 0.0000 0.0000
# 3 15.8988 15.8977 92.5907 0.0000 0.0000 0.0000
# 4 0.0000 0.0000 0.0000 35.9636 0.0000 0.0000
# 5 0.0000 0.0000 0.0000 0.0000 35.9644 0.0000
# 6 0.0000 0.0000 0.0000 0.0000 0.0000 39.9868
#
#
#
# Elastic Compliance Matrix: (Units=1/GPa)
#
#
# Indices 1 2 3 4 5 6 
#
# 1 0.011001 -0.002581 -0.001446 0.000000 0.000000 0.000000
# 2 -0.002581 0.011001 -0.001446 0.000000 0.000000 0.000000
# 3 -0.001446 -0.001446 0.011297 0.000000 0.000000 0.000000
# 4 0.000000 0.000000 0.000000 0.027806 0.000000 0.000000
# 5 0.000000 0.000000 0.000000 0.000000 0.027805 0.000000
# 6 0.000000 0.000000 0.000000 0.000000 0.000000 0.025008
#
#
# Mechanical properties :
#
#
# Convention : Reuss Voigt Hill
#
# Bulk Modulus (GPa) = 44.73402 44.95768 44.84585
# Shear Modulus (GPa) = 37.78856 37.93912 37.86384
#
# Velocity S-wave (km/s) = 4.16119 4.16947 4.16533
# Velocity P-wave (km/s) = 6.60192 6.61664 6.60928
#
# Compressibility (1/GPa) = 0.02235435
#
# Stress axis : x y z
#
# Youngs Moduli (GPa) = 90.89932 90.89737 88.52116
#
# Poissons Ratio (x) = 0.23459 0.12799
# Poissons Ratio (y) = 0.23459 0.12798
# Poissons Ratio (z) = 0.13143 0.13142
#
# Static dielectric constant tensor:
#      x y z
#    x 3.902970 0.000000 0.000000 
#    y 0.000000 3.902970 0.000000 
#    z 0.000000 0.000000 4.021070 
# 
# 
# High freq. dielectric constant tensor:
#      x y z
#    x 1.859880 0.000000 0.000000 
#    y 0.000000 1.859880 0.000000 
#    z 0.000000 0.000000 1.868060 
# 
# From -- ./inp_files/790.got.cif
#   From: 2010.03.12/outbox.cif.g09.slc.cpg/sg116_1_cif.got.tgz:790.got - 2010.04.14 02:15:44.
