data_PCOD8310669
_publ_section_title
;
Structure prediction by ZEFSAII (Michael W. Deem and Ramdas Pophale) SiO2 
 PCOD8310669
Probable space group: P -4 N 2
;
_chemical_formula_sum "Si O2"
_cell_formula_units_Z 56
_cell_length_a 15.859407
_cell_length_b 15.859407
_cell_length_c 14.650929
_cell_angle_alpha 90.000000
_cell_angle_beta 90.000000
_cell_angle_gamma 90.000000
_cell_volume 3685.013242
_symmetry_space_group_name_H-M "P -4 N 2"
_symmetry_group_IT_number 118
_symmetry_cell_setting 'tetragonal'
loop_
_space_group_symop_operation_xyz
x,y,z
y,-x,-z
-x,-y,z
-y,x,-z
1/2+y,1/2+x,1/2-z
1/2-y,1/2-x,1/2-z
1/2-x,1/2+y,1/2+z
1/2+x,1/2-y,1/2+z
loop_
_atom_site_type_symbol
_atom_site_label
_atom_site_fract_x
_atom_site_fract_y
_atom_site_fract_z
Si Si1 0.749020 0.014908 0.145499
Si Si2 0.566343 0.066343 0.141359
Si Si3 0.938035 0.878341 0.999095
Si Si4 0.938035 0.878342 0.500905
Si Si5 0.808146 0.828977 0.354397
Si Si6 0.828977 0.191854 0.854396
Si Si7 0.014908 0.250980 0.645499
O O1 0.658839 0.042365 0.105907
O O2 0.820253 0.064645 0.090023
O O3 0.760383 0.042777 0.250000
O O4 0.755005 0.914475 0.134560
O O5 0.562623 0.062623 0.250000
O O6 0.542365 0.158839 0.105907
O O7 0.500000 0.000000 0.099529
O O8 0.890709 0.831940 0.082232
O O9 0.034365 0.893723 0.029690
O O10 0.890708 0.831940 0.417768
O O11 0.935355 0.820253 0.590023
O O12 0.034365 0.893723 0.470309
O O13 0.838524 0.818204 0.250000
O O14 0.748379 0.751620 0.384092
O O15 0.755005 0.914475 0.365440
#
# Coordination Sequence:
#
# PCOD8310669 Si02
#       7
#     8   8   8   8   8   8   8
#     4   9  17  28  43  64  88 115 141 174 221 264
#     4   9  16  26  42  64  89 113 140 174 216 267
#     4   9  18  30  43  63  89 116 146 181 219 260
#     4   9  18  30  43  63  89 116 146 181 219 260
#     4   9  17  29  45  63  85 114 147 181 216 255
#     4   9  17  29  45  63  85 114 147 181 216 255
#     4   9  17  28  43  64  88 115 141 174 221 264
#
# _framework density 15.196688
#
# number of rings (size 3 to 8) (size 9 to 14) (size 15 to 20)
#    0.000    3.000    0.000    0.857    2.000    4.571 
#    0.000    5.714    0.000    0.000    0.000    0.000 
#    0.000    1.143    0.000    0.000    0.000    0.000 
#
# Total GULP energy -694345.332828 kJ/mol
# GULP energy per Si atom -12399.023800 kJ/mol
# Density = 1.516210 g / cm^3
# Si number density = 15.196688 Si / 1000 Ang^3
#
#
#
# Elastic Constant Matrix: (Units=GPa)
#
#
# Indices 1 2 3 4 5 6 
#
# 1 95.2285 61.7006 55.8425 0.0000 0.0000 0.0000
# 2 61.7006 95.2285 55.8425 0.0000 0.0000 0.0000
# 3 55.8425 55.8425 77.0818 0.0000 0.0000 0.0000
# 4 0.0000 0.0000 0.0000 20.2762 0.0000 0.0000
# 5 0.0000 0.0000 0.0000 0.0000 20.2762 0.0000
# 6 0.0000 0.0000 0.0000 0.0000 0.0000 23.0991
#
#
#
# Elastic Compliance Matrix: (Units=1/GPa)
#
#
# Indices 1 2 3 4 5 6 
#
# 1 0.021490 -0.008336 -0.009530 0.000000 0.000000 0.000000
# 2 -0.008336 0.021490 -0.009530 0.000000 0.000000 0.000000
# 3 -0.009530 -0.009530 0.026781 0.000000 0.000000 0.000000
# 4 0.000000 0.000000 0.000000 0.049319 0.000000 0.000000
# 5 0.000000 0.000000 0.000000 0.000000 0.049319 0.000000
# 6 0.000000 0.000000 0.000000 0.000000 0.000000 0.043292
#
#
# Mechanical properties :
#
#
# Convention : Reuss Voigt Hill
#
# Bulk Modulus (GPa) = 66.79692 68.25665 67.52678
# Shear Modulus (GPa) = 18.41802 19.00718 18.71260
#
# Velocity S-wave (km/s) = 3.48512 3.54042 3.51288
# Velocity P-wave (km/s) = 7.76177 7.85658 7.80932
#
# Compressibility (1/GPa) = 0.01497075
#
# Stress axis : x y z
#
# Youngs Moduli (GPa) = 46.53258 46.53258 37.33925
#
# Poissons Ratio (x) = 0.38788 0.35585
# Poissons Ratio (y) = 0.38788 0.35585
# Poissons Ratio (z) = 0.44346 0.44346
#
# Static dielectric constant tensor:
#      x y z
#    x 2.959550 0.000000 0.000000 
#    y 0.000000 2.959550 0.000000 
#    z 0.000000 0.000000 2.786010 
# 
# 
# High freq. dielectric constant tensor:
#      x y z
#    x 1.582480 0.000000 0.000000 
#    y 0.000000 1.582480 0.000000 
#    z 0.000000 0.000000 1.559620 
# 
# From -- ./inp_files/4239.got.cif
#   From: 2010.03.12/outbox.cif.g09.slc.cpg/sg118_3_cif.got.tgz:4239.got - 2010.04.14 02:21:17.
