data_PCOD8310636
_publ_section_title
;
Structure prediction by ZEFSAII (Michael W. Deem and Ramdas Pophale) SiO2 
 PCOD8310636
Probable space group: P -4 N 2
;
_chemical_formula_sum "Si O2"
_cell_formula_units_Z 40
_cell_length_a 8.823478
_cell_length_b 8.823478
_cell_length_c 25.265947
_cell_angle_alpha 90.000000
_cell_angle_beta 90.000000
_cell_angle_gamma 90.000000
_cell_volume 1967.049075
_symmetry_space_group_name_H-M "P -4 N 2"
_symmetry_group_IT_number 118
_symmetry_cell_setting 'tetragonal'
loop_
_space_group_symop_operation_xyz
x,y,z
y,-x,-z
-x,-y,z
-y,x,-z
1/2+y,1/2+x,1/2-z
1/2-y,1/2-x,1/2-z
1/2-x,1/2+y,1/2+z
1/2+x,1/2-y,1/2+z
loop_
_atom_site_type_symbol
_atom_site_label
_atom_site_fract_x
_atom_site_fract_y
_atom_site_fract_z
Si Si1 0.597099 0.726788 0.208913
Si Si2 0.401663 0.273956 0.791088
Si Si3 0.607949 0.724061 0.088796
Si Si4 0.724137 0.392722 0.088819
Si Si5 0.105452 0.771848 0.000022
O O1 0.644386 0.855615 0.250000
O O2 0.419191 0.704622 0.216272
O O3 0.685247 0.573245 0.222180
O O4 0.637090 0.775782 0.149086
O O5 0.355604 0.144397 0.750000
O O6 0.381879 0.215761 0.851091
O O7 0.692525 0.567446 0.074778
O O8 0.429031 0.702858 0.079840
O O9 0.673067 0.855171 0.051604
O O10 0.854621 0.325581 0.051863
O O11 0.927306 0.800971 0.000322
#
# Coordination Sequence:
#
# PCOD8310636 Si02
#       5
#     8   8   8   8   8
#     4   9  19  35  54  78 107 137 171 212 256 302
#     4   9  19  35  54  78 107 137 171 212 256 302
#     4   9  19  37  58  77 100 135 177 215 253 303
#     4   9  19  37  58  77 100 135 177 215 253 303
#     4  11  24  37  50  76 110 137 166 211 264 310
#
# _framework density 20.335028999999999
#
# number of rings (size 3 to 8) (size 9 to 14) (size 15 to 20)
#    0.000    2.600    0.000    3.600    0.000    8.800 
#    0.000   12.000    0.000    0.000    0.000    0.000 
#    0.000    0.000    0.000    0.000    0.000    0.000 
#
# Total GULP energy -496053.978906 kJ/mol
# GULP energy per Si atom -12401.349473 kJ/mol
# Density = 2.028875 g / cm^3
# Si number density = 20.335029 Si / 1000 Ang^3
#
#
#
# Elastic Constant Matrix: (Units=GPa)
#
#
# Indices 1 2 3 4 5 6 
#
# 1 15.4413 -7.7813 9.3054 0.0000 0.0000 0.0000
# 2 -7.7813 15.4415 9.3061 0.0000 0.0000 0.0000
# 3 9.3054 9.3061 84.5439 0.0000 0.0000 0.0000
# 4 0.0000 0.0000 0.0000 6.2114 0.0000 0.0000
# 5 0.0000 0.0000 0.0000 0.0000 6.2114 0.0000
# 6 0.0000 0.0000 0.0000 0.0000 0.0000 35.8455
#
#
#
# Elastic Compliance Matrix: (Units=1/GPa)
#
#
# Indices 1 2 3 4 5 6 
#
# 1 0.110634 0.067572 -0.019615 0.000000 0.000000 0.000000
# 2 0.067572 0.110633 -0.019615 0.000000 0.000000 0.000000
# 3 -0.019615 -0.019615 0.016146 0.000000 0.000000 0.000000
# 4 0.000000 0.000000 0.000000 0.160993 0.000000 0.000000
# 5 0.000000 0.000000 0.000000 0.000000 0.160994 0.000000
# 6 0.000000 0.000000 0.000000 0.000000 0.000000 0.027897
#
#
# Mechanical properties :
#
#
# Convention : Reuss Voigt Hill
#
# Bulk Modulus (GPa) = 3.40024 15.23188 9.31606
# Shear Modulus (GPa) = 7.95360 16.62677 12.29018
#
# Velocity S-wave (km/s) = 1.97984 2.86255 2.46109
# Velocity P-wave (km/s) = 2.62719 4.29328 3.55910
#
# Compressibility (1/GPa) = 0.29409683
#
# Stress axis : x y z
#
# Youngs Moduli (GPa) = 9.03885 9.03888 61.93395
#
# Poissons Ratio (x) = -0.61077 1.21483
# Poissons Ratio (y) = -0.61077 1.21485
# Poissons Ratio (z) = 0.17730 0.17730
#
# Static dielectric constant tensor:
#      x y z
#    x 3.479810 0.000000 0.000000 
#    y 0.000000 3.479810 0.000000 
#    z 0.000000 0.000000 3.684150 
# 
# 
# High freq. dielectric constant tensor:
#      x y z
#    x 1.785070 0.000000 0.000000 
#    y 0.000000 1.785070 0.000000 
#    z 0.000000 0.000000 1.802400 
# 
# From -- ./inp_files/6008.got.cif
#   From: 2010.03.12/outbox.cif.g09.slc.cpg/sg118_4_cif.got.tgz:6008.got - 2010.04.14 02:21:17.
