data_PCOD8310126
_publ_section_title
;
Structure prediction by ZEFSAII (Michael W. Deem and Ramdas Pophale) SiO2 
 PCOD8310126
Probable space group: P -4 C 2
;
_chemical_formula_sum "Si O2"
_cell_formula_units_Z 36
_cell_length_a 9.284801
_cell_length_b 9.284801
_cell_length_c 22.156860
_cell_angle_alpha 90.000000
_cell_angle_beta 90.000000
_cell_angle_gamma 90.000000
_cell_volume 1910.088165
_symmetry_space_group_name_H-M "P -4 C 2"
_symmetry_group_IT_number 116
_symmetry_cell_setting 'tetragonal'
loop_
_space_group_symop_operation_xyz
x,y,z
y,-x,-z
-x,-y,z
-y,x,-z
y,x,1/2-z
-y,-x,1/2-z
-x,y,1/2+z
x,-y,1/2+z
loop_
_atom_site_type_symbol
_atom_site_label
_atom_site_fract_x
_atom_site_fract_y
_atom_site_fract_z
Si Si1 0.500000 0.500000 0.750000
Si Si2 0.303572 0.426192 0.027212
Si Si3 0.926192 0.196428 0.527212
Si Si4 0.501139 0.235925 0.339532
Si Si5 0.001139 0.735925 0.160468
Si Si6 0.000000 0.000000 0.250000
O O1 0.357743 0.497880 0.710302
O O2 0.153647 0.346353 0.012724
O O3 0.308947 0.479884 0.095604
O O4 0.317603 0.562302 0.982560
O O5 0.062302 0.182397 0.482560
O O6 0.979884 0.191053 0.595604
O O7 0.652837 0.152837 0.339214
O O8 0.371632 0.128368 0.324428
O O9 0.002120 0.857743 0.210302
#
# Coordination Sequence:
#
# PCOD8310126 Si02
#       6
#     2   8   8   8   8   2
#     4  12  20  36  62  80 100 140 192 222 252 320
#     4  10  20  35  55  80 109 140 175 215 264 319
#     4  10  20  35  55  80 109 140 175 215 264 319
#     4  10  22  38  55  79 111 142 174 221 273 312
#     4  10  22  38  55  79 111 142 174 221 273 312
#     4  12  20  36  62  80 100 140 192 222 252 320
#
# _framework density 18.847297999999999
#
# number of rings (size 3 to 8) (size 9 to 14) (size 15 to 20)
#    0.000    1.778    0.000    5.333    0.000    2.667 
#    0.000    2.222    0.000    5.333    0.000    0.000 
#    0.000    0.000    0.000    0.000    0.000    0.000 
#
# Total GULP energy -446476.409227 kJ/mol
# GULP energy per Si atom -12402.122479 kJ/mol
# Density = 1.880440 g / cm^3
# Si number density = 18.847298 Si / 1000 Ang^3
#
#
#
# Elastic Constant Matrix: (Units=GPa)
#
#
# Indices 1 2 3 4 5 6 
#
# 1 117.0597 58.4371 89.8011 0.0000 0.0000 0.0000
# 2 58.4371 117.0597 89.8011 0.0000 0.0000 0.0000
# 3 89.8011 89.8011 148.2940 0.0000 0.0000 0.0000
# 4 0.0000 0.0000 0.0000 34.5714 0.0000 0.0000
# 5 0.0000 0.0000 0.0000 0.0000 34.5714 0.0000
# 6 0.0000 0.0000 0.0000 0.0000 0.0000 42.5568
#
#
#
# Elastic Compliance Matrix: (Units=1/GPa)
#
#
# Indices 1 2 3 4 5 6 
#
# 1 0.016021 -0.001037 -0.009074 0.000000 0.000000 0.000000
# 2 -0.001037 0.016021 -0.009074 0.000000 0.000000 0.000000
# 3 -0.009074 -0.009074 0.017733 0.000000 0.000000 0.000000
# 4 0.000000 0.000000 0.000000 0.028926 0.000000 0.000000
# 5 0.000000 0.000000 0.000000 0.000000 0.028926 0.000000
# 6 0.000000 0.000000 0.000000 0.000000 0.000000 0.023498
#
#
# Mechanical properties :
#
#
# Convention : Reuss Voigt Hill
#
# Bulk Modulus (GPa) = 87.67375 95.38798 91.53087
# Shear Modulus (GPa) = 28.85234 31.96486 30.40860
#
# Velocity S-wave (km/s) = 3.91685 4.12271 4.02110
# Velocity P-wave (km/s) = 8.18990 8.56640 8.38026
#
# Compressibility (1/GPa) = 0.01140592
#
# Stress axis : x y z
#
# Youngs Moduli (GPa) = 62.41714 62.41714 56.39232
#
# Poissons Ratio (x) = 0.06473 0.51170
# Poissons Ratio (y) = 0.06473 0.51170
# Poissons Ratio (z) = 0.56636 0.56636
#
# Static dielectric constant tensor:
#      x y z
#    x 3.615880 0.000000 0.000000 
#    y 0.000000 3.615880 0.000000 
#    z 0.000000 0.000000 3.393790 
# 
# 
# High freq. dielectric constant tensor:
#      x y z
#    x 1.742120 0.000000 0.000000 
#    y 0.000000 1.742120 0.000000 
#    z 0.000000 0.000000 1.730660 
# 
# From -- ./inp_files/4508.got.cif
#   From: 2010.03.12/outbox.cif.g09.slc.cpg/sg116_3_cif.got.tgz:4508.got - 2010.04.14 02:15:44.
