data_PCOD8310900
_publ_section_title
;
Structure prediction by ZEFSAII (Michael W. Deem and Ramdas Pophale) SiO2 
 PCOD8310900
Probable space group: I -4 M 2
;
_chemical_formula_sum "Si O2"
_cell_formula_units_Z 128
_cell_length_a 23.230130
_cell_length_b 23.230130
_cell_length_c 13.969880
_cell_angle_alpha 90.000000
_cell_angle_beta 90.000000
_cell_angle_gamma 90.000000
_cell_volume 7538.691233
_symmetry_space_group_name_H-M "I -4 M 2"
_symmetry_group_IT_number 119
_symmetry_cell_setting 'tetragonal'
loop_
_space_group_symop_operation_xyz
x,y,z
y,-x,-z
-x,-y,z
-y,x,-z
y,x,-z
-y,-x,-z
-x,y,z
x,-y,z
1/2+x,1/2+y,1/2+z
1/2+y,1/2-x,1/2-z
1/2-x,1/2-y,1/2+z
1/2-y,1/2+x,1/2-z
1/2+y,1/2+x,1/2-z
1/2-y,1/2-x,1/2-z
1/2-x,1/2+y,1/2+z
1/2+x,1/2-y,1/2+z
loop_
_atom_site_type_symbol
_atom_site_label
_atom_site_fract_x
_atom_site_fract_y
_atom_site_fract_z
Si Si1 0.176464 0.625081 0.544832
Si Si2 0.115268 0.565422 0.845769
Si Si3 0.131767 0.780230 0.816617
Si Si4 0.350579 0.435780 0.530129
Si Si5 0.338621 0.745259 0.757690
Si Si6 0.065340 0.250557 0.636765
Si Si7 0.563363 0.248469 0.608088
Si Si8 0.750748 0.156413 0.524989
O O1 0.113296 0.600754 0.573775
O O2 0.215813 0.634197 0.639484
O O3 0.203203 0.578147 0.475116
O O4 0.173826 0.684504 0.486991
O O5 0.098388 0.500000 0.877943
O O6 0.080540 0.580540 0.750000
O O7 0.183427 0.569429 0.830363
O O8 0.108290 0.824945 0.893416
O O9 0.195241 0.798343 0.784467
O O10 0.089989 0.784885 0.725686
O O11 0.413690 0.413690 0.500000
O O12 0.355295 0.500000 0.573277
O O13 0.312084 0.435280 0.435368
O O14 0.303884 0.803884 0.750000
O O15 0.396076 0.754064 0.698562
O O16 0.359487 0.734460 0.865978
O O17 0.101855 0.235495 0.542160
O O18 0.000000 0.231805 0.615849
O O19 0.500000 0.232785 0.645326
O O20 0.788084 0.211917 0.500000
#
# Coordination Sequence:
#
# PCOD8310900 Si02
#       8
#    16  16  16  16  16  16  16  16
#     4  10  21  34  54  79 110 142 178 219 275 330
#     4  10  20  34  51  76 109 145 183 223 268 325
#     4  11  20  33  57  81 112 143 173 224 275 329
#     4  10  20  35  55  82 113 148 182 218 265 323
#     4  12  22  34  57  85 106 138 183 228 278 321
#     4  10  21  35  52  78 110 144 179 216 269 330
#     4  10  22  38  55  77 109 143 181 225 272 325
#     4  11  21  33  53  81 109 138 176 220 274 322
#
# _framework density 16.979075000000002
#
# number of rings (size 3 to 8) (size 9 to 14) (size 15 to 20)
#    0.000    1.500    5.000    1.125    1.750    1.750 
#    0.000    0.000    0.000    0.000    0.000    0.000 
#    0.000    1.250    0.000    0.000    0.000    0.000 
#
# Total GULP energy -793589.081979 kJ/mol
# GULP energy per Si atom -12399.829406 kJ/mol
# Density = 1.694043 g / cm^3
# Si number density = 16.979075 Si / 1000 Ang^3
#
#
#
# Elastic Constant Matrix: (Units=GPa)
#
#
# Indices 1 2 3 4 5 6 
#
# 1 94.1110 35.1331 36.5937 0.0000 0.0000 0.0000
# 2 35.1331 94.1029 36.5899 0.0000 0.0000 0.0000
# 3 36.5937 36.5899 102.0797 0.0000 0.0000 0.0000
# 4 0.0000 0.0000 0.0000 23.5157 0.0000 0.0000
# 5 0.0000 0.0000 0.0000 0.0000 23.5159 0.0000
# 6 0.0000 0.0000 0.0000 0.0000 0.0000 13.4795
#
#
#
# Elastic Compliance Matrix: (Units=1/GPa)
#
#
# Indices 1 2 3 4 5 6 
#
# 1 0.013332 -0.003624 -0.003480 0.000000 0.000000 0.000000
# 2 -0.003624 0.013333 -0.003480 0.000000 0.000000 0.000000
# 3 -0.003480 -0.003480 0.012291 0.000000 0.000000 0.000000
# 4 0.000000 0.000000 0.000000 0.042525 0.000000 0.000000
# 5 0.000000 0.000000 0.000000 0.000000 0.042524 0.000000
# 6 0.000000 0.000000 0.000000 0.000000 0.000000 0.074187
#
#
# Mechanical properties :
#
#
# Convention : Reuss Voigt Hill
#
# Bulk Modulus (GPa) = 56.21952 56.32521 56.27237
# Shear Modulus (GPa) = 22.19364 24.23401 23.21383
#
# Velocity S-wave (km/s) = 3.61933 3.78204 3.70158
# Velocity P-wave (km/s) = 7.11681 7.23306 7.17517
#
# Compressibility (1/GPa) = 0.01778742
#
# Stress axis : x y z
#
# Youngs Moduli (GPa) = 75.00779 75.00277 81.35922
#
# Poissons Ratio (x) = 0.27183 0.28314
# Poissons Ratio (y) = 0.27185 0.28312
# Poissons Ratio (z) = 0.26104 0.26100
#
# Static dielectric constant tensor:
#      x y z
#    x 3.169470 0.000000 0.000000 
#    y 0.000000 3.169470 0.000000 
#    z 0.000000 0.000000 3.172750 
# 
# 
# High freq. dielectric constant tensor:
#      x y z
#    x 1.648010 0.000000 0.000000 
#    y 0.000000 1.648010 0.000000 
#    z 0.000000 0.000000 1.651440 
# 
# From -- ./inp_files/4455.got.cif
#   From: 2010.03.12/outbox.cif.g09.slc.cpg/sg119_3_cif.got.tgz:4455.got - 2010.04.14 02:25:26.
