data_PCOD8310931
_publ_section_title
;
Structure prediction by ZEFSAII (Michael W. Deem and Ramdas Pophale) SiO2 
 PCOD8310931
Probable space group: I -4 M 2
;
_chemical_formula_sum "Si O2"
_cell_formula_units_Z 88
_cell_length_a 17.697492
_cell_length_b 17.697492
_cell_length_c 12.600619
_cell_angle_alpha 90.000000
_cell_angle_beta 90.000000
_cell_angle_gamma 90.000000
_cell_volume 3946.529282
_symmetry_space_group_name_H-M "I -4 M 2"
_symmetry_group_IT_number 119
_symmetry_cell_setting 'tetragonal'
loop_
_space_group_symop_operation_xyz
x,y,z
y,-x,-z
-x,-y,z
-y,x,-z
y,x,-z
-y,-x,-z
-x,y,z
x,-y,z
1/2+x,1/2+y,1/2+z
1/2+y,1/2-x,1/2-z
1/2-x,1/2-y,1/2+z
1/2-y,1/2+x,1/2-z
1/2+y,1/2+x,1/2-z
1/2-y,1/2-x,1/2-z
1/2-x,1/2+y,1/2+z
1/2+x,1/2-y,1/2+z
loop_
_atom_site_type_symbol
_atom_site_label
_atom_site_fract_x
_atom_site_fract_y
_atom_site_fract_z
Si Si1 0.179761 0.917196 0.285434
Si Si2 0.680576 0.201637 0.544466
Si Si3 0.914139 0.201294 0.186129
Si Si4 0.082748 0.917253 0.000000
Si Si5 0.913071 0.324975 0.840830
Si Si6 0.915892 0.202490 0.485217
O O1 0.119638 0.846545 0.286323
O O2 0.236475 0.905656 0.187631
O O3 0.230838 0.915608 0.391910
O O4 0.139489 0.000000 0.277753
O O5 0.728144 0.271857 0.500000
O O6 0.634234 0.225633 0.650373
O O7 0.624975 0.167021 0.455967
O O8 0.738622 0.135448 0.581383
O O9 0.907224 0.143797 0.089674
O O10 0.000000 0.225439 0.210896
O O11 0.000000 0.908453 0.946913
O O12 0.875175 0.375175 0.750000
O O13 0.000000 0.350048 0.850849
O O14 0.882019 0.117982 0.500000
O O15 0.000000 0.200100 0.436065
#
# Coordination Sequence:
#
# PCOD8310931 Si02
#       6
#    16  16  16   8  16  16
#     4  10  20  36  57  82 117 158 195 241 295 347
#     4  11  20  35  57  83 116 156 191 235 299 360
#     4  11  20  31  52  85 119 152 192 235 290 359
#     4   9  16  26  42  70 114 156 179 208 268 342
#     4  11  21  35  56  83 119 157 197 240 289 352
#     4  10  23  41  62  84 111 154 203 251 299 351
#
# _framework density 22.298072999999999
#
# number of rings (size 3 to 8) (size 9 to 14) (size 15 to 20)
#    0.000    1.545    4.545    1.091    0.000    5.091 
#    0.000    1.818    0.000    1.636    0.000    0.000 
#    0.000    0.000    0.000    9.455    0.000    0.000 
#
# Total GULP energy -545396.218998 kJ/mol
# GULP energy per Si atom -12395.368614 kJ/mol
# Density = 2.224732 g / cm^3
# Si number density = 22.298073 Si / 1000 Ang^3
#
#
#
# Elastic Constant Matrix: (Units=GPa)
#
#
# Indices 1 2 3 4 5 6 
#
# 1 132.1350 75.0488 17.2065 0.0000 0.0000 0.0000
# 2 75.0488 132.1354 17.2056 0.0000 0.0000 0.0000
# 3 17.2065 17.2056 32.5190 0.0000 0.0000 0.0000
# 4 0.0000 0.0000 0.0000 23.7491 0.0000 0.0000
# 5 0.0000 0.0000 0.0000 0.0000 23.7496 0.0000
# 6 0.0000 0.0000 0.0000 0.0000 0.0000 28.6752
#
#
#
# Elastic Compliance Matrix: (Units=1/GPa)
#
#
# Indices 1 2 3 4 5 6 
#
# 1 0.011405 -0.006113 -0.002800 0.000000 0.000000 0.000000
# 2 -0.006113 0.011404 -0.002800 0.000000 0.000000 0.000000
# 3 -0.002800 -0.002800 0.033714 0.000000 0.000000 0.000000
# 4 0.000000 0.000000 0.000000 0.042107 0.000000 0.000000
# 5 0.000000 0.000000 0.000000 0.000000 0.042106 0.000000
# 6 0.000000 0.000000 0.000000 0.000000 0.000000 0.034873
#
#
# Mechanical properties :
#
#
# Convention : Reuss Voigt Hill
#
# Bulk Modulus (GPa) = 30.21332 57.30124 43.75728
# Shear Modulus (GPa) = 23.80193 27.72334 25.76264
#
# Velocity S-wave (km/s) = 3.27072 3.52988 3.40277
# Velocity P-wave (km/s) = 5.27661 6.50900 5.92493
#
# Compressibility (1/GPa) = 0.03309798
#
# Stress axis : x y z
#
# Youngs Moduli (GPa) = 87.68435 87.68533 29.66120
#
# Poissons Ratio (x) = 0.53600 0.08306
# Poissons Ratio (y) = 0.53600 0.08304
# Poissons Ratio (z) = 0.24553 0.24548
#
# Static dielectric constant tensor:
#      x y z
#    x 4.066830 0.000000 0.000000 
#    y 0.000000 4.066820 0.000000 
#    z 0.000000 0.000000 4.136770 
# 
# 
# High freq. dielectric constant tensor:
#      x y z
#    x 1.864910 0.000000 0.000000 
#    y 0.000000 1.864910 0.000000 
#    z 0.000000 0.000000 1.882190 
# 
# From -- ./inp_files/5411.got.cif
#   From: 2010.03.12/outbox.cif.g09.slc.cpg/sg119_3_cif.got.tgz:5411.got - 2010.04.14 02:25:26.
