data_PCOD8310999
_publ_section_title
;
Structure prediction by ZEFSAII (Michael W. Deem and Ramdas Pophale) SiO2 
 PCOD8310999
Probable space group: I -4 M 2
;
_chemical_formula_sum "Si O2"
_cell_formula_units_Z 48
_cell_length_a 7.905112
_cell_length_b 7.905112
_cell_length_c 37.008018
_cell_angle_alpha 90.000000
_cell_angle_beta 90.000000
_cell_angle_gamma 90.000000
_cell_volume 2312.660493
_symmetry_space_group_name_H-M "I -4 M 2"
_symmetry_group_IT_number 119
_symmetry_cell_setting 'tetragonal'
loop_
_space_group_symop_operation_xyz
x,y,z
y,-x,-z
-x,-y,z
-y,x,-z
y,x,-z
-y,-x,-z
-x,y,z
x,-y,z
1/2+x,1/2+y,1/2+z
1/2+y,1/2-x,1/2-z
1/2-x,1/2-y,1/2+z
1/2-y,1/2+x,1/2-z
1/2+y,1/2+x,1/2-z
1/2-y,1/2-x,1/2-z
1/2-x,1/2+y,1/2+z
1/2+x,1/2-y,1/2+z
loop_
_atom_site_type_symbol
_atom_site_label
_atom_site_fract_x
_atom_site_fract_y
_atom_site_fract_z
Si Si1 0.193588 0.000000 0.867515
Si Si2 0.184089 0.699917 0.674956
Si Si3 0.500000 0.193723 0.553041
Si Si4 0.307997 0.807997 0.750000
Si Si5 0.694850 0.305151 0.000000
O O1 0.279818 0.168828 0.850503
O O2 0.199696 0.000000 0.910613
O O3 0.000000 0.000000 0.855626
O O4 0.198640 0.500000 0.675017
O O5 0.193801 0.764022 0.715864
O O6 0.000000 0.756487 0.659745
O O7 0.671968 0.237455 0.531491
O O8 0.500000 0.000000 0.564446
O O9 0.500000 0.775068 0.738035
O O10 0.500000 0.279225 0.013441
#
# Coordination Sequence:
#
# PCOD8310999 Si02
#       5
#     8  16   8   8   8
#     4  10  22  38  56  86 124 156 198 258 308 365
#     4  10  21  38  58  82 116 158 203 249 308 372
#     4  10  22  38  62  90 120 160 200 249 305 376
#     4  11  22  35  56  84 114 153 206 261 306 364
#     4   9  20  39  60  90 126 157 202 253 300 362
#
# _framework density 20.755313999999998
#
# number of rings (size 3 to 8) (size 9 to 14) (size 15 to 20)
#    0.000    2.000    1.667    1.000    2.333    6.000 
#    0.000    0.000    0.000    0.000    0.000    0.000 
#    0.000    0.000    0.000    0.000    0.000    0.000 
#
# Total GULP energy -297513.717490 kJ/mol
# GULP energy per Si atom -12396.404895 kJ/mol
# Density = 2.070807 g / cm^3
# Si number density = 20.755314 Si / 1000 Ang^3
#
#
#
# Elastic Constant Matrix: (Units=GPa)
#
#
# Indices 1 2 3 4 5 6 
#
# 1 189.1122 -35.7048 51.4257 0.0000 0.0000 0.0000
# 2 -35.7048 189.1131 51.4254 -0.0001 0.0000 0.0000
# 3 51.4257 51.4254 126.3027 0.0000 0.0000 0.0000
# 4 0.0000 -0.0001 0.0000 29.0696 0.0000 0.0000
# 5 0.0000 0.0000 0.0000 0.0000 29.0700 0.0000
# 6 0.0000 0.0000 0.0000 0.0000 0.0000 19.1198
#
#
#
# Elastic Compliance Matrix: (Units=1/GPa)
#
#
# Indices 1 2 3 4 5 6 
#
# 1 0.006707 0.002259 -0.003651 0.000000 0.000000 0.000000
# 2 0.002259 0.006707 -0.003651 0.000000 0.000000 0.000000
# 3 -0.003651 -0.003651 0.010890 0.000000 0.000000 0.000000
# 4 0.000000 0.000000 0.000000 0.034400 0.000000 0.000000
# 5 0.000000 0.000000 0.000000 0.000000 0.034400 0.000000
# 6 0.000000 0.000000 0.000000 0.000000 0.000000 0.052302
#
#
# Mechanical properties :
#
#
# Convention : Reuss Voigt Hill
#
# Bulk Modulus (GPa) = 70.32389 70.98007 70.65198
# Shear Modulus (GPa) = 31.20499 44.61065 37.90782
#
# Velocity S-wave (km/s) = 3.88167 4.64115 4.27829
# Velocity P-wave (km/s) = 7.35158 7.93682 7.64980
#
# Compressibility (1/GPa) = 0.01421992
#
# Stress axis : x y z
#
# Youngs Moduli (GPa) = 149.09553 149.09645 91.82484
#
# Poissons Ratio (x) = -0.33681 0.33522
# Poissons Ratio (y) = -0.33681 0.33522
# Poissons Ratio (z) = 0.54430 0.54430
#
# Static dielectric constant tensor:
#      x y z
#    x 3.984520 0.000000 0.000000 
#    y 0.000000 3.984510 0.000000 
#    z 0.000000 0.000000 3.268610 
# 
# 
# High freq. dielectric constant tensor:
#      x y z
#    x 1.818960 0.000000 0.000000 
#    y 0.000000 1.818960 0.000000 
#    z 0.000000 0.000000 1.788600 
# 
# From -- ./inp_files/9895.got.cif
#   From: 2010.03.12/outbox.cif.g09.slc.cpg/sg119_5_cif.got.tgz:9895.got - 2010.04.14 02:25:26.
