data_PCOD8310762
_publ_section_title
;
Structure prediction by ZEFSAII (Michael W. Deem and Ramdas Pophale) SiO2 
 PCOD8310762
Probable space group: I -4 M 2
;
_chemical_formula_sum "Si O2"
_cell_formula_units_Z 96
_cell_length_a 21.437054
_cell_length_b 21.437054
_cell_length_c 11.646408
_cell_angle_alpha 90.000000
_cell_angle_beta 90.000000
_cell_angle_gamma 90.000000
_cell_volume 5352.075167
_symmetry_space_group_name_H-M "I -4 M 2"
_symmetry_group_IT_number 119
_symmetry_cell_setting 'tetragonal'
loop_
_space_group_symop_operation_xyz
x,y,z
y,-x,-z
-x,-y,z
-y,x,-z
y,x,-z
-y,-x,-z
-x,y,z
x,-y,z
1/2+x,1/2+y,1/2+z
1/2+y,1/2-x,1/2-z
1/2-x,1/2-y,1/2+z
1/2-y,1/2+x,1/2-z
1/2+y,1/2+x,1/2-z
1/2-y,1/2-x,1/2-z
1/2-x,1/2+y,1/2+z
1/2+x,1/2-y,1/2+z
loop_
_atom_site_type_symbol
_atom_site_label
_atom_site_fract_x
_atom_site_fract_y
_atom_site_fract_z
Si Si1 0.334328 0.069309 0.250547
Si Si2 0.279496 0.174931 0.408545
Si Si3 0.245560 0.668369 0.160102
Si Si4 0.070637 0.797607 0.180222
Si Si5 0.756592 0.892849 0.071330
Si Si6 0.571102 0.393533 0.374576
O O1 0.405602 0.094399 0.250000
O O2 0.296723 0.116634 0.330729
O O3 0.301559 0.067357 0.123693
O O4 0.334836 0.000000 0.302354
O O5 0.211202 0.194800 0.368574
O O6 0.287618 0.152905 0.539730
O O7 0.321726 0.237934 0.395334
O O8 0.198522 0.698522 0.250000
O O9 0.268803 0.603169 0.209548
O O10 0.073842 0.873084 0.195358
O O11 0.000000 0.775367 0.179750
O O12 0.101623 0.769280 0.064617
O O13 0.819760 0.915243 0.132167
O O14 0.577018 0.422982 0.500000
O O15 0.500000 0.406280 0.329081
#
# Coordination Sequence:
#
# PCOD8310762 Si02
#       6
#    16  16  16  16  16  16
#     4  10  20  34  52  76 106 138 177 218 267 326
#     4  10  21  33  55  79 105 139 175 221 279 330
#     4  11  20  35  54  78 106 138 178 224 271 321
#     4  11  22  33  51  78 109 143 180 221 267 319
#     4  10  18  33  53  80 105 136 172 221 277 325
#     4  10  19  29  46  72 105 140 170 207 257 310
#
# _framework density 17.936966999999999
#
# number of rings (size 3 to 8) (size 9 to 14) (size 15 to 20)
#    0.000    1.667    1.667    6.500    4.667    2.000 
#    0.000    0.000    0.000    1.000    0.000    0.000 
#    0.000    0.333    0.000    0.000    0.000    0.000 
#
# Total GULP energy -594664.560664 kJ/mol
# GULP energy per Si atom -12388.845014 kJ/mol
# Density = 1.789614 g / cm^3
# Si number density = 17.936967 Si / 1000 Ang^3
#
#
#
# Elastic Constant Matrix: (Units=GPa)
#
#
# Indices 1 2 3 4 5 6 
#
# 1 73.6880 32.4912 17.5476 0.0000 0.0000 0.0000
# 2 32.4912 73.6855 17.5466 0.0000 0.0000 0.0000
# 3 17.5476 17.5466 69.9975 0.0000 0.0000 0.0000
# 4 0.0000 0.0000 0.0000 17.7145 0.0000 0.0000
# 5 0.0000 0.0000 0.0000 0.0000 17.7141 0.0000
# 6 0.0000 0.0000 0.0000 0.0000 0.0000 9.6112
#
#
#
# Elastic Compliance Matrix: (Units=1/GPa)
#
#
# Indices 1 2 3 4 5 6 
#
# 1 0.017271 -0.007003 -0.002574 0.000000 0.000000 0.000000
# 2 -0.007003 0.017272 -0.002574 0.000000 0.000000 0.000000
# 3 -0.002574 -0.002574 0.015577 0.000000 0.000000 0.000000
# 4 0.000000 0.000000 0.000000 0.056451 0.000000 0.000000
# 5 0.000000 0.000000 0.000000 0.000000 0.056452 0.000000
# 6 0.000000 0.000000 0.000000 0.000000 0.000000 0.104045
#
#
# Mechanical properties :
#
#
# Convention : Reuss Voigt Hill
#
# Bulk Modulus (GPa) = 38.73288 39.17131 38.95210
# Shear Modulus (GPa) = 16.66796 18.99367 17.83081
#
# Velocity S-wave (km/s) = 3.05167 3.25762 3.15633
# Velocity P-wave (km/s) = 5.83590 6.00293 5.92000
#
# Compressibility (1/GPa) = 0.02581786
#
# Stress axis : x y z
#
# Youngs Moduli (GPa) = 57.89894 57.89724 64.19778
#
# Poissons Ratio (x) = 0.40544 0.16527
# Poissons Ratio (y) = 0.40545 0.16525
# Poissons Ratio (z) = 0.14905 0.14904
#
# Static dielectric constant tensor:
#      x y z
#    x 3.346500 0.000000 0.000000 
#    y 0.000000 3.346490 0.000000 
#    z 0.000000 0.000000 3.372700 
# 
# 
# High freq. dielectric constant tensor:
#      x y z
#    x 1.686130 0.000000 0.000000 
#    y 0.000000 1.686130 0.000000 
#    z 0.000000 0.000000 1.675060 
# 
# From -- ./inp_files/4202.got.cif
#   From: 2010.03.12/outbox.cif.g09.slc.cpg/sg119_3_cif.got.tgz:4202.got - 2010.04.14 02:25:26.
