data_PCOD8310303
_publ_section_title
;
Structure prediction by ZEFSAII (Michael W. Deem and Ramdas Pophale) SiO2 
 PCOD8310303
Probable space group: P -4 B 2
;
_chemical_formula_sum "Si O2"
_cell_formula_units_Z 40
_cell_length_a 14.399240
_cell_length_b 14.399240
_cell_length_c 9.498409
_cell_angle_alpha 90.000000
_cell_angle_beta 90.000000
_cell_angle_gamma 90.000000
_cell_volume 1969.382195
_symmetry_space_group_name_H-M "P -4 B 2"
_symmetry_group_IT_number 117
_symmetry_cell_setting 'tetragonal'
loop_
_space_group_symop_operation_xyz
x,y,z
y,-x,-z
-x,-y,z
-y,x,-z
1/2+y,1/2+x,-z
1/2-y,1/2-x,-z
1/2-x,1/2+y,z
1/2+x,1/2-y,z
loop_
_atom_site_type_symbol
_atom_site_label
_atom_site_fract_x
_atom_site_fract_y
_atom_site_fract_z
Si Si1 0.247879 0.919604 0.249606
Si Si2 0.555203 0.364795 0.487281
Si Si3 0.106677 0.094623 0.970930
Si Si4 0.225862 0.783395 0.654631
Si Si5 0.204867 0.604905 0.120359
O O1 0.219005 0.957764 0.402355
O O2 0.151565 0.898264 0.172083
O O3 0.305548 0.824304 0.268305
O O4 0.308346 0.997040 0.166193
O O5 0.452874 0.394454 0.436230
O O6 0.619287 0.330339 0.356928
O O7 0.193786 0.127798 0.060477
O O8 0.014766 0.114009 0.065169
O O9 0.241097 0.741097 0.500000
O O10 0.170564 0.703292 0.741625
O O11 0.128699 0.628699 0.000000
#
# Coordination Sequence:
#
# PCOD8310303 Si02
#       5
#     8   8   8   8   8
#     4  10  20  35  53  85 123 162 209 252 313 384
#     4  10  20  32  56  89 124 161 204 265 329 389
#     4   9  19  30  50  81 117 151 188 247 310 373
#     4  10  21  37  54  84 124 163 205 255 321 378
#     4  11  20  36  58  85 122 165 208 256 310 376
#
# _framework density 20.310938
#
# number of rings (size 3 to 8) (size 9 to 14) (size 15 to 20)
#    0.000    2.000    4.000    0.000    2.800    1.600 
#    0.000    0.000    0.000    0.000    0.000   43.400 
#    0.000    0.000    0.000    0.000    0.000    0.000 
#
# Total GULP energy -495733.393215 kJ/mol
# GULP energy per Si atom -12393.334830 kJ/mol
# Density = 2.026471 g / cm^3
# Si number density = 20.310938 Si / 1000 Ang^3
#
#
#
# Elastic Constant Matrix: (Units=GPa)
#
#
# Indices 1 2 3 4 5 6 
#
# 1 92.4168 43.1007 26.2598 0.0000 0.0000 0.0000
# 2 43.1007 92.4168 26.2598 0.0000 0.0000 0.0000
# 3 26.2598 26.2598 65.7761 0.0000 0.0000 0.0000
# 4 0.0000 0.0000 0.0000 28.0901 0.0000 0.0000
# 5 0.0000 0.0000 0.0000 0.0000 28.0901 0.0000
# 6 0.0000 0.0000 0.0000 0.0000 0.0000 26.7091
#
#
#
# Elastic Compliance Matrix: (Units=1/GPa)
#
#
# Indices 1 2 3 4 5 6 
#
# 1 0.014504 -0.005774 -0.003485 0.000000 0.000000 0.000000
# 2 -0.005774 0.014504 -0.003485 0.000000 0.000000 0.000000
# 3 -0.003485 -0.003485 0.017986 0.000000 0.000000 0.000000
# 4 0.000000 0.000000 0.000000 0.035600 0.000000 0.000000
# 5 0.000000 0.000000 0.000000 0.000000 0.035600 0.000000
# 6 0.000000 0.000000 0.000000 0.000000 0.000000 0.037440
#
#
# Mechanical properties :
#
#
# Convention : Reuss Voigt Hill
#
# Bulk Modulus (GPa) = 46.50149 49.09448 47.79798
# Shear Modulus (GPa) = 26.55483 26.91047 26.73265
#
# Velocity S-wave (km/s) = 3.61974 3.64390 3.63184
# Velocity P-wave (km/s) = 6.35724 6.47518 6.41648
#
# Compressibility (1/GPa) = 0.02150469
#
# Stress axis : x y z
#
# Youngs Moduli (GPa) = 68.94844 68.94844 55.59916
#
# Poissons Ratio (x) = 0.39809 0.19377
# Poissons Ratio (y) = 0.39809 0.19377
# Poissons Ratio (z) = 0.24030 0.24030
#
# Static dielectric constant tensor:
#      x y z
#    x 3.631180 0.000000 0.000000 
#    y 0.000000 3.631180 0.000000 
#    z 0.000000 0.000000 3.647570 
# 
# 
# High freq. dielectric constant tensor:
#      x y z
#    x 1.774760 0.000000 0.000000 
#    y 0.000000 1.774760 0.000000 
#    z 0.000000 0.000000 1.791040 
# 
# From -- ./inp_files/1714.got.cif
#   From: 2010.03.12/outbox.cif.g09.slc.cpg/sg117_1_cif.got.tgz:1714.got - 2010.04.14 02:19:01.
