data_PCOD8310748
_publ_section_title
;
Structure prediction by ZEFSAII (Michael W. Deem and Ramdas Pophale) SiO2 
 PCOD8310748
Probable space group: I -4 M 2
;
_chemical_formula_sum "Si O2"
_cell_formula_units_Z 104
_cell_length_a 17.299565
_cell_length_b 17.299565
_cell_length_c 18.457500
_cell_angle_alpha 90.000000
_cell_angle_beta 90.000000
_cell_angle_gamma 90.000000
_cell_volume 5523.867375
_symmetry_space_group_name_H-M "I -4 M 2"
_symmetry_group_IT_number 119
_symmetry_cell_setting 'tetragonal'
loop_
_space_group_symop_operation_xyz
x,y,z
y,-x,-z
-x,-y,z
-y,x,-z
y,x,-z
-y,-x,-z
-x,y,z
x,-y,z
1/2+x,1/2+y,1/2+z
1/2+y,1/2-x,1/2-z
1/2-x,1/2-y,1/2+z
1/2-y,1/2+x,1/2-z
1/2+y,1/2+x,1/2-z
1/2-y,1/2-x,1/2-z
1/2-x,1/2+y,1/2+z
1/2+x,1/2-y,1/2+z
loop_
_atom_site_type_symbol
_atom_site_label
_atom_site_fract_x
_atom_site_fract_y
_atom_site_fract_z
Si Si1 0.755559 0.914341 0.460933
Si Si2 0.714589 0.910553 0.745136
Si Si3 0.414808 0.862816 0.152856
Si Si4 0.231098 0.167901 0.602742
Si Si5 0.909192 0.909192 0.000000
Si Si6 0.195949 0.157257 0.871731
Si Si7 0.916739 0.265920 0.788144
O O1 0.669150 0.911659 0.428262
O O2 0.742056 0.895553 0.544904
O O3 0.811445 0.856700 0.417483
O O4 0.791583 0.000000 0.452880
O O5 0.631413 0.868588 0.750000
O O6 0.764473 0.868279 0.682647
O O7 0.759947 0.905117 0.821622
O O8 0.700977 0.000000 0.726318
O O9 0.500000 0.898876 0.169655
O O10 0.346097 0.922920 0.165562
O O11 0.398479 0.788546 0.205292
O O12 0.285644 0.242677 0.590934
O O13 0.857641 0.884591 0.931021
O O14 0.000000 0.894513 0.983391
O O15 0.146421 0.208170 0.816906
O O16 0.000000 0.225081 0.794630
#
# Coordination Sequence:
#
# PCOD8310748 Si02
#       7
#    16  16  16  16   8  16  16
#     4  10  18  31  52  79 111 143 179 226 276 325
#     4  10  22  39  62  87 112 143 180 228 276 330
#     4   9  18  30  48  75 110 146 182 225 277 327
#     4  10  20  34  57  84 109 143 187 231 272 327
#     4  11  24  40  56  78 112 148 184 233 290 340
#     4  11  21  36  58  81 108 143 191 234 272 331
#     4  10  19  31  51  77 110 149 188 232 274 323
#
# _framework density 18.827389
#
# number of rings (size 3 to 8) (size 9 to 14) (size 15 to 20)
#    0.000    1.923    1.538    3.231    4.308    0.462 
#    0.000    2.308    0.000    9.692    0.000    2.154 
#    0.000    0.000    0.000    0.000    0.000    0.000 
#
# Total GULP energy -644506.697813 kJ/mol
# GULP energy per Si atom -12394.359573 kJ/mol
# Density = 1.878454 g / cm^3
# Si number density = 18.827389 Si / 1000 Ang^3
#
#
#
# Elastic Constant Matrix: (Units=GPa)
#
#
# Indices 1 2 3 4 5 6 
#
# 1 93.4971 37.7333 34.5514 0.0000 0.0000 0.0000
# 2 37.7333 93.4960 34.5501 0.0000 0.0000 0.0000
# 3 34.5514 34.5501 92.1331 0.0000 0.0000 0.0000
# 4 0.0000 0.0000 0.0000 24.9966 0.0000 0.0000
# 5 0.0000 0.0000 0.0000 0.0000 24.9970 0.0000
# 6 0.0000 0.0000 0.0000 0.0000 0.0000 15.0409
#
#
#
# Elastic Compliance Matrix: (Units=1/GPa)
#
#
# Indices 1 2 3 4 5 6 
#
# 1 0.013714 -0.004219 -0.003561 0.000000 0.000000 0.000000
# 2 -0.004219 0.013714 -0.003561 0.000000 0.000000 0.000000
# 3 -0.003561 -0.003561 0.013525 0.000000 0.000000 0.000000
# 4 0.000000 0.000000 0.000000 0.040005 0.000000 0.000000
# 5 0.000000 0.000000 0.000000 0.000000 0.040005 0.000000
# 6 0.000000 0.000000 0.000000 0.000000 0.000000 0.066485
#
#
# Mechanical properties :
#
#
# Convention : Reuss Voigt Hill
#
# Bulk Modulus (GPa) = 54.72917 54.75507 54.74212
# Shear Modulus (GPa) = 23.12461 24.49300 23.80880
#
# Velocity S-wave (km/s) = 3.50843 3.61074 3.55996
# Velocity P-wave (km/s) = 6.74864 6.82122 6.78503
#
# Compressibility (1/GPa) = 0.01827179
#
# Stress axis : x y z
#
# Youngs Moduli (GPa) = 72.91778 72.91768 73.93978
#
# Poissons Ratio (x) = 0.30763 0.26329
# Poissons Ratio (y) = 0.30763 0.26327
# Poissons Ratio (z) = 0.25965 0.25964
#
# Static dielectric constant tensor:
#      x y z
#    x 3.372760 0.000000 0.000000 
#    y 0.000000 3.372760 0.000000 
#    z 0.000000 0.000000 3.568610 
# 
# 
# High freq. dielectric constant tensor:
#      x y z
#    x 1.720450 0.000000 0.000000 
#    y 0.000000 1.720450 0.000000 
#    z 0.000000 0.000000 1.737840 
# 
# From -- ./inp_files/6755.got.cif
#   From: 2010.03.12/outbox.cif.g09.slc.cpg/sg119_4_cif.got.tgz:6755.got - 2010.04.14 02:25:26.
