data_PCOD8310127
_publ_section_title
;
Structure prediction by ZEFSAII (Michael W. Deem and Ramdas Pophale) SiO2 
 PCOD8310127
Probable space group: P -4 C 2
;
_chemical_formula_sum "Si O2"
_cell_formula_units_Z 64
_cell_length_a 21.473495
_cell_length_b 21.473495
_cell_length_c 8.990699
_cell_angle_alpha 90.000000
_cell_angle_beta 90.000000
_cell_angle_gamma 90.000000
_cell_volume 4145.710094
_symmetry_space_group_name_H-M "P -4 C 2"
_symmetry_group_IT_number 116
_symmetry_cell_setting 'tetragonal'
loop_
_space_group_symop_operation_xyz
x,y,z
y,-x,-z
-x,-y,z
-y,x,-z
y,x,1/2-z
-y,-x,1/2-z
-x,y,1/2+z
x,-y,1/2+z
loop_
_atom_site_type_symbol
_atom_site_label
_atom_site_fract_x
_atom_site_fract_y
_atom_site_fract_z
Si Si1 0.918051 0.466744 0.975045
Si Si2 0.484418 0.709909 0.042515
Si Si3 0.317229 0.706233 0.411763
Si Si4 0.217962 0.629549 0.578529
Si Si5 0.603298 0.206456 0.585077
Si Si6 0.587866 0.003310 0.270966
Si Si7 0.560409 0.641486 0.824156
Si Si8 0.913971 0.388414 0.481003
O O1 0.860445 0.420080 0.965635
O O2 0.897627 0.538122 0.974603
O O3 0.963787 0.455480 0.838354
O O4 0.953694 0.456059 0.128559
O O5 0.439341 0.755940 0.953979
O O6 0.547414 0.744791 0.082671
O O7 0.451021 0.691256 0.193947
O O8 0.503618 0.648588 0.941865
O O9 0.285515 0.714486 0.250000
O O10 0.267456 0.681288 0.530456
O O11 0.343329 0.772308 0.469022
O O12 0.374069 0.657045 0.403925
O O13 0.204303 0.634022 0.752935
O O14 0.153102 0.644373 0.492750
O O15 0.631612 0.048566 0.168791
O O16 0.628277 0.957180 0.375712
O O17 0.572082 0.572082 0.750000
#
# Coordination Sequence:
#
# PCOD8310127 Si02
#       8
#     8   8   8   8   8   8   8   8
#     4  11  19  31  46  67  96 125 159 184 227 273
#     4  11  20  33  52  71  90 108 147 179 230 293
#     4  10  22  37  52  70  94 109 145 196 248 283
#     4  12  21  34  50  75  93 119 151 193 238 288
#     4  11  23  33  51  73  93 118 152 194 236 292
#     4  10  21  32  42  67  99 133 153 187 221 263
#     4  10  20  36  52  71  84 110 132 184 235 293
#     4  11  20  30  49  67 100 127 159 186 223 279
#
# _framework density 15.437645
#
# number of rings (size 3 to 8) (size 9 to 14) (size 15 to 20)
#    0.000    1.250    6.250    3.375    1.750    0.000 
#    0.000    0.625    0.000    1.125    0.000    0.000 
#    0.000    0.000    0.000    0.000    0.000    0.000 
#
# Total GULP energy -793202.921127 kJ/mol
# GULP energy per Si atom -12393.795643 kJ/mol
# Density = 1.540251 g / cm^3
# Si number density = 15.437645 Si / 1000 Ang^3
#
#
#
# Elastic Constant Matrix: (Units=GPa)
#
#
# Indices 1 2 3 4 5 6 
#
# 1 61.5266 34.0614 26.8511 0.0000 0.0000 0.0000
# 2 34.0614 61.5265 26.8511 0.0000 0.0000 0.0000
# 3 26.8511 26.8511 83.2936 0.0000 0.0000 0.0000
# 4 0.0000 0.0000 0.0000 29.2670 0.0000 0.0000
# 5 0.0000 0.0000 0.0000 0.0000 29.2671 0.0000
# 6 0.0000 0.0000 0.0000 0.0000 0.0000 11.8654
#
#
#
# Elastic Compliance Matrix: (Units=1/GPa)
#
#
# Indices 1 2 3 4 5 6 
#
# 1 0.024593 -0.011817 -0.004118 0.000000 0.000000 0.000000
# 2 -0.011817 0.024593 -0.004118 0.000000 0.000000 0.000000
# 3 -0.004118 -0.004118 0.014661 0.000000 0.000000 0.000000
# 4 0.000000 0.000000 0.000000 0.034168 0.000000 0.000000
# 5 0.000000 0.000000 0.000000 0.000000 0.034168 0.000000
# 6 0.000000 0.000000 0.000000 0.000000 0.000000 0.084279
#
#
# Mechanical properties :
#
#
# Convention : Reuss Voigt Hill
#
# Bulk Modulus (GPa) = 42.12617 42.43042 42.27829
# Shear Modulus (GPa) = 18.90490 21.98542 20.44516
#
# Velocity S-wave (km/s) = 3.50322 3.77788 3.64314
# Velocity P-wave (km/s) = 6.61140 6.82455 6.71882
#
# Compressibility (1/GPa) = 0.02373821
#
# Stress axis : x y z
#
# Youngs Moduli (GPa) = 40.66278 40.66274 68.20836
#
# Poissons Ratio (x) = 0.48052 0.28090
# Poissons Ratio (y) = 0.48052 0.28091
# Poissons Ratio (z) = 0.16746 0.16746
#
# Static dielectric constant tensor:
#      x y z
#    x 2.860990 0.000000 0.000000 
#    y 0.000000 2.860990 0.000000 
#    z 0.000000 0.000000 3.323530 
# 
# 
# High freq. dielectric constant tensor:
#      x y z
#    x 1.552520 0.000000 0.000000 
#    y 0.000000 1.552520 0.000000 
#    z 0.000000 0.000000 1.619430 
# 
# From -- ./inp_files/1141.got.cif
#   From: 2010.03.12/outbox.cif.g09.slc.cpg/sg116_1_cif.got.tgz:1141.got - 2010.04.14 02:15:44.
