data_PCOD8310184
_publ_section_title
;
Structure prediction by ZEFSAII (Michael W. Deem and Ramdas Pophale) SiO2 
 PCOD8310184
Probable space group: P -4 C 2
;
_chemical_formula_sum "Si O2"
_cell_formula_units_Z 40
_cell_length_a 8.753959
_cell_length_b 8.753959
_cell_length_c 24.062421
_cell_angle_alpha 90.000000
_cell_angle_beta 90.000000
_cell_angle_gamma 90.000000
_cell_volume 1843.946590
_symmetry_space_group_name_H-M "P -4 C 2"
_symmetry_group_IT_number 116
_symmetry_cell_setting 'tetragonal'
loop_
_space_group_symop_operation_xyz
x,y,z
y,-x,-z
-x,-y,z
-y,x,-z
y,x,1/2-z
-y,-x,1/2-z
-x,y,1/2+z
x,-y,1/2+z
loop_
_atom_site_type_symbol
_atom_site_label
_atom_site_fract_x
_atom_site_fract_y
_atom_site_fract_z
Si Si1 0.906890 0.263825 0.704362
Si Si2 0.673227 0.460127 0.084476
Si Si3 0.774794 0.844482 0.416725
Si Si4 0.089074 0.343464 0.506486
Si Si5 0.592578 0.235080 0.296127
O O1 0.860137 0.139864 0.750000
O O2 0.883193 0.175846 0.645786
O O3 0.801914 0.413917 0.710979
O O4 0.083266 0.307274 0.710628
O O5 0.500000 0.500000 0.069646
O O6 0.779949 0.605717 0.088068
O O7 0.742447 0.357800 0.034505
O O8 0.687252 0.374839 0.143815
O O9 0.890259 0.724503 0.444779
O O10 0.772196 0.995839 0.454499
O O11 0.000000 0.500000 0.498490
O O12 0.642017 0.357984 0.250000
#
# Coordination Sequence:
#
# PCOD8310184 Si02
#       5
#     8   8   8   8   8
#     4  10  22  44  64  91 135 173 211 272 332 380
#     4  10  22  37  66  97 128 164 218 276 331 383
#     4  10  22  42  65  90 133 174 210 272 334 391
#     4  10  22  42  64  94 134 170 219 270 333 400
#     4  10  22  41  64  94 126 170 220 271 322 389
#
# _framework density 21.692602999999998
#
# number of rings (size 3 to 8) (size 9 to 14) (size 15 to 20)
#    0.000    2.000    2.000    0.000   11.200    0.800 
#    7.200    2.000    0.000    0.000    0.000    0.000 
#    0.000    0.000    0.000    0.000    0.000    0.000 
#
# Total GULP energy -496031.935740 kJ/mol
# GULP energy per Si atom -12400.798394 kJ/mol
# Density = 2.164323 g / cm^3
# Si number density = 21.692603 Si / 1000 Ang^3
#
#
#
# Elastic Constant Matrix: (Units=GPa)
#
#
# Indices 1 2 3 4 5 6 
#
# 1 78.5155 22.0315 46.1679 0.0000 0.0000 0.0000
# 2 22.0315 78.5155 46.1677 0.0000 0.0000 0.0000
# 3 46.1679 46.1677 157.8786 0.0000 0.0000 0.0000
# 4 0.0000 0.0000 0.0000 12.5816 0.0000 0.0000
# 5 0.0000 0.0000 0.0000 0.0000 12.5814 0.0000
# 6 0.0000 0.0000 0.0000 0.0000 0.0000 30.8652
#
#
#
# Elastic Compliance Matrix: (Units=1/GPa)
#
#
# Indices 1 2 3 4 5 6 
#
# 1 0.015651 -0.002054 -0.003976 0.000000 0.000000 0.000000
# 2 -0.002054 0.015651 -0.003976 0.000000 0.000000 0.000000
# 3 -0.003976 -0.003976 0.008659 0.000000 0.000000 0.000000
# 4 0.000000 0.000000 0.000000 0.079481 0.000000 0.000000
# 5 0.000000 0.000000 0.000000 0.000000 0.079482 0.000000
# 6 0.000000 0.000000 0.000000 0.000000 0.000000 0.032399
#
#
# Mechanical properties :
#
#
# Convention : Reuss Voigt Hill
#
# Bulk Modulus (GPa) = 50.12799 60.40489 55.26644
# Shear Modulus (GPa) = 19.38104 24.57516 21.97810
#
# Velocity S-wave (km/s) = 2.99229 3.36948 3.18647
# Velocity P-wave (km/s) = 5.92426 6.56081 6.25064
#
# Compressibility (1/GPa) = 0.01994894
#
# Stress axis : x y z
#
# Youngs Moduli (GPa) = 63.89548 63.89554 115.48124
#
# Poissons Ratio (x) = 0.13121 0.45917
# Poissons Ratio (y) = 0.13121 0.45917
# Poissons Ratio (z) = 0.25406 0.25406
#
# Static dielectric constant tensor:
#      x y z
#    x 3.749580 0.000000 0.000000 
#    y 0.000000 3.749580 0.000000 
#    z 0.000000 0.000000 4.144730 
# 
# 
# High freq. dielectric constant tensor:
#      x y z
#    x 1.841510 0.000000 0.000000 
#    y 0.000000 1.841510 0.000000 
#    z 0.000000 0.000000 1.862980 
# 
# From -- ./inp_files/4434.got.cif
#   From: 2010.03.12/outbox.cif.g09.slc.cpg/sg116_3_cif.got.tgz:4434.got - 2010.04.14 02:15:44.
