data_PCOD8310635
_publ_section_title
;
Structure prediction by ZEFSAII (Michael W. Deem and Ramdas Pophale) SiO2 
 PCOD8310635
Probable space group: P -4 N 2
;
_chemical_formula_sum "Si O2"
_cell_formula_units_Z 48
_cell_length_a 9.336012
_cell_length_b 9.336012
_cell_length_c 30.934772
_cell_angle_alpha 90.000000
_cell_angle_beta 90.000000
_cell_angle_gamma 90.000000
_cell_volume 2696.309376
_symmetry_space_group_name_H-M "P -4 N 2"
_symmetry_group_IT_number 118
_symmetry_cell_setting 'tetragonal'
loop_
_space_group_symop_operation_xyz
x,y,z
y,-x,-z
-x,-y,z
-y,x,-z
1/2+y,1/2+x,1/2-z
1/2-y,1/2-x,1/2-z
1/2-x,1/2+y,1/2+z
1/2+x,1/2-y,1/2+z
loop_
_atom_site_type_symbol
_atom_site_label
_atom_site_fract_x
_atom_site_fract_y
_atom_site_fract_z
Si Si1 0.833515 0.666486 0.250000
Si Si2 0.666484 0.833517 0.750000
Si Si3 0.170024 0.158182 0.169627
Si Si4 0.834214 0.831406 0.073034
Si Si5 0.668014 0.331988 1.000000
Si Si6 0.665784 0.668596 0.573034
Si Si7 0.658184 0.329977 0.330373
O O1 0.800494 0.500001 0.245336
O O2 0.768201 0.738892 0.206918
O O3 0.731797 0.761112 0.706918
O O4 0.212651 0.211658 0.121761
O O5 0.000000 0.153064 0.171983
O O6 0.233146 0.999999 0.177736
O O7 0.733551 0.740468 0.042255
O O8 0.999999 0.792108 0.064307
O O9 0.810641 0.000001 0.065074
O O10 0.500001 0.299425 0.998555
O O11 0.733554 0.259535 0.042255
O O12 0.712649 0.711660 0.621761
#
# Coordination Sequence:
#
# PCOD8310635 Si02
#       7
#     4   4   8   8   8   8   8
#     4   9  16  26  44  71  98 124 158 195 228 270
#     4   9  16  26  44  71  98 124 158 195 228 270
#     4   8  15  29  48  70  96 124 155 194 237 279
#     4   9  18  34  56  77  95 123 167 209 242 285
#     4  11  24  37  48  70 104 133 158 195 246 300
#     4   9  18  34  56  77  95 123 167 209 242 285
#     4   8  15  29  48  70  96 124 155 194 237 279
#
# _framework density 17.802111
#
# number of rings (size 3 to 8) (size 9 to 14) (size 15 to 20)
#    0.000    3.000    0.000    3.000    0.000    5.333 
#    0.000    5.000    0.000    6.500    0.000    0.000 
#    0.000    0.000    0.000    0.000    0.000    0.000 
#
# Total GULP energy -594978.605018 kJ/mol
# GULP energy per Si atom -12395.387605 kJ/mol
# Density = 1.776159 g / cm^3
# Si number density = 17.802111 Si / 1000 Ang^3
#
#
#
# Elastic Constant Matrix: (Units=GPa)
#
#
# Indices 1 2 3 4 5 6 
#
# 1 69.0583 50.5360 73.5876 0.0000 0.0000 0.0000
# 2 50.5360 69.0583 73.5876 0.0000 0.0000 0.0000
# 3 73.5876 73.5876 188.5199 0.0000 0.0000 0.0000
# 4 0.0000 0.0000 0.0000 31.1708 0.0000 0.0000
# 5 0.0000 0.0000 0.0000 0.0000 31.1708 0.0000
# 6 0.0000 0.0000 0.0000 0.0000 0.0000 21.8451
#
#
#
# Elastic Compliance Matrix: (Units=1/GPa)
#
#
# Indices 1 2 3 4 5 6 
#
# 1 0.035040 -0.018949 -0.006281 0.000000 0.000000 0.000000
# 2 -0.018949 0.035040 -0.006281 0.000000 0.000000 0.000000
# 3 -0.006281 -0.006281 0.010208 0.000000 0.000000 0.000000
# 4 0.000000 0.000000 0.000000 0.032081 0.000000 0.000000
# 5 0.000000 0.000000 0.000000 0.000000 0.032081 0.000000
# 6 0.000000 0.000000 0.000000 0.000000 0.000000 0.045777
#
#
# Mechanical properties :
#
#
# Convention : Reuss Voigt Hill
#
# Bulk Modulus (GPa) = 57.91689 80.22877 69.07283
# Shear Modulus (GPa) = 19.30462 25.43237 22.36849
#
# Velocity S-wave (km/s) = 3.29660 3.78380 3.54857
# Velocity P-wave (km/s) = 6.86254 8.01588 7.46153
#
# Compressibility (1/GPa) = 0.01726612
#
# Stress axis : x y z
#
# Youngs Moduli (GPa) = 28.53871 28.53871 97.96163
#
# Poissons Ratio (x) = 0.54078 0.61531
# Poissons Ratio (y) = 0.54078 0.61531
# Poissons Ratio (z) = 0.17926 0.17926
#
# Static dielectric constant tensor:
#      x y z
#    x 3.168290 0.000000 0.000000 
#    y 0.000000 3.168290 0.000000 
#    z 0.000000 0.000000 3.740280 
# 
# 
# High freq. dielectric constant tensor:
#      x y z
#    x 1.665390 0.000000 0.000000 
#    y 0.000000 1.665390 0.000000 
#    z 0.000000 0.000000 1.708790 
# 
# From -- ./inp_files/6912.got.cif
#   From: 2010.03.12/outbox.cif.g09.slc.cpg/sg118_4_cif.got.tgz:6912.got - 2010.04.14 02:21:17.
