data_PCOD8310020
_publ_section_title
;
Structure prediction by ZEFSAII (Michael W. Deem and Ramdas Pophale) SiO2 
 PCOD8310020
Probable space group: P -4 M 2
;
_chemical_formula_sum "Si O2"
_cell_formula_units_Z 40
_cell_length_a 9.607579
_cell_length_b 9.607579
_cell_length_c 25.855329
_cell_angle_alpha 90.000000
_cell_angle_beta 90.000000
_cell_angle_gamma 90.000000
_cell_volume 2386.590991
_symmetry_space_group_name_H-M "P -4 M 2"
_symmetry_group_IT_number 115
_symmetry_cell_setting 'tetragonal'
loop_
_space_group_symop_operation_xyz
x,y,z
y,-x,-z
-x,-y,z
-y,x,-z
y,x,-z
-y,-x,-z
-x,y,z
x,-y,z
loop_
_atom_site_type_symbol
_atom_site_label
_atom_site_fract_x
_atom_site_fract_y
_atom_site_fract_z
Si Si1 0.338875 0.660765 0.304079
Si Si2 0.660901 0.160866 0.597843
Si Si3 0.160959 0.160959 0.500000
Si Si4 0.842572 0.166232 0.110769
Si Si5 0.838184 0.838184 0.000000
Si Si6 0.338550 0.838321 0.205969
O O1 0.500000 0.687493 0.316976
O O2 0.310106 0.500000 0.290671
O O3 0.250294 0.709774 0.353216
O O4 0.289264 0.752582 0.255787
O O5 0.500000 0.188289 0.584738
O O6 0.750192 0.210794 0.548983
O O7 0.689526 0.000000 0.610798
O O8 0.000000 0.189163 0.512807
O O9 0.778501 0.219673 0.055024
O O10 0.745661 0.221088 0.156875
O O11 0.000000 0.220989 0.119784
O O12 0.843274 0.000000 0.109473
O O13 0.000000 0.807511 0.004386
O O14 0.500000 0.813147 0.194203
O O15 0.305873 0.000000 0.216286
#
# Coordination Sequence:
#
# PCOD8310020 Si02
#       6
#     8   8   4   8   4   8
#     4   9  18  32  47  62  83 113 145 173 205 248
#     4   9  18  32  48  66  88 113 141 173 208 244
#     4   9  18  32  48  67  92 118 140 165 204 252
#     4   8  13  22  38  60  83 107 137 171 206 247
#     4   7  10  18  34  56  80 105 134 168 204 243
#     4   9  17  28  42  62  86 109 136 173 213 248
#
# _framework density 16.76031
#
# number of rings (size 3 to 8) (size 9 to 14) (size 15 to 20)
#    0.000    3.400    0.000    1.200    0.000    2.400 
#    0.000    0.000    0.000    1.200    0.000    2.800 
#    0.000    0.000    0.000    0.000    0.000    0.000 
#
# Total GULP energy -495727.376418 kJ/mol
# GULP energy per Si atom -12393.184410 kJ/mol
# Density = 1.672216 g / cm^3
# Si number density = 16.760310 Si / 1000 Ang^3
#
#
#
# Elastic Constant Matrix: (Units=GPa)
#
#
# Indices 1 2 3 4 5 6 
#
# 1 49.2426 28.7718 71.2118 0.0000 0.0000 0.0000
# 2 28.7718 49.2426 71.2118 0.0000 0.0000 0.0000
# 3 71.2118 71.2118 203.5430 0.0000 0.0000 0.0000
# 4 0.0000 0.0000 0.0000 10.0693 0.0000 0.0000
# 5 0.0000 0.0000 0.0000 0.0000 10.0693 0.0000
# 6 0.0000 0.0000 0.0000 0.0000 0.0000 15.1799
#
#
#
# Elastic Compliance Matrix: (Units=1/GPa)
#
#
# Indices 1 2 3 4 5 6 
#
# 1 0.042164 -0.006686 -0.012413 0.000000 0.000000 0.000000
# 2 -0.006686 0.042164 -0.012413 0.000000 0.000000 0.000000
# 3 -0.012413 -0.012413 0.013598 0.000000 0.000000 0.000000
# 4 0.000000 0.000000 0.000000 0.099311 0.000000 0.000000
# 5 0.000000 0.000000 0.000000 0.000000 0.099311 0.000000
# 6 0.000000 0.000000 0.000000 0.000000 0.000000 0.065877
#
#
# Mechanical properties :
#
#
# Convention : Reuss Voigt Hill
#
# Bulk Modulus (GPa) = 28.64898 71.60213 50.12556
# Shear Modulus (GPa) = 11.43947 15.78590 13.61269
#
# Velocity S-wave (km/s) = 2.61537 3.07231 2.85300
# Velocity P-wave (km/s) = 5.12354 7.44308 6.38945
#
# Compressibility (1/GPa) = 0.03490525
#
# Stress axis : x y z
#
# Youngs Moduli (GPa) = 23.71671 23.71671 73.53825
#
# Poissons Ratio (x) = 0.15856 0.91280
# Poissons Ratio (y) = 0.15856 0.91280
# Poissons Ratio (z) = 0.29439 0.29439
#
# Static dielectric constant tensor:
#      x y z
#    x 2.964290 0.000000 0.000000 
#    y 0.000000 2.964290 0.000000 
#    z 0.000000 0.000000 3.470480 
# 
# 
# High freq. dielectric constant tensor:
#      x y z
#    x 1.619630 0.000000 0.000000 
#    y 0.000000 1.619630 0.000000 
#    z 0.000000 0.000000 1.661330 
# 
# From -- ./inp_files/5524.got.cif
#   From: 2010.03.12/outbox.cif.g09.slc.cpg/sg115_3_cif.got.tgz:5524.got - 2010.04.14 02:11:21.
