data_PCOD8310915
_publ_section_title
;
Structure prediction by ZEFSAII (Michael W. Deem and Ramdas Pophale) SiO2 
 PCOD8310915
Probable space group: I -4 M 2
;
_chemical_formula_sum "Si O2"
_cell_formula_units_Z 88
_cell_length_a 18.190580
_cell_length_b 18.190580
_cell_length_c 13.095601
_cell_angle_alpha 90.000000
_cell_angle_beta 90.000000
_cell_angle_gamma 90.000000
_cell_volume 4333.297713
_symmetry_space_group_name_H-M "I -4 M 2"
_symmetry_group_IT_number 119
_symmetry_cell_setting 'tetragonal'
loop_
_space_group_symop_operation_xyz
x,y,z
y,-x,-z
-x,-y,z
-y,x,-z
y,x,-z
-y,-x,-z
-x,y,z
x,-y,z
1/2+x,1/2+y,1/2+z
1/2+y,1/2-x,1/2-z
1/2-x,1/2-y,1/2+z
1/2-y,1/2+x,1/2-z
1/2+y,1/2+x,1/2-z
1/2-y,1/2-x,1/2-z
1/2-x,1/2+y,1/2+z
1/2+x,1/2-y,1/2+z
loop_
_atom_site_type_symbol
_atom_site_label
_atom_site_fract_x
_atom_site_fract_y
_atom_site_fract_z
Si Si1 0.419984 0.308737 0.046651
Si Si2 0.646685 0.146685 0.750000
Si Si3 0.413922 0.315761 0.276150
Si Si4 0.581028 0.153512 0.960082
Si Si5 0.291759 0.416911 0.330796
Si Si6 0.855325 0.741758 0.970073
O O1 0.500000 0.346070 0.051636
O O2 0.398432 0.284934 0.162171
O O3 0.366392 0.366392 0.000000
O O4 0.421608 0.240938 0.969439
O O5 0.591688 0.128582 0.842937
O O6 0.637393 0.230954 0.716697
O O7 0.500000 0.326334 0.298579
O O8 0.372444 0.393709 0.291356
O O9 0.376906 0.258783 0.354294
O O10 0.500000 0.122036 0.996863
O O11 0.653728 0.130536 0.022928
O O12 0.276896 0.500000 0.296287
O O13 0.285493 0.409966 0.453679
O O14 0.771941 0.771941 0.000000
#
# Coordination Sequence:
#
# PCOD8310915 Si02
#       6
#    16   8  16  16  16  16
#     4  10  21  35  52  78 111 145 184 230 282 341
#     4  10  20  34  56  83 114 150 188 233 286 346
#     4  10  21  36  56  84 117 154 193 238 292 350
#     4  10  20  35  56  82 112 146 187 237 287 337
#     4  10  20  35  57  84 115 153 195 240 290 346
#     4   9  19  35  57  84 116 154 196 242 291 348
#
# _framework density 20.307858
#
# number of rings (size 3 to 8) (size 9 to 14) (size 15 to 20)
#    0.000    2.182    0.000    2.727    0.000    6.364 
#    0.000    1.818    0.000   31.636    0.000    1.273 
#    0.000   29.091    0.000    0.000    0.000    0.000 
#
# Total GULP energy -545148.552041 kJ/mol
# GULP energy per Si atom -12389.739819 kJ/mol
# Density = 2.026164 g / cm^3
# Si number density = 20.307858 Si / 1000 Ang^3
#
#
#
# Elastic Constant Matrix: (Units=GPa)
#
#
# Indices 1 2 3 4 5 6 
#
# 1 107.0563 45.5485 46.2793 0.0000 0.0000 0.0000
# 2 45.5485 107.0563 46.2793 0.0000 0.0000 0.0000
# 3 46.2793 46.2793 107.4097 0.0000 0.0000 0.0000
# 4 0.0000 0.0000 0.0000 23.9637 0.0000 0.0000
# 5 0.0000 0.0000 0.0000 0.0000 23.9637 0.0000
# 6 0.0000 0.0000 0.0000 0.0000 0.0000 15.4557
#
#
#
# Elastic Compliance Matrix: (Units=1/GPa)
#
#
# Indices 1 2 3 4 5 6 
#
# 1 0.012565 -0.003693 -0.003822 0.000000 0.000000 0.000000
# 2 -0.003693 0.012565 -0.003822 0.000000 0.000000 0.000000
# 3 -0.003822 -0.003822 0.012604 0.000000 0.000000 0.000000
# 4 0.000000 0.000000 0.000000 0.041730 0.000000 0.000000
# 5 0.000000 0.000000 0.000000 0.000000 0.041730 0.000000
# 6 0.000000 0.000000 0.000000 0.000000 0.000000 0.064701
#
#
# Mechanical properties :
#
#
# Convention : Reuss Voigt Hill
#
# Bulk Modulus (GPa) = 66.41373 66.41516 66.41444
# Shear Modulus (GPa) = 23.40942 24.90428 24.15685
#
# Velocity S-wave (km/s) = 3.39887 3.50571 3.45270
# Velocity P-wave (km/s) = 6.94100 7.01155 6.97637
#
# Compressibility (1/GPa) = 0.01505713
#
# Stress axis : x y z
#
# Youngs Moduli (GPa) = 79.58833 79.58833 79.34018
#
# Poissons Ratio (x) = 0.29396 0.30326
# Poissons Ratio (y) = 0.29396 0.30326
# Poissons Ratio (z) = 0.30421 0.30421
#
# Static dielectric constant tensor:
#      x y z
#    x 3.657450 0.000000 0.000000 
#    y 0.000000 3.657450 0.000000 
#    z 0.000000 0.000000 3.957090 
# 
# 
# High freq. dielectric constant tensor:
#      x y z
#    x 1.778810 0.000000 0.000000 
#    y 0.000000 1.778810 0.000000 
#    z 0.000000 0.000000 1.801910 
# 
# From -- ./inp_files/5383.got.cif
#   From: 2010.03.12/outbox.cif.g09.slc.cpg/sg119_3_cif.got.tgz:5383.got - 2010.04.14 02:25:26.
