data_PCOD8310305
_publ_section_title
;
Structure prediction by ZEFSAII (Michael W. Deem and Ramdas Pophale) SiO2 
 PCOD8310305
Probable space group: P -4 B 2
;
_chemical_formula_sum "Si O2"
_cell_formula_units_Z 58
_cell_length_a 17.873180
_cell_length_b 17.873180
_cell_length_c 9.419954
_cell_angle_alpha 90.000000
_cell_angle_beta 90.000000
_cell_angle_gamma 90.000000
_cell_volume 3009.209612
_symmetry_space_group_name_H-M "P -4 B 2"
_symmetry_group_IT_number 117
_symmetry_cell_setting 'tetragonal'
loop_
_space_group_symop_operation_xyz
x,y,z
y,-x,-z
-x,-y,z
-y,x,-z
1/2+y,1/2+x,-z
1/2-y,1/2-x,-z
1/2-x,1/2+y,z
1/2+x,1/2-y,z
loop_
_atom_site_type_symbol
_atom_site_label
_atom_site_fract_x
_atom_site_fract_y
_atom_site_fract_z
Si Si1 0.322257 0.567698 0.635478
Si Si2 0.916257 0.311903 0.576962
Si Si3 0.388555 0.365221 0.071422
Si Si4 0.000000 0.000000 0.000000
Si Si5 0.667407 0.223363 0.865914
Si Si6 0.096184 0.173274 0.446057
Si Si7 0.825864 0.583966 0.404444
Si Si8 0.715230 0.338407 0.203334
O O1 0.248292 0.586929 0.548803
O O2 0.312259 0.578807 0.804149
O O3 0.349579 0.484799 0.606766
O O4 0.387366 0.622805 0.583057
O O5 0.884953 0.384953 0.500000
O O6 0.872558 0.287608 0.718879
O O7 0.997942 0.328190 0.636324
O O8 0.299904 0.379654 0.105065
O O9 0.438569 0.443032 0.073574
O O10 0.389711 0.315980 0.926729
O O11 0.632197 0.177276 0.737940
O O12 0.755451 0.240640 0.840346
O O13 0.666644 0.166644 0.000000
O O14 0.104932 0.257969 0.493047
O O15 0.149072 0.159273 0.314903
O O16 0.898151 0.601850 0.500000
#
# Coordination Sequence:
#
# PCOD8310305 Si02
#       8
#     8   8   8   2   8   8   8   8
#     4  10  21  36  57  81 123 160 218 254 304 373
#     4  10  23  39  62  92 119 155 199 265 324 373
#     4  11  23  38  56  86 125 174 211 247 310 371
#     4  12  28  36  56  86 148 176 188 258 312 388
#     4  10  21  38  65  89 119 162 219 258 296 368
#     4  10  20  34  54  84 115 161 203 256 307 367
#     4  11  21  38  63  89 117 158 200 264 322 371
#     4  10  21  38  62  88 119 162 214 259 304 365
#
# _framework density 19.274165
#
# number of rings (size 3 to 8) (size 9 to 14) (size 15 to 20)
#    0.000    1.655    2.759    1.655    3.862    2.759 
#    0.000    0.000    0.000    0.000    0.000    0.966 
#    0.000    0.000    0.000    0.000    0.000    0.000 
#
# Total GULP energy -718624.761075 kJ/mol
# GULP energy per Si atom -12390.082087 kJ/mol
# Density = 1.923030 g / cm^3
# Si number density = 19.274165 Si / 1000 Ang^3
#
#
#
# Elastic Constant Matrix: (Units=GPa)
#
#
# Indices 1 2 3 4 5 6 
#
# 1 62.5173 49.5141 45.5882 0.0000 0.0000 0.0000
# 2 49.5141 62.5219 45.5865 0.0000 0.0000 0.0000
# 3 45.5882 45.5865 117.5383 0.0000 0.0000 0.0000
# 4 0.0000 0.0000 0.0000 2.4342 0.0000 0.0000
# 5 0.0000 0.0000 0.0000 0.0000 2.4334 0.0000
# 6 0.0000 0.0000 0.0000 0.0000 0.0000 29.1662
#
#
#
# Elastic Compliance Matrix: (Units=1/GPa)
#
#
# Indices 1 2 3 4 5 6 
#
# 1 0.044970 -0.031924 -0.005060 0.000000 0.000000 0.000000
# 2 -0.031924 0.044964 -0.005057 0.000000 0.000000 0.000000
# 3 -0.005060 -0.005057 0.012432 0.000000 0.000000 0.000000
# 4 0.000000 0.000000 0.000000 0.410809 0.000000 0.000000
# 5 0.000000 0.000000 0.000000 0.000000 0.410951 0.000000
# 6 0.000000 0.000000 0.000000 0.000000 0.000000 0.034286
#
#
# Mechanical properties :
#
#
# Convention : Reuss Voigt Hill
#
# Bulk Modulus (GPa) = 54.69647 58.21725 56.45686
# Shear Modulus (GPa) = 4.76832 13.59934 9.18383
#
# Velocity S-wave (km/s) = 1.57458 2.65914 2.18522
# Velocity P-wave (km/s) = 5.63431 6.30067 5.97679
#
# Compressibility (1/GPa) = 0.01828272
#
# Stress axis : x y z
#
# Youngs Moduli (GPa) = 22.23722 22.24013 80.43861
#
# Poissons Ratio (x) = 0.71000 0.40704
# Poissons Ratio (y) = 0.70990 0.40677
# Poissons Ratio (z) = 0.11253 0.11247
#
# Static dielectric constant tensor:
#      x y z
#    x 3.596150 0.000000 0.000000 
#    y 0.000000 3.596150 0.000000 
#    z 0.000000 0.000000 3.738340 
# 
# 
# High freq. dielectric constant tensor:
#      x y z
#    x 1.738210 0.000000 0.000000 
#    y 0.000000 1.738210 0.000000 
#    z 0.000000 0.000000 1.763400 
# 
# From -- ./inp_files/2091.got.cif
#   From: 2010.03.12/outbox.cif.g09.slc.cpg/sg117_2_cif.got.tgz:2091.got - 2010.04.14 02:19:01.
