data_PCOD8310526
_publ_section_title
;
Structure prediction by ZEFSAII (Michael W. Deem and Ramdas Pophale) SiO2 
 PCOD8310526
Probable space group: P -4 N 2
;
_chemical_formula_sum "Si O2"
_cell_formula_units_Z 56
_cell_length_a 14.768685
_cell_length_b 14.768685
_cell_length_c 11.895828
_cell_angle_alpha 90.000000
_cell_angle_beta 90.000000
_cell_angle_gamma 90.000000
_cell_volume 2594.647302
_symmetry_space_group_name_H-M "P -4 N 2"
_symmetry_group_IT_number 118
_symmetry_cell_setting 'tetragonal'
loop_
_space_group_symop_operation_xyz
x,y,z
y,-x,-z
-x,-y,z
-y,x,-z
1/2+y,1/2+x,1/2-z
1/2-y,1/2-x,1/2-z
1/2-x,1/2+y,1/2+z
1/2+x,1/2-y,1/2+z
loop_
_atom_site_type_symbol
_atom_site_label
_atom_site_fract_x
_atom_site_fract_y
_atom_site_fract_z
Si Si1 0.422231 0.441611 0.819885
Si Si2 0.094563 0.451355 0.369247
Si Si3 0.690220 0.617914 0.621075
Si Si4 0.248670 0.046143 0.972174
Si Si5 0.312997 0.523181 0.991821
Si Si6 0.707884 0.158057 0.493585
Si Si7 0.181531 0.700948 0.618065
O O1 0.500000 0.500000 0.753115
O O2 0.333312 0.422584 0.743133
O O3 0.451699 0.346525 0.881800
O O4 0.398240 0.522076 0.908528
O O5 0.098888 0.401113 0.250000
O O6 0.177711 0.521025 0.376779
O O7 0.102562 0.379675 0.468935
O O8 0.000000 0.500000 0.386266
O O9 0.599431 0.670940 0.590991
O O10 0.704800 0.541860 0.527474
O O11 0.780102 0.683182 0.617073
O O12 0.298516 0.103277 0.067310
O O13 0.284811 0.416728 0.976500
O O14 0.236230 0.589458 0.941790
O O15 0.738736 0.228154 0.590628
O O16 0.180279 0.680279 0.750000
#
# Coordination Sequence:
#
# PCOD8310526 Si02
#       7
#     8   8   8   8   8   8   8
#     4  12  23  41  63  98 133 177 228 284 352 410
#     4  10  21  39  62  92 129 174 228 280 340 411
#     4  10  25  41  66  94 140 176 229 279 351 410
#     4  10  23  43  60 101 131 176 229 280 340 422
#     4  12  22  42  65  97 133 172 233 287 338 420
#     4  10  22  42  63  95 136 179 224 292 337 421
#     4  11  22  41  68  95 133 181 228 281 353 415
#
# _framework density 21.582894
#
# number of rings (size 3 to 8) (size 9 to 14) (size 15 to 20)
#    0.000    1.286    2.857    2.143    4.000    0.571 
#    2.571    0.000    0.000    5.571    0.000    0.000 
#    0.000    0.000    0.000    0.000    0.000    0.000 
#
# Total GULP energy -693951.427680 kJ/mol
# GULP energy per Si atom -12391.989780 kJ/mol
# Density = 2.153377 g / cm^3
# Si number density = 21.582894 Si / 1000 Ang^3
#
#
#
# Elastic Constant Matrix: (Units=GPa)
#
#
# Indices 1 2 3 4 5 6 
#
# 1 101.6555 39.8622 32.4225 0.0000 0.0000 0.0000
# 2 39.8622 101.6556 32.4223 0.0000 0.0000 0.0000
# 3 32.4225 32.4223 96.6298 0.0000 0.0000 0.0000
# 4 0.0000 0.0000 0.0000 28.0049 0.0000 0.0000
# 5 0.0000 0.0000 0.0000 0.0000 28.0046 0.0000
# 6 0.0000 0.0000 0.0000 0.0000 0.0000 51.8599
#
#
#
# Elastic Compliance Matrix: (Units=1/GPa)
#
#
# Indices 1 2 3 4 5 6 
#
# 1 0.012267 -0.003916 -0.002802 0.000000 0.000000 0.000000
# 2 -0.003916 0.012266 -0.002802 0.000000 0.000000 0.000000
# 3 -0.002802 -0.002802 0.012229 0.000000 0.000000 0.000000
# 4 0.000000 0.000000 0.000000 0.035708 0.000000 0.000000
# 5 0.000000 0.000000 0.000000 0.000000 0.035708 0.000000
# 6 0.000000 0.000000 0.000000 0.000000 0.000000 0.019283
#
#
# Mechanical properties :
#
#
# Convention : Reuss Voigt Hill
#
# Bulk Modulus (GPa) = 56.42663 56.59500 56.51082
# Shear Modulus (GPa) = 32.80665 34.58949 33.69807
#
# Velocity S-wave (km/s) = 3.90299 4.00763 3.95566
# Velocity P-wave (km/s) = 6.81997 6.90608 6.86316
#
# Compressibility (1/GPa) = 0.01772213
#
# Stress axis : x y z
#
# Youngs Moduli (GPa) = 81.52282 81.52299 81.77358
#
# Poissons Ratio (x) = 0.31928 0.22911
# Poissons Ratio (y) = 0.31928 0.22910
# Poissons Ratio (z) = 0.22840 0.22840
#
# Static dielectric constant tensor:
#      x y z
#    x 4.023580 0.000000 0.000000 
#    y 0.000000 4.023580 0.000000 
#    z 0.000000 0.000000 3.682350 
# 
# 
# High freq. dielectric constant tensor:
#      x y z
#    x 1.860400 0.000000 0.000000 
#    y 0.000000 1.860400 0.000000 
#    z 0.000000 0.000000 1.828190 
# 
# From -- ./inp_files/3445.got.cif
#   From: 2010.03.12/outbox.cif.g09.slc.cpg/sg118_2_cif.got.tgz:3445.got - 2010.04.14 02:21:17.
