data_PCOD8310203
_publ_section_title
;
Structure prediction by ZEFSAII (Michael W. Deem and Ramdas Pophale) SiO2 
 PCOD8310203
Probable space group: P -4 C 2
;
_chemical_formula_sum "Si O2"
_cell_formula_units_Z 40
_cell_length_a 14.734416
_cell_length_b 14.734416
_cell_length_c 9.007478
_cell_angle_alpha 90.000000
_cell_angle_beta 90.000000
_cell_angle_gamma 90.000000
_cell_volume 1955.550630
_symmetry_space_group_name_H-M "P -4 C 2"
_symmetry_group_IT_number 116
_symmetry_cell_setting 'tetragonal'
loop_
_space_group_symop_operation_xyz
x,y,z
y,-x,-z
-x,-y,z
-y,x,-z
y,x,1/2-z
-y,-x,1/2-z
-x,y,1/2+z
x,-y,1/2+z
loop_
_atom_site_type_symbol
_atom_site_label
_atom_site_fract_x
_atom_site_fract_y
_atom_site_fract_z
Si Si1 0.415993 0.814346 0.947448
Si Si2 0.111237 0.774069 0.543473
Si Si3 0.445997 0.609105 0.910856
Si Si4 0.928871 0.242809 0.887890
Si Si5 0.906588 0.552906 0.357501
O O1 0.318564 0.842199 0.012646
O O2 0.407888 0.710257 0.898712
O O3 0.438802 0.881085 0.813098
O O4 0.495566 0.826000 0.067108
O O5 0.077962 0.767731 0.712215
O O6 0.184734 0.853433 0.525927
O O7 0.026268 0.794703 0.438078
O O8 0.436984 0.563017 0.750000
O O9 0.551186 0.609265 0.964801
O O10 0.915946 0.348285 0.933468
O O11 0.000000 0.500000 0.376194
#
# Coordination Sequence:
#
# PCOD8310203 Si02
#       5
#     8   8   8   8   8
#     4  11  24  38  65  92 124 167 210 263 314 377
#     4  10  23  42  64  90 126 162 210 257 315 378
#     4  11  24  42  64  90 130 173 216 260 316 385
#     4  10  23  41  65  92 125 165 202 261 316 375
#     4  11  22  40  63  95 127 161 208 264 323 375
#
# _framework density 20.454597
#
# number of rings (size 3 to 8) (size 9 to 14) (size 15 to 20)
#    0.000    1.400    2.000    3.000   11.200    1.200 
#    0.000    2.000    4.400    0.000    0.000    0.000 
#    0.000    0.000    0.000    0.000    0.000    0.000 
#
# Total GULP energy -496099.520720 kJ/mol
# GULP energy per Si atom -12402.488018 kJ/mol
# Density = 2.040804 g / cm^3
# Si number density = 20.454597 Si / 1000 Ang^3
#
#
#
# Elastic Constant Matrix: (Units=GPa)
#
#
# Indices 1 2 3 4 5 6 
#
# 1 139.9298 64.1672 28.7869 0.0000 0.0000 0.0000
# 2 64.1672 139.9302 28.7869 0.0000 0.0000 0.0000
# 3 28.7869 28.7869 48.8371 0.0000 0.0000 0.0000
# 4 0.0000 0.0000 0.0000 29.4026 0.0000 0.0000
# 5 0.0000 0.0000 0.0000 0.0000 29.4024 0.0000
# 6 0.0000 0.0000 0.0000 0.0000 0.0000 39.2622
#
#
#
# Elastic Compliance Matrix: (Units=1/GPa)
#
#
# Indices 1 2 3 4 5 6 
#
# 1 0.009538 -0.003661 -0.003464 0.000000 0.000000 0.000000
# 2 -0.003661 0.009538 -0.003464 0.000000 0.000000 0.000000
# 3 -0.003464 -0.003464 0.024560 0.000000 0.000000 0.000000
# 4 0.000000 0.000000 0.000000 0.034011 0.000000 0.000000
# 5 0.000000 0.000000 0.000000 0.000000 0.034011 0.000000
# 6 0.000000 0.000000 0.000000 0.000000 0.000000 0.025470
#
#
# Mechanical properties :
#
#
# Convention : Reuss Voigt Hill
#
# Bulk Modulus (GPa) = 44.52885 63.57546 54.05216
# Shear Modulus (GPa) = 30.15836 33.41051 31.78444
#
# Velocity S-wave (km/s) = 3.84396 4.04592 3.94623
# Velocity P-wave (km/s) = 6.44347 7.27837 6.87361
#
# Compressibility (1/GPa) = 0.02245735
#
# Stress axis : x y z
#
# Youngs Moduli (GPa) = 104.84419 104.84456 40.71655
#
# Poissons Ratio (x) = 0.38385 0.14105
# Poissons Ratio (y) = 0.38385 0.14104
# Poissons Ratio (z) = 0.36319 0.36319
#
# Static dielectric constant tensor:
#      x y z
#    x 3.795720 0.000000 0.000000 
#    y 0.000000 3.795720 0.000000 
#    z 0.000000 0.000000 3.523920 
# 
# 
# High freq. dielectric constant tensor:
#      x y z
#    x 1.807440 0.000000 0.000000 
#    y 0.000000 1.807440 0.000000 
#    z 0.000000 0.000000 1.788200 
# 
# From -- ./inp_files/820.got.cif
#   From: 2010.03.12/outbox.cif.g09.slc.cpg/sg116_1_cif.got.tgz:820.got - 2010.04.14 02:15:44.
