data_PCOD8310315
_publ_section_title
;
Structure prediction by ZEFSAII (Michael W. Deem and Ramdas Pophale) SiO2 
 PCOD8310315
Probable space group: P -4 B 2
;
_chemical_formula_sum "Si O2"
_cell_formula_units_Z 52
_cell_length_a 19.184173
_cell_length_b 19.184173
_cell_length_c 6.709049
_cell_angle_alpha 90.000000
_cell_angle_beta 90.000000
_cell_angle_gamma 90.000000
_cell_volume 2469.148034
_symmetry_space_group_name_H-M "P -4 B 2"
_symmetry_group_IT_number 117
_symmetry_cell_setting 'tetragonal'
loop_
_space_group_symop_operation_xyz
x,y,z
y,-x,-z
-x,-y,z
-y,x,-z
1/2+y,1/2+x,-z
1/2-y,1/2-x,-z
1/2-x,1/2+y,z
1/2+x,1/2-y,z
loop_
_atom_site_type_symbol
_atom_site_label
_atom_site_fract_x
_atom_site_fract_y
_atom_site_fract_z
Si Si1 0.168081 0.424274 0.870910
Si Si2 0.250002 0.750002 0.500000
Si Si3 0.331916 0.075731 0.870909
Si Si4 0.304531 0.362314 0.796293
Si Si5 0.923810 0.576191 0.500000
Si Si6 0.581980 0.581978 0.500000
Si Si7 0.076192 0.576192 0.500000
Si Si8 0.695466 0.362310 0.796293
O O1 0.146239 0.500003 0.958602
O O2 0.251936 0.423612 0.859734
O O3 0.137838 0.414369 0.652913
O O4 0.138899 0.361102 0.000000
O O5 0.316136 0.743204 0.353235
O O6 0.256799 0.683868 0.646766
O O7 0.362159 0.085635 0.652911
O O8 0.248061 0.076392 0.859733
O O9 0.361096 0.138905 0.000000
O O10 0.374106 0.392839 0.692524
O O11 0.323107 0.323111 1.000000
O O12 0.917494 0.499999 0.395734
O O13 0.595566 0.499999 0.458122
O O14 0.607164 0.625891 0.307476
#
# Coordination Sequence:
#
# PCOD8310315 Si02
#       8
#     8   4   8   8   4   8   4   8
#     4  11  22  36  57  87 122 160 201 244 294 356
#     4  10  20  38  62  88 128 168 204 254 310 368
#     4  11  22  36  57  87 122 160 201 244 294 356
#     4  11  23  40  63  92 125 163 209 260 316 381
#     4   9  19  36  57  83 120 164 203 241 287 343
#     4  10  24  46  68  90 118 156 208 272 338 400
#     4   9  19  36  57  83 120 164 203 241 287 343
#     4  11  23  40  63  92 125 163 209 260 316 381
#
# _framework density 21.059896999999999
#
# number of rings (size 3 to 8) (size 9 to 14) (size 15 to 20)
#    0.000    1.538    0.000    5.077    0.000    6.462 
#    0.000    1.538    0.000    0.000    0.000    0.000 
#    0.000    0.000    0.000    0.000    0.000    0.000 
#
# Total GULP energy -644312.525223 kJ/mol
# GULP energy per Si atom -12390.625485 kJ/mol
# Density = 2.101196 g / cm^3
# Si number density = 21.059897 Si / 1000 Ang^3
#
#
#
# Elastic Constant Matrix: (Units=GPa)
#
#
# Indices 1 2 3 4 5 6 
#
# 1 125.3549 62.9290 54.4483 0.0000 0.0000 0.0000
# 2 62.9290 125.3540 54.4480 0.0000 0.0000 0.0000
# 3 54.4483 54.4480 102.4940 0.0000 0.0000 0.0000
# 4 0.0000 0.0000 0.0000 27.3971 0.0000 0.0000
# 5 0.0000 0.0000 0.0000 0.0000 27.3971 0.0000
# 6 0.0000 0.0000 0.0000 0.0000 0.0000 37.0589
#
#
#
# Elastic Compliance Matrix: (Units=1/GPa)
#
#
# Indices 1 2 3 4 5 6 
#
# 1 0.011843 -0.004176 -0.004073 0.000000 0.000000 0.000000
# 2 -0.004176 0.011843 -0.004073 0.000000 0.000000 0.000000
# 3 -0.004073 -0.004073 0.014084 0.000000 0.000000 0.000000
# 4 0.000000 0.000000 0.000000 0.036500 0.000000 0.000000
# 5 0.000000 0.000000 0.000000 0.000000 0.036500 0.000000
# 6 0.000000 0.000000 0.000000 0.000000 0.000000 0.026984
#
#
# Mechanical properties :
#
#
# Convention : Reuss Voigt Hill
#
# Bulk Modulus (GPa) = 76.18422 77.42816 76.80619
# Shear Modulus (GPa) = 29.98086 30.46247 30.22166
#
# Velocity S-wave (km/s) = 3.77715 3.80737 3.79229
# Velocity P-wave (km/s) = 7.43479 7.49491 7.46491
#
# Compressibility (1/GPa) = 0.01312608
#
# Stress axis : x y z
#
# Youngs Moduli (GPa) = 84.43906 84.43856 71.00318
#
# Poissons Ratio (x) = 0.35263 0.28918
# Poissons Ratio (y) = 0.35263 0.28918
# Poissons Ratio (z) = 0.34390 0.34390
#
# Static dielectric constant tensor:
#      x y z
#    x 3.784700 0.000000 0.000000 
#    y 0.000000 3.784700 0.000000 
#    z 0.000000 0.000000 3.784390 
# 
# 
# High freq. dielectric constant tensor:
#      x y z
#    x 1.832360 0.000000 0.000000 
#    y 0.000000 1.832360 0.000000 
#    z 0.000000 0.000000 1.817260 
# 
# From -- ./inp_files/897.got.cif
#   From: 2010.03.12/outbox.cif.g09.slc.cpg/sg117_1_cif.got.tgz:897.got - 2010.04.14 02:19:01.
