data_PCOD8310122
_publ_section_title
;
Structure prediction by ZEFSAII (Michael W. Deem and Ramdas Pophale) SiO2 
 PCOD8310122
Probable space group: P -4 C 2
;
_chemical_formula_sum "Si O2"
_cell_formula_units_Z 48
_cell_length_a 12.690028
_cell_length_b 12.690028
_cell_length_c 15.451640
_cell_angle_alpha 90.000000
_cell_angle_beta 90.000000
_cell_angle_gamma 90.000000
_cell_volume 2488.282825
_symmetry_space_group_name_H-M "P -4 C 2"
_symmetry_group_IT_number 116
_symmetry_cell_setting 'tetragonal'
loop_
_space_group_symop_operation_xyz
x,y,z
y,-x,-z
-x,-y,z
-y,x,-z
y,x,1/2-z
-y,-x,1/2-z
-x,y,1/2+z
x,-y,1/2+z
loop_
_atom_site_type_symbol
_atom_site_label
_atom_site_fract_x
_atom_site_fract_y
_atom_site_fract_z
Si Si1 0.327800 0.504724 0.245992
Si Si2 0.585413 0.258360 0.924822
Si Si3 0.241640 0.085413 0.424822
Si Si4 0.995277 0.172201 0.245992
Si Si5 0.431186 0.755777 0.580817
Si Si6 0.744222 0.931185 0.080817
O O1 0.415556 0.415556 0.250000
O O2 0.379663 0.620338 0.250000
O O3 0.265588 0.494746 0.155809
O O4 0.248771 0.488318 0.326090
O O5 0.666258 0.166259 0.902586
O O6 0.648454 0.367423 0.938780
O O7 0.521209 0.230592 0.010042
O O8 0.132578 0.148454 0.438780
O O9 0.234413 0.005254 0.344191
O O10 0.269409 0.021208 0.510041
O O11 0.879665 0.120336 0.250000
O O12 0.011682 0.251230 0.326091
O O13 0.084447 0.084447 0.250000
O O14 0.356770 0.856769 0.578854
#
# Coordination Sequence:
#
# PCOD8310122 Si02
#       6
#     8   8   8   8   8   8
#     4   9  17  31  54  81 106 135 174 220 266 311
#     4  10  20  34  53  78 108 141 177 218 264 314
#     4  10  20  34  53  78 108 141 177 218 264 314
#     4   9  17  31  54  81 106 135 174 220 266 311
#     4  10  20  34  53  78 108 141 177 218 264 314
#     4  10  20  34  53  78 108 141 177 218 264 314
#
# _framework density 19.290410999999999
#
# number of rings (size 3 to 8) (size 9 to 14) (size 15 to 20)
#    0.000    2.333    0.000    3.000    0.000    8.000 
#    0.000    1.667    0.000   10.000    0.000    0.000 
#    0.000    0.000    0.000    0.000    0.000    0.000 
#
# Total GULP energy -595339.456782 kJ/mol
# GULP energy per Si atom -12402.905350 kJ/mol
# Density = 1.924650 g / cm^3
# Si number density = 19.290411 Si / 1000 Ang^3
#
#
#
# Elastic Constant Matrix: (Units=GPa)
#
#
# Indices 1 2 3 4 5 6 
#
# 1 50.5285 9.5330 9.4275 0.0000 0.0000 0.0000
# 2 9.5330 50.5286 9.4276 0.0000 0.0000 0.0000
# 3 9.4275 9.4276 90.7552 0.0000 0.0000 0.0000
# 4 0.0000 0.0000 0.0000 13.8318 0.0000 0.0000
# 5 0.0000 0.0000 0.0000 0.0000 13.8316 0.0000
# 6 0.0000 0.0000 0.0000 0.0000 0.0000 21.5818
#
#
#
# Elastic Compliance Matrix: (Units=1/GPa)
#
#
# Indices 1 2 3 4 5 6 
#
# 1 0.020802 -0.003591 -0.001788 0.000000 0.000000 0.000000
# 2 -0.003591 0.020802 -0.001788 0.000000 0.000000 0.000000
# 3 -0.001788 -0.001788 0.011390 0.000000 0.000000 0.000000
# 4 0.000000 0.000000 0.000000 0.072297 0.000000 0.000000
# 5 0.000000 0.000000 0.000000 0.000000 0.072298 0.000000
# 6 0.000000 0.000000 0.000000 0.000000 0.000000 0.046335
#
#
# Mechanical properties :
#
#
# Convention : Reuss Voigt Hill
#
# Bulk Modulus (GPa) = 25.86626 27.62095 26.74360
# Shear Modulus (GPa) = 18.44033 20.74399 19.59216
#
# Velocity S-wave (km/s) = 3.09517 3.28281 3.19037
# Velocity P-wave (km/s) = 5.11971 5.35899 5.24071
#
# Compressibility (1/GPa) = 0.03866041
#
# Stress axis : x y z
#
# Youngs Moduli (GPa) = 48.07258 48.07267 87.79563
#
# Poissons Ratio (x) = 0.17263 0.15696
# Poissons Ratio (y) = 0.17263 0.15697
# Poissons Ratio (z) = 0.08595 0.08595
#
# Static dielectric constant tensor:
#      x y z
#    x 3.351000 0.000000 0.000000 
#    y 0.000000 3.351000 0.000000 
#    z 0.000000 0.000000 3.685140 
# 
# 
# High freq. dielectric constant tensor:
#      x y z
#    x 1.732180 0.000000 0.000000 
#    y 0.000000 1.732180 0.000000 
#    z 0.000000 0.000000 1.766950 
# 
# From -- ./inp_files/1911.got.cif
#   From: 2010.03.12/outbox.cif.g09.slc.cpg/sg116_1_cif.got.tgz:1911.got - 2010.04.14 02:15:44.
