data_PCOD8310642
_publ_section_title
;
Structure prediction by ZEFSAII (Michael W. Deem and Ramdas Pophale) SiO2 
 PCOD8310642
Probable space group: P -4 N 2
;
_chemical_formula_sum "Si O2"
_cell_formula_units_Z 36
_cell_length_a 9.324729
_cell_length_b 9.324729
_cell_length_c 18.717178
_cell_angle_alpha 90.000000
_cell_angle_beta 90.000000
_cell_angle_gamma 90.000000
_cell_volume 1627.469313
_symmetry_space_group_name_H-M "P -4 N 2"
_symmetry_group_IT_number 118
_symmetry_cell_setting 'tetragonal'
loop_
_space_group_symop_operation_xyz
x,y,z
y,-x,-z
-x,-y,z
-y,x,-z
1/2+y,1/2+x,1/2-z
1/2-y,1/2-x,1/2-z
1/2-x,1/2+y,1/2+z
1/2+x,1/2-y,1/2+z
loop_
_atom_site_type_symbol
_atom_site_label
_atom_site_fract_x
_atom_site_fract_y
_atom_site_fract_z
Si Si1 0.647370 0.940059 0.869965
Si Si2 0.050216 0.843905 0.740105
Si Si3 0.758268 0.769810 0.133001
Si Si4 0.256291 0.756291 0.250000
Si Si5 0.219418 0.095053 0.501830
O O1 0.741926 0.867807 0.808902
O O2 0.614874 0.825898 0.932000
O O3 0.500000 0.000000 0.836803
O O4 0.729099 0.083720 0.895888
O O5 0.096231 0.766786 0.813671
O O6 0.175588 0.853375 0.679972
O O7 0.911394 0.756702 0.712226
O O8 0.000000 0.000000 0.759832
O O9 0.658066 0.805792 0.065759
O O10 0.072158 0.184596 0.510796
#
# Coordination Sequence:
#
# PCOD8310642 Si02
#       5
#     8   8   8   4   8
#     4  12  24  43  70 103 132 185 234 282 345 415
#     4  11  24  45  70 107 139 181 230 289 350 408
#     4  11  25  44  68 101 142 176 231 291 337 417
#     4  12  25  43  78 100 140 186 230 292 350 414
#     4  11  25  44  69  99 138 184 234 288 346 415
#
# _framework density 22.120232000000001
#
# number of rings (size 3 to 8) (size 9 to 14) (size 15 to 20)
#    0.000    0.667    4.444    3.000    6.222    3.556 
#    4.000    0.000    0.000    0.000    0.000    0.000 
#    0.000    0.000    0.000    0.000    0.000    0.000 
#
# Total GULP energy -446198.113482 kJ/mol
# GULP energy per Si atom -12394.392041 kJ/mol
# Density = 2.206989 g / cm^3
# Si number density = 22.120232 Si / 1000 Ang^3
#
#
#
# Elastic Constant Matrix: (Units=GPa)
#
#
# Indices 1 2 3 4 5 6 
#
# 1 120.9841 39.5613 44.8518 0.0000 0.0000 0.0000
# 2 39.5613 120.9841 44.8518 0.0000 0.0000 0.0000
# 3 44.8518 44.8518 93.9731 0.0000 0.0000 0.0000
# 4 0.0000 0.0000 0.0000 29.8209 0.0000 0.0000
# 5 0.0000 0.0000 0.0000 0.0000 29.8209 0.0000
# 6 0.0000 0.0000 0.0000 0.0000 0.0000 33.6779
#
#
#
# Elastic Compliance Matrix: (Units=1/GPa)
#
#
# Indices 1 2 3 4 5 6 
#
# 1 0.010388 -0.001894 -0.004054 0.000000 0.000000 0.000000
# 2 -0.001894 0.010388 -0.004054 0.000000 0.000000 0.000000
# 3 -0.004054 -0.004054 0.014511 0.000000 0.000000 0.000000
# 4 0.000000 0.000000 0.000000 0.033534 0.000000 0.000000
# 5 0.000000 0.000000 0.000000 0.000000 0.033534 0.000000
# 6 0.000000 0.000000 0.000000 0.000000 0.000000 0.029693
#
#
# Mechanical properties :
#
#
# Convention : Reuss Voigt Hill
#
# Bulk Modulus (GPa) = 65.43233 66.05238 65.74235
# Shear Modulus (GPa) = 31.81778 32.44235 32.13006
#
# Velocity S-wave (km/s) = 3.79674 3.83382 3.81533
# Velocity P-wave (km/s) = 6.99034 7.03726 7.01384
#
# Compressibility (1/GPa) = 0.01528297
#
# Stress axis : x y z
#
# Youngs Moduli (GPa) = 96.26728 96.26728 68.91245
#
# Poissons Ratio (x) = 0.18231 0.27937
# Poissons Ratio (y) = 0.18231 0.27937
# Poissons Ratio (z) = 0.39027 0.39027
#
# Static dielectric constant tensor:
#      x y z
#    x 4.325190 0.000000 0.000000 
#    y 0.000000 4.325190 0.000000 
#    z 0.000000 0.000000 3.870340 
# 
# 
# High freq. dielectric constant tensor:
#      x y z
#    x 1.877810 0.000000 0.000000 
#    y 0.000000 1.877810 0.000000 
#    z 0.000000 0.000000 1.857490 
# 
# From -- ./inp_files/5443.got.cif
#   From: 2010.03.12/outbox.cif.g09.slc.cpg/sg118_3_cif.got.tgz:5443.got - 2010.04.14 02:21:17.
