data_PCOD8310336
_publ_section_title
;
Structure prediction by ZEFSAII (Michael W. Deem and Ramdas Pophale) SiO2 
 PCOD8310336
Probable space group: P -4 B 2
;
_chemical_formula_sum "Si O2"
_cell_formula_units_Z 36
_cell_length_a 12.849659
_cell_length_b 12.849659
_cell_length_c 10.314998
_cell_angle_alpha 90.000000
_cell_angle_beta 90.000000
_cell_angle_gamma 90.000000
_cell_volume 1703.147861
_symmetry_space_group_name_H-M "P -4 B 2"
_symmetry_group_IT_number 117
_symmetry_cell_setting 'tetragonal'
loop_
_space_group_symop_operation_xyz
x,y,z
y,-x,-z
-x,-y,z
-y,x,-z
1/2+y,1/2+x,-z
1/2-y,1/2-x,-z
1/2-x,1/2+y,z
1/2+x,1/2-y,z
loop_
_atom_site_type_symbol
_atom_site_label
_atom_site_fract_x
_atom_site_fract_y
_atom_site_fract_z
Si Si1 0.309911 0.497782 0.170986
Si Si2 0.864930 0.218228 0.068392
Si Si3 0.428837 0.367494 0.563909
Si Si4 0.412886 0.080618 0.229755
Si Si5 0.644767 0.855234 0.500000
O O1 0.332337 0.374424 0.164238
O O2 0.382724 0.546241 0.283226
O O3 0.192029 0.515876 0.213289
O O4 0.330387 0.553959 0.034189
O O5 0.917676 0.314838 0.143578
O O6 0.760028 0.260028 0.000000
O O7 0.360490 0.464921 0.518771
O O8 0.364178 0.264357 0.539409
O O9 0.428154 0.113571 0.379333
O O10 0.500000 0.000000 0.183819
#
# Coordination Sequence:
#
# PCOD8310336 Si02
#       5
#     8   8   8   8   4
#     4  10  23  40  62  93 126 166 216 258 324 391
#     4  10  23  39  62  95 127 169 213 261 324 378
#     4  10  22  42  66  92 128 166 212 266 325 383
#     4  10  22  41  64  93 127 166 213 266 319 379
#     4  10  21  42  62  99 124 162 220 254 331 380
#
# _framework density 21.137331
#
# number of rings (size 3 to 8) (size 9 to 14) (size 15 to 20)
#    0.000    2.000    0.000    1.667    3.111    8.889 
#   16.000    0.000    0.000    0.000    0.000    0.000 
#    0.000    0.000    0.000    0.000    0.000    0.000 
#
# Total GULP energy -446452.988943 kJ/mol
# GULP energy per Si atom -12401.471915 kJ/mol
# Density = 2.108922 g / cm^3
# Si number density = 21.137331 Si / 1000 Ang^3
#
#
#
# Elastic Constant Matrix: (Units=GPa)
#
#
# Indices 1 2 3 4 5 6 
#
# 1 89.1639 45.6108 43.5591 0.0000 0.0000 0.0000
# 2 45.6108 89.1637 43.5588 0.0000 0.0000 0.0000
# 3 43.5591 43.5588 148.4853 0.0000 0.0000 0.0000
# 4 0.0000 0.0000 0.0000 32.8301 0.0000 0.0000
# 5 0.0000 0.0000 0.0000 0.0000 32.8303 0.0000
# 6 0.0000 0.0000 0.0000 0.0000 0.0000 37.6319
#
#
#
# Elastic Compliance Matrix: (Units=1/GPa)
#
#
# Indices 1 2 3 4 5 6 
#
# 1 0.016058 -0.006902 -0.002686 0.000000 0.000000 0.000000
# 2 -0.006902 0.016058 -0.002686 0.000000 0.000000 0.000000
# 3 -0.002686 -0.002686 0.008311 0.000000 0.000000 0.000000
# 4 0.000000 0.000000 0.000000 0.030460 0.000000 0.000000
# 5 0.000000 0.000000 0.000000 0.000000 0.030460 0.000000
# 6 0.000000 0.000000 0.000000 0.000000 0.000000 0.026573
#
#
# Mechanical properties :
#
#
# Convention : Reuss Voigt Hill
#
# Bulk Modulus (GPa) = 62.97747 65.80784 64.39266
# Shear Modulus (GPa) = 31.69350 33.59741 32.64545
#
# Velocity S-wave (km/s) = 3.87642 3.99116 3.93421
# Velocity P-wave (km/s) = 7.06361 7.24156 7.15314
#
# Compressibility (1/GPa) = 0.01587869
#
# Stress axis : x y z
#
# Youngs Moduli (GPa) = 62.27326 62.27326 120.32886
#
# Poissons Ratio (x) = 0.42983 0.32320
# Poissons Ratio (y) = 0.42983 0.32320
# Poissons Ratio (z) = 0.16727 0.16726
#
# Static dielectric constant tensor:
#      x y z
#    x 3.650720 0.000000 0.000000 
#    y 0.000000 3.650730 0.000000 
#    z 0.000000 0.000000 4.147820 
# 
# 
# High freq. dielectric constant tensor:
#      x y z
#    x 1.822820 0.000000 0.000000 
#    y 0.000000 1.822820 0.000000 
#    z 0.000000 0.000000 1.845330 
# 
# From -- ./inp_files/2562.got.cif
#   From: 2010.03.12/outbox.cif.g09.slc.cpg/sg117_2_cif.got.tgz:2562.got - 2010.04.14 02:19:01.
