data_PCOD8310678
_publ_section_title
;
Structure prediction by ZEFSAII (Michael W. Deem and Ramdas Pophale) SiO2 
 PCOD8310678
Probable space group: I -4 M 2
;
_chemical_formula_sum "Si O2"
_cell_formula_units_Z 104
_cell_length_a 20.906350
_cell_length_b 20.906350
_cell_length_c 13.894265
_cell_angle_alpha 90.000000
_cell_angle_beta 90.000000
_cell_angle_gamma 90.000000
_cell_volume 6072.842410
_symmetry_space_group_name_H-M "I -4 M 2"
_symmetry_group_IT_number 119
_symmetry_cell_setting 'tetragonal'
loop_
_space_group_symop_operation_xyz
x,y,z
y,-x,-z
-x,-y,z
-y,x,-z
y,x,-z
-y,-x,-z
-x,y,z
x,-y,z
1/2+x,1/2+y,1/2+z
1/2+y,1/2-x,1/2-z
1/2-x,1/2-y,1/2+z
1/2-y,1/2+x,1/2-z
1/2+y,1/2+x,1/2-z
1/2-y,1/2-x,1/2-z
1/2-x,1/2+y,1/2+z
1/2+x,1/2-y,1/2+z
loop_
_atom_site_type_symbol
_atom_site_label
_atom_site_fract_x
_atom_site_fract_y
_atom_site_fract_z
Si Si1 0.130705 0.768759 0.892274
Si Si2 0.246975 0.341384 0.057157
Si Si3 0.338634 0.838634 0.250000
Si Si4 0.777226 0.426922 0.885809
Si Si5 0.247842 0.140845 0.899110
Si Si6 0.843787 0.929118 0.262387
Si Si7 0.575487 0.693490 0.776913
O O1 0.169007 0.715215 0.831796
O O2 0.180463 0.825036 0.906042
O O3 0.071863 0.798841 0.832960
O O4 0.106886 0.741903 0.996029
O O5 0.192304 0.304308 0.117575
O O6 0.286497 0.385517 0.129140
O O7 0.291167 0.291167 0.000000
O O8 0.211281 0.387203 0.982143
O O9 0.406197 0.828962 0.195968
O O10 0.790608 0.500000 0.909067
O O11 0.704047 0.414463 0.851360
O O12 0.242475 0.090271 0.811398
O O13 0.901904 0.879065 0.255745
O O14 0.873585 0.000000 0.271937
O O15 0.500000 0.694041 0.797512
#
# Coordination Sequence:
#
# PCOD8310678 Si02
#       7
#    16  16   8  16  16  16  16
#     4   9  17  28  50  79 102 128 173 231 279 322
#     4  12  19  34  56  80 105 139 179 229 285 325
#     4  10  16  30  50  77 108 132 170 214 285 332
#     4  10  19  31  52  80 108 135 173 220 268 325
#     4  10  19  31  52  79 103 135 174 226 286 328
#     4   9  19  33  51  73 104 147 185 220 258 308
#     4  11  24  36  50  76 114 152 187 225 261 318
#
# _framework density 17.125423000000001
#
# number of rings (size 3 to 8) (size 9 to 14) (size 15 to 20)
#    0.000    1.846    4.615    0.923    4.308    0.923 
#    0.000    0.000    0.000    0.231    0.000    4.308 
#    0.000    9.846    0.000    0.000    0.000    0.000 
#
# Total GULP energy -644342.386826 kJ/mol
# GULP energy per Si atom -12391.199747 kJ/mol
# Density = 1.708645 g / cm^3
# Si number density = 17.125423 Si / 1000 Ang^3
#
#
#
# Elastic Constant Matrix: (Units=GPa)
#
#
# Indices 1 2 3 4 5 6 
#
# 1 60.8197 45.0510 22.9612 0.0000 0.0000 0.0000
# 2 45.0510 60.8197 22.9612 0.0000 0.0000 0.0000
# 3 22.9612 22.9612 79.0430 0.0000 0.0000 0.0000
# 4 0.0000 0.0000 0.0000 18.6405 0.0000 0.0000
# 5 0.0000 0.0000 0.0000 0.0000 18.6405 0.0000
# 6 0.0000 0.0000 0.0000 0.0000 0.0000 18.6108
#
#
#
# Elastic Compliance Matrix: (Units=1/GPa)
#
#
# Indices 1 2 3 4 5 6 
#
# 1 0.037112 -0.026305 -0.003139 0.000000 0.000000 0.000000
# 2 -0.026305 0.037112 -0.003139 0.000000 0.000000 0.000000
# 3 -0.003139 -0.003139 0.014475 0.000000 0.000000 0.000000
# 4 0.000000 0.000000 0.000000 0.053647 0.000000 0.000000
# 5 0.000000 0.000000 0.000000 0.000000 0.053647 0.000000
# 6 0.000000 0.000000 0.000000 0.000000 0.000000 0.053732
#
#
# Mechanical properties :
#
#
# Convention : Reuss Voigt Hill
#
# Bulk Modulus (GPa) = 42.49504 42.51434 42.50469
# Shear Modulus (GPa) = 15.49256 18.49232 16.99244
#
# Velocity S-wave (km/s) = 3.01101 3.28962 3.15339
# Velocity P-wave (km/s) = 6.07915 6.26961 6.17511
#
# Compressibility (1/GPa) = 0.02353216
#
# Stress axis : x y z
#
# Youngs Moduli (GPa) = 26.94546 26.94546 69.08339
#
# Poissons Ratio (x) = 0.70879 0.21688
# Poissons Ratio (y) = 0.70879 0.21688
# Poissons Ratio (z) = 0.08459 0.08459
#
# Static dielectric constant tensor:
#      x y z
#    x 2.977270 0.000000 0.000000 
#    y 0.000000 2.977270 0.000000 
#    z 0.000000 0.000000 3.762390 
# 
# 
# High freq. dielectric constant tensor:
#      x y z
#    x 1.632530 0.000000 0.000000 
#    y 0.000000 1.632530 0.000000 
#    z 0.000000 0.000000 1.677780 
# 
# From -- ./inp_files/5591.got.cif
#   From: 2010.03.12/outbox.cif.g09.slc.cpg/sg119_3_cif.got.tgz:5591.got - 2010.04.14 02:25:26.
