data_PCOD8310038
_publ_section_title
;
Structure prediction by ZEFSAII (Michael W. Deem and Ramdas Pophale) SiO2 
 PCOD8310038
Probable space group: P -4 M 2
;
_chemical_formula_sum "Si O2"
_cell_formula_units_Z 40
_cell_length_a 9.506702
_cell_length_b 9.506702
_cell_length_c 25.843116
_cell_angle_alpha 90.000000
_cell_angle_beta 90.000000
_cell_angle_gamma 90.000000
_cell_volume 2335.633190
_symmetry_space_group_name_H-M "P -4 M 2"
_symmetry_group_IT_number 115
_symmetry_cell_setting 'tetragonal'
loop_
_space_group_symop_operation_xyz
x,y,z
y,-x,-z
-x,-y,z
-y,x,-z
y,x,-z
-y,-x,-z
-x,y,z
x,-y,z
loop_
_atom_site_type_symbol
_atom_site_label
_atom_site_fract_x
_atom_site_fract_y
_atom_site_fract_z
Si Si1 0.333939 0.839760 0.040676
Si Si2 0.167013 0.344419 0.844586
Si Si3 0.167594 0.341048 0.348801
Si Si4 0.837024 0.835524 0.748872
Si Si5 0.167389 0.157052 0.442843
O O1 0.500000 0.827885 0.032925
O O2 0.292662 0.786011 0.098395
O O3 0.283830 0.000000 0.032288
O O4 0.258678 0.741323 0.000000
O O5 0.228097 0.500000 0.833126
O O6 0.221535 0.238844 0.800531
O O7 0.000000 0.351199 0.844291
O O8 0.226561 0.500000 0.346756
O O9 0.220791 0.254854 0.298995
O O10 0.227783 0.264229 0.400038
O O11 0.000000 0.341515 0.350240
O O12 0.000000 0.798865 0.737794
O O13 0.815983 0.000000 0.757440
O O14 0.211623 0.211623 0.500000
O O15 0.000000 0.150203 0.439950
O O16 0.227593 0.000000 0.432308
#
# Coordination Sequence:
#
# PCOD8310038 Si02
#       5
#     8   8   8   8   8
#     4   9  18  32  49  70  95 122 153 189 229 273
#     4   8  15  29  47  65  87 115 146 181 219 257
#     4   9  16  25  38  59  88 116 138 168 214 258
#     4   9  16  26  43  66  88 111 142 177 211 252
#     4   8  13  22  38  59  80 104 138 176 208 243
#
# _framework density 17.125978
#
# number of rings (size 3 to 8) (size 9 to 14) (size 15 to 20)
#    0.000    3.400    0.000    2.400    0.000    3.600 
#    0.000    3.000    0.000    5.400    0.000    5.600 
#    0.000    0.000    0.000    0.000    0.000    0.000 
#
# Total GULP energy -495762.815931 kJ/mol
# GULP energy per Si atom -12394.070398 kJ/mol
# Density = 1.708700 g / cm^3
# Si number density = 17.125978 Si / 1000 Ang^3
#
#
#
# Elastic Constant Matrix: (Units=GPa)
#
#
# Indices 1 2 3 4 5 6 
#
# 1 52.8900 25.1070 60.5571 0.0000 0.0000 0.0000
# 2 25.1070 52.8925 60.5580 0.0000 0.0000 0.0000
# 3 60.5571 60.5580 183.5606 0.0000 0.0000 0.0000
# 4 0.0000 0.0000 0.0000 3.9582 0.0000 0.0000
# 5 0.0000 0.0000 0.0000 0.0000 3.9577 0.0000
# 6 0.0000 0.0000 0.0000 0.0000 0.0000 12.7858
#
#
#
# Elastic Compliance Matrix: (Units=1/GPa)
#
#
# Indices 1 2 3 4 5 6 
#
# 1 0.031140 -0.004852 -0.008672 0.000000 0.000000 0.000000
# 2 -0.004852 0.031138 -0.008672 0.000000 0.000000 0.000000
# 3 -0.008672 -0.008672 0.011170 0.000000 0.000000 0.000000
# 4 0.000000 0.000000 0.000000 0.252638 0.000000 0.000000
# 5 0.000000 0.000000 0.000000 0.000000 0.252670 0.000000
# 6 0.000000 0.000000 0.000000 0.000000 0.000000 0.078212
#
#
# Mechanical properties :
#
#
# Convention : Reuss Voigt Hill
#
# Bulk Modulus (GPa) = 34.41763 64.64303 49.53033
# Shear Modulus (GPa) = 7.03189 13.68175 10.35682
#
# Velocity S-wave (km/s) = 2.02852 2.82953 2.46182
# Velocity P-wave (km/s) = 5.06230 6.96437 6.08808
#
# Compressibility (1/GPa) = 0.02905488
#
# Stress axis : x y z
#
# Youngs Moduli (GPa) = 32.11291 32.11471 89.52729
#
# Poissons Ratio (x) = 0.15583 0.77641
# Poissons Ratio (y) = 0.15582 0.77638
# Poissons Ratio (z) = 0.27850 0.27850
#
# Static dielectric constant tensor:
#      x y z
#    x 2.979690 0.000000 0.000000 
#    y 0.000000 2.979690 0.000000 
#    z 0.000000 0.000000 3.570100 
# 
# 
# High freq. dielectric constant tensor:
#      x y z
#    x 1.624040 0.000000 0.000000 
#    y 0.000000 1.624040 0.000000 
#    z 0.000000 0.000000 1.678140 
# 
# From -- ./inp_files/5418.got.cif
#   From: 2010.03.12/outbox.cif.g09.slc.cpg/sg115_3_cif.got.tgz:5418.got - 2010.04.14 02:11:21.
