data_PCOD8310014
_publ_section_title
;
Structure prediction by ZEFSAII (Michael W. Deem and Ramdas Pophale) SiO2 
 PCOD8310014
Probable space group: P -4 M 2
;
_chemical_formula_sum "Si O2"
_cell_formula_units_Z 40
_cell_length_a 9.053184
_cell_length_b 9.053184
_cell_length_c 25.958613
_cell_angle_alpha 90.000000
_cell_angle_beta 90.000000
_cell_angle_gamma 90.000000
_cell_volume 2127.571570
_symmetry_space_group_name_H-M "P -4 M 2"
_symmetry_group_IT_number 115
_symmetry_cell_setting 'tetragonal'
loop_
_space_group_symop_operation_xyz
x,y,z
y,-x,-z
-x,-y,z
-y,x,-z
y,x,-z
-y,-x,-z
-x,y,z
x,-y,z
loop_
_atom_site_type_symbol
_atom_site_label
_atom_site_fract_x
_atom_site_fract_y
_atom_site_fract_z
Si Si1 0.163988 0.823113 0.555662
Si Si2 0.326209 0.172248 0.952433
Si Si3 0.674852 0.829707 0.766560
Si Si4 0.826501 0.671911 0.858031
Si Si5 0.825336 0.337990 0.347756
O O1 0.229531 0.770470 0.500000
O O2 0.249395 0.755044 0.604538
O O3 0.000000 0.761024 0.561562
O O4 0.164326 0.000000 0.556387
O O5 0.500000 0.200765 0.949818
O O6 0.254177 0.230262 0.900415
O O7 0.289865 0.000000 0.959196
O O8 0.260512 0.260512 0.000000
O O9 0.500000 0.802514 0.772195
O O10 0.765181 0.720416 0.802838
O O11 0.729847 0.790932 0.708568
O O12 0.711274 0.000000 0.780165
O O13 0.791288 0.500000 0.867327
O O14 0.000000 0.702902 0.860834
O O15 0.755188 0.500000 0.350478
O O16 0.000000 0.346672 0.354621
#
# Coordination Sequence:
#
# PCOD8310014 Si02
#       5
#     8   8   8   8   8
#     4   8  13  21  35  58  87 118 155 198 241 289
#     4  11  24  41  62  88 115 143 178 217 255 300
#     4   9  18  33  53  77 102 130 170 217 261 308
#     4  11  24  39  55  79 110 142 177 215 256 306
#     4   8  14  25  42  65  93 123 157 200 248 298
#
# _framework density 18.800778999999999
#
# number of rings (size 3 to 8) (size 9 to 14) (size 15 to 20)
#    0.000    2.600    0.000    4.200    0.000    9.200 
#    0.000    2.000    0.000    1.200    0.000    2.800 
#    0.000    0.000    0.000    0.000    0.000    0.000 
#
# Total GULP energy -495785.666397 kJ/mol
# GULP energy per Si atom -12394.641660 kJ/mol
# Density = 1.875799 g / cm^3
# Si number density = 18.800779 Si / 1000 Ang^3
#
#
#
# Elastic Constant Matrix: (Units=GPa)
#
#
# Indices 1 2 3 4 5 6 
#
# 1 60.8178 34.9375 40.5887 0.0000 0.0000 0.0000
# 2 34.9375 60.8179 40.5887 0.0000 0.0000 0.0000
# 3 40.5887 40.5887 145.9839 0.0000 0.0000 0.0000
# 4 0.0000 0.0000 0.0000 -135.8237 0.0000 0.0000
# 5 0.0000 0.0000 0.0000 0.0000 -135.8152 0.0000
# 6 0.0000 0.0000 0.0000 0.0000 0.0000 22.8166
#
#
#
# Elastic Compliance Matrix: (Units=1/GPa)
#
#
# Indices 1 2 3 4 5 6 
#
# 1 0.026152 -0.012488 -0.003799 0.000000 0.000000 0.000000
# 2 -0.012488 0.026152 -0.003799 0.000000 0.000000 0.000000
# 3 -0.003799 -0.003799 0.008963 0.000000 0.000000 0.000000
# 4 0.000000 0.000000 0.000000 -0.007362 0.000000 0.000000
# 5 0.000000 0.000000 0.000000 0.000000 -0.007363 0.000000
# 6 0.000000 0.000000 0.000000 0.000000 0.000000 0.043828
#
#
# Mechanical properties :
#
#
# Convention : Reuss Voigt Hill
#
# Bulk Modulus (GPa) = 47.40618 55.53881 51.47250
# Shear Modulus (GPa) = 36.34473 -39.66416 -1.65972
#
# Velocity S-wave (km/s) = 4.40153 -4.59814 -0.94059
# Velocity P-wave (km/s) = 7.14850 1.18925 5.12422
#
# Compressibility (1/GPa) = 0.02109430
#
# Stress axis : x y z
#
# Youngs Moduli (GPa) = 38.23840 38.23850 111.57450
#
# Poissons Ratio (x) = 0.47751 0.42388
# Poissons Ratio (y) = 0.47751 0.42388
# Poissons Ratio (z) = 0.14527 0.14527
#
# Static dielectric constant tensor:
#      x y z
#    x 3.334320 0.000000 0.000000 
#    y 0.000000 3.334320 0.000000 
#    z 0.000000 0.000000 3.871420 
# 
# 
# High freq. dielectric constant tensor:
#      x y z
#    x 1.706140 0.000000 0.000000 
#    y 0.000000 1.706140 0.000000 
#    z 0.000000 0.000000 1.754760 
# 
# From -- ./inp_files/5137.got.cif
#   From: 2010.03.12/outbox.cif.g09.slc.cpg/sg115_3_cif.got.tgz:5137.got - 2010.04.14 02:11:21.
