data_PCOD8310039
_publ_section_title
;
Structure prediction by ZEFSAII (Michael W. Deem and Ramdas Pophale) SiO2 
 PCOD8310039
Probable space group: P -4 M 2
;
_chemical_formula_sum "Si O2"
_cell_formula_units_Z 44
_cell_length_a 9.525236
_cell_length_b 9.525236
_cell_length_c 28.587717
_cell_angle_alpha 90.000000
_cell_angle_beta 90.000000
_cell_angle_gamma 90.000000
_cell_volume 2593.767018
_symmetry_space_group_name_H-M "P -4 M 2"
_symmetry_group_IT_number 115
_symmetry_cell_setting 'tetragonal'
loop_
_space_group_symop_operation_xyz
x,y,z
y,-x,-z
-x,-y,z
-y,x,-z
y,x,-z
-y,-x,-z
-x,y,z
x,-y,z
loop_
_atom_site_type_symbol
_atom_site_label
_atom_site_fract_x
_atom_site_fract_y
_atom_site_fract_z
Si Si1 0.156422 0.832809 0.051153
Si Si2 0.666839 0.158341 0.589053
Si Si3 0.657109 0.332672 0.326214
Si Si4 0.656093 0.666998 0.776627
Si Si5 0.336548 0.163408 0.137342
Si Si6 0.663223 0.336778 0.500000
O O1 0.258265 0.775852 0.091676
O O2 0.000000 0.772743 0.060101
O O3 0.151908 0.000000 0.051443
O O4 0.214378 0.785623 0.000000
O O5 0.500000 0.155249 0.591658
O O6 0.728069 0.236649 0.634899
O O7 0.714989 0.244752 0.543661
O O8 0.727262 0.000000 0.586927
O O9 0.500000 0.273301 0.335624
O O10 0.650998 0.500000 0.328437
O O11 0.712963 0.287404 0.274693
O O12 0.500000 0.727771 0.785637
O O13 0.650927 0.500000 0.777434
O O14 0.758692 0.724202 0.816904
O O15 0.500000 0.194225 0.130045
O O16 0.305680 0.000000 0.144593
O O17 0.500000 0.310682 0.488079
#
# Coordination Sequence:
#
# PCOD8310039 Si02
#       6
#     8   8   8   8   8   4
#     4   8  14  26  43  59  76 103 137 167 198 241
#     4   9  16  25  39  61  86 108 133 169 207 237
#     4   8  13  23  40  59  78 104 138 169 197 235
#     4   8  14  25  41  60  83 111 137 160 194 243
#     4   9  16  26  42  63  83 103 132 170 205 235
#     4   9  16  26  42  63  84 106 134 167 200 236
#
# _framework density 16.963743000000001
#
# number of rings (size 3 to 8) (size 9 to 14) (size 15 to 20)
#    0.000    3.545    0.000    2.182    0.000    2.182 
#    0.000    1.818    0.000    4.091    0.000    5.091 
#    0.000    0.000    0.000    0.000    0.000    0.000 
#
# Total GULP energy -545285.154002 kJ/mol
# GULP energy per Si atom -12392.844409 kJ/mol
# Density = 1.692513 g / cm^3
# Si number density = 16.963743 Si / 1000 Ang^3
#
#
#
# Elastic Constant Matrix: (Units=GPa)
#
#
# Indices 1 2 3 4 5 6 
#
# 1 52.0246 22.3185 60.1485 0.0000 0.0000 0.0000
# 2 22.3185 52.0252 60.1485 0.0000 0.0000 0.0000
# 3 60.1485 60.1485 196.2087 0.0000 0.0000 0.0000
# 4 0.0000 0.0000 0.0000 12.3040 0.0000 0.0000
# 5 0.0000 0.0000 0.0000 0.0000 12.3045 0.0000
# 6 0.0000 0.0000 0.0000 0.0000 0.0000 8.0751
#
#
#
# Elastic Compliance Matrix: (Units=1/GPa)
#
#
# Indices 1 2 3 4 5 6 
#
# 1 0.030177 -0.003486 -0.008182 0.000000 0.000000 0.000000
# 2 -0.003486 0.030177 -0.008182 0.000000 0.000000 0.000000
# 3 -0.008182 -0.008182 0.010113 0.000000 0.000000 0.000000
# 4 0.000000 0.000000 0.000000 0.081274 0.000000 0.000000
# 5 0.000000 0.000000 0.000000 0.000000 0.081271 0.000000
# 6 0.000000 0.000000 0.000000 0.000000 0.000000 0.123837
#
#
# Mechanical properties :
#
#
# Convention : Reuss Voigt Hill
#
# Bulk Modulus (GPa) = 32.50318 65.05439 48.77878
# Shear Modulus (GPa) = 12.29089 17.04627 14.66858
#
# Velocity S-wave (km/s) = 2.69465 3.17340 2.94377
# Velocity P-wave (km/s) = 5.37433 7.20136 6.35386
#
# Compressibility (1/GPa) = 0.03076622
#
# Stress axis : x y z
#
# Youngs Moduli (GPa) = 33.13763 33.13834 98.88092
#
# Poissons Ratio (x) = 0.11552 0.80907
# Poissons Ratio (y) = 0.11552 0.80905
# Poissons Ratio (z) = 0.27114 0.27114
#
# Static dielectric constant tensor:
#      x y z
#    x 2.939270 0.000000 0.000000 
#    y 0.000000 2.939260 0.000000 
#    z 0.000000 0.000000 3.655740 
# 
# 
# High freq. dielectric constant tensor:
#      x y z
#    x 1.611120 0.000000 0.000000 
#    y 0.000000 1.611120 0.000000 
#    z 0.000000 0.000000 1.673390 
# 
# From -- ./inp_files/5784.got.cif
#   From: 2010.03.12/outbox.cif.g09.slc.cpg/sg115_3_cif.got.tgz:5784.got - 2010.04.14 02:11:21.
