data_PCOD8310025
_publ_section_title
;
Structure prediction by ZEFSAII (Michael W. Deem and Ramdas Pophale) SiO2 
 PCOD8310025
Probable space group: P -4 M 2
;
_chemical_formula_sum "Si O2"
_cell_formula_units_Z 44
_cell_length_a 9.447964
_cell_length_b 9.447964
_cell_length_c 28.641055
_cell_angle_alpha 90.000000
_cell_angle_beta 90.000000
_cell_angle_gamma 90.000000
_cell_volume 2556.615814
_symmetry_space_group_name_H-M "P -4 M 2"
_symmetry_group_IT_number 115
_symmetry_cell_setting 'tetragonal'
loop_
_space_group_symop_operation_xyz
x,y,z
y,-x,-z
-x,-y,z
-y,x,-z
y,x,-z
-y,-x,-z
-x,y,z
x,-y,z
loop_
_atom_site_type_symbol
_atom_site_label
_atom_site_fract_x
_atom_site_fract_y
_atom_site_fract_z
Si Si1 0.331473 0.657859 0.051349
Si Si2 0.668383 0.159372 0.589319
Si Si3 0.658062 0.331377 0.325382
Si Si4 0.657781 0.668470 0.777449
Si Si5 0.330945 0.159186 0.136973
Si Si6 0.664617 0.335384 0.500000
O O1 0.500000 0.651794 0.053147
O O2 0.271054 0.500000 0.060529
O O3 0.271476 0.762242 0.090958
O O4 0.285644 0.714357 0.000000
O O5 0.500000 0.157948 0.591466
O O6 0.729964 0.236169 0.635470
O O7 0.718723 0.245712 0.544053
O O8 0.728784 0.000000 0.587119
O O9 0.500000 0.271183 0.334635
O O10 0.652045 0.500000 0.327606
O O11 0.713888 0.285959 0.273937
O O12 0.500000 0.729112 0.786614
O O13 0.651492 0.500000 0.779424
O O14 0.762367 0.728564 0.816989
O O15 0.500000 0.160698 0.136975
O O16 0.271964 0.000000 0.136955
O O17 0.500000 0.308105 0.488982
#
# Coordination Sequence:
#
# PCOD8310025 Si02
#       6
#     8   8   8   8   8   4
#     4   8  13  21  33  49  71 101 133 159 186 229
#     4   9  16  25  39  61  86 108 133 169 207 237
#     4   8  13  22  37  57  80 106 136 166 196 235
#     4   8  13  21  34  52  75 104 133 157 185 229
#     4   9  15  21  31  51  79 104 124 155 201 240
#     4   9  16  26  42  63  86 112 138 163 196 240
#
# _framework density 17.210249999999998
#
# number of rings (size 3 to 8) (size 9 to 14) (size 15 to 20)
#    0.000    3.545    0.000    2.727    0.000    4.364 
#    0.000    0.000    0.000    1.364    0.000    6.364 
#    0.000   10.545    0.000    0.000    0.000    0.000 
#
# Total GULP energy -545278.862200 kJ/mol
# GULP energy per Si atom -12392.701414 kJ/mol
# Density = 1.717108 g / cm^3
# Si number density = 17.210250 Si / 1000 Ang^3
#
#
#
# Elastic Constant Matrix: (Units=GPa)
#
#
# Indices 1 2 3 4 5 6 
#
# 1 59.7428 19.3285 59.6145 0.0000 0.0000 0.0000
# 2 19.3285 59.7432 59.6144 0.0000 0.0000 0.0000
# 3 59.6145 59.6144 196.2236 0.0000 0.0000 0.0000
# 4 0.0000 0.0000 0.0000 3.6554 0.0000 0.0000
# 5 0.0000 0.0000 0.0000 0.0000 3.6554 0.0000
# 6 0.0000 0.0000 0.0000 0.0000 0.0000 4.3440
#
#
#
# Elastic Compliance Matrix: (Units=1/GPa)
#
#
# Indices 1 2 3 4 5 6 
#
# 1 0.024041 -0.000703 -0.007090 0.000000 0.000000 0.000000
# 2 -0.000703 0.024041 -0.007090 0.000000 0.000000 0.000000
# 3 -0.007090 -0.007090 0.009404 0.000000 0.000000 0.000000
# 4 0.000000 0.000000 0.000000 0.273566 0.000000 0.000000
# 5 0.000000 0.000000 0.000000 0.000000 0.273565 0.000000
# 6 0.000000 0.000000 0.000000 0.000000 0.000000 0.230201
#
#
# Mechanical properties :
#
#
# Convention : Reuss Voigt Hill
#
# Bulk Modulus (GPa) = 36.07610 65.86940 50.97275
# Shear Modulus (GPa) = 5.72197 14.14111 9.93154
#
# Velocity S-wave (km/s) = 1.82537 2.86959 2.40484
# Velocity P-wave (km/s) = 5.04481 7.02394 6.11498
#
# Compressibility (1/GPa) = 0.02771918
#
# Stress axis : x y z
#
# Youngs Moduli (GPa) = 41.59575 41.59622 106.33314
#
# Poissons Ratio (x) = 0.02924 0.75394
# Poissons Ratio (y) = 0.02924 0.75393
# Poissons Ratio (z) = 0.29493 0.29493
#
# Static dielectric constant tensor:
#      x y z
#    x 2.863020 0.000000 0.000000 
#    y 0.000000 2.863010 0.000000 
#    z 0.000000 0.000000 3.658620 
# 
# 
# High freq. dielectric constant tensor:
#      x y z
#    x 1.608590 0.000000 0.000000 
#    y 0.000000 1.608590 0.000000 
#    z 0.000000 0.000000 1.686820 
# 
# From -- ./inp_files/5785.got.cif
#   From: 2010.03.12/outbox.cif.g09.slc.cpg/sg115_3_cif.got.tgz:5785.got - 2010.04.14 02:11:21.
