data_PCOD8310905
_publ_section_title
;
Structure prediction by ZEFSAII (Michael W. Deem and Ramdas Pophale) SiO2 
 PCOD8310905
Probable space group: I -4 M 2
;
_chemical_formula_sum "Si O2"
_cell_formula_units_Z 96
_cell_length_a 17.789042
_cell_length_b 17.789042
_cell_length_c 16.462927
_cell_angle_alpha 90.000000
_cell_angle_beta 90.000000
_cell_angle_gamma 90.000000
_cell_volume 5209.693501
_symmetry_space_group_name_H-M "I -4 M 2"
_symmetry_group_IT_number 119
_symmetry_cell_setting 'tetragonal'
loop_
_space_group_symop_operation_xyz
x,y,z
y,-x,-z
-x,-y,z
-y,x,-z
y,x,-z
-y,-x,-z
-x,y,z
x,-y,z
1/2+x,1/2+y,1/2+z
1/2+y,1/2-x,1/2-z
1/2-x,1/2-y,1/2+z
1/2-y,1/2+x,1/2-z
1/2+y,1/2+x,1/2-z
1/2-y,1/2-x,1/2-z
1/2-x,1/2+y,1/2+z
1/2+x,1/2-y,1/2+z
loop_
_atom_site_type_symbol
_atom_site_label
_atom_site_fract_x
_atom_site_fract_y
_atom_site_fract_z
Si Si1 0.413686 0.760591 0.996627
Si Si2 0.417829 0.139746 0.511653
Si Si3 0.821884 0.816302 0.188586
Si Si4 0.319080 0.082143 0.807535
Si Si5 0.298560 0.301832 0.871352
Si Si6 0.807033 0.914839 0.048432
O O1 0.500000 0.732137 0.990464
O O2 0.414896 0.850319 0.014510
O O3 0.368683 0.742588 0.912867
O O4 0.372102 0.721644 0.071947
O O5 0.500000 0.112829 0.478323
O O6 0.421058 0.137046 0.608610
O O7 0.399313 0.221993 0.477703
O O8 0.897698 0.767895 0.175525
O O9 0.754908 0.769680 0.144993
O O10 0.817944 0.835239 0.283547
O O11 0.821334 0.896224 0.143378
O O12 0.353876 0.146125 0.750000
O O13 0.323752 0.000000 0.765413
O O14 0.830613 0.000000 0.031695
O O15 0.859923 0.859923 0.000000
#
# Coordination Sequence:
#
# PCOD8310905 Si02
#       6
#    16  16  16  16  16  16
#     4  11  21  37  60  84 115 148 188 236 282 342
#     4  10  20  34  53  80 112 149 188 225 275 340
#     4  11  19  37  60  81 111 149 191 243 276 337
#     4  11  21  33  52  82 115 151 186 225 282 338
#     4  10  21  36  58  86 109 143 193 239 282 332
#     4  11  21  35  58  83 114 150 189 239 289 337
#
# _framework density 18.427188000000001
#
# number of rings (size 3 to 8) (size 9 to 14) (size 15 to 20)
#    0.000    1.333    6.667    0.000    0.000    4.000 
#    0.000    1.667    0.000    4.000    0.000    4.667 
#    0.000    0.000    0.000    0.000    0.000    0.000 
#
# Total GULP energy -594870.977990 kJ/mol
# GULP energy per Si atom -12393.145375 kJ/mol
# Density = 1.838525 g / cm^3
# Si number density = 18.427188 Si / 1000 Ang^3
#
#
#
# Elastic Constant Matrix: (Units=GPa)
#
#
# Indices 1 2 3 4 5 6 
#
# 1 46.0027 49.1716 21.8042 0.0000 0.0000 0.0000
# 2 49.1716 46.0063 21.8063 0.0000 0.0000 0.0000
# 3 21.8042 21.8063 92.8111 0.0000 0.0000 0.0000
# 4 0.0000 0.0000 0.0000 17.0059 0.0000 0.0000
# 5 0.0000 0.0000 0.0000 0.0000 17.0059 0.0000
# 6 0.0000 0.0000 0.0000 0.0000 0.0000 19.4285
#
#
#
# Elastic Compliance Matrix: (Units=1/GPa)
#
#
# Indices 1 2 3 4 5 6 
#
# 1 -0.151991 0.163761 -0.002769 0.000000 0.000000 0.000000
# 2 0.163761 -0.151981 -0.002764 0.000000 0.000000 0.000000
# 3 -0.002769 -0.002764 0.012074 0.000000 0.000000 0.000000
# 4 0.000000 0.000000 0.000000 0.058803 0.000000 0.000000
# 5 0.000000 0.000000 0.000000 0.000000 0.058803 0.000000
# 6 0.000000 0.000000 0.000000 0.000000 0.000000 0.051471
#
#
# Mechanical properties :
#
#
# Convention : Reuss Voigt Hill
#
# Bulk Modulus (GPa) = 40.71998 41.15383 40.93690
# Shear Modulus (GPa) = -11.59848 16.82393 2.61273
#
# Velocity S-wave (km/s) = -2.51155 3.02486 1.19203
# Velocity P-wave (km/s) = 3.70611 5.88059 4.91511
#
# Compressibility (1/GPa) = 0.02455797
#
# Stress axis : x y z
#
# Youngs Moduli (GPa) = -6.57933 -6.57976 82.81980
#
# Poissons Ratio (x) = 1.07750 0.22930
# Poissons Ratio (y) = 1.07744 0.22891
# Poissons Ratio (z) = -0.01822 -0.01819
#
# Static dielectric constant tensor:
#      x y z
#    x 3.402890 0.000000 0.000000 
#    y 0.000000 3.402880 0.000000 
#    z 0.000000 0.000000 4.091470 
# 
# 
# High freq. dielectric constant tensor:
#      x y z
#    x 1.700270 0.000000 0.000000 
#    y 0.000000 1.700270 0.000000 
#    z 0.000000 0.000000 1.715900 
# 
# From -- ./inp_files/6605.got.cif
#   From: 2010.03.12/outbox.cif.g09.slc.cpg/sg119_4_cif.got.tgz:6605.got - 2010.04.14 02:25:26.
