data_PCOD8310494
_publ_section_title
;
Structure prediction by ZEFSAII (Michael W. Deem and Ramdas Pophale) SiO2 
 PCOD8310494
Probable space group: P -4 N 2
;
_chemical_formula_sum "Si O2"
_cell_formula_units_Z 34
_cell_length_a 8.276659
_cell_length_b 8.276659
_cell_length_c 24.086770
_cell_angle_alpha 90.000000
_cell_angle_beta 90.000000
_cell_angle_gamma 90.000000
_cell_volume 1650.018033
_symmetry_space_group_name_H-M "P -4 N 2"
_symmetry_group_IT_number 118
_symmetry_cell_setting 'tetragonal'
loop_
_space_group_symop_operation_xyz
x,y,z
y,-x,-z
-x,-y,z
-y,x,-z
1/2+y,1/2+x,1/2-z
1/2-y,1/2-x,1/2-z
1/2-x,1/2+y,1/2+z
1/2+x,1/2-y,1/2+z
loop_
_atom_site_type_symbol
_atom_site_label
_atom_site_fract_x
_atom_site_fract_y
_atom_site_fract_z
Si Si1 0.048683 0.181100 0.821526
Si Si2 0.778030 0.877507 0.514400
Si Si3 0.853065 0.407384 0.377378
Si Si4 0.884095 0.136602 0.934096
Si Si5 0.500000 0.000000 0.250000
O O1 0.242664 0.174426 0.830036
O O2 0.997528 0.330978 0.783282
O O3 0.973096 0.218665 0.881601
O O4 0.000000 0.000000 0.799179
O O5 0.727922 0.905314 0.578120
O O6 0.647933 0.769604 0.481249
O O7 0.950517 0.788678 0.515931
O O8 0.776399 0.553848 0.412094
O O9 0.000000 0.500000 0.346946
O O10 0.000000 0.000000 0.959921
#
# Coordination Sequence:
#
# PCOD8310494 Si02
#       5
#     8   8   8   8   2
#     4   9  24  45  67 101 126 168 231 279 347 407
#     4  11  23  34  55  97 134 177 223 258 327 395
#     4  10  20  38  60  88 132 172 215 266 328 402
#     4   9  21  38  59  85 128 168 216 270 319 391
#     4  12  24  52  78  98 128 176 224 302 356 396
#
# _framework density 20.605833000000001
#
# number of rings (size 3 to 8) (size 9 to 14) (size 15 to 20)
#    0.000    2.588    2.353    0.000    9.882    0.941 
#    8.471    0.000    0.000    0.000    0.000    0.000 
#    0.000    0.000    0.000    0.000    0.000    0.000 
#
# Total GULP energy -421233.909815 kJ/mol
# GULP energy per Si atom -12389.232642 kJ/mol
# Density = 2.055893 g / cm^3
# Si number density = 20.605833 Si / 1000 Ang^3
#
#
#
# Elastic Constant Matrix: (Units=GPa)
#
#
# Indices 1 2 3 4 5 6 
#
# 1 125.9917 65.3513 48.4484 0.0000 0.0000 0.0000
# 2 65.3513 125.9917 48.4484 0.0000 0.0000 0.0000
# 3 48.4484 48.4484 75.8953 0.0000 0.0000 0.0000
# 4 0.0000 0.0000 0.0000 435.5544 0.0000 0.0000
# 5 0.0000 0.0000 0.0000 0.0000 435.5544 0.0000
# 6 0.0000 0.0000 0.0000 0.0000 0.0000 31.7818
#
#
#
# Elastic Compliance Matrix: (Units=1/GPa)
#
#
# Indices 1 2 3 4 5 6 
#
# 1 0.012107 -0.004384 -0.004930 0.000000 0.000000 0.000000
# 2 -0.004384 0.012107 -0.004930 0.000000 0.000000 0.000000
# 3 -0.004930 -0.004930 0.019470 0.000000 0.000000 0.000000
# 4 0.000000 0.000000 0.000000 0.002296 0.000000 0.000000
# 5 0.000000 0.000000 0.000000 0.000000 0.002296 0.000000
# 6 0.000000 0.000000 0.000000 0.000000 0.000000 0.031465
#
#
# Mechanical properties :
#
#
# Convention : Reuss Voigt Hill
#
# Bulk Modulus (GPa) = 65.80645 72.48608 69.14627
# Shear Modulus (GPa) = 44.13351 191.62016 117.87684
#
# Velocity S-wave (km/s) = 4.63298 9.65376 7.57164
# Velocity P-wave (km/s) = 7.78617 12.62988 10.49139
#
# Compressibility (1/GPa) = 0.01519608
#
# Stress axis : x y z
#
# Youngs Moduli (GPa) = 82.59899 82.59899 51.36088
#
# Poissons Ratio (x) = 0.36211 0.25320
# Poissons Ratio (y) = 0.36211 0.25320
# Poissons Ratio (z) = 0.40720 0.40720
#
# Static dielectric constant tensor:
#      x y z
#    x 2.927730 0.000000 0.000000 
#    y 0.000000 2.927730 0.000000 
#    z 0.000000 0.000000 3.363710 
# 
# 
# High freq. dielectric constant tensor:
#      x y z
#    x 1.813330 0.000000 0.000000 
#    y 0.000000 1.813330 0.000000 
#    z 0.000000 0.000000 1.772830 
# 
# From -- ./inp_files/6393.got.cif
#   From: 2010.03.12/outbox.cif.g09.slc.cpg/sg118_4_cif.got.tgz:6393.got - 2010.04.14 02:21:17.
