data_PCOD8311935
_publ_section_title
;
Structure prediction by ZEFSAII (Michael W. Deem and Ramdas Pophale) SiO2 
 PCOD8311935
Probable space group: I -4 2 D
;
_chemical_formula_sum "Si O2"
_cell_formula_units_Z 80
_cell_length_a 12.093501
_cell_length_b 12.093501
_cell_length_c 27.106152
_cell_angle_alpha 90.000000
_cell_angle_beta 90.000000
_cell_angle_gamma 90.000000
_cell_volume 3964.349717
_symmetry_space_group_name_H-M "I -4 2 D"
_symmetry_group_IT_number 122
_symmetry_cell_setting 'tetragonal'
loop_
_space_group_symop_operation_xyz
x,y,z
y,-x,-z
-x,-y,z
-y,x,-z
x,1/2-y,1/4-z
-x,1/2+y,1/4-z
-y,1/2-x,1/4+z
y,1/2+x,1/4+z
1/2+x,1/2+y,1/2+z
1/2+y,1/2-x,1/2-z
1/2-x,1/2-y,1/2+z
1/2-y,1/2+x,1/2-z
1/2+x,-y,3/4-z
1/2-x,y,3/4-z
1/2-y,-x,3/4+z
1/2+y,x,3/4+z
loop_
_atom_site_type_symbol
_atom_site_label
_atom_site_fract_x
_atom_site_fract_y
_atom_site_fract_z
Si Si1 0.500000 0.000000 0.163297
Si Si2 0.123635 0.189546 0.360725
Si Si3 0.250000 0.724169 0.375000
Si Si4 0.603422 0.306530 0.237236
Si Si5 0.882721 0.803952 0.539188
Si Si6 0.962770 0.375656 0.403493
O O1 0.427109 0.918087 0.130830
O O2 0.581983 0.927743 0.196263
O O3 0.250000 0.206849 0.375000
O O4 0.115923 0.173093 0.300675
O O5 0.056609 0.291893 0.383888
O O6 0.251590 0.802727 0.421759
O O7 0.143479 0.646256 0.369694
O O8 0.482156 0.280514 0.216452
O O9 0.674056 0.191858 0.240530
O O10 0.579825 0.361300 0.290253
O O11 0.000000 0.500000 0.394943
#
# Coordination Sequence:
#
# PCOD8311935 Si02
#       6
#     8  16   8  16  16  16
#     4  12  20  37  64 100 148 168 210 282 359 418
#     4  12  24  41  66 105 136 179 223 283 355 425
#     4  10  22  44  64  84 130 176 216 268 340 394
#     4  11  22  37  67 100 132 175 222 276 352 423
#     4  11  20  38  61 100 137 169 211 279 348 414
#     4  11  27  46  66  93 130 184 229 283 331 408
#
# _framework density 20.179853000000001
#
# number of rings (size 3 to 8) (size 9 to 14) (size 15 to 20)
#    0.000    0.800    6.000    3.600    2.800    0.000 
#    0.000    0.000    0.000    0.000    0.000    0.000 
#    0.000    0.000    0.000    0.000    0.000    0.000 
#
# Total GULP energy -495751.456458 kJ/mol
# GULP energy per Si atom -12393.786411 kJ/mol
# Density = 2.013392 g / cm^3
# Si number density = 20.179853 Si / 1000 Ang^3
#
#
#
# Elastic Constant Matrix: (Units=GPa)
#
#
# Indices 1 2 3 4 5 6 
#
# 1 107.9166 47.5912 31.2545 0.0000 0.0000 0.0000
# 2 47.5912 107.9166 31.2545 0.0000 0.0000 0.0000
# 3 31.2545 31.2545 87.3734 0.0000 0.0000 0.0000
# 4 0.0000 0.0000 0.0000 20.3015 0.0000 0.0000
# 5 0.0000 0.0000 0.0000 0.0000 20.3015 0.0000
# 6 0.0000 0.0000 0.0000 0.0000 0.0000 40.4712
#
#
#
# Elastic Compliance Matrix: (Units=1/GPa)
#
#
# Indices 1 2 3 4 5 6 
#
# 1 0.012044 -0.004533 -0.002687 0.000000 0.000000 0.000000
# 2 -0.004533 0.012044 -0.002687 0.000000 0.000000 0.000000
# 3 -0.002687 -0.002687 0.013367 0.000000 0.000000 0.000000
# 4 0.000000 0.000000 0.000000 0.049257 0.000000 0.000000
# 5 0.000000 0.000000 0.000000 0.000000 0.049257 0.000000
# 6 0.000000 0.000000 0.000000 0.000000 0.000000 0.024709
#
#
# Mechanical properties :
#
#
# Convention : Reuss Voigt Hill
#
# Bulk Modulus (GPa) = 56.68363 58.15632 57.41998
# Shear Modulus (GPa) = 26.82813 29.08858 27.95835
#
# Velocity S-wave (km/s) = 3.65012 3.80078 3.72621
# Velocity P-wave (km/s) = 6.77604 6.93850 6.85775
#
# Compressibility (1/GPa) = 0.01764178
#
# Stress axis : x y z
#
# Youngs Moduli (GPa) = 83.03154 83.03154 74.81010
#
# Poissons Ratio (x) = 0.37639 0.20098
# Poissons Ratio (y) = 0.37639 0.20098
# Poissons Ratio (z) = 0.22307 0.22307
#
# Static dielectric constant tensor:
#      x y z
#    x 3.774160 0.000000 0.000000 
#    y 0.000000 3.774160 0.000000 
#    z 0.000000 0.000000 4.182490 
# 
# 
# High freq. dielectric constant tensor:
#      x y z
#    x 1.785130 0.000000 0.000000 
#    y 0.000000 1.785130 0.000000 
#    z 0.000000 0.000000 1.793130 
# 
# From -- ./inp_files/9418.got.cif
#   From: 2010.03.12/outbox.cif.g09.slc.cpg/sg122_5_cif.got.tgz:9418.got - 2010.04.06 16:17:16.
