data_PCOD8311800
_publ_section_title
;
Structure prediction by ZEFSAII (Michael W. Deem and Ramdas Pophale) SiO2 
 PCOD8311800
Probable space group: I -4 2 D
;
_chemical_formula_sum "Si O2"
_cell_formula_units_Z 72
_cell_length_a 22.978415
_cell_length_b 22.978415
_cell_length_c 7.335229
_cell_angle_alpha 90.000000
_cell_angle_beta 90.000000
_cell_angle_gamma 90.000000
_cell_volume 3873.056336
_symmetry_space_group_name_H-M "I -4 2 D"
_symmetry_group_IT_number 122
_symmetry_cell_setting 'tetragonal'
loop_
_space_group_symop_operation_xyz
x,y,z
y,-x,-z
-x,-y,z
-y,x,-z
x,1/2-y,1/4-z
-x,1/2+y,1/4-z
-y,1/2-x,1/4+z
y,1/2+x,1/4+z
1/2+x,1/2+y,1/2+z
1/2+y,1/2-x,1/2-z
1/2-x,1/2-y,1/2+z
1/2-y,1/2+x,1/2-z
1/2+x,-y,3/4-z
1/2-x,y,3/4-z
1/2-y,-x,3/4+z
1/2+y,x,3/4+z
loop_
_atom_site_type_symbol
_atom_site_label
_atom_site_fract_x
_atom_site_fract_y
_atom_site_fract_z
Si Si1 0.467638 0.635094 0.605199
Si Si2 0.599668 0.250000 0.625000
Si Si3 0.560868 0.433137 0.956196
Si Si4 0.183919 0.783257 0.814282
Si Si5 0.117726 0.900276 0.805259
O O1 0.443857 0.697492 0.656701
O O2 0.440880 0.590933 0.752819
O O3 0.442169 0.617218 0.408175
O O4 0.537733 0.637419 0.609994
O O5 0.640679 0.251078 0.450139
O O6 0.500557 0.423842 0.062517
O O7 0.607954 0.403100 0.087768
O O8 0.174372 0.750000 0.625000
O O9 0.250000 0.775955 0.875000
O O10 0.168152 0.851983 0.822009
#
# Coordination Sequence:
#
# PCOD8311800 Si02
#       5
#    16   8  16  16  16
#     4  10  20  35  55  82 114 144 185 229 288 338
#     4  10  22  38  56  80 112 148 184 244 286 336
#     4   9  17  31  52  78 110 144 176 215 271 341
#     4  11  22  39  60  80 108 150 198 237 286 339
#     4  10  21  34  57  84 113 147 185 233 285 347
#
# _framework density 18.589970000000001
#
# number of rings (size 3 to 8) (size 9 to 14) (size 15 to 20)
#    0.000    2.000    1.111    2.667    1.556    2.222 
#    0.000    0.000    0.000    1.333    0.000    0.000 
#    0.000    0.000    0.000    0.000    0.000    0.000 
#
# Total GULP energy -446211.200163 kJ/mol
# GULP energy per Si atom -12394.755560 kJ/mol
# Density = 1.854766 g / cm^3
# Si number density = 18.589970 Si / 1000 Ang^3
#
#
#
# Elastic Constant Matrix: (Units=GPa)
#
#
# Indices 1 2 3 4 5 6 
#
# 1 53.8924 88.0304 22.1607 0.0000 0.0000 0.0000
# 2 88.0304 53.8924 22.1607 0.0000 0.0000 0.0000
# 3 22.1607 22.1607 69.6477 0.0000 0.0000 0.0000
# 4 0.0000 0.0000 0.0000 22.8025 0.0000 0.0000
# 5 0.0000 0.0000 0.0000 0.0000 22.8025 0.0000
# 6 0.0000 0.0000 0.0000 0.0000 0.0000 114.2151
#
#
#
# Elastic Compliance Matrix: (Units=1/GPa)
#
#
# Indices 1 2 3 4 5 6 
#
# 1 -0.010735 0.018558 -0.002489 0.000000 0.000000 0.000000
# 2 0.018558 -0.010735 -0.002489 0.000000 0.000000 0.000000
# 3 -0.002489 -0.002489 0.015942 0.000000 0.000000 0.000000
# 4 0.000000 0.000000 0.000000 0.043855 0.000000 0.000000
# 5 0.000000 0.000000 0.000000 0.000000 0.043855 0.000000
# 6 0.000000 0.000000 0.000000 0.000000 0.000000 0.008755
#
#
# Mechanical properties :
#
#
# Convention : Reuss Voigt Hill
#
# Bulk Modulus (GPa) = 46.22812 49.12620 47.67716
# Shear Modulus (GPa) = 70.43317 34.96939 52.70128
#
# Velocity S-wave (km/s) = 6.16198 4.34186 5.33018
# Velocity P-wave (km/s) = 8.69183 7.18465 7.97393
#
# Compressibility (1/GPa) = 0.02163186
#
# Stress axis : x y z
#
# Youngs Moduli (GPa) = -93.15592 -93.15592 62.72712
#
# Poissons Ratio (x) = 1.72880 0.15615
# Poissons Ratio (y) = 1.72880 0.15615
# Poissons Ratio (z) = -0.23189 -0.23189
#
# Static dielectric constant tensor:
#      x y z
#    x 3.423920 0.000000 0.000000 
#    y 0.000000 3.423920 0.000000 
#    z 0.000000 0.000000 2.482160 
# 
# 
# High freq. dielectric constant tensor:
#      x y z
#    x 1.720750 0.000000 0.000000 
#    y 0.000000 1.720750 0.000000 
#    z 0.000000 0.000000 1.729790 
# 
# From -- ./inp_files/2646.got.cif
#   From: 2010.03.12/outbox.cif.g09.slc.cpg/sg122_2_cif.got.tgz:2646.got - 2010.04.06 16:17:16.
