data_PCOD8311248
_publ_section_title
;
Structure prediction by ZEFSAII (Michael W. Deem and Ramdas Pophale) SiO2 
 PCOD8311248
Probable space group: I -4 C 2
;
_chemical_formula_sum "Si O2"
_cell_formula_units_Z 96
_cell_length_a 22.568497
_cell_length_b 22.568497
_cell_length_c 8.946058
_cell_angle_alpha 90.000000
_cell_angle_beta 90.000000
_cell_angle_gamma 90.000000
_cell_volume 4556.558852
_symmetry_space_group_name_H-M "I -4 C 2"
_symmetry_group_IT_number 120
_symmetry_cell_setting 'tetragonal'
loop_
_space_group_symop_operation_xyz
x,y,z
y,-x,-z
-x,-y,z
-y,x,-z
y,x,1/2-z
-y,-x,1/2-z
-x,y,1/2+z
x,-y,1/2+z
1/2+x,1/2+y,1/2+z
1/2+y,1/2-x,1/2-z
1/2-x,1/2-y,1/2+z
1/2-y,1/2+x,1/2-z
1/2+y,1/2+x,-z
1/2-y,1/2-x,-z
1/2-x,1/2+y,z
1/2+x,1/2-y,z
loop_
_atom_site_type_symbol
_atom_site_label
_atom_site_fract_x
_atom_site_fract_y
_atom_site_fract_z
Si Si1 0.171687 0.283531 0.847157
Si Si2 0.348354 0.930989 0.302380
Si Si3 0.064314 0.942315 0.076961
Si Si4 0.334815 0.649515 0.498277
Si Si5 0.257958 0.629161 0.222313
Si Si6 0.548879 0.157101 0.363233
O O1 0.109399 0.297705 0.770169
O O2 0.224100 0.307068 0.738082
O O3 0.179058 0.320943 0.000000
O O4 0.172037 0.212691 0.877314
O O5 0.410103 0.898144 0.324736
O O6 0.326473 0.953805 0.462533
O O7 0.359874 0.984221 0.190101
O O8 0.048578 0.951423 0.250000
O O9 0.118613 0.896595 0.065484
O O10 0.006168 0.917472 0.991586
O O11 0.301629 0.617743 0.360578
O O12 0.368462 0.707285 0.434882
O O13 0.214062 0.573829 0.223569
#
# Coordination Sequence:
#
# PCOD8311248 Si02
#       6
#    16  16  16  16  16  16
#     4   9  20  42  62  93 131 180 209 266 331 384
#     4  10  23  40  65  91 132 168 222 264 330 377
#     4  11  26  47  73  96 132 171 216 278 336 389
#     4  10  22  42  66  99 126 173 221 257 321 400
#     4   9  21  42  63  91 137 170 210 268 322 388
#     4  10  23  42  62  96 125 175 214 273 321 386
#
# _framework density 21.068531
#
# number of rings (size 3 to 8) (size 9 to 14) (size 15 to 20)
#    0.000    2.167    0.000    1.000   11.667    3.000 
#   42.000    1.667    0.000    0.000    0.000    0.000 
#    0.000    0.000    0.000    0.000    0.000    0.000 
#
# Total GULP energy -595164.515942 kJ/mol
# GULP energy per Si atom -12399.260749 kJ/mol
# Density = 2.102058 g / cm^3
# Si number density = 21.068531 Si / 1000 Ang^3
#
#
#
# Elastic Constant Matrix: (Units=GPa)
#
#
# Indices 1 2 3 4 5 6 
#
# 1 82.5119 41.4306 43.3549 0.0000 0.0000 0.0000
# 2 41.4306 82.5145 43.3545 0.0000 0.0000 0.0000
# 3 43.3549 43.3545 109.5819 0.0000 0.0000 0.0000
# 4 0.0000 0.0000 0.0000 36.8998 0.0000 0.0000
# 5 0.0000 0.0000 0.0000 0.0000 36.8996 0.0000
# 6 0.0000 0.0000 0.0000 0.0000 0.0000 27.9258
#
#
#
# Elastic Compliance Matrix: (Units=1/GPa)
#
#
# Indices 1 2 3 4 5 6 
#
# 1 0.017749 -0.006593 -0.004414 0.000000 0.000000 0.000000
# 2 -0.006593 0.017748 -0.004414 0.000000 0.000000 0.000000
# 3 -0.004414 -0.004414 0.012618 0.000000 0.000000 0.000000
# 4 0.000000 0.000000 0.000000 0.027100 0.000000 0.000000
# 5 0.000000 0.000000 0.000000 0.000000 0.027101 0.000000
# 6 0.000000 0.000000 0.000000 0.000000 0.000000 0.035809
#
#
# Mechanical properties :
#
#
# Convention : Reuss Voigt Hill
#
# Bulk Modulus (GPa) = 57.88677 58.98758 58.43718
# Shear Modulus (GPa) = 28.61661 30.10962 29.36311
#
# Velocity S-wave (km/s) = 3.68946 3.78448 3.73727
# Velocity P-wave (km/s) = 6.75904 6.86696 6.81321
#
# Compressibility (1/GPa) = 0.01727511
#
# Stress axis : x y z
#
# Youngs Moduli (GPa) = 56.34135 56.34386 79.25162
#
# Poissons Ratio (x) = 0.37145 0.34981
# Poissons Ratio (y) = 0.37144 0.34978
# Poissons Ratio (z) = 0.24869 0.24867
#
# Static dielectric constant tensor:
#      x y z
#    x 3.684480 0.000000 0.000000 
#    y 0.000000 3.684470 0.000000 
#    z 0.000000 0.000000 4.080450 
# 
# 
# High freq. dielectric constant tensor:
#      x y z
#    x 1.817860 0.000000 0.000000 
#    y 0.000000 1.817860 0.000000 
#    z 0.000000 0.000000 1.839830 
# 
# From -- ./inp_files/1533.got.cif
#   From: 2010.03.12/outbox.cif.g09.slc.cpg/sg120_1_cif.got.tgz:1533.got - 2010.04.06 16:00:44.
