data_PCOD8311771
_publ_section_title
;
Structure prediction by ZEFSAII (Michael W. Deem and Ramdas Pophale) SiO2 
 PCOD8311771
Probable space group: I -4 2 D
;
_chemical_formula_sum "Si O2"
_cell_formula_units_Z 96
_cell_length_a 23.129523
_cell_length_b 23.129523
_cell_length_c 9.839620
_cell_angle_alpha 90.000000
_cell_angle_beta 90.000000
_cell_angle_gamma 90.000000
_cell_volume 5263.949078
_symmetry_space_group_name_H-M "I -4 2 D"
_symmetry_group_IT_number 122
_symmetry_cell_setting 'tetragonal'
loop_
_space_group_symop_operation_xyz
x,y,z
y,-x,-z
-x,-y,z
-y,x,-z
x,1/2-y,1/4-z
-x,1/2+y,1/4-z
-y,1/2-x,1/4+z
y,1/2+x,1/4+z
1/2+x,1/2+y,1/2+z
1/2+y,1/2-x,1/2-z
1/2-x,1/2-y,1/2+z
1/2-y,1/2+x,1/2-z
1/2+x,-y,3/4-z
1/2-x,y,3/4-z
1/2-y,-x,3/4+z
1/2+y,x,3/4+z
loop_
_atom_site_type_symbol
_atom_site_label
_atom_site_fract_x
_atom_site_fract_y
_atom_site_fract_z
Si Si1 0.909344 0.692568 0.535830
Si Si2 0.414070 0.829728 0.392477
Si Si3 0.111302 0.195244 0.029846
Si Si4 0.817794 0.535734 0.889831
Si Si5 0.401221 0.806742 0.851048
Si Si6 0.007951 0.681478 0.134717
O O1 0.899784 0.750000 0.625000
O O2 0.862954 0.645061 0.580600
O O3 0.901148 0.711027 0.377957
O O4 0.971886 0.662396 0.561981
O O5 0.442576 0.847140 0.248873
O O6 0.398504 0.762327 0.403727
O O7 0.463714 0.846181 0.500803
O O8 0.122034 0.250000 0.125000
O O9 0.169739 0.158696 0.042600
O O10 0.056774 0.157846 0.087719
O O11 0.750000 0.529168 0.875000
O O12 0.830882 0.585860 0.998826
O O13 0.451847 0.833620 0.760698
O O14 0.001194 0.750000 0.125000
#
# Coordination Sequence:
#
# PCOD8311771 Si02
#       6
#    16  16  16  16  16  16
#     4  11  23  37  56  86 117 144 187 236 284 333
#     4  10  21  37  60  82 112 154 182 232 285 336
#     4  11  23  35  58  87 115 146 186 235 280 335
#     4   9  20  36  57  80 108 147 195 228 268 335
#     4  10  19  37  57  81 113 147 190 227 276 338
#     4   9  18  34  56  78 105 148 195 222 266 328
#
# _framework density 18.237258000000001
#
# number of rings (size 3 to 8) (size 9 to 14) (size 15 to 20)
#    0.000    2.000    3.333    0.000    9.333    0.667 
#    0.000    0.000    0.000    6.000    0.000    0.000 
#    0.000    0.000    0.000    0.000    0.000    0.000 
#
# Total GULP energy -594926.139504 kJ/mol
# GULP energy per Si atom -12394.294573 kJ/mol
# Density = 1.819575 g / cm^3
# Si number density = 18.237258 Si / 1000 Ang^3
#
#
#
# Elastic Constant Matrix: (Units=GPa)
#
#
# Indices 1 2 3 4 5 6 
#
# 1 66.7979 32.6699 36.1936 0.0000 0.0000 0.0000
# 2 32.6699 66.7979 36.1936 0.0000 0.0000 0.0000
# 3 36.1936 36.1936 140.0049 0.0000 0.0000 0.0000
# 4 0.0000 0.0000 0.0000 25.3024 0.0000 0.0000
# 5 0.0000 0.0000 0.0000 0.0000 25.3024 0.0000
# 6 0.0000 0.0000 0.0000 0.0000 0.0000 8.9347
#
#
#
# Elastic Compliance Matrix: (Units=1/GPa)
#
#
# Indices 1 2 3 4 5 6 
#
# 1 0.020842 -0.008459 -0.003201 0.000000 0.000000 0.000000
# 2 -0.008459 0.020842 -0.003201 0.000000 0.000000 0.000000
# 3 -0.003201 -0.003201 0.008798 0.000000 0.000000 0.000000
# 4 0.000000 0.000000 0.000000 0.039522 0.000000 0.000000
# 5 0.000000 0.000000 0.000000 0.000000 0.039522 0.000000
# 6 0.000000 0.000000 0.000000 0.000000 0.000000 0.111924
#
#
# Mechanical properties :
#
#
# Convention : Reuss Voigt Hill
#
# Bulk Modulus (GPa) = 48.17158 53.74610 50.95884
# Shear Modulus (GPa) = 17.97960 23.14412 20.56186
#
# Velocity S-wave (km/s) = 3.14327 3.56625 3.36142
# Velocity P-wave (km/s) = 6.29640 6.81850 6.56265
#
# Compressibility (1/GPa) = 0.02075913
#
# Stress axis : x y z
#
# Youngs Moduli (GPa) = 47.97927 47.97927 113.66516
#
# Poissons Ratio (x) = 0.40586 0.36387
# Poissons Ratio (y) = 0.40586 0.36387
# Poissons Ratio (z) = 0.15359 0.15359
#
# Static dielectric constant tensor:
#      x y z
#    x 3.312650 0.000000 0.000000 
#    y 0.000000 3.312650 0.000000 
#    z 0.000000 0.000000 3.580870 
# 
# 
# High freq. dielectric constant tensor:
#      x y z
#    x 1.685630 0.000000 0.000000 
#    y 0.000000 1.685630 0.000000 
#    z 0.000000 0.000000 1.731450 
# 
# From -- ./inp_files/2899.got.cif
#   From: 2010.03.12/outbox.cif.g09.slc.cpg/sg122_2_cif.got.tgz:2899.got - 2010.04.06 16:17:16.
