data_PCOD8311768
_publ_section_title
;
Structure prediction by ZEFSAII (Michael W. Deem and Ramdas Pophale) SiO2 
 PCOD8311768
Probable space group: I -4 2 D
;
_chemical_formula_sum "Si O2"
_cell_formula_units_Z 120
_cell_length_a 20.511521
_cell_length_b 20.511521
_cell_length_c 13.681217
_cell_angle_alpha 90.000000
_cell_angle_beta 90.000000
_cell_angle_gamma 90.000000
_cell_volume 5755.995734
_symmetry_space_group_name_H-M "I -4 2 D"
_symmetry_group_IT_number 122
_symmetry_cell_setting 'tetragonal'
loop_
_space_group_symop_operation_xyz
x,y,z
y,-x,-z
-x,-y,z
-y,x,-z
x,1/2-y,1/4-z
-x,1/2+y,1/4-z
-y,1/2-x,1/4+z
y,1/2+x,1/4+z
1/2+x,1/2+y,1/2+z
1/2+y,1/2-x,1/2-z
1/2-x,1/2-y,1/2+z
1/2-y,1/2+x,1/2-z
1/2+x,-y,3/4-z
1/2-x,y,3/4-z
1/2-y,-x,3/4+z
1/2+y,x,3/4+z
loop_
_atom_site_type_symbol
_atom_site_label
_atom_site_fract_x
_atom_site_fract_y
_atom_site_fract_z
Si Si1 0.635405 0.676489 0.327444
Si Si2 0.240717 0.759414 0.480182
Si Si3 0.672440 0.362288 0.456657
Si Si4 0.250000 0.977840 0.875000
Si Si5 0.602785 0.226981 0.938316
Si Si6 0.900231 0.004669 0.539157
Si Si7 0.526739 0.745366 0.017722
Si Si8 0.166677 0.054234 0.712569
O O1 0.700980 0.720192 0.312910
O O2 0.634335 0.643053 0.434212
O O3 0.575131 0.725346 0.313083
O O4 0.629090 0.616548 0.254119
O O5 0.250000 0.795694 0.375000
O O6 0.266776 0.686313 0.466208
O O7 0.163916 0.751956 0.503468
O O8 0.697123 0.433860 0.430195
O O9 0.620174 0.336655 0.377084
O O10 0.208466 0.019579 0.797473
O O11 0.580787 0.283531 0.866379
O O12 0.541786 0.214577 0.010119
O O13 0.888305 0.989252 0.655735
O O14 0.931928 0.945157 0.477286
O O15 0.830679 0.018868 0.495546
O O16 0.557009 0.750000 0.125000
#
# Coordination Sequence:
#
# PCOD8311768 Si02
#       8
#    16  16  16   8  16  16  16  16
#     4  12  23  37  65  96 129 176 222 271 354 410
#     4  10  19  36  63  92 130 162 209 286 338 401
#     4  11  21  39  62  95 130 168 216 276 336 409
#     4  12  24  42  60 100 134 172 224 272 350 420
#     4  10  21  41  58  94 129 165 211 274 338 398
#     4  10  23  44  65  89 128 178 230 278 337 415
#     4  11  25  38  61  96 130 168 219 283 340 411
#     4  11  23  40  67  91 130 179 217 274 343 421
#
# _framework density 20.847826999999999
#
# number of rings (size 3 to 8) (size 9 to 14) (size 15 to 20)
#    0.000    1.200    4.667    4.000    3.733    2.133 
#    0.000    0.000    0.000    0.000    0.000    1.867 
#    0.000    0.000    0.000    0.000    0.000    0.000 
#
# Total GULP energy -743586.631458 kJ/mol
# GULP energy per Si atom -12393.110524 kJ/mol
# Density = 2.080038 g / cm^3
# Si number density = 20.847827 Si / 1000 Ang^3
#
#
#
# Elastic Constant Matrix: (Units=GPa)
#
#
# Indices 1 2 3 4 5 6 
#
# 1 99.2315 29.2628 14.0929 0.0000 0.0000 0.0000
# 2 29.2628 99.2315 14.0929 0.0000 0.0000 0.0000
# 3 14.0929 14.0929 77.0666 0.0000 0.0000 0.0000
# 4 0.0000 0.0000 0.0000 31.7458 0.0000 0.0000
# 5 0.0000 0.0000 0.0000 0.0000 31.7458 0.0000
# 6 0.0000 0.0000 0.0000 0.0000 0.0000 30.9223
#
#
#
# Elastic Compliance Matrix: (Units=1/GPa)
#
#
# Indices 1 2 3 4 5 6 
#
# 1 0.011200 -0.003092 -0.001483 0.000000 0.000000 0.000000
# 2 -0.003092 0.011200 -0.001483 0.000000 0.000000 0.000000
# 3 -0.001483 -0.001483 0.013518 0.000000 0.000000 0.000000
# 4 0.000000 0.000000 0.000000 0.031500 0.000000 0.000000
# 5 0.000000 0.000000 0.000000 0.000000 0.031500 0.000000
# 6 0.000000 0.000000 0.000000 0.000000 0.000000 0.032339
#
#
# Mechanical properties :
#
#
# Convention : Reuss Voigt Hill
#
# Bulk Modulus (GPa) = 42.01175 43.38079 42.69627
# Shear Modulus (GPa) = 33.04549 33.42152 33.23350
#
# Velocity S-wave (km/s) = 3.98563 4.00824 3.99695
# Velocity P-wave (km/s) = 6.43239 6.50191 6.46724
#
# Compressibility (1/GPa) = 0.02380287
#
# Stress axis : x y z
#
# Youngs Moduli (GPa) = 89.28664 89.28664 73.97528
#
# Poissons Ratio (x) = 0.27609 0.10968
# Poissons Ratio (y) = 0.27609 0.10968
# Poissons Ratio (z) = 0.13238 0.13238
#
# Static dielectric constant tensor:
#      x y z
#    x 3.871960 0.000000 0.000000 
#    y 0.000000 3.871960 0.000000 
#    z 0.000000 0.000000 4.345630 
# 
# 
# High freq. dielectric constant tensor:
#      x y z
#    x 1.806930 0.000000 0.000000 
#    y 0.000000 1.806930 0.000000 
#    z 0.000000 0.000000 1.825730 
# 
# From -- ./inp_files/5591.got.cif
#   From: 2010.03.12/outbox.cif.g09.slc.cpg/sg122_3_cif.got.tgz:5591.got - 2010.04.06 16:17:16.
