data_PCOD8311440
_publ_section_title
;
Structure prediction by ZEFSAII (Michael W. Deem and Ramdas Pophale) SiO2 
 PCOD8311440
Probable space group: I -4 2 M
;
_chemical_formula_sum "Si O2"
_cell_formula_units_Z 80
_cell_length_a 11.490105
_cell_length_b 11.490105
_cell_length_c 32.897561
_cell_angle_alpha 90.000000
_cell_angle_beta 90.000000
_cell_angle_gamma 90.000000
_cell_volume 4343.218672
_symmetry_space_group_name_H-M "I -4 2 M"
_symmetry_group_IT_number 121
_symmetry_cell_setting 'tetragonal'
loop_
_space_group_symop_operation_xyz
x,y,z
y,-x,-z
-x,-y,z
-y,x,-z
x,-y,-z
-x,y,-z
-y,-x,z
y,x,z
1/2+x,1/2+y,1/2+z
1/2+y,1/2-x,1/2-z
1/2-x,1/2-y,1/2+z
1/2-y,1/2+x,1/2-z
1/2+x,1/2-y,1/2-z
1/2-x,1/2+y,1/2-z
1/2-y,1/2-x,1/2+z
1/2+y,1/2+x,1/2+z
loop_
_atom_site_type_symbol
_atom_site_label
_atom_site_fract_x
_atom_site_fract_y
_atom_site_fract_z
Si Si1 0.189442 0.994879 0.454183
Si Si2 0.737437 0.552109 0.174474
Si Si3 0.979811 0.629091 0.166891
Si Si4 0.688136 0.503497 0.736054
Si Si5 0.875357 0.308386 0.612853
O O1 0.133232 0.866769 0.444615
O O2 0.238574 0.000000 0.500000
O O3 0.295298 0.031525 0.424241
O O4 0.087510 0.087510 0.448564
O O5 0.614722 0.614722 0.166131
O O6 0.841508 0.636599 0.158332
O O7 0.753604 0.524085 0.222013
O O8 0.739227 0.430318 0.150959
O O9 0.017160 0.722868 0.199720
O O10 0.000000 0.500000 0.184965
O O11 0.056338 0.644640 0.125361
O O12 0.585101 0.414900 0.728174
O O13 0.634432 0.634432 0.736567
O O14 0.751514 0.248487 0.602230
#
# Coordination Sequence:
#
# PCOD8311440 Si02
#       5
#    16  16  16  16  16
#     4   8  14  26  47  76 107 136 166 203 248 298
#     4  10  21  33  48  67  91 127 170 213 254 294
#     4  10  22  33  47  67  97 130 164 200 251 305
#     4  10  21  36  52  69  90 123 173 224 259 290
#     4  10  19  31  50  74 101 129 160 201 249 302
#
# _framework density 18.419519999999999
#
# number of rings (size 3 to 8) (size 9 to 14) (size 15 to 20)
#    0.000    2.400    0.000    3.000    5.600    2.000 
#    0.000    0.000    0.000    5.400    0.000    0.000 
#    0.000    0.000    0.000    0.000    0.000  182.600 
#
# Total GULP energy -495670.824283 kJ/mol
# GULP energy per Si atom -12391.770607 kJ/mol
# Density = 1.837760 g / cm^3
# Si number density = 18.419520 Si / 1000 Ang^3
#
#
#
# Elastic Constant Matrix: (Units=GPa)
#
#
# Indices 1 2 3 4 5 6 
#
# 1 67.1034 15.3380 32.6525 0.0000 0.0000 0.0000
# 2 15.3380 67.1028 32.6522 0.0000 0.0000 0.0000
# 3 32.6525 32.6522 97.8795 0.0000 0.0000 0.0000
# 4 0.0000 0.0000 0.0000 21.0165 0.0000 0.0000
# 5 0.0000 0.0000 0.0000 0.0000 21.0165 0.0000
# 6 0.0000 0.0000 0.0000 0.0000 0.0000 18.0723
#
#
#
# Elastic Compliance Matrix: (Units=1/GPa)
#
#
# Indices 1 2 3 4 5 6 
#
# 1 0.017902 -0.001416 -0.005500 0.000000 0.000000 0.000000
# 2 -0.001416 0.017902 -0.005500 0.000000 0.000000 0.000000
# 3 -0.005500 -0.005500 0.013886 0.000000 0.000000 0.000000
# 4 0.000000 0.000000 0.000000 0.047582 0.000000 0.000000
# 5 0.000000 0.000000 0.000000 0.000000 0.047582 0.000000
# 6 0.000000 0.000000 0.000000 0.000000 0.000000 0.055333
#
#
# Mechanical properties :
#
#
# Convention : Reuss Voigt Hill
#
# Bulk Modulus (GPa) = 40.22573 43.70792 41.96682
# Shear Modulus (GPa) = 21.43118 22.11725 21.77422
#
# Velocity S-wave (km/s) = 3.41472 3.46894 3.44194
# Velocity P-wave (km/s) = 6.11826 6.31074 6.21524
#
# Compressibility (1/GPa) = 0.02485971
#
# Stress axis : x y z
#
# Youngs Moduli (GPa) = 55.85901 55.85856 72.01430
#
# Poissons Ratio (x) = 0.07908 0.39607
# Poissons Ratio (y) = 0.07908 0.39607
# Poissons Ratio (z) = 0.30722 0.30721
#
# Static dielectric constant tensor:
#      x y z
#    x 3.415620 0.000000 0.000000 
#    y 0.000000 3.415630 0.000000 
#    z 0.000000 0.000000 3.412860 
# 
# 
# High freq. dielectric constant tensor:
#      x y z
#    x 1.701630 0.000000 0.000000 
#    y 0.000000 1.701630 0.000000 
#    z 0.000000 0.000000 1.692120 
# 
# From -- ./inp_files/8055.got.cif
#   From: 2010.03.12/outbox.cif.g09.slc.cpg/sg121_5_cif.got.tgz:8055.got - 2010.04.06 16:06:48.
