data_PCOD8311223
_publ_section_title
;
Structure prediction by ZEFSAII (Michael W. Deem and Ramdas Pophale) SiO2 
 PCOD8311223
Probable space group: I -4 C 2
;
_chemical_formula_sum "Si O2"
_cell_formula_units_Z 88
_cell_length_a 14.170609
_cell_length_b 14.170609
_cell_length_c 20.268496
_cell_angle_alpha 90.000000
_cell_angle_beta 90.000000
_cell_angle_gamma 90.000000
_cell_volume 4070.038839
_symmetry_space_group_name_H-M "I -4 C 2"
_symmetry_group_IT_number 120
_symmetry_cell_setting 'tetragonal'
loop_
_space_group_symop_operation_xyz
x,y,z
y,-x,-z
-x,-y,z
-y,x,-z
y,x,1/2-z
-y,-x,1/2-z
-x,y,1/2+z
x,-y,1/2+z
1/2+x,1/2+y,1/2+z
1/2+y,1/2-x,1/2-z
1/2-x,1/2-y,1/2+z
1/2-y,1/2+x,1/2-z
1/2+y,1/2+x,-z
1/2-y,1/2-x,-z
1/2-x,1/2+y,z
1/2+x,1/2-y,z
loop_
_atom_site_type_symbol
_atom_site_label
_atom_site_fract_x
_atom_site_fract_y
_atom_site_fract_z
Si Si1 0.653490 0.801042 0.224859
Si Si2 0.199431 0.546721 0.326245
Si Si3 0.835608 0.479717 0.965377
Si Si4 0.547228 0.644965 0.989289
Si Si5 0.178257 0.198683 0.383350
Si Si6 0.181237 0.318764 0.000000
O O1 0.710497 0.710497 0.250000
O O2 0.548479 0.767213 0.208954
O O3 0.640022 0.885612 0.277733
O O4 0.707904 0.838609 0.159932
O O5 0.138224 0.517779 0.391891
O O6 0.294001 0.605830 0.341940
O O7 0.809671 0.568438 0.012682
O O8 0.917013 0.417013 0.000000
O O9 0.733338 0.428196 0.962069
O O10 0.577854 0.676203 0.916133
O O11 0.614764 0.561223 0.013675
O O12 0.260839 0.217129 0.436817
#
# Coordination Sequence:
#
# PCOD8311223 Si02
#       6
#    16  16  16  16  16   8
#     4  10  23  45  67  91 127 179 226 271 320 388
#     4  10  22  45  62  95 129 170 224 268 321 400
#     4  11  23  41  67  99 139 169 216 281 351 402
#     4  11  22  38  62 101 132 170 211 271 344 406
#     4  10  22  42  67  93 139 167 221 276 327 404
#     4  10  21  40  62 102 130 167 218 282 332 407
#
# _framework density 21.621414999999999
#
# number of rings (size 3 to 8) (size 9 to 14) (size 15 to 20)
#    0.000    1.636    3.636    1.364    3.818    0.364 
#   29.455    0.000    0.000    0.000    0.000    0.000 
#    0.000    0.000    0.000    0.000    0.000    0.000 
#
# Total GULP energy -545196.059185 kJ/mol
# GULP energy per Si atom -12390.819527 kJ/mol
# Density = 2.157220 g / cm^3
# Si number density = 21.621415 Si / 1000 Ang^3
#
#
#
# Elastic Constant Matrix: (Units=GPa)
#
#
# Indices 1 2 3 4 5 6 
#
# 1 112.4440 30.3603 53.5694 0.0000 0.0000 0.0000
# 2 30.3603 112.4443 53.5694 0.0000 0.0000 0.0000
# 3 53.5694 53.5694 115.8435 0.0000 0.0000 0.0000
# 4 0.0000 0.0000 0.0000 31.3248 0.0000 0.0000
# 5 0.0000 0.0000 0.0000 0.0000 31.3249 0.0000
# 6 0.0000 0.0000 0.0000 0.0000 0.0000 11.5622
#
#
#
# Elastic Compliance Matrix: (Units=1/GPa)
#
#
# Indices 1 2 3 4 5 6 
#
# 1 0.011453 -0.000730 -0.004958 0.000000 0.000000 0.000000
# 2 -0.000730 0.011453 -0.004958 0.000000 0.000000 0.000000
# 3 -0.004958 -0.004958 0.013218 0.000000 0.000000 0.000000
# 4 0.000000 0.000000 0.000000 0.031924 0.000000 0.000000
# 5 0.000000 0.000000 0.000000 0.000000 0.031924 0.000000
# 6 0.000000 0.000000 0.000000 0.000000 0.000000 0.086489
#
#
# Mechanical properties :
#
#
# Convention : Reuss Voigt Hill
#
# Bulk Modulus (GPa) = 67.43244 68.41447 67.92346
# Shear Modulus (GPa) = 23.50768 28.39122 25.94945
#
# Velocity S-wave (km/s) = 3.30091 3.62761 3.46811
# Velocity P-wave (km/s) = 6.76635 7.01832 6.89349
#
# Compressibility (1/GPa) = 0.01482966
#
# Stress axis : x y z
#
# Youngs Moduli (GPa) = 87.31576 87.31607 75.65314
#
# Poissons Ratio (x) = 0.06374 0.37512
# Poissons Ratio (y) = 0.06374 0.37512
# Poissons Ratio (z) = 0.43295 0.43295
#
# Static dielectric constant tensor:
#      x y z
#    x 4.017980 0.000000 0.000000 
#    y 0.000000 4.017960 0.000000 
#    z 0.000000 0.000000 4.078990 
# 
# 
# High freq. dielectric constant tensor:
#      x y z
#    x 1.852010 0.000000 0.000000 
#    y 0.000000 1.852010 0.000000 
#    z 0.000000 0.000000 1.838820 
# 
# From -- ./inp_files/5274.got.cif
#   From: 2010.03.12/outbox.cif.g09.slc.cpg/sg120_3_cif.got.tgz:5274.got - 2010.04.06 16:00:44.
