data_PCOD8311962
_publ_section_title
;
Structure prediction by ZEFSAII (Michael W. Deem and Ramdas Pophale) SiO2 
 PCOD8311962
Probable space group: I -4 2 D
;
_chemical_formula_sum "Si O2"
_cell_formula_units_Z 56
_cell_length_a 13.738542
_cell_length_b 13.738542
_cell_length_c 14.222467
_cell_angle_alpha 90.000000
_cell_angle_beta 90.000000
_cell_angle_gamma 90.000000
_cell_volume 2684.455606
_symmetry_space_group_name_H-M "I -4 2 D"
_symmetry_group_IT_number 122
_symmetry_cell_setting 'tetragonal'
loop_
_space_group_symop_operation_xyz
x,y,z
y,-x,-z
-x,-y,z
-y,x,-z
x,1/2-y,1/4-z
-x,1/2+y,1/4-z
-y,1/2-x,1/4+z
y,1/2+x,1/4+z
1/2+x,1/2+y,1/2+z
1/2+y,1/2-x,1/2-z
1/2-x,1/2-y,1/2+z
1/2-y,1/2+x,1/2-z
1/2+x,-y,3/4-z
1/2-x,y,3/4-z
1/2-y,-x,3/4+z
1/2+y,x,3/4+z
loop_
_atom_site_type_symbol
_atom_site_label
_atom_site_fract_x
_atom_site_fract_y
_atom_site_fract_z
Si Si1 0.004522 0.393330 0.508888
Si Si2 0.790061 0.180781 0.778366
Si Si3 0.250000 0.632295 0.875000
Si Si4 0.924133 0.882247 0.949379
O O1 0.897944 0.349245 0.497594
O O2 0.000000 0.500000 0.553751
O O3 0.064880 0.333508 0.584353
O O4 0.058535 0.403111 0.409550
O O5 0.750000 0.131647 0.875000
O O6 0.790261 0.298371 0.790621
O O7 0.714247 0.142627 0.700459
O O8 0.027243 0.867147 0.003086
#
# Coordination Sequence:
#
# PCOD8311962 Si02
#       4
#    16  16   8  16
#     4  12  25  44  74 102 145 192 239 305 361 436
#     4  10  23  45  67 101 140 178 240 293 357 433
#     4  10  28  48  62 106 144 188 238 272 374 448
#     4  11  20  41  72 112 137 174 239 310 370 413
#
# _framework density 20.860842000000002
#
# number of rings (size 3 to 8) (size 9 to 14) (size 15 to 20)
#    0.857    0.286    5.714    0.000    8.000    3.429 
#    0.000    0.000    0.000    0.000    0.000    0.000 
#    0.000    0.000    0.000    0.000    0.000    0.000 
#
# Total GULP energy -347092.295733 kJ/mol
# GULP energy per Si atom -12396.153419 kJ/mol
# Density = 2.081336 g / cm^3
# Si number density = 20.860842 Si / 1000 Ang^3
#
#
#
# Elastic Constant Matrix: (Units=GPa)
#
#
# Indices 1 2 3 4 5 6 
#
# 1 153.8329 89.8764 43.1753 0.0000 0.0000 0.0000
# 2 89.8764 153.8329 43.1753 0.0000 0.0000 0.0000
# 3 43.1753 43.1753 59.4986 0.0000 0.0000 0.0000
# 4 0.0000 0.0000 0.0000 5.7121 0.0000 0.0000
# 5 0.0000 0.0000 0.0000 0.0000 5.7122 0.0000
# 6 0.0000 0.0000 0.0000 0.0000 0.0000 23.5996
#
#
#
# Elastic Compliance Matrix: (Units=1/GPa)
#
#
# Indices 1 2 3 4 5 6 
#
# 1 0.010579 -0.005056 -0.004008 0.000000 0.000000 0.000000
# 2 -0.005056 0.010579 -0.004008 0.000000 0.000000 0.000000
# 3 -0.004008 -0.004008 0.022624 0.000000 0.000000 0.000000
# 4 0.000000 0.000000 0.000000 0.175066 0.000000 0.000000
# 5 0.000000 0.000000 0.000000 0.000000 0.175065 0.000000
# 6 0.000000 0.000000 0.000000 0.000000 0.000000 0.042374
#
#
# Mechanical properties :
#
#
# Convention : Reuss Voigt Hill
#
# Bulk Modulus (GPa) = 56.69395 79.95761 68.32578
# Shear Modulus (GPa) = 10.67665 19.73393 15.20529
#
# Velocity S-wave (km/s) = 2.26476 3.07902 2.70273
# Velocity P-wave (km/s) = 5.83739 7.14512 6.52410
#
# Compressibility (1/GPa) = 0.01763857
#
# Stress axis : x y z
#
# Youngs Moduli (GPa) = 94.52247 94.52248 44.20078
#
# Poissons Ratio (x) = 0.47792 0.17716
# Poissons Ratio (y) = 0.47792 0.17716
# Poissons Ratio (z) = 0.37885 0.37885
#
# Static dielectric constant tensor:
#      x y z
#    x 3.848420 0.000000 0.000000 
#    y 0.000000 3.848420 0.000000 
#    z 0.000000 0.000000 3.606960 
# 
# 
# High freq. dielectric constant tensor:
#      x y z
#    x 1.819460 0.000000 0.000000 
#    y 0.000000 1.819460 0.000000 
#    z 0.000000 0.000000 1.796400 
# 
# From -- ./inp_files/5037.got.cif
#   From: 2010.03.12/outbox.cif.g09.slc.cpg/sg122_3_cif.got.tgz:5037.got - 2010.04.06 16:17:16.
