data_PCOD8311750
_publ_section_title
;
Structure prediction by ZEFSAII (Michael W. Deem and Ramdas Pophale) SiO2 
 PCOD8311750
Probable space group: I -4 2 D
;
_chemical_formula_sum "Si O2"
_cell_formula_units_Z 80
_cell_length_a 17.292700
_cell_length_b 17.292700
_cell_length_c 13.627722
_cell_angle_alpha 90.000000
_cell_angle_beta 90.000000
_cell_angle_gamma 90.000000
_cell_volume 4075.199554
_symmetry_space_group_name_H-M "I -4 2 D"
_symmetry_group_IT_number 122
_symmetry_cell_setting 'tetragonal'
loop_
_space_group_symop_operation_xyz
x,y,z
y,-x,-z
-x,-y,z
-y,x,-z
x,1/2-y,1/4-z
-x,1/2+y,1/4-z
-y,1/2-x,1/4+z
y,1/2+x,1/4+z
1/2+x,1/2+y,1/2+z
1/2+y,1/2-x,1/2-z
1/2-x,1/2-y,1/2+z
1/2-y,1/2+x,1/2-z
1/2+x,-y,3/4-z
1/2-x,y,3/4-z
1/2-y,-x,3/4+z
1/2+y,x,3/4+z
loop_
_atom_site_type_symbol
_atom_site_label
_atom_site_fract_x
_atom_site_fract_y
_atom_site_fract_z
Si Si1 0.038287 0.239112 0.362334
Si Si2 0.690702 0.766591 0.966603
Si Si3 0.872493 0.270341 0.852411
Si Si4 0.606415 0.828077 0.568596
Si Si5 0.378901 0.506397 0.478765
O O1 0.099869 0.275737 0.438039
O O2 0.089472 0.180930 0.296595
O O3 0.999001 0.300844 0.289328
O O4 0.961556 0.197802 0.408712
O O5 0.750000 0.772475 0.875000
O O6 0.710878 0.835904 0.041152
O O7 0.696555 0.682510 0.017316
O O8 0.884126 0.178757 0.833774
O O9 0.631821 0.750000 0.625000
O O10 0.529110 0.862556 0.616459
O O11 0.427115 0.575330 0.528960
#
# Coordination Sequence:
#
# PCOD8311750 Si02
#       5
#    16  16  16  16  16
#     4  11  23  36  63  87 117 166 201 248 311 352
#     4  11  22  41  65  89 123 164 204 257 304 360
#     4  11  22  41  61  89 124 155 215 250 294 375
#     4  10  18  36  55  87 118 154 197 243 301 368
#     4  10  20  32  52  88 127 151 185 249 314 378
#
# _framework density 19.630939000000001
#
# number of rings (size 3 to 8) (size 9 to 14) (size 15 to 20)
#    0.000    1.400    6.000    1.200    2.800    0.800 
#    3.600    0.000    0.000    3.000    0.000    0.000 
#    0.000    0.000    0.000    0.000    0.000    0.000 
#
# Total GULP energy -495723.301039 kJ/mol
# GULP energy per Si atom -12393.082526 kJ/mol
# Density = 1.958626 g / cm^3
# Si number density = 19.630939 Si / 1000 Ang^3
#
#
#
# Elastic Constant Matrix: (Units=GPa)
#
#
# Indices 1 2 3 4 5 6 
#
# 1 94.6389 3.3242 27.2667 0.0000 0.0000 0.0000
# 2 3.3242 94.6389 27.2667 0.0000 0.0000 0.0000
# 3 27.2667 27.2667 76.4388 0.0000 0.0000 0.0000
# 4 0.0000 0.0000 0.0000 23.9655 0.0000 0.0000
# 5 0.0000 0.0000 0.0000 0.0000 23.9655 0.0000
# 6 0.0000 0.0000 0.0000 0.0000 0.0000 21.2740
#
#
#
# Elastic Compliance Matrix: (Units=1/GPa)
#
#
# Indices 1 2 3 4 5 6 
#
# 1 0.011844 0.000893 -0.004544 0.000000 0.000000 0.000000
# 2 0.000893 0.011844 -0.004544 0.000000 0.000000 0.000000
# 3 -0.004544 -0.004544 0.016324 0.000000 0.000000 0.000000
# 4 0.000000 0.000000 0.000000 0.041727 0.000000 0.000000
# 5 0.000000 0.000000 0.000000 0.000000 0.041727 0.000000
# 6 0.000000 0.000000 0.000000 0.000000 0.000000 0.047006
#
#
# Mechanical properties :
#
#
# Convention : Reuss Voigt Hill
#
# Bulk Modulus (GPa) = 42.32964 42.38133 42.35549
# Shear Modulus (GPa) = 25.67606 27.69825 26.68716
#
# Velocity S-wave (km/s) = 3.62047 3.76034 3.69106
# Velocity P-wave (km/s) = 6.25193 6.36313 6.30777
#
# Compressibility (1/GPa) = 0.02362411
#
# Stress axis : x y z
#
# Youngs Moduli (GPa) = 84.42977 84.42977 61.26009
#
# Poissons Ratio (x) = -0.07540 0.27834
# Poissons Ratio (y) = -0.07540 0.27834
# Poissons Ratio (z) = 0.38361 0.38361
#
# Static dielectric constant tensor:
#      x y z
#    x 3.527310 0.000000 0.000000 
#    y 0.000000 3.527310 0.000000 
#    z 0.000000 0.000000 3.544860 
# 
# 
# High freq. dielectric constant tensor:
#      x y z
#    x 1.755810 0.000000 0.000000 
#    y 0.000000 1.755810 0.000000 
#    z 0.000000 0.000000 1.751630 
# 
# From -- ./inp_files/5275.got.cif
#   From: 2010.03.12/outbox.cif.g09.slc.cpg/sg122_3_cif.got.tgz:5275.got - 2010.04.06 16:17:16.
