data_PCOD8311378
_publ_section_title
;
Structure prediction by ZEFSAII (Michael W. Deem and Ramdas Pophale) SiO2 
 PCOD8311378
Probable space group: I -4 2 M
;
_chemical_formula_sum "Si O2"
_cell_formula_units_Z 112
_cell_length_a 17.709971
_cell_length_b 17.709971
_cell_length_c 21.068281
_cell_angle_alpha 90.000000
_cell_angle_beta 90.000000
_cell_angle_gamma 90.000000
_cell_volume 6607.920392
_symmetry_space_group_name_H-M "I -4 2 M"
_symmetry_group_IT_number 121
_symmetry_cell_setting 'tetragonal'
loop_
_space_group_symop_operation_xyz
x,y,z
y,-x,-z
-x,-y,z
-y,x,-z
x,-y,-z
-x,y,-z
-y,-x,z
y,x,z
1/2+x,1/2+y,1/2+z
1/2+y,1/2-x,1/2-z
1/2-x,1/2-y,1/2+z
1/2-y,1/2+x,1/2-z
1/2+x,1/2-y,1/2-z
1/2-x,1/2+y,1/2-z
1/2-y,1/2-x,1/2+z
1/2+y,1/2+x,1/2+z
loop_
_atom_site_type_symbol
_atom_site_label
_atom_site_fract_x
_atom_site_fract_y
_atom_site_fract_z
Si Si1 0.150231 0.641017 0.260001
Si Si2 0.581484 0.296971 0.321452
Si Si3 0.575199 0.774751 0.541840
Si Si4 0.597836 0.918315 0.367136
Si Si5 0.159661 0.724884 0.077479
Si Si6 0.590290 0.290108 0.696987
Si Si7 0.914269 0.573681 0.619599
O O1 0.236464 0.631822 0.283062
O O2 0.133389 0.581820 0.203194
O O3 0.131323 0.725832 0.238683
O O4 0.096535 0.624328 0.318711
O O5 0.621887 0.378114 0.314865
O O6 0.574549 0.277572 0.396132
O O7 0.498636 0.299761 0.289613
O O8 0.500000 0.770471 0.500000
O O9 0.642348 0.751253 0.494680
O O10 0.594556 0.861017 0.561059
O O11 0.649689 0.864868 0.411692
O O12 0.511639 0.889736 0.361390
O O13 0.590434 0.999853 0.400264
O O14 0.244926 0.755075 0.092501
O O15 0.100748 0.767588 0.123497
O O16 0.630538 0.369463 0.712701
#
# Coordination Sequence:
#
# PCOD8311378 Si02
#       7
#    16  16  16  16  16  16  16
#     4  10  18  33  51  72 101 128 165 205 255 309
#     4  11  22  34  53  76 100 134 174 217 255 305
#     4  11  18  34  48  69  99 130 171 207 252 301
#     4  10  18  30  45  75  98 130 162 199 254 303
#     4  10  19  32  48  64  92 132 170 204 245 298
#     4  10  20  34  52  71  97 132 167 212 258 304
#     4  10  19  28  49  72 103 129 158 209 250 305
#
# _framework density 16.949356999999999
#
# number of rings (size 3 to 8) (size 9 to 14) (size 15 to 20)
#    0.000    1.714    2.857    5.143    0.000    2.571 
#    0.000    0.000    0.000    0.000    0.000    0.000 
#    0.000    0.000    0.000    0.000    0.000   10.286 
#
# Total GULP energy -693985.853319 kJ/mol
# GULP energy per Si atom -12392.604524 kJ/mol
# Density = 1.691078 g / cm^3
# Si number density = 16.949357 Si / 1000 Ang^3
#
#
#
# Elastic Constant Matrix: (Units=GPa)
#
#
# Indices 1 2 3 4 5 6 
#
# 1 93.1951 59.3712 29.0539 0.0000 0.0000 0.0000
# 2 59.3712 93.1910 29.0536 0.0000 0.0000 0.0000
# 3 29.0539 29.0536 71.8443 0.0000 0.0000 0.0000
# 4 0.0000 0.0000 0.0000 13.2724 0.0000 0.0000
# 5 0.0000 0.0000 0.0000 0.0000 13.2720 0.0000
# 6 0.0000 0.0000 0.0000 0.0000 0.0000 31.4445
#
#
#
# Elastic Compliance Matrix: (Units=1/GPa)
#
#
# Indices 1 2 3 4 5 6 
#
# 1 0.018657 -0.010909 -0.003133 0.000000 0.000000 0.000000
# 2 -0.010909 0.018658 -0.003133 0.000000 0.000000 0.000000
# 3 -0.003133 -0.003133 0.016453 0.000000 0.000000 0.000000
# 4 0.000000 0.000000 0.000000 0.075344 0.000000 0.000000
# 5 0.000000 0.000000 0.000000 0.000000 0.075346 0.000000
# 6 0.000000 0.000000 0.000000 0.000000 0.000000 0.031802
#
#
# Mechanical properties :
#
#
# Convention : Reuss Voigt Hill
#
# Bulk Modulus (GPa) = 51.50377 54.79863 53.15120
# Shear Modulus (GPa) = 18.04504 20.98124 19.51314
#
# Velocity S-wave (km/s) = 3.26643 3.52217 3.39671
# Velocity P-wave (km/s) = 6.68423 6.99585 6.84181
#
# Compressibility (1/GPa) = 0.01941605
#
# Stress axis : x y z
#
# Youngs Moduli (GPa) = 53.59954 53.59700 60.77849
#
# Poissons Ratio (x) = 0.58471 0.19043
# Poissons Ratio (y) = 0.58473 0.19044
# Poissons Ratio (z) = 0.16794 0.16794
#
# Static dielectric constant tensor:
#      x y z
#    x 3.100170 0.000000 0.000000 
#    y 0.000000 3.100180 0.000000 
#    z 0.000000 0.000000 3.194510 
# 
# 
# High freq. dielectric constant tensor:
#      x y z
#    x 1.641340 0.000000 0.000000 
#    y 0.000000 1.641340 0.000000 
#    z 0.000000 0.000000 1.650710 
# 
# From -- ./inp_files/6641.got.cif
#   From: 2010.03.12/outbox.cif.g09.slc.cpg/sg121_4_cif.got.tgz:6641.got - 2010.04.06 16:06:48.
