data_PCOD8311087
_publ_section_title
;
Structure prediction by ZEFSAII (Michael W. Deem and Ramdas Pophale) SiO2 
 PCOD8311087
Probable space group: I -4 M 2
;
_chemical_formula_sum "Si O2"
_cell_formula_units_Z 52
_cell_length_a 19.181840
_cell_length_b 19.181840
_cell_length_c 6.538587
_cell_angle_alpha 90.000000
_cell_angle_beta 90.000000
_cell_angle_gamma 90.000000
_cell_volume 2405.827224
_symmetry_space_group_name_H-M "I -4 M 2"
_symmetry_group_IT_number 119
_symmetry_cell_setting 'tetragonal'
loop_
_space_group_symop_operation_xyz
x,y,z
y,-x,-z
-x,-y,z
-y,x,-z
y,x,-z
-y,-x,-z
-x,y,z
x,-y,z
1/2+x,1/2+y,1/2+z
1/2+y,1/2-x,1/2-z
1/2-x,1/2-y,1/2+z
1/2-y,1/2+x,1/2-z
1/2+y,1/2+x,1/2-z
1/2-y,1/2-x,1/2-z
1/2-x,1/2+y,1/2+z
1/2+x,1/2-y,1/2+z
loop_
_atom_site_type_symbol
_atom_site_label
_atom_site_fract_x
_atom_site_fract_y
_atom_site_fract_z
Si Si1 0.000000 0.500000 0.250000
Si Si2 0.278650 0.612728 0.533044
Si Si3 0.140127 0.500000 0.998409
Si Si4 0.287847 0.500000 0.193893
Si Si5 0.500000 0.500000 0.500000
Si Si6 0.361736 0.138265 0.250000
Si Si7 0.000000 0.143830 0.728193
O O1 0.000000 0.430580 0.378757
O O2 0.313749 0.686252 0.500000
O O3 0.293806 0.569133 0.328628
O O4 0.200050 0.636231 0.583238
O O5 0.313002 0.569141 0.717211
O O6 0.143313 0.566459 0.860916
O O7 0.208284 0.500000 0.131800
O O8 0.350692 0.500000 0.022348
O O9 0.500000 0.567596 0.345038
#
# Coordination Sequence:
#
# PCOD8311087 Si02
#       7
#     2  16   8   8   2   8   8
#     4  12  24  34  68 104 128 170 252 280 326 468
#     4  11  25  46  69 107 146 188 250 305 369 453
#     4  12  23  43  66 100 134 184 236 287 365 427
#     4  11  24  47  75  96 151 192 235 309 381 429
#     4  12  24  48  86 108 150 200 252 306 404 468
#     4  12  24  45  71  98 148 192 237 313 370 432
#     4  11  23  50  72 111 148 188 244 314 368 455
#
# _framework density 21.614189
#
# number of rings (size 3 to 8) (size 9 to 14) (size 15 to 20)
#    0.000    0.615    4.615    3.692    0.000    3.692 
#    0.000    4.615    0.000    0.000    0.000    0.000 
#    0.000    0.000    0.000    0.000    0.000    0.000 
#
# Total GULP energy -322118.215955 kJ/mol
# GULP energy per Si atom -12389.162152 kJ/mol
# Density = 2.156499 g / cm^3
# Si number density = 21.614189 Si / 1000 Ang^3
#
#
#
# Elastic Constant Matrix: (Units=GPa)
#
#
# Indices 1 2 3 4 5 6 
#
# 1 146.1438 60.5248 56.4115 0.0000 0.0000 0.0000
# 2 60.5248 146.1361 56.4120 0.0000 0.0000 0.0000
# 3 56.4115 56.4120 141.6250 0.0000 0.0000 0.0000
# 4 0.0000 0.0000 0.0000 10.7366 0.0000 0.0000
# 5 0.0000 0.0000 0.0000 0.0000 10.6857 0.0000
# 6 0.0000 0.0000 0.0000 0.0000 0.0000 47.7328
#
#
#
# Elastic Compliance Matrix: (Units=1/GPa)
#
#
# Indices 1 2 3 4 5 6 
#
# 1 0.008931 -0.002748 -0.002463 0.000000 0.000000 0.000000
# 2 -0.002748 0.008932 -0.002463 0.000000 0.000000 0.000000
# 3 -0.002463 -0.002463 0.009023 0.000000 0.000000 0.000000
# 4 0.000000 0.000000 0.000000 0.093139 0.000000 0.000000
# 5 0.000000 0.000000 0.000000 0.000000 0.093583 0.000000
# 6 0.000000 0.000000 0.000000 0.000000 0.000000 0.020950
#
#
# Mechanical properties :
#
#
# Convention : Reuss Voigt Hill
#
# Bulk Modulus (GPa) = 86.67089 86.73349 86.70219
# Shear Modulus (GPa) = 19.70418 31.20146 25.45282
#
# Velocity S-wave (km/s) = 3.02260 3.80355 3.43534
# Velocity P-wave (km/s) = 7.23655 7.71391 7.47904
#
# Compressibility (1/GPa) = 0.01153790
#
# Stress axis : x y z
#
# Youngs Moduli (GPa) = 111.96374 111.95639 110.82837
#
# Poissons Ratio (x) = 0.30770 0.27295
# Poissons Ratio (y) = 0.30772 0.27298
# Poissons Ratio (z) = 0.27574 0.27576
#
# Static dielectric constant tensor:
#      x y z
#    x 4.197640 0.000000 0.000000 
#    y 0.000000 4.197600 0.000000 
#    z 0.000000 0.000000 4.238290 
# 
# 
# High freq. dielectric constant tensor:
#      x y z
#    x 1.866180 0.000000 0.000000 
#    y 0.000000 1.866180 0.000000 
#    z 0.000000 0.000000 1.852710 
# 
# From -- ./inp_files/590.got.cif
#   From: 2010.03.12/outbox.cif.g09.slc.cpg/sg119_1_cif.got.tgz:590.got - 2010.04.14 02:25:26.
