data_PCOD8311958
_publ_section_title
;
Structure prediction by ZEFSAII (Michael W. Deem and Ramdas Pophale) SiO2 
 PCOD8311958
Probable space group: I -4 2 D
;
_chemical_formula_sum "Si O2"
_cell_formula_units_Z 116
_cell_length_a 16.675815
_cell_length_b 16.675815
_cell_length_c 18.579724
_cell_angle_alpha 90.000000
_cell_angle_beta 90.000000
_cell_angle_gamma 90.000000
_cell_volume 5166.701783
_symmetry_space_group_name_H-M "I -4 2 D"
_symmetry_group_IT_number 122
_symmetry_cell_setting 'tetragonal'
loop_
_space_group_symop_operation_xyz
x,y,z
y,-x,-z
-x,-y,z
-y,x,-z
x,1/2-y,1/4-z
-x,1/2+y,1/4-z
-y,1/2-x,1/4+z
y,1/2+x,1/4+z
1/2+x,1/2+y,1/2+z
1/2+y,1/2-x,1/2-z
1/2-x,1/2-y,1/2+z
1/2-y,1/2+x,1/2-z
1/2+x,-y,3/4-z
1/2-x,y,3/4-z
1/2-y,-x,3/4+z
1/2+y,x,3/4+z
loop_
_atom_site_type_symbol
_atom_site_label
_atom_site_fract_x
_atom_site_fract_y
_atom_site_fract_z
Si Si1 0.591675 0.014869 0.498531
Si Si2 0.194265 0.679773 0.307586
Si Si3 0.248699 0.617184 0.585604
Si Si4 0.878212 0.622207 0.722128
Si Si5 0.206220 0.649162 0.009153
Si Si6 0.500000 0.000000 0.250000
Si Si7 0.448154 0.774851 0.894010
Si Si8 0.660931 0.918177 0.381712
O O1 0.657142 0.972806 0.549430
O O2 0.601197 0.980472 0.418993
O O3 0.500000 0.000000 0.525696
O O4 0.619973 0.107946 0.492088
O O5 0.250000 0.654214 0.375000
O O6 0.201454 0.620753 0.238923
O O7 0.215986 0.766930 0.278978
O O8 0.103040 0.678829 0.333981
O O9 0.290475 0.660225 0.654221
O O10 0.235794 0.524285 0.605445
O O11 0.163722 0.660296 0.570820
O O12 0.900255 0.717656 0.724328
O O13 0.953411 0.566009 0.698520
O O14 0.796399 0.604081 0.679519
O O15 0.873242 0.600818 0.805060
O O16 0.750000 0.953549 0.375000
#
# Coordination Sequence:
#
# PCOD8311958 Si02
#       8
#    16  16  16  16  16   4  16  16
#     4  11  25  43  66 102 145 185 229 289 357 423
#     4  12  23  43  74  98 128 178 240 285 343 423
#     4  10  23  44  67 101 133 180 226 293 357 410
#     4  11  22  41  62 100 143 186 224 289 347 431
#     4  10  23  45  68  98 140 182 231 288 359 423
#     4  12  24  32  60  92 144 184 220 260 346 436
#     4  11  24  47  66  99 141 179 241 294 350 424
#     4  11  21  37  68  92 135 178 222 268 355 420
#
# _framework density 22.451460999999998
#
# number of rings (size 3 to 8) (size 9 to 14) (size 15 to 20)
#    0.000    1.103    2.759    5.379    2.897    1.655 
#    4.966    0.000    0.000    0.000    0.000    0.000 
#    0.000    0.000    0.000    0.000    0.000    0.000 
#
# Total GULP energy -718741.036348 kJ/mol
# GULP energy per Si atom -12392.086834 kJ/mol
# Density = 2.240036 g / cm^3
# Si number density = 22.451461 Si / 1000 Ang^3
#
#
#
# Elastic Constant Matrix: (Units=GPa)
#
#
# Indices 1 2 3 4 5 6 
#
# 1 95.7736 26.3872 27.9313 0.0000 0.0000 0.0000
# 2 26.3872 95.7736 27.9313 0.0000 0.0000 0.0000
# 3 27.9313 27.9313 102.4026 0.0000 0.0000 0.0000
# 4 0.0000 0.0000 0.0000 21.1123 0.0000 0.0000
# 5 0.0000 0.0000 0.0000 0.0000 21.1123 0.0000
# 6 0.0000 0.0000 0.0000 0.0000 0.0000 45.2088
#
#
#
# Elastic Compliance Matrix: (Units=1/GPa)
#
#
# Indices 1 2 3 4 5 6 
#
# 1 0.011882 -0.002530 -0.002551 0.000000 0.000000 0.000000
# 2 -0.002530 0.011882 -0.002551 0.000000 0.000000 0.000000
# 3 -0.002551 -0.002551 0.011157 0.000000 0.000000 0.000000
# 4 0.000000 0.000000 0.000000 0.047366 0.000000 0.000000
# 5 0.000000 0.000000 0.000000 0.000000 0.047366 0.000000
# 6 0.000000 0.000000 0.000000 0.000000 0.000000 0.022120
#
#
# Mechanical properties :
#
#
# Convention : Reuss Voigt Hill
#
# Bulk Modulus (GPa) = 50.86987 50.93884 50.90435
# Shear Modulus (GPa) = 28.80374 31.60003 30.20189
#
# Velocity S-wave (km/s) = 3.58569 3.75571 3.67169
# Velocity P-wave (km/s) = 6.31267 6.44553 6.37945
#
# Compressibility (1/GPa) = 0.01965800
#
# Stress axis : x y z
#
# Youngs Moduli (GPa) = 84.15917 84.15917 89.62989
#
# Poissons Ratio (x) = 0.21290 0.22864
# Poissons Ratio (y) = 0.21290 0.22864
# Poissons Ratio (z) = 0.21469 0.21469
#
# Static dielectric constant tensor:
#      x y z
#    x 4.387070 0.000000 0.000000 
#    y 0.000000 4.387070 0.000000 
#    z 0.000000 0.000000 4.143830 
# 
# 
# High freq. dielectric constant tensor:
#      x y z
#    x 1.877310 0.000000 0.000000 
#    y 0.000000 1.877310 0.000000 
#    z 0.000000 0.000000 1.885190 
# 
# From -- ./inp_files/6466.got.cif
#   From: 2010.03.12/outbox.cif.g09.slc.cpg/sg122_4_cif.got.tgz:6466.got - 2010.04.06 16:17:16.
