data_PCOD8311927
_publ_section_title
;
Structure prediction by ZEFSAII (Michael W. Deem and Ramdas Pophale) SiO2 
 PCOD8311927
Probable space group: I -4 2 D
;
_chemical_formula_sum "Si O2"
_cell_formula_units_Z 92
_cell_length_a 14.586183
_cell_length_b 14.586183
_cell_length_c 20.793264
_cell_angle_alpha 90.000000
_cell_angle_beta 90.000000
_cell_angle_gamma 90.000000
_cell_volume 4423.906948
_symmetry_space_group_name_H-M "I -4 2 D"
_symmetry_group_IT_number 122
_symmetry_cell_setting 'tetragonal'
loop_
_space_group_symop_operation_xyz
x,y,z
y,-x,-z
-x,-y,z
-y,x,-z
x,1/2-y,1/4-z
-x,1/2+y,1/4-z
-y,1/2-x,1/4+z
y,1/2+x,1/4+z
1/2+x,1/2+y,1/2+z
1/2+y,1/2-x,1/2-z
1/2-x,1/2-y,1/2+z
1/2-y,1/2+x,1/2-z
1/2+x,-y,3/4-z
1/2-x,y,3/4-z
1/2-y,-x,3/4+z
1/2+y,x,3/4+z
loop_
_atom_site_type_symbol
_atom_site_label
_atom_site_fract_x
_atom_site_fract_y
_atom_site_fract_z
Si Si1 0.906545 0.302716 0.563801
Si Si2 0.936996 0.767138 0.348365
Si Si3 0.638360 0.750000 0.625000
Si Si4 0.500000 0.500000 0.500000
Si Si5 0.750000 0.839748 0.875000
Si Si6 0.387133 0.775631 0.324397
Si Si7 0.250000 0.579573 0.875000
Si Si8 0.511268 0.301445 0.529707
O O1 0.861686 0.250000 0.625000
O O2 0.862905 0.404596 0.565298
O O3 0.878311 0.248120 0.500316
O O4 0.016664 0.304519 0.572783
O O5 0.846100 0.714768 0.373270
O O6 0.999506 0.713344 0.296443
O O7 0.005961 0.787859 0.407309
O O8 0.696858 0.657895 0.632296
O O9 0.580474 0.737192 0.561004
O O10 0.521920 0.410509 0.543667
O O11 0.751805 0.902049 0.810213
O O12 0.327438 0.866055 0.336495
#
# Coordination Sequence:
#
# PCOD8311927 Si02
#       8
#    16  16   8   4   8  16   8  16
#     4  10  24  43  66  99 135 171 234 292 340 418
#     4  12  24  43  69  98 137 185 225 285 348 419
#     4  10  22  42  64  98 136 174 222 276 342 408
#     4  12  20  36  68  92 136 172 232 268 338 408
#     4  11  25  41  65  98 138 180 227 271 345 415
#     4  11  24  43  73  95 134 184 227 288 353 412
#     4   9  25  45  67 100 132 178 239 293 347 417
#     4  11  23  40  63  98 137 177 222 277 332 418
#
# _framework density 20.796095999999999
#
# number of rings (size 3 to 8) (size 9 to 14) (size 15 to 20)
#    0.522    0.696    4.348    1.043    2.435    2.087 
#    0.000    0.000    0.000    0.000    0.000    0.000 
#    0.000    0.000    0.000    0.000    0.000    0.000 
#
# Total GULP energy -570064.940033 kJ/mol
# GULP energy per Si atom -12392.716088 kJ/mol
# Density = 2.074876 g / cm^3
# Si number density = 20.796096 Si / 1000 Ang^3
#
#
#
# Elastic Constant Matrix: (Units=GPa)
#
#
# Indices 1 2 3 4 5 6 
#
# 1 128.9874 61.0938 47.2918 0.0000 0.0000 0.0000
# 2 61.0938 128.9874 47.2918 0.0000 0.0000 0.0000
# 3 47.2918 47.2918 102.4955 0.0000 0.0000 0.0000
# 4 0.0000 0.0000 0.0000 27.5264 0.0000 0.0000
# 5 0.0000 0.0000 0.0000 0.0000 27.5264 0.0000
# 6 0.0000 0.0000 0.0000 0.0000 0.0000 17.0106
#
#
#
# Elastic Compliance Matrix: (Units=1/GPa)
#
#
# Indices 1 2 3 4 5 6 
#
# 1 0.010779 -0.003950 -0.003151 0.000000 0.000000 0.000000
# 2 -0.003950 0.010779 -0.003151 0.000000 0.000000 0.000000
# 3 -0.003151 -0.003151 0.012664 0.000000 0.000000 0.000000
# 4 0.000000 0.000000 0.000000 0.036329 0.000000 0.000000
# 5 0.000000 0.000000 0.000000 0.000000 0.036329 0.000000
# 6 0.000000 0.000000 0.000000 0.000000 0.000000 0.058787
#
#
# Mechanical properties :
#
#
# Convention : Reuss Voigt Hill
#
# Bulk Modulus (GPa) = 72.89497 74.64725 73.77111
# Shear Modulus (GPa) = 26.21337 28.06553 27.13945
#
# Velocity S-wave (km/s) = 3.55420 3.67762 3.61643
# Velocity P-wave (km/s) = 7.20912 7.34887 7.27933
#
# Compressibility (1/GPa) = 0.01371837
#
# Stress axis : x y z
#
# Youngs Moduli (GPa) = 92.77445 92.77445 78.96326
#
# Poissons Ratio (x) = 0.36647 0.24880
# Poissons Ratio (y) = 0.36647 0.24880
# Poissons Ratio (z) = 0.29231 0.29231
#
# Static dielectric constant tensor:
#      x y z
#    x 3.778120 0.000000 0.000000 
#    y 0.000000 3.778120 0.000000 
#    z 0.000000 0.000000 3.582770 
# 
# 
# High freq. dielectric constant tensor:
#      x y z
#    x 1.816330 0.000000 0.000000 
#    y 0.000000 1.816330 0.000000 
#    z 0.000000 0.000000 1.804170 
# 
# From -- ./inp_files/7376.got.cif
#   From: 2010.03.12/outbox.cif.g09.slc.cpg/sg122_4_cif.got.tgz:7376.got - 2010.04.06 16:17:16.
