data_PCOD8311884
_publ_section_title
;
Structure prediction by ZEFSAII (Michael W. Deem and Ramdas Pophale) SiO2 
 PCOD8311884
Probable space group: I -4 2 D
;
_chemical_formula_sum "Si O2"
_cell_formula_units_Z 56
_cell_length_a 19.431440
_cell_length_b 19.431440
_cell_length_c 7.558734
_cell_angle_alpha 90.000000
_cell_angle_beta 90.000000
_cell_angle_gamma 90.000000
_cell_volume 2854.033288
_symmetry_space_group_name_H-M "I -4 2 D"
_symmetry_group_IT_number 122
_symmetry_cell_setting 'tetragonal'
loop_
_space_group_symop_operation_xyz
x,y,z
y,-x,-z
-x,-y,z
-y,x,-z
x,1/2-y,1/4-z
-x,1/2+y,1/4-z
-y,1/2-x,1/4+z
y,1/2+x,1/4+z
1/2+x,1/2+y,1/2+z
1/2+y,1/2-x,1/2-z
1/2-x,1/2-y,1/2+z
1/2-y,1/2+x,1/2-z
1/2+x,-y,3/4-z
1/2-x,y,3/4-z
1/2-y,-x,3/4+z
1/2+y,x,3/4+z
loop_
_atom_site_type_symbol
_atom_site_label
_atom_site_fract_x
_atom_site_fract_y
_atom_site_fract_z
Si Si1 0.565000 0.416594 0.047905
Si Si2 0.820528 0.368257 0.956395
Si Si3 0.400607 0.750000 0.625000
Si Si4 0.198584 0.479234 0.034172
O O1 0.550156 0.377492 0.233580
O O2 0.496485 0.414118 0.922031
O O3 0.626468 0.377711 0.953121
O O4 0.750000 0.339003 0.875000
O O5 0.850898 0.313959 0.092213
O O6 0.806740 0.438936 0.061681
O O7 0.448201 0.770655 0.788521
O O8 0.250000 0.461129 0.875000
#
# Coordination Sequence:
#
# PCOD8311884 Si02
#       4
#    16  16   8  16
#     4   9  18  37  67  90 119 169 214 262 318 370
#     4  10  23  41  60  94 128 163 207 261 326 378
#     4  12  24  40  64  96 124 172 218 254 324 388
#     4  10  21  42  64  89 130 165 211 266 315 379
#
# _framework density 19.621355999999999
#
# number of rings (size 3 to 8) (size 9 to 14) (size 15 to 20)
#    0.000    2.000    2.857    0.000    0.000    4.571 
#    2.571    0.000    0.000    0.000    0.000    0.000 
#    0.000    0.000    0.000    0.000    0.000    0.000 
#
# Total GULP energy -347164.271606 kJ/mol
# GULP energy per Si atom -12398.723986 kJ/mol
# Density = 1.957670 g / cm^3
# Si number density = 19.621356 Si / 1000 Ang^3
#
#
#
# Elastic Constant Matrix: (Units=GPa)
#
#
# Indices 1 2 3 4 5 6 
#
# 1 119.5538 50.3890 64.9103 0.0000 0.0000 0.0000
# 2 50.3890 119.5538 64.9103 0.0000 0.0000 0.0000
# 3 64.9103 64.9103 120.2651 0.0000 0.0000 0.0000
# 4 0.0000 0.0000 0.0000 24.7543 0.0000 0.0000
# 5 0.0000 0.0000 0.0000 0.0000 24.7543 0.0000
# 6 0.0000 0.0000 0.0000 0.0000 0.0000 31.2418
#
#
#
# Elastic Compliance Matrix: (Units=1/GPa)
#
#
# Indices 1 2 3 4 5 6 
#
# 1 0.012235 -0.002223 -0.005404 0.000000 0.000000 0.000000
# 2 -0.002223 0.012235 -0.005404 0.000000 0.000000 0.000000
# 3 -0.005404 -0.005404 0.014148 0.000000 0.000000 0.000000
# 4 0.000000 0.000000 0.000000 0.040397 0.000000 0.000000
# 5 0.000000 0.000000 0.000000 0.000000 0.040397 0.000000
# 6 0.000000 0.000000 0.000000 0.000000 0.000000 0.032008
#
#
# Mechanical properties :
#
#
# Convention : Reuss Voigt Hill
#
# Bulk Modulus (GPa) = 79.63502 79.97688 79.80595
# Shear Modulus (GPa) = 27.52258 28.09429 27.80843
#
# Velocity S-wave (km/s) = 3.74931 3.78805 3.76873
# Velocity P-wave (km/s) = 7.70825 7.74474 7.72652
#
# Compressibility (1/GPa) = 0.01255729
#
# Stress axis : x y z
#
# Youngs Moduli (GPa) = 81.73027 81.73027 70.67961
#
# Poissons Ratio (x) = 0.18168 0.38195
# Poissons Ratio (y) = 0.18168 0.38195
# Poissons Ratio (z) = 0.44167 0.44167
#
# Static dielectric constant tensor:
#      x y z
#    x 3.915870 0.000000 0.000000 
#    y 0.000000 3.915870 0.000000 
#    z 0.000000 0.000000 3.205780 
# 
# 
# High freq. dielectric constant tensor:
#      x y z
#    x 1.782080 0.000000 0.000000 
#    y 0.000000 1.782080 0.000000 
#    z 0.000000 0.000000 1.722420 
# 
# From -- ./inp_files/809.got.cif
#   From: 2010.03.12/outbox.cif.g09.slc.cpg/sg122_1_cif.got.tgz:809.got - 2010.04.06 16:17:16.
