data_PCOD8311954
_publ_section_title
;
Structure prediction by ZEFSAII (Michael W. Deem and Ramdas Pophale) SiO2 
 PCOD8311954
Probable space group: I -4 2 D
;
_chemical_formula_sum "Si O2"
_cell_formula_units_Z 108
_cell_length_a 13.821108
_cell_length_b 13.821108
_cell_length_c 25.130783
_cell_angle_alpha 90.000000
_cell_angle_beta 90.000000
_cell_angle_gamma 90.000000
_cell_volume 4800.558223
_symmetry_space_group_name_H-M "I -4 2 D"
_symmetry_group_IT_number 122
_symmetry_cell_setting 'tetragonal'
loop_
_space_group_symop_operation_xyz
x,y,z
y,-x,-z
-x,-y,z
-y,x,-z
x,1/2-y,1/4-z
-x,1/2+y,1/4-z
-y,1/2-x,1/4+z
y,1/2+x,1/4+z
1/2+x,1/2+y,1/2+z
1/2+y,1/2-x,1/2-z
1/2-x,1/2-y,1/2+z
1/2-y,1/2+x,1/2-z
1/2+x,-y,3/4-z
1/2-x,y,3/4-z
1/2-y,-x,3/4+z
1/2+y,x,3/4+z
loop_
_atom_site_type_symbol
_atom_site_label
_atom_site_fract_x
_atom_site_fract_y
_atom_site_fract_z
Si Si1 0.000000 0.500000 0.750000
Si Si2 0.401408 0.952443 0.056325
Si Si3 0.770540 0.564339 0.246422
Si Si4 0.676832 0.100070 0.530859
Si Si5 0.484171 0.751228 0.065916
Si Si6 0.921974 0.841675 0.085988
Si Si7 0.633327 0.059722 0.172000
Si Si8 0.500000 0.000000 0.584657
O O1 0.980278 0.403213 0.785540
O O2 0.404410 0.836202 0.057722
O O3 0.389807 0.989264 0.116253
O O4 0.500000 0.000000 0.033589
O O5 0.308602 0.987147 0.023825
O O6 0.713067 0.651714 0.274667
O O7 0.834081 0.610575 0.198378
O O8 0.827360 0.508159 0.292988
O O9 0.753705 0.085722 0.577875
O O10 0.728754 0.068770 0.476035
O O11 0.584292 0.036096 0.545617
O O12 0.530476 0.750000 0.125000
O O13 0.429106 0.651545 0.059202
O O14 0.893848 0.750000 0.125000
O O15 0.960619 0.916211 0.128573
#
# Coordination Sequence:
#
# PCOD8311954 Si02
#       8
#     4  16  16  16  16  16  16   8
#     4  12  20  40  62 100 156 178 228 288 360 454
#     4  11  22  44  68  98 142 191 234 299 373 447
#     4  12  27  48  77 109 146 195 261 319 385 461
#     4  12  24  43  75 102 142 197 241 312 367 455
#     4  10  23  41  63  99 143 185 236 290 362 443
#     4  12  28  52  78 113 151 202 259 329 393 459
#     4  11  24  40  66 101 142 186 232 292 368 449
#     4  12  26  53  77 106 152 195 257 320 390 450
#
# _framework density 22.497382000000002
#
# number of rings (size 3 to 8) (size 9 to 14) (size 15 to 20)
#    0.000    0.593    5.185    2.667    2.074    0.593 
#    8.000    0.000    0.000    0.000    0.000    0.000 
#    0.000    0.000    0.000    0.000    0.000    0.000 
#
# Total GULP energy -669011.501200 kJ/mol
# GULP energy per Si atom -12389.101874 kJ/mol
# Density = 2.244618 g / cm^3
# Si number density = 22.497382 Si / 1000 Ang^3
#
#
#
# Elastic Constant Matrix: (Units=GPa)
#
#
# Indices 1 2 3 4 5 6 
#
# 1 91.8959 16.1241 30.7961 0.0000 0.0000 0.0000
# 2 16.1241 91.8959 30.7961 0.0000 0.0000 0.0000
# 3 30.7961 30.7961 112.2348 0.0000 0.0000 0.0000
# 4 0.0000 0.0000 0.0000 -26.2971 0.0000 0.0000
# 5 0.0000 0.0000 0.0000 0.0000 -26.2971 0.0000
# 6 0.0000 0.0000 0.0000 0.0000 0.0000 31.1476
#
#
#
# Elastic Compliance Matrix: (Units=1/GPa)
#
#
# Indices 1 2 3 4 5 6 
#
# 1 0.012086 -0.001111 -0.003011 0.000000 0.000000 0.000000
# 2 -0.001111 0.012086 -0.003011 0.000000 0.000000 0.000000
# 3 -0.003011 -0.003011 0.010562 0.000000 0.000000 0.000000
# 4 0.000000 0.000000 0.000000 -0.038027 0.000000 0.000000
# 5 0.000000 0.000000 0.000000 0.000000 -0.038027 0.000000
# 6 0.000000 0.000000 0.000000 0.000000 0.000000 0.032105
#
#
# Mechanical properties :
#
#
# Convention : Reuss Voigt Hill
#
# Bulk Modulus (GPa) = 48.86074 50.16215 49.51144
# Shear Modulus (GPa) = 421.01370 10.26469 215.63919
#
# Velocity S-wave (km/s) = 13.69472 2.13835 9.80096
# Velocity P-wave (km/s) = 16.48714 5.33310 12.25291
#
# Compressibility (1/GPa) = 0.02046633
#
# Stress axis : x y z
#
# Youngs Moduli (GPa) = 82.74002 82.74002 94.67502
#
# Poissons Ratio (x) = 0.09196 0.28510
# Poissons Ratio (y) = 0.09196 0.28510
# Poissons Ratio (z) = 0.24916 0.24916
#
# Static dielectric constant tensor:
#      x y z
#    x 4.513820 0.000000 0.000000 
#    y 0.000000 4.513820 0.000000 
#    z 0.000000 0.000000 4.376310 
# 
# 
# High freq. dielectric constant tensor:
#      x y z
#    x 1.882960 0.000000 0.000000 
#    y 0.000000 1.882960 0.000000 
#    z 0.000000 0.000000 1.915360 
# 
# From -- ./inp_files/8183.got.cif
#   From: 2010.03.12/outbox.cif.g09.slc.cpg/sg122_5_cif.got.tgz:8183.got - 2010.04.06 16:17:16.
