data_PCOD8311260
_publ_section_title
;
Structure prediction by ZEFSAII (Michael W. Deem and Ramdas Pophale) SiO2 
 PCOD8311260
Probable space group: I -4 C 2
;
_chemical_formula_sum "Si O2"
_cell_formula_units_Z 76
_cell_length_a 13.624208
_cell_length_b 13.624208
_cell_length_c 21.889176
_cell_angle_alpha 90.000000
_cell_angle_beta 90.000000
_cell_angle_gamma 90.000000
_cell_volume 4063.047915
_symmetry_space_group_name_H-M "I -4 C 2"
_symmetry_group_IT_number 120
_symmetry_cell_setting 'tetragonal'
loop_
_space_group_symop_operation_xyz
x,y,z
y,-x,-z
-x,-y,z
-y,x,-z
y,x,1/2-z
-y,-x,1/2-z
-x,y,1/2+z
x,-y,1/2+z
1/2+x,1/2+y,1/2+z
1/2+y,1/2-x,1/2-z
1/2-x,1/2-y,1/2+z
1/2-y,1/2+x,1/2-z
1/2+y,1/2+x,-z
1/2-y,1/2-x,-z
1/2-x,1/2+y,z
1/2+x,1/2-y,z
loop_
_atom_site_type_symbol
_atom_site_label
_atom_site_fract_x
_atom_site_fract_y
_atom_site_fract_z
Si Si1 0.793756 0.148446 0.682919
Si Si2 0.560182 0.695039 0.573998
Si Si3 0.722572 0.222572 0.000000
Si Si4 0.500000 0.500000 0.500000
Si Si5 0.141628 0.239435 0.613549
Si Si6 0.547041 0.394292 0.815551
O O1 0.808526 0.191475 0.750000
O O2 0.873612 0.185253 0.634188
O O3 0.684746 0.182377 0.662337
O O4 0.806199 0.031461 0.686716
O O5 0.611942 0.760685 0.522297
O O6 0.530578 0.590253 0.544101
O O7 0.469906 0.762410 0.595789
O O8 0.749205 0.295571 0.946526
O O9 0.142183 0.127388 0.636880
O O10 0.500000 0.500000 0.834306
O O11 0.596996 0.403005 0.750000
#
# Coordination Sequence:
#
# PCOD8311260 Si02
#       6
#    16  16   8   4  16  16
#     4  11  22  36  59  95 128 157 204 261 319 371
#     4  11  21  37  59  91 122 163 205 263 313 371
#     4  10  24  34  54  88 122 154 212 258 306 370
#     4  12  20  36  70  92 124 160 212 270 316 356
#     4  11  22  36  58  89 122 161 201 262 312 368
#     4  11  19  36  63  92 119 152 202 255 303 369
#
# _framework density 18.705169999999999
#
# number of rings (size 3 to 8) (size 9 to 14) (size 15 to 20)
#    0.000    1.053    6.316    1.895    0.000    0.000 
#    0.000    0.000    0.000   12.000    0.000    5.895 
#    0.000    0.000    0.000    0.000    0.000    0.000 
#
# Total GULP energy -470959.293267 kJ/mol
# GULP energy per Si atom -12393.665612 kJ/mol
# Density = 1.866260 g / cm^3
# Si number density = 18.705170 Si / 1000 Ang^3
#
#
#
# Elastic Constant Matrix: (Units=GPa)
#
#
# Indices 1 2 3 4 5 6 
#
# 1 82.7827 56.9245 38.3844 0.0000 0.0000 0.0000
# 2 56.9245 82.7828 38.3847 0.0000 0.0000 0.0000
# 3 38.3844 38.3847 112.6305 0.0000 0.0000 0.0000
# 4 0.0000 0.0000 0.0000 37.6886 0.0000 0.0000
# 5 0.0000 0.0000 0.0000 0.0000 37.6884 0.0000
# 6 0.0000 0.0000 0.0000 0.0000 0.0000 39.9526
#
#
#
# Elastic Compliance Matrix: (Units=1/GPa)
#
#
# Indices 1 2 3 4 5 6 
#
# 1 0.023740 -0.014933 -0.003001 0.000000 0.000000 0.000000
# 2 -0.014933 0.023740 -0.003002 0.000000 0.000000 0.000000
# 3 -0.003001 -0.003002 0.010924 0.000000 0.000000 0.000000
# 4 0.000000 0.000000 0.000000 0.026533 0.000000 0.000000
# 5 0.000000 0.000000 0.000000 0.000000 0.026533 0.000000
# 6 0.000000 0.000000 0.000000 0.000000 0.000000 0.025030
#
#
# Mechanical properties :
#
#
# Convention : Reuss Voigt Hill
#
# Bulk Modulus (GPa) = 60.48596 60.62036 60.55316
# Shear Modulus (GPa) = 27.19135 32.69943 29.94539
#
# Velocity S-wave (km/s) = 3.81685 4.18562 4.00548
# Velocity P-wave (km/s) = 7.19939 7.47248 7.33720
#
# Compressibility (1/GPa) = 0.01653276
#
# Stress axis : x y z
#
# Youngs Moduli (GPa) = 42.12355 42.12351 91.53823
#
# Poissons Ratio (x) = 0.62901 0.27475
# Poissons Ratio (y) = 0.62901 0.27475
# Poissons Ratio (z) = 0.12643 0.12643
#
# Static dielectric constant tensor:
#      x y z
#    x 3.603670 0.000000 0.000000 
#    y 0.000000 3.603670 0.000000 
#    z 0.000000 0.000000 3.812730 
# 
# 
# High freq. dielectric constant tensor:
#      x y z
#    x 1.708000 0.000000 0.000000 
#    y 0.000000 1.708000 0.000000 
#    z 0.000000 0.000000 1.758850 
# 
# From -- ./inp_files/5212.got.cif
#   From: 2010.03.12/outbox.cif.g09.slc.cpg/sg120_3_cif.got.tgz:5212.got - 2010.04.06 16:00:44.
