data_PCOD8311017
_publ_section_title
;
Structure prediction by ZEFSAII (Michael W. Deem and Ramdas Pophale) SiO2 
 PCOD8311017
Probable space group: I -4 M 2
;
_chemical_formula_sum "Si O2"
_cell_formula_units_Z 48
_cell_length_a 13.517780
_cell_length_b 13.517780
_cell_length_c 11.877216
_cell_angle_alpha 90.000000
_cell_angle_beta 90.000000
_cell_angle_gamma 90.000000
_cell_volume 2170.328147
_symmetry_space_group_name_H-M "I -4 M 2"
_symmetry_group_IT_number 119
_symmetry_cell_setting 'tetragonal'
loop_
_space_group_symop_operation_xyz
x,y,z
y,-x,-z
-x,-y,z
-y,x,-z
y,x,-z
-y,-x,-z
-x,y,z
x,-y,z
1/2+x,1/2+y,1/2+z
1/2+y,1/2-x,1/2-z
1/2-x,1/2-y,1/2+z
1/2-y,1/2+x,1/2-z
1/2+y,1/2+x,1/2-z
1/2-y,1/2-x,1/2-z
1/2-x,1/2+y,1/2+z
1/2+x,1/2-y,1/2+z
loop_
_atom_site_type_symbol
_atom_site_label
_atom_site_fract_x
_atom_site_fract_y
_atom_site_fract_z
Si Si1 0.613448 0.807592 0.637045
Si Si2 0.893774 0.202123 0.790728
Si Si3 0.171515 0.613707 0.909785
O O1 0.500000 0.819025 0.600440
O O2 0.631674 0.868327 0.750000
O O3 0.636373 0.691764 0.655104
O O4 0.682880 0.853537 0.539922
O O5 0.903473 0.309594 0.850716
O O6 0.874268 0.223391 0.657308
O O7 0.000000 0.148145 0.806630
O O8 0.133772 0.500000 0.902955
#
# Coordination Sequence:
#
# PCOD8311017 Si02
#       3
#    16  16  16
#     4  12  25  41  63  94 135 170 210 267 330 392
#     4  10  22  41  67  94 125 169 219 269 317 377
#     4  10  21  40  65  92 126 165 212 263 316 378
#
# _framework density 22.116471000000001
#
# number of rings (size 3 to 8) (size 9 to 14) (size 15 to 20)
#    0.000    1.333    3.333    3.000    0.000    6.333 
#    0.000    6.667    0.000    4.000    0.000    4.667 
#    0.000    0.000    0.000    0.000    0.000    0.000 
#
# Total GULP energy -297378.788165 kJ/mol
# GULP energy per Si atom -12390.782840 kJ/mol
# Density = 2.206613 g / cm^3
# Si number density = 22.116471 Si / 1000 Ang^3
#
#
#
# Elastic Constant Matrix: (Units=GPa)
#
#
# Indices 1 2 3 4 5 6 
#
# 1 77.4581 19.7700 22.8743 0.0000 0.0000 0.0000
# 2 19.7700 77.4568 22.8740 0.0000 0.0000 0.0000
# 3 22.8743 22.8740 149.1747 0.0000 0.0000 0.0000
# 4 0.0000 0.0000 0.0000 21.7271 0.0000 0.0000
# 5 0.0000 0.0000 0.0000 0.0000 21.7270 0.0000
# 6 0.0000 0.0000 0.0000 0.0000 0.0000 17.7997
#
#
#
# Elastic Compliance Matrix: (Units=1/GPa)
#
#
# Indices 1 2 3 4 5 6 
#
# 1 0.014210 -0.003125 -0.001700 0.000000 0.000000 0.000000
# 2 -0.003125 0.014210 -0.001700 0.000000 0.000000 0.000000
# 3 -0.001700 -0.001700 0.007225 0.000000 0.000000 0.000000
# 4 0.000000 0.000000 0.000000 0.046026 0.000000 0.000000
# 5 0.000000 0.000000 0.000000 0.000000 0.046026 0.000000
# 6 0.000000 0.000000 0.000000 0.000000 0.000000 0.056181
#
#
# Mechanical properties :
#
#
# Convention : Reuss Voigt Hill
#
# Bulk Modulus (GPa) = 44.25614 48.34733 46.30173
# Shear Modulus (GPa) = 24.45500 28.15551 26.30526
#
# Velocity S-wave (km/s) = 3.32887 3.57186 3.45250
# Velocity P-wave (km/s) = 5.90162 6.23849 6.07239
#
# Compressibility (1/GPa) = 0.02259574
#
# Stress axis : x y z
#
# Youngs Moduli (GPa) = 70.37422 70.37313 138.41175
#
# Poissons Ratio (x) = 0.21991 0.23526
# Poissons Ratio (y) = 0.21991 0.23526
# Poissons Ratio (z) = 0.11962 0.11962
#
# Static dielectric constant tensor:
#      x y z
#    x 3.712440 0.000000 0.000000 
#    y 0.000000 3.712450 0.000000 
#    z 0.000000 0.000000 4.293200 
# 
# 
# High freq. dielectric constant tensor:
#      x y z
#    x 1.847740 0.000000 0.000000 
#    y 0.000000 1.847740 0.000000 
#    z 0.000000 0.000000 1.888500 
# 
# From -- ./inp_files/3321.got.cif
#   From: 2010.03.12/outbox.cif.g09.slc.cpg/sg119_2_cif.got.tgz:3321.got - 2010.04.14 02:25:26.
