data_PCOD8311192
_publ_section_title
;
Structure prediction by ZEFSAII (Michael W. Deem and Ramdas Pophale) SiO2 
 PCOD8311192
Probable space group: I -4 C 2
;
_chemical_formula_sum "Si O2"
_cell_formula_units_Z 96
_cell_length_a 17.932065
_cell_length_b 17.932065
_cell_length_c 13.948790
_cell_angle_alpha 90.000000
_cell_angle_beta 90.000000
_cell_angle_gamma 90.000000
_cell_volume 4485.358338
_symmetry_space_group_name_H-M "I -4 C 2"
_symmetry_group_IT_number 120
_symmetry_cell_setting 'tetragonal'
loop_
_space_group_symop_operation_xyz
x,y,z
y,-x,-z
-x,-y,z
-y,x,-z
y,x,1/2-z
-y,-x,1/2-z
-x,y,1/2+z
x,-y,1/2+z
1/2+x,1/2+y,1/2+z
1/2+y,1/2-x,1/2-z
1/2-x,1/2-y,1/2+z
1/2-y,1/2+x,1/2-z
1/2+y,1/2+x,-z
1/2-y,1/2-x,-z
1/2-x,1/2+y,z
1/2+x,1/2-y,z
loop_
_atom_site_type_symbol
_atom_site_label
_atom_site_fract_x
_atom_site_fract_y
_atom_site_fract_z
Si Si1 0.567196 0.697737 0.163123
Si Si2 0.884845 0.023263 0.981337
Si Si3 0.877402 0.622165 0.831697
Si Si4 0.839683 0.483948 0.939580
Si Si5 0.605168 0.291221 0.869021
Si Si6 0.120673 0.454376 0.643488
O O1 0.561010 0.779296 0.120350
O O2 0.651330 0.673484 0.137709
O O3 0.552268 0.698870 0.276401
O O4 0.504273 0.642587 0.122007
O O5 0.812994 0.056033 0.037872
O O6 0.916818 0.950155 0.036352
O O7 0.862447 0.707092 0.865263
O O8 0.842584 0.597802 0.727504
O O9 0.964460 0.603480 0.813348
O O10 0.927717 0.659138 0.083789
O O11 0.918933 0.452784 0.903598
O O12 0.823542 0.470143 0.052844
#
# Coordination Sequence:
#
# PCOD8311192 Si02
#       6
#    16  16  16  16  16  16
#     4  10  20  39  63  89 124 161 204 246 316 373
#     4   9  19  36  61  90 120 159 209 258 302 364
#     4  12  21  39  60  89 120 157 207 259 304 358
#     4  11  23  37  60  86 120 163 204 252 298 369
#     4  10  21  37  64  90 123 161 199 258 315 372
#     4  11  22  35  58  87 116 156 206 251 298 354
#
# _framework density 21.402971999999998
#
# number of rings (size 3 to 8) (size 9 to 14) (size 15 to 20)
#    0.000    1.500    3.333    2.000    0.000    2.000 
#    0.000    3.333   25.667    0.000    0.000    0.000 
#    0.000    0.000    0.000    0.000    0.000    0.000 
#
# Total GULP energy -594878.352419 kJ/mol
# GULP energy per Si atom -12393.299009 kJ/mol
# Density = 2.135426 g / cm^3
# Si number density = 21.402972 Si / 1000 Ang^3
#
#
#
# Elastic Constant Matrix: (Units=GPa)
#
#
# Indices 1 2 3 4 5 6 
#
# 1 94.4624 32.0426 36.3468 0.0000 0.0000 0.0000
# 2 32.0426 94.4624 36.3468 0.0000 0.0000 0.0000
# 3 36.3468 36.3468 98.6884 0.0000 0.0000 0.0000
# 4 0.0000 0.0000 0.0000 25.3360 0.0000 0.0000
# 5 0.0000 0.0000 0.0000 0.0000 25.3360 0.0000
# 6 0.0000 0.0000 0.0000 0.0000 0.0000 17.7443
#
#
#
# Elastic Compliance Matrix: (Units=1/GPa)
#
#
# Indices 1 2 3 4 5 6 
#
# 1 0.013024 -0.002997 -0.003693 0.000000 0.000000 0.000000
# 2 -0.002997 0.013024 -0.003693 0.000000 0.000000 0.000000
# 3 -0.003693 -0.003693 0.012853 0.000000 0.000000 0.000000
# 4 0.000000 0.000000 0.000000 0.039470 0.000000 0.000000
# 5 0.000000 0.000000 0.000000 0.000000 0.039470 0.000000
# 6 0.000000 0.000000 0.000000 0.000000 0.000000 0.056356
#
#
# Mechanical properties :
#
#
# Convention : Reuss Voigt Hill
#
# Bulk Modulus (GPa) = 55.14113 55.23172 55.18642
# Shear Modulus (GPa) = 24.87486 25.87505 25.37496
#
# Velocity S-wave (km/s) = 3.41283 3.48076 3.44696
# Velocity P-wave (km/s) = 6.43033 6.48197 6.45620
#
# Compressibility (1/GPa) = 0.01813528
#
# Stress axis : x y z
#
# Youngs Moduli (GPa) = 76.78300 76.78300 77.80246
#
# Poissons Ratio (x) = 0.23011 0.28731
# Poissons Ratio (y) = 0.23011 0.28731
# Poissons Ratio (z) = 0.28355 0.28355
#
# Static dielectric constant tensor:
#      x y z
#    x 3.748830 0.000000 0.000000 
#    y 0.000000 3.748830 0.000000 
#    z 0.000000 0.000000 4.145120 
# 
# 
# High freq. dielectric constant tensor:
#      x y z
#    x 1.823220 0.000000 0.000000 
#    y 0.000000 1.823220 0.000000 
#    z 0.000000 0.000000 1.852930 
# 
# From -- ./inp_files/3610.got.cif
#   From: 2010.03.12/outbox.cif.g09.slc.cpg/sg120_2_cif.got.tgz:3610.got - 2010.04.06 16:00:44.
