data_PCOD8311736
_publ_section_title
;
Structure prediction by ZEFSAII (Michael W. Deem and Ramdas Pophale) SiO2 
 PCOD8311736
Probable space group: I -4 2 D
;
_chemical_formula_sum "Si O2"
_cell_formula_units_Z 84
_cell_length_a 18.019367
_cell_length_b 18.019367
_cell_length_c 15.220562
_cell_angle_alpha 90.000000
_cell_angle_beta 90.000000
_cell_angle_gamma 90.000000
_cell_volume 4942.079755
_symmetry_space_group_name_H-M "I -4 2 D"
_symmetry_group_IT_number 122
_symmetry_cell_setting 'tetragonal'
loop_
_space_group_symop_operation_xyz
x,y,z
y,-x,-z
-x,-y,z
-y,x,-z
x,1/2-y,1/4-z
-x,1/2+y,1/4-z
-y,1/2-x,1/4+z
y,1/2+x,1/4+z
1/2+x,1/2+y,1/2+z
1/2+y,1/2-x,1/2-z
1/2-x,1/2-y,1/2+z
1/2-y,1/2+x,1/2-z
1/2+x,-y,3/4-z
1/2-x,y,3/4-z
1/2-y,-x,3/4+z
1/2+y,x,3/4+z
loop_
_atom_site_type_symbol
_atom_site_label
_atom_site_fract_x
_atom_site_fract_y
_atom_site_fract_z
Si Si1 0.379599 0.284256 0.540630
Si Si2 0.750874 0.802811 0.471492
Si Si3 0.965370 0.857498 0.895536
Si Si4 0.144187 0.688903 0.049786
Si Si5 0.101677 0.737224 0.366569
Si Si6 0.500000 0.500000 0.500000
O O1 0.420227 0.250000 0.625000
O O2 0.333586 0.222189 0.488314
O O3 0.444707 0.314190 0.482829
O O4 0.323405 0.347162 0.570841
O O5 0.750000 0.840807 0.375000
O O6 0.805902 0.731845 0.473678
O O7 0.774633 0.861080 0.547179
O O8 0.894485 0.872743 0.833519
O O9 0.026226 0.803206 0.850903
O O10 0.002216 0.932345 0.931341
O O11 0.125361 0.750000 0.125000
O O12 0.094050 0.701226 0.961655
#
# Coordination Sequence:
#
# PCOD8311736 Si02
#       6
#    16  16  16  16  16   4
#     4   9  17  31  52  73  98 137 175 214 265 322
#     4   9  16  34  56  76 100 131 181 242 261 302
#     4  12  20  34  49  78 113 148 173 217 280 342
#     4  10  17  34  54  76 103 141 186 221 261 324
#     4  10  20  32  51  81 107 135 183 221 277 318
#     4  12  24  32  44  76 132 146 164 216 280 360
#
# _framework density 16.996893
#
# number of rings (size 3 to 8) (size 9 to 14) (size 15 to 20)
#    0.000    1.905    7.619    1.714    0.000    2.286 
#    0.000    1.905    0.000    0.000    0.000    0.000 
#    0.000    0.000    0.000    0.000    0.000    0.000 
#
# Total GULP energy -520371.781403 kJ/mol
# GULP energy per Si atom -12389.804319 kJ/mol
# Density = 1.695821 g / cm^3
# Si number density = 16.996893 Si / 1000 Ang^3
#
#
#
# Elastic Constant Matrix: (Units=GPa)
#
#
# Indices 1 2 3 4 5 6 
#
# 1 52.2744 14.4783 31.7383 0.0000 0.0000 0.0000
# 2 14.4783 52.2744 31.7383 0.0000 0.0000 0.0000
# 3 31.7383 31.7383 103.1326 0.0000 0.0000 0.0000
# 4 0.0000 0.0000 0.0000 0.2759 0.0000 0.0000
# 5 0.0000 0.0000 0.0000 0.0000 0.2759 0.0000
# 6 0.0000 0.0000 0.0000 0.0000 0.0000 18.7976
#
#
#
# Elastic Compliance Matrix: (Units=1/GPa)
#
#
# Indices 1 2 3 4 5 6 
#
# 1 0.023818 -0.002640 -0.006517 0.000000 0.000000 0.000000
# 2 -0.002640 0.023818 -0.006517 0.000000 0.000000 0.000000
# 3 -0.006517 -0.006517 0.013708 0.000000 0.000000 0.000000
# 4 0.000000 0.000000 0.000000 3.625047 0.000000 0.000000
# 5 0.000000 0.000000 0.000000 0.000000 3.625047 0.000000
# 6 0.000000 0.000000 0.000000 0.000000 0.000000 0.053198
#
#
# Mechanical properties :
#
#
# Convention : Reuss Voigt Hill
#
# Bulk Modulus (GPa) = 33.33962 40.39901 36.86932
# Shear Modulus (GPa) = 0.67513 12.51829 6.59671
#
# Velocity S-wave (km/s) = 0.63093 2.71681 1.97219
# Velocity P-wave (km/s) = 4.49316 5.80185 5.18893
#
# Compressibility (1/GPa) = 0.02999434
#
# Stress axis : x y z
#
# Youngs Moduli (GPa) = 41.98503 41.98503 72.95205
#
# Poissons Ratio (x) = 0.11083 0.47546
# Poissons Ratio (y) = 0.11083 0.47546
# Poissons Ratio (z) = 0.27363 0.27363
#
# Static dielectric constant tensor:
#      x y z
#    x 3.279420 0.000000 0.000000 
#    y 0.000000 3.279420 0.000000 
#    z 0.000000 0.000000 3.465250 
# 
# 
# High freq. dielectric constant tensor:
#      x y z
#    x 1.630310 0.000000 0.000000 
#    y 0.000000 1.630310 0.000000 
#    z 0.000000 0.000000 1.656710 
# 
# From -- ./inp_files/6252.got.cif
#   From: 2010.03.12/outbox.cif.g09.slc.cpg/sg122_4_cif.got.tgz:6252.got - 2010.04.06 16:17:16.
