data_PCOD8311276
_publ_section_title
;
Structure prediction by ZEFSAII (Michael W. Deem and Ramdas Pophale) SiO2 
 PCOD8311276
Probable space group: I -4 C 2
;
_chemical_formula_sum "Si O2"
_cell_formula_units_Z 40
_cell_length_a 13.572762
_cell_length_b 13.572762
_cell_length_c 8.736017
_cell_angle_alpha 90.000000
_cell_angle_beta 90.000000
_cell_angle_gamma 90.000000
_cell_volume 1609.347901
_symmetry_space_group_name_H-M "I -4 C 2"
_symmetry_group_IT_number 120
_symmetry_cell_setting 'tetragonal'
loop_
_space_group_symop_operation_xyz
x,y,z
y,-x,-z
-x,-y,z
-y,x,-z
y,x,1/2-z
-y,-x,1/2-z
-x,y,1/2+z
x,-y,1/2+z
1/2+x,1/2+y,1/2+z
1/2+y,1/2-x,1/2-z
1/2-x,1/2-y,1/2+z
1/2-y,1/2+x,1/2-z
1/2+y,1/2+x,-z
1/2-y,1/2-x,-z
1/2-x,1/2+y,z
1/2+x,1/2-y,z
loop_
_atom_site_type_symbol
_atom_site_label
_atom_site_fract_x
_atom_site_fract_y
_atom_site_fract_z
Si Si1 0.101794 0.907119 0.082231
Si Si2 0.115797 0.411224 0.678755
Si Si3 0.268995 0.731006 0.750000
O O1 0.063843 0.936158 0.250000
O O2 0.188833 0.825567 0.097118
O O3 0.007875 0.859796 0.995077
O O4 0.135143 0.522743 0.730365
O O5 0.092237 0.407764 0.500000
O O6 0.211305 0.346868 0.726564
#
# Coordination Sequence:
#
# PCOD8311276 Si02
#       3
#    16  16   8
#     4   9  18  34  59  94 144 184 223 287 361 419
#     4  11  26  50  76 105 150 198 247 310 370 442
#     4  10  26  41  74 109 132 194 248 298 362 450
#
# _framework density 24.854787000000002
#
# number of rings (size 3 to 8) (size 9 to 14) (size 15 to 20)
#    1.200    0.800    0.000    4.800    5.600    3.200 
#    0.000    0.000    0.000    0.000    0.000    0.000 
#    0.000    0.000    0.000    0.000    0.000    0.000 
#
# Total GULP energy -247870.911842 kJ/mol
# GULP energy per Si atom -12393.545592 kJ/mol
# Density = 2.479822 g / cm^3
# Si number density = 24.854787 Si / 1000 Ang^3
#
#
#
# Elastic Constant Matrix: (Units=GPa)
#
#
# Indices 1 2 3 4 5 6 
#
# 1 70.8432 31.8291 16.2267 0.0000 0.0000 0.0000
# 2 31.8291 70.8447 16.2273 0.0000 0.0000 0.0000
# 3 16.2267 16.2273 138.9079 0.0000 0.0000 0.0000
# 4 0.0000 0.0000 0.0000 14.8411 0.0000 0.0000
# 5 0.0000 0.0000 0.0000 0.0000 14.8418 0.0000
# 6 0.0000 0.0000 0.0000 0.0000 0.0000 46.8045
#
#
#
# Elastic Compliance Matrix: (Units=1/GPa)
#
#
# Indices 1 2 3 4 5 6 
#
# 1 0.017872 -0.007759 -0.001181 0.000000 0.000000 0.000000
# 2 -0.007759 0.017872 -0.001181 0.000000 0.000000 0.000000
# 3 -0.001181 -0.001181 0.007475 0.000000 0.000000 0.000000
# 4 0.000000 0.000000 0.000000 0.067380 0.000000 0.000000
# 5 0.000000 0.000000 0.000000 0.000000 0.067377 0.000000
# 6 0.000000 0.000000 0.000000 0.000000 0.000000 0.021365
#
#
# Mechanical properties :
#
#
# Convention : Reuss Voigt Hill
#
# Bulk Modulus (GPa) = 43.52440 45.46245 44.49343
# Shear Modulus (GPa) = 22.00269 29.71832 25.86051
#
# Velocity S-wave (km/s) = 2.97854 3.46161 3.22912
# Velocity P-wave (km/s) = 5.42019 5.85730 5.64298
#
# Compressibility (1/GPa) = 0.02297562
#
# Stress axis : x y z
#
# Youngs Moduli (GPa) = 55.95230 55.95340 133.77864
#
# Poissons Ratio (x) = 0.43415 0.15804
# Poissons Ratio (y) = 0.43414 0.15805
# Poissons Ratio (z) = 0.06610 0.06611
#
# Static dielectric constant tensor:
#      x y z
#    x 4.141500 0.000000 0.000000 
#    y 0.000000 4.141480 0.000000 
#    z 0.000000 0.000000 4.518480 
# 
# 
# High freq. dielectric constant tensor:
#      x y z
#    x 1.976210 0.000000 0.000000 
#    y 0.000000 1.976210 0.000000 
#    z 0.000000 0.000000 2.000260 
# 
# From -- ./inp_files/757.got.cif
#   From: 2010.03.12/outbox.cif.g09.slc.cpg/sg120_1_cif.got.tgz:757.got - 2010.04.06 16:00:44.
