data_PCOD8311143
_publ_section_title
;
Structure prediction by ZEFSAII (Michael W. Deem and Ramdas Pophale) SiO2 
 PCOD8311143
Probable space group: I -4 C 2
;
_chemical_formula_sum "Si O2"
_cell_formula_units_Z 52
_cell_length_a 16.073268
_cell_length_b 16.073268
_cell_length_c 9.886372
_cell_angle_alpha 90.000000
_cell_angle_beta 90.000000
_cell_angle_gamma 90.000000
_cell_volume 2554.143655
_symmetry_space_group_name_H-M "I -4 C 2"
_symmetry_group_IT_number 120
_symmetry_cell_setting 'tetragonal'
loop_
_space_group_symop_operation_xyz
x,y,z
y,-x,-z
-x,-y,z
-y,x,-z
y,x,1/2-z
-y,-x,1/2-z
-x,y,1/2+z
x,-y,1/2+z
1/2+x,1/2+y,1/2+z
1/2+y,1/2-x,1/2-z
1/2-x,1/2-y,1/2+z
1/2-y,1/2+x,1/2-z
1/2+y,1/2+x,-z
1/2-y,1/2-x,-z
1/2-x,1/2+y,z
1/2+x,1/2-y,z
loop_
_atom_site_type_symbol
_atom_site_label
_atom_site_fract_x
_atom_site_fract_y
_atom_site_fract_z
Si Si1 0.000000 0.000000 0.500000
Si Si2 0.376474 0.624533 0.097262
Si Si3 0.634749 0.010813 0.226175
Si Si4 0.491852 0.754466 0.524640
O O1 0.048412 0.059440 0.397059
O O2 0.350821 0.649179 0.250000
O O3 0.422472 0.701077 0.022217
O O4 0.296075 0.591849 0.015439
O O5 0.573665 0.088836 0.232403
O O6 0.712862 0.024857 0.324585
O O7 0.667549 0.003893 0.073843
#
# Coordination Sequence:
#
# PCOD8311143 Si02
#       4
#     4  16  16  16
#     4   8  18  28  60  86 120 170 208 230 296 370
#     4  10  19  36  59  94 131 158 197 254 308 371
#     4  11  24  44  66  89 120 166 220 263 298 358
#     4  11  22  40  66  93 128 164 204 251 316 372
#
# _framework density 20.359076000000002
#
# number of rings (size 3 to 8) (size 9 to 14) (size 15 to 20)
#    0.000    1.538    3.077    2.308    0.000    3.692 
#    0.000    9.231    0.000    0.000    0.000    0.000 
#    0.000    0.000    0.000    0.000    0.000    0.000 
#
# Total GULP energy -322416.987088 kJ/mol
# GULP energy per Si atom -12400.653350 kJ/mol
# Density = 2.031274 g / cm^3
# Si number density = 20.359076 Si / 1000 Ang^3
#
#
#
# Elastic Constant Matrix: (Units=GPa)
#
#
# Indices 1 2 3 4 5 6 
#
# 1 75.8135 22.6085 7.7873 0.0000 0.0000 0.0000
# 2 22.6085 75.8131 7.7873 0.0000 0.0000 0.0000
# 3 7.7873 7.7873 63.8189 0.0000 0.0000 0.0000
# 4 0.0000 0.0000 0.0000 30.6135 0.0000 0.0000
# 5 0.0000 0.0000 0.0000 0.0000 30.6136 0.0000
# 6 0.0000 0.0000 0.0000 0.0000 0.0000 28.3681
#
#
#
# Elastic Compliance Matrix: (Units=1/GPa)
#
#
# Indices 1 2 3 4 5 6 
#
# 1 0.014578 -0.004217 -0.001264 0.000000 0.000000 0.000000
# 2 -0.004217 0.014578 -0.001264 0.000000 0.000000 0.000000
# 3 -0.001264 -0.001264 0.015978 0.000000 0.000000 0.000000
# 4 0.000000 0.000000 0.000000 0.032665 0.000000 0.000000
# 5 0.000000 0.000000 0.000000 0.000000 0.032665 0.000000
# 6 0.000000 0.000000 0.000000 0.000000 0.000000 0.035251
#
#
# Mechanical properties :
#
#
# Convention : Reuss Voigt Hill
#
# Bulk Modulus (GPa) = 31.60369 32.42353 32.01361
# Shear Modulus (GPa) = 29.45439 29.73652 29.59545
#
# Velocity S-wave (km/s) = 3.80774 3.82593 3.81684
# Velocity P-wave (km/s) = 5.90666 5.95629 5.93153
#
# Compressibility (1/GPa) = 0.03164187
#
# Stress axis : x y z
#
# Youngs Moduli (GPa) = 68.59735 68.59705 62.58661
#
# Poissons Ratio (x) = 0.28931 0.07912
# Poissons Ratio (y) = 0.28931 0.07912
# Poissons Ratio (z) = 0.08672 0.08672
#
# Static dielectric constant tensor:
#      x y z
#    x 3.661970 0.000000 0.000000 
#    y 0.000000 3.661970 0.000000 
#    z 0.000000 0.000000 3.513390 
# 
# 
# High freq. dielectric constant tensor:
#      x y z
#    x 1.789980 0.000000 0.000000 
#    y 0.000000 1.789980 0.000000 
#    z 0.000000 0.000000 1.799070 
# 
# From -- ./inp_files/972.got.cif
#   From: 2010.03.12/outbox.cif.g09.slc.cpg/sg120_1_cif.got.tgz:972.got - 2010.04.06 16:00:44.
