data_PCOD8311158
_publ_section_title
;
Structure prediction by ZEFSAII (Michael W. Deem and Ramdas Pophale) SiO2 
 PCOD8311158
Probable space group: I -4 C 2
;
_chemical_formula_sum "Si O2"
_cell_formula_units_Z 88
_cell_length_a 31.301203
_cell_length_b 31.301203
_cell_length_c 5.013650
_cell_angle_alpha 90.000000
_cell_angle_beta 90.000000
_cell_angle_gamma 90.000000
_cell_volume 4912.200343
_symmetry_space_group_name_H-M "I -4 C 2"
_symmetry_group_IT_number 120
_symmetry_cell_setting 'tetragonal'
loop_
_space_group_symop_operation_xyz
x,y,z
y,-x,-z
-x,-y,z
-y,x,-z
y,x,1/2-z
-y,-x,1/2-z
-x,y,1/2+z
x,-y,1/2+z
1/2+x,1/2+y,1/2+z
1/2+y,1/2-x,1/2-z
1/2-x,1/2-y,1/2+z
1/2-y,1/2+x,1/2-z
1/2+y,1/2+x,-z
1/2-y,1/2-x,-z
1/2-x,1/2+y,z
1/2+x,1/2-y,z
loop_
_atom_site_type_symbol
_atom_site_label
_atom_site_fract_x
_atom_site_fract_y
_atom_site_fract_z
Si Si1 0.305117 0.473625 0.022034
Si Si2 0.179796 0.117124 0.353268
Si Si3 0.192962 0.807039 0.250000
Si Si4 0.356283 0.244231 0.971809
Si Si5 0.690180 0.122455 0.014522
Si Si6 0.473004 0.795282 0.999720
O O1 0.319089 0.509250 0.808880
O O2 0.329190 0.429111 0.975521
O O3 0.255058 0.464601 0.993879
O O4 0.134386 0.134386 0.250000
O O5 0.196955 0.149756 0.576583
O O6 0.214865 0.114004 0.111651
O O7 0.235438 0.810265 0.436002
O O8 0.376477 0.214678 0.201979
O O9 0.350634 0.216095 0.707737
O O10 0.643434 0.143434 0.000000
O O11 0.683109 0.072784 0.943705
O O12 0.506826 0.810043 0.221674
#
# Coordination Sequence:
#
# PCOD8311158 Si02
#       6
#    16  16   8  16  16  16
#     4  10  21  32  52  79 107 131 170 221 271 327
#     4  10  21  34  58  77 105 145 182 219 272 318
#     4  10  20  36  60  70 100 146 193 228 254 318
#     4  11  21  37  55  73 104 142 189 222 264 312
#     4  12  24  38  56  77 111 144 180 225 275 320
#     4  10  20  34  56  80 105 136 176 220 269 329
#
# _framework density 17.914579
#
# number of rings (size 3 to 8) (size 9 to 14) (size 15 to 20)
#    0.000    1.455    3.636    1.636   10.182    0.000 
#    0.000    1.818    2.000    0.000    0.000    0.000 
#    0.000    4.364    0.000    0.000    0.000    0.000 
#
# Total GULP energy -545372.852022 kJ/mol
# GULP energy per Si atom -12394.837546 kJ/mol
# Density = 1.787380 g / cm^3
# Si number density = 17.914579 Si / 1000 Ang^3
#
#
#
# Elastic Constant Matrix: (Units=GPa)
#
#
# Indices 1 2 3 4 5 6 
#
# 1 69.2651 37.0575 14.5128 0.0000 0.0000 0.0000
# 2 37.0575 69.2654 14.5133 0.0000 0.0000 0.0000
# 3 14.5128 14.5133 80.4126 0.0000 0.0000 0.0000
# 4 0.0000 0.0000 0.0000 16.1040 0.0000 0.0000
# 5 0.0000 0.0000 0.0000 0.0000 16.1040 0.0000
# 6 0.0000 0.0000 0.0000 0.0000 0.0000 15.8560
#
#
#
# Elastic Compliance Matrix: (Units=1/GPa)
#
#
# Indices 1 2 3 4 5 6 
#
# 1 0.020471 -0.010578 -0.001785 0.000000 0.000000 0.000000
# 2 -0.010578 0.020471 -0.001786 0.000000 0.000000 0.000000
# 3 -0.001785 -0.001786 0.013080 0.000000 0.000000 0.000000
# 4 0.000000 0.000000 0.000000 0.062096 0.000000 0.000000
# 5 0.000000 0.000000 0.000000 0.000000 0.062096 0.000000
# 6 0.000000 0.000000 0.000000 0.000000 0.000000 0.063068
#
#
# Mechanical properties :
#
#
# Convention : Reuss Voigt Hill
#
# Bulk Modulus (GPa) = 38.87421 39.01226 38.94323
# Shear Modulus (GPa) = 17.97564 19.80343 18.88953
#
# Velocity S-wave (km/s) = 3.17110 3.32842 3.25071
# Velocity P-wave (km/s) = 5.92914 6.04940 5.98957
#
# Compressibility (1/GPa) = 0.02572400
#
# Stress axis : x y z
#
# Youngs Moduli (GPa) = 48.85050 48.85056 76.45058
#
# Poissons Ratio (x) = 0.51673 0.13649
# Poissons Ratio (y) = 0.51673 0.13651
# Poissons Ratio (z) = 0.08722 0.08723
#
# Static dielectric constant tensor:
#      x y z
#    x 3.034610 0.000000 0.000000 
#    y 0.000000 3.034600 0.000000 
#    z 0.000000 0.000000 3.705930 
# 
# 
# High freq. dielectric constant tensor:
#      x y z
#    x 1.653300 0.000000 0.000000 
#    y 0.000000 1.653300 0.000000 
#    z 0.000000 0.000000 1.723290 
# 
# From -- ./inp_files/477.got.cif
#   From: 2010.03.12/outbox.cif.g09.slc.cpg/sg120_1_cif.got.tgz:477.got - 2010.04.06 16:00:44.
