data_PCOD8311734
_publ_section_title
;
Structure prediction by ZEFSAII (Michael W. Deem and Ramdas Pophale) SiO2 
 PCOD8311734
Probable space group: I -4 2 D
;
_chemical_formula_sum "Si O2"
_cell_formula_units_Z 72
_cell_length_a 27.807741
_cell_length_b 27.807741
_cell_length_c 4.984226
_cell_angle_alpha 90.000000
_cell_angle_beta 90.000000
_cell_angle_gamma 90.000000
_cell_volume 3854.154729
_symmetry_space_group_name_H-M "I -4 2 D"
_symmetry_group_IT_number 122
_symmetry_cell_setting 'tetragonal'
loop_
_space_group_symop_operation_xyz
x,y,z
y,-x,-z
-x,-y,z
-y,x,-z
x,1/2-y,1/4-z
-x,1/2+y,1/4-z
-y,1/2-x,1/4+z
y,1/2+x,1/4+z
1/2+x,1/2+y,1/2+z
1/2+y,1/2-x,1/2-z
1/2-x,1/2-y,1/2+z
1/2-y,1/2+x,1/2-z
1/2+x,-y,3/4-z
1/2-x,y,3/4-z
1/2-y,-x,3/4+z
1/2+y,x,3/4+z
loop_
_atom_site_type_symbol
_atom_site_label
_atom_site_fract_x
_atom_site_fract_y
_atom_site_fract_z
Si Si1 0.250000 0.283619 0.875000
Si Si2 0.919526 0.416165 0.567813
Si Si3 0.477502 0.891456 0.558017
Si Si4 0.180594 0.131341 0.272094
Si Si5 0.926903 0.202178 0.238090
O O1 0.237391 0.250000 0.625000
O O2 0.201780 0.315069 0.938246
O O3 0.898828 0.466210 0.468578
O O4 0.961090 0.400360 0.361487
O O5 0.876357 0.376553 0.589413
O O6 0.945511 0.423630 0.854828
O O7 0.469092 0.836100 0.483816
O O8 0.210728 0.097320 0.473818
O O9 0.187303 0.116007 0.964437
O O10 0.951896 0.250000 0.125000
#
# Coordination Sequence:
#
# PCOD8311734 Si02
#       5
#     8  16  16  16  16
#     4  12  22  34  56  84 108 140 182 210 276 340
#     4  10  21  36  53  79 110 141 182 222 273 311
#     4  10  21  33  54  79 106 145 178 221 269 323
#     4  10  20  35  54  76 108 136 172 230 257 311
#     4  10  17  33  56  76  97 135 187 223 256 302
#
# _framework density 18.681139000000002
#
# number of rings (size 3 to 8) (size 9 to 14) (size 15 to 20)
#    0.000    1.778    2.222    2.667    0.000    2.667 
#    0.000    1.111    0.000    5.333    0.000    0.000 
#    0.000    0.000    0.000    0.000    0.000    0.000 
#
# Total GULP energy -446224.843760 kJ/mol
# GULP energy per Si atom -12395.134549 kJ/mol
# Density = 1.863862 g / cm^3
# Si number density = 18.681139 Si / 1000 Ang^3
#
#
#
# Elastic Constant Matrix: (Units=GPa)
#
#
# Indices 1 2 3 4 5 6 
#
# 1 96.5919 48.5813 12.6174 0.0000 0.0000 0.0000
# 2 48.5813 96.5919 12.6174 0.0000 0.0000 0.0000
# 3 12.6174 12.6174 71.7352 0.0000 0.0000 0.0000
# 4 0.0000 0.0000 0.0000 26.7306 0.0000 0.0000
# 5 0.0000 0.0000 0.0000 0.0000 26.7306 0.0000
# 6 0.0000 0.0000 0.0000 0.0000 0.0000 13.8442
#
#
#
# Elastic Compliance Matrix: (Units=1/GPa)
#
#
# Indices 1 2 3 4 5 6 
#
# 1 0.013967 -0.006862 -0.001250 0.000000 0.000000 0.000000
# 2 -0.006862 0.013967 -0.001250 0.000000 0.000000 0.000000
# 3 -0.001250 -0.001250 0.014380 0.000000 0.000000 0.000000
# 4 0.000000 0.000000 0.000000 0.037410 0.000000 0.000000
# 5 0.000000 0.000000 0.000000 0.000000 0.037410 0.000000
# 6 0.000000 0.000000 0.000000 0.000000 0.000000 0.072232
#
#
# Mechanical properties :
#
#
# Convention : Reuss Voigt Hill
#
# Bulk Modulus (GPa) = 42.38761 45.83901 44.11331
# Shear Modulus (GPa) = 23.15314 26.20127 24.67720
#
# Velocity S-wave (km/s) = 3.52431 3.74913 3.63846
# Velocity P-wave (km/s) = 6.26900 6.58272 6.42777
#
# Compressibility (1/GPa) = 0.02359180
#
# Stress axis : x y z
#
# Youngs Moduli (GPa) = 71.59652 71.59652 69.54194
#
# Poissons Ratio (x) = 0.49127 0.08691
# Poissons Ratio (y) = 0.49127 0.08691
# Poissons Ratio (z) = 0.08948 0.08948
#
# Static dielectric constant tensor:
#      x y z
#    x 3.344860 0.000000 0.000000 
#    y 0.000000 3.344860 0.000000 
#    z 0.000000 0.000000 3.753430 
# 
# 
# High freq. dielectric constant tensor:
#      x y z
#    x 1.706690 0.000000 0.000000 
#    y 0.000000 1.706690 0.000000 
#    z 0.000000 0.000000 1.753260 
# 
# From -- ./inp_files/1226.got.cif
#   From: 2010.03.12/outbox.cif.g09.slc.cpg/sg122_1_cif.got.tgz:1226.got - 2010.04.06 16:17:16.
