data_PCOD8311429
_publ_section_title
;
Structure prediction by ZEFSAII (Michael W. Deem and Ramdas Pophale) SiO2 
 PCOD8311429
Probable space group: I -4 2 M
;
_chemical_formula_sum "Si O2"
_cell_formula_units_Z 80
_cell_length_a 12.457111
_cell_length_b 12.457111
_cell_length_c 31.916203
_cell_angle_alpha 90.000000
_cell_angle_beta 90.000000
_cell_angle_gamma 90.000000
_cell_volume 4952.744077
_symmetry_space_group_name_H-M "I -4 2 M"
_symmetry_group_IT_number 121
_symmetry_cell_setting 'tetragonal'
loop_
_space_group_symop_operation_xyz
x,y,z
y,-x,-z
-x,-y,z
-y,x,-z
x,-y,-z
-x,y,-z
-y,-x,z
y,x,z
1/2+x,1/2+y,1/2+z
1/2+y,1/2-x,1/2-z
1/2-x,1/2-y,1/2+z
1/2-y,1/2+x,1/2-z
1/2+x,1/2-y,1/2-z
1/2-x,1/2+y,1/2-z
1/2-y,1/2-x,1/2+z
1/2+y,1/2+x,1/2+z
loop_
_atom_site_type_symbol
_atom_site_label
_atom_site_fract_x
_atom_site_fract_y
_atom_site_fract_z
Si Si1 0.787163 0.381405 0.339251
Si Si2 0.378865 0.124109 0.749518
Si Si3 0.496785 0.876841 0.893151
Si Si4 0.999980 0.173282 0.450623
Si Si5 0.294729 0.873218 0.161727
O O1 0.688595 0.311406 0.356576
O O2 0.806467 0.349000 0.290962
O O3 0.754677 0.505291 0.343201
O O4 0.890467 0.355571 0.366768
O O5 0.501422 0.141692 0.762839
O O6 0.308595 0.157025 0.789469
O O7 0.500750 0.791497 0.930645
O O8 0.595451 0.855010 0.862593
O O9 0.500000 0.000000 0.910421
O O10 0.894040 0.105961 0.437068
O O11 0.000000 0.190631 0.500000
O O12 0.105707 0.105707 0.437059
O O13 0.203782 0.796219 0.142501
#
# Coordination Sequence:
#
# PCOD8311429 Si02
#       5
#    16  16  16  16  16
#     4  10  19  30  46  66  89 121 156 195 236 276
#     4   9  15  28  46  64  86 114 156 198 236 276
#     4  10  19  32  48  72  95 122 161 194 228 275
#     4   9  18  33  53  75  99 126 151 185 241 295
#     4  10  19  30  46  66  89 121 156 195 236 276
#
# _framework density 16.152663
#
# number of rings (size 3 to 8) (size 9 to 14) (size 15 to 20)
#    0.000    2.400    2.000    2.400    0.000    0.800 
#    0.000    0.000    0.000    0.000    0.000    0.000 
#    0.000    0.000    0.000   37.200    0.000    0.000 
#
# Total GULP energy -495841.830032 kJ/mol
# GULP energy per Si atom -12396.045751 kJ/mol
# Density = 1.611590 g / cm^3
# Si number density = 16.152663 Si / 1000 Ang^3
#
#
#
# Elastic Constant Matrix: (Units=GPa)
#
#
# Indices 1 2 3 4 5 6 
#
# 1 72.4933 29.8720 22.4299 0.0000 0.0000 0.0000
# 2 29.8720 72.4937 22.4308 0.0000 0.0000 0.0000
# 3 22.4299 22.4308 46.6909 0.0000 0.0000 0.0000
# 4 0.0000 0.0000 0.0000 20.6046 0.0000 0.0000
# 5 0.0000 0.0000 0.0000 0.0000 20.6037 0.0000
# 6 0.0000 0.0000 0.0000 0.0000 0.0000 29.2425
#
#
#
# Elastic Compliance Matrix: (Units=1/GPa)
#
#
# Indices 1 2 3 4 5 6 
#
# 1 0.017918 -0.005544 -0.005944 0.000000 0.000000 0.000000
# 2 -0.005544 0.017918 -0.005945 0.000000 0.000000 0.000000
# 3 -0.005944 -0.005945 0.027129 0.000000 0.000000 0.000000
# 4 0.000000 0.000000 0.000000 0.048533 0.000000 0.000000
# 5 0.000000 0.000000 0.000000 0.000000 0.048535 0.000000
# 6 0.000000 0.000000 0.000000 0.000000 0.000000 0.034197
#
#
# Mechanical properties :
#
#
# Convention : Reuss Voigt Hill
#
# Bulk Modulus (GPa) = 35.58843 37.90480 36.74661
# Shear Modulus (GPa) = 20.96768 21.88652 21.42710
#
# Velocity S-wave (km/s) = 3.60682 3.68500 3.64612
# Velocity P-wave (km/s) = 6.27900 6.45160 6.36589
#
# Compressibility (1/GPa) = 0.02809902
#
# Stress axis : x y z
#
# Youngs Moduli (GPa) = 55.80943 55.80904 36.86108
#
# Poissons Ratio (x) = 0.30941 0.21911
# Poissons Ratio (y) = 0.30942 0.21913
# Poissons Ratio (z) = 0.33174 0.33177
#
# Static dielectric constant tensor:
#      x y z
#    x 3.021320 0.000000 0.000000 
#    y 0.000000 3.021320 0.000000 
#    z 0.000000 0.000000 3.173900 
# 
# 
# High freq. dielectric constant tensor:
#      x y z
#    x 1.620160 0.000000 0.000000 
#    y 0.000000 1.620160 0.000000 
#    z 0.000000 0.000000 1.602410 
# 
# From -- ./inp_files/8006.got.cif
#   From: 2010.03.12/outbox.cif.g09.slc.cpg/sg121_5_cif.got.tgz:8006.got - 2010.04.06 16:06:48.
