data_PCOD8311638
_publ_section_title
;
Structure prediction by ZEFSAII (Michael W. Deem and Ramdas Pophale) SiO2 
 PCOD8311638
Probable space group: I -4 2 M
;
_chemical_formula_sum "Si O2"
_cell_formula_units_Z 80
_cell_length_a 16.718252
_cell_length_b 16.718252
_cell_length_c 14.389691
_cell_angle_alpha 90.000000
_cell_angle_beta 90.000000
_cell_angle_gamma 90.000000
_cell_volume 4021.917914
_symmetry_space_group_name_H-M "I -4 2 M"
_symmetry_group_IT_number 121
_symmetry_cell_setting 'tetragonal'
loop_
_space_group_symop_operation_xyz
x,y,z
y,-x,-z
-x,-y,z
-y,x,-z
x,-y,-z
-x,y,-z
-y,-x,z
y,x,z
1/2+x,1/2+y,1/2+z
1/2+y,1/2-x,1/2-z
1/2-x,1/2-y,1/2+z
1/2-y,1/2+x,1/2-z
1/2+x,1/2-y,1/2-z
1/2-x,1/2+y,1/2-z
1/2-y,1/2-x,1/2+z
1/2+y,1/2+x,1/2+z
loop_
_atom_site_type_symbol
_atom_site_label
_atom_site_fract_x
_atom_site_fract_y
_atom_site_fract_z
Si Si1 0.706553 0.577798 0.259324
Si Si2 0.989097 0.695283 0.609433
Si Si3 0.910891 0.655087 0.090798
Si Si4 0.956386 0.824932 0.095761
Si Si5 0.409731 0.139071 0.380361
O O1 0.655607 0.655607 0.230719
O O2 0.723505 0.522382 0.168214
O O3 0.653549 0.523311 0.328389
O O4 0.788030 0.606067 0.310269
O O5 0.905955 0.651188 0.635889
O O6 0.000000 0.712542 0.500000
O O7 0.062403 0.643037 0.650150
O O8 0.908523 0.745698 0.131071
O O9 0.996961 0.615642 0.112737
O O10 0.885055 0.664168 0.983674
O O11 0.899690 0.899690 0.080469
O O12 0.000000 0.801727 0.000000
#
# Coordination Sequence:
#
# PCOD8311638 Si02
#       5
#    16  16  16  16  16
#     4  11  24  40  58  88 126 161 211 266 307 357
#     4  10  22  39  60  86 122 167 207 243 305 375
#     4   9  17  36  59  88 123 154 190 241 309 373
#     4  11  22  39  63  92 124 159 199 251 322 387
#     4   9  18  35  58  87 120 154 194 246 305 371
#
# _framework density 19.891007999999999
#
# number of rings (size 3 to 8) (size 9 to 14) (size 15 to 20)
#    0.000    2.000    4.000    1.200    5.600    4.600 
#    0.000    4.000    0.000    0.000    0.000    0.000 
#    0.000    0.000    0.000    0.000    0.000    0.000 
#
# Total GULP energy -495688.412588 kJ/mol
# GULP energy per Si atom -12392.210315 kJ/mol
# Density = 1.984574 g / cm^3
# Si number density = 19.891008 Si / 1000 Ang^3
#
#
#
# Elastic Constant Matrix: (Units=GPa)
#
#
# Indices 1 2 3 4 5 6 
#
# 1 83.8304 51.5997 38.7655 0.0000 0.0000 0.0000
# 2 51.5997 83.8304 38.7655 0.0000 0.0000 0.0000
# 3 38.7655 38.7655 51.7190 0.0000 0.0000 0.0000
# 4 0.0000 0.0000 0.0000 23.1341 0.0000 0.0000
# 5 0.0000 0.0000 0.0000 0.0000 23.1341 0.0000
# 6 0.0000 0.0000 0.0000 0.0000 0.0000 45.2051
#
#
#
# Elastic Compliance Matrix: (Units=1/GPa)
#
#
# Indices 1 2 3 4 5 6 
#
# 1 0.021980 -0.009046 -0.009694 0.000000 0.000000 0.000000
# 2 -0.009046 0.021980 -0.009694 0.000000 0.000000 0.000000
# 3 -0.009694 -0.009694 0.033868 0.000000 0.000000 0.000000
# 4 0.000000 0.000000 0.000000 0.043226 0.000000 0.000000
# 5 0.000000 0.000000 0.000000 0.000000 0.043226 0.000000
# 6 0.000000 0.000000 0.000000 0.000000 0.000000 0.022121
#
#
# Mechanical properties :
#
#
# Convention : Reuss Voigt Hill
#
# Bulk Modulus (GPa) = 47.71469 53.07125 50.39297
# Shear Modulus (GPa) = 19.97940 24.31127 22.14533
#
# Velocity S-wave (km/s) = 3.17273 3.49982 3.34029
# Velocity P-wave (km/s) = 6.12060 6.56282 6.34557
#
# Compressibility (1/GPa) = 0.02095791
#
# Stress axis : x y z
#
# Youngs Moduli (GPa) = 45.49587 45.49587 29.52645
#
# Poissons Ratio (x) = 0.41157 0.28624
# Poissons Ratio (y) = 0.41157 0.28624
# Poissons Ratio (z) = 0.44105 0.44105
#
# Static dielectric constant tensor:
#      x y z
#    x 3.448070 0.000000 0.000000 
#    y 0.000000 3.448070 0.000000 
#    z 0.000000 0.000000 3.598320 
# 
# 
# High freq. dielectric constant tensor:
#      x y z
#    x 1.754230 0.000000 0.000000 
#    y 0.000000 1.754230 0.000000 
#    z 0.000000 0.000000 1.778340 
# 
# From -- ./inp_files/4233.got.cif
#   From: 2010.03.12/outbox.cif.g09.slc.cpg/sg121_3_cif.got.tgz:4233.got - 2010.04.06 16:06:48.
