data_PCOD8311831
_publ_section_title
;
Structure prediction by ZEFSAII (Michael W. Deem and Ramdas Pophale) SiO2 
 PCOD8311831
Probable space group: I -4 2 D
;
_chemical_formula_sum "Si O2"
_cell_formula_units_Z 40
_cell_length_a 19.972194
_cell_length_b 19.972194
_cell_length_c 4.845409
_cell_angle_alpha 90.000000
_cell_angle_beta 90.000000
_cell_angle_gamma 90.000000
_cell_volume 1932.778089
_symmetry_space_group_name_H-M "I -4 2 D"
_symmetry_group_IT_number 122
_symmetry_cell_setting 'tetragonal'
loop_
_space_group_symop_operation_xyz
x,y,z
y,-x,-z
-x,-y,z
-y,x,-z
x,1/2-y,1/4-z
-x,1/2+y,1/4-z
-y,1/2-x,1/4+z
y,1/2+x,1/4+z
1/2+x,1/2+y,1/2+z
1/2+y,1/2-x,1/2-z
1/2-x,1/2-y,1/2+z
1/2-y,1/2+x,1/2-z
1/2+x,-y,3/4-z
1/2-x,y,3/4-z
1/2-y,-x,3/4+z
1/2+y,x,3/4+z
loop_
_atom_site_type_symbol
_atom_site_label
_atom_site_fract_x
_atom_site_fract_y
_atom_site_fract_z
Si Si1 0.316745 0.078016 0.233843
Si Si2 0.602271 0.538018 0.527407
Si Si3 0.705850 0.250000 0.125000
O O1 0.250000 0.044693 0.375000
O O2 0.380236 0.058086 0.413153
O O3 0.307975 0.158944 0.240559
O O4 0.334030 0.053192 0.923979
O O5 0.583999 0.460388 0.549768
O O6 0.750000 0.279868 0.375000
#
# Coordination Sequence:
#
# PCOD8311831 Si02
#       3
#    16  16   8
#     4  10  22  39  63  86 126 161 201 270 305 364
#     4  11  22  40  63  90 124 169 207 248 316 378
#     4  10  20  38  64  86 120 166 196 244 334 358
#
# _framework density 20.695602000000001
#
# number of rings (size 3 to 8) (size 9 to 14) (size 15 to 20)
#    1.200    0.400    0.000    6.000    0.000    3.200 
#    0.000   20.000    0.000    0.000    0.000    0.000 
#    0.000    0.000    0.000    0.000    0.000    0.000 
#
# Total GULP energy -247840.725938 kJ/mol
# GULP energy per Si atom -12392.036297 kJ/mol
# Density = 2.064850 g / cm^3
# Si number density = 20.695602 Si / 1000 Ang^3
#
#
#
# Elastic Constant Matrix: (Units=GPa)
#
#
# Indices 1 2 3 4 5 6 
#
# 1 68.8627 22.3353 6.9270 0.0000 0.0000 0.0000
# 2 22.3353 68.8627 6.9270 0.0000 0.0000 0.0000
# 3 6.9270 6.9270 82.9760 0.0000 0.0000 0.0000
# 4 0.0000 0.0000 0.0000 29.6617 0.0000 0.0000
# 5 0.0000 0.0000 0.0000 0.0000 29.6617 0.0000
# 6 0.0000 0.0000 0.0000 0.0000 0.0000 23.7155
#
#
#
# Elastic Compliance Matrix: (Units=1/GPa)
#
#
# Indices 1 2 3 4 5 6 
#
# 1 0.016299 -0.005193 -0.000927 0.000000 0.000000 0.000000
# 2 -0.005193 0.016299 -0.000927 0.000000 0.000000 0.000000
# 3 -0.000927 -0.000927 0.012206 0.000000 0.000000 0.000000
# 4 0.000000 0.000000 0.000000 0.033714 0.000000 0.000000
# 5 0.000000 0.000000 0.000000 0.000000 0.033714 0.000000
# 6 0.000000 0.000000 0.000000 0.000000 0.000000 0.042166
#
#
# Mechanical properties :
#
#
# Convention : Reuss Voigt Hill
#
# Bulk Modulus (GPa) = 32.56284 32.56447 32.56365
# Shear Modulus (GPa) = 27.97506 28.90859 28.44183
#
# Velocity S-wave (km/s) = 3.68059 3.74150 3.71117
# Velocity P-wave (km/s) = 5.81641 5.86807 5.84230
#
# Compressibility (1/GPa) = 0.03070985
#
# Stress axis : x y z
#
# Youngs Moduli (GPa) = 61.35216 61.35216 81.92373
#
# Poissons Ratio (x) = 0.31862 0.07596
# Poissons Ratio (y) = 0.31862 0.07596
# Poissons Ratio (z) = 0.05688 0.05688
#
# Static dielectric constant tensor:
#      x y z
#    x 3.572750 0.000000 0.000000 
#    y 0.000000 3.572750 0.000000 
#    z 0.000000 0.000000 3.677630 
# 
# 
# High freq. dielectric constant tensor:
#      x y z
#    x 1.794660 0.000000 0.000000 
#    y 0.000000 1.794660 0.000000 
#    z 0.000000 0.000000 1.827290 
# 
# From -- ./inp_files/428.got.cif
#   From: 2010.03.12/outbox.cif.g09.slc.cpg/sg122_1_cif.got.tgz:428.got - 2010.04.06 16:17:16.
