data_PCOD8311117
_publ_section_title
;
Structure prediction by ZEFSAII (Michael W. Deem and Ramdas Pophale) SiO2 
 PCOD8311117
Probable space group: I -4 C 2
;
_chemical_formula_sum "Si O2"
_cell_formula_units_Z 80
_cell_length_a 17.981799
_cell_length_b 17.981799
_cell_length_c 15.276822
_cell_angle_alpha 90.000000
_cell_angle_beta 90.000000
_cell_angle_gamma 90.000000
_cell_volume 4939.685465
_symmetry_space_group_name_H-M "I -4 C 2"
_symmetry_group_IT_number 120
_symmetry_cell_setting 'tetragonal'
loop_
_space_group_symop_operation_xyz
x,y,z
y,-x,-z
-x,-y,z
-y,x,-z
y,x,1/2-z
-y,-x,1/2-z
-x,y,1/2+z
x,-y,1/2+z
1/2+x,1/2+y,1/2+z
1/2+y,1/2-x,1/2-z
1/2-x,1/2-y,1/2+z
1/2-y,1/2+x,1/2-z
1/2+y,1/2+x,-z
1/2-y,1/2-x,-z
1/2-x,1/2+y,z
1/2+x,1/2-y,z
loop_
_atom_site_type_symbol
_atom_site_label
_atom_site_fract_x
_atom_site_fract_y
_atom_site_fract_z
Si Si1 0.420017 0.579984 0.750000
Si Si2 0.321906 0.708432 0.961635
Si Si3 0.209533 0.680078 0.710485
Si Si4 0.084742 0.915259 0.750000
Si Si5 0.772526 0.917065 0.854999
Si Si6 0.225128 0.914431 0.870990
O O1 0.409750 0.497762 0.706634
O O2 0.410933 0.642947 0.678045
O O3 0.352131 0.742752 0.870496
O O4 0.279834 0.629802 0.944776
O O5 0.258095 0.758095 0.000000
O O6 0.388905 0.707116 0.030482
O O7 0.246177 0.753824 0.750000
O O8 0.211720 0.617013 0.786344
O O9 0.128426 0.706555 0.677138
O O10 0.147262 0.904096 0.822477
O O11 0.747659 0.000610 0.874836
#
# Coordination Sequence:
#
# PCOD8311117 Si02
#       6
#     8  16  16   8  16  16
#     4   9  16  29  44  64 102 131 152 179 234 294
#     4   9  18  31  46  69  99 125 157 209 244 283
#     4   9  16  33  50  68  98 129 161 210 245 286
#     4   9  18  27  42  70 100 131 154 187 230 296
#     4  10  18  32  51  70  97 135 164 195 252 299
#     4  10  19  30  49  75  95 130 170 199 245 296
#
# _framework density 16.195361999999999
#
# number of rings (size 3 to 8) (size 9 to 14) (size 15 to 20)
#    0.000    2.600    4.000    0.000    0.000    1.600 
#    0.000    0.000    0.000    0.600    0.000    0.000 
#    0.000    0.000    0.000    0.000    0.000    0.000 
#
# Total GULP energy -495541.948136 kJ/mol
# GULP energy per Si atom -12388.548703 kJ/mol
# Density = 1.615850 g / cm^3
# Si number density = 16.195362 Si / 1000 Ang^3
#
#
#
# Elastic Constant Matrix: (Units=GPa)
#
#
# Indices 1 2 3 4 5 6 
#
# 1 78.5238 31.8994 35.2394 0.0000 0.0000 0.0000
# 2 31.8994 78.5233 35.2400 0.0000 0.0000 0.0000
# 3 35.2394 35.2400 85.8041 0.0000 0.0000 0.0000
# 4 0.0000 0.0000 0.0000 16.2225 0.0000 0.0000
# 5 0.0000 0.0000 0.0000 0.0000 16.2225 0.0000
# 6 0.0000 0.0000 0.0000 0.0000 0.0000 20.0210
#
#
#
# Elastic Compliance Matrix: (Units=1/GPa)
#
#
# Indices 1 2 3 4 5 6 
#
# 1 0.016861 -0.004587 -0.005041 0.000000 0.000000 0.000000
# 2 -0.004587 0.016861 -0.005041 0.000000 0.000000 0.000000
# 3 -0.005041 -0.005041 0.015795 0.000000 0.000000 0.000000
# 4 0.000000 0.000000 0.000000 0.061643 0.000000 0.000000
# 5 0.000000 0.000000 0.000000 0.000000 0.061643 0.000000
# 6 0.000000 0.000000 0.000000 0.000000 0.000000 0.049948
#
#
# Mechanical properties :
#
#
# Convention : Reuss Voigt Hill
#
# Bulk Modulus (GPa) = 49.55661 49.73430 49.64546
# Shear Modulus (GPa) = 19.31895 19.85802 19.58848
#
# Velocity S-wave (km/s) = 3.45754 3.50545 3.48158
# Velocity P-wave (km/s) = 6.82680 6.86730 6.84708
#
# Compressibility (1/GPa) = 0.02017894
#
# Stress axis : x y z
#
# Youngs Moduli (GPa) = 59.30973 59.30883 63.31170
#
# Poissons Ratio (x) = 0.27207 0.31913
# Poissons Ratio (y) = 0.27208 0.31914
# Poissons Ratio (z) = 0.29895 0.29896
#
# Static dielectric constant tensor:
#      x y z
#    x 3.109970 0.000000 0.000000 
#    y 0.000000 3.109970 0.000000 
#    z 0.000000 0.000000 4.913940 
# 
# 
# High freq. dielectric constant tensor:
#      x y z
#    x 1.612320 0.000000 0.000000 
#    y 0.000000 1.612320 0.000000 
#    z 0.000000 0.000000 1.615710 
# 
# From -- ./inp_files/3481.got.cif
#   From: 2010.03.12/outbox.cif.g09.slc.cpg/sg120_2_cif.got.tgz:3481.got - 2010.04.06 16:00:44.
