data_PCOD8311081
_publ_section_title
;
Structure prediction by ZEFSAII (Michael W. Deem and Ramdas Pophale) SiO2 
 PCOD8311081
Probable space group: I -4 M 2
;
_chemical_formula_sum "Si O2"
_cell_formula_units_Z 32
_cell_length_a 7.469231
_cell_length_b 7.469231
_cell_length_c 26.689676
_cell_angle_alpha 90.000000
_cell_angle_beta 90.000000
_cell_angle_gamma 90.000000
_cell_volume 1489.001323
_symmetry_space_group_name_H-M "I -4 M 2"
_symmetry_group_IT_number 119
_symmetry_cell_setting 'tetragonal'
loop_
_space_group_symop_operation_xyz
x,y,z
y,-x,-z
-x,-y,z
-y,x,-z
y,x,-z
-y,-x,-z
-x,y,z
x,-y,z
1/2+x,1/2+y,1/2+z
1/2+y,1/2-x,1/2-z
1/2-x,1/2-y,1/2+z
1/2-y,1/2+x,1/2-z
1/2+y,1/2+x,1/2-z
1/2-y,1/2-x,1/2-z
1/2-x,1/2+y,1/2+z
1/2+x,1/2-y,1/2+z
loop_
_atom_site_type_symbol
_atom_site_label
_atom_site_fract_x
_atom_site_fract_y
_atom_site_fract_z
Si Si1 0.805045 0.000000 0.378321
Si Si2 0.292938 0.000000 0.485419
Si Si3 0.202191 0.800161 0.803670
O O1 0.672326 0.000000 0.425299
O O2 0.792830 0.174224 0.344029
O O3 0.000000 0.000000 0.403587
O O4 0.180921 0.819080 0.500000
O O5 0.500000 0.000000 0.507700
O O6 0.297721 0.797721 0.750000
O O7 0.000000 0.735678 0.795513
O O8 0.214073 0.000000 0.825444
#
# Coordination Sequence:
#
# PCOD8311081 Si02
#       3
#     8   8  16
#     4  12  24  43  69  98 137 185 230 289 355 415
#     4  11  25  50  77 107 144 185 245 310 371 432
#     4  11  23  39  61  94 136 182 231 280 338 415
#
# _framework density 21.490915000000001
#
# number of rings (size 3 to 8) (size 9 to 14) (size 15 to 20)
#    0.000    0.750    5.000    3.750    0.000    6.000 
#    0.000    0.000    0.000    0.000    0.000    0.000 
#    0.000    0.000    0.000    0.000    0.000    0.000 
#
# Total GULP energy -198333.493481 kJ/mol
# GULP energy per Si atom -12395.843343 kJ/mol
# Density = 2.144200 g / cm^3
# Si number density = 21.490915 Si / 1000 Ang^3
#
#
#
# Elastic Constant Matrix: (Units=GPa)
#
#
# Indices 1 2 3 4 5 6 
#
# 1 134.1252 41.6543 21.1293 0.0000 0.0000 0.0000
# 2 41.6543 134.1258 21.1295 0.0000 0.0000 0.0000
# 3 21.1293 21.1295 114.6812 0.0000 0.0000 0.0000
# 4 0.0000 0.0000 0.0000 1.0364 0.0000 0.0000
# 5 0.0000 0.0000 0.0000 0.0000 1.0378 0.0000
# 6 0.0000 0.0000 0.0000 0.0000 0.0000 28.8290
#
#
#
# Elastic Compliance Matrix: (Units=1/GPa)
#
#
# Indices 1 2 3 4 5 6 
#
# 1 0.008383 -0.002431 -0.001097 0.000000 0.000000 0.000000
# 2 -0.002431 0.008383 -0.001097 0.000000 0.000000 0.000000
# 3 -0.001097 -0.001097 0.009124 0.000000 0.000000 0.000000
# 4 0.000000 0.000000 0.000000 0.964837 0.000003 0.000000
# 5 0.000000 0.000000 0.000000 0.000003 0.963571 0.000000
# 6 0.000000 0.000000 0.000000 0.000000 0.000000 0.034687
#
#
# Mechanical properties :
#
#
# Convention : Reuss Voigt Hill
#
# Bulk Modulus (GPa) = 60.08815 61.19538 60.64177
# Shear Modulus (GPa) = 2.49528 26.11526 14.30527
#
# Velocity S-wave (km/s) = 1.07871 3.48972 2.58280
# Velocity P-wave (km/s) = 5.43801 6.69136 6.09698
#
# Compressibility (1/GPa) = 0.01664222
#
# Stress axis : x y z
#
# Youngs Moduli (GPa) = 119.28323 119.28375 109.60154
#
# Poissons Ratio (x) = 0.28995 0.12020
# Poissons Ratio (y) = 0.28995 0.12020
# Poissons Ratio (z) = 0.13082 0.13082
#
# Static dielectric constant tensor:
#      x y z
#    x 4.045640 0.000000 0.000000 
#    y 0.000000 4.045640 0.000000 
#    z 0.000000 0.000000 3.656900 
# 
# 
# High freq. dielectric constant tensor:
#      x y z
#    x 1.853080 0.000000 0.000000 
#    y 0.000000 1.853080 0.000000 
#    z 0.000000 0.000000 1.831960 
# 
# From -- ./inp_files/8162.got.cif
#   From: 2010.03.12/outbox.cif.g09.slc.cpg/sg119_5_cif.got.tgz:8162.got - 2010.04.14 02:25:26.
