data_PCOD8311461
_publ_section_title
;
Structure prediction by ZEFSAII (Michael W. Deem and Ramdas Pophale) SiO2 
 PCOD8311461
Probable space group: I -4 2 M
;
_chemical_formula_sum "Si O2"
_cell_formula_units_Z 112
_cell_length_a 17.032975
_cell_length_b 17.032975
_cell_length_c 21.692158
_cell_angle_alpha 90.000000
_cell_angle_beta 90.000000
_cell_angle_gamma 90.000000
_cell_volume 6293.377412
_symmetry_space_group_name_H-M "I -4 2 M"
_symmetry_group_IT_number 121
_symmetry_cell_setting 'tetragonal'
loop_
_space_group_symop_operation_xyz
x,y,z
y,-x,-z
-x,-y,z
-y,x,-z
x,-y,-z
-x,y,-z
-y,-x,z
y,x,z
1/2+x,1/2+y,1/2+z
1/2+y,1/2-x,1/2-z
1/2-x,1/2-y,1/2+z
1/2-y,1/2+x,1/2-z
1/2+x,1/2-y,1/2-z
1/2-x,1/2+y,1/2-z
1/2-y,1/2-x,1/2+z
1/2+y,1/2+x,1/2+z
loop_
_atom_site_type_symbol
_atom_site_label
_atom_site_fract_x
_atom_site_fract_y
_atom_site_fract_z
Si Si1 0.782187 0.090693 0.755183
Si Si2 0.209846 0.079088 0.962390
Si Si3 0.705862 0.421208 0.110844
Si Si4 0.427499 0.700845 0.681435
Si Si5 0.298310 0.832580 0.514725
Si Si6 0.097305 0.228946 0.601579
Si Si7 0.160525 0.709189 0.278319
O O1 0.848691 0.151310 0.775094
O O2 0.775673 0.084074 0.682301
O O3 0.696773 0.121365 0.778516
O O4 0.808185 0.010631 0.786306
O O5 0.137750 0.137750 0.975999
O O6 0.216753 0.060469 0.890239
O O7 0.293796 0.115435 0.982550
O O8 0.194007 0.000000 0.000000
O O9 0.626956 0.373044 0.093366
O O10 0.780718 0.386414 0.074220
O O11 0.693119 0.511169 0.091490
O O12 0.379282 0.620719 0.693174
O O13 0.382146 0.773743 0.713216
O O14 0.238512 0.761489 0.514419
O O15 0.289877 0.883464 0.452883
O O16 0.155912 0.155912 0.601738
O O17 0.100447 0.278492 0.665134
O O18 0.232080 0.767921 0.287754
#
# Coordination Sequence:
#
# PCOD8311461 Si02
#       7
#    16  16  16  16  16  16  16
#     4  10  20  32  53  80 107 144 184 221 266 326
#     4  10  22  38  58  81 107 141 181 227 277 329
#     4  10  19  33  53  81 112 144 181 219 267 322
#     4  10  20  36  55  80 112 141 175 225 279 323
#     4   9  19  35  54  77 106 142 184 221 260 316
#     4  10  19  32  53  81 110 143 179 222 267 316
#     4   9  18  33  52  77 108 141 184 225 262 314
#
# _framework density 17.796485000000001
#
# number of rings (size 3 to 8) (size 9 to 14) (size 15 to 20)
#    0.000    2.286    1.429    1.286    2.000    4.714 
#    0.000    2.857    0.000    4.714    0.000    0.000 
#    0.000    0.000    0.000    0.000    0.000    0.000 
#
# Total GULP energy -694264.687433 kJ/mol
# GULP energy per Si atom -12397.583704 kJ/mol
# Density = 1.775598 g / cm^3
# Si number density = 17.796485 Si / 1000 Ang^3
#
#
#
# Elastic Constant Matrix: (Units=GPa)
#
#
# Indices 1 2 3 4 5 6 
#
# 1 75.7923 63.1791 50.2817 0.0000 0.0000 0.0000
# 2 63.1791 75.7948 50.2806 0.0000 0.0000 0.0000
# 3 50.2817 50.2806 115.8582 0.0000 0.0000 0.0000
# 4 0.0000 0.0000 0.0000 25.4285 0.0000 0.0000
# 5 0.0000 0.0000 0.0000 0.0000 25.4284 0.0000
# 6 0.0000 0.0000 0.0000 0.0000 0.0000 17.8654
#
#
#
# Elastic Compliance Matrix: (Units=1/GPa)
#
#
# Indices 1 2 3 4 5 6 
#
# 1 0.044884 -0.034392 -0.004554 0.000000 0.000000 0.000000
# 2 -0.034392 0.044881 -0.004551 0.000000 0.000000 0.000000
# 3 -0.004554 -0.004551 0.012583 0.000000 0.000000 0.000000
# 4 0.000000 0.000000 0.000000 0.039326 0.000000 0.000000
# 5 0.000000 0.000000 0.000000 0.000000 0.039326 0.000000
# 6 0.000000 0.000000 0.000000 0.000000 0.000000 0.055974
#
#
# Mechanical properties :
#
#
# Convention : Reuss Voigt Hill
#
# Bulk Modulus (GPa) = 65.13588 66.10311 65.61949
# Shear Modulus (GPa) = 15.19365 20.65804 17.92584
#
# Velocity S-wave (km/s) = 2.92506 3.41074 3.17719
# Velocity P-wave (km/s) = 6.93454 7.26191 7.10011
#
# Compressibility (1/GPa) = 0.01535252
#
# Stress axis : x y z
#
# Youngs Moduli (GPa) = 22.27989 22.28134 79.47415
#
# Poissons Ratio (x) = 0.76630 0.36189
# Poissons Ratio (y) = 0.76625 0.36172
# Poissons Ratio (z) = 0.10145 0.10141
#
# Static dielectric constant tensor:
#      x y z
#    x 3.278720 0.000000 0.000000 
#    y 0.000000 3.278720 0.000000 
#    z 0.000000 0.000000 3.510850 
# 
# 
# High freq. dielectric constant tensor:
#      x y z
#    x 1.671660 0.000000 0.000000 
#    y 0.000000 1.671660 0.000000 
#    z 0.000000 0.000000 1.704110 
# 
# From -- ./inp_files/6608.got.cif
#   From: 2010.03.12/outbox.cif.g09.slc.cpg/sg121_4_cif.got.tgz:6608.got - 2010.04.06 16:06:48.
