data_PCOD8311862
_publ_section_title
;
Structure prediction by ZEFSAII (Michael W. Deem and Ramdas Pophale) SiO2 
 PCOD8311862
Probable space group: I -4 2 D
;
_chemical_formula_sum "Si O2"
_cell_formula_units_Z 112
_cell_length_a 14.728551
_cell_length_b 14.728551
_cell_length_c 28.454703
_cell_angle_alpha 90.000000
_cell_angle_beta 90.000000
_cell_angle_gamma 90.000000
_cell_volume 6172.684827
_symmetry_space_group_name_H-M "I -4 2 D"
_symmetry_group_IT_number 122
_symmetry_cell_setting 'tetragonal'
loop_
_space_group_symop_operation_xyz
x,y,z
y,-x,-z
-x,-y,z
-y,x,-z
x,1/2-y,1/4-z
-x,1/2+y,1/4-z
-y,1/2-x,1/4+z
y,1/2+x,1/4+z
1/2+x,1/2+y,1/2+z
1/2+y,1/2-x,1/2-z
1/2-x,1/2-y,1/2+z
1/2-y,1/2+x,1/2-z
1/2+x,-y,3/4-z
1/2-x,y,3/4-z
1/2-y,-x,3/4+z
1/2+y,x,3/4+z
loop_
_atom_site_type_symbol
_atom_site_label
_atom_site_fract_x
_atom_site_fract_y
_atom_site_fract_z
Si Si1 0.133068 0.043676 0.015949
Si Si2 0.785644 0.838432 0.765311
Si Si3 0.104919 0.978037 0.202540
Si Si4 0.986676 0.291384 0.361854
Si Si5 0.477249 0.605781 0.193917
Si Si6 0.670253 0.158693 0.410620
Si Si7 0.176485 0.284111 0.914773
O O1 0.138007 0.046469 0.072337
O O2 0.226731 0.070764 0.991327
O O3 0.056629 0.114574 0.001956
O O4 0.870611 0.872192 0.796206
O O5 0.810236 0.802192 0.713254
O O6 0.727603 0.760587 0.790992
O O7 0.164134 0.027044 0.162664
O O8 0.136647 0.018661 0.252008
O O9 0.000000 0.000000 0.192150
O O10 0.924439 0.201716 0.357693
O O11 0.093775 0.276294 0.353830
O O12 0.500000 0.500000 0.190525
O O13 0.550080 0.658400 0.161763
O O14 0.378367 0.629918 0.177014
O O15 0.750000 0.186060 0.375000
O O16 0.250000 0.300257 0.875000
#
# Coordination Sequence:
#
# PCOD8311862 Si02
#       7
#    16  16  16  16  16  16  16
#     4  10  21  35  57  76 116 162 194 232 290 348
#     4  10  22  39  58  89 117 154 202 249 298 356
#     4  10  23  38  59  87 123 155 198 252 301 352
#     4  11  22  38  57  88 121 154 203 248 291 354
#     4  10  21  40  63  88 116 159 196 247 311 365
#     4  10  22  41  60  86 120 156 203 245 304 368
#     4  12  22  38  65  89 119 156 204 251 303 362
#
# _framework density 18.144454
#
# number of rings (size 3 to 8) (size 9 to 14) (size 15 to 20)
#    0.000    1.571    4.286    0.429    6.000    0.000 
#    2.571    0.000    0.000    0.000    0.000    0.000 
#    0.000    0.000    0.000    0.000    0.000    0.000 
#
# Total GULP energy -694267.673523 kJ/mol
# GULP energy per Si atom -12397.637027 kJ/mol
# Density = 1.810316 g / cm^3
# Si number density = 18.144454 Si / 1000 Ang^3
#
#
#
# Elastic Constant Matrix: (Units=GPa)
#
#
# Indices 1 2 3 4 5 6 
#
# 1 77.9287 22.7105 40.7806 0.0000 0.0000 0.0000
# 2 22.7105 77.9287 40.7806 0.0000 0.0000 0.0000
# 3 40.7806 40.7806 104.2462 0.0000 0.0000 0.0000
# 4 0.0000 0.0000 0.0000 27.3165 0.0000 0.0000
# 5 0.0000 0.0000 0.0000 0.0000 27.3165 0.0000
# 6 0.0000 0.0000 0.0000 0.0000 0.0000 34.2563
#
#
#
# Elastic Compliance Matrix: (Units=1/GPa)
#
#
# Indices 1 2 3 4 5 6 
#
# 1 0.016330 -0.001780 -0.005692 0.000000 0.000000 0.000000
# 2 -0.001780 0.016330 -0.005692 0.000000 0.000000 0.000000
# 3 -0.005692 -0.005692 0.014046 0.000000 0.000000 0.000000
# 4 0.000000 0.000000 0.000000 0.036608 0.000000 0.000000
# 5 0.000000 0.000000 0.000000 0.000000 0.036608 0.000000
# 6 0.000000 0.000000 0.000000 0.000000 0.000000 0.029192
#
#
# Mechanical properties :
#
#
# Convention : Reuss Voigt Hill
#
# Bulk Modulus (GPa) = 49.07321 52.07189 50.57255
# Shear Modulus (GPa) = 27.43759 28.16666 27.80212
#
# Velocity S-wave (km/s) = 3.89289 3.94427 3.91866
# Velocity P-wave (km/s) = 6.87827 7.03590 6.95753
#
# Compressibility (1/GPa) = 0.02037772
#
# Stress axis : x y z
#
# Youngs Moduli (GPa) = 61.23878 61.23878 71.19638
#
# Poissons Ratio (x) = 0.10903 0.40522
# Poissons Ratio (y) = 0.10903 0.40522
# Poissons Ratio (z) = 0.34854 0.34854
#
# Static dielectric constant tensor:
#      x y z
#    x 3.353900 0.000000 0.000000 
#    y 0.000000 3.353900 0.000000 
#    z 0.000000 0.000000 3.401250 
# 
# 
# High freq. dielectric constant tensor:
#      x y z
#    x 1.704330 0.000000 0.000000 
#    y 0.000000 1.704330 0.000000 
#    z 0.000000 0.000000 1.707140 
# 
# From -- ./inp_files/8781.got.cif
#   From: 2010.03.12/outbox.cif.g09.slc.cpg/sg122_5_cif.got.tgz:8781.got - 2010.04.06 16:17:16.
