data_PCOD8311065
_publ_section_title
;
Structure prediction by ZEFSAII (Michael W. Deem and Ramdas Pophale) SiO2 
 PCOD8311065
Probable space group: I -4 M 2
;
_chemical_formula_sum "Si O2"
_cell_formula_units_Z 60
_cell_length_a 18.778842
_cell_length_b 18.778842
_cell_length_c 8.022886
_cell_angle_alpha 90.000000
_cell_angle_beta 90.000000
_cell_angle_gamma 90.000000
_cell_volume 2829.229886
_symmetry_space_group_name_H-M "I -4 M 2"
_symmetry_group_IT_number 119
_symmetry_cell_setting 'tetragonal'
loop_
_space_group_symop_operation_xyz
x,y,z
y,-x,-z
-x,-y,z
-y,x,-z
y,x,-z
-y,-x,-z
-x,y,z
x,-y,z
1/2+x,1/2+y,1/2+z
1/2+y,1/2-x,1/2-z
1/2-x,1/2-y,1/2+z
1/2-y,1/2+x,1/2-z
1/2+y,1/2+x,1/2-z
1/2-y,1/2-x,1/2-z
1/2-x,1/2+y,1/2+z
1/2+x,1/2-y,1/2+z
loop_
_atom_site_type_symbol
_atom_site_label
_atom_site_fract_x
_atom_site_fract_y
_atom_site_fract_z
Si Si1 0.500000 0.000000 0.250000
Si Si2 0.000000 0.144392 0.325804
Si Si3 0.000000 0.000000 0.500000
Si Si4 0.266876 0.619064 0.020076
Si Si5 0.755639 0.000000 0.255482
Si Si6 0.500000 0.616312 0.475653
Si Si7 0.368976 0.000000 0.999209
Si Si8 0.869354 0.369354 0.250000
O O1 0.500000 0.069004 0.365296
O O2 0.071719 0.172219 0.403272
O O3 0.000000 0.168505 0.133978
O O4 0.000000 0.060968 0.361490
O O5 0.202739 0.627470 0.146829
O O6 0.302196 0.697805 0.000000
O O7 0.241319 0.574250 0.856028
O O8 0.838245 0.000000 0.194412
O O9 0.705547 0.000000 0.095440
O O10 0.570779 0.570779 0.500000
O O11 0.375126 0.067999 0.882271
#
# Coordination Sequence:
#
# PCOD8311065 Si02
#       8
#     2   8   2  16   8   8   8   8
#     4  12  24  42  76  92 116 150 204 276 344 414
#     4  11  22  40  65 100 138 179 221 275 332 402
#     4  12  20  36  78 100 144 184 226 268 332 424
#     4  11  24  42  66  95 135 180 224 271 336 403
#     4  11  24  42  65  95 134 171 218 278 327 398
#     4  11  22  33  57  95 137 176 219 258 315 389
#     4  12  25  46  68  97 120 159 218 280 347 397
#     4  12  26  45  69  94 130 172 225 289 342 404
#
# _framework density 21.207184000000002
#
# number of rings (size 3 to 8) (size 9 to 14) (size 15 to 20)
#    0.000    0.667    1.333    8.000    3.733    2.133 
#    0.000    1.333    0.000    0.000    0.000    0.000 
#    0.000    0.000    0.000    0.000    0.000    0.000 
#
# Total GULP energy -371838.655171 kJ/mol
# GULP energy per Si atom -12394.621839 kJ/mol
# Density = 2.115892 g / cm^3
# Si number density = 21.207184 Si / 1000 Ang^3
#
#
#
# Elastic Constant Matrix: (Units=GPa)
#
#
# Indices 1 2 3 4 5 6 
#
# 1 109.9092 73.9868 61.0744 0.0000 0.0000 0.0000
# 2 73.9868 109.9027 61.0729 0.0000 0.0000 0.0000
# 3 61.0744 61.0729 143.3439 0.0000 0.0000 0.0000
# 4 0.0000 0.0000 0.0000 54.2286 0.0000 0.0000
# 5 0.0000 0.0000 0.0000 0.0000 54.2302 0.0000
# 6 0.0000 0.0000 0.0000 0.0000 0.0000 25.8499
#
#
#
# Elastic Compliance Matrix: (Units=1/GPa)
#
#
# Indices 1 2 3 4 5 6 
#
# 1 0.017712 -0.010128 -0.003231 0.000000 0.000000 0.000000
# 2 -0.010128 0.017713 -0.003232 0.000000 0.000000 0.000000
# 3 -0.003231 -0.003232 0.009730 0.000000 0.000000 0.000000
# 4 0.000000 0.000000 0.000000 0.018440 0.000000 0.000000
# 5 0.000000 0.000000 0.000000 0.000000 0.018440 0.000000
# 6 0.000000 0.000000 0.000000 0.000000 0.000000 0.038685
#
#
# Mechanical properties :
#
#
# Convention : Reuss Voigt Hill
#
# Bulk Modulus (GPa) = 83.52229 83.93600 83.72914
# Shear Modulus (GPa) = 31.66715 37.99652 34.83183
#
# Velocity S-wave (km/s) = 3.86842 4.23742 4.05712
# Velocity P-wave (km/s) = 7.70859 7.97533 7.84310
#
# Compressibility (1/GPa) = 0.01197285
#
# Stress axis : x y z
#
# Youngs Moduli (GPa) = 56.45956 56.45605 102.77696
#
# Poissons Ratio (x) = 0.57179 0.33211
# Poissons Ratio (y) = 0.57182 0.33212
# Poissons Ratio (z) = 0.18244 0.18244
#
# Static dielectric constant tensor:
#      x y z
#    x 3.748930 0.000000 0.000000 
#    y 0.000000 3.748930 0.000000 
#    z 0.000000 0.000000 4.227420 
# 
# 
# High freq. dielectric constant tensor:
#      x y z
#    x 1.838220 0.000000 0.000000 
#    y 0.000000 1.838220 0.000000 
#    z 0.000000 0.000000 1.853460 
# 
# From -- ./inp_files/2084.got.cif
#   From: 2010.03.12/outbox.cif.g09.slc.cpg/sg119_2_cif.got.tgz:2084.got - 2010.04.14 02:25:26.
