data_PCOD8311793
_publ_section_title
;
Structure prediction by ZEFSAII (Michael W. Deem and Ramdas Pophale) SiO2 
 PCOD8311793
Probable space group: I -4 2 D
;
_chemical_formula_sum "Si O2"
_cell_formula_units_Z 104
_cell_length_a 31.437085
_cell_length_b 31.437085
_cell_length_c 5.296238
_cell_angle_alpha 90.000000
_cell_angle_beta 90.000000
_cell_angle_gamma 90.000000
_cell_volume 5234.220712
_symmetry_space_group_name_H-M "I -4 2 D"
_symmetry_group_IT_number 122
_symmetry_cell_setting 'tetragonal'
loop_
_space_group_symop_operation_xyz
x,y,z
y,-x,-z
-x,-y,z
-y,x,-z
x,1/2-y,1/4-z
-x,1/2+y,1/4-z
-y,1/2-x,1/4+z
y,1/2+x,1/4+z
1/2+x,1/2+y,1/2+z
1/2+y,1/2-x,1/2-z
1/2-x,1/2-y,1/2+z
1/2-y,1/2+x,1/2-z
1/2+x,-y,3/4-z
1/2-x,y,3/4-z
1/2-y,-x,3/4+z
1/2+y,x,3/4+z
loop_
_atom_site_type_symbol
_atom_site_label
_atom_site_fract_x
_atom_site_fract_y
_atom_site_fract_z
Si Si1 0.323072 0.073846 0.562760
Si Si2 0.520492 0.114318 0.650857
Si Si3 0.776109 0.411478 0.634765
Si Si4 0.392030 0.130898 0.386655
Si Si5 0.903109 0.064046 0.141464
Si Si6 0.750000 0.936805 0.875000
Si Si7 0.311554 0.004049 0.177475
O O1 0.358156 0.061887 0.769293
O O2 0.345111 0.108297 0.376556
O O3 0.278030 0.091754 0.678377
O O4 0.311763 0.028204 0.441825
O O5 0.545896 0.071603 0.566870
O O6 0.487003 0.103951 0.873278
O O7 0.497755 0.139970 0.423391
O O8 0.750000 0.410116 0.375000
O O9 0.818598 0.383637 0.594748
O O10 0.789369 0.459087 0.710167
O O11 0.750000 0.393124 0.875000
O O12 0.418035 0.114970 0.627959
O O13 0.417718 0.122410 0.129186
O O14 0.785499 0.966877 0.761229
#
# Coordination Sequence:
#
# PCOD8311793 Si02
#       7
#    16  16  16  16  16   8  16
#     4  10  21  36  58  86 119 161 197 251 314 383
#     4  10  22  35  56  79 113 162 213 255 309 354
#     4  12  24  37  59  89 121 159 199 248 308 374
#     4  11  23  40  60  82 124 161 201 249 312 381
#     4  11  22  38  57  82 114 164 215 257 306 356
#     4  10  20  32  56  90 116 146 194 250 312 374
#     4  11  19  36  55  83 121 150 197 255 313 367
#
# _framework density 19.869243999999998
#
# number of rings (size 3 to 8) (size 9 to 14) (size 15 to 20)
#    0.000    1.231    3.846    3.231    2.154    0.308 
#    0.000    0.000    0.000    1.846    0.000    0.000 
#    4.615    0.000    0.000    0.000    0.000    0.000 
#
# Total GULP energy -644267.547591 kJ/mol
# GULP energy per Si atom -12389.760531 kJ/mol
# Density = 1.982402 g / cm^3
# Si number density = 19.869244 Si / 1000 Ang^3
#
#
#
# Elastic Constant Matrix: (Units=GPa)
#
#
# Indices 1 2 3 4 5 6 
#
# 1 85.9961 41.9748 26.1858 0.0000 0.0000 0.0000
# 2 41.9748 85.9961 26.1858 0.0000 0.0000 0.0000
# 3 26.1858 26.1858 96.5751 0.0000 0.0000 0.0000
# 4 0.0000 0.0000 0.0000 26.9192 0.0000 0.0000
# 5 0.0000 0.0000 0.0000 0.0000 26.9192 0.0000
# 6 0.0000 0.0000 0.0000 0.0000 0.0000 23.5511
#
#
#
# Elastic Compliance Matrix: (Units=1/GPa)
#
#
# Indices 1 2 3 4 5 6 
#
# 1 0.015753 -0.006963 -0.002383 0.000000 0.000000 0.000000
# 2 -0.006963 0.015753 -0.002383 0.000000 0.000000 0.000000
# 3 -0.002383 -0.002383 0.011647 0.000000 0.000000 0.000000
# 4 0.000000 0.000000 0.000000 0.037148 0.000000 0.000000
# 5 0.000000 0.000000 0.000000 0.000000 0.037148 0.000000
# 6 0.000000 0.000000 0.000000 0.000000 0.000000 0.042461
#
#
# Mechanical properties :
#
#
# Convention : Reuss Voigt Hill
#
# Bulk Modulus (GPa) = 50.77879 50.80667 50.79273
# Shear Modulus (GPa) = 26.32488 27.09261 26.70874
#
# Velocity S-wave (km/s) = 3.64387 3.69663 3.67035
# Velocity P-wave (km/s) = 6.58147 6.62164 6.60158
#
# Compressibility (1/GPa) = 0.01969326
#
# Stress axis : x y z
#
# Youngs Moduli (GPa) = 63.48018 63.48018 85.85867
#
# Poissons Ratio (x) = 0.44203 0.20462
# Poissons Ratio (y) = 0.44203 0.20462
# Poissons Ratio (z) = 0.15129 0.15129
#
# Static dielectric constant tensor:
#      x y z
#    x 3.613480 0.000000 0.000000 
#    y 0.000000 3.613480 0.000000 
#    z 0.000000 0.000000 3.663260 
# 
# 
# High freq. dielectric constant tensor:
#      x y z
#    x 1.753580 0.000000 0.000000 
#    y 0.000000 1.753580 0.000000 
#    z 0.000000 0.000000 1.785140 
# 
# From -- ./inp_files/1519.got.cif
#   From: 2010.03.12/outbox.cif.g09.slc.cpg/sg122_1_cif.got.tgz:1519.got - 2010.04.06 16:17:16.
