data_PCOD8311780
_publ_section_title
;
Structure prediction by ZEFSAII (Michael W. Deem and Ramdas Pophale) SiO2 
 PCOD8311780
Probable space group: I -4 2 D
;
_chemical_formula_sum "Si O2"
_cell_formula_units_Z 76
_cell_length_a 11.422284
_cell_length_b 11.422284
_cell_length_c 30.387076
_cell_angle_alpha 90.000000
_cell_angle_beta 90.000000
_cell_angle_gamma 90.000000
_cell_volume 3964.558406
_symmetry_space_group_name_H-M "I -4 2 D"
_symmetry_group_IT_number 122
_symmetry_cell_setting 'tetragonal'
loop_
_space_group_symop_operation_xyz
x,y,z
y,-x,-z
-x,-y,z
-y,x,-z
x,1/2-y,1/4-z
-x,1/2+y,1/4-z
-y,1/2-x,1/4+z
y,1/2+x,1/4+z
1/2+x,1/2+y,1/2+z
1/2+y,1/2-x,1/2-z
1/2-x,1/2-y,1/2+z
1/2-y,1/2+x,1/2-z
1/2+x,-y,3/4-z
1/2-x,y,3/4-z
1/2-y,-x,3/4+z
1/2+y,x,3/4+z
loop_
_atom_site_type_symbol
_atom_site_label
_atom_site_fract_x
_atom_site_fract_y
_atom_site_fract_z
Si Si1 0.634698 0.632013 0.200602
Si Si2 0.719661 0.750000 0.625000
Si Si3 0.374151 0.624240 0.215033
Si Si4 0.864769 0.787168 0.463036
Si Si5 0.554580 0.126865 0.935325
Si Si6 0.500000 0.500000 0.000000
O O1 0.698122 0.688534 0.159852
O O2 0.497762 0.620541 0.190004
O O3 0.688633 0.501595 0.208895
O O4 0.649620 0.712157 0.242968
O O5 0.638656 0.847133 0.601993
O O6 0.300371 0.732214 0.194394
O O7 0.389653 0.649446 0.266989
O O8 0.949186 0.720784 0.428447
O O9 0.917466 0.916776 0.470709
O O10 0.500000 0.000000 0.932162
#
# Coordination Sequence:
#
# PCOD8311780 Si02
#       6
#    16   8  16  16  16   4
#     4  10  20  38  60  88 127 160 203 256 318 370
#     4  12  24  42  62  94 128 162 206 280 330 368
#     4  10  19  39  64  88 120 172 213 246 306 400
#     4  11  19  35  65  93 120 167 220 253 307 399
#     4  11  22  42  66  87 127 173 212 264 323 378
#     4  12  16  24  56 104 112 148 212 256 296 368
#
# _framework density 19.169851000000001
#
# number of rings (size 3 to 8) (size 9 to 14) (size 15 to 20)
#    0.000    1.263   10.526    0.000    0.000    0.000 
#   11.368    0.000    0.000    0.000    0.000    0.000 
#    0.000    0.000    0.000    0.000    0.000    0.000 
#
# Total GULP energy -471043.246200 kJ/mol
# GULP energy per Si atom -12395.874900 kJ/mol
# Density = 1.912622 g / cm^3
# Si number density = 19.169851 Si / 1000 Ang^3
#
#
#
# Elastic Constant Matrix: (Units=GPa)
#
#
# Indices 1 2 3 4 5 6 
#
# 1 117.7372 41.8008 19.5639 0.0000 0.0000 0.0000
# 2 41.8008 117.7372 19.5640 0.0000 0.0000 0.0000
# 3 19.5639 19.5640 32.1994 0.0000 0.0000 0.0000
# 4 0.0000 0.0000 0.0000 20.6110 0.0000 0.0000
# 5 0.0000 0.0000 0.0000 0.0000 20.6110 0.0000
# 6 0.0000 0.0000 0.0000 0.0000 0.0000 28.2018
#
#
#
# Elastic Compliance Matrix: (Units=1/GPa)
#
#
# Indices 1 2 3 4 5 6 
#
# 1 0.010267 -0.002902 -0.004475 0.000000 0.000000 0.000000
# 2 -0.002902 0.010267 -0.004475 0.000000 0.000000 0.000000
# 3 -0.004475 -0.004475 0.036495 0.000000 0.000000 0.000000
# 4 0.000000 0.000000 0.000000 0.048518 0.000000 0.000000
# 5 0.000000 0.000000 0.000000 0.000000 0.048518 0.000000
# 6 0.000000 0.000000 0.000000 0.000000 0.000000 0.035459
#
#
# Mechanical properties :
#
#
# Convention : Reuss Voigt Hill
#
# Bulk Modulus (GPa) = 30.00755 47.72569 38.86662
# Shear Modulus (GPa) = 22.28796 26.33444 24.31120
#
# Velocity S-wave (km/s) = 3.41347 3.71042 3.56504
# Velocity P-wave (km/s) = 5.58778 6.58077 6.10450
#
# Compressibility (1/GPa) = 0.03332495
#
# Stress axis : x y z
#
# Youngs Moduli (GPa) = 97.39650 97.39650 27.40117
#
# Poissons Ratio (x) = 0.28261 0.12263
# Poissons Ratio (y) = 0.28261 0.12263
# Poissons Ratio (z) = 0.43588 0.43588
#
# Static dielectric constant tensor:
#      x y z
#    x 3.806010 0.000000 0.000000 
#    y 0.000000 3.806010 0.000000 
#    z 0.000000 0.000000 3.470670 
# 
# 
# High freq. dielectric constant tensor:
#      x y z
#    x 1.753040 0.000000 0.000000 
#    y 0.000000 1.753040 0.000000 
#    z 0.000000 0.000000 1.703600 
# 
# From -- ./inp_files/9406.got.cif
#   From: 2010.03.12/outbox.cif.g09.slc.cpg/sg122_5_cif.got.tgz:9406.got - 2010.04.06 16:17:16.
