data_PCOD8311661
_publ_section_title
;
Structure prediction by ZEFSAII (Michael W. Deem and Ramdas Pophale) SiO2 
 PCOD8311661
Probable space group: I -4 2 M
;
_chemical_formula_sum "Si O2"
_cell_formula_units_Z 128
_cell_length_a 24.518937
_cell_length_b 24.518937
_cell_length_c 11.442995
_cell_angle_alpha 90.000000
_cell_angle_beta 90.000000
_cell_angle_gamma 90.000000
_cell_volume 6879.279956
_symmetry_space_group_name_H-M "I -4 2 M"
_symmetry_group_IT_number 121
_symmetry_cell_setting 'tetragonal'
loop_
_space_group_symop_operation_xyz
x,y,z
y,-x,-z
-x,-y,z
-y,x,-z
x,-y,-z
-x,y,-z
-y,-x,z
y,x,z
1/2+x,1/2+y,1/2+z
1/2+y,1/2-x,1/2-z
1/2-x,1/2-y,1/2+z
1/2-y,1/2+x,1/2-z
1/2+x,1/2-y,1/2-z
1/2-x,1/2+y,1/2-z
1/2-y,1/2-x,1/2+z
1/2+y,1/2+x,1/2+z
loop_
_atom_site_type_symbol
_atom_site_label
_atom_site_fract_x
_atom_site_fract_y
_atom_site_fract_z
Si Si1 0.307097 0.392121 0.250505
Si Si2 0.051679 0.731568 0.062509
Si Si3 0.060584 0.850708 0.473273
Si Si4 0.973149 0.556592 0.618251
Si Si5 0.182933 0.730308 0.403121
Si Si6 0.012812 0.364892 0.182002
Si Si7 0.631651 0.277538 0.116992
Si Si8 0.706626 0.887758 0.167153
O O1 0.353875 0.353875 0.309832
O O2 0.273209 0.425557 0.344129
O O3 0.335056 0.434995 0.163168
O O4 0.268294 0.354014 0.175793
O O5 0.031284 0.673542 0.117082
O O6 0.097553 0.722538 0.965292
O O7 0.000000 0.759867 0.000000
O O8 0.098540 0.901461 0.503701
O O9 0.076866 0.799312 0.554753
O O10 0.000000 0.869149 0.500000
O O11 0.909585 0.541853 0.597356
O O12 0.000000 0.500000 0.659058
O O13 0.000000 0.578784 0.500000
O O14 0.982293 0.604181 0.712875
O O15 0.244765 0.755236 0.403474
O O16 0.158968 0.730337 0.535578
O O17 0.178409 0.670984 0.345184
O O18 0.064879 0.330102 0.225993
O O19 0.673607 0.326394 0.128483
O O20 0.617584 0.257536 0.246374
#
# Coordination Sequence:
#
# PCOD8311661 Si02
#       8
#    16  16  16  16  16  16  16  16
#     4   9  20  40  62  86 119 161 191 228 297 360
#     4  10  25  40  57  85 123 151 196 252 282 351
#     4   9  19  36  64  90 121 152 189 238 282 349
#     4  11  24  41  64  76 104 156 203 252 308 358
#     4   9  20  37  57  85 117 153 194 240 293 360
#     4  11  24  42  55  84 116 147 202 260 295 344
#     4   9  20  39  56  86 122 153 194 238 296 359
#     4  11  24  35  58  84 116 153 194 254 299 344
#
# _framework density 18.606598999999999
#
# number of rings (size 3 to 8) (size 9 to 14) (size 15 to 20)
#    0.000    2.125    1.250    1.875   12.250    2.125 
#    2.250    0.000    0.000    0.000    0.000    0.000 
#    0.000    0.000    0.000    0.000    0.000    0.000 
#
# Total GULP energy -793093.798994 kJ/mol
# GULP energy per Si atom -12392.090609 kJ/mol
# Density = 1.856425 g / cm^3
# Si number density = 18.606599 Si / 1000 Ang^3
#
#
#
# Elastic Constant Matrix: (Units=GPa)
#
#
# Indices 1 2 3 4 5 6 
#
# 1 93.8600 35.5470 49.1086 0.0000 0.0000 0.0000
# 2 35.5470 93.8618 49.1092 0.0000 0.0000 0.0000
# 3 49.1086 49.1092 113.1500 0.0000 0.0000 0.0000
# 4 0.0000 0.0000 0.0000 28.0571 0.0000 0.0000
# 5 0.0000 0.0000 0.0000 0.0000 28.0575 0.0000
# 6 0.0000 0.0000 0.0000 0.0000 0.0000 15.3574
#
#
#
# Elastic Compliance Matrix: (Units=1/GPa)
#
#
# Indices 1 2 3 4 5 6 
#
# 1 0.014336 -0.002813 -0.005001 0.000000 0.000000 0.000000
# 2 -0.002813 0.014336 -0.005001 0.000000 0.000000 0.000000
# 3 -0.005001 -0.005001 0.013179 0.000000 0.000000 0.000000
# 4 0.000000 0.000000 0.000000 0.035642 0.000000 0.000000
# 5 0.000000 0.000000 0.000000 0.000000 0.035641 0.000000
# 6 0.000000 0.000000 0.000000 0.000000 0.000000 0.065115
#
#
# Mechanical properties :
#
#
# Convention : Reuss Voigt Hill
#
# Bulk Modulus (GPa) = 61.64999 63.15570 62.40285
# Shear Modulus (GPa) = 23.89071 25.43486 24.66278
#
# Velocity S-wave (km/s) = 3.58717 3.70128 3.64467
# Velocity P-wave (km/s) = 7.09665 7.23065 7.16396
#
# Compressibility (1/GPa) = 0.01622060
#
# Stress axis : x y z
#
# Youngs Moduli (GPa) = 69.75387 69.75511 75.87741
#
# Poissons Ratio (x) = 0.19619 0.37949
# Poissons Ratio (y) = 0.19619 0.37949
# Poissons Ratio (z) = 0.34886 0.34887
#
# Static dielectric constant tensor:
#      x y z
#    x 3.499850 0.000000 0.000000 
#    y 0.000000 3.499840 0.000000 
#    z 0.000000 0.000000 3.596720 
# 
# 
# High freq. dielectric constant tensor:
#      x y z
#    x 1.714680 0.000000 0.000000 
#    y 0.000000 1.714680 0.000000 
#    z 0.000000 0.000000 1.724450 
# 
# From -- ./inp_files/3549.got.cif
#   From: 2010.03.12/outbox.cif.g09.slc.cpg/sg121_2_cif.got.tgz:3549.got - 2010.04.06 16:06:48.
