data_PCOD8311827
_publ_section_title
;
Structure prediction by ZEFSAII (Michael W. Deem and Ramdas Pophale) SiO2 
 PCOD8311827
Probable space group: I -4 2 D
;
_chemical_formula_sum "Si O2"
_cell_formula_units_Z 88
_cell_length_a 14.892806
_cell_length_b 14.892806
_cell_length_c 21.237281
_cell_angle_alpha 90.000000
_cell_angle_beta 90.000000
_cell_angle_gamma 90.000000
_cell_volume 4710.336980
_symmetry_space_group_name_H-M "I -4 2 D"
_symmetry_group_IT_number 122
_symmetry_cell_setting 'tetragonal'
loop_
_space_group_symop_operation_xyz
x,y,z
y,-x,-z
-x,-y,z
-y,x,-z
x,1/2-y,1/4-z
-x,1/2+y,1/4-z
-y,1/2-x,1/4+z
y,1/2+x,1/4+z
1/2+x,1/2+y,1/2+z
1/2+y,1/2-x,1/2-z
1/2-x,1/2-y,1/2+z
1/2-y,1/2+x,1/2-z
1/2+x,-y,3/4-z
1/2-x,y,3/4-z
1/2-y,-x,3/4+z
1/2+y,x,3/4+z
loop_
_atom_site_type_symbol
_atom_site_label
_atom_site_fract_x
_atom_site_fract_y
_atom_site_fract_z
Si Si1 0.188505 0.969172 0.958941
Si Si2 0.377608 0.241872 0.422016
Si Si3 0.000000 0.500000 0.250000
Si Si4 0.852672 0.266329 0.761079
Si Si5 0.543157 0.680624 0.952387
Si Si6 0.500000 0.000000 0.250000
Si Si7 0.750000 0.184019 0.875000
Si Si8 0.113890 0.750000 0.125000
O O1 0.186229 0.879592 0.916804
O O2 0.088121 0.008795 0.956685
O O3 0.256661 0.046886 0.934969
O O4 0.219088 0.947880 0.028878
O O5 0.303141 0.179259 0.456448
O O6 0.437134 0.190584 0.371297
O O7 0.336077 0.323415 0.381754
O O8 0.814688 0.364832 0.742770
O O9 0.809872 0.244505 0.828907
O O10 0.961783 0.257969 0.768470
O O11 0.500813 0.582775 0.953072
#
# Coordination Sequence:
#
# PCOD8311827 Si02
#       8
#    16  16   4  16  16   4   8   8
#     4  10  23  36  57  86 116 153 198 238 298 355
#     4  11  21  39  61  83 121 156 196 249 296 358
#     4  12  20  32  56  82 112 152 192 236 296 346
#     4  10  21  38  59  87 115 154 197 242 302 353
#     4  10  20  38  59  83 113 153 194 242 293 356
#     4   8  20  40  52  78 116 140 192 236 290 332
#     4   9  22  40  55  84 120 150 195 248 280 363
#     4  11  20  38  59  84 116 156 195 240 300 357
#
# _framework density 18.682314000000002
#
# number of rings (size 3 to 8) (size 9 to 14) (size 15 to 20)
#    0.000    1.818    3.636    0.000    2.545    0.000 
#    9.818    0.000    0.000    2.182    0.000    0.000 
#    0.000    0.000    0.000    0.000    0.000    0.000 
#
# Total GULP energy -545188.976735 kJ/mol
# GULP energy per Si atom -12390.658562 kJ/mol
# Density = 1.863979 g / cm^3
# Si number density = 18.682314 Si / 1000 Ang^3
#
#
#
# Elastic Constant Matrix: (Units=GPa)
#
#
# Indices 1 2 3 4 5 6 
#
# 1 97.1988 43.1204 58.0960 0.0000 0.0000 0.0000
# 2 43.1204 97.1988 58.0960 0.0000 0.0000 0.0000
# 3 58.0960 58.0960 129.0498 0.0000 0.0000 0.0000
# 4 0.0000 0.0000 0.0000 24.7867 0.0000 0.0000
# 5 0.0000 0.0000 0.0000 0.0000 24.7867 0.0000
# 6 0.0000 0.0000 0.0000 0.0000 0.0000 22.0688
#
#
#
# Elastic Compliance Matrix: (Units=1/GPa)
#
#
# Indices 1 2 3 4 5 6 
#
# 1 0.014927 -0.003565 -0.005115 0.000000 0.000000 0.000000
# 2 -0.003565 0.014927 -0.005115 0.000000 0.000000 0.000000
# 3 -0.005115 -0.005115 0.012354 0.000000 0.000000 0.000000
# 4 0.000000 0.000000 0.000000 0.040344 0.000000 0.000000
# 5 0.000000 0.000000 0.000000 0.000000 0.040344 0.000000
# 6 0.000000 0.000000 0.000000 0.000000 0.000000 0.045313
#
#
# Mechanical properties :
#
#
# Convention : Reuss Voigt Hill
#
# Bulk Modulus (GPa) = 68.40658 71.34136 69.87397
# Shear Modulus (GPa) = 24.91628 25.27077 25.09353
#
# Velocity S-wave (km/s) = 3.65592 3.68184 3.66890
# Velocity P-wave (km/s) = 7.38351 7.50627 7.44514
#
# Compressibility (1/GPa) = 0.01461848
#
# Stress axis : x y z
#
# Youngs Moduli (GPa) = 66.99306 66.99306 80.94300
#
# Poissons Ratio (x) = 0.23881 0.41403
# Poissons Ratio (y) = 0.23881 0.41403
# Poissons Ratio (z) = 0.34267 0.34267
#
# Static dielectric constant tensor:
#      x y z
#    x 3.581810 0.000000 0.000000 
#    y 0.000000 3.581810 0.000000 
#    z 0.000000 0.000000 3.461730 
# 
# 
# High freq. dielectric constant tensor:
#      x y z
#    x 1.726290 0.000000 0.000000 
#    y 0.000000 1.726290 0.000000 
#    z 0.000000 0.000000 1.724770 
# 
# From -- ./inp_files/8030.got.cif
#   From: 2010.03.12/outbox.cif.g09.slc.cpg/sg122_5_cif.got.tgz:8030.got - 2010.04.06 16:17:16.
