data_PCOD8311451
_publ_section_title
;
Structure prediction by ZEFSAII (Michael W. Deem and Ramdas Pophale) SiO2 
 PCOD8311451
Probable space group: I -4 2 M
;
_chemical_formula_sum "Si O2"
_cell_formula_units_Z 120
_cell_length_a 13.955278
_cell_length_b 13.955278
_cell_length_c 34.537215
_cell_angle_alpha 90.000000
_cell_angle_beta 90.000000
_cell_angle_gamma 90.000000
_cell_volume 6726.115163
_symmetry_space_group_name_H-M "I -4 2 M"
_symmetry_group_IT_number 121
_symmetry_cell_setting 'tetragonal'
loop_
_space_group_symop_operation_xyz
x,y,z
y,-x,-z
-x,-y,z
-y,x,-z
x,-y,-z
-x,y,-z
-y,-x,z
y,x,z
1/2+x,1/2+y,1/2+z
1/2+y,1/2-x,1/2-z
1/2-x,1/2-y,1/2+z
1/2-y,1/2+x,1/2-z
1/2+x,1/2-y,1/2-z
1/2-x,1/2+y,1/2-z
1/2-y,1/2-x,1/2+z
1/2+y,1/2+x,1/2+z
loop_
_atom_site_type_symbol
_atom_site_label
_atom_site_fract_x
_atom_site_fract_y
_atom_site_fract_z
Si Si1 0.868417 0.591312 0.105696
Si Si2 0.883507 0.585434 0.393351
Si Si3 0.348160 0.500000 0.500000
Si Si4 0.873135 0.721102 0.176195
Si Si5 0.096102 0.255195 0.526291
Si Si6 0.754276 0.598153 0.323546
Si Si7 0.397765 0.881662 0.749404
Si Si8 0.790770 0.640014 0.466487
O O1 0.885176 0.486077 0.123864
O O2 0.832487 0.661377 0.139546
O O3 0.793208 0.582334 0.070194
O O4 0.973986 0.629418 0.095437
O O5 0.805807 0.626611 0.363501
O O6 0.873329 0.633889 0.434960
O O7 0.416176 0.583825 0.481623
O O8 0.279181 0.452895 0.467848
O O9 0.821886 0.821886 0.177372
O O10 0.845308 0.660289 0.213726
O O11 0.983799 0.751151 0.175786
O O12 0.154314 0.154314 0.527040
O O13 0.159470 0.340295 0.507665
O O14 0.000000 0.240459 0.500000
O O15 0.650519 0.650519 0.321914
O O16 0.817348 0.632112 0.287156
O O17 0.509099 0.871457 0.760211
O O18 0.730942 0.730942 0.453364
#
# Coordination Sequence:
#
# PCOD8311451 Si02
#       8
#    16  16   8  16  16  16  16  16
#     4  10  20  34  53  78 102 131 171 222 273 315
#     4  10  19  33  52  76 103 132 171 222 264 310
#     4   9  18  32  49  72 104 140 173 208 252 307
#     4  10  20  34  53  77 108 142 177 216 263 321
#     4  11  22  37  55  76 103 136 176 222 278 330
#     4  10  20  33  51  76 108 143 177 214 260 316
#     4   9  17  32  55  81 106 135 174 223 270 312
#     4  10  19  32  50  72  99 133 171 211 255 312
#
# _framework density 17.840907000000001
#
# number of rings (size 3 to 8) (size 9 to 14) (size 15 to 20)
#    0.000    2.067    1.333    2.800    0.000    3.600 
#    0.000    2.667    0.000    3.200    0.000    0.000 
#    0.000    7.467    0.000    0.000    0.000    0.000 
#
# Total GULP energy -743388.121348 kJ/mol
# GULP energy per Si atom -12389.802022 kJ/mol
# Density = 1.780030 g / cm^3
# Si number density = 17.840907 Si / 1000 Ang^3
#
#
#
# Elastic Constant Matrix: (Units=GPa)
#
#
# Indices 1 2 3 4 5 6 
#
# 1 74.5567 42.5691 38.6971 0.0000 0.0000 0.0000
# 2 42.5691 74.5567 38.6971 0.0000 0.0000 0.0000
# 3 38.6971 38.6971 98.4422 0.0000 0.0000 0.0000
# 4 0.0000 0.0000 0.0000 24.3135 0.0000 0.0000
# 5 0.0000 0.0000 0.0000 0.0000 24.3134 0.0000
# 6 0.0000 0.0000 0.0000 0.0000 0.0000 28.2476
#
#
#
# Elastic Compliance Matrix: (Units=1/GPa)
#
#
# Indices 1 2 3 4 5 6 
#
# 1 0.021398 -0.009864 -0.004534 0.000000 0.000000 0.000000
# 2 -0.009864 0.021398 -0.004534 0.000000 0.000000 0.000000
# 3 -0.004534 -0.004534 0.013723 0.000000 0.000000 0.000000
# 4 0.000000 0.000000 0.000000 0.041129 0.000000 0.000000
# 5 0.000000 0.000000 0.000000 0.000000 0.041130 0.000000
# 6 0.000000 0.000000 0.000000 0.000000 0.000000 0.035401
#
#
# Mechanical properties :
#
#
# Convention : Reuss Voigt Hill
#
# Bulk Modulus (GPa) = 53.60567 54.16469 53.88518
# Shear Modulus (GPa) = 22.90836 23.88104 23.39470
#
# Velocity S-wave (km/s) = 3.58723 3.66260 3.62511
# Velocity P-wave (km/s) = 6.87527 6.95068 6.91308
#
# Compressibility (1/GPa) = 0.01865474
#
# Stress axis : x y z
#
# Youngs Moduli (GPa) = 46.73355 46.73347 72.87200
#
# Poissons Ratio (x) = 0.46099 0.33039
# Poissons Ratio (y) = 0.46099 0.33039
# Poissons Ratio (z) = 0.21188 0.21188
#
# Static dielectric constant tensor:
#      x y z
#    x 3.275960 0.000000 0.000000 
#    y 0.000000 3.275960 0.000000 
#    z 0.000000 0.000000 3.271680 
# 
# 
# High freq. dielectric constant tensor:
#      x y z
#    x 1.685270 0.000000 0.000000 
#    y 0.000000 1.685270 0.000000 
#    z 0.000000 0.000000 1.689060 
# 
# From -- ./inp_files/8472.got.cif
#   From: 2010.03.12/outbox.cif.g09.slc.cpg/sg121_5_cif.got.tgz:8472.got - 2010.04.06 16:06:48.
