data_PCOD8311869
_publ_section_title
;
Structure prediction by ZEFSAII (Michael W. Deem and Ramdas Pophale) SiO2 
 PCOD8311869
Probable space group: I -4 2 D
;
_chemical_formula_sum "Si O2"
_cell_formula_units_Z 80
_cell_length_a 14.511647
_cell_length_b 14.511647
_cell_length_c 18.425669
_cell_angle_alpha 90.000000
_cell_angle_beta 90.000000
_cell_angle_gamma 90.000000
_cell_volume 3880.222916
_symmetry_space_group_name_H-M "I -4 2 D"
_symmetry_group_IT_number 122
_symmetry_cell_setting 'tetragonal'
loop_
_space_group_symop_operation_xyz
x,y,z
y,-x,-z
-x,-y,z
-y,x,-z
x,1/2-y,1/4-z
-x,1/2+y,1/4-z
-y,1/2-x,1/4+z
y,1/2+x,1/4+z
1/2+x,1/2+y,1/2+z
1/2+y,1/2-x,1/2-z
1/2-x,1/2-y,1/2+z
1/2-y,1/2+x,1/2-z
1/2+x,-y,3/4-z
1/2-x,y,3/4-z
1/2-y,-x,3/4+z
1/2+y,x,3/4+z
loop_
_atom_site_type_symbol
_atom_site_label
_atom_site_fract_x
_atom_site_fract_y
_atom_site_fract_z
Si Si1 0.087428 0.099853 0.972444
Si Si2 0.583147 0.699978 0.779136
Si Si3 0.094670 0.737384 0.708074
Si Si4 0.731610 0.074535 0.196506
Si Si5 0.406377 0.055894 0.937306
O O1 0.126102 0.200222 0.993061
O O2 0.124479 0.059810 0.896552
O O3 0.974918 0.111092 0.965559
O O4 0.662451 0.625851 0.763407
O O5 0.552096 0.708682 0.862920
O O6 0.493507 0.674987 0.732090
O O7 0.063712 0.750000 0.625000
O O8 0.179603 0.667799 0.717827
O O9 0.010330 0.696840 0.754532
O O10 0.839408 0.085757 0.214402
O O11 0.500000 0.000000 0.950785
#
# Coordination Sequence:
#
# PCOD8311869 Si02
#       5
#    16  16  16  16  16
#     4  10  21  38  58  91 125 157 202 257 315 383
#     4  10  23  39  63  91 126 166 211 260 321 388
#     4  10  22  42  63  91 128 167 216 270 323 384
#     4  10  23  41  62  94 124 164 221 264 319 388
#     4  11  20  40  65  85 122 168 203 256 321 384
#
# _framework density 20.617372
#
# number of rings (size 3 to 8) (size 9 to 14) (size 15 to 20)
#    0.000    1.800    4.000    0.000    2.800    2.800 
#    0.000    0.000    4.400    0.000    0.000    0.000 
#    0.000    0.000    0.000    0.000    0.000    0.000 
#
# Total GULP energy -495906.251156 kJ/mol
# GULP energy per Si atom -12397.656279 kJ/mol
# Density = 2.057045 g / cm^3
# Si number density = 20.617372 Si / 1000 Ang^3
#
#
#
# Elastic Constant Matrix: (Units=GPa)
#
#
# Indices 1 2 3 4 5 6 
#
# 1 92.2382 23.9632 50.2680 0.0000 0.0000 0.0000
# 2 23.9632 92.2382 50.2680 0.0000 0.0000 0.0000
# 3 50.2680 50.2680 80.4190 0.0000 0.0000 0.0000
# 4 0.0000 0.0000 0.0000 35.4542 0.0000 0.0000
# 5 0.0000 0.0000 0.0000 0.0000 35.4541 0.0000
# 6 0.0000 0.0000 0.0000 0.0000 0.0000 31.0650
#
#
#
# Elastic Compliance Matrix: (Units=1/GPa)
#
#
# Indices 1 2 3 4 5 6 
#
# 1 0.016694 0.002047 -0.011715 0.000000 0.000000 0.000000
# 2 0.002047 0.016694 -0.011715 0.000000 0.000000 0.000000
# 3 -0.011715 -0.011715 0.027080 0.000000 0.000000 0.000000
# 4 0.000000 0.000000 0.000000 0.028205 0.000000 0.000000
# 5 0.000000 0.000000 0.000000 0.000000 0.028205 0.000000
# 6 0.000000 0.000000 0.000000 0.000000 0.000000 0.032191
#
#
# Mechanical properties :
#
#
# Convention : Reuss Voigt Hill
#
# Bulk Modulus (GPa) = 56.48551 57.09933 56.79242
# Shear Modulus (GPa) = 25.28645 29.75440 27.52043
#
# Velocity S-wave (km/s) = 3.50589 3.80303 3.65748
# Velocity P-wave (km/s) = 6.62155 6.85849 6.74106
#
# Compressibility (1/GPa) = 0.01770366
#
# Stress axis : x y z
#
# Youngs Moduli (GPa) = 59.90224 59.90225 36.92774
#
# Poissons Ratio (x) = -0.12263 0.43259
# Poissons Ratio (y) = -0.12263 0.43259
# Poissons Ratio (z) = 0.70173 0.70173
#
# Static dielectric constant tensor:
#      x y z
#    x 3.720950 0.000000 0.000000 
#    y 0.000000 3.720950 0.000000 
#    z 0.000000 0.000000 3.612370 
# 
# 
# High freq. dielectric constant tensor:
#      x y z
#    x 1.807450 0.000000 0.000000 
#    y 0.000000 1.807450 0.000000 
#    z 0.000000 0.000000 1.792340 
# 
# From -- ./inp_files/7055.got.cif
#   From: 2010.03.12/outbox.cif.g09.slc.cpg/sg122_4_cif.got.tgz:7055.got - 2010.04.06 16:17:16.
