data_PCOD8311846
_publ_section_title
;
Structure prediction by ZEFSAII (Michael W. Deem and Ramdas Pophale) SiO2 
 PCOD8311846
Probable space group: I -4 2 D
;
_chemical_formula_sum "Si O2"
_cell_formula_units_Z 108
_cell_length_a 30.747751
_cell_length_b 30.747751
_cell_length_c 4.960322
_cell_angle_alpha 90.000000
_cell_angle_beta 90.000000
_cell_angle_gamma 90.000000
_cell_volume 4689.608417
_symmetry_space_group_name_H-M "I -4 2 D"
_symmetry_group_IT_number 122
_symmetry_cell_setting 'tetragonal'
loop_
_space_group_symop_operation_xyz
x,y,z
y,-x,-z
-x,-y,z
-y,x,-z
x,1/2-y,1/4-z
-x,1/2+y,1/4-z
-y,1/2-x,1/4+z
y,1/2+x,1/4+z
1/2+x,1/2+y,1/2+z
1/2+y,1/2-x,1/2-z
1/2-x,1/2-y,1/2+z
1/2-y,1/2+x,1/2-z
1/2+x,-y,3/4-z
1/2-x,y,3/4-z
1/2-y,-x,3/4+z
1/2+y,x,3/4+z
loop_
_atom_site_type_symbol
_atom_site_label
_atom_site_fract_x
_atom_site_fract_y
_atom_site_fract_z
Si Si1 0.188037 0.642330 0.397632
Si Si2 0.847747 0.901946 0.844361
Si Si3 0.593740 0.981434 0.894575
Si Si4 0.198952 0.068931 0.352621
Si Si5 0.219704 0.250000 0.125000
Si Si6 0.357500 0.510991 0.872523
Si Si7 0.588422 0.796319 0.078133
Si Si8 0.500000 0.000000 0.750000
O O1 0.142596 0.639959 0.237084
O O2 0.207099 0.690744 0.431506
O O3 0.217727 0.615826 0.186952
O O4 0.185868 0.619698 0.686594
O O5 0.823975 0.895567 0.553086
O O6 0.890834 0.931760 0.797602
O O7 0.813615 0.925513 0.041329
O O8 0.608614 0.993692 0.595584
O O9 0.541509 0.984315 0.926055
O O10 0.615151 0.015817 0.101958
O O11 0.250000 0.072927 0.375000
O O12 0.181919 0.021785 0.442562
O O13 0.250000 0.260684 0.375000
O O14 0.335497 0.555352 0.774270
O O15 0.564383 0.750000 0.125000
#
# Coordination Sequence:
#
# PCOD8311846 Si02
#       8
#    16  16  16  16   8  16  16   4
#     4  12  25  44  66  98 131 181 226 280 337 405
#     4  10  23  41  64  93 135 176 223 278 335 398
#     4  10  25  44  64 100 134 182 230 287 334 407
#     4  10  20  40  65  96 132 164 217 269 332 412
#     4  12  26  46  68  96 144 178 230 286 334 422
#     4  10  23  42  67 100 133 171 216 277 356 392
#     4  12  23  41  70  98 133 169 219 279 346 419
#     4  12  28  46  72  94 144 182 256 270 344 410
#
# _framework density 23.029640000000001
#
# number of rings (size 3 to 8) (size 9 to 14) (size 15 to 20)
#    0.000    1.185    1.481    3.556    4.148    3.556 
#    0.000    4.444    0.000    0.000    0.000    0.000 
#    0.000    0.000    0.000    0.000    0.000    0.000 
#
# Total GULP energy -669488.432980 kJ/mol
# GULP energy per Si atom -12397.933944 kJ/mol
# Density = 2.297722 g / cm^3
# Si number density = 23.029640 Si / 1000 Ang^3
#
#
#
# Elastic Constant Matrix: (Units=GPa)
#
#
# Indices 1 2 3 4 5 6 
#
# 1 100.9160 24.5444 -1.5462 0.0000 0.0000 0.0000
# 2 24.5444 100.9160 -1.5462 0.0000 0.0000 0.0000
# 3 -1.5462 -1.5462 81.3457 0.0000 0.0000 0.0000
# 4 0.0000 0.0000 0.0000 25.3017 0.0000 0.0000
# 5 0.0000 0.0000 0.0000 0.0000 25.3017 0.0000
# 6 0.0000 0.0000 0.0000 0.0000 0.0000 29.7351
#
#
#
# Elastic Compliance Matrix: (Units=1/GPa)
#
#
# Indices 1 2 3 4 5 6 
#
# 1 0.010534 -0.002560 0.000152 0.000000 0.000000 0.000000
# 2 -0.002560 0.010534 0.000152 0.000000 0.000000 0.000000
# 3 0.000152 0.000152 0.012299 0.000000 0.000000 0.000000
# 4 0.000000 0.000000 0.000000 0.039523 0.000000 0.000000
# 5 0.000000 0.000000 0.000000 0.000000 0.039523 0.000000
# 6 0.000000 0.000000 0.000000 0.000000 0.000000 0.033630
#
#
# Mechanical properties :
#
#
# Convention : Reuss Voigt Hill
#
# Bulk Modulus (GPa) = 34.65721 36.23131 35.44426
# Shear Modulus (GPa) = 31.21588 33.51607 32.36597
#
# Velocity S-wave (km/s) = 3.68566 3.81904 3.75294
# Velocity P-wave (km/s) = 5.76140 5.93408 5.84838
#
# Compressibility (1/GPa) = 0.02885402
#
# Stress axis : x y z
#
# Youngs Moduli (GPa) = 94.92957 94.92957 81.30762
#
# Poissons Ratio (x) = 0.24300 -0.01232
# Poissons Ratio (y) = 0.24300 -0.01232
# Poissons Ratio (z) = -0.01439 -0.01439
#
# Static dielectric constant tensor:
#      x y z
#    x 4.079510 0.000000 0.000000 
#    y 0.000000 4.079510 0.000000 
#    z 0.000000 0.000000 4.336510 
# 
# 
# High freq. dielectric constant tensor:
#      x y z
#    x 1.908720 0.000000 0.000000 
#    y 0.000000 1.908720 0.000000 
#    z 0.000000 0.000000 1.921860 
# 
# From -- ./inp_files/1560.got.cif
#   From: 2010.03.12/outbox.cif.g09.slc.cpg/sg122_1_cif.got.tgz:1560.got - 2010.04.06 16:17:16.
