data_PCOD8311352
_publ_section_title
;
Structure prediction by ZEFSAII (Michael W. Deem and Ramdas Pophale) SiO2 
 PCOD8311352
Probable space group: I -4 2 M
;
_chemical_formula_sum "Si O2"
_cell_formula_units_Z 112
_cell_length_a 17.994406
_cell_length_b 17.994406
_cell_length_c 22.065917
_cell_angle_alpha 90.000000
_cell_angle_beta 90.000000
_cell_angle_gamma 90.000000
_cell_volume 7144.914076
_symmetry_space_group_name_H-M "I -4 2 M"
_symmetry_group_IT_number 121
_symmetry_cell_setting 'tetragonal'
loop_
_space_group_symop_operation_xyz
x,y,z
y,-x,-z
-x,-y,z
-y,x,-z
x,-y,-z
-x,y,-z
-y,-x,z
y,x,z
1/2+x,1/2+y,1/2+z
1/2+y,1/2-x,1/2-z
1/2-x,1/2-y,1/2+z
1/2-y,1/2+x,1/2-z
1/2+x,1/2-y,1/2-z
1/2-x,1/2+y,1/2-z
1/2-y,1/2-x,1/2+z
1/2+y,1/2+x,1/2+z
loop_
_atom_site_type_symbol
_atom_site_label
_atom_site_fract_x
_atom_site_fract_y
_atom_site_fract_z
Si Si1 0.961425 0.283685 0.725279
Si Si2 0.418212 0.992895 0.348007
Si Si3 0.256220 0.374554 0.235275
Si Si4 0.922463 0.647233 0.073898
Si Si5 0.300200 0.821347 0.653884
Si Si6 0.271064 0.151406 0.167518
Si Si7 0.874049 0.409728 0.561954
O O1 0.901040 0.264141 0.672993
O O2 0.921103 0.276824 0.789615
O O3 0.988651 0.367006 0.709620
O O4 0.036594 0.233606 0.725036
O O5 0.402717 0.911595 0.373665
O O6 0.500000 0.000000 0.321115
O O7 0.408795 0.045990 0.406484
O O8 0.338488 0.338488 0.240943
O O9 0.207686 0.357275 0.295176
O O10 0.211836 0.335452 0.180644
O O11 0.878667 0.720105 0.098388
O O12 0.010070 0.664101 0.070590
O O13 0.891753 0.619384 0.009313
O O14 0.232321 0.767680 0.643281
O O15 0.345943 0.823938 0.591737
O O16 0.190660 0.190660 0.175422
#
# Coordination Sequence:
#
# PCOD8311352 Si02
#       7
#    16  16  16  16  16  16  16
#     4  10  17  30  46  64  89 121 152 191 230 273
#     4   9  17  29  42  67  94 124 150 181 216 270
#     4   9  17  30  46  65  89 117 151 191 233 276
#     4  10  17  30  44  66  95 124 151 186 223 266
#     4   9  18  31  45  64  90 122 156 189 227 272
#     4  10  20  31  44  65  94 123 151 188 234 274
#     4   9  18  28  46  66  92 123 156 184 221 263
#
# _framework density 15.675485999999999
#
# number of rings (size 3 to 8) (size 9 to 14) (size 15 to 20)
#    0.000    2.571    1.429    2.571    0.000    3.429 
#    0.000    0.000    0.000    1.714    0.000    0.000 
#    0.000    0.000    0.000    7.714    0.000    0.000 
#
# Total GULP energy -693928.381086 kJ/mol
# GULP energy per Si atom -12391.578234 kJ/mol
# Density = 1.563981 g / cm^3
# Si number density = 15.675486 Si / 1000 Ang^3
#
#
#
# Elastic Constant Matrix: (Units=GPa)
#
#
# Indices 1 2 3 4 5 6 
#
# 1 84.2437 44.6248 31.4205 0.0000 0.0000 0.0000
# 2 44.6248 84.2450 31.4205 0.0000 0.0000 0.0000
# 3 31.4205 31.4205 51.8644 0.0000 0.0000 0.0000
# 4 0.0000 0.0000 0.0000 16.3938 0.0000 0.0000
# 5 0.0000 0.0000 0.0000 0.0000 16.3946 0.0000
# 6 0.0000 0.0000 0.0000 0.0000 0.0000 25.1209
#
#
#
# Elastic Compliance Matrix: (Units=1/GPa)
#
#
# Indices 1 2 3 4 5 6 
#
# 1 0.018127 -0.007113 -0.006672 0.000000 0.000000 0.000000
# 2 -0.007113 0.018127 -0.006672 0.000000 0.000000 0.000000
# 3 -0.006672 -0.006672 0.027365 0.000000 0.000000 0.000000
# 4 0.000000 0.000000 0.000000 0.060999 0.000000 0.000000
# 5 0.000000 0.000000 0.000000 0.000000 0.060996 0.000000
# 6 0.000000 0.000000 0.000000 0.000000 0.000000 0.039808
#
#
# Mechanical properties :
#
#
# Convention : Reuss Voigt Hill
#
# Bulk Modulus (GPa) = 44.04609 48.36499 46.20554
# Shear Modulus (GPa) = 18.25460 19.10768 18.68114
#
# Velocity S-wave (km/s) = 3.41623 3.49514 3.45591
# Velocity P-wave (km/s) = 6.61215 6.87087 6.74275
#
# Compressibility (1/GPa) = 0.02270349
#
# Stress axis : x y z
#
# Youngs Moduli (GPa) = 55.16666 55.16780 36.54268
#
# Poissons Ratio (x) = 0.39243 0.24382
# Poissons Ratio (y) = 0.39242 0.24381
# Poissons Ratio (z) = 0.36809 0.36808
#
# Static dielectric constant tensor:
#      x y z
#    x 2.926030 0.000000 0.000000 
#    y 0.000000 2.926030 0.000000 
#    z 0.000000 0.000000 2.944900 
# 
# 
# High freq. dielectric constant tensor:
#      x y z
#    x 1.582920 0.000000 0.000000 
#    y 0.000000 1.582920 0.000000 
#    z 0.000000 0.000000 1.598440 
# 
# From -- ./inp_files/6599.got.cif
#   From: 2010.03.12/outbox.cif.g09.slc.cpg/sg121_4_cif.got.tgz:6599.got - 2010.04.06 16:06:48.
