data_PCOD8311412
_publ_section_title
;
Structure prediction by ZEFSAII (Michael W. Deem and Ramdas Pophale) SiO2 
 PCOD8311412
Probable space group: I -4 2 M
;
_chemical_formula_sum "Si O2"
_cell_formula_units_Z 96
_cell_length_a 21.290446
_cell_length_b 21.290446
_cell_length_c 11.511475
_cell_angle_alpha 90.000000
_cell_angle_beta 90.000000
_cell_angle_gamma 90.000000
_cell_volume 5217.956969
_symmetry_space_group_name_H-M "I -4 2 M"
_symmetry_group_IT_number 121
_symmetry_cell_setting 'tetragonal'
loop_
_space_group_symop_operation_xyz
x,y,z
y,-x,-z
-x,-y,z
-y,x,-z
x,-y,-z
-x,y,-z
-y,-x,z
y,x,z
1/2+x,1/2+y,1/2+z
1/2+y,1/2-x,1/2-z
1/2-x,1/2-y,1/2+z
1/2-y,1/2+x,1/2-z
1/2+x,1/2-y,1/2-z
1/2-x,1/2+y,1/2-z
1/2-y,1/2-x,1/2+z
1/2+y,1/2+x,1/2+z
loop_
_atom_site_type_symbol
_atom_site_label
_atom_site_fract_x
_atom_site_fract_y
_atom_site_fract_z
Si Si1 0.779960 0.058462 0.374255
Si Si2 0.351969 0.933302 0.504168
Si Si3 0.426983 0.812333 0.468760
Si Si4 0.851005 0.749512 0.824413
Si Si5 0.621920 0.209197 0.224116
Si Si6 0.578235 0.673345 0.882996
O O1 0.708691 0.057188 0.421151
O O2 0.785514 0.102995 0.263413
O O3 0.824447 0.082130 0.477264
O O4 0.806507 0.990115 0.335740
O O5 0.400032 0.882378 0.455560
O O6 0.334419 0.917254 0.636285
O O7 0.387908 0.000000 0.500000
O O8 0.500000 0.813544 0.500000
O O9 0.388777 0.772577 0.562962
O O10 0.416405 0.781982 0.343258
O O11 0.797551 0.797551 0.866584
O O12 0.819638 0.691048 0.756650
O O13 0.628920 0.277817 0.168170
O O14 0.603183 0.603183 0.847474
#
# Coordination Sequence:
#
# PCOD8311412 Si02
#       6
#    16  16  16  16  16  16
#     4  10  18  36  56  80 117 147 183 237 292 346
#     4  10  19  36  60  79 112 157 193 232 279 341
#     4  11  24  37  56  85 120 155 192 237 287 347
#     4  11  23  37  57  82 112 151 194 242 297 347
#     4  10  20  36  56  83 116 146 189 242 289 340
#     4  10  19  32  58  86 107 145 187 232 293 345
#
# _framework density 18.398005000000001
#
# number of rings (size 3 to 8) (size 9 to 14) (size 15 to 20)
#    0.000    1.667    5.000    2.000    0.000    1.667 
#    0.000    0.000    0.000   10.500    0.000    0.000 
#    0.000    0.000    0.000    0.000    0.000    0.000 
#
# Total GULP energy -594945.055366 kJ/mol
# GULP energy per Si atom -12394.688653 kJ/mol
# Density = 1.835613 g / cm^3
# Si number density = 18.398005 Si / 1000 Ang^3
#
#
#
# Elastic Constant Matrix: (Units=GPa)
#
#
# Indices 1 2 3 4 5 6 
#
# 1 101.1759 68.4936 26.8689 0.0000 0.0000 0.0000
# 2 68.4936 101.1759 26.8689 0.0000 0.0000 0.0000
# 3 26.8689 26.8689 66.2812 0.0000 0.0000 0.0000
# 4 0.0000 0.0000 0.0000 14.3410 0.0000 0.0000
# 5 0.0000 0.0000 0.0000 0.0000 14.3410 0.0000
# 6 0.0000 0.0000 0.0000 0.0000 0.0000 32.5214
#
#
#
# Elastic Compliance Matrix: (Units=1/GPa)
#
#
# Indices 1 2 3 4 5 6 
#
# 1 0.018680 -0.011918 -0.002741 0.000000 0.000000 0.000000
# 2 -0.011918 0.018680 -0.002741 0.000000 0.000000 0.000000
# 3 -0.002741 -0.002741 0.017310 0.000000 0.000000 0.000000
# 4 0.000000 0.000000 0.000000 0.069730 0.000000 0.000000
# 5 0.000000 0.000000 0.000000 0.000000 0.069730 0.000000
# 6 0.000000 0.000000 0.000000 0.000000 0.000000 0.030749
#
#
# Mechanical properties :
#
#
# Convention : Reuss Voigt Hill
#
# Bulk Modulus (GPa) = 50.32968 57.01065 53.67016
# Shear Modulus (GPa) = 18.77566 22.00076 20.38821
#
# Velocity S-wave (km/s) = 3.19803 3.46182 3.33254
# Velocity P-wave (km/s) = 6.40718 6.85810 6.63648
#
# Compressibility (1/GPa) = 0.01986899
#
# Stress axis : x y z
#
# Youngs Moduli (GPa) = 53.53383 53.53383 57.77121
#
# Poissons Ratio (x) = 0.63800 0.15836
# Poissons Ratio (y) = 0.63800 0.15836
# Poissons Ratio (z) = 0.14675 0.14675
#
# Static dielectric constant tensor:
#      x y z
#    x 3.345360 0.000000 0.000000 
#    y 0.000000 3.345360 0.000000 
#    z 0.000000 0.000000 3.298300 
# 
# 
# High freq. dielectric constant tensor:
#      x y z
#    x 1.704000 0.000000 0.000000 
#    y 0.000000 1.704000 0.000000 
#    z 0.000000 0.000000 1.708400 
# 
# From -- ./inp_files/3316.got.cif
#   From: 2010.03.12/outbox.cif.g09.slc.cpg/sg121_2_cif.got.tgz:3316.got - 2010.04.06 16:06:48.
