data_PCOD8311918
_publ_section_title
;
Structure prediction by ZEFSAII (Michael W. Deem and Ramdas Pophale) SiO2 
 PCOD8311918
Probable space group: I -4 2 D
;
_chemical_formula_sum "Si O2"
_cell_formula_units_Z 88
_cell_length_a 11.959043
_cell_length_b 11.959043
_cell_length_c 26.902885
_cell_angle_alpha 90.000000
_cell_angle_beta 90.000000
_cell_angle_gamma 90.000000
_cell_volume 3847.615894
_symmetry_space_group_name_H-M "I -4 2 D"
_symmetry_group_IT_number 122
_symmetry_cell_setting 'tetragonal'
loop_
_space_group_symop_operation_xyz
x,y,z
y,-x,-z
-x,-y,z
-y,x,-z
x,1/2-y,1/4-z
-x,1/2+y,1/4-z
-y,1/2-x,1/4+z
y,1/2+x,1/4+z
1/2+x,1/2+y,1/2+z
1/2+y,1/2-x,1/2-z
1/2-x,1/2-y,1/2+z
1/2-y,1/2+x,1/2-z
1/2+x,-y,3/4-z
1/2-x,y,3/4-z
1/2-y,-x,3/4+z
1/2+y,x,3/4+z
loop_
_atom_site_type_symbol
_atom_site_label
_atom_site_fract_x
_atom_site_fract_y
_atom_site_fract_z
Si Si1 0.377760 0.041008 0.594654
Si Si2 0.184608 0.091463 0.265526
Si Si3 0.267233 0.835289 0.474371
Si Si4 0.279109 0.250000 0.625000
Si Si5 0.345663 0.082278 0.764760
Si Si6 0.862092 0.748005 0.348509
O O1 0.377679 0.083965 0.537547
O O2 0.358292 0.143182 0.632315
O O3 0.500000 0.000000 0.607702
O O4 0.278164 0.952783 0.608063
O O5 0.295922 0.169405 0.262264
O O6 0.107722 0.152052 0.308473
O O7 0.217821 0.966786 0.279256
O O8 0.225723 0.801168 0.420608
O O9 0.382489 0.771141 0.488692
O O10 0.448788 0.141521 0.735137
O O11 0.346659 0.129096 0.820681
O O12 0.750000 0.787967 0.375000
#
# Coordination Sequence:
#
# PCOD8311918 Si02
#       6
#    16  16  16   8  16  16
#     4  11  25  42  70 104 140 185 229 297 367 432
#     4  10  24  46  68  99 144 184 242 296 353 425
#     4  10  22  42  66  96 135 183 232 288 351 415
#     4  10  24  40  62 100 140 174 234 284 360 424
#     4  10  22  40  67 100 142 180 220 293 365 429
#     4  11  25  42  71 105 137 186 243 283 357 435
#
# _framework density 22.871307000000002
#
# number of rings (size 3 to 8) (size 9 to 14) (size 15 to 20)
#    0.000    1.636    0.000    3.273    7.636    9.091 
#    0.000    0.000    0.000    0.000    0.000    0.000 
#    0.000    0.000    0.000    0.000    0.000    0.000 
#
# Total GULP energy -545264.186466 kJ/mol
# GULP energy per Si atom -12392.367874 kJ/mol
# Density = 2.281925 g / cm^3
# Si number density = 22.871307 Si / 1000 Ang^3
#
#
#
# Elastic Constant Matrix: (Units=GPa)
#
#
# Indices 1 2 3 4 5 6 
#
# 1 140.4180 41.2503 26.7895 0.0000 0.0000 0.0000
# 2 41.2503 140.4181 26.7895 0.0000 0.0000 0.0000
# 3 26.7895 26.7895 89.9299 0.0000 0.0000 0.0000
# 4 0.0000 0.0000 0.0000 30.7134 0.0000 0.0000
# 5 0.0000 0.0000 0.0000 0.0000 30.7134 0.0000
# 6 0.0000 0.0000 0.0000 0.0000 0.0000 24.1015
#
#
#
# Elastic Compliance Matrix: (Units=1/GPa)
#
#
# Indices 1 2 3 4 5 6 
#
# 1 0.008059 -0.002025 -0.001798 0.000000 0.000000 0.000000
# 2 -0.002025 0.008059 -0.001798 0.000000 0.000000 0.000000
# 3 -0.001798 -0.001798 0.012191 0.000000 0.000000 0.000000
# 4 0.000000 0.000000 0.000000 0.032559 0.000000 0.000000
# 5 0.000000 0.000000 0.000000 0.000000 0.032559 0.000000
# 6 0.000000 0.000000 0.000000 0.000000 0.000000 0.041491
#
#
# Mechanical properties :
#
#
# Convention : Reuss Voigt Hill
#
# Bulk Modulus (GPa) = 58.58415 62.26938 60.42677
# Shear Modulus (GPa) = 32.92749 35.50142 34.21446
#
# Velocity S-wave (km/s) = 3.79844 3.94410 3.87195
# Velocity P-wave (km/s) = 6.70133 6.93011 6.81668
#
# Compressibility (1/GPa) = 0.01706946
#
# Stress axis : x y z
#
# Youngs Moduli (GPa) = 124.07988 124.07988 82.02897
#
# Poissons Ratio (x) = 0.25121 0.14746
# Poissons Ratio (y) = 0.25121 0.14746
# Poissons Ratio (z) = 0.22306 0.22306
#
# Static dielectric constant tensor:
#      x y z
#    x 4.089420 0.000000 0.000000 
#    y 0.000000 4.089420 0.000000 
#    z 0.000000 0.000000 4.326530 
# 
# 
# High freq. dielectric constant tensor:
#      x y z
#    x 1.891400 0.000000 0.000000 
#    y 0.000000 1.891400 0.000000 
#    z 0.000000 0.000000 1.914610 
# 
# From -- ./inp_files/9499.got.cif
#   From: 2010.03.12/outbox.cif.g09.slc.cpg/sg122_5_cif.got.tgz:9499.got - 2010.04.06 16:17:16.
