data_PCOD8311235
_publ_section_title
;
Structure prediction by ZEFSAII (Michael W. Deem and Ramdas Pophale) SiO2 
 PCOD8311235
Probable space group: I -4 C 2
;
_chemical_formula_sum "Si O2"
_cell_formula_units_Z 112
_cell_length_a 14.897852
_cell_length_b 14.897852
_cell_length_c 24.215984
_cell_angle_alpha 90.000000
_cell_angle_beta 90.000000
_cell_angle_gamma 90.000000
_cell_volume 5374.640645
_symmetry_space_group_name_H-M "I -4 C 2"
_symmetry_group_IT_number 120
_symmetry_cell_setting 'tetragonal'
loop_
_space_group_symop_operation_xyz
x,y,z
y,-x,-z
-x,-y,z
-y,x,-z
y,x,1/2-z
-y,-x,1/2-z
-x,y,1/2+z
x,-y,1/2+z
1/2+x,1/2+y,1/2+z
1/2+y,1/2-x,1/2-z
1/2-x,1/2-y,1/2+z
1/2-y,1/2+x,1/2-z
1/2+y,1/2+x,-z
1/2-y,1/2-x,-z
1/2-x,1/2+y,z
1/2+x,1/2-y,z
loop_
_atom_site_type_symbol
_atom_site_label
_atom_site_fract_x
_atom_site_fract_y
_atom_site_fract_z
Si Si1 0.860964 0.752623 0.409272
Si Si2 0.447175 0.082929 0.857937
Si Si3 0.555487 0.240003 0.692945
Si Si4 0.678331 0.682932 0.393488
Si Si5 0.197332 0.865124 0.808492
Si Si6 0.624015 0.427850 0.995021
Si Si7 0.698079 0.098467 0.188212
O O1 0.910716 0.656813 0.401235
O O2 0.755804 0.739845 0.424779
O O3 0.862946 0.812634 0.353570
O O4 0.909089 0.798871 0.460798
O O5 0.365293 0.043062 0.821754
O O6 0.520482 0.124703 0.816582
O O7 0.500000 0.000000 0.888284
O O8 0.641091 0.274589 0.660063
O O9 0.470409 0.301224 0.676576
O O10 0.575217 0.254820 0.757486
O O11 0.641638 0.609744 0.434607
O O12 0.597080 0.742857 0.368662
O O13 0.150987 0.849014 0.750000
O O14 0.301398 0.839026 0.805632
O O15 0.532989 0.383863 0.016871
#
# Coordination Sequence:
#
# PCOD8311235 Si02
#       7
#    16  16  16  16  16  16  16
#     4  10  22  40  62  87 125 164 207 264 326 382
#     4  11  22  36  60  95 126 162 205 263 313 382
#     4  11  21  36  58  89 126 165 209 251 313 381
#     4  10  22  39  63  85 120 165 204 263 320 384
#     4  11  21  36  55  86 127 170 207 252 316 384
#     4  11  23  41  65  89 114 158 219 270 318 382
#     4  11  20  35  57  90 128 161 210 251 319 381
#
# _framework density 20.838604
#
# number of rings (size 3 to 8) (size 9 to 14) (size 15 to 20)
#    0.000    1.286    1.429    6.857    0.000    0.000 
#    0.000    0.000    0.000    6.000    0.000    0.000 
#    0.000    0.000    0.000    0.000    0.000    0.000 
#
# Total GULP energy -694270.339863 kJ/mol
# GULP energy per Si atom -12397.684640 kJ/mol
# Density = 2.079117 g / cm^3
# Si number density = 20.838604 Si / 1000 Ang^3
#
#
#
# Elastic Constant Matrix: (Units=GPa)
#
#
# Indices 1 2 3 4 5 6 
#
# 1 83.7946 29.7218 29.5495 0.0000 0.0000 0.0000
# 2 29.7218 83.7952 29.5493 0.0000 0.0000 0.0000
# 3 29.5495 29.5493 82.4008 0.0000 0.0000 0.0000
# 4 0.0000 0.0000 0.0000 21.9070 0.0000 0.0000
# 5 0.0000 0.0000 0.0000 0.0000 21.9069 0.0000
# 6 0.0000 0.0000 0.0000 0.0000 0.0000 39.3443
#
#
#
# Elastic Compliance Matrix: (Units=1/GPa)
#
#
# Indices 1 2 3 4 5 6 
#
# 1 0.014663 -0.003831 -0.003884 0.000000 0.000000 0.000000
# 2 -0.003831 0.014662 -0.003884 0.000000 0.000000 0.000000
# 3 -0.003884 -0.003884 0.014922 0.000000 0.000000 0.000000
# 4 0.000000 0.000000 0.000000 0.045648 0.000000 0.000000
# 5 0.000000 0.000000 0.000000 0.000000 0.045648 0.000000
# 6 0.000000 0.000000 0.000000 0.000000 0.000000 0.025417
#
#
# Mechanical properties :
#
#
# Convention : Reuss Voigt Hill
#
# Bulk Modulus (GPa) = 47.51126 47.51467 47.51296
# Shear Modulus (GPa) = 26.15427 27.37629 26.76528
#
# Velocity S-wave (km/s) = 3.54656 3.62847 3.58775
# Velocity P-wave (km/s) = 6.29444 6.35651 6.32555
#
# Compressibility (1/GPa) = 0.02104764
#
# Stress axis : x y z
#
# Youngs Moduli (GPa) = 68.20095 68.20163 67.01683
#
# Poissons Ratio (x) = 0.26128 0.26031
# Poissons Ratio (y) = 0.26128 0.26031
# Poissons Ratio (z) = 0.26491 0.26491
#
# Static dielectric constant tensor:
#      x y z
#    x 3.911190 0.000000 0.000000 
#    y 0.000000 3.911190 0.000000 
#    z 0.000000 0.000000 3.478530 
# 
# 
# High freq. dielectric constant tensor:
#      x y z
#    x 1.821180 0.000000 0.000000 
#    y 0.000000 1.821180 0.000000 
#    z 0.000000 0.000000 1.796410 
# 
# From -- ./inp_files/5940.got.cif
#   From: 2010.03.12/outbox.cif.g09.slc.cpg/sg120_3_cif.got.tgz:5940.got - 2010.04.06 16:00:44.
