data_PCOD8311104
_publ_section_title
;
Structure prediction by ZEFSAII (Michael W. Deem and Ramdas Pophale) SiO2 
 PCOD8311104
Probable space group: I -4 C 2
;
_chemical_formula_sum "Si O2"
_cell_formula_units_Z 104
_cell_length_a 25.342625
_cell_length_b 25.342625
_cell_length_c 9.709882
_cell_angle_alpha 90.000000
_cell_angle_beta 90.000000
_cell_angle_gamma 90.000000
_cell_volume 6236.158527
_symmetry_space_group_name_H-M "I -4 C 2"
_symmetry_group_IT_number 120
_symmetry_cell_setting 'tetragonal'
loop_
_space_group_symop_operation_xyz
x,y,z
y,-x,-z
-x,-y,z
-y,x,-z
y,x,1/2-z
-y,-x,1/2-z
-x,y,1/2+z
x,-y,1/2+z
1/2+x,1/2+y,1/2+z
1/2+y,1/2-x,1/2-z
1/2-x,1/2-y,1/2+z
1/2-y,1/2+x,1/2-z
1/2+y,1/2+x,-z
1/2-y,1/2-x,-z
1/2-x,1/2+y,z
1/2+x,1/2-y,z
loop_
_atom_site_type_symbol
_atom_site_label
_atom_site_fract_x
_atom_site_fract_y
_atom_site_fract_z
Si Si1 0.780625 0.512370 0.436791
Si Si2 0.108592 0.243687 0.434888
Si Si3 0.281401 0.292564 0.912383
Si Si4 0.601397 0.770687 0.630486
Si Si5 0.860556 0.639445 0.500000
Si Si6 0.490312 0.149094 0.317250
Si Si7 0.095323 0.387515 0.220353
O O1 0.734789 0.555703 0.472166
O O2 0.759714 0.452319 0.454900
O O3 0.827888 0.519969 0.548424
O O4 0.801961 0.523251 0.283541
O O5 0.156899 0.202900 0.459308
O O6 0.091957 0.242354 0.275919
O O7 0.132248 0.299675 0.472208
O O8 0.277732 0.277732 0.750000
O O9 0.254885 0.348837 0.946506
O O10 0.251950 0.248051 0.000000
O O11 0.612155 0.833415 0.645089
O O12 0.877055 0.605324 0.368115
O O13 0.438505 0.116151 0.364550
O O14 0.531961 0.111119 0.238964
#
# Coordination Sequence:
#
# PCOD8311104 Si02
#       7
#    16  16  16  16   8  16  16
#     4  11  19  34  50  71  89 130 173 205 248 302
#     4  10  17  33  53  70  92 132 164 195 249 305
#     4  10  21  34  51  76 108 131 161 208 261 312
#     4   9  21  33  47  74  99 124 165 207 249 297
#     4  10  14  30  48  61  88 114 166 192 230 307
#     4  11  21  30  49  65  91 126 170 217 258 291
#     4  10  19  31  45  67  90 126 164 215 252 288
#
# _framework density 16.676933999999999
#
# number of rings (size 3 to 8) (size 9 to 14) (size 15 to 20)
#    0.000    1.846    6.923    0.000    2.154    2.154 
#    0.000    0.000    0.000    4.615    0.000    0.000 
#    0.000    0.615    0.000    5.538    0.000    0.000 
#
# Total GULP energy -644468.509110 kJ/mol
# GULP energy per Si atom -12393.625175 kJ/mol
# Density = 1.663898 g / cm^3
# Si number density = 16.676934 Si / 1000 Ang^3
#
#
#
# Elastic Constant Matrix: (Units=GPa)
#
#
# Indices 1 2 3 4 5 6 
#
# 1 83.7230 48.2697 14.0066 0.0000 0.0000 0.0000
# 2 48.2697 83.7227 14.0077 0.0000 0.0000 0.0000
# 3 14.0066 14.0077 39.7793 0.0000 0.0000 0.0000
# 4 0.0000 0.0000 0.0000 20.1351 0.0000 0.0000
# 5 0.0000 0.0000 0.0000 0.0000 20.1351 0.0000
# 6 0.0000 0.0000 0.0000 0.0000 0.0000 28.2068
#
#
#
# Elastic Compliance Matrix: (Units=1/GPa)
#
#
# Indices 1 2 3 4 5 6 
#
# 1 0.018197 -0.010009 -0.002883 0.000000 0.000000 0.000000
# 2 -0.010009 0.018197 -0.002884 0.000000 0.000000 0.000000
# 3 -0.002883 -0.002884 0.027169 0.000000 0.000000 0.000000
# 4 0.000000 0.000000 0.000000 0.049665 0.000000 0.000000
# 5 0.000000 0.000000 0.000000 0.000000 0.049664 0.000000
# 6 0.000000 0.000000 0.000000 0.000000 0.000000 0.035452
#
#
# Mechanical properties :
#
#
# Convention : Reuss Voigt Hill
#
# Bulk Modulus (GPa) = 31.23774 39.97701 35.60737
# Shear Modulus (GPa) = 20.78424 22.42480 21.60452
#
# Velocity S-wave (km/s) = 3.53411 3.67094 3.60317
# Velocity P-wave (km/s) = 5.95189 6.48006 6.22158
#
# Compressibility (1/GPa) = 0.03201256
#
# Stress axis : x y z
#
# Youngs Moduli (GPa) = 54.95389 54.95311 36.80641
#
# Poissons Ratio (x) = 0.55003 0.10610
# Poissons Ratio (y) = 0.55004 0.10614
# Poissons Ratio (z) = 0.15842 0.15847
#
# Static dielectric constant tensor:
#      x y z
#    x 3.105710 0.000000 0.000000 
#    y 0.000000 3.105690 0.000000 
#    z 0.000000 0.000000 3.225130 
# 
# 
# High freq. dielectric constant tensor:
#      x y z
#    x 1.615200 0.000000 0.000000 
#    y 0.000000 1.615200 0.000000 
#    z 0.000000 0.000000 1.644400 
# 
# From -- ./inp_files/1687.got.cif
#   From: 2010.03.12/outbox.cif.g09.slc.cpg/sg120_1_cif.got.tgz:1687.got - 2010.04.06 16:00:44.
