data_PCOD8311685
_publ_section_title
;
Structure prediction by ZEFSAII (Michael W. Deem and Ramdas Pophale) SiO2 
 PCOD8311685
Probable space group: I -4 2 M
;
_chemical_formula_sum "Si O2"
_cell_formula_units_Z 64
_cell_length_a 11.775262
_cell_length_b 11.775262
_cell_length_c 21.603247
_cell_angle_alpha 90.000000
_cell_angle_beta 90.000000
_cell_angle_gamma 90.000000
_cell_volume 2995.436994
_symmetry_space_group_name_H-M "I -4 2 M"
_symmetry_group_IT_number 121
_symmetry_cell_setting 'tetragonal'
loop_
_space_group_symop_operation_xyz
x,y,z
y,-x,-z
-x,-y,z
-y,x,-z
x,-y,-z
-x,y,-z
-y,-x,z
y,x,z
1/2+x,1/2+y,1/2+z
1/2+y,1/2-x,1/2-z
1/2-x,1/2-y,1/2+z
1/2-y,1/2+x,1/2-z
1/2+x,1/2-y,1/2-z
1/2-x,1/2+y,1/2-z
1/2-y,1/2-x,1/2+z
1/2+y,1/2+x,1/2+z
loop_
_atom_site_type_symbol
_atom_site_label
_atom_site_fract_x
_atom_site_fract_y
_atom_site_fract_z
Si Si1 0.094326 0.094326 0.283570
Si Si2 0.168671 0.570127 0.410884
Si Si3 0.904846 0.095155 0.855046
Si Si4 0.771558 0.038915 0.378613
Si Si5 0.647839 0.827892 0.953825
O O1 0.131090 0.131090 0.214749
O O2 0.041237 0.201346 0.319945
O O3 0.000000 0.000000 0.276736
O O4 0.297414 0.548810 0.391838
O O5 0.105252 0.653675 0.362410
O O6 0.119684 0.443027 0.415326
O O7 0.157054 0.640029 0.474630
O O8 0.000000 0.000000 0.856461
O O9 0.873902 0.126099 0.393189
O O10 0.754271 0.958416 0.438845
O O11 0.764682 0.764682 0.934119
#
# Coordination Sequence:
#
# PCOD8311685 Si02
#       5
#     8  16   8  16  16
#     4   9  22  41  66  90 127 174 222 273 314 384
#     4  11  23  40  64  99 134 169 215 275 328 392
#     4  11  22  45  66  93 131 180 224 268 328 388
#     4  11  21  42  66  95 131 175 217 268 329 392
#     4  11  22  40  65 100 135 170 211 268 337 395
#
# _framework density 21.365829999999999
#
# number of rings (size 3 to 8) (size 9 to 14) (size 15 to 20)
#    0.000    1.250    3.750    2.250    0.000    2.000 
#    6.750    0.000    0.000    0.000    0.000    0.000 
#    0.000    0.000    0.000    0.000    0.000    0.000 
#
# Total GULP energy -396575.345709 kJ/mol
# GULP energy per Si atom -12392.979553 kJ/mol
# Density = 2.131720 g / cm^3
# Si number density = 21.365830 Si / 1000 Ang^3
#
#
#
# Elastic Constant Matrix: (Units=GPa)
#
#
# Indices 1 2 3 4 5 6 
#
# 1 106.2368 41.4836 28.5259 0.0000 0.0000 0.0000
# 2 41.4836 106.2369 28.5262 0.0000 0.0000 0.0000
# 3 28.5259 28.5262 81.5061 0.0000 0.0000 0.0000
# 4 0.0000 0.0000 0.0000 12.7366 0.0000 0.0000
# 5 0.0000 0.0000 0.0000 0.0000 12.7366 0.0000
# 6 0.0000 0.0000 0.0000 0.0000 0.0000 47.2545
#
#
#
# Elastic Compliance Matrix: (Units=1/GPa)
#
#
# Indices 1 2 3 4 5 6 
#
# 1 0.011635 -0.003808 -0.002740 0.000000 0.000000 0.000000
# 2 -0.003808 0.011635 -0.002740 0.000000 0.000000 0.000000
# 3 -0.002740 -0.002740 0.014187 0.000000 0.000000 0.000000
# 4 0.000000 0.000000 0.000000 0.078514 0.000000 0.000000
# 5 0.000000 0.000000 0.000000 0.000000 0.078514 0.000000
# 6 0.000000 0.000000 0.000000 0.000000 0.000000 0.021162
#
#
# Mechanical properties :
#
#
# Convention : Reuss Voigt Hill
#
# Bulk Modulus (GPa) = 52.95594 54.56123 53.75858
# Shear Modulus (GPa) = 20.78866 27.57516 24.18191
#
# Velocity S-wave (km/s) = 3.12266 3.59642 3.36788
# Velocity P-wave (km/s) = 6.15146 6.54505 6.35131
#
# Compressibility (1/GPa) = 0.01888362
#
# Stress axis : x y z
#
# Youngs Moduli (GPa) = 85.94452 85.94436 70.48894
#
# Poissons Ratio (x) = 0.32726 0.19311
# Poissons Ratio (y) = 0.32726 0.19311
# Poissons Ratio (z) = 0.23545 0.23545
#
# Static dielectric constant tensor:
#      x y z
#    x 4.167300 0.000000 0.000000 
#    y 0.000000 4.167260 0.000000 
#    z 0.000000 0.000000 3.796540 
# 
# 
# High freq. dielectric constant tensor:
#      x y z
#    x 1.851720 0.000000 0.000000 
#    y 0.000000 1.851720 0.000000 
#    z 0.000000 0.000000 1.801860 
# 
# From -- ./inp_files/6951.got.cif
#   From: 2010.03.12/outbox.cif.g09.slc.cpg/sg121_4_cif.got.tgz:6951.got - 2010.04.06 16:06:48.
