data_PCOD8311133
_publ_section_title
;
Structure prediction by ZEFSAII (Michael W. Deem and Ramdas Pophale) SiO2 
 PCOD8311133
Probable space group: I -4 C 2
;
_chemical_formula_sum "Si O2"
_cell_formula_units_Z 80
_cell_length_a 33.267468
_cell_length_b 33.267468
_cell_length_c 5.312154
_cell_angle_alpha 90.000000
_cell_angle_beta 90.000000
_cell_angle_gamma 90.000000
_cell_volume 5879.090592
_symmetry_space_group_name_H-M "I -4 C 2"
_symmetry_group_IT_number 120
_symmetry_cell_setting 'tetragonal'
loop_
_space_group_symop_operation_xyz
x,y,z
y,-x,-z
-x,-y,z
-y,x,-z
y,x,1/2-z
-y,-x,1/2-z
-x,y,1/2+z
x,-y,1/2+z
1/2+x,1/2+y,1/2+z
1/2+y,1/2-x,1/2-z
1/2-x,1/2-y,1/2+z
1/2-y,1/2+x,1/2-z
1/2+y,1/2+x,-z
1/2-y,1/2-x,-z
1/2-x,1/2+y,z
1/2+x,1/2-y,z
loop_
_atom_site_type_symbol
_atom_site_label
_atom_site_fract_x
_atom_site_fract_y
_atom_site_fract_z
Si Si1 0.268181 0.299633 0.000065
Si Si2 0.703972 0.136714 0.000034
Si Si3 0.979155 0.417124 0.483032
Si Si4 0.669920 0.012220 0.507755
Si Si5 0.828853 0.603963 0.500204
O O1 0.295361 0.295361 0.750000
O O2 0.295369 0.295369 0.250000
O O3 0.234261 0.265739 0.000000
O O4 0.248284 0.343812 0.000725
O O5 0.698323 0.110465 0.252111
O O6 0.671950 0.171950 0.000000
O O7 0.698588 0.110774 0.746676
O O8 0.932734 0.432734 0.500000
O O9 0.002272 0.434613 0.725839
O O10 0.982078 0.368688 0.483806
O O11 0.655864 0.058285 0.502479
O O12 0.695136 0.999179 0.259384
O O13 0.867918 0.632083 0.500000
#
# Coordination Sequence:
#
# PCOD8311133 Si02
#       5
#    16  16  16  16  16
#     4   9  15  23  37  58  82 102 117 133 151 175
#     4   9  17  28  42  59  77  98 119 135 157 194
#     4  10  21  34  45  56  68  80  96 126 175 234
#     4  10  21  33  45  57  68  84 110 145 185 225
#     4  10  19  31  44  56  72  93 117 144 175 219
#
# _framework density 13.607547
#
# number of rings (size 3 to 8) (size 9 to 14) (size 15 to 20)
#    0.000    2.400    0.000    3.000    0.000   12.400 
#    0.000    2.000    0.000    0.000    0.000    0.000 
#    0.000    0.000    0.000    0.000    0.000    0.000 
#
# Total GULP energy -495636.944167 kJ/mol
# GULP energy per Si atom -12390.923604 kJ/mol
# Density = 1.357658 g / cm^3
# Si number density = 13.607547 Si / 1000 Ang^3
#
#
#
# Elastic Constant Matrix: (Units=GPa)
#
#
# Indices 1 2 3 4 5 6 
#
# 1 30.1202 23.5771 27.0575 0.0000 0.0000 0.0000
# 2 23.5771 30.1205 27.0578 0.0000 0.0000 0.0000
# 3 27.0575 27.0578 154.4490 0.0000 0.0000 0.0000
# 4 0.0000 0.0000 0.0000 13.9197 0.0000 0.0000
# 5 0.0000 0.0000 0.0000 0.0000 13.9194 0.0000
# 6 0.0000 0.0000 0.0000 0.0000 0.0000 20.3063
#
#
#
# Elastic Compliance Matrix: (Units=1/GPa)
#
#
# Indices 1 2 3 4 5 6 
#
# 1 0.087722 -0.065106 -0.003962 0.000000 0.000000 0.000000
# 2 -0.065106 0.087722 -0.003962 0.000000 0.000000 0.000000
# 3 -0.003962 -0.003962 0.007863 0.000000 0.000000 0.000000
# 4 0.000000 0.000000 0.000000 0.071841 0.000000 0.000000
# 5 0.000000 0.000000 0.000000 0.000000 0.071842 0.000000
# 6 0.000000 0.000000 0.000000 0.000000 0.000000 0.049246
#
#
# Mechanical properties :
#
#
# Convention : Reuss Voigt Hill
#
# Bulk Modulus (GPa) = 26.84837 41.11939 33.98388
# Shear Modulus (GPa) = 9.35083 18.76223 14.05653
#
# Velocity S-wave (km/s) = 2.62425 3.71726 3.21751
# Velocity P-wave (km/s) = 5.38104 6.97909 6.23151
#
# Compressibility (1/GPa) = 0.03724620
#
# Stress axis : x y z
#
# Youngs Moduli (GPa) = 11.39958 11.39968 127.18085
#
# Poissons Ratio (x) = 0.74219 0.50388
# Poissons Ratio (y) = 0.74219 0.50390
# Poissons Ratio (z) = 0.04516 0.04517
#
# Static dielectric constant tensor:
#      x y z
#    x 2.392220 0.000000 0.000000 
#    y 0.000000 2.392220 0.000000 
#    z 0.000000 0.000000 3.757520 
# 
# 
# High freq. dielectric constant tensor:
#      x y z
#    x 1.463340 0.000000 0.000000 
#    y 0.000000 1.463340 0.000000 
#    z 0.000000 0.000000 1.560720 
# 
# From -- ./inp_files/467.got.cif
#   From: 2010.03.12/outbox.cif.g09.slc.cpg/sg120_1_cif.got.tgz:467.got - 2010.04.06 16:00:44.
