data_PCOD8311428
_publ_section_title
;
Structure prediction by ZEFSAII (Michael W. Deem and Ramdas Pophale) SiO2 
 PCOD8311428
Probable space group: I -4 2 M
;
_chemical_formula_sum "Si O2"
_cell_formula_units_Z 88
_cell_length_a 13.293605
_cell_length_b 13.293605
_cell_length_c 29.666268
_cell_angle_alpha 90.000000
_cell_angle_beta 90.000000
_cell_angle_gamma 90.000000
_cell_volume 5242.620920
_symmetry_space_group_name_H-M "I -4 2 M"
_symmetry_group_IT_number 121
_symmetry_cell_setting 'tetragonal'
loop_
_space_group_symop_operation_xyz
x,y,z
y,-x,-z
-x,-y,z
-y,x,-z
x,-y,-z
-x,y,-z
-y,-x,z
y,x,z
1/2+x,1/2+y,1/2+z
1/2+y,1/2-x,1/2-z
1/2-x,1/2-y,1/2+z
1/2-y,1/2+x,1/2-z
1/2+x,1/2-y,1/2-z
1/2-x,1/2+y,1/2-z
1/2-y,1/2-x,1/2+z
1/2+y,1/2+x,1/2+z
loop_
_atom_site_type_symbol
_atom_site_label
_atom_site_fract_x
_atom_site_fract_y
_atom_site_fract_z
Si Si1 0.210744 0.626369 0.852671
Si Si2 0.500000 0.336624 0.500000
Si Si3 0.757011 0.081910 0.162615
Si Si4 0.598130 0.239529 0.171813
Si Si5 0.762246 0.399134 0.276620
Si Si6 0.577882 0.257161 0.410105
O O1 0.313715 0.686286 0.861070
O O2 0.239759 0.509340 0.852634
O O3 0.163107 0.653622 0.804163
O O4 0.130562 0.652877 0.893100
O O5 0.408913 0.408913 0.482695
O O6 0.543356 0.260907 0.462037
O O7 0.849846 0.150154 0.176990
O O8 0.661183 0.149718 0.149629
O O9 0.738867 0.012148 0.205630
O O10 0.782427 0.020337 0.118200
O O11 0.652416 0.347585 0.164238
O O12 0.594796 0.211119 0.224408
O O13 0.654240 0.345761 0.284322
O O14 0.655378 0.344623 0.398662
#
# Coordination Sequence:
#
# PCOD8311428 Si02
#       6
#    16   8  16  16  16  16
#     4   9  18  33  48  63  91 126 159 198 241 282
#     4   9  16  28  50  79 106 126 146 175 216 279
#     4  10  19  30  45  66  95 126 154 190 235 283
#     4  10  20  31  44  64  88 121 168 210 238 266
#     4   9  18  30  44  64  89 121 161 201 241 282
#     4   9  18  31  49  74 100 125 149 176 222 284
#
# _framework density 16.785498
#
# number of rings (size 3 to 8) (size 9 to 14) (size 15 to 20)
#    0.000    2.636    0.000    3.273    0.000    7.636 
#    0.000    5.455    0.000    2.182    0.000    0.000 
#    0.000    0.000    0.000    9.455    0.000    0.182 
#
# Total GULP energy -545353.633924 kJ/mol
# GULP energy per Si atom -12394.400771 kJ/mol
# Density = 1.674729 g / cm^3
# Si number density = 16.785498 Si / 1000 Ang^3
#
#
#
# Elastic Constant Matrix: (Units=GPa)
#
#
# Indices 1 2 3 4 5 6 
#
# 1 98.8863 34.6027 30.3005 0.0000 0.0000 0.0000
# 2 34.6027 98.8856 30.3005 0.0000 0.0000 0.0000
# 3 30.3005 30.3005 77.5012 0.0000 0.0000 0.0000
# 4 0.0000 0.0000 0.0000 20.0653 0.0000 0.0000
# 5 0.0000 0.0000 0.0000 0.0000 20.0657 0.0000
# 6 0.0000 0.0000 0.0000 0.0000 0.0000 11.9994
#
#
#
# Elastic Compliance Matrix: (Units=1/GPa)
#
#
# Indices 1 2 3 4 5 6 
#
# 1 0.012332 -0.003224 -0.003561 0.000000 0.000000 0.000000
# 2 -0.003224 0.012332 -0.003561 0.000000 0.000000 0.000000
# 3 -0.003561 -0.003561 0.015687 0.000000 0.000000 0.000000
# 4 0.000000 0.000000 0.000000 0.049837 0.000000 0.000000
# 5 0.000000 0.000000 0.000000 0.000000 0.049836 0.000000
# 6 0.000000 0.000000 0.000000 0.000000 0.000000 0.083337
#
#
# Mechanical properties :
#
#
# Convention : Reuss Voigt Hill
#
# Bulk Modulus (GPa) = 50.86582 51.74231 51.30407
# Shear Modulus (GPa) = 19.95153 22.43071 21.19112
#
# Velocity S-wave (km/s) = 3.45137 3.65953 3.55697
# Velocity P-wave (km/s) = 6.80087 6.98203 6.89205
#
# Compressibility (1/GPa) = 0.01965957
#
# Stress axis : x y z
#
# Youngs Moduli (GPa) = 81.09021 81.08954 63.74542
#
# Poissons Ratio (x) = 0.26145 0.22699
# Poissons Ratio (y) = 0.26145 0.22699
# Poissons Ratio (z) = 0.28875 0.28875
#
# Static dielectric constant tensor:
#      x y z
#    x 3.128590 0.000000 0.000000 
#    y 0.000000 3.128590 0.000000 
#    z 0.000000 0.000000 3.005980 
# 
# 
# High freq. dielectric constant tensor:
#      x y z
#    x 1.642890 0.000000 0.000000 
#    y 0.000000 1.642890 0.000000 
#    z 0.000000 0.000000 1.620090 
# 
# From -- ./inp_files/8188.got.cif
#   From: 2010.03.12/outbox.cif.g09.slc.cpg/sg121_5_cif.got.tgz:8188.got - 2010.04.06 16:06:48.
