data_PCOD8311259
_publ_section_title
;
Structure prediction by ZEFSAII (Michael W. Deem and Ramdas Pophale) SiO2 
 PCOD8311259
Probable space group: I -4 C 2
;
_chemical_formula_sum "Si O2"
_cell_formula_units_Z 60
_cell_length_a 18.748047
_cell_length_b 18.748047
_cell_length_c 8.815186
_cell_angle_alpha 90.000000
_cell_angle_beta 90.000000
_cell_angle_gamma 90.000000
_cell_volume 3098.443260
_symmetry_space_group_name_H-M "I -4 C 2"
_symmetry_group_IT_number 120
_symmetry_cell_setting 'tetragonal'
loop_
_space_group_symop_operation_xyz
x,y,z
y,-x,-z
-x,-y,z
-y,x,-z
y,x,1/2-z
-y,-x,1/2-z
-x,y,1/2+z
x,-y,1/2+z
1/2+x,1/2+y,1/2+z
1/2+y,1/2-x,1/2-z
1/2-x,1/2-y,1/2+z
1/2-y,1/2+x,1/2-z
1/2+y,1/2+x,-z
1/2-y,1/2-x,-z
1/2-x,1/2+y,z
1/2+x,1/2-y,z
loop_
_atom_site_type_symbol
_atom_site_label
_atom_site_fract_x
_atom_site_fract_y
_atom_site_fract_z
Si Si1 0.282304 0.597934 0.762082
Si Si2 0.218120 0.316641 0.665731
Si Si3 0.076727 0.076727 0.250000
Si Si4 0.000000 0.000000 0.000000
Si Si5 0.457973 0.721295 0.406396
O O1 0.354759 0.645242 0.750000
O O2 0.212376 0.647646 0.750269
O O3 0.268545 0.542030 0.625422
O O4 0.287197 0.551838 0.914659
O O5 0.289455 0.289455 0.750000
O O6 0.219356 0.280645 0.500000
O O7 0.216784 0.403261 0.653008
O O8 0.154097 0.066884 0.187259
O O9 0.021950 0.065190 0.109652
#
# Coordination Sequence:
#
# PCOD8311259 Si02
#       5
#    16  16   8   4  16
#     4  10  24  38  56  82 114 145 188 227 275 330
#     4   9  19  38  56  78 107 145 187 232 272 327
#     4  11  22  34  50  72 108 150 182 217 264 322
#     4  10  24  34  44  70 112 150 184 218 256 322
#     4  11  22  36  57  80 110 147 186 228 275 327
#
# _framework density 19.364561999999999
#
# number of rings (size 3 to 8) (size 9 to 14) (size 15 to 20)
#    0.000    1.867    1.333    1.600   11.200    2.133 
#    0.000    0.000    0.000    0.800    0.000    5.600 
#    0.000    0.000    0.000    0.000    0.000    0.000 
#
# Total GULP energy -371733.275232 kJ/mol
# GULP energy per Si atom -12391.109174 kJ/mol
# Density = 1.932049 g / cm^3
# Si number density = 19.364562 Si / 1000 Ang^3
#
#
#
# Elastic Constant Matrix: (Units=GPa)
#
#
# Indices 1 2 3 4 5 6 
#
# 1 54.5740 70.0561 25.8894 0.0000 0.0000 0.0000
# 2 70.0561 54.5796 25.8946 0.0000 0.0000 0.0000
# 3 25.8894 25.8946 73.4884 0.0000 0.0000 0.0000
# 4 0.0000 0.0000 0.0000 18.4201 0.0000 0.0000
# 5 0.0000 0.0000 0.0000 0.0000 18.4173 0.0000
# 6 0.0000 0.0000 0.0000 0.0000 0.0000 28.0493
#
#
#
# Elastic Compliance Matrix: (Units=1/GPa)
#
#
# Indices 1 2 3 4 5 6 
#
# 1 -0.027602 0.037001 -0.003314 0.000000 0.000000 0.000000
# 2 0.037001 -0.027601 -0.003310 0.000000 0.000000 0.000000
# 3 -0.003314 -0.003310 0.015941 0.000000 0.000000 0.000000
# 4 0.000000 0.000000 0.000000 0.054289 0.000000 0.000000
# 5 0.000000 0.000000 0.000000 0.000000 0.054297 0.000000
# 6 0.000000 0.000000 0.000000 0.000000 0.000000 0.035652
#
#
# Mechanical properties :
#
#
# Convention : Reuss Voigt Hill
#
# Bulk Modulus (GPa) = 46.52585 47.36915 46.94750
# Shear Modulus (GPa) = 97.30533 17.03079 57.16806
#
# Velocity S-wave (km/s) = 7.09636 2.96882 5.43931
# Velocity P-wave (km/s) = 9.55106 6.02219 7.98403
#
# Compressibility (1/GPa) = 0.02149343
#
# Stress axis : x y z
#
# Youngs Moduli (GPa) = -36.22928 -36.23077 62.73040
#
# Poissons Ratio (x) = 1.34057 0.20788
# Poissons Ratio (y) = 1.34052 0.20762
# Poissons Ratio (z) = -0.12006 -0.11991
#
# Static dielectric constant tensor:
#      x y z
#    x 3.743710 0.000000 0.000000 
#    y 0.000000 3.743720 0.000000 
#    z 0.000000 0.000000 4.316450 
# 
# 
# High freq. dielectric constant tensor:
#      x y z
#    x 1.735980 0.000000 0.000000 
#    y 0.000000 1.735980 0.000000 
#    z 0.000000 0.000000 1.768390 
# 
# From -- ./inp_files/1085.got.cif
#   From: 2010.03.12/outbox.cif.g09.slc.cpg/sg120_1_cif.got.tgz:1085.got - 2010.04.06 16:00:44.
