data_PCOD8311788
_publ_section_title
;
Structure prediction by ZEFSAII (Michael W. Deem and Ramdas Pophale) SiO2 
 PCOD8311788
Probable space group: I -4 2 D
;
_chemical_formula_sum "Si O2"
_cell_formula_units_Z 88
_cell_length_a 15.555862
_cell_length_b 15.555862
_cell_length_c 18.269006
_cell_angle_alpha 90.000000
_cell_angle_beta 90.000000
_cell_angle_gamma 90.000000
_cell_volume 4420.822541
_symmetry_space_group_name_H-M "I -4 2 D"
_symmetry_group_IT_number 122
_symmetry_cell_setting 'tetragonal'
loop_
_space_group_symop_operation_xyz
x,y,z
y,-x,-z
-x,-y,z
-y,x,-z
x,1/2-y,1/4-z
-x,1/2+y,1/4-z
-y,1/2-x,1/4+z
y,1/2+x,1/4+z
1/2+x,1/2+y,1/2+z
1/2+y,1/2-x,1/2-z
1/2-x,1/2-y,1/2+z
1/2-y,1/2+x,1/2-z
1/2+x,-y,3/4-z
1/2-x,y,3/4-z
1/2-y,-x,3/4+z
1/2+y,x,3/4+z
loop_
_atom_site_type_symbol
_atom_site_label
_atom_site_fract_x
_atom_site_fract_y
_atom_site_fract_z
Si Si1 0.590972 0.956994 0.342655
Si Si2 0.433501 0.599900 0.458360
Si Si3 0.500000 0.000000 0.922204
Si Si4 0.658961 0.233702 0.408042
Si Si5 0.007319 0.695951 0.801791
Si Si6 0.858298 0.440597 0.982945
O O1 0.655453 0.977580 0.277470
O O2 0.567134 0.855500 0.346696
O O3 0.500000 0.000000 0.325691
O O4 0.634853 0.992038 0.416016
O O5 0.529542 0.615505 0.491055
O O6 0.441344 0.562912 0.376391
O O7 0.380867 0.688242 0.455096
O O8 0.565405 0.948924 0.975178
O O9 0.750000 0.263745 0.375000
O O10 0.596370 0.197537 0.345539
O O11 0.674319 0.153350 0.461134
O O12 0.976546 0.792624 0.792630
#
# Coordination Sequence:
#
# PCOD8311788 Si02
#       6
#    16  16   8  16  16  16
#     4  12  20  37  60  86 127 181 207 244 329 386
#     4   9  22  46  71  89 122 167 219 265 326 388
#     4  10  19  42  66  91 118 172 212 260 330 387
#     4  12  24  40  63  99 131 165 213 275 316 377
#     4  12  22  39  62  89 133 171 213 267 314 389
#     4  12  23  38  64  96 130 167 224 262 319 397
#
# _framework density 19.905798000000001
#
# number of rings (size 3 to 8) (size 9 to 14) (size 15 to 20)
#    0.000    0.909    6.364    2.727    0.000    1.455 
#    3.273    2.727    0.000    0.000    0.000    0.000 
#    0.000    0.000    0.000    0.000    0.000    0.000 
#
# Total GULP energy -545579.097357 kJ/mol
# GULP energy per Si atom -12399.524940 kJ/mol
# Density = 1.986049 g / cm^3
# Si number density = 19.905798 Si / 1000 Ang^3
#
#
#
# Elastic Constant Matrix: (Units=GPa)
#
#
# Indices 1 2 3 4 5 6 
#
# 1 94.0639 31.2526 22.0584 0.0000 0.0000 0.0000
# 2 31.2526 94.0639 22.0583 0.0000 0.0000 0.0000
# 3 22.0584 22.0583 67.2272 0.0000 0.0000 0.0000
# 4 0.0000 0.0000 0.0000 19.5603 0.0000 0.0000
# 5 0.0000 0.0000 0.0000 0.0000 19.5604 0.0000
# 6 0.0000 0.0000 0.0000 0.0000 0.0000 29.1766
#
#
#
# Elastic Compliance Matrix: (Units=1/GPa)
#
#
# Indices 1 2 3 4 5 6 
#
# 1 0.012471 -0.003449 -0.002960 0.000000 0.000000 0.000000
# 2 -0.003449 0.012471 -0.002960 0.000000 0.000000 0.000000
# 3 -0.002960 -0.002960 0.016818 0.000000 0.000000 0.000000
# 4 0.000000 0.000000 0.000000 0.051124 0.000000 0.000000
# 5 0.000000 0.000000 0.000000 0.000000 0.051124 0.000000
# 6 0.000000 0.000000 0.000000 0.000000 0.000000 0.034274
#
#
# Mechanical properties :
#
#
# Convention : Reuss Voigt Hill
#
# Bulk Modulus (GPa) = 43.43970 45.12152 44.28061
# Shear Modulus (GPa) = 24.42658 25.65851 25.04255
#
# Velocity S-wave (km/s) = 3.50681 3.59416 3.55075
# Velocity P-wave (km/s) = 6.18603 6.31986 6.25331
#
# Compressibility (1/GPa) = 0.02302041
#
# Stress axis : x y z
#
# Youngs Moduli (GPa) = 80.18407 80.18406 59.46177
#
# Poissons Ratio (x) = 0.27659 0.17602
# Poissons Ratio (y) = 0.27659 0.17602
# Poissons Ratio (z) = 0.23736 0.23736
#
# Static dielectric constant tensor:
#      x y z
#    x 4.314380 0.000000 0.000000 
#    y 0.000000 4.314380 0.000000 
#    z 0.000000 0.000000 3.624270 
# 
# 
# High freq. dielectric constant tensor:
#      x y z
#    x 1.772910 0.000000 0.000000 
#    y 0.000000 1.772910 0.000000 
#    z 0.000000 0.000000 1.779090 
# 
# From -- ./inp_files/7178.got.cif
#   From: 2010.03.12/outbox.cif.g09.slc.cpg/sg122_4_cif.got.tgz:7178.got - 2010.04.06 16:17:16.
