data_PCOD8311373
_publ_section_title
;
Structure prediction by ZEFSAII (Michael W. Deem and Ramdas Pophale) SiO2 
 PCOD8311373
Probable space group: I -4 2 M
;
_chemical_formula_sum "Si O2"
_cell_formula_units_Z 66
_cell_length_a 13.600003
_cell_length_b 13.600003
_cell_length_c 21.798913
_cell_angle_alpha 90.000000
_cell_angle_beta 90.000000
_cell_angle_gamma 90.000000
_cell_volume 4031.928727
_symmetry_space_group_name_H-M "I -4 2 M"
_symmetry_group_IT_number 121
_symmetry_cell_setting 'tetragonal'
loop_
_space_group_symop_operation_xyz
x,y,z
y,-x,-z
-x,-y,z
-y,x,-z
x,-y,-z
-x,y,-z
-y,-x,z
y,x,z
1/2+x,1/2+y,1/2+z
1/2+y,1/2-x,1/2-z
1/2-x,1/2-y,1/2+z
1/2-y,1/2+x,1/2-z
1/2+x,1/2-y,1/2-z
1/2-x,1/2+y,1/2-z
1/2-y,1/2-x,1/2+z
1/2+y,1/2+x,1/2+z
loop_
_atom_site_type_symbol
_atom_site_label
_atom_site_fract_x
_atom_site_fract_y
_atom_site_fract_z
Si Si1 0.696673 0.303328 0.907652
Si Si2 0.346073 0.346073 0.957129
Si Si3 0.421810 0.578190 0.228998
Si Si4 0.000000 0.000000 0.500000
Si Si5 0.621889 0.913803 0.266732
Si Si6 0.788049 0.788049 0.204622
Si Si7 0.480037 0.258624 0.864554
O O1 0.767974 0.232027 0.867824
O O2 0.587260 0.269926 0.892342
O O3 0.701411 0.298590 0.981783
O O4 0.398434 0.261639 0.917992
O O5 0.430226 0.430226 0.960677
O O6 0.500000 0.500000 0.254106
O O7 0.371573 0.628428 0.288589
O O8 0.341257 0.525812 0.187454
O O9 0.510727 0.875241 0.277024
O O10 0.689148 0.826080 0.238989
O O11 0.655354 0.955485 0.332828
#
# Coordination Sequence:
#
# PCOD8311373 Si02
#       7
#     8   8   8   2  16   8  16
#     4  12  17  29  47  74 111 136 175 215 252 318
#     4  11  20  28  47  75 112 154 171 211 264 321
#     4   9  17  28  45  69 103 137 174 213 258 303
#     4  12  16  24  40  76 108 144 184 196 264 322
#     4  10  20  35  54  76 111 144 176 221 278 318
#     4  10  21  32  50  80 104 141 179 225 267 317
#     4  10  18  29  46  74 107 142 175 206 258 324
#
# _framework density 16.369337000000002
#
# number of rings (size 3 to 8) (size 9 to 14) (size 15 to 20)
#    0.000    1.697    6.061    0.727    1.697    0.000 
#    0.000    0.000    0.000    1.455    0.000    0.000 
#    3.636    0.000    0.000    0.000    0.000    0.000 
#
# Total GULP energy -408813.613442 kJ/mol
# GULP energy per Si atom -12388.291316 kJ/mol
# Density = 1.633208 g / cm^3
# Si number density = 16.369337 Si / 1000 Ang^3
#
#
#
# Elastic Constant Matrix: (Units=GPa)
#
#
# Indices 1 2 3 4 5 6 
#
# 1 61.3153 44.6084 39.7375 0.0000 0.0000 0.0000
# 2 44.6084 61.3157 39.7375 0.0000 0.0000 0.0000
# 3 39.7375 39.7375 109.2918 0.0000 0.0000 0.0000
# 4 0.0000 0.0000 0.0000 -9.9919 0.0000 0.0000
# 5 0.0000 0.0000 0.0000 0.0000 -10.0004 0.0000
# 6 0.0000 0.0000 0.0000 0.0000 0.0000 35.0190
#
#
#
# Elastic Compliance Matrix: (Units=1/GPa)
#
#
# Indices 1 2 3 4 5 6 
#
# 1 0.036419 -0.023436 -0.004720 0.000000 0.000000 0.000000
# 2 -0.023436 0.036418 -0.004720 0.000000 0.000000 0.000000
# 3 -0.004720 -0.004720 0.012582 0.000000 0.000000 0.000000
# 4 0.000000 0.000000 0.000000 -0.100081 0.000000 0.000000
# 5 0.000000 0.000000 0.000000 0.000000 -0.099996 0.000000
# 6 0.000000 0.000000 0.000000 0.000000 0.000000 0.028556
#
#
# Mechanical properties :
#
#
# Convention : Reuss Voigt Hill
#
# Bulk Modulus (GPa) = 50.84926 53.34329 52.09628
# Shear Modulus (GPa) = -362.52146 10.19462 -176.16342
#
# Velocity S-wave (km/s) = -14.89780 2.49828 -10.38516
# Velocity P-wave (km/s) = 16.27252 6.40156 10.57863
#
# Compressibility (1/GPa) = 0.01966597
#
# Stress axis : x y z
#
# Youngs Moduli (GPa) = 27.45839 27.45860 79.47662
#
# Poissons Ratio (x) = 0.64353 0.37516
# Poissons Ratio (y) = 0.64352 0.37515
# Poissons Ratio (z) = 0.12961 0.12961
#
# Static dielectric constant tensor:
#      x y z
#    x 3.207030 0.000000 0.000000 
#    y 0.000000 3.207020 0.000000 
#    z 0.000000 0.000000 3.088280 
# 
# 
# High freq. dielectric constant tensor:
#      x y z
#    x 1.623040 0.000000 0.000000 
#    y 0.000000 1.623040 0.000000 
#    z 0.000000 0.000000 1.606200 
# 
# From -- ./inp_files/5150.got.cif
#   From: 2010.03.12/outbox.cif.g09.slc.cpg/sg121_3_cif.got.tgz:5150.got - 2010.04.06 16:06:48.
