data_PCOD8311126
_publ_section_title
;
Structure prediction by ZEFSAII (Michael W. Deem and Ramdas Pophale) SiO2 
 PCOD8311126
Probable space group: I -4 C 2
;
_chemical_formula_sum "Si O2"
_cell_formula_units_Z 112
_cell_length_a 14.702626
_cell_length_b 14.702626
_cell_length_c 25.619273
_cell_angle_alpha 90.000000
_cell_angle_beta 90.000000
_cell_angle_gamma 90.000000
_cell_volume 5538.046800
_symmetry_space_group_name_H-M "I -4 C 2"
_symmetry_group_IT_number 120
_symmetry_cell_setting 'tetragonal'
loop_
_space_group_symop_operation_xyz
x,y,z
y,-x,-z
-x,-y,z
-y,x,-z
y,x,1/2-z
-y,-x,1/2-z
-x,y,1/2+z
x,-y,1/2+z
1/2+x,1/2+y,1/2+z
1/2+y,1/2-x,1/2-z
1/2-x,1/2-y,1/2+z
1/2-y,1/2+x,1/2-z
1/2+y,1/2+x,-z
1/2-y,1/2-x,-z
1/2-x,1/2+y,z
1/2+x,1/2-y,z
loop_
_atom_site_type_symbol
_atom_site_label
_atom_site_fract_x
_atom_site_fract_y
_atom_site_fract_z
Si Si1 0.440425 0.292323 0.746277
Si Si2 0.933527 0.577879 0.585103
Si Si3 0.192859 0.804907 0.586069
Si Si4 0.246177 0.526319 0.141372
Si Si5 0.482831 0.240771 0.633653
Si Si6 0.674302 0.174302 0.500000
Si Si7 0.330256 0.332838 0.138794
Si Si8 0.633193 0.366808 0.750000
O O1 0.347130 0.347130 0.750000
O O2 0.455957 0.227214 0.796917
O O3 0.438794 0.239144 0.691427
O O4 0.525288 0.359662 0.747163
O O5 0.848226 0.526543 0.610422
O O6 0.984431 0.636928 0.628718
O O7 0.903996 0.653934 0.542620
O O8 0.000000 0.500000 0.561946
O O9 0.187924 0.893750 0.621862
O O10 0.225365 0.831999 0.527098
O O11 0.269752 0.736992 0.607064
O O12 0.093346 0.760314 0.589089
O O13 0.300433 0.435278 0.126044
O O14 0.563597 0.314267 0.625714
O O15 0.317259 0.319099 0.200970
#
# Coordination Sequence:
#
# PCOD8311126 Si02
#       8
#    16  16  16  16  16   8  16   8
#     4  10  18  34  58  93 127 178 212 257 329 405
#     4  11  23  46  66  98 130 177 234 278 338 408
#     4  11  22  42  63  92 127 171 214 284 335 391
#     4  10  21  39  64  93 133 174 220 268 326 400
#     4  11  22  39  65  95 135 173 216 278 339 403
#     4  10  23  46  68  88 125 168 226 288 336 397
#     4  10  20  39  59  92 130 169 219 268 328 398
#     4   8  19  30  58  88 124 169 216 252 314 406
#
# _framework density 20.223737
#
# number of rings (size 3 to 8) (size 9 to 14) (size 15 to 20)
#    0.000    1.714    4.286    1.286    0.000    1.714 
#   12.857    0.000    0.000    0.000    0.000    0.000 
#    0.000    0.000    0.000    0.000    0.000    0.000 
#
# Total GULP energy -693989.864819 kJ/mol
# GULP energy per Si atom -12392.676157 kJ/mol
# Density = 2.017771 g / cm^3
# Si number density = 20.223737 Si / 1000 Ang^3
#
#
#
# Elastic Constant Matrix: (Units=GPa)
#
#
# Indices 1 2 3 4 5 6 
#
# 1 96.6943 31.7886 37.8435 0.0000 0.0000 0.0000
# 2 31.7886 96.6945 37.8434 0.0000 0.0000 0.0000
# 3 37.8435 37.8434 98.5328 0.0000 0.0000 0.0000
# 4 0.0000 0.0000 0.0000 25.1507 0.0000 0.0000
# 5 0.0000 0.0000 0.0000 0.0000 25.1505 0.0000
# 6 0.0000 0.0000 0.0000 0.0000 0.0000 38.8006
#
#
#
# Elastic Compliance Matrix: (Units=1/GPa)
#
#
# Indices 1 2 3 4 5 6 
#
# 1 0.012733 -0.002674 -0.003863 0.000000 0.000000 0.000000
# 2 -0.002674 0.012733 -0.003863 0.000000 0.000000 0.000000
# 3 -0.003863 -0.003863 0.013116 0.000000 0.000000 0.000000
# 4 0.000000 0.000000 0.000000 0.039760 0.000000 0.000000
# 5 0.000000 0.000000 0.000000 0.000000 0.039761 0.000000
# 6 0.000000 0.000000 0.000000 0.000000 0.000000 0.025773
#
#
# Mechanical properties :
#
#
# Convention : Reuss Voigt Hill
#
# Bulk Modulus (GPa) = 56.23968 56.31917 56.27943
# Shear Modulus (GPa) = 29.30755 30.11677 29.71216
#
# Velocity S-wave (km/s) = 3.81092 3.86317 3.83714
# Velocity P-wave (km/s) = 6.87265 6.91428 6.89350
#
# Compressibility (1/GPa) = 0.01778104
#
# Stress axis : x y z
#
# Youngs Moduli (GPa) = 78.53628 78.53659 76.23997
#
# Poissons Ratio (x) = 0.21001 0.29454
# Poissons Ratio (y) = 0.21001 0.29454
# Poissons Ratio (z) = 0.30341 0.30341
#
# Static dielectric constant tensor:
#      x y z
#    x 3.624170 0.000000 0.000000 
#    y 0.000000 3.624160 0.000000 
#    z 0.000000 0.000000 3.956860 
# 
# 
# High freq. dielectric constant tensor:
#      x y z
#    x 1.784270 0.000000 0.000000 
#    y 0.000000 1.784270 0.000000 
#    z 0.000000 0.000000 1.787600 
# 
# From -- ./inp_files/6328.got.cif
#   From: 2010.03.12/outbox.cif.g09.slc.cpg/sg120_4_cif.got.tgz:6328.got - 2010.04.06 16:00:44.
