data_PCOD8311114
_publ_section_title
;
Structure prediction by ZEFSAII (Michael W. Deem and Ramdas Pophale) SiO2 
 PCOD8311114
Probable space group: I -4 C 2
;
_chemical_formula_sum "Si O2"
_cell_formula_units_Z 44
_cell_length_a 13.560845
_cell_length_b 13.560845
_cell_length_c 12.501927
_cell_angle_alpha 90.000000
_cell_angle_beta 90.000000
_cell_angle_gamma 90.000000
_cell_volume 2299.060833
_symmetry_space_group_name_H-M "I -4 C 2"
_symmetry_group_IT_number 120
_symmetry_cell_setting 'tetragonal'
loop_
_space_group_symop_operation_xyz
x,y,z
y,-x,-z
-x,-y,z
-y,x,-z
y,x,1/2-z
-y,-x,1/2-z
-x,y,1/2+z
x,-y,1/2+z
1/2+x,1/2+y,1/2+z
1/2+y,1/2-x,1/2-z
1/2-x,1/2-y,1/2+z
1/2-y,1/2+x,1/2-z
1/2+y,1/2+x,-z
1/2-y,1/2-x,-z
1/2-x,1/2+y,z
1/2+x,1/2-y,z
loop_
_atom_site_type_symbol
_atom_site_label
_atom_site_fract_x
_atom_site_fract_y
_atom_site_fract_z
Si Si1 0.247908 0.252093 0.500000
Si Si2 0.000000 0.500000 0.000000
Si Si3 0.881037 0.259083 0.298439
Si Si4 0.923671 0.681941 0.369282
O O1 0.273076 0.172057 0.588533
O O2 0.135995 0.249045 0.452777
O O3 0.008763 0.596728 0.924692
O O4 0.843224 0.156777 0.250000
O O5 0.861014 0.349695 0.218598
O O6 0.997902 0.247194 0.311928
#
# Coordination Sequence:
#
# PCOD8311114 Si02
#       4
#     8   4  16  16
#     4   9  21  35  52  77 109 145 174 214 270 325
#     4  10  18  30  56  86 106 134 168 230 292 316
#     4  10  20  34  54  79 108 142 175 221 271 318
#     4  10  19  33  54  82 109 134 177 223 273 324
#
# _framework density 19.138248999999998
#
# number of rings (size 3 to 8) (size 9 to 14) (size 15 to 20)
#    0.000    2.182    0.000    3.273    0.000    5.818 
#    0.000    0.000    0.000   24.000    0.000    0.000 
#    0.000    0.000    0.000    0.000    0.000    0.000 
#
# Total GULP energy -272572.968034 kJ/mol
# GULP energy per Si atom -12389.680365 kJ/mol
# Density = 1.909469 g / cm^3
# Si number density = 19.138249 Si / 1000 Ang^3
#
#
#
# Elastic Constant Matrix: (Units=GPa)
#
#
# Indices 1 2 3 4 5 6 
#
# 1 81.8048 56.0500 34.2540 0.0000 0.0000 0.0000
# 2 56.0500 81.8054 34.2529 0.0000 0.0000 0.0000
# 3 34.2540 34.2529 110.3419 0.0000 0.0000 0.0000
# 4 0.0000 0.0000 0.0000 28.8829 0.0000 0.0000
# 5 0.0000 0.0000 0.0000 0.0000 28.8831 0.0000
# 6 0.0000 0.0000 0.0000 0.0000 0.0000 21.1468
#
#
#
# Elastic Compliance Matrix: (Units=1/GPa)
#
#
# Indices 1 2 3 4 5 6 
#
# 1 0.023702 -0.015125 -0.002663 0.000000 0.000000 0.000000
# 2 -0.015125 0.023702 -0.002662 0.000000 0.000000 0.000000
# 3 -0.002663 -0.002662 0.010716 0.000000 0.000000 0.000000
# 4 0.000000 0.000000 0.000000 0.034623 0.000000 0.000000
# 5 0.000000 0.000000 0.000000 0.000000 0.034622 0.000000
# 6 0.000000 0.000000 0.000000 0.000000 0.000000 0.047288
#
#
# Mechanical properties :
#
#
# Convention : Reuss Voigt Hill
#
# Bulk Modulus (GPa) = 58.07286 58.11843 58.09565
# Shear Modulus (GPa) = 22.59437 25.74226 24.16831
#
# Velocity S-wave (km/s) = 3.43969 3.67150 3.55748
# Velocity P-wave (km/s) = 6.79596 6.95750 6.87720
#
# Compressibility (1/GPa) = 0.01721975
#
# Stress axis : x y z
#
# Youngs Moduli (GPa) = 42.18973 42.19046 93.31974
#
# Poissons Ratio (x) = 0.63813 0.24850
# Poissons Ratio (y) = 0.63812 0.24845
# Poissons Ratio (z) = 0.11235 0.11233
#
# Static dielectric constant tensor:
#      x y z
#    x 3.434600 0.000000 0.000000 
#    y 0.000000 3.434590 0.000000 
#    z 0.000000 0.000000 3.885360 
# 
# 
# High freq. dielectric constant tensor:
#      x y z
#    x 1.726140 0.000000 0.000000 
#    y 0.000000 1.726140 0.000000 
#    z 0.000000 0.000000 1.772930 
# 
# From -- ./inp_files/2019.got.cif
#   From: 2010.03.12/outbox.cif.g09.slc.cpg/sg120_2_cif.got.tgz:2019.got - 2010.04.06 16:00:44.
