data_PCOD8311924
_publ_section_title
;
Structure prediction by ZEFSAII (Michael W. Deem and Ramdas Pophale) SiO2 
 PCOD8311924
Probable space group: I -4 2 D
;
_chemical_formula_sum "Si O2"
_cell_formula_units_Z 112
_cell_length_a 14.819900
_cell_length_b 14.819900
_cell_length_c 23.082790
_cell_angle_alpha 90.000000
_cell_angle_beta 90.000000
_cell_angle_gamma 90.000000
_cell_volume 5069.660149
_symmetry_space_group_name_H-M "I -4 2 D"
_symmetry_group_IT_number 122
_symmetry_cell_setting 'tetragonal'
loop_
_space_group_symop_operation_xyz
x,y,z
y,-x,-z
-x,-y,z
-y,x,-z
x,1/2-y,1/4-z
-x,1/2+y,1/4-z
-y,1/2-x,1/4+z
y,1/2+x,1/4+z
1/2+x,1/2+y,1/2+z
1/2+y,1/2-x,1/2-z
1/2-x,1/2-y,1/2+z
1/2-y,1/2+x,1/2-z
1/2+x,-y,3/4-z
1/2-x,y,3/4-z
1/2-y,-x,3/4+z
1/2+y,x,3/4+z
loop_
_atom_site_type_symbol
_atom_site_label
_atom_site_fract_x
_atom_site_fract_y
_atom_site_fract_z
Si Si1 0.928036 0.576983 0.572756
Si Si2 0.159897 0.230753 0.187877
Si Si3 0.541502 0.743959 0.257414
Si Si4 0.165765 0.368260 0.690339
Si Si5 0.850653 0.847876 0.860658
Si Si6 0.083072 0.381746 0.265521
Si Si7 0.992906 0.607898 0.037512
O O1 0.972044 0.665252 0.541102
O O2 0.870225 0.602904 0.627936
O O3 0.862305 0.531910 0.525055
O O4 0.000000 0.500000 0.591128
O O5 0.119503 0.250000 0.125000
O O6 0.266641 0.215795 0.183704
O O7 0.145329 0.315299 0.229140
O O8 0.109961 0.140150 0.210167
O O9 0.445824 0.777492 0.279216
O O10 0.584207 0.833579 0.229487
O O11 0.601962 0.713551 0.312114
O O12 0.750000 0.811367 0.875000
O O13 0.912824 0.850883 0.917750
O O14 0.842480 0.949766 0.836983
O O15 0.123754 0.481329 0.257521
O O16 0.000000 0.500000 0.044672
#
# Coordination Sequence:
#
# PCOD8311924 Si02
#       7
#    16  16  16  16  16  16  16
#     4  10  23  47  74 101 140 189 236 297 372 444
#     4  12  25  41  68 103 140 189 238 306 361 426
#     4  11  27  48  72 107 141 187 242 303 368 445
#     4  12  27  47  74 104 142 182 246 308 368 437
#     4  11  23  44  67  99 145 193 240 302 357 444
#     4  11  26  42  67 106 149 195 247 295 362 438
#     4  10  22  41  69  98 142 190 242 284 370 438
#
# _framework density 22.092210999999999
#
# number of rings (size 3 to 8) (size 9 to 14) (size 15 to 20)
#    0.000    1.000    0.000    6.857   10.000    2.286 
#    2.571    0.000    0.000    0.000    0.000    0.000 
#    0.000    0.000    0.000    0.000    0.000    0.000 
#
# Total GULP energy -694377.193852 kJ/mol
# GULP energy per Si atom -12399.592747 kJ/mol
# Density = 2.204193 g / cm^3
# Si number density = 22.092211 Si / 1000 Ang^3
#
#
#
# Elastic Constant Matrix: (Units=GPa)
#
#
# Indices 1 2 3 4 5 6 
#
# 1 104.6845 45.8014 51.0216 0.0000 0.0000 0.0000
# 2 45.8014 104.6845 51.0216 0.0000 0.0000 0.0000
# 3 51.0216 51.0216 148.9019 0.0000 0.0000 0.0000
# 4 0.0000 0.0000 0.0000 33.0162 0.0000 0.0000
# 5 0.0000 0.0000 0.0000 0.0000 33.0162 0.0000
# 6 0.0000 0.0000 0.0000 0.0000 0.0000 43.3427
#
#
#
# Elastic Compliance Matrix: (Units=1/GPa)
#
#
# Indices 1 2 3 4 5 6 
#
# 1 0.012820 -0.004163 -0.002966 0.000000 0.000000 0.000000
# 2 -0.004163 0.012820 -0.002966 0.000000 0.000000 0.000000
# 3 -0.002966 -0.002966 0.008749 0.000000 0.000000 0.000000
# 4 0.000000 0.000000 0.000000 0.030288 0.000000 0.000000
# 5 0.000000 0.000000 0.000000 0.000000 0.030288 0.000000
# 6 0.000000 0.000000 0.000000 0.000000 0.000000 0.023072
#
#
# Mechanical properties :
#
#
# Convention : Reuss Voigt Hill
#
# Bulk Modulus (GPa) = 70.43815 72.66224 71.55020
# Shear Modulus (GPa) = 34.97498 35.90343 35.43921
#
# Velocity S-wave (km/s) = 3.98318 4.03570 4.00953
# Velocity P-wave (km/s) = 7.28747 7.39444 7.34115
#
# Compressibility (1/GPa) = 0.01419685
#
# Stress axis : x y z
#
# Youngs Moduli (GPa) = 78.00532 78.00532 114.30450
#
# Poissons Ratio (x) = 0.32475 0.33905
# Poissons Ratio (y) = 0.32475 0.33905
# Poissons Ratio (z) = 0.23138 0.23138
#
# Static dielectric constant tensor:
#      x y z
#    x 3.922430 0.000000 0.000000 
#    y 0.000000 3.922430 0.000000 
#    z 0.000000 0.000000 4.213220 
# 
# 
# High freq. dielectric constant tensor:
#      x y z
#    x 1.871590 0.000000 0.000000 
#    y 0.000000 1.871590 0.000000 
#    z 0.000000 0.000000 1.881470 
# 
# From -- ./inp_files/8105.got.cif
#   From: 2010.03.12/outbox.cif.g09.slc.cpg/sg122_5_cif.got.tgz:8105.got - 2010.04.06 16:17:16.
