data_PCOD8311607
_publ_section_title
;
Structure prediction by ZEFSAII (Michael W. Deem and Ramdas Pophale) SiO2 
 PCOD8311607
Probable space group: I -4 2 M
;
_chemical_formula_sum "Si O2"
_cell_formula_units_Z 56
_cell_length_a 15.739351
_cell_length_b 15.739351
_cell_length_c 11.636050
_cell_angle_alpha 90.000000
_cell_angle_beta 90.000000
_cell_angle_gamma 90.000000
_cell_volume 2882.565735
_symmetry_space_group_name_H-M "I -4 2 M"
_symmetry_group_IT_number 121
_symmetry_cell_setting 'tetragonal'
loop_
_space_group_symop_operation_xyz
x,y,z
y,-x,-z
-x,-y,z
-y,x,-z
x,-y,-z
-x,y,-z
-y,-x,z
y,x,z
1/2+x,1/2+y,1/2+z
1/2+y,1/2-x,1/2-z
1/2-x,1/2-y,1/2+z
1/2-y,1/2+x,1/2-z
1/2+x,1/2-y,1/2-z
1/2-x,1/2+y,1/2-z
1/2-y,1/2-x,1/2+z
1/2+y,1/2+x,1/2+z
loop_
_atom_site_type_symbol
_atom_site_label
_atom_site_fract_x
_atom_site_fract_y
_atom_site_fract_z
Si Si1 0.587693 0.087774 0.202199
Si Si2 0.000000 0.679976 0.500000
Si Si3 0.495354 0.362210 0.626465
Si Si4 0.597992 0.260032 0.800383
O O1 0.513915 0.105817 0.297070
O O2 0.559346 0.119848 0.077691
O O3 0.673891 0.134767 0.242649
O O4 0.939533 0.740595 0.574419
O O5 0.500000 0.318510 0.500000
O O6 0.562070 0.437931 0.626460
O O7 0.401644 0.401644 0.651769
O O8 0.519805 0.294667 0.723658
O O9 0.674057 0.325944 0.812293
#
# Coordination Sequence:
#
# PCOD8311607 Si02
#       4
#    16   8  16  16
#     4   9  20  40  60  79 106 156 195 239 279 351
#     4  10  22  41  62  83 114 156 190 237 296 358
#     4   8  15  32  55  79 114 155 189 220 266 339
#     4  10  21  37  58  90 120 147 190 243 291 342
#
# _framework density 19.427136999999998
#
# number of rings (size 3 to 8) (size 9 to 14) (size 15 to 20)
#    0.000    2.857    0.000    0.857    0.000   11.429 
#   25.714    4.286    0.000    0.000    0.000    0.000 
#    0.000    0.000    0.000    0.000    0.000    0.000 
#
# Total GULP energy -347023.600552 kJ/mol
# GULP energy per Si atom -12393.700020 kJ/mol
# Density = 1.938292 g / cm^3
# Si number density = 19.427137 Si / 1000 Ang^3
#
#
#
# Elastic Constant Matrix: (Units=GPa)
#
#
# Indices 1 2 3 4 5 6 
#
# 1 111.3432 55.5085 73.3364 0.0000 0.0000 0.0000
# 2 55.5085 111.3415 73.3367 0.0000 0.0000 0.0000
# 3 73.3364 73.3367 160.8270 0.0000 0.0000 0.0000
# 4 0.0000 0.0000 0.0000 34.3925 0.0000 0.0000
# 5 0.0000 0.0000 0.0000 0.0000 34.3930 0.0000
# 6 0.0000 0.0000 0.0000 0.0000 0.0000 22.6792
#
#
#
# Elastic Compliance Matrix: (Units=1/GPa)
#
#
# Indices 1 2 3 4 5 6 
#
# 1 0.013957 -0.003954 -0.004561 0.000000 0.000000 0.000000
# 2 -0.003954 0.013957 -0.004561 0.000000 0.000000 0.000000
# 3 -0.004561 -0.004561 0.010378 0.000000 0.000000 0.000000
# 4 0.000000 0.000000 0.000000 0.029076 0.000000 0.000000
# 5 0.000000 0.000000 0.000000 0.000000 0.029076 0.000000
# 6 0.000000 0.000000 0.000000 0.000000 0.000000 0.044093
#
#
# Mechanical properties :
#
#
# Convention : Reuss Voigt Hill
#
# Bulk Modulus (GPa) = 82.38235 87.54167 84.96201
# Shear Modulus (GPa) = 29.28511 30.38162 29.83336
#
# Velocity S-wave (km/s) = 3.88678 3.95888 3.92299
# Velocity P-wave (km/s) = 7.91458 8.12750 8.02175
#
# Compressibility (1/GPa) = 0.01213852
#
# Stress axis : x y z
#
# Youngs Moduli (GPa) = 71.65101 71.64921 96.35936
#
# Poissons Ratio (x) = 0.28327 0.43952
# Poissons Ratio (y) = 0.28328 0.43954
# Poissons Ratio (z) = 0.32682 0.32683
#
# Static dielectric constant tensor:
#      x y z
#    x 3.664110 0.000000 0.000000 
#    y 0.000000 3.664100 0.000000 
#    z 0.000000 0.000000 3.600840 
# 
# 
# High freq. dielectric constant tensor:
#      x y z
#    x 1.748960 0.000000 0.000000 
#    y 0.000000 1.748960 0.000000 
#    z 0.000000 0.000000 1.753220 
# 
# From -- ./inp_files/2725.got.cif
#   From: 2010.03.12/outbox.cif.g09.slc.cpg/sg121_2_cif.got.tgz:2725.got - 2010.04.06 16:06:48.
