data_PCOD8311579
_publ_section_title
;
Structure prediction by ZEFSAII (Michael W. Deem and Ramdas Pophale) SiO2 
 PCOD8311579
Probable space group: I -4 2 M
;
_chemical_formula_sum "Si O2"
_cell_formula_units_Z 112
_cell_length_a 15.480817
_cell_length_b 15.480817
_cell_length_c 22.155671
_cell_angle_alpha 90.000000
_cell_angle_beta 90.000000
_cell_angle_gamma 90.000000
_cell_volume 5309.732731
_symmetry_space_group_name_H-M "I -4 2 M"
_symmetry_group_IT_number 121
_symmetry_cell_setting 'tetragonal'
loop_
_space_group_symop_operation_xyz
x,y,z
y,-x,-z
-x,-y,z
-y,x,-z
x,-y,-z
-x,y,-z
-y,-x,z
y,x,z
1/2+x,1/2+y,1/2+z
1/2+y,1/2-x,1/2-z
1/2-x,1/2-y,1/2+z
1/2-y,1/2+x,1/2-z
1/2+x,1/2-y,1/2-z
1/2-x,1/2+y,1/2-z
1/2-y,1/2-x,1/2+z
1/2+y,1/2+x,1/2+z
loop_
_atom_site_type_symbol
_atom_site_label
_atom_site_fract_x
_atom_site_fract_y
_atom_site_fract_z
Si Si1 0.960893 0.672029 0.936464
Si Si2 0.726880 0.408018 0.671471
Si Si3 0.528907 0.333219 0.229326
Si Si4 0.335775 0.193154 0.739393
Si Si5 0.822149 0.459581 0.060980
Si Si6 0.928739 0.562483 0.148663
Si Si7 0.995361 0.139526 0.401108
O O1 0.961954 0.749254 0.888013
O O2 0.861221 0.637790 0.940121
O O3 0.022106 0.597650 0.910488
O O4 0.000000 0.704905 0.000000
O O5 0.675059 0.324942 0.649328
O O6 0.668221 0.466664 0.713746
O O7 0.809488 0.377258 0.710450
O O8 0.575916 0.424085 0.234474
O O9 0.595754 0.254434 0.228765
O O10 0.475220 0.328847 0.167141
O O11 0.252055 0.252055 0.717347
O O12 0.386650 0.140201 0.687414
O O13 0.850346 0.506763 0.122561
O O14 0.718329 0.469599 0.058377
O O15 0.860726 0.500000 0.000000
O O16 0.000000 0.500000 0.182978
O O17 0.072388 0.072388 0.399724
O O18 0.907888 0.092113 0.426524
#
# Coordination Sequence:
#
# PCOD8311579 Si02
#       7
#    16  16  16  16  16  16  16
#     4  11  22  42  63  85 124 167 213 259 314 373
#     4  11  23  39  62  92 125 160 206 260 315 374
#     4  10  20  38  62  86 120 163 201 244 313 382
#     4  10  21  39  61  93 132 164 202 262 329 390
#     4  11  22  37  63  87 116 162 210 254 311 371
#     4  10  21  38  61  91 125 163 210 263 321 382
#     4  10  22  40  61  89 126 165 206 254 312 387
#
# _framework density 21.093340000000001
#
# number of rings (size 3 to 8) (size 9 to 14) (size 15 to 20)
#    0.000    1.571    2.857    2.143    0.000    6.000 
#    0.000    2.143    0.000    0.000    0.000    0.000 
#    0.000    0.000    0.000    0.000    0.000    0.000 
#
# Total GULP energy -693942.335643 kJ/mol
# GULP energy per Si atom -12391.827422 kJ/mol
# Density = 2.104533 g / cm^3
# Si number density = 21.093340 Si / 1000 Ang^3
#
#
#
# Elastic Constant Matrix: (Units=GPa)
#
#
# Indices 1 2 3 4 5 6 
#
# 1 84.9602 26.1628 31.0440 0.0000 0.0000 0.0000
# 2 26.1628 84.9611 31.0443 0.0000 0.0000 0.0000
# 3 31.0440 31.0443 93.1627 0.0000 0.0000 0.0000
# 4 0.0000 0.0000 0.0000 23.8207 0.0000 0.0000
# 5 0.0000 0.0000 0.0000 0.0000 23.8204 0.0000
# 6 0.0000 0.0000 0.0000 0.0000 0.0000 35.8143
#
#
#
# Elastic Compliance Matrix: (Units=1/GPa)
#
#
# Indices 1 2 3 4 5 6 
#
# 1 0.014033 -0.002975 -0.003685 0.000000 0.000000 0.000000
# 2 -0.002975 0.014033 -0.003685 0.000000 0.000000 0.000000
# 3 -0.003685 -0.003685 0.013190 0.000000 0.000000 0.000000
# 4 0.000000 0.000000 0.000000 0.041980 0.000000 0.000000
# 5 0.000000 0.000000 0.000000 0.000000 0.041981 0.000000
# 6 0.000000 0.000000 0.000000 0.000000 0.000000 0.027922
#
#
# Mechanical properties :
#
#
# Convention : Reuss Voigt Hill
#
# Bulk Modulus (GPa) = 48.62338 48.84291 48.73315
# Shear Modulus (GPa) = 27.67298 28.34661 28.00979
#
# Velocity S-wave (km/s) = 3.62599 3.66985 3.64799
# Velocity P-wave (km/s) = 6.37432 6.41584 6.39511
#
# Compressibility (1/GPa) = 0.02056624
#
# Stress axis : x y z
#
# Youngs Moduli (GPa) = 71.26226 71.26298 75.81735
#
# Poissons Ratio (x) = 0.21199 0.27937
# Poissons Ratio (y) = 0.21199 0.27937
# Poissons Ratio (z) = 0.26258 0.26258
#
# Static dielectric constant tensor:
#      x y z
#    x 3.861140 0.000000 0.000000 
#    y 0.000000 3.861140 0.000000 
#    z 0.000000 0.000000 3.676950 
# 
# 
# High freq. dielectric constant tensor:
#      x y z
#    x 1.824280 0.000000 0.000000 
#    y 0.000000 1.824280 0.000000 
#    z 0.000000 0.000000 1.815970 
# 
# From -- ./inp_files/7190.got.cif
#   From: 2010.03.12/outbox.cif.g09.slc.cpg/sg121_4_cif.got.tgz:7190.got - 2010.04.06 16:06:48.
