data_PCOD8311242
_publ_section_title
;
Structure prediction by ZEFSAII (Michael W. Deem and Ramdas Pophale) SiO2 
 PCOD8311242
Probable space group: I -4 C 2
;
_chemical_formula_sum "Si O2"
_cell_formula_units_Z 116
_cell_length_a 18.364767
_cell_length_b 18.364767
_cell_length_c 18.345730
_cell_angle_alpha 90.000000
_cell_angle_beta 90.000000
_cell_angle_gamma 90.000000
_cell_volume 6187.366519
_symmetry_space_group_name_H-M "I -4 C 2"
_symmetry_group_IT_number 120
_symmetry_cell_setting 'tetragonal'
loop_
_space_group_symop_operation_xyz
x,y,z
y,-x,-z
-x,-y,z
-y,x,-z
y,x,1/2-z
-y,-x,1/2-z
-x,y,1/2+z
x,-y,1/2+z
1/2+x,1/2+y,1/2+z
1/2+y,1/2-x,1/2-z
1/2-x,1/2-y,1/2+z
1/2-y,1/2+x,1/2-z
1/2+y,1/2+x,-z
1/2-y,1/2-x,-z
1/2-x,1/2+y,z
1/2+x,1/2-y,z
loop_
_atom_site_type_symbol
_atom_site_label
_atom_site_fract_x
_atom_site_fract_y
_atom_site_fract_z
Si Si1 0.678669 0.271691 0.168815
Si Si2 0.940583 0.554292 0.887306
Si Si3 0.708705 0.845175 0.077292
Si Si4 0.466345 0.772664 0.101010
Si Si5 0.000000 0.500000 0.250000
Si Si6 0.708111 0.981381 0.561141
Si Si7 0.113090 0.238967 0.664804
Si Si8 0.127374 0.234224 0.830677
O O1 0.698646 0.301355 0.250000
O O2 0.711025 0.325334 0.106845
O O3 0.593317 0.265289 0.152716
O O4 0.706210 0.189785 0.155221
O O5 0.859191 0.522981 0.889101
O O6 0.945295 0.629046 0.930633
O O7 0.000000 0.500000 0.924320
O O8 0.962119 0.561535 0.801237
O O9 0.654200 0.811923 0.137515
O O10 0.701612 0.931944 0.070799
O O11 0.693007 0.806994 0.000000
O O12 0.538902 0.730353 0.122040
O O13 0.455489 0.758502 0.015401
O O14 0.759860 0.944553 0.620580
O O15 0.098239 0.246323 0.749872
O O16 0.157058 0.164401 0.651998
#
# Coordination Sequence:
#
# PCOD8311242 Si02
#       8
#    16  16  16  16   4  16  16  16
#     4  11  24  42  62  91 121 165 217 263 305 368
#     4  10  23  35  53  84 131 164 206 242 307 366
#     4  11  23  40  62  89 129 165 207 250 315 376
#     4  12  25  37  62  91 124 161 207 262 321 373
#     4   8  24  36  46  76 116 180 194 244 288 368
#     4  12  25  36  59  92 124 169 202 251 317 379
#     4  10  22  41  64  88 123 164 207 262 307 375
#     4  10  22  41  63  88 123 165 215 258 308 365
#
# _framework density 18.747879000000001
#
# number of rings (size 3 to 8) (size 9 to 14) (size 15 to 20)
#    0.414    0.828    5.517    1.241    7.724    0.552 
#    0.000    0.000    0.000    0.828    0.000    1.931 
#    0.000    0.000    0.000    0.000    0.000    0.000 
#
# Total GULP energy -718843.055511 kJ/mol
# GULP energy per Si atom -12393.845785 kJ/mol
# Density = 1.870521 g / cm^3
# Si number density = 18.747879 Si / 1000 Ang^3
#
#
#
# Elastic Constant Matrix: (Units=GPa)
#
#
# Indices 1 2 3 4 5 6 
#
# 1 70.8675 36.8363 47.8008 0.0000 0.0000 0.0000
# 2 36.8363 70.8676 47.8008 0.0000 0.0000 0.0000
# 3 47.8008 47.8008 133.8776 0.0000 0.0000 0.0000
# 4 0.0000 0.0000 0.0000 31.5269 0.0000 0.0000
# 5 0.0000 0.0000 0.0000 0.0000 31.5265 0.0000
# 6 0.0000 0.0000 0.0000 0.0000 0.0000 21.5205
#
#
#
# Elastic Compliance Matrix: (Units=1/GPa)
#
#
# Indices 1 2 3 4 5 6 
#
# 1 0.021489 -0.007896 -0.004853 0.000000 0.000000 0.000000
# 2 -0.007896 0.021489 -0.004853 0.000000 0.000000 0.000000
# 3 -0.004853 -0.004853 0.010935 0.000000 0.000000 0.000000
# 4 0.000000 0.000000 0.000000 0.031719 0.000000 0.000000
# 5 0.000000 0.000000 0.000000 0.000000 0.031719 0.000000
# 6 0.000000 0.000000 0.000000 0.000000 0.000000 0.046467
#
#
# Mechanical properties :
#
#
# Convention : Reuss Voigt Hill
#
# Bulk Modulus (GPa) = 53.45447 60.05428 56.75437
# Shear Modulus (GPa) = 24.35947 26.45976 25.40961
#
# Velocity S-wave (km/s) = 3.60852 3.76087 3.68548
# Velocity P-wave (km/s) = 6.77761 7.13869 6.96049
#
# Compressibility (1/GPa) = 0.01870751
#
# Stress axis : x y z
#
# Youngs Moduli (GPa) = 46.53612 46.53623 91.44798
#
# Poissons Ratio (x) = 0.36745 0.44382
# Poissons Ratio (y) = 0.36745 0.44382
# Poissons Ratio (z) = 0.22585 0.22585
#
# Static dielectric constant tensor:
#      x y z
#    x 3.349430 0.000000 0.000000 
#    y 0.000000 3.349430 0.000000 
#    z 0.000000 0.000000 3.669100 
# 
# 
# High freq. dielectric constant tensor:
#      x y z
#    x 1.710350 0.000000 0.000000 
#    y 0.000000 1.710350 0.000000 
#    z 0.000000 0.000000 1.747580 
# 
# From -- ./inp_files/4573.got.cif
#   From: 2010.03.12/outbox.cif.g09.slc.cpg/sg120_3_cif.got.tgz:4573.got - 2010.04.06 16:00:44.
