data_PCOD8311909
_publ_section_title
;
Structure prediction by ZEFSAII (Michael W. Deem and Ramdas Pophale) SiO2 
 PCOD8311909
Probable space group: I -4 2 D
;
_chemical_formula_sum "Si O2"
_cell_formula_units_Z 96
_cell_length_a 22.509672
_cell_length_b 22.509672
_cell_length_c 9.821822
_cell_angle_alpha 90.000000
_cell_angle_beta 90.000000
_cell_angle_gamma 90.000000
_cell_volume 4976.573156
_symmetry_space_group_name_H-M "I -4 2 D"
_symmetry_group_IT_number 122
_symmetry_cell_setting 'tetragonal'
loop_
_space_group_symop_operation_xyz
x,y,z
y,-x,-z
-x,-y,z
-y,x,-z
x,1/2-y,1/4-z
-x,1/2+y,1/4-z
-y,1/2-x,1/4+z
y,1/2+x,1/4+z
1/2+x,1/2+y,1/2+z
1/2+y,1/2-x,1/2-z
1/2-x,1/2-y,1/2+z
1/2-y,1/2+x,1/2-z
1/2+x,-y,3/4-z
1/2-x,y,3/4-z
1/2-y,-x,3/4+z
1/2+y,x,3/4+z
loop_
_atom_site_type_symbol
_atom_site_label
_atom_site_fract_x
_atom_site_fract_y
_atom_site_fract_z
Si Si1 0.637587 0.417335 0.614758
Si Si2 0.057178 0.258875 0.970213
Si Si3 0.918058 0.121083 0.386682
Si Si4 0.253140 0.443549 0.033804
Si Si5 0.442510 0.870948 0.867730
Si Si6 0.386969 0.556394 0.158357
O O1 0.704702 0.398352 0.569768
O O2 0.627514 0.397857 0.769409
O O3 0.588513 0.385471 0.523945
O O4 0.633921 0.487724 0.591270
O O5 0.086524 0.323893 0.952218
O O6 0.004312 0.259669 0.863503
O O7 0.034532 0.250000 0.125000
O O8 0.903590 0.189024 0.431735
O O9 0.906869 0.076382 0.509839
O O10 0.985307 0.114537 0.334830
O O11 0.191209 0.413720 0.079755
O O12 0.250000 0.458239 0.875000
O O13 0.434360 0.921890 0.980503
#
# Coordination Sequence:
#
# PCOD8311909 Si02
#       6
#    16  16  16  16  16  16
#     4  11  24  37  60  91 121 158 198 241 301 356
#     4  10  22  39  61  84 116 162 208 241 284 353
#     4  11  24  37  60  91 121 158 198 241 301 356
#     4  10  22  39  61  84 116 162 208 241 284 353
#     4  11  22  39  61  87 125 157 196 244 297 355
#     4  11  22  39  61  87 125 157 196 244 297 355
#
# _framework density 19.290384
#
# number of rings (size 3 to 8) (size 9 to 14) (size 15 to 20)
#    0.000    1.333    3.333    2.000   14.000    4.000 
#    0.000    0.000    0.000    6.000    0.000    0.000 
#    0.000    0.000    0.000    0.000    0.000    0.000 
#
# Total GULP energy -595104.269379 kJ/mol
# GULP energy per Si atom -12398.005612 kJ/mol
# Density = 1.924648 g / cm^3
# Si number density = 19.290384 Si / 1000 Ang^3
#
#
#
# Elastic Constant Matrix: (Units=GPa)
#
#
# Indices 1 2 3 4 5 6 
#
# 1 69.9480 11.5231 1.0333 0.0000 0.0000 0.0000
# 2 11.5231 69.9480 1.0333 0.0000 0.0000 0.0000
# 3 1.0333 1.0333 75.8441 0.0000 0.0000 0.0000
# 4 0.0000 0.0000 0.0000 31.2993 0.0000 0.0000
# 5 0.0000 0.0000 0.0000 0.0000 31.2993 0.0000
# 6 0.0000 0.0000 0.0000 0.0000 0.0000 3.5752
#
#
#
# Elastic Compliance Matrix: (Units=1/GPa)
#
#
# Indices 1 2 3 4 5 6 
#
# 1 0.014697 -0.002419 -0.000167 0.000000 0.000000 0.000000
# 2 -0.002419 0.014697 -0.000167 0.000000 0.000000 0.000000
# 3 -0.000167 -0.000167 0.013190 0.000000 0.000000 0.000000
# 4 0.000000 0.000000 0.000000 0.031950 0.000000 0.000000
# 5 0.000000 0.000000 0.000000 0.000000 0.031950 0.000000
# 6 0.000000 0.000000 0.000000 0.000000 0.000000 0.279705
#
#
# Mechanical properties :
#
#
# Convention : Reuss Voigt Hill
#
# Bulk Modulus (GPa) = 26.97060 26.99107 26.98083
# Shear Modulus (GPa) = 12.37459 26.71145 19.54302
#
# Velocity S-wave (km/s) = 2.53551 3.72520 3.18637
# Velocity P-wave (km/s) = 4.75221 5.70308 5.24922
#
# Compressibility (1/GPa) = 0.03707742
#
# Stress axis : x y z
#
# Youngs Moduli (GPa) = 68.03991 68.03991 75.81785
#
# Poissons Ratio (x) = 0.16457 0.01268
# Poissons Ratio (y) = 0.16457 0.01268
# Poissons Ratio (z) = 0.01138 0.01138
#
# Static dielectric constant tensor:
#      x y z
#    x 3.862250 0.000000 0.000000 
#    y 0.000000 3.862250 0.000000 
#    z 0.000000 0.000000 3.617990 
# 
# 
# High freq. dielectric constant tensor:
#      x y z
#    x 1.737000 0.000000 0.000000 
#    y 0.000000 1.737000 0.000000 
#    z 0.000000 0.000000 1.774840 
# 
# From -- ./inp_files/2901.got.cif
#   From: 2010.03.12/outbox.cif.g09.slc.cpg/sg122_2_cif.got.tgz:2901.got - 2010.04.06 16:17:16.
