data_PCOD8311379
_publ_section_title
;
Structure prediction by ZEFSAII (Michael W. Deem and Ramdas Pophale) SiO2 
 PCOD8311379
Probable space group: I -4 2 M
;
_chemical_formula_sum "Si O2"
_cell_formula_units_Z 96
_cell_length_a 25.347496
_cell_length_b 25.347496
_cell_length_c 9.999149
_cell_angle_alpha 90.000000
_cell_angle_beta 90.000000
_cell_angle_gamma 90.000000
_cell_volume 6424.408771
_symmetry_space_group_name_H-M "I -4 2 M"
_symmetry_group_IT_number 121
_symmetry_cell_setting 'tetragonal'
loop_
_space_group_symop_operation_xyz
x,y,z
y,-x,-z
-x,-y,z
-y,x,-z
x,-y,-z
-x,y,-z
-y,-x,z
y,x,z
1/2+x,1/2+y,1/2+z
1/2+y,1/2-x,1/2-z
1/2-x,1/2-y,1/2+z
1/2-y,1/2+x,1/2-z
1/2+x,1/2-y,1/2-z
1/2-x,1/2+y,1/2-z
1/2-y,1/2-x,1/2+z
1/2+y,1/2+x,1/2+z
loop_
_atom_site_type_symbol
_atom_site_label
_atom_site_fract_x
_atom_site_fract_y
_atom_site_fract_z
Si Si1 0.833318 0.745019 0.430680
Si Si2 0.102865 0.808759 0.953708
Si Si3 0.058268 0.791217 0.497361
Si Si4 0.730147 0.182574 0.869298
Si Si5 0.931818 0.844250 0.774001
Si Si6 0.453533 0.632019 0.228340
O O1 0.799708 0.799708 0.442953
O O2 0.895771 0.755783 0.438889
O O3 0.821706 0.717239 0.288245
O O4 0.820172 0.703280 0.547865
O O5 0.149391 0.850610 0.963484
O O6 0.126654 0.750400 0.928399
O O7 0.066573 0.822732 0.827992
O O8 0.068878 0.810246 0.089502
O O9 0.074303 0.802803 0.345508
O O10 0.053752 0.846288 0.578429
O O11 0.000000 0.763349 0.500000
O O12 0.775931 0.224070 0.894783
O O13 0.883562 0.883562 0.769502
O O14 0.985379 0.878152 0.761791
O O15 0.422965 0.577036 0.246402
#
# Coordination Sequence:
#
# PCOD8311379 Si02
#       6
#    16  16  16  16  16  16
#     4  10  18  30  46  67  90 113 146 187 225 271
#     4   9  17  30  43  59  83 109 138 179 231 281
#     4  10  20  32  46  62  85 120 154 184 230 276
#     4   9  18  28  45  67  87 111 137 178 233 273
#     4  10  20  29  42  63  82 110 156 201 232 265
#     4  10  18  31  46  57  79 117 155 194 240 272
#
# _framework density 14.943009
#
# number of rings (size 3 to 8) (size 9 to 14) (size 15 to 20)
#    0.000    2.333    1.667    2.000    2.333    0.333 
#    0.000    0.000    0.000    6.000    0.000    0.000 
#    0.000    0.000    0.000    0.000    0.000   12.500 
#
# Total GULP energy -595018.469784 kJ/mol
# GULP energy per Si atom -12396.218121 kJ/mol
# Density = 1.490900 g / cm^3
# Si number density = 14.943009 Si / 1000 Ang^3
#
#
#
# Elastic Constant Matrix: (Units=GPa)
#
#
# Indices 1 2 3 4 5 6 
#
# 1 41.2400 18.3621 22.1902 0.0000 0.0000 0.0000
# 2 18.3621 41.2415 22.1904 0.0000 0.0000 0.0000
# 3 22.1902 22.1904 95.7855 0.0000 0.0000 0.0000
# 4 0.0000 0.0000 0.0000 21.5273 0.0000 0.0000
# 5 0.0000 0.0000 0.0000 0.0000 21.5266 0.0000
# 6 0.0000 0.0000 0.0000 0.0000 0.0000 16.2889
#
#
#
# Elastic Compliance Matrix: (Units=1/GPa)
#
#
# Indices 1 2 3 4 5 6 
#
# 1 0.031993 -0.011717 -0.004697 0.000000 0.000000 0.000000
# 2 -0.011717 0.031991 -0.004697 0.000000 0.000000 0.000000
# 3 -0.004697 -0.004697 0.012616 0.000000 0.000000 0.000000
# 4 0.000000 0.000000 0.000000 0.046453 0.000000 0.000000
# 5 0.000000 0.000000 0.000000 0.000000 0.046454 0.000000
# 6 0.000000 0.000000 0.000000 0.000000 0.000000 0.061392
#
#
# Mechanical properties :
#
#
# Convention : Reuss Voigt Hill
#
# Bulk Modulus (GPa) = 29.08808 33.75026 31.41917
# Shear Modulus (GPa) = 17.56973 19.57016 18.56995
#
# Velocity S-wave (km/s) = 3.43269 3.62284 3.52904
# Velocity P-wave (km/s) = 5.93459 6.33522 6.13817
#
# Compressibility (1/GPa) = 0.03437834
#
# Stress axis : x y z
#
# Youngs Moduli (GPa) = 31.25716 31.25835 79.26247
#
# Poissons Ratio (x) = 0.36625 0.37231
# Poissons Ratio (y) = 0.36624 0.37230
# Poissons Ratio (z) = 0.14682 0.14682
#
# Static dielectric constant tensor:
#      x y z
#    x 2.736130 0.000000 0.000000 
#    y 0.000000 2.736130 0.000000 
#    z 0.000000 0.000000 3.181440 
# 
# 
# High freq. dielectric constant tensor:
#      x y z
#    x 1.534810 0.000000 0.000000 
#    y 0.000000 1.534810 0.000000 
#    z 0.000000 0.000000 1.598470 
# 
# From -- ./inp_files/2073.got.cif
#   From: 2010.03.12/outbox.cif.g09.slc.cpg/sg121_2_cif.got.tgz:2073.got - 2010.04.06 16:06:48.
