data_PCOD8311169
_publ_section_title
;
Structure prediction by ZEFSAII (Michael W. Deem and Ramdas Pophale) SiO2 
 PCOD8311169
Probable space group: I -4 C 2
;
_chemical_formula_sum "Si O2"
_cell_formula_units_Z 128
_cell_length_a 23.513834
_cell_length_b 23.513834
_cell_length_c 12.938331
_cell_angle_alpha 90.000000
_cell_angle_beta 90.000000
_cell_angle_gamma 90.000000
_cell_volume 7153.608248
_symmetry_space_group_name_H-M "I -4 C 2"
_symmetry_group_IT_number 120
_symmetry_cell_setting 'tetragonal'
loop_
_space_group_symop_operation_xyz
x,y,z
y,-x,-z
-x,-y,z
-y,x,-z
y,x,1/2-z
-y,-x,1/2-z
-x,y,1/2+z
x,-y,1/2+z
1/2+x,1/2+y,1/2+z
1/2+y,1/2-x,1/2-z
1/2-x,1/2-y,1/2+z
1/2-y,1/2+x,1/2-z
1/2+y,1/2+x,-z
1/2-y,1/2-x,-z
1/2-x,1/2+y,z
1/2+x,1/2-y,z
loop_
_atom_site_type_symbol
_atom_site_label
_atom_site_fract_x
_atom_site_fract_y
_atom_site_fract_z
Si Si1 0.667979 0.217482 0.178698
Si Si2 0.533300 0.234463 0.864896
Si Si3 0.576116 0.156369 0.049170
Si Si4 0.849529 0.218476 0.329377
Si Si5 0.635729 0.985385 0.773190
Si Si6 0.592320 0.769139 0.879689
Si Si7 0.433203 0.898402 0.392659
Si Si8 0.804742 0.216295 0.969253
O O1 0.632580 0.187808 0.088324
O O2 0.720666 0.175943 0.208257
O O3 0.625638 0.229878 0.271859
O O4 0.693054 0.277202 0.137151
O O5 0.581967 0.280740 0.841446
O O6 0.531481 0.198422 0.760116
O O7 0.469736 0.261021 0.874987
O O8 0.545377 0.196400 0.966048
O O9 0.533829 0.139452 0.140584
O O10 0.596889 0.096889 0.000000
O O11 0.830616 0.169385 0.250000
O O12 0.829876 0.201912 0.442912
O O13 0.609893 0.927354 0.813828
O O14 0.602088 0.007049 0.669638
O O15 0.585529 0.834089 0.918522
O O16 0.628860 0.731099 0.957741
O O17 0.434475 0.934475 0.500000
O O18 0.774699 0.274699 0.000000
#
# Coordination Sequence:
#
# PCOD8311169 Si02
#       8
#    16  16  16  16  16  16  16  16
#     4  11  18  37  58  82 111 146 194 238 292 351
#     4  11  22  36  56  83 116 152 191 230 291 353
#     4  12  20  37  59  77 105 152 201 239 286 353
#     4  11  22  35  57  86 117 154 188 238 292 353
#     4  11  23  38  56  77 106 151 197 244 294 328
#     4  11  22  37  57  87 112 148 188 239 292 351
#     4  11  23  39  53  75 104 142 194 245 285 326
#     4  10  20  35  56  86 117 145 186 237 291 348
#
# _framework density 17.893068
#
# number of rings (size 3 to 8) (size 9 to 14) (size 15 to 20)
#    0.000    1.000    5.000    5.625    0.000    2.250 
#    0.000    0.625    0.000    0.750    0.000    0.000 
#    0.000    6.500    0.000    0.000    0.000    0.000 
#
# Total GULP energy -793307.820326 kJ/mol
# GULP energy per Si atom -12395.434693 kJ/mol
# Density = 1.785234 g / cm^3
# Si number density = 17.893068 Si / 1000 Ang^3
#
#
#
# Elastic Constant Matrix: (Units=GPa)
#
#
# Indices 1 2 3 4 5 6 
#
# 1 99.8273 43.6864 29.2676 0.0000 0.0000 0.0000
# 2 43.6864 99.8282 29.2680 0.0000 0.0000 0.0000
# 3 29.2676 29.2680 81.6371 0.0000 0.0000 0.0000
# 4 0.0000 0.0000 0.0000 25.2987 0.0000 0.0000
# 5 0.0000 0.0000 0.0000 0.0000 25.2984 0.0000
# 6 0.0000 0.0000 0.0000 0.0000 0.0000 26.1472
#
#
#
# Elastic Compliance Matrix: (Units=1/GPa)
#
#
# Indices 1 2 3 4 5 6 
#
# 1 0.012987 -0.004825 -0.002926 0.000000 0.000000 0.000000
# 2 -0.004825 0.012987 -0.002926 0.000000 0.000000 0.000000
# 3 -0.002926 -0.002926 0.014347 0.000000 0.000000 0.000000
# 4 0.000000 0.000000 0.000000 0.039528 0.000000 0.000000
# 5 0.000000 0.000000 0.000000 0.000000 0.039528 0.000000
# 6 0.000000 0.000000 0.000000 0.000000 0.000000 0.038245
#
#
# Mechanical properties :
#
#
# Convention : Reuss Voigt Hill
#
# Bulk Modulus (GPa) = 52.72521 53.97077 53.34799
# Shear Modulus (GPa) = 26.98348 27.28688 27.13518
#
# Velocity S-wave (km/s) = 3.88756 3.90936 3.89848
# Velocity P-wave (km/s) = 7.04852 7.11378 7.08123
#
# Compressibility (1/GPa) = 0.01896626
#
# Stress axis : x y z
#
# Youngs Moduli (GPa) = 77.00115 77.00167 69.69947
#
# Poissons Ratio (x) = 0.37156 0.20393
# Poissons Ratio (y) = 0.37156 0.20394
# Poissons Ratio (z) = 0.22530 0.22530
#
# Static dielectric constant tensor:
#      x y z
#    x 3.357870 0.000000 0.000000 
#    y 0.000000 3.357870 0.000000 
#    z 0.000000 0.000000 3.506080 
# 
# 
# High freq. dielectric constant tensor:
#      x y z
#    x 1.668410 0.000000 0.000000 
#    y 0.000000 1.668410 0.000000 
#    z 0.000000 0.000000 1.712740 
# 
# From -- ./inp_files/2904.got.cif
#   From: 2010.03.12/outbox.cif.g09.slc.cpg/sg120_2_cif.got.tgz:2904.got - 2010.04.06 16:00:44.
