data_PCOD8311018
_publ_section_title
;
Structure prediction by ZEFSAII (Michael W. Deem and Ramdas Pophale) SiO2 
 PCOD8311018
Probable space group: I -4 M 2
;
_chemical_formula_sum "Si O2"
_cell_formula_units_Z 96
_cell_length_a 14.972957
_cell_length_b 14.972957
_cell_length_c 18.779691
_cell_angle_alpha 90.000000
_cell_angle_beta 90.000000
_cell_angle_gamma 90.000000
_cell_volume 4210.208434
_symmetry_space_group_name_H-M "I -4 M 2"
_symmetry_group_IT_number 119
_symmetry_cell_setting 'tetragonal'
loop_
_space_group_symop_operation_xyz
x,y,z
y,-x,-z
-x,-y,z
-y,x,-z
y,x,-z
-y,-x,-z
-x,y,z
x,-y,z
1/2+x,1/2+y,1/2+z
1/2+y,1/2-x,1/2-z
1/2-x,1/2-y,1/2+z
1/2-y,1/2+x,1/2-z
1/2+y,1/2+x,1/2-z
1/2-y,1/2-x,1/2-z
1/2-x,1/2+y,1/2+z
1/2+x,1/2-y,1/2+z
loop_
_atom_site_type_symbol
_atom_site_label
_atom_site_fract_x
_atom_site_fract_y
_atom_site_fract_z
Si Si1 0.624168 0.901243 0.015697
Si Si2 0.683538 0.596601 0.562044
Si Si3 0.278683 0.683764 0.303694
Si Si4 0.598269 0.897630 0.854176
Si Si5 0.600186 0.707869 0.057337
Si Si6 0.600263 0.398176 0.806210
O O1 0.729526 0.907172 0.013548
O O2 0.595680 0.816246 0.063757
O O3 0.586557 0.000000 0.041011
O O4 0.590025 0.878050 0.937547
O O5 0.611003 0.611003 0.500000
O O6 0.664527 0.500000 0.598589
O O7 0.699620 0.672247 0.621431
O O8 0.270226 0.770226 0.250000
O O9 0.175247 0.659446 0.317538
O O10 0.336107 0.608711 0.263267
O O11 0.500000 0.874135 0.821042
O O12 0.622664 0.000000 0.841078
O O13 0.500000 0.671808 0.040370
O O14 0.632965 0.669571 0.133055
O O15 0.671654 0.671654 0.000000
O O16 0.500000 0.388046 0.836314
O O17 0.620062 0.500000 0.783248
#
# Coordination Sequence:
#
# PCOD8311018 Si02
#       6
#    16  16  16  16  16  16
#     4  10  21  40  65  94 130 169 214 273 337 393
#     4  11  23  42  69 100 134 177 233 292 346 406
#     4  12  25  41  65  96 135 181 224 273 342 412
#     4  10  22  40  62  91 126 164 210 263 326 399
#     4  11  23  39  66  98 132 173 223 276 329 397
#     4  10  23  43  65  93 132 178 224 271 330 399
#
# _framework density 22.801722000000002
#
# number of rings (size 3 to 8) (size 9 to 14) (size 15 to 20)
#    0.000    1.333    1.667    3.500    2.333    4.000 
#    0.000    0.833    0.000    0.000    0.000    0.000 
#    0.000   17.333    0.000    0.000    0.000    0.000 
#
# Total GULP energy -594690.795973 kJ/mol
# GULP energy per Si atom -12389.391583 kJ/mol
# Density = 2.274982 g / cm^3
# Si number density = 22.801722 Si / 1000 Ang^3
#
#
#
# Elastic Constant Matrix: (Units=GPa)
#
#
# Indices 1 2 3 4 5 6 
#
# 1 124.2192 22.9934 43.6035 0.0000 0.0000 0.0000
# 2 22.9934 124.2192 43.6034 0.0000 0.0000 0.0000
# 3 43.6035 43.6034 106.3409 0.0000 0.0000 0.0000
# 4 0.0000 0.0000 0.0000 19.0111 0.0000 0.0000
# 5 0.0000 0.0000 0.0000 0.0000 19.0111 0.0000
# 6 0.0000 0.0000 0.0000 0.0000 0.0000 23.6631
#
#
#
# Elastic Compliance Matrix: (Units=1/GPa)
#
#
# Indices 1 2 3 4 5 6 
#
# 1 0.009426 -0.000453 -0.003679 0.000000 0.000000 0.000000
# 2 -0.000453 0.009426 -0.003679 0.000000 0.000000 0.000000
# 3 -0.003679 -0.003679 0.012421 0.000000 0.000000 0.000000
# 4 0.000000 0.000000 0.000000 0.052601 0.000000 0.000000
# 5 0.000000 0.000000 0.000000 0.000000 0.052601 0.000000
# 6 0.000000 0.000000 0.000000 0.000000 0.000000 0.042260
#
#
# Mechanical properties :
#
#
# Convention : Reuss Voigt Hill
#
# Bulk Modulus (GPa) = 63.89994 63.90888 63.90441
# Shear Modulus (GPa) = 25.05357 28.64233 26.84795
#
# Velocity S-wave (km/s) = 3.31835 3.54806 3.43513
# Velocity P-wave (km/s) = 6.53964 6.69880 6.61970
#
# Compressibility (1/GPa) = 0.01564947
#
# Stress axis : x y z
#
# Youngs Moduli (GPa) = 106.09431 106.09431 80.51081
#
# Poissons Ratio (x) = 0.04810 0.29619
# Poissons Ratio (y) = 0.04810 0.29619
# Poissons Ratio (z) = 0.39031 0.39031
#
# Static dielectric constant tensor:
#      x y z
#    x 4.338140 0.000000 0.000000 
#    y 0.000000 4.338140 0.000000 
#    z 0.000000 0.000000 3.942120 
# 
# 
# High freq. dielectric constant tensor:
#      x y z
#    x 1.905990 0.000000 0.000000 
#    y 0.000000 1.905990 0.000000 
#    z 0.000000 0.000000 1.884930 
# 
# From -- ./inp_files/7816.got.cif
#   From: 2010.03.12/outbox.cif.g09.slc.cpg/sg119_4_cif.got.tgz:7816.got - 2010.04.14 02:25:26.
