data_PCOD8311147
_publ_section_title
;
Structure prediction by ZEFSAII (Michael W. Deem and Ramdas Pophale) SiO2 
 PCOD8311147
Probable space group: I -4 C 2
;
_chemical_formula_sum "Si O2"
_cell_formula_units_Z 120
_cell_length_a 28.369123
_cell_length_b 28.369123
_cell_length_c 8.061876
_cell_angle_alpha 90.000000
_cell_angle_beta 90.000000
_cell_angle_gamma 90.000000
_cell_volume 6488.255365
_symmetry_space_group_name_H-M "I -4 C 2"
_symmetry_group_IT_number 120
_symmetry_cell_setting 'tetragonal'
loop_
_space_group_symop_operation_xyz
x,y,z
y,-x,-z
-x,-y,z
-y,x,-z
y,x,1/2-z
-y,-x,1/2-z
-x,y,1/2+z
x,-y,1/2+z
1/2+x,1/2+y,1/2+z
1/2+y,1/2-x,1/2-z
1/2-x,1/2-y,1/2+z
1/2-y,1/2+x,1/2-z
1/2+y,1/2+x,-z
1/2-y,1/2-x,-z
1/2-x,1/2+y,z
1/2+x,1/2-y,z
loop_
_atom_site_type_symbol
_atom_site_label
_atom_site_fract_x
_atom_site_fract_y
_atom_site_fract_z
Si Si1 0.793530 0.545148 0.001838
Si Si2 0.646474 0.359168 0.555770
Si Si3 0.956057 0.812659 0.041839
Si Si4 0.182556 0.363677 0.146988
Si Si5 0.801421 0.231387 0.424614
Si Si6 0.056699 0.806546 0.926725
Si Si7 0.355768 0.144233 0.000000
Si Si8 0.056289 0.301296 0.389298
O O1 0.738230 0.546640 0.044163
O O2 0.802780 0.559448 0.810673
O O3 0.815421 0.579779 0.140835
O O4 0.815890 0.494882 0.044828
O O5 0.648112 0.351889 0.750000
O O6 0.653014 0.415149 0.525944
O O7 0.687917 0.325881 0.475030
O O8 0.597909 0.341201 0.481646
O O9 0.949019 0.809385 0.233936
O O10 0.009753 0.829028 0.009158
O O11 0.231641 0.343164 0.086331
O O12 0.171382 0.341874 0.329286
O O13 0.146005 0.353996 0.000000
O O14 0.786879 0.213122 0.250000
O O15 0.753915 0.253915 0.500000
O O16 0.067961 0.751034 0.965434
O O17 0.342108 0.090193 0.036973
#
# Coordination Sequence:
#
# PCOD8311147 Si02
#       8
#    16  16  16  16  16  16   8  16
#     4  10  19  40  57  83 117 156 195 254 292 346
#     4  11  22  36  55  82 114 150 196 237 292 347
#     4  10  20  38  59  83 113 148 199 242 298 344
#     4  11  22  39  57  81 121 156 204 249 290 347
#     4  10  24  37  52  78 114 162 198 241 286 344
#     4  10  22  36  59  84 112 154 191 246 295 350
#     4  12  24  34  60  88 117 160 198 244 306 356
#     4  10  22  35  59  86 118 152 198 244 302 354
#
# _framework density 18.494955000000001
#
# number of rings (size 3 to 8) (size 9 to 14) (size 15 to 20)
#    0.000    1.600    2.667    2.000    4.667    3.200 
#    0.000    0.000    0.000    0.400    0.000    3.267 
#    0.000    0.000    0.000    0.000    0.000    0.000 
#
# Total GULP energy -743316.599255 kJ/mol
# GULP energy per Si atom -12388.609988 kJ/mol
# Density = 1.845286 g / cm^3
# Si number density = 18.494955 Si / 1000 Ang^3
#
#
#
# Elastic Constant Matrix: (Units=GPa)
#
#
# Indices 1 2 3 4 5 6 
#
# 1 117.0154 67.1943 23.1971 0.0000 0.0000 0.0000
# 2 67.1943 117.0096 23.1971 0.0000 0.0000 0.0000
# 3 23.1971 23.1971 62.8412 0.0000 0.0000 0.0000
# 4 0.0000 0.0000 0.0000 29.4198 0.0000 0.0000
# 5 0.0000 0.0000 0.0000 0.0000 29.4198 0.0000
# 6 0.0000 0.0000 0.0000 0.0000 0.0000 30.5226
#
#
#
# Elastic Compliance Matrix: (Units=1/GPa)
#
#
# Indices 1 2 3 4 5 6 
#
# 1 0.013029 -0.007044 -0.002209 0.000000 0.000000 0.000000
# 2 -0.007044 0.013029 -0.002209 0.000000 0.000000 0.000000
# 3 -0.002209 -0.002209 0.017544 0.000000 0.000000 0.000000
# 4 0.000000 0.000000 0.000000 0.033991 0.000000 0.000000
# 5 0.000000 0.000000 0.000000 0.000000 0.033991 0.000000
# 6 0.000000 0.000000 0.000000 0.000000 0.000000 0.032763
#
#
# Mechanical properties :
#
#
# Convention : Reuss Voigt Hill
#
# Bulk Modulus (GPa) = 48.36264 58.22704 53.29484
# Shear Modulus (GPa) = 28.70858 30.09095 29.39976
#
# Velocity S-wave (km/s) = 3.94412 4.03796 3.99132
# Velocity P-wave (km/s) = 6.85181 7.30008 7.07949
#
# Compressibility (1/GPa) = 0.02067712
#
# Stress axis : x y z
#
# Youngs Moduli (GPa) = 76.75357 76.74948 56.99881
#
# Poissons Ratio (x) = 0.54062 0.12592
# Poissons Ratio (y) = 0.54065 0.12594
# Poissons Ratio (z) = 0.16957 0.16957
#
# Static dielectric constant tensor:
#      x y z
#    x 3.503500 0.000000 0.000000 
#    y 0.000000 3.503540 0.000000 
#    z 0.000000 0.000000 3.496700 
# 
# 
# High freq. dielectric constant tensor:
#      x y z
#    x 1.704420 0.000000 0.000000 
#    y 0.000000 1.704420 0.000000 
#    z 0.000000 0.000000 1.729610 
# 
# From -- ./inp_files/1723.got.cif
#   From: 2010.03.12/outbox.cif.g09.slc.cpg/sg120_1_cif.got.tgz:1723.got - 2010.04.06 16:00:44.
