data_PCOD8311375
_publ_section_title
;
Structure prediction by ZEFSAII (Michael W. Deem and Ramdas Pophale) SiO2 
 PCOD8311375
Probable space group: I -4 2 M
;
_chemical_formula_sum "Si O2"
_cell_formula_units_Z 80
_cell_length_a 16.093765
_cell_length_b 16.093765
_cell_length_c 18.379863
_cell_angle_alpha 90.000000
_cell_angle_beta 90.000000
_cell_angle_gamma 90.000000
_cell_volume 4760.554933
_symmetry_space_group_name_H-M "I -4 2 M"
_symmetry_group_IT_number 121
_symmetry_cell_setting 'tetragonal'
loop_
_space_group_symop_operation_xyz
x,y,z
y,-x,-z
-x,-y,z
-y,x,-z
x,-y,-z
-x,y,-z
-y,-x,z
y,x,z
1/2+x,1/2+y,1/2+z
1/2+y,1/2-x,1/2-z
1/2-x,1/2-y,1/2+z
1/2-y,1/2+x,1/2-z
1/2+x,1/2-y,1/2-z
1/2-x,1/2+y,1/2-z
1/2-y,1/2-x,1/2+z
1/2+y,1/2+x,1/2+z
loop_
_atom_site_type_symbol
_atom_site_label
_atom_site_fract_x
_atom_site_fract_y
_atom_site_fract_z
Si Si1 0.264833 0.403638 0.375208
Si Si2 0.641918 0.780410 0.817421
Si Si3 0.085447 0.224685 0.167786
Si Si4 0.788502 0.650271 0.522694
Si Si5 0.588142 0.726873 0.967346
O O1 0.341279 0.341279 0.369116
O O2 0.184483 0.370248 0.330323
O O3 0.298885 0.489507 0.342353
O O4 0.234298 0.415438 0.458927
O O5 0.716120 0.716120 0.815211
O O6 0.593555 0.778159 0.741260
O O7 0.580102 0.754031 0.882721
O O8 0.140690 0.140690 0.168502
O O9 0.109972 0.285612 0.101962
O O10 0.723151 0.723151 0.513946
O O11 0.878194 0.692627 0.511242
O O12 0.647522 0.647522 0.976325
O O13 0.500000 0.701134 0.000000
#
# Coordination Sequence:
#
# PCOD8311375 Si02
#       5
#    16  16  16  16  16
#     4   9  17  31  49  67  93 125 152 184 229 275
#     4   8  17  32  46  64  93 128 156 181 222 274
#     4  10  18  29  49  74  95 116 150 192 229 271
#     4   8  16  30  47  67  91 125 159 180 214 279
#     4   9  17  31  50  69  91 120 156 195 231 269
#
# _framework density 16.804763000000001
#
# number of rings (size 3 to 8) (size 9 to 14) (size 15 to 20)
#    0.000    3.200    0.000    3.000    0.000    2.200 
#    0.000    3.000    0.000   22.200    0.000    0.000 
#    0.000    0.000    0.000    0.000    0.000    0.000 
#
# Total GULP energy -495697.947722 kJ/mol
# GULP energy per Si atom -12392.448693 kJ/mol
# Density = 1.676651 g / cm^3
# Si number density = 16.804763 Si / 1000 Ang^3
#
#
#
# Elastic Constant Matrix: (Units=GPa)
#
#
# Indices 1 2 3 4 5 6 
#
# 1 67.8878 44.5994 53.9538 0.0000 0.0000 0.0000
# 2 44.5994 67.8878 53.9538 0.0000 0.0000 0.0000
# 3 53.9538 53.9538 144.1639 0.0000 0.0000 0.0000
# 4 0.0000 0.0000 0.0000 22.5909 0.0000 0.0000
# 5 0.0000 0.0000 0.0000 0.0000 22.5909 0.0000
# 6 0.0000 0.0000 0.0000 0.0000 0.0000 12.3940
#
#
#
# Elastic Compliance Matrix: (Units=1/GPa)
#
#
# Indices 1 2 3 4 5 6 
#
# 1 0.028405 -0.014535 -0.005191 0.000000 0.000000 0.000000
# 2 -0.014535 0.028405 -0.005191 0.000000 0.000000 0.000000
# 3 -0.005191 -0.005191 0.010822 0.000000 0.000000 0.000000
# 4 0.000000 0.000000 0.000000 0.044266 0.000000 0.000000
# 5 0.000000 0.000000 0.000000 0.000000 0.044266 0.000000
# 6 0.000000 0.000000 0.000000 0.000000 0.000000 0.080685
#
#
# Mechanical properties :
#
#
# Convention : Reuss Voigt Hill
#
# Bulk Modulus (GPa) = 56.18691 64.99483 60.59087
# Shear Modulus (GPa) = 17.08747 20.01066 18.54906
#
# Velocity S-wave (km/s) = 3.19223 3.45450 3.32595
# Velocity P-wave (km/s) = 6.86256 7.39404 7.13325
#
# Compressibility (1/GPa) = 0.01779774
#
# Stress axis : x y z
#
# Youngs Moduli (GPa) = 35.20564 35.20564 92.40670
#
# Poissons Ratio (x) = 0.51173 0.47964
# Poissons Ratio (y) = 0.51173 0.47964
# Poissons Ratio (z) = 0.18274 0.18274
#
# Static dielectric constant tensor:
#      x y z
#    x 2.975640 0.000000 0.000000 
#    y 0.000000 2.975640 0.000000 
#    z 0.000000 0.000000 3.685710 
# 
# 
# High freq. dielectric constant tensor:
#      x y z
#    x 1.625870 0.000000 0.000000 
#    y 0.000000 1.625870 0.000000 
#    z 0.000000 0.000000 1.658400 
# 
# From -- ./inp_files/4248.got.cif
#   From: 2010.03.12/outbox.cif.g09.slc.cpg/sg121_3_cif.got.tgz:4248.got - 2010.04.06 16:06:48.
