data_PCOD8311290
_publ_section_title
;
Structure prediction by ZEFSAII (Michael W. Deem and Ramdas Pophale) SiO2 
 PCOD8311290
Probable space group: I -4 C 2
;
_chemical_formula_sum "Si O2"
_cell_formula_units_Z 100
_cell_length_a 14.783214
_cell_length_b 14.783214
_cell_length_c 23.250853
_cell_angle_alpha 90.000000
_cell_angle_beta 90.000000
_cell_angle_gamma 90.000000
_cell_volume 5081.320843
_symmetry_space_group_name_H-M "I -4 C 2"
_symmetry_group_IT_number 120
_symmetry_cell_setting 'tetragonal'
loop_
_space_group_symop_operation_xyz
x,y,z
y,-x,-z
-x,-y,z
-y,x,-z
y,x,1/2-z
-y,-x,1/2-z
-x,y,1/2+z
x,-y,1/2+z
1/2+x,1/2+y,1/2+z
1/2+y,1/2-x,1/2-z
1/2-x,1/2-y,1/2+z
1/2-y,1/2+x,1/2-z
1/2+y,1/2+x,-z
1/2-y,1/2-x,-z
1/2-x,1/2+y,z
1/2+x,1/2-y,z
loop_
_atom_site_type_symbol
_atom_site_label
_atom_site_fract_x
_atom_site_fract_y
_atom_site_fract_z
Si Si1 0.165096 0.256115 0.798954
Si Si2 0.309981 0.521809 0.220217
Si Si3 0.635824 0.443299 0.999554
Si Si4 0.761094 0.119403 0.388597
Si Si5 0.421611 0.744846 0.159242
Si Si6 0.500000 0.500000 0.750000
Si Si7 0.375930 0.723721 0.392455
O O1 0.242455 0.242455 0.750000
O O2 0.175190 0.175390 0.845367
O O3 0.169436 0.356856 0.826301
O O4 0.068256 0.248319 0.769274
O O5 0.311575 0.573909 0.281203
O O6 0.414374 0.497549 0.206770
O O7 0.263203 0.572458 0.167528
O O8 0.682463 0.395740 0.945920
O O9 0.546122 0.387247 0.015275
O O10 0.704150 0.441477 0.053943
O O11 0.674672 0.181422 0.403427
O O12 0.729339 0.021130 0.363908
O O13 0.364082 0.688684 0.112651
#
# Coordination Sequence:
#
# PCOD8311290 Si02
#       7
#    16  16  16  16  16   4  16
#     4  11  22  37  61  92 129 168 212 260 315 380
#     4  12  22  36  60  95 125 164 206 258 321 384
#     4  11  23  39  63  95 125 157 207 271 329 383
#     4  11  22  41  61  88 125 172 207 254 321 379
#     4  11  21  39  60  88 125 167 208 254 313 382
#     4  12  20  32  60  96 130 160 200 264 338 372
#     4  11  23  39  63  89 129 165 210 258 315 386
#
# _framework density 19.679922999999999
#
# number of rings (size 3 to 8) (size 9 to 14) (size 15 to 20)
#    0.000    0.800    5.600    3.360    0.000    1.280 
#    0.000    0.800    0.000    0.000    0.000    2.240 
#    0.000    0.000    0.000    0.000    0.000    0.000 
#
# Total GULP energy -619749.403739 kJ/mol
# GULP energy per Si atom -12394.988075 kJ/mol
# Density = 1.963513 g / cm^3
# Si number density = 19.679923 Si / 1000 Ang^3
#
#
#
# Elastic Constant Matrix: (Units=GPa)
#
#
# Indices 1 2 3 4 5 6 
#
# 1 110.9634 41.3691 28.1012 0.0000 0.0000 0.0000
# 2 41.3691 110.9634 28.1012 0.0000 0.0000 0.0000
# 3 28.1012 28.1012 97.5248 0.0000 0.0000 0.0000
# 4 0.0000 0.0000 0.0000 33.1397 0.0000 0.0000
# 5 0.0000 0.0000 0.0000 0.0000 33.1397 0.0000
# 6 0.0000 0.0000 0.0000 0.0000 0.0000 27.9089
#
#
#
# Elastic Compliance Matrix: (Units=1/GPa)
#
#
# Indices 1 2 3 4 5 6 
#
# 1 0.010857 -0.003512 -0.002117 0.000000 0.000000 0.000000
# 2 -0.003512 0.010857 -0.002117 0.000000 0.000000 0.000000
# 3 -0.002117 -0.002117 0.011474 0.000000 0.000000 0.000000
# 4 0.000000 0.000000 0.000000 0.030175 0.000000 0.000000
# 5 0.000000 0.000000 0.000000 0.000000 0.030175 0.000000
# 6 0.000000 0.000000 0.000000 0.000000 0.000000 0.035831
#
#
# Mechanical properties :
#
#
# Convention : Reuss Voigt Hill
#
# Bulk Modulus (GPa) = 56.50267 57.17719 56.83993
# Shear Modulus (GPa) = 33.16556 33.62963 33.39760
#
# Velocity S-wave (km/s) = 4.10963 4.13828 4.12398
# Velocity P-wave (km/s) = 7.16184 7.20767 7.18479
#
# Compressibility (1/GPa) = 0.01769828
#
# Stress axis : x y z
#
# Youngs Moduli (GPa) = 92.10440 92.10440 87.15699
#
# Poissons Ratio (x) = 0.32345 0.18447
# Poissons Ratio (y) = 0.32345 0.18447
# Poissons Ratio (z) = 0.19494 0.19494
#
# Static dielectric constant tensor:
#      x y z
#    x 3.541980 0.000000 0.000000 
#    y 0.000000 3.541980 0.000000 
#    z 0.000000 0.000000 3.529380 
# 
# 
# High freq. dielectric constant tensor:
#      x y z
#    x 1.757820 0.000000 0.000000 
#    y 0.000000 1.757820 0.000000 
#    z 0.000000 0.000000 1.769610 
# 
# From -- ./inp_files/5855.got.cif
#   From: 2010.03.12/outbox.cif.g09.slc.cpg/sg120_3_cif.got.tgz:5855.got - 2010.04.06 16:00:44.
