data_PCOD8311740
_publ_section_title
;
Structure prediction by ZEFSAII (Michael W. Deem and Ramdas Pophale) SiO2 
 PCOD8311740
Probable space group: I -4 2 D
;
_chemical_formula_sum "Si O2"
_cell_formula_units_Z 120
_cell_length_a 14.459854
_cell_length_b 14.459854
_cell_length_c 29.500612
_cell_angle_alpha 90.000000
_cell_angle_beta 90.000000
_cell_angle_gamma 90.000000
_cell_volume 6168.205604
_symmetry_space_group_name_H-M "I -4 2 D"
_symmetry_group_IT_number 122
_symmetry_cell_setting 'tetragonal'
loop_
_space_group_symop_operation_xyz
x,y,z
y,-x,-z
-x,-y,z
-y,x,-z
x,1/2-y,1/4-z
-x,1/2+y,1/4-z
-y,1/2-x,1/4+z
y,1/2+x,1/4+z
1/2+x,1/2+y,1/2+z
1/2+y,1/2-x,1/2-z
1/2-x,1/2-y,1/2+z
1/2-y,1/2+x,1/2-z
1/2+x,-y,3/4-z
1/2-x,y,3/4-z
1/2-y,-x,3/4+z
1/2+y,x,3/4+z
loop_
_atom_site_type_symbol
_atom_site_label
_atom_site_fract_x
_atom_site_fract_y
_atom_site_fract_z
Si Si1 0.684009 0.624642 0.783978
Si Si2 0.023606 0.308784 0.905729
Si Si3 0.000000 0.000000 0.133446
Si Si4 0.175659 0.218304 0.412149
Si Si5 0.637634 0.585954 0.304767
Si Si6 0.698033 0.377385 0.308988
Si Si7 0.615428 0.147714 0.846867
Si Si8 0.556040 0.914044 0.038549
O O1 0.606811 0.688614 0.808165
O O2 0.789647 0.655029 0.795514
O O3 0.668646 0.639348 0.730798
O O4 0.668774 0.516666 0.798491
O O5 0.967661 0.215889 0.915115
O O6 0.950071 0.392614 0.915340
O O7 0.071901 0.309562 0.855474
O O8 0.078173 0.957876 0.166946
O O9 0.955825 0.924607 0.100213
O O10 0.250000 0.190149 0.375000
O O11 0.189444 0.326309 0.423710
O O12 0.692231 0.489367 0.310027
O O13 0.625285 0.613336 0.251830
O O14 0.658455 0.329607 0.354121
O O15 0.806923 0.350776 0.307395
O O16 0.500000 0.000000 0.017429
#
# Coordination Sequence:
#
# PCOD8311740 Si02
#       8
#    16  16   8  16  16  16  16  16
#     4  10  21  38  59  85 115 156 209 258 299 371
#     4  10  20  37  58  85 115 152 197 253 308 360
#     4  10  18  32  54  81 116 158 204 228 289 374
#     4  10  23  35  56  88 122 149 201 258 304 357
#     4  11  18  33  58  85 109 165 197 241 291 372
#     4  10  21  34  54  85 124 158 201 250 288 372
#     4  10  21  33  53  83 125 156 196 248 306 355
#     4  10  18  35  61  82 107 150 207 245 298 366
#
# _framework density 19.454604
#
# number of rings (size 3 to 8) (size 9 to 14) (size 15 to 20)
#    0.000    1.867    4.667    0.800    5.600    0.000 
#    0.000    0.000   20.533    0.000    0.000    0.000 
#    0.000    0.000    0.000    0.000    0.000    0.000 
#
# Total GULP energy -743318.952785 kJ/mol
# GULP energy per Si atom -12388.649213 kJ/mol
# Density = 1.941032 g / cm^3
# Si number density = 19.454604 Si / 1000 Ang^3
#
#
#
# Elastic Constant Matrix: (Units=GPa)
#
#
# Indices 1 2 3 4 5 6 
#
# 1 78.4871 30.5301 29.6922 0.0000 0.0000 0.0000
# 2 30.5301 78.4871 29.6922 0.0000 0.0000 0.0000
# 3 29.6922 29.6922 60.2522 0.0000 0.0000 0.0000
# 4 0.0000 0.0000 0.0000 22.4728 0.0000 0.0000
# 5 0.0000 0.0000 0.0000 0.0000 22.4728 0.0000
# 6 0.0000 0.0000 0.0000 0.0000 0.0000 38.1484
#
#
#
# Elastic Compliance Matrix: (Units=1/GPa)
#
#
# Indices 1 2 3 4 5 6 
#
# 1 0.016695 -0.004157 -0.006179 0.000000 0.000000 0.000000
# 2 -0.004157 0.016695 -0.006179 0.000000 0.000000 0.000000
# 3 -0.006179 -0.006179 0.022687 0.000000 0.000000 0.000000
# 4 0.000000 0.000000 0.000000 0.044498 0.000000 0.000000
# 5 0.000000 0.000000 0.000000 0.000000 0.044498 0.000000
# 6 0.000000 0.000000 0.000000 0.000000 0.000000 0.026213
#
#
# Mechanical properties :
#
#
# Convention : Reuss Voigt Hill
#
# Bulk Modulus (GPa) = 43.38739 44.11730 43.75234
# Shear Modulus (GPa) = 23.58491 25.10627 24.34559
#
# Velocity S-wave (km/s) = 3.48559 3.59626 3.54136
# Velocity P-wave (km/s) = 6.20882 6.32221 6.26577
#
# Compressibility (1/GPa) = 0.02304817
#
# Stress axis : x y z
#
# Youngs Moduli (GPa) = 59.89677 59.89677 44.07809
#
# Poissons Ratio (x) = 0.24897 0.27236
# Poissons Ratio (y) = 0.24897 0.27236
# Poissons Ratio (z) = 0.37011 0.37011
#
# Static dielectric constant tensor:
#      x y z
#    x 3.576060 0.000000 0.000000 
#    y 0.000000 3.576060 0.000000 
#    z 0.000000 0.000000 3.552600 
# 
# 
# High freq. dielectric constant tensor:
#      x y z
#    x 1.742570 0.000000 0.000000 
#    y 0.000000 1.742570 0.000000 
#    z 0.000000 0.000000 1.739910 
# 
# From -- ./inp_files/9747.got.cif
#   From: 2010.03.12/outbox.cif.g09.slc.cpg/sg122_5_cif.got.tgz:9747.got - 2010.04.06 16:17:16.
