data_PCOD8311444
_publ_section_title
;
Structure prediction by ZEFSAII (Michael W. Deem and Ramdas Pophale) SiO2 
 PCOD8311444
Probable space group: I -4 2 M
;
_chemical_formula_sum "Si O2"
_cell_formula_units_Z 80
_cell_length_a 11.781750
_cell_length_b 11.781750
_cell_length_c 30.415713
_cell_angle_alpha 90.000000
_cell_angle_beta 90.000000
_cell_angle_gamma 90.000000
_cell_volume 4221.993961
_symmetry_space_group_name_H-M "I -4 2 M"
_symmetry_group_IT_number 121
_symmetry_cell_setting 'tetragonal'
loop_
_space_group_symop_operation_xyz
x,y,z
y,-x,-z
-x,-y,z
-y,x,-z
x,-y,-z
-x,y,-z
-y,-x,z
y,x,z
1/2+x,1/2+y,1/2+z
1/2+y,1/2-x,1/2-z
1/2-x,1/2-y,1/2+z
1/2-y,1/2+x,1/2-z
1/2+x,1/2-y,1/2-z
1/2-x,1/2+y,1/2-z
1/2-y,1/2-x,1/2+z
1/2+y,1/2+x,1/2+z
loop_
_atom_site_type_symbol
_atom_site_label
_atom_site_fract_x
_atom_site_fract_y
_atom_site_fract_z
Si Si1 0.631992 0.990536 0.566297
Si Si2 0.180780 0.005216 0.821030
Si Si3 0.184199 0.366402 0.494314
Si Si4 0.053475 0.670944 0.257723
Si Si5 0.832273 0.349410 0.851943
O O1 0.678512 0.889661 0.535495
O O2 0.662713 0.959147 0.616453
O O3 0.500000 0.000000 0.558503
O O4 0.672916 0.114822 0.549870
O O5 0.101344 0.898657 0.810281
O O6 0.222145 0.054302 0.774524
O O7 0.286072 0.956701 0.850283
O O8 0.106633 0.106633 0.844281
O O9 0.208651 0.500000 0.500000
O O10 0.305287 0.305287 0.493675
O O11 0.926121 0.627487 0.266005
O O12 0.107903 0.704381 0.304084
O O13 0.737965 0.262036 0.869515
#
# Coordination Sequence:
#
# PCOD8311444 Si02
#       5
#    16  16  16  16  16
#     4   9  19  33  56  78 106 143 178 217 259 321
#     4   9  18  32  48  69 102 140 177 224 281 330
#     4   9  18  36  58  83 110 141 175 213 269 326
#     4   9  18  30  49  71  99 141 186 227 269 326
#     4  10  19  31  52  77 102 137 180 228 275 321
#
# _framework density 18.948392999999999
#
# number of rings (size 3 to 8) (size 9 to 14) (size 15 to 20)
#    0.000    2.800    0.000    2.400    5.600    1.000 
#    0.000    5.000    0.000   16.200    0.000    0.000 
#    0.000    0.000    0.000    0.000    0.000    0.000 
#
# Total GULP energy -495572.049351 kJ/mol
# GULP energy per Si atom -12389.301234 kJ/mol
# Density = 1.890527 g / cm^3
# Si number density = 18.948393 Si / 1000 Ang^3
#
#
#
# Elastic Constant Matrix: (Units=GPa)
#
#
# Indices 1 2 3 4 5 6 
#
# 1 76.0714 38.8766 31.6579 0.0000 0.0000 0.0000
# 2 38.8766 76.0722 31.6574 0.0000 0.0000 0.0000
# 3 31.6579 31.6574 76.2203 0.0000 0.0000 0.0000
# 4 0.0000 0.0000 0.0000 21.5974 0.0000 0.0000
# 5 0.0000 0.0000 0.0000 0.0000 21.5976 0.0000
# 6 0.0000 0.0000 0.0000 0.0000 0.0000 24.6599
#
#
#
# Elastic Compliance Matrix: (Units=1/GPa)
#
#
# Indices 1 2 3 4 5 6 
#
# 1 0.019083 -0.007802 -0.004685 0.000000 0.000000 0.000000
# 2 -0.007802 0.019082 -0.004685 0.000000 0.000000 0.000000
# 3 -0.004685 -0.004685 0.017012 0.000000 0.000000 0.000000
# 4 0.000000 0.000000 0.000000 0.046302 0.000000 0.000000
# 5 0.000000 0.000000 0.000000 0.000000 0.046301 0.000000
# 6 0.000000 0.000000 0.000000 0.000000 0.000000 0.040552
#
#
# Mechanical properties :
#
#
# Convention : Reuss Voigt Hill
#
# Bulk Modulus (GPa) = 48.00415 48.08307 48.04361
# Shear Modulus (GPa) = 21.77495 21.98245 21.87870
#
# Velocity S-wave (km/s) = 3.39362 3.40975 3.40170
# Velocity P-wave (km/s) = 6.38316 6.39787 6.39052
#
# Compressibility (1/GPa) = 0.02083153
#
# Stress axis : x y z
#
# Youngs Moduli (GPa) = 52.40303 52.40404 58.78284
#
# Poissons Ratio (x) = 0.40888 0.27542
# Poissons Ratio (y) = 0.40887 0.27540
# Poissons Ratio (z) = 0.24553 0.24551
#
# Static dielectric constant tensor:
#      x y z
#    x 3.453910 0.000000 0.000000 
#    y 0.000000 3.453910 0.000000 
#    z 0.000000 0.000000 3.319190 
# 
# 
# High freq. dielectric constant tensor:
#      x y z
#    x 1.727040 0.000000 0.000000 
#    y 0.000000 1.727040 0.000000 
#    z 0.000000 0.000000 1.717300 
# 
# From -- ./inp_files/8043.got.cif
#   From: 2010.03.12/outbox.cif.g09.slc.cpg/sg121_5_cif.got.tgz:8043.got - 2010.04.06 16:06:48.
