data_PCOD8311369
_publ_section_title
;
Structure prediction by ZEFSAII (Michael W. Deem and Ramdas Pophale) SiO2 
 PCOD8311369
Probable space group: I -4 2 M
;
_chemical_formula_sum "Si O2"
_cell_formula_units_Z 128
_cell_length_a 20.298164
_cell_length_b 20.298164
_cell_length_c 18.357935
_cell_angle_alpha 90.000000
_cell_angle_beta 90.000000
_cell_angle_gamma 90.000000
_cell_volume 7563.753066
_symmetry_space_group_name_H-M "I -4 2 M"
_symmetry_group_IT_number 121
_symmetry_cell_setting 'tetragonal'
loop_
_space_group_symop_operation_xyz
x,y,z
y,-x,-z
-x,-y,z
-y,x,-z
x,-y,-z
-x,y,-z
-y,-x,z
y,x,z
1/2+x,1/2+y,1/2+z
1/2+y,1/2-x,1/2-z
1/2-x,1/2-y,1/2+z
1/2-y,1/2+x,1/2-z
1/2+x,1/2-y,1/2-z
1/2-x,1/2+y,1/2-z
1/2-y,1/2-x,1/2+z
1/2+y,1/2+x,1/2+z
loop_
_atom_site_type_symbol
_atom_site_label
_atom_site_fract_x
_atom_site_fract_y
_atom_site_fract_z
Si Si1 0.876883 0.769960 0.670766
Si Si2 0.941169 0.165703 0.055969
Si Si3 0.749734 0.355671 0.095495
Si Si4 0.833985 0.276981 0.855120
Si Si5 0.676583 0.571215 0.031570
Si Si6 0.150965 0.044976 0.776978
Si Si7 0.593287 0.296563 0.237727
Si Si8 0.341858 0.230986 0.480696
O O1 0.816777 0.816777 0.647828
O O2 0.846147 0.696456 0.675256
O O3 0.931274 0.781120 0.606899
O O4 0.907736 0.789855 0.748819
O O5 0.889759 0.110242 0.031282
O O6 0.966390 0.154141 0.137152
O O7 0.906855 0.236755 0.053239
O O8 0.000000 0.161476 0.000000
O O9 0.707806 0.292195 0.119333
O O10 0.749096 0.404938 0.164818
O O11 0.822600 0.330989 0.071028
O O12 0.719736 0.389301 0.025309
O O13 0.780326 0.219675 0.852525
O O14 0.896048 0.253161 0.805988
O O15 0.858806 0.290795 0.936892
O O16 0.606188 0.606188 0.044288
O O17 0.661265 0.500000 0.000000
O O18 0.080712 0.080712 0.756591
O O19 0.161382 0.974128 0.740401
O O20 0.650016 0.349985 0.234467
O O21 0.280659 0.280659 0.482929
#
# Coordination Sequence:
#
# PCOD8311369 Si02
#       8
#    16  16  16  16  16  16  16  16
#     4   9  17  30  46  66  92 127 163 199 252 301
#     4  10  21  34  50  71  99 137 176 212 251 299
#     4   9  17  29  45  68  93 122 162 210 258 295
#     4   9  16  28  48  69  90 120 161 209 258 304
#     4  10  18  29  45  65  95 132 165 196 232 283
#     4  10  21  34  47  68 101 138 169 202 246 299
#     4  10  20  31  47  70  96 131 173 212 248 296
#     4   9  16  29  48  69  92 121 160 209 263 305
#
# _framework density 16.922816000000001
#
# number of rings (size 3 to 8) (size 9 to 14) (size 15 to 20)
#    0.000    2.500    1.250    1.500    1.750    2.000 
#    0.000    1.250    0.000    4.500    0.000    0.000 
#    0.000    1.000    1.000    0.000    0.000    0.000 
#
# Total GULP energy -793082.699324 kJ/mol
# GULP energy per Si atom -12391.917177 kJ/mol
# Density = 1.688430 g / cm^3
# Si number density = 16.922816 Si / 1000 Ang^3
#
#
#
# Elastic Constant Matrix: (Units=GPa)
#
#
# Indices 1 2 3 4 5 6 
#
# 1 48.9707 49.4043 33.2511 0.0000 0.0000 0.0000
# 2 49.4043 48.9704 33.2514 0.0000 0.0000 0.0000
# 3 33.2511 33.2514 97.2449 0.0000 0.0000 0.0000
# 4 0.0000 0.0000 0.0000 22.5272 0.0000 0.0000
# 5 0.0000 0.0000 0.0000 0.0000 22.5273 0.0000
# 6 0.0000 0.0000 0.0000 0.0000 0.0000 17.3664
#
#
#
# Elastic Compliance Matrix: (Units=1/GPa)
#
#
# Indices 1 2 3 4 5 6 
#
# 1 -1.146047 1.159278 -0.004528 0.000000 0.000000 0.000000
# 2 1.159278 -1.146066 -0.004513 0.000000 0.000000 0.000000
# 3 -0.004528 -0.004513 0.013375 0.000000 0.000000 0.000000
# 4 0.000000 0.000000 0.000000 0.044391 0.000000 0.000000
# 5 0.000000 0.000000 0.000000 0.000000 0.044391 0.000000
# 6 0.000000 0.000000 0.000000 0.000000 0.000000 0.057582
#
#
# Mechanical properties :
#
#
# Convention : Reuss Voigt Hill
#
# Bulk Modulus (GPa) = 46.01012 47.44440 46.72726
# Shear Modulus (GPa) = -1.12979 17.76946 8.31983
#
# Velocity S-wave (km/s) = -0.81796 3.24393 2.21969
# Velocity P-wave (km/s) = 5.13373 6.49056 5.85161
#
# Compressibility (1/GPa) = 0.02173435
#
# Stress axis : x y z
#
# Youngs Moduli (GPa) = -0.87256 -0.87255 74.76665
#
# Poissons Ratio (x) = 1.01153 0.33856
# Poissons Ratio (y) = 1.01154 0.33745
# Poissons Ratio (z) = -0.00395 -0.00394
#
# Static dielectric constant tensor:
#      x y z
#    x 3.036060 0.000000 0.000000 
#    y 0.000000 3.036060 0.000000 
#    z 0.000000 0.000000 3.391720 
# 
# 
# High freq. dielectric constant tensor:
#      x y z
#    x 1.617100 0.000000 0.000000 
#    y 0.000000 1.617100 0.000000 
#    z 0.000000 0.000000 1.671560 
# 
# From -- ./inp_files/5656.got.cif
#   From: 2010.03.12/outbox.cif.g09.slc.cpg/sg121_3_cif.got.tgz:5656.got - 2010.04.06 16:06:48.
