data_PCOD8311008
_publ_section_title
;
Structure prediction by ZEFSAII (Michael W. Deem and Ramdas Pophale) SiO2 
 PCOD8311008
Probable space group: I -4 M 2
;
_chemical_formula_sum "Si O2"
_cell_formula_units_Z 72
_cell_length_a 14.324940
_cell_length_b 14.324940
_cell_length_c 16.804111
_cell_angle_alpha 90.000000
_cell_angle_beta 90.000000
_cell_angle_gamma 90.000000
_cell_volume 3448.269214
_symmetry_space_group_name_H-M "I -4 M 2"
_symmetry_group_IT_number 119
_symmetry_cell_setting 'tetragonal'
loop_
_space_group_symop_operation_xyz
x,y,z
y,-x,-z
-x,-y,z
-y,x,-z
y,x,-z
-y,-x,-z
-x,y,z
x,-y,z
1/2+x,1/2+y,1/2+z
1/2+y,1/2-x,1/2-z
1/2-x,1/2-y,1/2+z
1/2-y,1/2+x,1/2-z
1/2+y,1/2+x,1/2-z
1/2-y,1/2-x,1/2-z
1/2-x,1/2+y,1/2+z
1/2+x,1/2-y,1/2+z
loop_
_atom_site_type_symbol
_atom_site_label
_atom_site_fract_x
_atom_site_fract_y
_atom_site_fract_z
Si Si1 0.392832 0.104664 0.415173
Si Si2 0.258980 0.607471 0.041998
Si Si3 0.107546 0.107546 0.000000
Si Si4 0.610553 0.751319 0.777164
Si Si5 0.608703 0.708367 0.338863
O O1 0.500000 0.112138 0.441472
O O2 0.336813 0.128519 0.495470
O O3 0.371993 0.179858 0.345354
O O4 0.368726 0.000000 0.383099
O O5 0.283440 0.500000 0.041817
O O6 0.254047 0.643374 0.131865
O O7 0.344985 0.655016 0.000000
O O8 0.140153 0.165949 0.923588
O O9 0.000000 0.126522 0.020123
O O10 0.500000 0.744601 0.764138
O O11 0.647343 0.852658 0.750000
O O12 0.662849 0.668005 0.731380
O O13 0.500000 0.686457 0.321653
#
# Coordination Sequence:
#
# PCOD8311008 Si02
#       5
#    16  16   8  16  16
#     4   9  19  37  63  94 124 158 203 251 305 373
#     4  10  22  40  61  86 117 157 203 248 295 356
#     4   9  18  32  54  88 124 158 197 246 312 380
#     4  11  25  41  60  90 126 163 207 256 309 372
#     4  10  21  38  64  94 124 160 202 259 323 376
#
# _framework density 20.880040999999999
#
# number of rings (size 3 to 8) (size 9 to 14) (size 15 to 20)
#    0.000    2.111    0.000    2.000    4.667    3.556 
#    0.000    5.556    0.000    1.333    0.000    6.222 
#    0.000    0.000    0.000    0.000    0.000    0.000 
#
# Total GULP energy -446402.640104 kJ/mol
# GULP energy per Si atom -12400.073336 kJ/mol
# Density = 2.083252 g / cm^3
# Si number density = 20.880041 Si / 1000 Ang^3
#
#
#
# Elastic Constant Matrix: (Units=GPa)
#
#
# Indices 1 2 3 4 5 6 
#
# 1 81.8435 61.3488 60.8980 0.0000 0.0000 0.0000
# 2 61.3488 81.8523 60.8943 0.0000 0.0000 0.0000
# 3 60.8980 60.8943 115.6550 0.0000 0.0000 0.0000
# 4 0.0000 0.0000 0.0000 32.0221 0.0000 0.0000
# 5 0.0000 0.0000 0.0000 0.0000 32.0225 0.0000
# 6 0.0000 0.0000 0.0000 0.0000 0.0000 34.1499
#
#
#
# Elastic Compliance Matrix: (Units=1/GPa)
#
#
# Indices 1 2 3 4 5 6 
#
# 1 0.030719 -0.018068 -0.006662 0.000000 0.000000 0.000000
# 2 -0.018068 0.030711 -0.006656 0.000000 0.000000 0.000000
# 3 -0.006662 -0.006656 0.015659 0.000000 0.000000 0.000000
# 4 0.000000 0.000000 0.000000 0.031228 0.000000 0.000000
# 5 0.000000 0.000000 0.000000 0.000000 0.031228 0.000000
# 6 0.000000 0.000000 0.000000 0.000000 0.000000 0.029283
#
#
# Mechanical properties :
#
#
# Convention : Reuss Voigt Hill
#
# Bulk Modulus (GPa) = 69.84865 71.73701 70.79283
# Shear Modulus (GPa) = 21.15310 26.05288 23.60299
#
# Velocity S-wave (km/s) = 3.18634 3.53617 3.36580
# Velocity P-wave (km/s) = 6.86017 7.14870 7.00593
#
# Compressibility (1/GPa) = 0.01431667
#
# Stress axis : x y z
#
# Youngs Moduli (GPa) = 32.55338 32.56172 63.86124
#
# Poissons Ratio (x) = 0.58831 0.42544
# Poissons Ratio (y) = 0.58816 0.42508
# Poissons Ratio (z) = 0.21687 0.21674
#
# Static dielectric constant tensor:
#      x y z
#    x 3.930860 0.000000 0.000000 
#    y 0.000000 3.930870 0.000000 
#    z 0.000000 0.000000 3.434410 
# 
# 
# High freq. dielectric constant tensor:
#      x y z
#    x 1.827930 0.000000 0.000000 
#    y 0.000000 1.827930 0.000000 
#    z 0.000000 0.000000 1.809610 
# 
# From -- ./inp_files/6421.got.cif
#   From: 2010.03.12/outbox.cif.g09.slc.cpg/sg119_4_cif.got.tgz:6421.got - 2010.04.14 02:25:26.
