data_PCOD8311467
_publ_section_title
;
Structure prediction by ZEFSAII (Michael W. Deem and Ramdas Pophale) SiO2 
 PCOD8311467
Probable space group: I -4 2 M
;
_chemical_formula_sum "Si O2"
_cell_formula_units_Z 96
_cell_length_a 18.094560
_cell_length_b 18.094560
_cell_length_c 16.250786
_cell_angle_alpha 90.000000
_cell_angle_beta 90.000000
_cell_angle_gamma 90.000000
_cell_volume 5320.720248
_symmetry_space_group_name_H-M "I -4 2 M"
_symmetry_group_IT_number 121
_symmetry_cell_setting 'tetragonal'
loop_
_space_group_symop_operation_xyz
x,y,z
y,-x,-z
-x,-y,z
-y,x,-z
x,-y,-z
-x,y,-z
-y,-x,z
y,x,z
1/2+x,1/2+y,1/2+z
1/2+y,1/2-x,1/2-z
1/2-x,1/2-y,1/2+z
1/2-y,1/2+x,1/2-z
1/2+x,1/2-y,1/2-z
1/2-x,1/2+y,1/2-z
1/2-y,1/2-x,1/2+z
1/2+y,1/2+x,1/2+z
loop_
_atom_site_type_symbol
_atom_site_label
_atom_site_fract_x
_atom_site_fract_y
_atom_site_fract_z
Si Si1 0.918360 0.644830 0.835068
Si Si2 0.270758 0.843294 0.402262
Si Si3 0.298855 0.575310 0.213268
Si Si4 0.913975 0.203172 0.245325
Si Si5 0.703769 0.927776 0.445809
Si Si6 0.415002 0.155776 0.684176
O O1 0.897108 0.730446 0.818600
O O2 0.870976 0.608186 0.907978
O O3 0.908718 0.599087 0.750533
O O4 0.005121 0.644723 0.856209
O O5 0.239994 0.760006 0.393790
O O6 0.229460 0.895216 0.337156
O O7 0.255376 0.870542 0.494288
O O8 0.358602 0.848063 0.391102
O O9 0.365260 0.634741 0.209085
O O10 0.325953 0.498347 0.253329
O O11 0.264282 0.556690 0.124196
O O12 0.232977 0.604002 0.270765
O O13 0.864750 0.135251 0.215213
O O14 0.682687 0.000000 0.500000
#
# Coordination Sequence:
#
# PCOD8311467 Si02
#       6
#    16  16  16  16  16  16
#     4   9  20  34  53  73 105 135 177 222 264 315
#     4  10  19  33  53  72 101 137 173 216 262 317
#     4  10  19  34  56  78 106 140 179 227 274 324
#     4   9  18  34  54  76 102 136 178 224 266 315
#     4  11  21  35  51  77 111 142 179 219 270 332
#     4   9  19  35  52  76  99 136 181 223 262 313
#
# _framework density 18.042670999999999
#
# number of rings (size 3 to 8) (size 9 to 14) (size 15 to 20)
#    0.000    2.333    1.667    1.000    2.333    6.000 
#    0.000    0.833    0.000    0.000    0.000    0.000 
#    0.000    0.000    0.000    8.667    0.000    0.000 
#
# Total GULP energy -594861.111870 kJ/mol
# GULP energy per Si atom -12392.939831 kJ/mol
# Density = 1.800160 g / cm^3
# Si number density = 18.042671 Si / 1000 Ang^3
#
#
#
# Elastic Constant Matrix: (Units=GPa)
#
#
# Indices 1 2 3 4 5 6 
#
# 1 100.5055 56.8711 21.2980 0.0000 0.0000 0.0000
# 2 56.8711 100.5091 21.2976 0.0000 0.0000 0.0000
# 3 21.2980 21.2976 49.6664 0.0000 0.0000 0.0000
# 4 0.0000 0.0000 0.0000 20.4473 0.0000 0.0000
# 5 0.0000 0.0000 0.0000 0.0000 20.4471 0.0000
# 6 0.0000 0.0000 0.0000 0.0000 0.0000 26.4336
#
#
#
# Elastic Compliance Matrix: (Units=1/GPa)
#
#
# Indices 1 2 3 4 5 6 
#
# 1 0.015053 -0.007864 -0.003083 0.000000 0.000000 0.000000
# 2 -0.007864 0.015052 -0.003082 0.000000 0.000000 0.000000
# 3 -0.003083 -0.003082 0.022778 0.000000 0.000000 0.000000
# 4 0.000000 0.000000 0.000000 0.048906 0.000000 0.000000
# 5 0.000000 0.000000 0.000000 0.000000 0.048907 0.000000
# 6 0.000000 0.000000 0.000000 0.000000 0.000000 0.037831
#
#
# Mechanical properties :
#
#
# Convention : Reuss Voigt Hill
#
# Bulk Modulus (GPa) = 40.28232 49.95715 45.11973
# Shear Modulus (GPa) = 22.23605 23.54655 22.89130
#
# Velocity S-wave (km/s) = 3.51438 3.61646 3.56579
# Velocity P-wave (km/s) = 6.23237 6.72212 6.48187
#
# Compressibility (1/GPa) = 0.02482479
#
# Stress axis : x y z
#
# Youngs Moduli (GPa) = 66.43237 66.43523 43.90196
#
# Poissons Ratio (x) = 0.52246 0.13534
# Poissons Ratio (y) = 0.52243 0.13532
# Poissons Ratio (z) = 0.20479 0.20477
#
# Static dielectric constant tensor:
#      x y z
#    x 3.337120 0.000000 0.000000 
#    y 0.000000 3.337110 0.000000 
#    z 0.000000 0.000000 3.152910 
# 
# 
# High freq. dielectric constant tensor:
#      x y z
#    x 1.696120 0.000000 0.000000 
#    y 0.000000 1.696120 0.000000 
#    z 0.000000 0.000000 1.680990 
# 
# From -- ./inp_files/5411.got.cif
#   From: 2010.03.12/outbox.cif.g09.slc.cpg/sg121_3_cif.got.tgz:5411.got - 2010.04.06 16:06:48.
