data_PCOD8311083
_publ_section_title
;
Structure prediction by ZEFSAII (Michael W. Deem and Ramdas Pophale) SiO2 
 PCOD8311083
Probable space group: I -4 M 2
;
_chemical_formula_sum "Si O2"
_cell_formula_units_Z 48
_cell_length_a 13.416530
_cell_length_b 13.416530
_cell_length_c 12.344127
_cell_angle_alpha 90.000000
_cell_angle_beta 90.000000
_cell_angle_gamma 90.000000
_cell_volume 2221.983315
_symmetry_space_group_name_H-M "I -4 M 2"
_symmetry_group_IT_number 119
_symmetry_cell_setting 'tetragonal'
loop_
_space_group_symop_operation_xyz
x,y,z
y,-x,-z
-x,-y,z
-y,x,-z
y,x,-z
-y,-x,-z
-x,y,z
x,-y,z
1/2+x,1/2+y,1/2+z
1/2+y,1/2-x,1/2-z
1/2-x,1/2-y,1/2+z
1/2-y,1/2+x,1/2-z
1/2+y,1/2+x,1/2-z
1/2-y,1/2-x,1/2-z
1/2-x,1/2+y,1/2+z
1/2+x,1/2-y,1/2+z
loop_
_atom_site_type_symbol
_atom_site_label
_atom_site_fract_x
_atom_site_fract_y
_atom_site_fract_z
Si Si1 0.794119 0.114590 0.602086
Si Si2 0.115230 0.115230 0.000000
Si Si3 0.387026 0.112975 0.750000
Si Si4 0.886582 0.773400 0.783511
O O1 0.814545 0.185456 0.500000
O O2 0.683322 0.138131 0.647858
O O3 0.873242 0.138036 0.696561
O O4 0.805143 0.000000 0.566256
O O5 0.146651 0.184436 0.899614
O O6 0.000000 0.132572 0.031590
O O7 0.500000 0.130411 0.709916
O O8 0.820573 0.679428 0.750000
O O9 0.000000 0.737231 0.784787
#
# Coordination Sequence:
#
# PCOD8311083 Si02
#       4
#    16   8   8  16
#     4  11  23  41  67  98 134 170 213 269 328 388
#     4   9  20  42  70  96 122 159 212 270 322 381
#     4   9  20  42  72 100 127 168 222 270 315 382
#     4  11  24  41  64  93 128 170 218 269 325 386
#
# _framework density 21.602322999999998
#
# number of rings (size 3 to 8) (size 9 to 14) (size 15 to 20)
#    0.000    1.667    1.667    2.000    2.333    4.000 
#    0.000    1.667    0.000    4.000    0.000    0.000 
#    0.000    0.000    0.000    0.000    0.000    0.000 
#
# Total GULP energy -297642.982404 kJ/mol
# GULP energy per Si atom -12401.790934 kJ/mol
# Density = 2.155316 g / cm^3
# Si number density = 21.602323 Si / 1000 Ang^3
#
#
#
# Elastic Constant Matrix: (Units=GPa)
#
#
# Indices 1 2 3 4 5 6 
#
# 1 124.1750 83.3903 84.9154 0.0000 0.0000 0.0000
# 2 83.3903 124.1720 84.9154 0.0000 0.0000 0.0000
# 3 84.9154 84.9154 180.7354 0.0000 0.0000 0.0000
# 4 0.0000 0.0000 0.0000 38.0522 0.0000 0.0000
# 5 0.0000 0.0000 0.0000 0.0000 38.0517 0.0000
# 6 0.0000 0.0000 0.0000 0.0000 0.0000 38.1094
#
#
#
# Elastic Compliance Matrix: (Units=1/GPa)
#
#
# Indices 1 2 3 4 5 6 
#
# 1 0.016173 -0.008347 -0.003677 0.000000 0.000000 0.000000
# 2 -0.008347 0.016173 -0.003677 0.000000 0.000000 0.000000
# 3 -0.003677 -0.003677 0.008988 0.000000 0.000000 0.000000
# 4 0.000000 0.000000 0.000000 0.026280 0.000000 0.000000
# 5 0.000000 0.000000 0.000000 0.000000 0.026280 0.000000
# 6 0.000000 0.000000 0.000000 0.000000 0.000000 0.026240
#
#
# Mechanical properties :
#
#
# Convention : Reuss Voigt Hill
#
# Bulk Modulus (GPa) = 100.67825 103.94716 102.31270
# Shear Modulus (GPa) = 32.28988 34.56676 33.42832
#
# Velocity S-wave (km/s) = 3.87038 4.00452 3.93802
# Velocity P-wave (km/s) = 8.16576 8.34293 8.25482
#
# Compressibility (1/GPa) = 0.00993263
#
# Stress axis : x y z
#
# Youngs Moduli (GPa) = 61.83194 61.82971 111.25681
#
# Poissons Ratio (x) = 0.51607 0.40909
# Poissons Ratio (y) = 0.51609 0.40912
# Poissons Ratio (z) = 0.22736 0.22736
#
# Static dielectric constant tensor:
#      x y z
#    x 3.920050 0.000000 0.000000 
#    y 0.000000 3.920080 0.000000 
#    z 0.000000 0.000000 3.886150 
# 
# 
# High freq. dielectric constant tensor:
#      x y z
#    x 1.853670 0.000000 0.000000 
#    y 0.000000 1.853670 0.000000 
#    z 0.000000 0.000000 1.846250 
# 
# From -- ./inp_files/3458.got.cif
#   From: 2010.03.12/outbox.cif.g09.slc.cpg/sg119_2_cif.got.tgz:3458.got - 2010.04.14 02:25:26.
