data_PCOD8311293
_publ_section_title
;
Structure prediction by ZEFSAII (Michael W. Deem and Ramdas Pophale) SiO2 
 PCOD8311293
Probable space group: I -4 C 2
;
_chemical_formula_sum "Si O2"
_cell_formula_units_Z 40
_cell_length_a 14.007151
_cell_length_b 14.007151
_cell_length_c 7.636060
_cell_angle_alpha 90.000000
_cell_angle_beta 90.000000
_cell_angle_gamma 90.000000
_cell_volume 1498.197104
_symmetry_space_group_name_H-M "I -4 C 2"
_symmetry_group_IT_number 120
_symmetry_cell_setting 'tetragonal'
loop_
_space_group_symop_operation_xyz
x,y,z
y,-x,-z
-x,-y,z
-y,x,-z
y,x,1/2-z
-y,-x,1/2-z
-x,y,1/2+z
x,-y,1/2+z
1/2+x,1/2+y,1/2+z
1/2+y,1/2-x,1/2-z
1/2-x,1/2-y,1/2+z
1/2-y,1/2+x,1/2-z
1/2+y,1/2+x,-z
1/2-y,1/2-x,-z
1/2-x,1/2+y,z
1/2+x,1/2-y,z
loop_
_atom_site_type_symbol
_atom_site_label
_atom_site_fract_x
_atom_site_fract_y
_atom_site_fract_z
Si Si1 0.889206 0.895338 0.951513
Si Si2 0.103155 0.387481 0.703855
Si Si3 0.285156 0.785156 0.000000
O O1 0.880404 0.880404 0.750000
O O2 0.809823 0.826221 0.040680
O O3 0.995503 0.865430 0.007251
O O4 0.131221 0.491066 0.773821
O O5 0.128404 0.371597 0.500000
O O6 0.156866 0.311054 0.824062
#
# Coordination Sequence:
#
# PCOD8311293 Si02
#       3
#    16  16   8
#     4  11  28  56  83 118 169 219 268 346 416 489
#     4  11  21  41  69 113 169 213 260 340 420 476
#     4  12  28  49  84 123 150 220 284 336 400 510
#
# _framework density 26.698754999999998
#
# number of rings (size 3 to 8) (size 9 to 14) (size 15 to 20)
#    0.000    0.800    4.000    3.600    5.600    3.200 
#   10.800    0.000    0.000    0.000    0.000    0.000 
#    0.000    0.000    0.000    0.000    0.000    0.000 
#
# Total GULP energy -248045.270016 kJ/mol
# GULP energy per Si atom -12402.263501 kJ/mol
# Density = 2.663799 g / cm^3
# Si number density = 26.698755 Si / 1000 Ang^3
#
#
#
# Elastic Constant Matrix: (Units=GPa)
#
#
# Indices 1 2 3 4 5 6 
#
# 1 144.4386 84.4341 11.6271 0.0000 0.0000 0.0000
# 2 84.4341 144.4381 11.6266 0.0000 0.0000 0.0000
# 3 11.6271 11.6266 152.3388 0.0000 0.0000 0.0000
# 4 0.0000 0.0000 0.0000 37.4336 0.0000 0.0000
# 5 0.0000 0.0000 0.0000 0.0000 37.4336 0.0000
# 6 0.0000 0.0000 0.0000 0.0000 0.0000 42.3089
#
#
#
# Elastic Compliance Matrix: (Units=1/GPa)
#
#
# Indices 1 2 3 4 5 6 
#
# 1 0.010534 -0.006131 -0.000336 0.000000 0.000000 0.000000
# 2 -0.006131 0.010534 -0.000336 0.000000 0.000000 0.000000
# 3 -0.000336 -0.000336 0.006616 0.000000 0.000000 0.000000
# 4 0.000000 0.000000 0.000000 0.026714 0.000000 0.000000
# 5 0.000000 0.000000 0.000000 0.000000 0.026714 0.000000
# 6 0.000000 0.000000 0.000000 0.000000 0.000000 0.023636
#
#
# Mechanical properties :
#
#
# Convention : Reuss Voigt Hill
#
# Bulk Modulus (GPa) = 71.03235 72.95456 71.99346
# Shear Modulus (GPa) = 40.63480 45.67039 43.15259
#
# Velocity S-wave (km/s) = 3.90548 4.14040 4.02466
# Velocity P-wave (km/s) = 6.85565 7.08814 6.97286
#
# Compressibility (1/GPa) = 0.01407809
#
# Stress axis : x y z
#
# Youngs Moduli (GPa) = 94.92691 94.92665 151.15747
#
# Poissons Ratio (x) = 0.58200 0.05080
# Poissons Ratio (y) = 0.58200 0.05080
# Poissons Ratio (z) = 0.03190 0.03190
#
# Static dielectric constant tensor:
#      x y z
#    x 4.607800 0.000000 0.000000 
#    y 0.000000 4.607810 0.000000 
#    z 0.000000 0.000000 5.055920 
# 
# 
# High freq. dielectric constant tensor:
#      x y z
#    x 2.086120 0.000000 0.000000 
#    y 0.000000 2.086120 0.000000 
#    z 0.000000 0.000000 2.087840 
# 
# From -- ./inp_files/704.got.cif
#   From: 2010.03.12/outbox.cif.g09.slc.cpg/sg120_1_cif.got.tgz:704.got - 2010.04.06 16:00:44.
