data_PCOD8311691
_publ_section_title
;
Structure prediction by ZEFSAII (Michael W. Deem and Ramdas Pophale) SiO2 
 PCOD8311691
Probable space group: I -4 2 M
;
_chemical_formula_sum "Si O2"
_cell_formula_units_Z 68
_cell_length_a 15.783455
_cell_length_b 15.783455
_cell_length_c 15.145074
_cell_angle_alpha 90.000000
_cell_angle_beta 90.000000
_cell_angle_gamma 90.000000
_cell_volume 3772.902241
_symmetry_space_group_name_H-M "I -4 2 M"
_symmetry_group_IT_number 121
_symmetry_cell_setting 'tetragonal'
loop_
_space_group_symop_operation_xyz
x,y,z
y,-x,-z
-x,-y,z
-y,x,-z
x,-y,-z
-x,y,-z
-y,-x,z
y,x,z
1/2+x,1/2+y,1/2+z
1/2+y,1/2-x,1/2-z
1/2-x,1/2-y,1/2+z
1/2-y,1/2+x,1/2-z
1/2+x,1/2-y,1/2-z
1/2-x,1/2+y,1/2-z
1/2-y,1/2-x,1/2+z
1/2+y,1/2+x,1/2+z
loop_
_atom_site_type_symbol
_atom_site_label
_atom_site_fract_x
_atom_site_fract_y
_atom_site_fract_z
Si Si1 0.908960 0.691689 0.166623
Si Si2 0.633564 0.366437 0.630817
Si Si3 0.366755 0.633245 0.424697
Si Si4 0.500000 0.500000 0.610898
Si Si5 0.600807 0.094486 0.500687
Si Si6 0.318579 0.102816 0.822767
O O1 0.905258 0.789214 0.132916
O O2 0.851809 0.669040 0.250307
O O3 0.003544 0.658886 0.191418
O O4 0.866600 0.638968 0.087505
O O5 0.653528 0.346473 0.526837
O O6 0.563706 0.436295 0.661370
O O7 0.604074 0.281614 0.677133
O O8 0.438026 0.561975 0.443614
O O9 0.500000 0.097483 0.500000
O O10 0.636594 0.142778 0.585648
O O11 0.636924 0.000000 0.500000
#
# Coordination Sequence:
#
# PCOD8311691 Si02
#       6
#    16   8   8   4  16  16
#     4  11  22  36  57  84 118 154 195 239 292 351
#     4  12  22  39  59  87 116 152 198 246 297 343
#     4  12  22  39  59  87 116 152 198 246 297 343
#     4  12  25  36  68  88 112 157 198 241 300 364
#     4   9  18  33  52  76 112 153 190 227 274 344
#     4  11  22  36  57  84 118 154 195 239 292 351
#
# _framework density 18.023260000000001
#
# number of rings (size 3 to 8) (size 9 to 14) (size 15 to 20)
#    0.000    1.176    4.706    3.176    0.000    2.353 
#    0.000    0.000    0.000    0.000    0.000    0.000 
#    0.000    1.882    0.000    0.000    0.000    0.000 
#
# Total GULP energy -421274.553961 kJ/mol
# GULP energy per Si atom -12390.428058 kJ/mol
# Density = 1.798224 g / cm^3
# Si number density = 18.023260 Si / 1000 Ang^3
#
#
#
# Elastic Constant Matrix: (Units=GPa)
#
#
# Indices 1 2 3 4 5 6 
#
# 1 95.4197 21.4701 38.4184 0.0000 0.0000 0.0000
# 2 21.4701 95.4190 38.4179 0.0000 0.0000 0.0000
# 3 38.4184 38.4179 109.6899 0.0000 0.0000 0.0000
# 4 0.0000 0.0000 0.0000 23.5681 0.0000 0.0000
# 5 0.0000 0.0000 0.0000 0.0000 23.5687 0.0000
# 6 0.0000 0.0000 0.0000 0.0000 0.0000 26.7278
#
#
#
# Elastic Compliance Matrix: (Units=1/GPa)
#
#
# Indices 1 2 3 4 5 6 
#
# 1 0.012318 -0.001204 -0.003893 0.000000 0.000000 0.000000
# 2 -0.001204 0.012318 -0.003893 0.000000 0.000000 0.000000
# 3 -0.003893 -0.003893 0.011843 0.000000 0.000000 0.000000
# 4 0.000000 0.000000 0.000000 0.042430 0.000000 0.000000
# 5 0.000000 0.000000 0.000000 0.000000 0.042429 0.000000
# 6 0.000000 0.000000 0.000000 0.000000 0.000000 0.037414
#
#
# Mechanical properties :
#
#
# Convention : Reuss Voigt Hill
#
# Bulk Modulus (GPa) = 54.05183 55.23792 54.64488
# Shear Modulus (GPa) = 27.33740 28.25439 27.79590
#
# Velocity S-wave (km/s) = 3.89882 3.96367 3.93138
# Velocity P-wave (km/s) = 7.09386 7.18764 7.14091
#
# Compressibility (1/GPa) = 0.01850076
#
# Stress axis : x y z
#
# Youngs Moduli (GPa) = 81.18018 81.17982 84.43605
#
# Poissons Ratio (x) = 0.09778 0.32867
# Poissons Ratio (y) = 0.09778 0.32867
# Poissons Ratio (z) = 0.31600 0.31599
#
# Static dielectric constant tensor:
#      x y z
#    x 3.340910 0.000000 0.000000 
#    y 0.000000 3.340930 0.000000 
#    z 0.000000 0.000000 3.249100 
# 
# 
# High freq. dielectric constant tensor:
#      x y z
#    x 1.693720 0.000000 0.000000 
#    y 0.000000 1.693720 0.000000 
#    z 0.000000 0.000000 1.686370 
# 
# From -- ./inp_files/3065.got.cif
#   From: 2010.03.12/outbox.cif.g09.slc.cpg/sg121_2_cif.got.tgz:3065.got - 2010.04.06 16:06:48.
