data_PCOD8311048
_publ_section_title
;
Structure prediction by ZEFSAII (Michael W. Deem and Ramdas Pophale) SiO2 
 PCOD8311048
Probable space group: I -4 M 2
;
_chemical_formula_sum "Si O2"
_cell_formula_units_Z 72
_cell_length_a 13.652500
_cell_length_b 13.652500
_cell_length_c 21.517221
_cell_angle_alpha 90.000000
_cell_angle_beta 90.000000
_cell_angle_gamma 90.000000
_cell_volume 4010.611095
_symmetry_space_group_name_H-M "I -4 M 2"
_symmetry_group_IT_number 119
_symmetry_cell_setting 'tetragonal'
loop_
_space_group_symop_operation_xyz
x,y,z
y,-x,-z
-x,-y,z
-y,x,-z
y,x,-z
-y,-x,-z
-x,y,z
x,-y,z
1/2+x,1/2+y,1/2+z
1/2+y,1/2-x,1/2-z
1/2-x,1/2-y,1/2+z
1/2-y,1/2+x,1/2-z
1/2+y,1/2+x,1/2-z
1/2-y,1/2-x,1/2-z
1/2-x,1/2+y,1/2+z
1/2+x,1/2-y,1/2+z
loop_
_atom_site_type_symbol
_atom_site_label
_atom_site_fract_x
_atom_site_fract_y
_atom_site_fract_z
Si Si1 0.209171 0.697104 0.373445
Si Si2 0.388236 0.107626 0.989102
Si Si3 0.884676 0.615325 0.250000
Si Si4 0.700112 0.388168 0.940543
Si Si5 0.612203 0.385278 0.428715
O O1 0.170658 0.625020 0.426575
O O2 0.165204 0.666437 0.308356
O O3 0.177088 0.810470 0.385895
O O4 0.326052 0.678864 0.378693
O O5 0.500000 0.114655 0.968416
O O6 0.366107 0.187308 0.041756
O O7 0.361665 0.000000 0.015799
O O8 0.863126 0.500000 0.249956
O O9 0.684309 0.500000 0.917425
O O10 0.630447 0.369554 0.000000
O O11 0.642121 0.357880 0.500000
O O12 0.500000 0.357155 0.417237
O O13 0.628983 0.500000 0.417199
#
# Coordination Sequence:
#
# PCOD8311048 Si02
#       5
#    16  16   8  16  16
#     4  11  20  32  51  71  99 136 170 204 244 292
#     4   9  16  28  50  79 105 127 157 201 251 299
#     4  11  24  40  56  74  96 123 160 206 250 293
#     4   9  19  33  50  75 103 131 164 204 251 300
#     4   9  17  29  48  77 109 136 163 200 250 303
#
# _framework density 17.952376999999998
#
# number of rings (size 3 to 8) (size 9 to 14) (size 15 to 20)
#    0.000    2.333    0.000    5.333    0.000    5.556 
#    0.000    1.111    0.000    1.333    0.000    0.000 
#    0.000    1.778    0.000    0.000    0.000    0.000 
#
# Total GULP energy -446261.778217 kJ/mol
# GULP energy per Si atom -12396.160506 kJ/mol
# Density = 1.791152 g / cm^3
# Si number density = 17.952377 Si / 1000 Ang^3
#
#
#
# Elastic Constant Matrix: (Units=GPa)
#
#
# Indices 1 2 3 4 5 6 
#
# 1 83.1766 59.3058 50.8745 0.0000 0.0000 0.0000
# 2 59.3058 83.1751 50.8759 0.0000 0.0000 0.0000
# 3 50.8745 50.8759 90.4814 0.0000 0.0000 0.0000
# 4 0.0000 0.0000 0.0000 19.2798 0.0000 0.0000
# 5 0.0000 0.0000 0.0000 0.0000 19.2796 0.0000
# 6 0.0000 0.0000 0.0000 0.0000 0.0000 24.2255
#
#
#
# Elastic Compliance Matrix: (Units=1/GPa)
#
#
# Indices 1 2 3 4 5 6 
#
# 1 0.026810 -0.015083 -0.006593 0.000000 0.000000 0.000000
# 2 -0.015083 0.026811 -0.006595 0.000000 0.000000 0.000000
# 3 -0.006593 -0.006595 0.018467 0.000000 0.000000 0.000000
# 4 0.000000 0.000000 0.000000 0.051868 0.000000 0.000000
# 5 0.000000 0.000000 0.000000 0.000000 0.051868 0.000000
# 6 0.000000 0.000000 0.000000 0.000000 0.000000 0.041279
#
#
# Mechanical properties :
#
#
# Convention : Reuss Voigt Hill
#
# Bulk Modulus (GPa) = 64.32495 64.32730 64.32613
# Shear Modulus (GPa) = 17.93225 18.94211 18.43718
#
# Velocity S-wave (km/s) = 3.16393 3.25180 3.20817
# Velocity P-wave (km/s) = 7.01826 7.07170 7.04503
#
# Compressibility (1/GPa) = 0.01554607
#
# Stress axis : x y z
#
# Youngs Moduli (GPa) = 37.29989 37.29774 54.14990
#
# Poissons Ratio (x) = 0.56256 0.35702
# Poissons Ratio (y) = 0.56260 0.35711
# Poissons Ratio (z) = 0.24593 0.24597
#
# Static dielectric constant tensor:
#      x y z
#    x 3.684550 0.000000 0.000000 
#    y 0.000000 3.684560 0.000000 
#    z 0.000000 0.000000 3.029780 
# 
# 
# High freq. dielectric constant tensor:
#      x y z
#    x 1.710210 0.000000 0.000000 
#    y 0.000000 1.710210 0.000000 
#    z 0.000000 0.000000 1.631820 
# 
# From -- ./inp_files/6385.got.cif
#   From: 2010.03.12/outbox.cif.g09.slc.cpg/sg119_4_cif.got.tgz:6385.got - 2010.04.14 02:25:26.
