data_PCOD8311600
_publ_section_title
;
Structure prediction by ZEFSAII (Michael W. Deem and Ramdas Pophale) SiO2 
 PCOD8311600
Probable space group: I -4 2 M
;
_chemical_formula_sum "Si O2"
_cell_formula_units_Z 96
_cell_length_a 15.115763
_cell_length_b 15.115763
_cell_length_c 22.903527
_cell_angle_alpha 90.000000
_cell_angle_beta 90.000000
_cell_angle_gamma 90.000000
_cell_volume 5233.141937
_symmetry_space_group_name_H-M "I -4 2 M"
_symmetry_group_IT_number 121
_symmetry_cell_setting 'tetragonal'
loop_
_space_group_symop_operation_xyz
x,y,z
y,-x,-z
-x,-y,z
-y,x,-z
x,-y,-z
-x,y,-z
-y,-x,z
y,x,z
1/2+x,1/2+y,1/2+z
1/2+y,1/2-x,1/2-z
1/2-x,1/2-y,1/2+z
1/2-y,1/2+x,1/2-z
1/2+x,1/2-y,1/2-z
1/2-x,1/2+y,1/2-z
1/2-y,1/2-x,1/2+z
1/2+y,1/2+x,1/2+z
loop_
_atom_site_type_symbol
_atom_site_label
_atom_site_fract_x
_atom_site_fract_y
_atom_site_fract_z
Si Si1 0.096674 0.327546 0.492264
Si Si2 0.769193 0.086923 0.969345
Si Si3 0.604027 0.247491 0.134680
Si Si4 0.090470 0.230529 0.606562
Si Si5 0.276181 0.866348 0.846429
Si Si6 0.131500 0.440634 0.757408
O O1 0.170038 0.399188 0.508120
O O2 0.121807 0.296886 0.427539
O O3 0.093954 0.243377 0.536312
O O4 0.000000 0.373457 0.500000
O O5 0.829170 0.170831 0.986637
O O6 0.765708 0.076313 0.899275
O O7 0.809294 0.000000 0.000000
O O8 0.677522 0.322478 0.148625
O O9 0.506231 0.289370 0.132184
O O10 0.603164 0.170455 0.183691
O O11 0.145008 0.145008 0.624617
O O12 0.133024 0.319106 0.633603
O O13 0.207017 0.792984 0.825036
O O14 0.295267 0.931506 0.793144
O O15 0.111746 0.544267 0.763363
#
# Coordination Sequence:
#
# PCOD8311600 Si02
#       6
#    16  16  16  16  16  16
#     4   9  19  35  56  86 115 141 176 226 282 339
#     4  10  21  36  58  85 113 148 188 231 279 336
#     4  11  21  34  55  82 110 144 183 223 271 328
#     4   9  17  34  56  78 111 144 175 219 274 334
#     4   9  18  37  58  76 104 145 186 220 276 338
#     4  11  23  37  53  77 111 145 186 237 280 321
#
# _framework density 18.344619000000002
#
# number of rings (size 3 to 8) (size 9 to 14) (size 15 to 20)
#    0.000    2.167    1.667    3.000    2.333    0.833 
#    0.000    0.000    0.000    4.000    0.000    2.333 
#    0.000    0.000    0.000    0.000    0.000    0.000 
#
# Total GULP energy -594981.733289 kJ/mol
# GULP energy per Si atom -12395.452777 kJ/mol
# Density = 1.830287 g / cm^3
# Si number density = 18.344619 Si / 1000 Ang^3
#
#
#
# Elastic Constant Matrix: (Units=GPa)
#
#
# Indices 1 2 3 4 5 6 
#
# 1 70.0490 26.0418 34.4944 0.0000 0.0000 0.0000
# 2 26.0418 70.0465 34.4938 0.0000 0.0000 0.0000
# 3 34.4944 34.4938 94.6582 0.0000 0.0000 0.0000
# 4 0.0000 0.0000 0.0000 26.4879 0.0000 0.0000
# 5 0.0000 0.0000 0.0000 0.0000 26.4874 0.0000
# 6 0.0000 0.0000 0.0000 0.0000 0.0000 18.0934
#
#
#
# Elastic Compliance Matrix: (Units=1/GPa)
#
#
# Indices 1 2 3 4 5 6 
#
# 1 0.018409 -0.004315 -0.005136 0.000000 0.000000 0.000000
# 2 -0.004315 0.018410 -0.005136 0.000000 0.000000 0.000000
# 3 -0.005136 -0.005136 0.014308 0.000000 0.000000 0.000000
# 4 0.000000 0.000000 0.000000 0.037753 0.000000 0.000000
# 5 0.000000 0.000000 0.000000 0.000000 0.037754 0.000000
# 6 0.000000 0.000000 0.000000 0.000000 0.000000 0.055269
#
#
# Mechanical properties :
#
#
# Convention : Reuss Voigt Hill
#
# Bulk Modulus (GPa) = 45.55378 47.20150 46.37764
# Shear Modulus (GPa) = 22.89444 23.52865 23.21154
#
# Velocity S-wave (km/s) = 3.53656 3.58521 3.56097
# Velocity P-wave (km/s) = 6.44690 6.55169 6.49951
#
# Compressibility (1/GPa) = 0.02195207
#
# Stress axis : x y z
#
# Youngs Moduli (GPa) = 54.32127 54.31925 69.89292
#
# Poissons Ratio (x) = 0.23438 0.35897
# Poissons Ratio (y) = 0.23439 0.35898
# Poissons Ratio (z) = 0.27900 0.27899
#
# Static dielectric constant tensor:
#      x y z
#    x 3.199650 0.000000 0.000000 
#    y 0.000000 3.199650 0.000000 
#    z 0.000000 0.000000 3.428530 
# 
# 
# High freq. dielectric constant tensor:
#      x y z
#    x 1.696210 0.000000 0.000000 
#    y 0.000000 1.696210 0.000000 
#    z 0.000000 0.000000 1.716840 
# 
# From -- ./inp_files/6395.got.cif
#   From: 2010.03.12/outbox.cif.g09.slc.cpg/sg121_4_cif.got.tgz:6395.got - 2010.04.06 16:06:48.
