data_PCOD8311906
_publ_section_title
;
Structure prediction by ZEFSAII (Michael W. Deem and Ramdas Pophale) SiO2 
 PCOD8311906
Probable space group: I -4 2 D
;
_chemical_formula_sum "Si O2"
_cell_formula_units_Z 80
_cell_length_a 11.840870
_cell_length_b 11.840870
_cell_length_c 26.640125
_cell_angle_alpha 90.000000
_cell_angle_beta 90.000000
_cell_angle_gamma 90.000000
_cell_volume 3735.110757
_symmetry_space_group_name_H-M "I -4 2 D"
_symmetry_group_IT_number 122
_symmetry_cell_setting 'tetragonal'
loop_
_space_group_symop_operation_xyz
x,y,z
y,-x,-z
-x,-y,z
-y,x,-z
x,1/2-y,1/4-z
-x,1/2+y,1/4-z
-y,1/2-x,1/4+z
y,1/2+x,1/4+z
1/2+x,1/2+y,1/2+z
1/2+y,1/2-x,1/2-z
1/2-x,1/2-y,1/2+z
1/2-y,1/2+x,1/2-z
1/2+x,-y,3/4-z
1/2-x,y,3/4-z
1/2-y,-x,3/4+z
1/2+y,x,3/4+z
loop_
_atom_site_type_symbol
_atom_site_label
_atom_site_fract_x
_atom_site_fract_y
_atom_site_fract_z
Si Si1 0.135643 0.183065 0.200361
Si Si2 0.505257 0.824537 0.080055
Si Si3 0.334922 0.506429 0.195461
Si Si4 0.073520 0.892304 0.904746
Si Si5 0.080247 0.837697 0.501258
O O1 0.057557 0.158052 0.248528
O O2 0.099765 0.102977 0.154155
O O3 0.116869 0.313320 0.187413
O O4 0.268246 0.154475 0.210499
O O5 0.555149 0.750000 0.125000
O O6 0.414346 0.922610 0.092946
O O7 0.612900 0.879503 0.051624
O O8 0.429008 0.738431 0.049519
O O9 0.212653 0.505226 0.170180
O O10 0.000000 0.000000 0.920492
O O11 0.953130 0.860054 0.481632
#
# Coordination Sequence:
#
# PCOD8311906 Si02
#       5
#    16  16  16  16  16
#     4  10  25  46  64 102 135 183 236 293 354 418
#     4  10  23  41  64 100 128 177 223 276 354 418
#     4  10  24  43  68  94 138 178 227 295 345 419
#     4  11  26  45  70  97 136 189 240 290 349 430
#     4  10  22  38  66  98 133 172 218 289 354 423
#
# _framework density 21.418375000000001
#
# number of rings (size 3 to 8) (size 9 to 14) (size 15 to 20)
#    0.000    1.800    0.000    1.200   16.800    1.600 
#    3.600    0.000    0.000    0.000    0.000    0.000 
#    0.000    0.000    0.000    0.000    0.000    0.000 
#
# Total GULP energy -495676.604011 kJ/mol
# GULP energy per Si atom -12391.915100 kJ/mol
# Density = 2.136963 g / cm^3
# Si number density = 21.418375 Si / 1000 Ang^3
#
#
#
# Elastic Constant Matrix: (Units=GPa)
#
#
# Indices 1 2 3 4 5 6 
#
# 1 147.4125 78.5449 52.6254 0.0000 0.0000 0.0000
# 2 78.5449 147.4125 52.6254 0.0000 0.0000 0.0000
# 3 52.6254 52.6254 96.1620 0.0000 0.0000 0.0000
# 4 0.0000 0.0000 0.0000 33.9300 0.0000 0.0000
# 5 0.0000 0.0000 0.0000 0.0000 33.9300 0.0000
# 6 0.0000 0.0000 0.0000 0.0000 0.0000 42.9878
#
#
#
# Elastic Compliance Matrix: (Units=1/GPa)
#
#
# Indices 1 2 3 4 5 6 
#
# 1 0.010230 -0.004290 -0.003251 0.000000 0.000000 0.000000
# 2 -0.004290 0.010230 -0.003251 0.000000 0.000000 0.000000
# 3 -0.003251 -0.003251 0.013957 0.000000 0.000000 0.000000
# 4 0.000000 0.000000 0.000000 0.029472 0.000000 0.000000
# 5 0.000000 0.000000 0.000000 0.000000 0.029472 0.000000
# 6 0.000000 0.000000 0.000000 0.000000 0.000000 0.023262
#
#
# Mechanical properties :
#
#
# Convention : Reuss Voigt Hill
#
# Bulk Modulus (GPa) = 77.91732 84.28648 81.10190
# Shear Modulus (GPa) = 35.09124 35.98231 35.53677
#
# Velocity S-wave (km/s) = 4.05207 4.10320 4.07771
# Velocity P-wave (km/s) = 7.63872 7.86677 7.75359
#
# Compressibility (1/GPa) = 0.01283412
#
# Stress axis : x y z
#
# Youngs Moduli (GPa) = 97.75008 97.75008 71.64912
#
# Poissons Ratio (x) = 0.41939 0.23290
# Poissons Ratio (y) = 0.41939 0.23290
# Poissons Ratio (z) = 0.31774 0.31774
#
# Static dielectric constant tensor:
#      x y z
#    x 4.221770 0.000000 0.000000 
#    y 0.000000 4.221770 0.000000 
#    z 0.000000 0.000000 3.928970 
# 
# 
# High freq. dielectric constant tensor:
#      x y z
#    x 1.853790 0.000000 0.000000 
#    y 0.000000 1.853790 0.000000 
#    z 0.000000 0.000000 1.822040 
# 
# From -- ./inp_files/9360.got.cif
#   From: 2010.03.12/outbox.cif.g09.slc.cpg/sg122_5_cif.got.tgz:9360.got - 2010.04.06 16:17:16.
