data_PCOD8311060
_publ_section_title
;
Structure prediction by ZEFSAII (Michael W. Deem and Ramdas Pophale) SiO2 
 PCOD8311060
Probable space group: I -4 M 2
;
_chemical_formula_sum "Si O2"
_cell_formula_units_Z 96
_cell_length_a 21.641831
_cell_length_b 21.641831
_cell_length_c 10.395671
_cell_angle_alpha 90.000000
_cell_angle_beta 90.000000
_cell_angle_gamma 90.000000
_cell_volume 4869.008461
_symmetry_space_group_name_H-M "I -4 M 2"
_symmetry_group_IT_number 119
_symmetry_cell_setting 'tetragonal'
loop_
_space_group_symop_operation_xyz
x,y,z
y,-x,-z
-x,-y,z
-y,x,-z
y,x,-z
-y,-x,-z
-x,y,z
x,-y,z
1/2+x,1/2+y,1/2+z
1/2+y,1/2-x,1/2-z
1/2-x,1/2-y,1/2+z
1/2-y,1/2+x,1/2-z
1/2+y,1/2+x,1/2-z
1/2-y,1/2-x,1/2-z
1/2-x,1/2+y,1/2+z
1/2+x,1/2-y,1/2+z
loop_
_atom_site_type_symbol
_atom_site_label
_atom_site_fract_x
_atom_site_fract_y
_atom_site_fract_z
Si Si1 0.574904 0.726597 0.479461
Si Si2 0.738273 0.699766 0.864123
Si Si3 0.855652 0.368048 0.610212
Si Si4 0.428670 0.433188 0.863813
Si Si5 0.864748 0.846959 0.192392
Si Si6 0.572966 0.068956 0.892413
O O1 0.500000 0.722777 0.483100
O O2 0.596188 0.792429 0.423632
O O3 0.605797 0.712718 0.619830
O O4 0.605807 0.674502 0.392881
O O5 0.752138 0.747863 0.750000
O O6 0.794162 0.651662 0.880305
O O7 0.674565 0.669330 0.820084
O O8 0.734230 0.734230 0.000000
O O9 0.885338 0.385338 0.750000
O O10 0.903932 0.383354 0.498822
O O11 0.500000 0.444166 0.884415
O O12 0.396974 0.500000 0.833103
O O13 0.421004 0.386711 0.745735
O O14 0.404474 0.404474 0.000000
O O15 0.500000 0.065831 0.898514
O O16 0.592624 0.092624 0.750000
O O17 0.600218 0.000000 0.918323
#
# Coordination Sequence:
#
# PCOD8311060 Si02
#       6
#    16  16  16  16  16  16
#     4  11  23  38  60  88 124 165 207 262 317 379
#     4  11  22  39  60  85 119 161 205 254 311 376
#     4  11  22  39  59  90 121 160 203 257 312 375
#     4   9  18  34  56  82 115 155 199 252 312 369
#     4  11  21  38  58  86 120 159 211 253 312 379
#     4   9  20  40  63  87 119 158 201 252 313 378
#
# _framework density 19.716539000000001
#
# number of rings (size 3 to 8) (size 9 to 14) (size 15 to 20)
#    0.000    1.667    3.333    4.000    0.000    3.333 
#    0.000    0.833    0.000    5.000    0.000    0.000 
#    0.000    0.000    0.000    0.000    0.000    0.000 
#
# Total GULP energy -594652.254137 kJ/mol
# GULP energy per Si atom -12388.588628 kJ/mol
# Density = 1.967166 g / cm^3
# Si number density = 19.716539 Si / 1000 Ang^3
#
#
#
# Elastic Constant Matrix: (Units=GPa)
#
#
# Indices 1 2 3 4 5 6 
#
# 1 64.0068 30.4416 47.8858 0.0000 0.0000 0.0000
# 2 30.4416 64.0056 47.8857 0.0000 0.0000 0.0000
# 3 47.8858 47.8857 164.5977 0.0000 0.0000 0.0000
# 4 0.0000 0.0000 0.0000 36.4265 0.0000 0.0000
# 5 0.0000 0.0000 0.0000 0.0000 36.4265 0.0000
# 6 0.0000 0.0000 0.0000 0.0000 0.0000 21.6876
#
#
#
# Elastic Compliance Matrix: (Units=1/GPa)
#
#
# Indices 1 2 3 4 5 6 
#
# 1 0.022406 -0.007387 -0.004369 0.000000 0.000000 0.000000
# 2 -0.007387 0.022406 -0.004369 0.000000 0.000000 0.000000
# 3 -0.004369 -0.004369 0.008618 0.000000 0.000000 0.000000
# 4 0.000000 0.000000 0.000000 0.027453 0.000000 0.000000
# 5 0.000000 0.000000 0.000000 0.000000 0.027453 0.000000
# 6 0.000000 0.000000 0.000000 0.000000 0.000000 0.046109
#
#
# Mechanical properties :
#
#
# Convention : Reuss Voigt Hill
#
# Bulk Modulus (GPa) = 47.22013 60.55959 53.88986
# Shear Modulus (GPa) = 25.80585 30.00126 27.90355
#
# Velocity S-wave (km/s) = 3.62172 3.90504 3.76604
# Velocity P-wave (km/s) = 6.44132 7.14942 6.80459
#
# Compressibility (1/GPa) = 0.02117741
#
# Stress axis : x y z
#
# Youngs Moduli (GPa) = 44.63185 44.63080 116.04084
#
# Poissons Ratio (x) = 0.32971 0.50700
# Poissons Ratio (y) = 0.32972 0.50702
# Poissons Ratio (z) = 0.19500 0.19500
#
# Static dielectric constant tensor:
#      x y z
#    x 3.675980 0.000000 0.000000 
#    y 0.000000 3.675990 0.000000 
#    z 0.000000 0.000000 4.155330 
# 
# 
# High freq. dielectric constant tensor:
#      x y z
#    x 1.757630 0.000000 0.000000 
#    y 0.000000 1.757630 0.000000 
#    z 0.000000 0.000000 1.786420 
# 
# From -- ./inp_files/4191.got.cif
#   From: 2010.03.12/outbox.cif.g09.slc.cpg/sg119_3_cif.got.tgz:4191.got - 2010.04.14 02:25:26.
