data_PCOD8311257
_publ_section_title
;
Structure prediction by ZEFSAII (Michael W. Deem and Ramdas Pophale) SiO2 
 PCOD8311257
Probable space group: I -4 C 2
;
_chemical_formula_sum "Si O2"
_cell_formula_units_Z 112
_cell_length_a 13.863322
_cell_length_b 13.863322
_cell_length_c 26.255276
_cell_angle_alpha 90.000000
_cell_angle_beta 90.000000
_cell_angle_gamma 90.000000
_cell_volume 5046.046046
_symmetry_space_group_name_H-M "I -4 C 2"
_symmetry_group_IT_number 120
_symmetry_cell_setting 'tetragonal'
loop_
_space_group_symop_operation_xyz
x,y,z
y,-x,-z
-x,-y,z
-y,x,-z
y,x,1/2-z
-y,-x,1/2-z
-x,y,1/2+z
x,-y,1/2+z
1/2+x,1/2+y,1/2+z
1/2+y,1/2-x,1/2-z
1/2-x,1/2-y,1/2+z
1/2-y,1/2+x,1/2-z
1/2+y,1/2+x,-z
1/2-y,1/2-x,-z
1/2-x,1/2+y,z
1/2+x,1/2-y,z
loop_
_atom_site_type_symbol
_atom_site_label
_atom_site_fract_x
_atom_site_fract_y
_atom_site_fract_z
Si Si1 0.835509 0.433965 0.543033
Si Si2 0.101448 0.764663 0.219718
Si Si3 0.657554 0.175625 0.442471
Si Si4 0.843834 0.740204 0.117144
Si Si5 0.803825 0.052058 0.392701
Si Si6 0.879507 0.259929 0.732311
Si Si7 0.939059 0.121706 0.475228
O O1 0.916601 0.416601 0.500000
O O2 0.839103 0.543193 0.562923
O O3 0.850917 0.363970 0.590668
O O4 0.732579 0.411203 0.515878
O O5 0.143979 0.856022 0.250000
O O6 0.105051 0.796254 0.161120
O O7 0.163103 0.667873 0.228934
O O8 0.993784 0.736543 0.236215
O O9 0.693641 0.193641 0.500000
O O10 0.695793 0.257877 0.404944
O O11 0.709210 0.076687 0.426020
O O12 0.833773 0.717246 0.176935
O O13 0.937624 0.806931 0.110883
O O14 0.902035 0.088543 0.419785
O O15 0.846687 0.153314 0.750000
O O16 0.055615 0.109664 0.480194
#
# Coordination Sequence:
#
# PCOD8311257 Si02
#       7
#    16  16  16  16  16  16  16
#     4  12  27  43  64  95 137 178 227 285 334 402
#     4  10  23  46  72 103 141 176 230 290 353 416
#     4  12  25  41  67  96 131 185 225 274 344 400
#     4  11  25  44  67  97 134 176 227 282 339 411
#     4  11  25  46  68 100 137 180 230 283 342 420
#     4  10  23  44  71 100 134 179 226 285 351 416
#     4  11  25  40  65  98 134 181 228 276 338 406
#
# _framework density 22.195596999999999
#
# number of rings (size 3 to 8) (size 9 to 14) (size 15 to 20)
#    0.000    1.000    1.429    4.714    8.000    4.857 
#    0.000    2.857    0.000    0.000    0.000    0.000 
#    0.000    0.000    0.000    0.000    0.000    0.000 
#
# Total GULP energy -694410.563027 kJ/mol
# GULP energy per Si atom -12400.188625 kJ/mol
# Density = 2.214508 g / cm^3
# Si number density = 22.195597 Si / 1000 Ang^3
#
#
#
# Elastic Constant Matrix: (Units=GPa)
#
#
# Indices 1 2 3 4 5 6 
#
# 1 86.3791 28.1578 45.2150 0.0000 0.0000 0.0000
# 2 28.1578 86.3801 45.2138 0.0000 0.0000 0.0000
# 3 45.2150 45.2138 124.3770 0.0000 0.0000 0.0000
# 4 0.0000 0.0000 0.0000 34.2145 0.0000 0.0000
# 5 0.0000 0.0000 0.0000 0.0000 34.2146 0.0000
# 6 0.0000 0.0000 0.0000 0.0000 0.0000 25.2690
#
#
#
# Elastic Compliance Matrix: (Units=1/GPa)
#
#
# Indices 1 2 3 4 5 6 
#
# 1 0.014711 -0.002465 -0.004452 0.000000 0.000000 0.000000
# 2 -0.002465 0.014710 -0.004451 0.000000 0.000000 0.000000
# 3 -0.004452 -0.004451 0.011277 0.000000 0.000000 0.000000
# 4 0.000000 0.000000 0.000000 0.029227 0.000000 0.000000
# 5 0.000000 0.000000 0.000000 0.000000 0.029227 0.000000
# 6 0.000000 0.000000 0.000000 0.000000 0.000000 0.039574
#
#
# Mechanical properties :
#
#
# Convention : Reuss Voigt Hill
#
# Bulk Modulus (GPa) = 55.67571 59.36771 57.52171
# Shear Modulus (GPa) = 29.85969 30.64292 30.25130
#
# Velocity S-wave (km/s) = 3.67181 3.71965 3.69581
# Velocity P-wave (km/s) = 6.56619 6.72706 6.64711
#
# Compressibility (1/GPa) = 0.01796115
#
# Stress axis : x y z
#
# Youngs Moduli (GPa) = 67.97779 67.97956 88.67958
#
# Poissons Ratio (x) = 0.16758 0.39477
# Poissons Ratio (y) = 0.16758 0.39474
# Poissons Ratio (z) = 0.30261 0.30260
#
# Static dielectric constant tensor:
#      x y z
#    x 4.085860 0.000000 0.000000 
#    y 0.000000 4.085850 0.000000 
#    z 0.000000 0.000000 4.130350 
# 
# 
# High freq. dielectric constant tensor:
#      x y z
#    x 1.880410 0.000000 0.000000 
#    y 0.000000 1.880410 0.000000 
#    z 0.000000 0.000000 1.874790 
# 
# From -- ./inp_files/6295.got.cif
#   From: 2010.03.12/outbox.cif.g09.slc.cpg/sg120_4_cif.got.tgz:6295.got - 2010.04.06 16:00:44.
