data_PCOD8311522
_publ_section_title
;
Structure prediction by ZEFSAII (Michael W. Deem and Ramdas Pophale) SiO2 
 PCOD8311522
Probable space group: I -4 2 M
;
_chemical_formula_sum "Si O2"
_cell_formula_units_Z 128
_cell_length_a 19.948929
_cell_length_b 19.948929
_cell_length_c 17.303885
_cell_angle_alpha 90.000000
_cell_angle_beta 90.000000
_cell_angle_gamma 90.000000
_cell_volume 6886.250064
_symmetry_space_group_name_H-M "I -4 2 M"
_symmetry_group_IT_number 121
_symmetry_cell_setting 'tetragonal'
loop_
_space_group_symop_operation_xyz
x,y,z
y,-x,-z
-x,-y,z
-y,x,-z
x,-y,-z
-x,y,-z
-y,-x,z
y,x,z
1/2+x,1/2+y,1/2+z
1/2+y,1/2-x,1/2-z
1/2-x,1/2-y,1/2+z
1/2-y,1/2+x,1/2-z
1/2+x,1/2-y,1/2-z
1/2-x,1/2+y,1/2-z
1/2-y,1/2-x,1/2+z
1/2+y,1/2+x,1/2+z
loop_
_atom_site_type_symbol
_atom_site_label
_atom_site_fract_x
_atom_site_fract_y
_atom_site_fract_z
Si Si1 0.657006 0.240060 0.112032
Si Si2 0.390913 0.496123 0.084617
Si Si3 0.365512 0.064569 0.449303
Si Si4 0.100655 0.485482 0.778700
Si Si5 0.260815 0.367177 0.397062
Si Si6 0.489931 0.772558 0.323654
Si Si7 0.811017 0.572061 0.526344
Si Si8 0.175021 0.068917 0.284786
O O1 0.698960 0.301041 0.070375
O O2 0.602197 0.206194 0.056214
O O3 0.709073 0.184311 0.142605
O O4 0.621367 0.269136 0.187432
O O5 0.448856 0.551145 0.085497
O O6 0.422986 0.422986 0.100933
O O7 0.335786 0.512316 0.149356
O O8 0.356266 0.500000 0.000000
O O9 0.396060 0.044930 0.365533
O O10 0.416391 0.113115 0.495672
O O11 0.352695 0.000000 0.500000
O O12 0.064304 0.558020 0.776812
O O13 0.175205 0.496389 0.746500
O O14 0.336738 0.336738 0.390544
O O15 0.247021 0.438101 0.357920
O O16 0.239771 0.373543 0.488066
O O17 0.433239 0.803420 0.381160
O O18 0.464610 0.701280 0.292847
O O19 0.785810 0.500000 0.500000
O O20 0.105160 0.105160 0.265216
#
# Coordination Sequence:
#
# PCOD8311522 Si02
#       8
#    16  16  16  16  16  16  16  16
#     4   9  18  36  55  74 105 147 188 223 273 328
#     4   8  15  30  52  76 103 140 184 227 275 336
#     4  11  21  35  56  84 111 148 188 230 275 334
#     4  11  22  36  55  83 116 148 181 226 284 338
#     4   9  19  36  59  78 102 143 188 230 273 331
#     4  11  21  35  56  84 113 143 184 233 280 336
#     4   9  19  35  54  78 107 143 183 223 274 330
#     4  10  20  33  52  79 111 148 182 226 284 336
#
# _framework density 18.587765999999998
#
# number of rings (size 3 to 8) (size 9 to 14) (size 15 to 20)
#    0.000    2.250    1.250    3.375    0.000    2.750 
#    0.000    0.000    0.000    0.750    0.000    0.000 
#    0.000    0.000    0.000    0.000    0.000    0.000 
#
# Total GULP energy -792915.199625 kJ/mol
# GULP energy per Si atom -12389.299994 kJ/mol
# Density = 1.854546 g / cm^3
# Si number density = 18.587766 Si / 1000 Ang^3
#
#
#
# Elastic Constant Matrix: (Units=GPa)
#
#
# Indices 1 2 3 4 5 6 
#
# 1 92.0640 51.2231 50.9836 0.0000 0.0000 0.0000
# 2 51.2231 92.0632 50.9835 0.0000 0.0000 0.0000
# 3 50.9836 50.9835 105.7778 0.0000 0.0000 0.0000
# 4 0.0000 0.0000 0.0000 27.4072 0.0000 0.0000
# 5 0.0000 0.0000 0.0000 0.0000 27.4069 0.0000
# 6 0.0000 0.0000 0.0000 0.0000 0.0000 30.9994
#
#
#
# Elastic Compliance Matrix: (Units=1/GPa)
#
#
# Indices 1 2 3 4 5 6 
#
# 1 0.017554 -0.006932 -0.005120 0.000000 0.000000 0.000000
# 2 -0.006932 0.017554 -0.005120 0.000000 0.000000 0.000000
# 3 -0.005120 -0.005120 0.014389 0.000000 0.000000 0.000000
# 4 0.000000 0.000000 0.000000 0.036487 0.000000 0.000000
# 5 0.000000 0.000000 0.000000 0.000000 0.036487 0.000000
# 6 0.000000 0.000000 0.000000 0.000000 0.000000 0.032259
#
#
# Mechanical properties :
#
#
# Convention : Reuss Voigt Hill
#
# Bulk Modulus (GPa) = 65.98657 66.25394 66.12026
# Shear Modulus (GPa) = 25.75671 26.27699 26.01685
#
# Velocity S-wave (km/s) = 3.72651 3.76396 3.74528
# Velocity P-wave (km/s) = 7.35479 7.38993 7.37238
#
# Compressibility (1/GPa) = 0.01515460
#
# Stress axis : x y z
#
# Youngs Moduli (GPa) = 56.96735 56.96676 69.49646
#
# Poissons Ratio (x) = 0.39487 0.35581
# Poissons Ratio (y) = 0.39487 0.35582
# Poissons Ratio (z) = 0.29167 0.29167
#
# Static dielectric constant tensor:
#      x y z
#    x 3.538040 0.000000 0.000000 
#    y 0.000000 3.538050 0.000000 
#    z 0.000000 0.000000 3.469270 
# 
# 
# High freq. dielectric constant tensor:
#      x y z
#    x 1.718900 0.000000 0.000000 
#    y 0.000000 1.718900 0.000000 
#    z 0.000000 0.000000 1.699420 
# 
# From -- ./inp_files/5660.got.cif
#   From: 2010.03.12/outbox.cif.g09.slc.cpg/sg121_3_cif.got.tgz:5660.got - 2010.04.06 16:06:48.
