data_PCOD8311392
_publ_section_title
;
Structure prediction by ZEFSAII (Michael W. Deem and Ramdas Pophale) SiO2 
 PCOD8311392
Probable space group: I -4 2 M
;
_chemical_formula_sum "Si O2"
_cell_formula_units_Z 112
_cell_length_a 19.159454
_cell_length_b 19.159454
_cell_length_c 17.992660
_cell_angle_alpha 90.000000
_cell_angle_beta 90.000000
_cell_angle_gamma 90.000000
_cell_volume 6604.829795
_symmetry_space_group_name_H-M "I -4 2 M"
_symmetry_group_IT_number 121
_symmetry_cell_setting 'tetragonal'
loop_
_space_group_symop_operation_xyz
x,y,z
y,-x,-z
-x,-y,z
-y,x,-z
x,-y,-z
-x,y,-z
-y,-x,z
y,x,z
1/2+x,1/2+y,1/2+z
1/2+y,1/2-x,1/2-z
1/2-x,1/2-y,1/2+z
1/2-y,1/2+x,1/2-z
1/2+x,1/2-y,1/2-z
1/2-x,1/2+y,1/2-z
1/2-y,1/2-x,1/2+z
1/2+y,1/2+x,1/2+z
loop_
_atom_site_type_symbol
_atom_site_label
_atom_site_fract_x
_atom_site_fract_y
_atom_site_fract_z
Si Si1 0.757366 0.649118 0.696706
Si Si2 0.302631 0.419314 0.170634
Si Si3 0.128629 0.331599 0.587717
Si Si4 0.577570 0.000000 0.411882
Si Si5 0.331599 0.871372 0.587716
Si Si6 0.242634 0.649118 0.696705
Si Si7 0.802631 0.919314 0.329366
O O1 0.689942 0.689942 0.666900
O O2 0.803480 0.631959 0.624534
O O3 0.802013 0.697987 0.750000
O O4 0.731000 0.583667 0.746208
O O5 0.373608 0.373608 0.165938
O O6 0.247998 0.386475 0.111888
O O7 0.269000 0.416333 0.253793
O O8 0.319435 0.500000 0.151377
O O9 0.066448 0.380245 0.616519
O O10 0.138905 0.333021 0.500000
O O11 0.500000 0.000000 0.377043
O O12 0.573318 0.000000 0.500000
O O13 0.619756 0.933553 0.383482
O O14 0.368041 0.803481 0.624534
O O15 0.252001 0.886476 0.611887
O O16 0.310058 0.689943 0.666897
O O17 0.873609 0.873609 0.334063
#
# Coordination Sequence:
#
# PCOD8311392 Si02
#       7
#    16  16  16  16  16  16  16
#     4   8  16  30  47  67  92 125 164 208 252 294
#     4  10  20  34  52  73 101 137 176 218 260 304
#     4  10  18  31  51  74 102 134 168 207 256 312
#     4   9  18  30  44  66  97 131 162 194 241 300
#     4  10  18  31  51  74 102 134 168 207 256 312
#     4   8  16  30  47  67  92 125 164 208 252 294
#     4  10  20  34  52  73 101 137 176 218 260 304
#
# _framework density 16.957287999999998
#
# number of rings (size 3 to 8) (size 9 to 14) (size 15 to 20)
#    0.000    2.714    1.429    2.571    0.000    3.714 
#    0.000    0.000    0.000    0.000    0.000    2.000 
#    0.000    0.000    0.000    6.286    0.000    0.000 
#
# Total GULP energy -693876.159541 kJ/mol
# GULP energy per Si atom -12390.645706 kJ/mol
# Density = 1.691869 g / cm^3
# Si number density = 16.957288 Si / 1000 Ang^3
#
#
#
# Elastic Constant Matrix: (Units=GPa)
#
#
# Indices 1 2 3 4 5 6 
#
# 1 62.7539 6.5821 22.7388 0.0000 0.0000 0.0000
# 2 6.5821 62.7557 22.7388 0.0000 0.0000 0.0000
# 3 22.7388 22.7388 77.2735 0.0000 0.0000 0.0000
# 4 0.0000 0.0000 0.0000 21.6206 0.0000 0.0000
# 5 0.0000 0.0000 0.0000 0.0000 21.6206 0.0000
# 6 0.0000 0.0000 0.0000 0.0000 0.0000 20.7541
#
#
#
# Elastic Compliance Matrix: (Units=1/GPa)
#
#
# Indices 1 2 3 4 5 6 
#
# 1 0.017837 0.000035 -0.005259 0.000000 0.000000 0.000000
# 2 0.000035 0.017837 -0.005259 0.000000 0.000000 0.000000
# 3 -0.005259 -0.005259 0.016036 0.000000 0.000000 0.000000
# 4 0.000000 0.000000 0.000000 0.046252 0.000000 0.000000
# 5 0.000000 0.000000 0.000000 0.000000 0.046252 0.000000
# 6 0.000000 0.000000 0.000000 0.000000 0.000000 0.048183
#
#
# Mechanical properties :
#
#
# Convention : Reuss Voigt Hill
#
# Bulk Modulus (GPa) = 32.52722 34.10029 33.31375
# Shear Modulus (GPa) = 22.36016 22.84729 22.60372
#
# Velocity S-wave (km/s) = 3.63522 3.67460 3.65496
# Velocity P-wave (km/s) = 6.06986 6.17712 6.12372
#
# Compressibility (1/GPa) = 0.03074349
#
# Stress axis : x y z
#
# Youngs Moduli (GPa) = 56.06250 56.06431 62.35931
#
# Poissons Ratio (x) = -0.00195 0.32795
# Poissons Ratio (y) = -0.00195 0.32794
# Poissons Ratio (z) = 0.29484 0.29484
#
# Static dielectric constant tensor:
#      x y z
#    x 3.206800 0.000000 0.000000 
#    y 0.000000 3.206790 0.000000 
#    z 0.000000 0.000000 3.090540 
# 
# 
# High freq. dielectric constant tensor:
#      x y z
#    x 1.643190 0.000000 0.000000 
#    y 0.000000 1.643190 0.000000 
#    z 0.000000 0.000000 1.636930 
# 
# From -- ./inp_files/5625.got.cif
#   From: 2010.03.12/outbox.cif.g09.slc.cpg/sg121_3_cif.got.tgz:5625.got - 2010.04.06 16:06:48.
