data_PCOD8311232
_publ_section_title
;
Structure prediction by ZEFSAII (Michael W. Deem and Ramdas Pophale) SiO2 
 PCOD8311232
Probable space group: I -4 C 2
;
_chemical_formula_sum "Si O2"
_cell_formula_units_Z 104
_cell_length_a 17.379612
_cell_length_b 17.379612
_cell_length_c 17.935501
_cell_angle_alpha 90.000000
_cell_angle_beta 90.000000
_cell_angle_gamma 90.000000
_cell_volume 5417.434457
_symmetry_space_group_name_H-M "I -4 C 2"
_symmetry_group_IT_number 120
_symmetry_cell_setting 'tetragonal'
loop_
_space_group_symop_operation_xyz
x,y,z
y,-x,-z
-x,-y,z
-y,x,-z
y,x,1/2-z
-y,-x,1/2-z
-x,y,1/2+z
x,-y,1/2+z
1/2+x,1/2+y,1/2+z
1/2+y,1/2-x,1/2-z
1/2-x,1/2-y,1/2+z
1/2-y,1/2+x,1/2-z
1/2+y,1/2+x,-z
1/2-y,1/2-x,-z
1/2-x,1/2+y,z
1/2+x,1/2-y,z
loop_
_atom_site_type_symbol
_atom_site_label
_atom_site_fract_x
_atom_site_fract_y
_atom_site_fract_z
Si Si1 0.418563 0.960924 0.855130
Si Si2 0.630846 0.869155 0.500000
Si Si3 0.280687 0.207473 0.880979
Si Si4 0.588257 0.154632 0.721341
Si Si5 0.435887 0.703462 0.965587
Si Si6 0.376891 0.706787 0.809895
Si Si7 0.116529 0.200180 0.489130
O O1 0.415602 0.917005 0.776665
O O2 0.500000 0.000000 0.869442
O O3 0.354591 0.026901 0.845449
O O4 0.399755 0.910160 0.926276
O O5 0.613961 0.779281 0.487190
O O6 0.336222 0.169976 0.819248
O O7 0.205181 0.242268 0.839449
O O8 0.335058 0.270630 0.918237
O O9 0.247462 0.144230 0.938631
O O10 0.571248 0.230028 0.769274
O O11 0.429231 0.680724 0.878620
O O12 0.525034 0.712797 0.984858
O O13 0.391578 0.633793 0.007266
O O14 0.361503 0.638498 0.750000
#
# Coordination Sequence:
#
# PCOD8311232 Si02
#       7
#    16   8  16  16  16  16  16
#     4  12  24  37  52  90 133 165 197 241 303 373
#     4  12  25  40  66  88 128 169 212 250 306 376
#     4   9  20  38  60  89 120 161 209 255 299 376
#     4  11  20  36  57  82 126 166 198 243 300 366
#     4  11  22  40  62  92 118 166 206 266 312 372
#     4   9  19  37  62  84 116 162 204 252 308 363
#     4  10  22  38  62  92 125 156 214 263 313 365
#
# _framework density 19.197279999999999
#
# number of rings (size 3 to 8) (size 9 to 14) (size 15 to 20)
#    0.000    1.538    3.077    3.000    4.308    0.308 
#    0.000    0.000    0.000    0.000    0.000    8.615 
#    0.000    0.000    0.000    0.000    0.000    0.000 
#
# Total GULP energy -644357.158862 kJ/mol
# GULP energy per Si atom -12391.483824 kJ/mol
# Density = 1.915359 g / cm^3
# Si number density = 19.197280 Si / 1000 Ang^3
#
#
#
# Elastic Constant Matrix: (Units=GPa)
#
#
# Indices 1 2 3 4 5 6 
#
# 1 83.9986 37.7870 25.8559 0.0000 0.0000 0.0000
# 2 37.7870 83.9981 25.8556 0.0000 0.0001 0.0000
# 3 25.8559 25.8556 88.2147 0.0000 0.0000 0.0000
# 4 0.0000 0.0000 0.0000 -177.7139 -0.0001 0.0000
# 5 0.0000 0.0001 0.0000 -0.0001 -178.4760 0.0000
# 6 0.0000 0.0000 0.0000 0.0000 0.0000 32.1023
#
#
#
# Elastic Compliance Matrix: (Units=1/GPa)
#
#
# Indices 1 2 3 4 5 6 
#
# 1 0.015509 -0.006131 -0.002749 0.000000 0.000000 0.000000
# 2 -0.006131 0.015509 -0.002749 0.000000 0.000000 0.000000
# 3 -0.002749 -0.002749 0.012947 0.000000 0.000000 0.000000
# 4 0.000000 0.000000 0.000000 -0.005627 0.000000 0.000000
# 5 0.000000 0.000000 0.000000 0.000000 -0.005603 0.000000
# 6 0.000000 0.000000 0.000000 0.000000 0.000000 0.031150
#
#
# Mechanical properties :
#
#
# Convention : Reuss Voigt Hill
#
# Bulk Modulus (GPa) = 48.28860 48.35650 48.32255
# Shear Modulus (GPa) = 53.16589 -53.70332 -0.26871
#
# Velocity S-wave (km/s) = 5.26826 -5.29483 -0.37454
# Velocity P-wave (km/s) = 7.88763 3.48372 5.00392
#
# Compressibility (1/GPa) = 0.02070882
#
# Stress axis : x y z
#
# Youngs Moduli (GPa) = 64.47875 64.47848 77.23611
#
# Poissons Ratio (x) = 0.39530 0.21231
# Poissons Ratio (y) = 0.39530 0.21230
# Poissons Ratio (z) = 0.17724 0.17724
#
# Static dielectric constant tensor:
#      x y z
#    x 3.823200 0.000000 0.000000 
#    y 0.000000 3.821820 0.000000 
#    z 0.000000 0.000000 3.859440 
# 
# 
# High freq. dielectric constant tensor:
#      x y z
#    x 1.730790 0.000000 0.000000 
#    y 0.000000 1.730790 0.000000 
#    z 0.000000 0.000000 1.767400 
# 
# From -- ./inp_files/4522.got.cif
#   From: 2010.03.12/outbox.cif.g09.slc.cpg/sg120_3_cif.got.tgz:4522.got - 2010.04.06 16:00:44.
