data_PCOD8311284
_publ_section_title
;
Structure prediction by ZEFSAII (Michael W. Deem and Ramdas Pophale) SiO2 
 PCOD8311284
Probable space group: I -4 C 2
;
_chemical_formula_sum "Si O2"
_cell_formula_units_Z 96
_cell_length_a 15.420024
_cell_length_b 15.420024
_cell_length_c 19.562971
_cell_angle_alpha 90.000000
_cell_angle_beta 90.000000
_cell_angle_gamma 90.000000
_cell_volume 4651.627297
_symmetry_space_group_name_H-M "I -4 C 2"
_symmetry_group_IT_number 120
_symmetry_cell_setting 'tetragonal'
loop_
_space_group_symop_operation_xyz
x,y,z
y,-x,-z
-x,-y,z
-y,x,-z
y,x,1/2-z
-y,-x,1/2-z
-x,y,1/2+z
x,-y,1/2+z
1/2+x,1/2+y,1/2+z
1/2+y,1/2-x,1/2-z
1/2-x,1/2-y,1/2+z
1/2-y,1/2+x,1/2-z
1/2+y,1/2+x,-z
1/2-y,1/2-x,-z
1/2-x,1/2+y,z
1/2+x,1/2-y,z
loop_
_atom_site_type_symbol
_atom_site_label
_atom_site_fract_x
_atom_site_fract_y
_atom_site_fract_z
Si Si1 0.834642 0.339047 0.081444
Si Si2 0.186526 0.301739 0.080978
Si Si3 0.498491 0.252555 0.133676
Si Si4 0.140942 0.999776 0.736991
Si Si5 0.134865 0.999706 0.984899
Si Si6 0.748484 0.015443 0.107420
O O1 0.760384 0.268807 0.100947
O O2 0.814512 0.433173 0.112972
O O3 0.926244 0.319084 0.117504
O O4 0.844440 0.344440 0.000000
O O5 0.093640 0.271627 0.107643
O O6 0.202569 0.392401 0.120759
O O7 0.184457 0.315543 0.000000
O O8 0.498995 0.275182 0.213609
O O9 0.470390 0.338428 0.090866
O O10 0.087642 0.912359 0.750000
O O11 0.172430 0.002011 0.659350
O O12 0.084039 0.084039 0.750000
O O13 0.218304 0.979349 0.029755
O O14 0.085562 0.077170 0.022500
#
# Coordination Sequence:
#
# PCOD8311284 Si02
#       6
#    16  16  16  16  16  16
#     4  11  22  40  66  95 130 171 221 278 327 384
#     4  11  22  40  66  95 130 171 221 278 327 384
#     4  12  24  40  63  94 129 172 219 263 325 391
#     4  11  24  42  64  95 134 170 216 279 338 393
#     4  11  20  34  60  89 118 158 212 273 326 369
#     4  12  24  40  63  94 129 172 219 263 325 391
#
# _framework density 20.637938999999999
#
# number of rings (size 3 to 8) (size 9 to 14) (size 15 to 20)
#    0.000    0.667    3.333    6.000    0.000    4.667 
#    0.000    5.000    0.000    2.000    0.000    0.000 
#    0.000    0.000    0.000    0.000    0.000    0.000 
#
# Total GULP energy -595278.042976 kJ/mol
# GULP energy per Si atom -12401.625895 kJ/mol
# Density = 2.059097 g / cm^3
# Si number density = 20.637939 Si / 1000 Ang^3
#
#
#
# Elastic Constant Matrix: (Units=GPa)
#
#
# Indices 1 2 3 4 5 6 
#
# 1 78.9339 4.5148 18.3390 0.0000 0.0000 0.0000
# 2 4.5148 78.9335 18.3391 0.0000 0.0000 0.0000
# 3 18.3390 18.3391 58.1335 0.0000 0.0000 0.0000
# 4 0.0000 0.0000 0.0000 29.8248 0.0000 0.0000
# 5 0.0000 0.0000 0.0000 0.0000 29.8247 0.0000
# 6 0.0000 0.0000 0.0000 0.0000 0.0000 -152.9073
#
#
#
# Elastic Compliance Matrix: (Units=1/GPa)
#
#
# Indices 1 2 3 4 5 6 
#
# 1 0.013675 0.000238 -0.004389 0.000000 0.000000 0.000000
# 2 0.000238 0.013675 -0.004389 0.000000 0.000000 0.000000
# 3 -0.004389 -0.004389 0.019971 0.000000 0.000000 0.000000
# 4 0.000000 0.000000 0.000000 0.033529 0.000000 0.000000
# 5 0.000000 0.000000 0.000000 0.000000 0.033529 0.000000
# 6 0.000000 0.000000 0.000000 0.000000 0.000000 -0.006540
#
#
# Mechanical properties :
#
#
# Convention : Reuss Voigt Hill
#
# Bulk Modulus (GPa) = 33.06848 33.15407 33.11128
# Shear Modulus (GPa) = 37.03704 -6.99770 15.01967
#
# Velocity S-wave (km/s) = 4.24088 -1.84338 2.70065
# Velocity P-wave (km/s) = 6.32756 3.40129 5.07970
#
# Compressibility (1/GPa) = 0.03024027
#
# Stress axis : x y z
#
# Youngs Moduli (GPa) = 73.12650 73.12608 50.07292
#
# Poissons Ratio (x) = -0.01737 0.21976
# Poissons Ratio (y) = -0.01737 0.21977
# Poissons Ratio (z) = 0.32094 0.32094
#
# Static dielectric constant tensor:
#      x y z
#    x 3.858560 0.000000 0.000000 
#    y 0.000000 3.858570 0.000000 
#    z 0.000000 0.000000 3.501750 
# 
# 
# High freq. dielectric constant tensor:
#      x y z
#    x 1.810570 0.000000 0.000000 
#    y 0.000000 1.810570 0.000000 
#    z 0.000000 0.000000 1.796150 
# 
# From -- ./inp_files/5334.got.cif
#   From: 2010.03.12/outbox.cif.g09.slc.cpg/sg120_3_cif.got.tgz:5334.got - 2010.04.06 16:00:44.
