data_PCOD8311576
_publ_section_title
;
Structure prediction by ZEFSAII (Michael W. Deem and Ramdas Pophale) SiO2 
 PCOD8311576
Probable space group: I -4 2 M
;
_chemical_formula_sum "Si O2"
_cell_formula_units_Z 112
_cell_length_a 30.820487
_cell_length_b 30.820487
_cell_length_c 5.421292
_cell_angle_alpha 90.000000
_cell_angle_beta 90.000000
_cell_angle_gamma 90.000000
_cell_volume 5149.698384
_symmetry_space_group_name_H-M "I -4 2 M"
_symmetry_group_IT_number 121
_symmetry_cell_setting 'tetragonal'
loop_
_space_group_symop_operation_xyz
x,y,z
y,-x,-z
-x,-y,z
-y,x,-z
x,-y,-z
-x,y,-z
-y,-x,z
y,x,z
1/2+x,1/2+y,1/2+z
1/2+y,1/2-x,1/2-z
1/2-x,1/2-y,1/2+z
1/2-y,1/2+x,1/2-z
1/2+x,1/2-y,1/2-z
1/2-x,1/2+y,1/2-z
1/2-y,1/2-x,1/2+z
1/2+y,1/2+x,1/2+z
loop_
_atom_site_type_symbol
_atom_site_label
_atom_site_fract_x
_atom_site_fract_y
_atom_site_fract_z
Si Si1 0.111040 0.751308 0.885619
Si Si2 0.453286 0.616517 0.409645
Si Si3 0.303951 0.768286 0.164159
Si Si4 0.950369 0.414550 0.008817
Si Si5 0.607835 0.674728 0.267749
Si Si6 0.298743 0.544081 0.115265
Si Si7 0.656980 0.121343 0.004542
O O1 0.145707 0.746463 0.661361
O O2 0.061193 0.765031 0.820193
O O3 0.106890 0.706750 0.036637
O O4 0.129630 0.791690 0.042921
O O5 0.500000 0.598774 0.500000
O O6 0.424404 0.575597 0.314450
O O7 0.427484 0.641786 0.620256
O O8 0.462787 0.651471 0.196467
O O9 0.273501 0.726500 0.157011
O O10 0.297706 0.794791 0.423491
O O11 0.940800 0.442614 0.762991
O O12 0.921988 0.371261 0.009716
O O13 0.000000 0.399856 0.000000
O O14 0.646668 0.646668 0.149177
O O15 0.584072 0.703743 0.069423
O O16 0.280298 0.500000 0.000000
O O17 0.651785 0.144869 0.737097
#
# Coordination Sequence:
#
# PCOD8311576 Si02
#       7
#    16  16  16  16  16  16  16
#     4  11  24  38  63  93 123 167 219 260 314 392
#     4  10  20  38  61  86 118 158 203 258 330 401
#     4  10  22  39  61  92 130 167 210 269 324 376
#     4  10  21  39  62  94 128 165 211 266 323 384
#     4  10  22  39  63  89 121 160 202 264 325 385
#     4  11  23  41  62  89 125 164 213 270 329 395
#     4  10  23  43  66  92 134 180 221 265 327 387
#
# _framework density 21.748846
#
# number of rings (size 3 to 8) (size 9 to 14) (size 15 to 20)
#    0.000    1.714    1.429    2.143    4.000    2.714 
#    2.571    0.000    0.000    0.000    0.000    0.000 
#    0.000    0.000    0.000    0.000    0.000    0.000 
#
# Total GULP energy -694135.676465 kJ/mol
# GULP energy per Si atom -12395.279937 kJ/mol
# Density = 2.169934 g / cm^3
# Si number density = 21.748846 Si / 1000 Ang^3
#
#
#
# Elastic Constant Matrix: (Units=GPa)
#
#
# Indices 1 2 3 4 5 6 
#
# 1 115.6913 59.2779 31.5161 0.0000 0.0000 0.0000
# 2 59.2779 115.6864 31.5165 0.0000 0.0000 0.0000
# 3 31.5161 31.5165 96.9469 0.0000 0.0000 0.0000
# 4 0.0000 0.0000 0.0000 23.6165 0.0000 0.0000
# 5 0.0000 0.0000 0.0000 0.0000 23.6161 0.0000
# 6 0.0000 0.0000 0.0000 0.0000 0.0000 16.1740
#
#
#
# Elastic Compliance Matrix: (Units=1/GPa)
#
#
# Indices 1 2 3 4 5 6 
#
# 1 0.012100 -0.005627 -0.002104 0.000000 0.000000 0.000000
# 2 -0.005627 0.012101 -0.002105 0.000000 0.000000 0.000000
# 3 -0.002104 -0.002105 0.011683 0.000000 0.000000 0.000000
# 4 0.000000 0.000000 0.000000 0.042343 0.000000 0.000000
# 5 0.000000 0.000000 0.000000 0.000000 0.042344 0.000000
# 6 0.000000 0.000000 0.000000 0.000000 0.000000 0.061828
#
#
# Mechanical properties :
#
#
# Convention : Reuss Voigt Hill
#
# Bulk Modulus (GPa) = 61.68129 63.66062 62.67095
# Shear Modulus (GPa) = 24.09939 26.41560 25.25749
#
# Velocity S-wave (km/s) = 3.33239 3.48886 3.41152
# Velocity P-wave (km/s) = 6.57485 6.75010 6.66305
#
# Compressibility (1/GPa) = 0.01621237
#
# Stress axis : x y z
#
# Youngs Moduli (GPa) = 82.64480 82.64072 85.59304
#
# Poissons Ratio (x) = 0.46500 0.18012
# Poissons Ratio (y) = 0.46502 0.18014
# Poissons Ratio (z) = 0.17391 0.17393
#
# Static dielectric constant tensor:
#      x y z
#    x 3.869170 0.000000 0.000000 
#    y 0.000000 3.869170 0.000000 
#    z 0.000000 0.000000 4.121050 
# 
# 
# High freq. dielectric constant tensor:
#      x y z
#    x 1.855570 0.000000 0.000000 
#    y 0.000000 1.855570 0.000000 
#    z 0.000000 0.000000 1.851490 
# 
# From -- ./inp_files/710.got.cif
#   From: 2010.03.12/outbox.cif.g09.slc.cpg/sg121_1_cif.got.tgz:710.got - 2010.04.06 16:06:48.
