data_PCOD8311058
_publ_section_title
;
Structure prediction by ZEFSAII (Michael W. Deem and Ramdas Pophale) SiO2 
 PCOD8311058
Probable space group: I -4 M 2
;
_chemical_formula_sum "Si O2"
_cell_formula_units_Z 64
_cell_length_a 18.489574
_cell_length_b 18.489574
_cell_length_c 9.355298
_cell_angle_alpha 90.000000
_cell_angle_beta 90.000000
_cell_angle_gamma 90.000000
_cell_volume 3198.242839
_symmetry_space_group_name_H-M "I -4 M 2"
_symmetry_group_IT_number 119
_symmetry_cell_setting 'tetragonal'
loop_
_space_group_symop_operation_xyz
x,y,z
y,-x,-z
-x,-y,z
-y,x,-z
y,x,-z
-y,-x,-z
-x,y,z
x,-y,z
1/2+x,1/2+y,1/2+z
1/2+y,1/2-x,1/2-z
1/2-x,1/2-y,1/2+z
1/2-y,1/2+x,1/2-z
1/2+y,1/2+x,1/2-z
1/2-y,1/2-x,1/2-z
1/2-x,1/2+y,1/2+z
1/2+x,1/2-y,1/2+z
loop_
_atom_site_type_symbol
_atom_site_label
_atom_site_fract_x
_atom_site_fract_y
_atom_site_fract_z
Si Si1 0.417191 0.193349 0.055210
Si Si2 0.302174 0.080775 0.107468
Si Si3 0.418483 0.356022 0.371491
Si Si4 0.661386 0.416910 0.113224
O O1 0.500000 0.170088 0.020236
O O2 0.360185 0.129646 0.023056
O O3 0.408187 0.207862 0.222757
O O4 0.394653 0.262198 0.959195
O O5 0.221404 0.095985 0.051488
O O6 0.328613 0.000000 0.073703
O O7 0.413536 0.413536 0.500000
O O8 0.500000 0.358805 0.304989
O O9 0.357167 0.370124 0.252807
O O10 0.661073 0.500000 0.158076
O O11 0.597888 0.402113 0.000000
#
# Coordination Sequence:
#
# PCOD8311058 Si02
#       4
#    16  16  16  16
#     4   9  18  34  56  84 115 146 188 238 286 346
#     4   9  18  35  56  81 116 150 185 236 289 343
#     4  11  23  39  56  81 117 155 196 243 292 346
#     4  11  21  35  56  82 113 149 192 241 288 340
#
# _framework density 20.010988999999999
#
# number of rings (size 3 to 8) (size 9 to 14) (size 15 to 20)
#    0.000    2.000    2.500    1.500    0.000    4.500 
#    0.000    2.500    0.000    0.000    0.000    0.000 
#    0.000    8.000    0.000    0.000    0.000    0.000 
#
# Total GULP energy -396539.918680 kJ/mol
# GULP energy per Si atom -12391.872459 kJ/mol
# Density = 1.996544 g / cm^3
# Si number density = 20.010989 Si / 1000 Ang^3
#
#
#
# Elastic Constant Matrix: (Units=GPa)
#
#
# Indices 1 2 3 4 5 6 
#
# 1 118.4772 90.4503 36.7971 0.0000 0.0000 0.0000
# 2 90.4503 118.4737 36.7967 0.0000 0.0000 0.0000
# 3 36.7971 36.7967 65.4583 0.0000 0.0000 0.0000
# 4 0.0000 0.0000 0.0000 26.3253 0.0000 0.0000
# 5 0.0000 0.0000 0.0000 0.0000 26.3255 0.0000
# 6 0.0000 0.0000 0.0000 0.0000 0.0000 40.9144
#
#
#
# Elastic Compliance Matrix: (Units=1/GPa)
#
#
# Indices 1 2 3 4 5 6 
#
# 1 0.020825 -0.014857 -0.003355 0.000000 0.000000 0.000000
# 2 -0.014857 0.020826 -0.003355 0.000000 0.000000 0.000000
# 3 -0.003355 -0.003355 0.019049 0.000000 0.000000 0.000000
# 4 0.000000 0.000000 0.000000 0.037986 0.000000 0.000000
# 5 0.000000 0.000000 0.000000 0.000000 0.037986 0.000000
# 6 0.000000 0.000000 0.000000 0.000000 0.000000 0.024441
#
#
# Mechanical properties :
#
#
# Convention : Reuss Voigt Hill
#
# Bulk Modulus (GPa) = 56.93034 70.05526 63.49280
# Shear Modulus (GPa) = 23.79797 27.93736 25.86767
#
# Velocity S-wave (km/s) = 3.45228 3.74050 3.59928
# Velocity P-wave (km/s) = 6.66351 7.33072 7.00506
#
# Compressibility (1/GPa) = 0.01756533
#
# Stress axis : x y z
#
# Youngs Moduli (GPa) = 48.01943 48.01794 52.49666
#
# Poissons Ratio (x) = 0.71341 0.17612
# Poissons Ratio (y) = 0.71343 0.17613
# Poissons Ratio (z) = 0.16110 0.16110
#
# Static dielectric constant tensor:
#      x y z
#    x 3.733920 0.000000 0.000000 
#    y 0.000000 3.733920 0.000000 
#    z 0.000000 0.000000 3.315410 
# 
# 
# High freq. dielectric constant tensor:
#      x y z
#    x 1.780520 0.000000 0.000000 
#    y 0.000000 1.780520 0.000000 
#    z 0.000000 0.000000 1.753720 
# 
# From -- ./inp_files/2287.got.cif
#   From: 2010.03.12/outbox.cif.g09.slc.cpg/sg119_2_cif.got.tgz:2287.got - 2010.04.14 02:25:26.
