data_PCOD8311984
_publ_section_title
;
Structure prediction by ZEFSAII (Michael W. Deem and Ramdas Pophale) SiO2 
 PCOD8311984
Probable space group: I -4 2 D
;
_chemical_formula_sum "Si O2"
_cell_formula_units_Z 64
_cell_length_a 11.217867
_cell_length_b 11.217867
_cell_length_c 21.767843
_cell_angle_alpha 90.000000
_cell_angle_beta 90.000000
_cell_angle_gamma 90.000000
_cell_volume 2739.277118
_symmetry_space_group_name_H-M "I -4 2 D"
_symmetry_group_IT_number 122
_symmetry_cell_setting 'tetragonal'
loop_
_space_group_symop_operation_xyz
x,y,z
y,-x,-z
-x,-y,z
-y,x,-z
x,1/2-y,1/4-z
-x,1/2+y,1/4-z
-y,1/2-x,1/4+z
y,1/2+x,1/4+z
1/2+x,1/2+y,1/2+z
1/2+y,1/2-x,1/2-z
1/2-x,1/2-y,1/2+z
1/2-y,1/2+x,1/2-z
1/2+x,-y,3/4-z
1/2-x,y,3/4-z
1/2-y,-x,3/4+z
1/2+y,x,3/4+z
loop_
_atom_site_type_symbol
_atom_site_label
_atom_site_fract_x
_atom_site_fract_y
_atom_site_fract_z
Si Si1 0.381989 0.779646 0.495766
Si Si2 0.276014 0.014491 0.622605
Si Si3 0.750000 0.821325 0.875000
Si Si4 0.000000 0.000000 0.789785
Si Si5 0.125238 0.624254 0.775680
O O1 0.436894 0.699202 0.441522
O O2 0.403707 0.727222 0.564463
O O3 0.240059 0.796973 0.490203
O O4 0.455460 0.901373 0.492343
O O5 0.246452 0.872542 0.617775
O O6 0.393106 0.045031 0.583278
O O7 0.161656 0.082642 0.594096
O O8 0.154564 0.483068 0.772064
#
# Coordination Sequence:
#
# PCOD8311984 Si02
#       5
#    16  16   8   8  16
#     4  11  25  47  74 104 149 195 238 309 367 428
#     4  11  25  47  75 106 151 199 237 308 369 435
#     4  10  24  46  66 116 140 190 256 288 356 458
#     4  10  24  48  69 114 143 188 258 288 360 458
#     4  11  23  46  72 109 143 180 246 301 362 447
#
# _framework density 23.363827000000001
#
# number of rings (size 3 to 8) (size 9 to 14) (size 15 to 20)
#    0.000    1.250    5.000    0.750    3.500    6.000 
#   13.500    1.250    0.000    0.000    0.000    0.000 
#    0.000    0.000    0.000    0.000    0.000    0.000 
#
# Total GULP energy -396518.745842 kJ/mol
# GULP energy per Si atom -12391.210808 kJ/mol
# Density = 2.331065 g / cm^3
# Si number density = 23.363827 Si / 1000 Ang^3
#
#
#
# Elastic Constant Matrix: (Units=GPa)
#
#
# Indices 1 2 3 4 5 6 
#
# 1 88.0768 15.1270 27.4478 0.0000 0.0000 0.0000
# 2 15.1270 88.0768 27.4478 0.0000 0.0000 0.0000
# 3 27.4478 27.4478 140.4636 0.0000 0.0000 0.0000
# 4 0.0000 0.0000 0.0000 35.0368 0.0000 0.0000
# 5 0.0000 0.0000 0.0000 0.0000 35.0368 0.0000
# 6 0.0000 0.0000 0.0000 0.0000 0.0000 24.4779
#
#
#
# Elastic Compliance Matrix: (Units=1/GPa)
#
#
# Indices 1 2 3 4 5 6 
#
# 1 0.012261 -0.001447 -0.002113 0.000000 0.000000 0.000000
# 2 -0.001447 0.012261 -0.002113 0.000000 0.000000 0.000000
# 3 -0.002113 -0.002113 0.007945 0.000000 0.000000 0.000000
# 4 0.000000 0.000000 0.000000 0.028541 0.000000 0.000000
# 5 0.000000 0.000000 0.000000 0.000000 0.028541 0.000000
# 6 0.000000 0.000000 0.000000 0.000000 0.000000 0.040853
#
#
# Mechanical properties :
#
#
# Convention : Reuss Voigt Hill
#
# Bulk Modulus (GPa) = 47.34864 50.74028 49.04446
# Shear Modulus (GPa) = 33.60455 35.34995 34.47725
#
# Velocity S-wave (km/s) = 3.79663 3.89398 3.84561
# Velocity P-wave (km/s) = 6.28721 6.47935 6.38400
#
# Compressibility (1/GPa) = 0.02111993
#
# Stress axis : x y z
#
# Youngs Moduli (GPa) = 81.56076 81.56076 125.86369
#
# Poissons Ratio (x) = 0.11804 0.26596
# Poissons Ratio (y) = 0.11804 0.26596
# Poissons Ratio (z) = 0.17234 0.17234
#
# Static dielectric constant tensor:
#      x y z
#    x 4.102120 0.000000 0.000000 
#    y 0.000000 4.102120 0.000000 
#    z 0.000000 0.000000 4.388910 
# 
# 
# High freq. dielectric constant tensor:
#      x y z
#    x 1.911190 0.000000 0.000000 
#    y 0.000000 1.911190 0.000000 
#    z 0.000000 0.000000 1.932140 
# 
# From -- ./inp_files/7873.got.cif
#   From: 2010.03.12/outbox.cif.g09.slc.cpg/sg122_4_cif.got.tgz:7873.got - 2010.04.06 16:17:16.
