data_PCOD8311604
_publ_section_title
;
Structure prediction by ZEFSAII (Michael W. Deem and Ramdas Pophale) SiO2 
 PCOD8311604
Probable space group: I -4 2 M
;
_chemical_formula_sum "Si O2"
_cell_formula_units_Z 56
_cell_length_a 23.520802
_cell_length_b 23.520802
_cell_length_c 4.944208
_cell_angle_alpha 90.000000
_cell_angle_beta 90.000000
_cell_angle_gamma 90.000000
_cell_volume 2735.274930
_symmetry_space_group_name_H-M "I -4 2 M"
_symmetry_group_IT_number 121
_symmetry_cell_setting 'tetragonal'
loop_
_space_group_symop_operation_xyz
x,y,z
y,-x,-z
-x,-y,z
-y,x,-z
x,-y,-z
-x,y,-z
-y,-x,z
y,x,z
1/2+x,1/2+y,1/2+z
1/2+y,1/2-x,1/2-z
1/2-x,1/2-y,1/2+z
1/2-y,1/2+x,1/2-z
1/2+x,1/2-y,1/2-z
1/2-x,1/2+y,1/2-z
1/2-y,1/2-x,1/2+z
1/2+y,1/2+x,1/2+z
loop_
_atom_site_type_symbol
_atom_site_label
_atom_site_fract_x
_atom_site_fract_y
_atom_site_fract_z
Si Si1 0.383204 0.064126 0.082078
Si Si2 0.842810 0.709269 0.072085
Si Si3 0.337597 0.337597 0.732241
Si Si4 0.609478 0.609478 0.240962
Si Si5 0.500000 0.414070 0.000000
O O1 0.430195 0.090661 0.880439
O O2 0.323516 0.097353 0.079561
O O3 0.369826 0.000000 0.000000
O O4 0.818173 0.704479 0.770140
O O5 0.853423 0.773358 0.159574
O O6 0.351462 0.351462 0.044019
O O7 0.377487 0.377487 0.550443
O O8 0.541652 0.623197 0.192948
O O9 0.455748 0.455748 0.834380
#
# Coordination Sequence:
#
# PCOD8311604 Si02
#       5
#    16  16   8   8   8
#     4  10  21  37  56  81 112 145 183 227 280 334
#     4  10  21  39  59  80 115 152 184 228 281 336
#     4  12  22  35  61  90 109 144 201 230 277 325
#     4  10  21  37  56  84 113 142 195 238 270 335
#     4   7  16  42  56  76 110 166 186 220 291 346
#
# _framework density 20.47326
#
# number of rings (size 3 to 8) (size 9 to 14) (size 15 to 20)
#    0.857    1.286    0.000    3.429    0.000    2.857 
#    5.143    1.429    0.000    0.000    0.000    0.000 
#    0.000    0.000    0.000    0.000    0.000    0.000 
#
# Total GULP energy -346915.192460 kJ/mol
# GULP energy per Si atom -12389.828302 kJ/mol
# Density = 2.042666 g / cm^3
# Si number density = 20.473260 Si / 1000 Ang^3
#
#
#
# Elastic Constant Matrix: (Units=GPa)
#
#
# Indices 1 2 3 4 5 6 
#
# 1 83.3140 41.0689 6.7728 0.0000 0.0000 0.0000
# 2 41.0689 83.3140 6.7728 0.0000 0.0000 0.0000
# 3 6.7728 6.7728 58.4208 0.0000 0.0000 0.0000
# 4 0.0000 0.0000 0.0000 18.4597 0.0000 0.0000
# 5 0.0000 0.0000 0.0000 0.0000 18.4597 0.0000
# 6 0.0000 0.0000 0.0000 0.0000 0.0000 20.2331
#
#
#
# Elastic Compliance Matrix: (Units=1/GPa)
#
#
# Indices 1 2 3 4 5 6 
#
# 1 0.015907 -0.007764 -0.000944 0.000000 0.000000 0.000000
# 2 -0.007764 0.015907 -0.000944 0.000000 0.000000 0.000000
# 3 -0.000944 -0.000944 0.017336 0.000000 0.000000 0.000000
# 4 0.000000 0.000000 0.000000 0.054172 0.000000 0.000000
# 5 0.000000 0.000000 0.000000 0.000000 0.054172 0.000000
# 6 0.000000 0.000000 0.000000 0.000000 0.000000 0.049424
#
#
# Mechanical properties :
#
#
# Convention : Reuss Voigt Hill
#
# Bulk Modulus (GPa) = 33.50627 37.14197 35.32412
# Shear Modulus (GPa) = 21.17106 22.79277 21.98191
#
# Velocity S-wave (km/s) = 3.21921 3.34023 3.28027
# Velocity P-wave (km/s) = 5.49719 5.74954 5.62478
#
# Compressibility (1/GPa) = 0.02984516
#
# Stress axis : x y z
#
# Youngs Moduli (GPa) = 62.86560 62.86560 57.68323
#
# Poissons Ratio (x) = 0.48812 0.05445
# Poissons Ratio (y) = 0.48812 0.05445
# Poissons Ratio (z) = 0.05934 0.05934
#
# Static dielectric constant tensor:
#      x y z
#    x 3.575260 0.000000 0.000000 
#    y 0.000000 3.575260 0.000000 
#    z 0.000000 0.000000 3.737160 
# 
# 
# High freq. dielectric constant tensor:
#      x y z
#    x 1.791180 0.000000 0.000000 
#    y 0.000000 1.791180 0.000000 
#    z 0.000000 0.000000 1.800320 
# 
# From -- ./inp_files/428.got.cif
#   From: 2010.03.12/outbox.cif.g09.slc.cpg/sg121_1_cif.got.tgz:428.got - 2010.04.06 16:06:48.
