data_PCOD8311219
_publ_section_title
;
Structure prediction by ZEFSAII (Michael W. Deem and Ramdas Pophale) SiO2 
 PCOD8311219
Probable space group: I -4 C 2
;
_chemical_formula_sum "Si O2"
_cell_formula_units_Z 80
_cell_length_a 13.450549
_cell_length_b 13.450549
_cell_length_c 18.475759
_cell_angle_alpha 90.000000
_cell_angle_beta 90.000000
_cell_angle_gamma 90.000000
_cell_volume 3342.583850
_symmetry_space_group_name_H-M "I -4 C 2"
_symmetry_group_IT_number 120
_symmetry_cell_setting 'tetragonal'
loop_
_space_group_symop_operation_xyz
x,y,z
y,-x,-z
-x,-y,z
-y,x,-z
y,x,1/2-z
-y,-x,1/2-z
-x,y,1/2+z
x,-y,1/2+z
1/2+x,1/2+y,1/2+z
1/2+y,1/2-x,1/2-z
1/2-x,1/2-y,1/2+z
1/2-y,1/2+x,1/2-z
1/2+y,1/2+x,-z
1/2-y,1/2-x,-z
1/2-x,1/2+y,z
1/2+x,1/2-y,z
loop_
_atom_site_type_symbol
_atom_site_label
_atom_site_fract_x
_atom_site_fract_y
_atom_site_fract_z
Si Si1 0.904739 0.406963 0.081561
Si Si2 0.483210 0.704066 0.575674
Si Si3 0.055047 0.377836 0.794208
Si Si4 0.083984 0.158215 0.821744
Si Si5 0.183103 0.096389 0.082636
O O1 0.977776 0.317493 0.103769
O O2 0.912892 0.507801 0.128720
O O3 0.793780 0.358554 0.088663
O O4 0.934099 0.434099 0.000000
O O5 0.396110 0.645624 0.616236
O O6 0.597784 0.678052 0.589130
O O7 0.466606 0.682777 0.491115
O O8 0.129730 0.462341 0.763387
O O9 0.113893 0.273509 0.803157
O O10 0.092413 0.092413 0.750000
O O11 0.971431 0.161947 0.847868
#
# Coordination Sequence:
#
# PCOD8311219 Si02
#       5
#    16  16  16  16  16
#     4   9  21  41  67 106 135 179 242 284 344 429
#     4  11  20  39  67 100 142 181 223 293 357 412
#     4  10  22  46  71  92 139 190 227 294 363 414
#     4  11  23  39  67 104 131 178 236 278 349 436
#     4  10  21  38  67 100 142 178 224 296 349 407
#
# _framework density 23.933582000000001
#
# number of rings (size 3 to 8) (size 9 to 14) (size 15 to 20)
#    0.000    1.800    2.000    1.800    0.000    1.600 
#   10.800    2.000    4.400    0.000    0.000    0.000 
#    0.000    0.000    0.000    0.000    0.000    0.000 
#
# Total GULP energy -495609.247605 kJ/mol
# GULP energy per Si atom -12390.231190 kJ/mol
# Density = 2.387911 g / cm^3
# Si number density = 23.933582 Si / 1000 Ang^3
#
#
#
# Elastic Constant Matrix: (Units=GPa)
#
#
# Indices 1 2 3 4 5 6 
#
# 1 82.3266 30.0062 16.0638 0.0000 0.0000 0.0000
# 2 30.0062 82.3266 16.0638 0.0000 0.0000 0.0000
# 3 16.0638 16.0638 132.8433 0.0000 0.0000 0.0000
# 4 0.0000 0.0000 0.0000 29.9991 0.0000 0.0000
# 5 0.0000 0.0000 0.0000 0.0000 29.9991 0.0000
# 6 0.0000 0.0000 0.0000 0.0000 0.0000 40.1101
#
#
#
# Elastic Compliance Matrix: (Units=1/GPa)
#
#
# Indices 1 2 3 4 5 6 
#
# 1 0.014167 -0.004946 -0.001115 0.000000 0.000000 0.000000
# 2 -0.004946 0.014167 -0.001115 0.000000 0.000000 0.000000
# 3 -0.001115 -0.001115 0.007797 0.000000 0.000000 0.000000
# 4 0.000000 0.000000 0.000000 0.033334 0.000000 0.000000
# 5 0.000000 0.000000 0.000000 0.000000 0.033334 0.000000
# 6 0.000000 0.000000 0.000000 0.000000 0.000000 0.024931
#
#
# Mechanical properties :
#
#
# Convention : Reuss Voigt Hill
#
# Bulk Modulus (GPa) = 45.91527 46.86267 46.38897
# Shear Modulus (GPa) = 33.47991 35.71249 34.59620
#
# Velocity S-wave (km/s) = 3.74420 3.86703 3.80611
# Velocity P-wave (km/s) = 6.15777 6.28978 6.22413
#
# Compressibility (1/GPa) = 0.02177925
#
# Stress axis : x y z
#
# Youngs Moduli (GPa) = 70.58652 70.58652 128.24894
#
# Poissons Ratio (x) = 0.34912 0.14300
# Poissons Ratio (y) = 0.34912 0.14300
# Poissons Ratio (z) = 0.07871 0.07871
#
# Static dielectric constant tensor:
#      x y z
#    x 4.289970 0.000000 0.000000 
#    y 0.000000 4.289970 0.000000 
#    z 0.000000 0.000000 4.720800 
# 
# 
# High freq. dielectric constant tensor:
#      x y z
#    x 1.941290 0.000000 0.000000 
#    y 0.000000 1.941290 0.000000 
#    z 0.000000 0.000000 1.966840 
# 
# From -- ./inp_files/5173.got.cif
#   From: 2010.03.12/outbox.cif.g09.slc.cpg/sg120_3_cif.got.tgz:5173.got - 2010.04.06 16:00:44.
