data_PCOD8311943
_publ_section_title
;
Structure prediction by ZEFSAII (Michael W. Deem and Ramdas Pophale) SiO2 
 PCOD8311943
Probable space group: I -4 2 D
;
_chemical_formula_sum "Si O2"
_cell_formula_units_Z 112
_cell_length_a 30.182981
_cell_length_b 30.182981
_cell_length_c 5.367644
_cell_angle_alpha 90.000000
_cell_angle_beta 90.000000
_cell_angle_gamma 90.000000
_cell_volume 4889.989932
_symmetry_space_group_name_H-M "I -4 2 D"
_symmetry_group_IT_number 122
_symmetry_cell_setting 'tetragonal'
loop_
_space_group_symop_operation_xyz
x,y,z
y,-x,-z
-x,-y,z
-y,x,-z
x,1/2-y,1/4-z
-x,1/2+y,1/4-z
-y,1/2-x,1/4+z
y,1/2+x,1/4+z
1/2+x,1/2+y,1/2+z
1/2+y,1/2-x,1/2-z
1/2-x,1/2-y,1/2+z
1/2-y,1/2+x,1/2-z
1/2+x,-y,3/4-z
1/2-x,y,3/4-z
1/2-y,-x,3/4+z
1/2+y,x,3/4+z
loop_
_atom_site_type_symbol
_atom_site_label
_atom_site_fract_x
_atom_site_fract_y
_atom_site_fract_z
Si Si1 0.404737 0.663706 0.584802
Si Si2 0.136483 0.800776 0.602759
Si Si3 0.364809 0.922675 0.530043
Si Si4 0.368916 0.291971 0.983182
Si Si5 0.273365 0.540209 0.133677
Si Si6 0.972977 0.563948 0.786644
Si Si7 0.144296 0.505440 0.412834
O O1 0.396171 0.691376 0.334447
O O2 0.384912 0.614916 0.538700
O O3 0.456619 0.659025 0.603108
O O4 0.385316 0.687039 0.835663
O O5 0.150861 0.750000 0.625000
O O6 0.181008 0.829623 0.647972
O O7 0.323824 0.899080 0.401701
O O8 0.405562 0.938305 0.358360
O O9 0.344734 0.963808 0.677922
O O10 0.346869 0.250000 0.125000
O O11 0.406904 0.272503 0.803258
O O12 0.250000 0.517157 0.375000
O O13 0.324304 0.522552 0.111163
O O14 0.250000 0.527451 0.875000
O O15 0.948489 0.518132 0.867627
O O16 0.989594 0.592043 0.025164
#
# Coordination Sequence:
#
# PCOD8311943 Si02
#       7
#    16  16  16  16  16  16  16
#     4  11  27  45  73 102 143 193 242 288 360 427
#     4  11  26  50  74 104 143 188 235 295 359 439
#     4  11  24  42  67  99 142 186 237 294 360 419
#     4  10  22  45  72 104 139 181 233 294 358 431
#     4  11  24  41  64 101 140 178 235 300 354 416
#     4  11  25  43  66 101 143 190 247 298 349 419
#     4  12  25  40  69  98 140 195 240 297 357 428
#
# _framework density 22.903934
#
# number of rings (size 3 to 8) (size 9 to 14) (size 15 to 20)
#    0.000    1.000    2.857    3.000    6.000    4.000 
#    0.000    5.714    0.000    0.000    0.000    0.000 
#    0.000    0.000    0.000    0.000    0.000    0.000 
#
# Total GULP energy -693961.021418 kJ/mol
# GULP energy per Si atom -12392.161097 kJ/mol
# Density = 2.285180 g / cm^3
# Si number density = 22.903934 Si / 1000 Ang^3
#
#
#
# Elastic Constant Matrix: (Units=GPa)
#
#
# Indices 1 2 3 4 5 6 
#
# 1 117.5894 34.6079 31.3197 0.0000 0.0000 0.0000
# 2 34.6079 117.5894 31.3197 0.0000 0.0000 0.0000
# 3 31.3197 31.3197 103.5888 0.0000 0.0000 0.0000
# 4 0.0000 0.0000 0.0000 24.8041 0.0000 0.0000
# 5 0.0000 0.0000 0.0000 0.0000 24.8041 0.0000
# 6 0.0000 0.0000 0.0000 0.0000 0.0000 20.1655
#
#
#
# Elastic Compliance Matrix: (Units=1/GPa)
#
#
# Indices 1 2 3 4 5 6 
#
# 1 0.009778 -0.002273 -0.002269 0.000000 0.000000 0.000000
# 2 -0.002273 0.009778 -0.002269 0.000000 0.000000 0.000000
# 3 -0.002269 -0.002269 0.011026 0.000000 0.000000 0.000000
# 4 0.000000 0.000000 0.000000 0.040316 0.000000 0.000000
# 5 0.000000 0.000000 0.000000 0.000000 0.040316 0.000000
# 6 0.000000 0.000000 0.000000 0.000000 0.000000 0.049590
#
#
# Mechanical properties :
#
#
# Convention : Reuss Voigt Hill
#
# Bulk Modulus (GPa) = 58.96762 59.25136 59.10949
# Shear Modulus (GPa) = 27.76587 30.05607 28.91097
#
# Velocity S-wave (km/s) = 3.48555 3.62645 3.55670
# Velocity P-wave (km/s) = 6.48076 6.59246 6.53685
#
# Compressibility (1/GPa) = 0.01695846
#
# Stress axis : x y z
#
# Youngs Moduli (GPa) = 102.27510 102.27510 90.69865
#
# Poissons Ratio (x) = 0.23251 0.20578
# Poissons Ratio (y) = 0.23251 0.20578
# Poissons Ratio (z) = 0.23205 0.23205
#
# Static dielectric constant tensor:
#      x y z
#    x 4.468910 0.000000 0.000000 
#    y 0.000000 4.468910 0.000000 
#    z 0.000000 0.000000 4.005490 
# 
# 
# High freq. dielectric constant tensor:
#      x y z
#    x 1.914760 0.000000 0.000000 
#    y 0.000000 1.914760 0.000000 
#    z 0.000000 0.000000 1.887110 
# 
# From -- ./inp_files/1544.got.cif
#   From: 2010.03.12/outbox.cif.g09.slc.cpg/sg122_1_cif.got.tgz:1544.got - 2010.04.06 16:17:16.
