data_PCOD8311141
_publ_section_title
;
Structure prediction by ZEFSAII (Michael W. Deem and Ramdas Pophale) SiO2 
 PCOD8311141
Probable space group: I -4 C 2
;
_chemical_formula_sum "Si O2"
_cell_formula_units_Z 112
_cell_length_a 14.060010
_cell_length_b 14.060010
_cell_length_c 30.232522
_cell_angle_alpha 90.000000
_cell_angle_beta 90.000000
_cell_angle_gamma 90.000000
_cell_volume 5976.482287
_symmetry_space_group_name_H-M "I -4 C 2"
_symmetry_group_IT_number 120
_symmetry_cell_setting 'tetragonal'
loop_
_space_group_symop_operation_xyz
x,y,z
y,-x,-z
-x,-y,z
-y,x,-z
y,x,1/2-z
-y,-x,1/2-z
-x,y,1/2+z
x,-y,1/2+z
1/2+x,1/2+y,1/2+z
1/2+y,1/2-x,1/2-z
1/2-x,1/2-y,1/2+z
1/2-y,1/2+x,1/2-z
1/2+y,1/2+x,-z
1/2-y,1/2-x,-z
1/2-x,1/2+y,z
1/2+x,1/2-y,z
loop_
_atom_site_type_symbol
_atom_site_label
_atom_site_fract_x
_atom_site_fract_y
_atom_site_fract_z
Si Si1 0.742580 0.614753 0.476267
Si Si2 0.688688 0.575682 0.379501
Si Si3 0.739449 0.370641 0.381093
Si Si4 0.924600 0.186347 0.822253
Si Si5 0.103838 0.250527 0.016283
Si Si6 0.000000 0.000000 0.854593
Si Si7 0.725294 0.274707 0.250000
Si Si8 0.750025 0.365442 0.673608
O O1 0.825526 0.674475 0.500000
O O2 0.741007 0.619037 0.422693
O O3 0.641815 0.658381 0.490469
O O4 0.756214 0.507667 0.492549
O O5 0.741279 0.479688 0.363755
O O6 0.578238 0.545132 0.388009
O O7 0.686096 0.650903 0.339680
O O8 0.649294 0.308448 0.363488
O O9 0.735165 0.367602 0.433323
O O10 0.837671 0.327273 0.363342
O O11 0.870258 0.222735 0.779046
O O12 0.956764 0.076499 0.820297
O O13 0.020011 0.249393 0.827049
O O14 0.151789 0.348212 0.000000
O O15 0.722155 0.178011 0.221212
#
# Coordination Sequence:
#
# PCOD8311141 Si02
#       8
#    16  16  16  16  16   8   8  16
#     4  10  21  35  53  80 112 146 184 228 273 321
#     4   9  18  34  54  78 106 137 179 218 261 315
#     4   9  19  35  53  77 107 137 177 220 254 308
#     4   9  19  34  53  79 105 133 171 213 263 316
#     4  10  21  35  54  81 113 147 184 229 275 320
#     4   8  16  31  56  79 100 134 172 220 270 314
#     4  10  22  33  50  83 108 126 166 216 260 318
#     4  10  19  34  57  76 102 140 169 210 269 316
#
# _framework density 18.740120000000001
#
# number of rings (size 3 to 8) (size 9 to 14) (size 15 to 20)
#    0.000    2.571    0.000    1.714    0.000   11.143 
#    0.000    0.000    0.000   10.714    0.000    0.000 
#    0.000    0.000    0.000    0.000    0.000    0.000 
#
# Total GULP energy -693912.238344 kJ/mol
# GULP energy per Si atom -12391.289970 kJ/mol
# Density = 1.869747 g / cm^3
# Si number density = 18.740120 Si / 1000 Ang^3
#
#
#
# Elastic Constant Matrix: (Units=GPa)
#
#
# Indices 1 2 3 4 5 6 
#
# 1 38.2676 130.0379 47.4836 0.0000 0.0000 0.0000
# 2 130.0379 38.2846 47.4284 0.0000 0.0000 0.0000
# 3 47.4836 47.4284 71.1569 0.0000 0.0000 0.0000
# 4 0.0000 0.0000 0.0000 25.6227 0.0000 0.0000
# 5 0.0000 0.0000 0.0000 0.0000 25.6228 0.0000
# 6 0.0000 0.0000 0.0000 0.0000 0.0000 28.5529
#
#
#
# Elastic Compliance Matrix: (Units=1/GPa)
#
#
# Indices 1 2 3 4 5 6 
#
# 1 -0.000692 0.010210 -0.006343 0.000000 0.000000 0.000000
# 2 0.010210 -0.000683 -0.006358 0.000000 0.000000 0.000000
# 3 -0.006343 -0.006358 0.022524 0.000000 0.000000 0.000000
# 4 0.000000 0.000000 0.000000 0.039028 0.000000 0.000000
# 5 0.000000 0.000000 0.000000 0.000000 0.039028 0.000000
# 6 0.000000 0.000000 0.000000 0.000000 0.000000 0.035023
#
#
# Mechanical properties :
#
#
# Convention : Reuss Voigt Hill
#
# Bulk Modulus (GPa) = 61.85699 66.40099 64.12899
# Shear Modulus (GPa) = 34.57849 10.81030 22.69440
#
# Velocity S-wave (km/s) = 4.30019 2.40438 3.48373
# Velocity P-wave (km/s) = 7.59835 6.57400 7.10466
#
# Compressibility (1/GPa) = 0.01616632
#
# Stress axis : x y z
#
# Youngs Moduli (GPa) = -1444.29709 -1464.18617 44.39656
#
# Poissons Ratio (x) = 14.94949 0.28162
# Poissons Ratio (y) = 14.74642 0.28228
# Poissons Ratio (z) = -9.16166 -9.30939
#
# Static dielectric constant tensor:
#      x y z
#    x 3.616110 0.000000 0.000000 
#    y 0.000000 3.616100 0.000000 
#    z 0.000000 0.000000 3.588440 
# 
# 
# High freq. dielectric constant tensor:
#      x y z
#    x 1.725600 0.000000 0.000000 
#    y 0.000000 1.725600 0.000000 
#    z 0.000000 0.000000 1.719990 
# 
# From -- ./inp_files/6322.got.cif
#   From: 2010.03.12/outbox.cif.g09.slc.cpg/sg120_4_cif.got.tgz:6322.got - 2010.04.06 16:00:44.
