data_PCOD8311391
_publ_section_title
;
Structure prediction by ZEFSAII (Michael W. Deem and Ramdas Pophale) SiO2 
 PCOD8311391
Probable space group: I -4 2 M
;
_chemical_formula_sum "Si O2"
_cell_formula_units_Z 96
_cell_length_a 17.605743
_cell_length_b 17.605743
_cell_length_c 19.135534
_cell_angle_alpha 90.000000
_cell_angle_beta 90.000000
_cell_angle_gamma 90.000000
_cell_volume 5931.291960
_symmetry_space_group_name_H-M "I -4 2 M"
_symmetry_group_IT_number 121
_symmetry_cell_setting 'tetragonal'
loop_
_space_group_symop_operation_xyz
x,y,z
y,-x,-z
-x,-y,z
-y,x,-z
x,-y,-z
-x,y,-z
-y,-x,z
y,x,z
1/2+x,1/2+y,1/2+z
1/2+y,1/2-x,1/2-z
1/2-x,1/2-y,1/2+z
1/2-y,1/2+x,1/2-z
1/2+x,1/2-y,1/2-z
1/2-x,1/2+y,1/2-z
1/2-y,1/2-x,1/2+z
1/2+y,1/2+x,1/2+z
loop_
_atom_site_type_symbol
_atom_site_label
_atom_site_fract_x
_atom_site_fract_y
_atom_site_fract_z
Si Si1 0.766078 0.120183 0.901095
Si Si2 0.689979 0.190529 0.770945
Si Si3 0.842708 0.564903 0.129002
Si Si4 0.654745 0.887460 0.370372
Si Si5 0.345144 0.225517 0.014601
Si Si6 0.150665 0.491415 0.579816
O O1 0.855498 0.144503 0.911371
O O2 0.742664 0.141651 0.822610
O O3 0.717772 0.167032 0.957920
O O4 0.740940 0.032956 0.914688
O O5 0.724100 0.275901 0.765809
O O6 0.604604 0.192227 0.801800
O O7 0.692441 0.152741 0.695408
O O8 0.847833 0.476664 0.143413
O O9 0.785294 0.581220 0.064174
O O10 0.927094 0.597392 0.114050
O O11 0.706981 0.867427 0.435795
O O12 0.569362 0.857910 0.379358
O O13 0.311069 0.311069 0.018559
O O14 0.124368 0.500000 0.500000
#
# Coordination Sequence:
#
# PCOD8311391 Si02
#       6
#    16  16  16  16  16  16
#     4   8  16  33  48  59  89 139 172 195 235 287
#     4   9  20  35  47  63  97 134 169 207 237 283
#     4  10  21  32  46  66 103 141 154 186 250 320
#     4  12  20  28  48  76  99 123 167 205 241 291
#     4   9  17  31  48  64  91 130 167 199 235 287
#     4  10  18  31  45  71 103 131 159 192 244 295
#
# _framework density 16.185344000000001
#
# number of rings (size 3 to 8) (size 9 to 14) (size 15 to 20)
#    0.000    2.667    3.333    3.000    4.667    0.667 
#    0.000    0.000    0.000    0.000    0.000    0.000 
#    0.000   35.667    0.000    0.000    0.000    0.000 
#
# Total GULP energy -594641.050147 kJ/mol
# GULP energy per Si atom -12388.355211 kJ/mol
# Density = 1.614850 g / cm^3
# Si number density = 16.185344 Si / 1000 Ang^3
#
#
#
# Elastic Constant Matrix: (Units=GPa)
#
#
# Indices 1 2 3 4 5 6 
#
# 1 52.5893 53.8438 13.9952 0.0000 0.0000 0.0000
# 2 53.8438 52.5883 13.9945 0.0000 0.0000 0.0000
# 3 13.9952 13.9945 88.3737 0.0000 0.0000 0.0000
# 4 0.0000 0.0000 0.0000 11.8635 0.0000 0.0000
# 5 0.0000 0.0000 0.0000 0.0000 11.8649 0.0000
# 6 0.0000 0.0000 0.0000 0.0000 0.0000 30.4996
#
#
#
# Elastic Compliance Matrix: (Units=1/GPa)
#
#
# Indices 1 2 3 4 5 6 
#
# 1 -0.393493 0.403300 -0.001550 -0.000001 0.000000 0.000000
# 2 0.403300 -0.393499 -0.001555 0.000000 0.000000 0.000000
# 3 -0.001550 -0.001555 0.011807 0.000000 0.000000 0.000000
# 4 -0.000001 0.000000 0.000000 0.084292 0.000000 0.000000
# 5 0.000000 0.000000 0.000000 0.000000 0.084282 0.000000
# 6 0.000000 0.000000 0.000000 0.000000 0.000000 0.032787
#
#
# Mechanical properties :
#
#
# Convention : Reuss Voigt Hill
#
# Bulk Modulus (GPa) = 39.67475 39.69091 39.68283
# Shear Modulus (GPa) = -3.66083 18.29345 7.31631
#
# Velocity S-wave (km/s) = -1.50557 3.36556 2.12841
# Velocity P-wave (km/s) = 4.64152 6.29910 5.53274
#
# Compressibility (1/GPa) = 0.02520495
#
# Stress axis : x y z
#
# Youngs Moduli (GPa) = -2.54134 -2.54130 84.69337
#
# Poissons Ratio (x) = 1.02491 0.13126
# Poissons Ratio (y) = 1.02492 0.13172
# Poissons Ratio (z) = -0.00394 -0.00395
#
# Static dielectric constant tensor:
#      x y z
#    x 3.118950 0.000000 0.000000 
#    y 0.000000 3.118950 0.000000 
#    z 0.000000 0.000000 3.117510 
# 
# 
# High freq. dielectric constant tensor:
#      x y z
#    x 1.595350 0.000000 0.000000 
#    y 0.000000 1.595350 0.000000 
#    z 0.000000 0.000000 1.635330 
# 
# From -- ./inp_files/5367.got.cif
#   From: 2010.03.12/outbox.cif.g09.slc.cpg/sg121_3_cif.got.tgz:5367.got - 2010.04.06 16:06:48.
