data_PCOD8311385
_publ_section_title
;
Structure prediction by ZEFSAII (Michael W. Deem and Ramdas Pophale) SiO2 
 PCOD8311385
Probable space group: I -4 2 M
;
_chemical_formula_sum "Si O2"
_cell_formula_units_Z 96
_cell_length_a 21.375055
_cell_length_b 21.375055
_cell_length_c 12.918422
_cell_angle_alpha 90.000000
_cell_angle_beta 90.000000
_cell_angle_gamma 90.000000
_cell_volume 5902.336276
_symmetry_space_group_name_H-M "I -4 2 M"
_symmetry_group_IT_number 121
_symmetry_cell_setting 'tetragonal'
loop_
_space_group_symop_operation_xyz
x,y,z
y,-x,-z
-x,-y,z
-y,x,-z
x,-y,-z
-x,y,-z
-y,-x,z
y,x,z
1/2+x,1/2+y,1/2+z
1/2+y,1/2-x,1/2-z
1/2-x,1/2-y,1/2+z
1/2-y,1/2+x,1/2-z
1/2+x,1/2-y,1/2-z
1/2-x,1/2+y,1/2-z
1/2-y,1/2-x,1/2+z
1/2+y,1/2+x,1/2+z
loop_
_atom_site_type_symbol
_atom_site_label
_atom_site_fract_x
_atom_site_fract_y
_atom_site_fract_z
Si Si1 0.962910 0.689067 0.596729
Si Si2 0.785588 0.396054 0.598377
Si Si3 0.236733 0.662464 0.812573
Si Si4 0.763552 0.860942 0.114932
Si Si5 0.066680 0.603517 0.964921
Si Si6 0.207091 0.475134 0.692664
O O1 0.902933 0.732244 0.624352
O O2 0.947671 0.616513 0.571542
O O3 0.000000 0.719238 0.500000
O O4 0.011308 0.686474 0.691049
O O5 0.780606 0.346647 0.691802
O O6 0.739122 0.377071 0.506707
O O7 0.857232 0.401734 0.558819
O O8 0.764237 0.463956 0.638226
O O9 0.305829 0.694172 0.822756
O O10 0.185712 0.706973 0.862249
O O11 0.829675 0.829675 0.140072
O O12 0.760539 0.921999 0.187780
O O13 0.053248 0.648591 0.868689
O O14 0.000000 0.573181 0.000000
#
# Coordination Sequence:
#
# PCOD8311385 Si02
#       6
#    16  16  16  16  16  16
#     4  11  22  33  50  69 102 137 172 211 254 288
#     4   9  17  32  51  69  99 132 163 203 251 295
#     4  10  20  33  50  74  98 128 168 208 257 306
#     4  10  18  30  51  75  96 124 166 208 257 305
#     4   9  18  34  50  68  96 133 177 211 237 287
#     4   9  19  32  50  69 100 133 164 212 250 295
#
# _framework density 16.264745000000001
#
# number of rings (size 3 to 8) (size 9 to 14) (size 15 to 20)
#    0.000    2.333    3.333    2.000    2.333    1.667 
#    0.000    0.833    0.000    0.000    0.000    0.000 
#    0.000   43.000    0.000    0.000    0.000    0.000 
#
# Total GULP energy -594971.769150 kJ/mol
# GULP energy per Si atom -12395.245191 kJ/mol
# Density = 1.622773 g / cm^3
# Si number density = 16.264745 Si / 1000 Ang^3
#
#
#
# Elastic Constant Matrix: (Units=GPa)
#
#
# Indices 1 2 3 4 5 6 
#
# 1 75.0873 46.4429 55.0813 0.0000 0.0000 0.0000
# 2 46.4429 75.0895 55.0813 0.0000 0.0000 0.0000
# 3 55.0813 55.0813 110.3340 0.0000 0.0000 0.0000
# 4 0.0000 0.0000 0.0000 18.9531 0.0000 0.0000
# 5 0.0000 0.0000 0.0000 0.0000 18.9520 0.0000
# 6 0.0000 0.0000 0.0000 0.0000 0.0000 32.8819
#
#
#
# Elastic Compliance Matrix: (Units=1/GPa)
#
#
# Indices 1 2 3 4 5 6 
#
# 1 0.024970 -0.009940 -0.007503 0.000000 0.000000 0.000000
# 2 -0.009940 0.024969 -0.007503 0.000000 0.000000 0.000000
# 3 -0.007503 -0.007503 0.016555 0.000000 0.000000 0.000000
# 4 0.000000 0.000000 0.000000 0.052762 0.000000 0.000000
# 5 0.000000 0.000000 0.000000 0.000000 0.052765 0.000000
# 6 0.000000 0.000000 0.000000 0.000000 0.000000 0.030412
#
#
# Mechanical properties :
#
#
# Convention : Reuss Voigt Hill
#
# Bulk Modulus (GPa) = 60.23542 63.74688 61.99115
# Shear Modulus (GPa) = 19.39045 21.08440 20.23743
#
# Velocity S-wave (km/s) = 3.45654 3.60436 3.53122
# Velocity P-wave (km/s) = 7.28320 7.52331 7.40423
#
# Compressibility (1/GPa) = 0.01660153
#
# Stress axis : x y z
#
# Youngs Moduli (GPa) = 40.04789 40.04966 60.40534
#
# Poissons Ratio (x) = 0.39809 0.45324
# Poissons Ratio (y) = 0.39808 0.45321
# Poissons Ratio (z) = 0.30049 0.30049
#
# Static dielectric constant tensor:
#      x y z
#    x 3.090720 0.000000 0.000000 
#    y 0.000000 3.090710 0.000000 
#    z 0.000000 0.000000 3.283040 
# 
# 
# High freq. dielectric constant tensor:
#      x y z
#    x 1.603670 0.000000 0.000000 
#    y 0.000000 1.603670 0.000000 
#    z 0.000000 0.000000 1.637270 
# 
# From -- ./inp_files/3297.got.cif
#   From: 2010.03.12/outbox.cif.g09.slc.cpg/sg121_2_cif.got.tgz:3297.got - 2010.04.06 16:06:48.
