data_PCOD8311825
_publ_section_title
;
Structure prediction by ZEFSAII (Michael W. Deem and Ramdas Pophale) SiO2 
 PCOD8311825
Probable space group: I -4 2 D
;
_chemical_formula_sum "Si O2"
_cell_formula_units_Z 112
_cell_length_a 22.498011
_cell_length_b 22.498011
_cell_length_c 10.959054
_cell_angle_alpha 90.000000
_cell_angle_beta 90.000000
_cell_angle_gamma 90.000000
_cell_volume 5547.040241
_symmetry_space_group_name_H-M "I -4 2 D"
_symmetry_group_IT_number 122
_symmetry_cell_setting 'tetragonal'
loop_
_space_group_symop_operation_xyz
x,y,z
y,-x,-z
-x,-y,z
-y,x,-z
x,1/2-y,1/4-z
-x,1/2+y,1/4-z
-y,1/2-x,1/4+z
y,1/2+x,1/4+z
1/2+x,1/2+y,1/2+z
1/2+y,1/2-x,1/2-z
1/2-x,1/2-y,1/2+z
1/2-y,1/2+x,1/2-z
1/2+x,-y,3/4-z
1/2-x,y,3/4-z
1/2-y,-x,3/4+z
1/2+y,x,3/4+z
loop_
_atom_site_type_symbol
_atom_site_label
_atom_site_fract_x
_atom_site_fract_y
_atom_site_fract_z
Si Si1 0.373217 0.622654 0.956332
Si Si2 0.563362 0.780681 0.744955
Si Si3 0.342253 0.678920 0.390886
Si Si4 0.668357 0.508761 0.962435
Si Si5 0.972213 0.199665 0.805710
Si Si6 0.195750 0.698967 0.966620
Si Si7 0.213784 0.841192 0.646350
O O1 0.350529 0.557711 0.991664
O O2 0.352525 0.647807 0.823739
O O3 0.444156 0.623464 0.975122
O O4 0.342100 0.666465 0.056025
O O5 0.533580 0.750000 0.625000
O O6 0.617558 0.824632 0.707234
O O7 0.515660 0.814369 0.829526
O O8 0.589401 0.726458 0.825951
O O9 0.409370 0.674320 0.347121
O O10 0.335702 0.737042 0.474745
O O11 0.299625 0.691733 0.273907
O O12 0.664021 0.510770 0.815646
O O13 0.731286 0.526763 0.020184
O O14 0.250000 0.693201 0.875000
O O15 0.223860 0.685685 0.098599
#
# Coordination Sequence:
#
# PCOD8311825 Si02
#       7
#    16  16  16  16  16  16  16
#     4  11  21  37  60  95 125 169 208 262 324 388
#     4  10  22  40  63  87 125 173 208 253 321 383
#     4  11  22  39  62  92 124 175 205 261 333 388
#     4  11  23  38  67  92 127 167 213 272 327 385
#     4  11  22  42  63  95 126 164 220 264 322 399
#     4  10  21  32  57  95 130 156 205 259 326 394
#     4  10  20  38  57  87 129 162 199 254 324 384
#
# _framework density 20.190947999999999
#
# number of rings (size 3 to 8) (size 9 to 14) (size 15 to 20)
#    0.000    1.429    4.286    2.143    4.000    5.429 
#    2.571    0.000    0.000    0.429    0.000    0.000 
#    0.000    0.000    0.000    0.000    0.000    0.000 
#
# Total GULP energy -694010.739886 kJ/mol
# GULP energy per Si atom -12393.048927 kJ/mol
# Density = 2.014499 g / cm^3
# Si number density = 20.190948 Si / 1000 Ang^3
#
#
#
# Elastic Constant Matrix: (Units=GPa)
#
#
# Indices 1 2 3 4 5 6 
#
# 1 91.5184 25.9637 40.1362 0.0000 0.0000 0.0000
# 2 25.9637 91.5184 40.1362 0.0000 0.0000 0.0000
# 3 40.1362 40.1362 93.3732 0.0000 0.0000 0.0000
# 4 0.0000 0.0000 0.0000 28.3782 0.0000 0.0000
# 5 0.0000 0.0000 0.0000 0.0000 28.3782 0.0000
# 6 0.0000 0.0000 0.0000 0.0000 0.0000 21.0476
#
#
#
# Elastic Compliance Matrix: (Units=1/GPa)
#
#
# Indices 1 2 3 4 5 6 
#
# 1 0.013653 -0.001601 -0.005180 0.000000 0.000000 0.000000
# 2 -0.001601 0.013653 -0.005180 0.000000 0.000000 0.000000
# 3 -0.005180 -0.005180 0.015163 0.000000 0.000000 0.000000
# 4 0.000000 0.000000 0.000000 0.035238 0.000000 0.000000
# 5 0.000000 0.000000 0.000000 0.000000 0.035238 0.000000
# 6 0.000000 0.000000 0.000000 0.000000 0.000000 0.047511
#
#
# Mechanical properties :
#
#
# Convention : Reuss Voigt Hill
#
# Bulk Modulus (GPa) = 53.92299 54.32027 54.12163
# Shear Modulus (GPa) = 26.23805 26.90572 26.57189
#
# Velocity S-wave (km/s) = 3.60876 3.65439 3.63165
# Velocity P-wave (km/s) = 6.64295 6.69087 6.66695
#
# Compressibility (1/GPa) = 0.01854496
#
# Stress axis : x y z
#
# Youngs Moduli (GPa) = 73.24415 73.24415 65.94913
#
# Poissons Ratio (x) = 0.11730 0.34164
# Poissons Ratio (y) = 0.11730 0.34164
# Poissons Ratio (z) = 0.37943 0.37943
#
# Static dielectric constant tensor:
#      x y z
#    x 3.478630 0.000000 0.000000 
#    y 0.000000 3.478630 0.000000 
#    z 0.000000 0.000000 4.015980 
# 
# 
# High freq. dielectric constant tensor:
#      x y z
#    x 1.767130 0.000000 0.000000 
#    y 0.000000 1.767130 0.000000 
#    z 0.000000 0.000000 1.801190 
# 
# From -- ./inp_files/4600.got.cif
#   From: 2010.03.12/outbox.cif.g09.slc.cpg/sg122_3_cif.got.tgz:4600.got - 2010.04.06 16:17:16.
