data_PCOD8311351
_publ_section_title
;
Structure prediction by ZEFSAII (Michael W. Deem and Ramdas Pophale) SiO2 
 PCOD8311351
Probable space group: I -4 2 M
;
_chemical_formula_sum "Si O2"
_cell_formula_units_Z 80
_cell_length_a 14.382840
_cell_length_b 14.382840
_cell_length_c 18.167153
_cell_angle_alpha 90.000000
_cell_angle_beta 90.000000
_cell_angle_gamma 90.000000
_cell_volume 3758.167843
_symmetry_space_group_name_H-M "I -4 2 M"
_symmetry_group_IT_number 121
_symmetry_cell_setting 'tetragonal'
loop_
_space_group_symop_operation_xyz
x,y,z
y,-x,-z
-x,-y,z
-y,x,-z
x,-y,-z
-x,y,-z
-y,-x,z
y,x,z
1/2+x,1/2+y,1/2+z
1/2+y,1/2-x,1/2-z
1/2-x,1/2-y,1/2+z
1/2-y,1/2+x,1/2-z
1/2+x,1/2-y,1/2-z
1/2-x,1/2+y,1/2-z
1/2-y,1/2-x,1/2+z
1/2+y,1/2+x,1/2+z
loop_
_atom_site_type_symbol
_atom_site_label
_atom_site_fract_x
_atom_site_fract_y
_atom_site_fract_z
Si Si1 0.763529 0.090476 0.049131
Si Si2 0.813181 0.336697 0.276481
Si Si3 0.022523 0.170278 0.180947
Si Si4 0.202734 0.946903 0.338940
Si Si5 0.218072 0.626675 0.118497
O O1 0.837061 0.162940 0.012325
O O2 0.663057 0.141719 0.059305
O O3 0.808177 0.063503 0.127932
O O4 0.749287 0.000000 0.000000
O O5 0.756655 0.243346 0.260146
O O6 0.756578 0.407150 0.327884
O O7 0.903960 0.303800 0.319922
O O8 0.834545 0.383437 0.197344
O O9 0.074744 0.074744 0.158226
O O10 0.989901 0.158268 0.265039
O O11 0.128143 0.871858 0.372297
O O12 0.230271 0.027743 0.398190
O O13 0.298204 0.701797 0.123875
#
# Coordination Sequence:
#
# PCOD8311351 Si02
#       5
#    16  16  16  16  16
#     4  11  22  36  53  76 114 161 201 235 278 338
#     4   8  15  29  48  73 106 144 181 228 298 351
#     4  10  19  30  49  77 111 149 194 241 284 338
#     4  10  17  29  53  80 108 145 193 243 297 356
#     4   9  18  32  48  73 112 152 188 240 302 344
#
# _framework density 21.286968999999999
#
# number of rings (size 3 to 8) (size 9 to 14) (size 15 to 20)
#    0.000    2.400    2.000    3.000    0.000    3.800 
#    0.000    1.000    0.000    2.400    0.000    0.000 
#    0.000    1.600    0.000   20.800    0.000    0.400 
#
# Total GULP energy -495556.554103 kJ/mol
# GULP energy per Si atom -12388.913853 kJ/mol
# Density = 2.123852 g / cm^3
# Si number density = 21.286969 Si / 1000 Ang^3
#
#
#
# Elastic Constant Matrix: (Units=GPa)
#
#
# Indices 1 2 3 4 5 6 
#
# 1 165.6333 16.1879 26.2516 0.0000 0.0000 0.0000
# 2 16.1879 165.6042 26.2831 0.0000 0.0000 0.0000
# 3 26.2516 26.2831 33.3675 0.0000 0.0000 0.0000
# 4 0.0000 0.0000 0.0000 25.4211 0.0000 0.0000
# 5 0.0000 0.0000 0.0000 0.0000 25.4207 0.0000
# 6 0.0000 0.0000 0.0000 0.0000 0.0000 42.0649
#
#
#
# Elastic Compliance Matrix: (Units=1/GPa)
#
#
# Indices 1 2 3 4 5 6 
#
# 1 0.006904 0.000214 -0.005600 0.000000 0.000000 0.000000
# 2 0.000214 0.006908 -0.005610 0.000000 0.000000 0.000000
# 3 -0.005600 -0.005610 0.038794 0.000000 0.000000 0.000000
# 4 0.000000 0.000000 0.000000 0.039337 0.000000 0.000000
# 5 0.000000 0.000000 0.000000 0.000000 0.039338 0.000000
# 6 0.000000 0.000000 0.000000 0.000000 0.000000 0.023773
#
#
# Mechanical properties :
#
#
# Convention : Reuss Voigt Hill
#
# Bulk Modulus (GPa) = 32.66472 55.78337 44.22404
# Shear Modulus (GPa) = 26.70218 38.30682 32.50450
#
# Velocity S-wave (km/s) = 3.54558 4.24670 3.91188
# Velocity P-wave (km/s) = 5.66919 7.09283 6.42059
#
# Compressibility (1/GPa) = 0.03061407
#
# Stress axis : x y z
#
# Youngs Moduli (GPa) = 144.84090 144.76228 25.77725
#
# Poissons Ratio (x) = -0.03097 0.14436
# Poissons Ratio (y) = -0.03099 0.14460
# Poissons Ratio (z) = 0.81115 0.81205
#
# Static dielectric constant tensor:
#      x y z
#    x 3.986260 0.000000 0.000000 
#    y 0.000000 3.986260 0.000000 
#    z 0.000000 0.000000 3.314850 
# 
# 
# High freq. dielectric constant tensor:
#      x y z
#    x 1.833720 0.000000 0.000000 
#    y 0.000000 1.833720 0.000000 
#    z 0.000000 0.000000 1.776120 
# 
# From -- ./inp_files/6196.got.cif
#   From: 2010.03.12/outbox.cif.g09.slc.cpg/sg121_4_cif.got.tgz:6196.got - 2010.04.06 16:06:48.
