data_PCOD8311546
_publ_section_title
;
Structure prediction by ZEFSAII (Michael W. Deem and Ramdas Pophale) SiO2 
 PCOD8311546
Probable space group: I -4 2 M
;
_chemical_formula_sum "Si O2"
_cell_formula_units_Z 104
_cell_length_a 21.692906
_cell_length_b 21.692906
_cell_length_c 11.079144
_cell_angle_alpha 90.000000
_cell_angle_beta 90.000000
_cell_angle_gamma 90.000000
_cell_volume 5213.647633
_symmetry_space_group_name_H-M "I -4 2 M"
_symmetry_group_IT_number 121
_symmetry_cell_setting 'tetragonal'
loop_
_space_group_symop_operation_xyz
x,y,z
y,-x,-z
-x,-y,z
-y,x,-z
x,-y,-z
-x,y,-z
-y,-x,z
y,x,z
1/2+x,1/2+y,1/2+z
1/2+y,1/2-x,1/2-z
1/2-x,1/2-y,1/2+z
1/2-y,1/2+x,1/2-z
1/2+x,1/2-y,1/2-z
1/2-x,1/2+y,1/2-z
1/2-y,1/2-x,1/2+z
1/2+y,1/2+x,1/2+z
loop_
_atom_site_type_symbol
_atom_site_label
_atom_site_fract_x
_atom_site_fract_y
_atom_site_fract_z
Si Si1 0.721287 0.721287 0.890076
Si Si2 0.931722 0.387628 0.502994
Si Si3 0.748143 0.404682 0.002981
Si Si4 0.941667 0.763772 0.248095
Si Si5 0.160121 0.839880 0.838073
Si Si6 0.118444 0.630371 0.758701
Si Si7 0.918670 0.244730 0.244807
Si Si8 0.319049 0.680952 0.605656
O O1 0.668175 0.753556 0.969488
O O2 0.694023 0.694023 0.769111
O O3 0.770407 0.770407 0.844064
O O4 0.935016 0.314718 0.487144
O O5 0.904447 0.403838 0.635644
O O6 0.895495 0.412530 0.383396
O O7 0.000000 0.416022 0.500000
O O8 0.714238 0.441161 0.111619
O O9 0.712498 0.415423 0.876906
O O10 0.912477 0.820874 0.171538
O O11 0.897818 0.702927 0.242358
O O12 0.989758 0.747389 0.796983
O O13 0.185153 0.814848 0.962992
O O14 0.191534 0.619153 0.755066
O O15 0.887227 0.198956 0.149760
#
# Coordination Sequence:
#
# PCOD8311546 Si02
#       8
#     8  16  16  16   8  16  16   8
#     4  10  21  34  57  86 125 152 189 243 321 385
#     4  10  20  36  55  80 112 148 194 238 290 361
#     4   9  17  33  57  84 113 151 183 236 303 365
#     4  10  21  39  60  85 119 160 201 251 318 370
#     4  10  24  38  54  81 122 163 196 246 312 379
#     4  10  20  35  62  90 112 155 196 250 315 369
#     4  11  22  36  60  89 120 153 204 259 302 378
#     4  12  25  34  53  89 121 165 199 251 309 366
#
# _framework density 19.947647
#
# number of rings (size 3 to 8) (size 9 to 14) (size 15 to 20)
#    0.000    1.846    0.000    7.385    8.615    0.615 
#    0.000    2.308    0.000   11.538    0.000    1.077 
#    0.000    3.692    0.000    0.000    0.000    0.000 
#
# Total GULP energy -644260.410558 kJ/mol
# GULP energy per Si atom -12389.623280 kJ/mol
# Density = 1.990225 g / cm^3
# Si number density = 19.947647 Si / 1000 Ang^3
#
#
#
# Elastic Constant Matrix: (Units=GPa)
#
#
# Indices 1 2 3 4 5 6 
#
# 1 87.0290 47.9565 22.8854 0.0000 0.0000 0.0000
# 2 47.9565 87.0292 22.8848 0.0000 0.0000 0.0000
# 3 22.8854 22.8848 126.5075 0.0000 0.0000 0.0000
# 4 0.0000 0.0000 0.0000 17.3195 0.0000 0.0000
# 5 0.0000 0.0000 0.0000 0.0000 17.3195 0.0000
# 6 0.0000 0.0000 0.0000 0.0000 0.0000 11.4693
#
#
#
# Elastic Compliance Matrix: (Units=1/GPa)
#
#
# Indices 1 2 3 4 5 6 
#
# 1 0.016743 -0.008851 -0.001428 0.000000 0.000000 0.000000
# 2 -0.008851 0.016743 -0.001428 0.000000 0.000000 0.000000
# 3 -0.001428 -0.001428 0.008421 0.000000 0.000000 0.000000
# 4 0.000000 0.000000 0.000000 0.057738 0.000000 0.000000
# 5 0.000000 0.000000 0.000000 0.000000 0.057738 0.000000
# 6 0.000000 0.000000 0.000000 0.000000 0.000000 0.087189
#
#
# Mechanical properties :
#
#
# Convention : Reuss Voigt Hill
#
# Bulk Modulus (GPa) = 54.06878 54.22436 54.14657
# Shear Modulus (GPa) = 18.23821 23.01093 20.62457
#
# Velocity S-wave (km/s) = 3.02703 3.40010 3.21897
# Velocity P-wave (km/s) = 6.27546 6.53120 6.40461
#
# Compressibility (1/GPa) = 0.01849496
#
# Stress axis : x y z
#
# Youngs Moduli (GPa) = 59.72687 59.72715 118.74777
#
# Poissons Ratio (x) = 0.52862 0.16955
# Poissons Ratio (y) = 0.52862 0.16953
# Poissons Ratio (z) = 0.08528 0.08527
#
# Static dielectric constant tensor:
#      x y z
#    x 3.478960 0.000000 0.000000 
#    y 0.000000 3.478960 0.000000 
#    z 0.000000 0.000000 4.218170 
# 
# 
# High freq. dielectric constant tensor:
#      x y z
#    x 1.743850 0.000000 0.000000 
#    y 0.000000 1.743850 0.000000 
#    z 0.000000 0.000000 1.800590 
# 
# From -- ./inp_files/2144.got.cif
#   From: 2010.03.12/outbox.cif.g09.slc.cpg/sg121_2_cif.got.tgz:2144.got - 2010.04.06 16:06:48.
