data_PCOD8311215
_publ_section_title
;
Structure prediction by ZEFSAII (Michael W. Deem and Ramdas Pophale) SiO2 
 PCOD8311215
Probable space group: I -4 C 2
;
_chemical_formula_sum "Si O2"
_cell_formula_units_Z 112
_cell_length_a 14.238643
_cell_length_b 14.238643
_cell_length_c 25.351049
_cell_angle_alpha 90.000000
_cell_angle_beta 90.000000
_cell_angle_gamma 90.000000
_cell_volume 5139.645169
_symmetry_space_group_name_H-M "I -4 C 2"
_symmetry_group_IT_number 120
_symmetry_cell_setting 'tetragonal'
loop_
_space_group_symop_operation_xyz
x,y,z
y,-x,-z
-x,-y,z
-y,x,-z
y,x,1/2-z
-y,-x,1/2-z
-x,y,1/2+z
x,-y,1/2+z
1/2+x,1/2+y,1/2+z
1/2+y,1/2-x,1/2-z
1/2-x,1/2-y,1/2+z
1/2-y,1/2+x,1/2-z
1/2+y,1/2+x,-z
1/2-y,1/2-x,-z
1/2-x,1/2+y,z
1/2+x,1/2-y,z
loop_
_atom_site_type_symbol
_atom_site_label
_atom_site_fract_x
_atom_site_fract_y
_atom_site_fract_z
Si Si1 0.422757 0.224481 0.015038
Si Si2 0.658564 0.107932 0.945734
Si Si3 0.929524 0.629356 0.239018
Si Si4 0.427064 0.274314 0.650246
Si Si5 0.375952 0.329694 0.117618
Si Si6 0.741123 0.008373 0.092628
Si Si7 0.659501 0.233554 0.331017
O O1 0.497673 0.149277 0.039256
O O2 0.393625 0.303063 0.056947
O O3 0.329632 0.170369 0.000000
O O4 0.467184 0.275228 0.963743
O O5 0.749755 0.113853 0.908125
O O6 0.569055 0.146329 0.914235
O O7 0.669499 0.169499 0.000000
O O8 0.881950 0.528121 0.230110
O O9 0.946486 0.678384 0.182601
O O10 0.859378 0.691767 0.273569
O O11 0.523553 0.333723 0.647386
O O12 0.346066 0.335734 0.677112
O O13 0.325636 0.430961 0.118354
O O14 0.307777 0.256176 0.146403
O O15 0.708536 0.924827 0.130083
#
# Coordination Sequence:
#
# PCOD8311215 Si02
#       7
#    16  16  16  16  16  16  16
#     4  10  21  38  62  99 132 177 227 280 342 413
#     4   9  20  36  60  94 129 169 215 273 334 391
#     4  11  24  43  71 106 133 169 228 296 353 407
#     4  11  23  45  66  97 136 180 222 277 340 421
#     4  11  24  44  65  97 140 179 230 286 341 415
#     4  11  23  40  65  99 132 181 228 280 341 410
#     4  12  24  44  70  95 135 184 224 281 353 416
#
# _framework density 21.791388000000001
#
# number of rings (size 3 to 8) (size 9 to 14) (size 15 to 20)
#    0.000    1.286    4.286    1.286    0.000    8.286 
#    0.000    0.714    0.000    1.714    0.000    0.000 
#    0.000    0.000    0.000    0.000    0.000    0.000 
#
# Total GULP energy -694289.957780 kJ/mol
# GULP energy per Si atom -12398.034960 kJ/mol
# Density = 2.174179 g / cm^3
# Si number density = 21.791388 Si / 1000 Ang^3
#
#
#
# Elastic Constant Matrix: (Units=GPa)
#
#
# Indices 1 2 3 4 5 6 
#
# 1 79.3978 24.9962 13.1411 0.0000 0.0000 0.0000
# 2 24.9962 79.3967 13.1407 0.0000 0.0000 0.0000
# 3 13.1411 13.1407 64.0295 0.0000 0.0000 0.0000
# 4 0.0000 0.0000 0.0000 28.9146 0.0000 0.0000
# 5 0.0000 0.0000 0.0000 0.0000 28.9147 0.0000
# 6 0.0000 0.0000 0.0000 0.0000 0.0000 31.0178
#
#
#
# Elastic Compliance Matrix: (Units=1/GPa)
#
#
# Indices 1 2 3 4 5 6 
#
# 1 0.014241 -0.004140 -0.002073 0.000000 0.000000 0.000000
# 2 -0.004140 0.014242 -0.002073 0.000000 0.000000 0.000000
# 3 -0.002073 -0.002073 0.016469 0.000000 0.000000 0.000000
# 4 0.000000 0.000000 0.000000 0.034585 0.000000 0.000000
# 5 0.000000 0.000000 0.000000 0.000000 0.034584 0.000000
# 6 0.000000 0.000000 0.000000 0.000000 0.000000 0.032240
#
#
# Mechanical properties :
#
#
# Convention : Reuss Voigt Hill
#
# Bulk Modulus (GPa) = 35.23784 36.15334 35.69559
# Shear Modulus (GPa) = 29.00348 29.20582 29.10465
#
# Velocity S-wave (km/s) = 3.65219 3.66491 3.65856
# Velocity P-wave (km/s) = 5.83012 5.87668 5.85345
#
# Compressibility (1/GPa) = 0.02837858
#
# Stress axis : x y z
#
# Youngs Moduli (GPa) = 70.21762 70.21676 60.72116
#
# Poissons Ratio (x) = 0.29073 0.12588
# Poissons Ratio (y) = 0.29073 0.12588
# Poissons Ratio (z) = 0.14557 0.14556
#
# Static dielectric constant tensor:
#      x y z
#    x 3.799980 0.000000 0.000000 
#    y 0.000000 3.799980 0.000000 
#    z 0.000000 0.000000 4.016270 
# 
# 
# High freq. dielectric constant tensor:
#      x y z
#    x 1.844710 0.000000 0.000000 
#    y 0.000000 1.844710 0.000000 
#    z 0.000000 0.000000 1.860500 
# 
# From -- ./inp_files/6266.got.cif
#   From: 2010.03.12/outbox.cif.g09.slc.cpg/sg120_4_cif.got.tgz:6266.got - 2010.04.06 16:00:44.
