data_PCOD8311188
_publ_section_title
;
Structure prediction by ZEFSAII (Michael W. Deem and Ramdas Pophale) SiO2 
 PCOD8311188
Probable space group: I -4 C 2
;
_chemical_formula_sum "Si O2"
_cell_formula_units_Z 88
_cell_length_a 14.677654
_cell_length_b 14.677654
_cell_length_c 20.363548
_cell_angle_alpha 90.000000
_cell_angle_beta 90.000000
_cell_angle_gamma 90.000000
_cell_volume 4386.990967
_symmetry_space_group_name_H-M "I -4 C 2"
_symmetry_group_IT_number 120
_symmetry_cell_setting 'tetragonal'
loop_
_space_group_symop_operation_xyz
x,y,z
y,-x,-z
-x,-y,z
-y,x,-z
y,x,1/2-z
-y,-x,1/2-z
-x,y,1/2+z
x,-y,1/2+z
1/2+x,1/2+y,1/2+z
1/2+y,1/2-x,1/2-z
1/2-x,1/2-y,1/2+z
1/2-y,1/2+x,1/2-z
1/2+y,1/2+x,-z
1/2-y,1/2-x,-z
1/2-x,1/2+y,z
1/2+x,1/2-y,z
loop_
_atom_site_type_symbol
_atom_site_label
_atom_site_fract_x
_atom_site_fract_y
_atom_site_fract_z
Si Si1 0.295250 0.088011 0.349966
Si Si2 0.343696 0.291064 0.036608
Si Si3 0.037407 0.252420 0.001819
Si Si4 0.276811 0.276811 0.750000
Si Si5 0.884219 0.681662 0.663601
Si Si6 0.988200 0.394123 0.395542
O O1 0.263578 0.078511 0.425433
O O2 0.219895 0.149062 0.310119
O O3 0.398336 0.128829 0.351727
O O4 0.303457 0.989073 0.316404
O O5 0.440734 0.298039 0.000804
O O6 0.356389 0.253311 0.108767
O O7 0.273166 0.226835 0.000000
O O8 0.305623 0.393012 0.041833
O O9 0.021047 0.349434 0.967396
O O10 0.174667 0.293104 0.726355
O O11 0.860010 0.578374 0.642295
O O12 0.000000 0.500000 0.409540
#
# Coordination Sequence:
#
# PCOD8311188 Si02
#       6
#    16  16  16   8  16  16
#     4  10  24  38  61  94 121 167 211 255 317 380
#     4  11  21  39  60  95 126 162 206 259 326 382
#     4  11  22  37  66  92 132 161 206 264 323 395
#     4  12  24  42  60  82 134 170 212 248 304 380
#     4  10  23  39  62  93 122 164 209 260 322 382
#     4  10  20  38  66  99 128 152 203 279 349 382
#
# _framework density 20.059308000000001
#
# number of rings (size 3 to 8) (size 9 to 14) (size 15 to 20)
#    0.000    1.455    1.818    3.818    2.545    4.000 
#    0.000    0.000    0.000    0.545    0.000    0.000 
#    0.000    0.000    0.000    0.000    0.000    0.000 
#
# Total GULP energy -545399.987736 kJ/mol
# GULP energy per Si atom -12395.454267 kJ/mol
# Density = 2.001365 g / cm^3
# Si number density = 20.059308 Si / 1000 Ang^3
#
#
#
# Elastic Constant Matrix: (Units=GPa)
#
#
# Indices 1 2 3 4 5 6 
#
# 1 102.6032 53.2769 36.8482 0.0000 0.0000 0.0000
# 2 53.2769 102.6036 36.8457 0.0000 0.0000 0.0000
# 3 36.8482 36.8457 66.6197 0.0000 0.0000 0.0000
# 4 0.0000 0.0000 0.0000 73.9148 0.0000 0.0000
# 5 0.0000 0.0000 0.0000 0.0000 73.8587 0.0000
# 6 0.0000 0.0000 0.0000 0.0000 0.0000 36.7203
#
#
#
# Elastic Compliance Matrix: (Units=1/GPa)
#
#
# Indices 1 2 3 4 5 6 
#
# 1 0.014480 -0.005793 -0.004805 0.000000 0.000000 0.000000
# 2 -0.005793 0.014480 -0.004804 0.000000 0.000000 0.000000
# 3 -0.004805 -0.004804 0.020325 0.000000 0.000000 0.000000
# 4 0.000000 0.000000 0.000000 0.013529 0.000000 0.000000
# 5 0.000000 0.000000 0.000000 0.000000 0.013539 0.000000
# 6 0.000000 0.000000 0.000000 0.000000 0.000000 0.027233
#
#
# Mechanical properties :
#
#
# Convention : Reuss Voigt Hill
#
# Bulk Modulus (GPa) = 54.11135 58.41868 56.26502
# Shear Modulus (GPa) = 35.57435 46.55583 41.06509
#
# Velocity S-wave (km/s) = 4.21581 4.82281 4.52949
# Velocity P-wave (km/s) = 7.12262 7.75879 7.44750
#
# Compressibility (1/GPa) = 0.01848041
#
# Stress axis : x y z
#
# Youngs Moduli (GPa) = 69.06030 69.06301 49.19999
#
# Poissons Ratio (x) = 0.40010 0.23641
# Poissons Ratio (y) = 0.40009 0.23635
# Poissons Ratio (z) = 0.33184 0.33177
#
# Static dielectric constant tensor:
#      x y z
#    x 3.797200 0.000000 0.000000 
#    y 0.000000 3.797080 0.000000 
#    z 0.000000 0.000000 3.528800 
# 
# 
# High freq. dielectric constant tensor:
#      x y z
#    x 1.780480 0.000000 0.000000 
#    y 0.000000 1.780480 0.000000 
#    z 0.000000 0.000000 1.777680 
# 
# From -- ./inp_files/5246.got.cif
#   From: 2010.03.12/outbox.cif.g09.slc.cpg/sg120_3_cif.got.tgz:5246.got - 2010.04.06 16:00:44.
