data_PCOD8311057
_publ_section_title
;
Structure prediction by ZEFSAII (Michael W. Deem and Ramdas Pophale) SiO2 
 PCOD8311057
Probable space group: I -4 M 2
;
_chemical_formula_sum "Si O2"
_cell_formula_units_Z 64
_cell_length_a 16.921778
_cell_length_b 16.921778
_cell_length_c 11.657712
_cell_angle_alpha 90.000000
_cell_angle_beta 90.000000
_cell_angle_gamma 90.000000
_cell_volume 3338.145853
_symmetry_space_group_name_H-M "I -4 M 2"
_symmetry_group_IT_number 119
_symmetry_cell_setting 'tetragonal'
loop_
_space_group_symop_operation_xyz
x,y,z
y,-x,-z
-x,-y,z
-y,x,-z
y,x,-z
-y,-x,-z
-x,y,z
x,-y,z
1/2+x,1/2+y,1/2+z
1/2+y,1/2-x,1/2-z
1/2-x,1/2-y,1/2+z
1/2-y,1/2+x,1/2-z
1/2+y,1/2+x,1/2-z
1/2-y,1/2-x,1/2-z
1/2-x,1/2+y,1/2+z
1/2+x,1/2-y,1/2+z
loop_
_atom_site_type_symbol
_atom_site_label
_atom_site_fract_x
_atom_site_fract_y
_atom_site_fract_z
Si Si1 0.302166 0.316496 0.188632
Si Si2 0.590380 0.228962 0.004262
Si Si3 0.648210 0.089987 0.128652
Si Si4 0.334462 0.409842 0.611608
O O1 0.246901 0.253100 0.250000
O O2 0.248327 0.380842 0.124005
O O3 0.356675 0.362031 0.280836
O O4 0.358621 0.274219 0.098282
O O5 0.500000 0.254834 0.017959
O O6 0.600587 0.135396 0.028497
O O7 0.631093 0.131093 0.250000
O O8 0.740380 0.096026 0.099594
O O9 0.618763 0.000000 0.131559
O O10 0.375981 0.375981 0.500000
O O11 0.361512 0.500000 0.631264
#
# Coordination Sequence:
#
# PCOD8311057 Si02
#       4
#    16  16  16  16
#     4  11  21  38  64  85 117 156 203 242 287 352
#     4  11  22  37  60  90 120 156 195 243 297 348
#     4  11  21  34  59  93 124 154 194 241 293 351
#     4  11  22  38  61  88 119 155 199 250 296 346
#
# _framework density 19.172319000000002
#
# number of rings (size 3 to 8) (size 9 to 14) (size 15 to 20)
#    0.000    1.000    5.000    3.000    0.000    3.000 
#    0.000    1.250    0.000   12.000    0.000    0.000 
#    0.000    0.000    0.000    0.000    0.000    0.000 
#
# Total GULP energy -396837.028177 kJ/mol
# GULP energy per Si atom -12401.157131 kJ/mol
# Density = 1.912868 g / cm^3
# Si number density = 19.172319 Si / 1000 Ang^3
#
#
#
# Elastic Constant Matrix: (Units=GPa)
#
#
# Indices 1 2 3 4 5 6 
#
# 1 95.3913 56.1613 61.9742 0.0000 0.0000 0.0000
# 2 56.1613 95.3890 61.9744 0.0000 0.0000 0.0000
# 3 61.9742 61.9744 138.1373 0.0000 0.0000 0.0000
# 4 0.0000 0.0000 0.0000 24.5767 0.0000 0.0000
# 5 0.0000 0.0000 0.0000 0.0000 24.5766 0.0000
# 6 0.0000 0.0000 0.0000 0.0000 0.0000 20.2265
#
#
#
# Elastic Compliance Matrix: (Units=1/GPa)
#
#
# Indices 1 2 3 4 5 6 
#
# 1 0.017957 -0.007534 -0.004676 0.000000 0.000000 0.000000
# 2 -0.007534 0.017957 -0.004676 0.000000 0.000000 0.000000
# 3 -0.004676 -0.004676 0.011435 0.000000 0.000000 0.000000
# 4 0.000000 0.000000 0.000000 0.040689 0.000000 0.000000
# 5 0.000000 0.000000 0.000000 0.000000 0.040689 0.000000
# 6 0.000000 0.000000 0.000000 0.000000 0.000000 0.049440
#
#
# Mechanical properties :
#
#
# Convention : Reuss Voigt Hill
#
# Bulk Modulus (GPa) = 73.65844 76.57082 75.11463
# Shear Modulus (GPa) = 23.09833 23.79648 23.44741
#
# Velocity S-wave (km/s) = 3.47475 3.52687 3.50091
# Velocity P-wave (km/s) = 7.38926 7.52396 7.45691
#
# Compressibility (1/GPa) = 0.01357618
#
# Stress axis : x y z
#
# Youngs Moduli (GPa) = 55.68907 55.68714 87.45072
#
# Poissons Ratio (x) = 0.41956 0.40892
# Poissons Ratio (y) = 0.41958 0.40895
# Poissons Ratio (z) = 0.26040 0.26041
#
# Static dielectric constant tensor:
#      x y z
#    x 3.638180 0.000000 0.000000 
#    y 0.000000 3.638170 0.000000 
#    z 0.000000 0.000000 3.858920 
# 
# 
# High freq. dielectric constant tensor:
#      x y z
#    x 1.742420 0.000000 0.000000 
#    y 0.000000 1.742420 0.000000 
#    z 0.000000 0.000000 1.743660 
# 
# From -- ./inp_files/3730.got.cif
#   From: 2010.03.12/outbox.cif.g09.slc.cpg/sg119_2_cif.got.tgz:3730.got - 2010.04.14 02:25:26.
