data_PCOD8311389
_publ_section_title
;
Structure prediction by ZEFSAII (Michael W. Deem and Ramdas Pophale) SiO2 
 PCOD8311389
Probable space group: I -4 2 M
;
_chemical_formula_sum "Si O2"
_cell_formula_units_Z 112
_cell_length_a 21.705872
_cell_length_b 21.705872
_cell_length_c 12.380472
_cell_angle_alpha 90.000000
_cell_angle_beta 90.000000
_cell_angle_gamma 90.000000
_cell_volume 5832.995986
_symmetry_space_group_name_H-M "I -4 2 M"
_symmetry_group_IT_number 121
_symmetry_cell_setting 'tetragonal'
loop_
_space_group_symop_operation_xyz
x,y,z
y,-x,-z
-x,-y,z
-y,x,-z
x,-y,-z
-x,y,-z
-y,-x,z
y,x,z
1/2+x,1/2+y,1/2+z
1/2+y,1/2-x,1/2-z
1/2-x,1/2-y,1/2+z
1/2-y,1/2+x,1/2-z
1/2+x,1/2-y,1/2-z
1/2-x,1/2+y,1/2-z
1/2-y,1/2-x,1/2+z
1/2+y,1/2+x,1/2+z
loop_
_atom_site_type_symbol
_atom_site_label
_atom_site_fract_x
_atom_site_fract_y
_atom_site_fract_z
Si Si1 0.191600 0.376836 0.887287
Si Si2 0.407710 0.039451 0.124535
Si Si3 0.962558 0.414467 0.619482
Si Si4 0.238119 0.337575 0.097164
Si Si5 0.216111 0.390477 0.644033
Si Si6 0.356121 0.745951 0.669480
Si Si7 0.928402 0.173717 0.998449
O O1 0.148079 0.432912 0.920042
O O2 0.224034 0.390157 0.773437
O O3 0.154799 0.312012 0.885356
O O4 0.238843 0.377424 0.987582
O O5 0.417315 0.037255 0.251923
O O6 0.341278 0.068720 0.100038
O O7 0.416411 0.969747 0.078738
O O8 0.466018 0.079782 0.076931
O O9 0.298884 0.298884 0.090272
O O10 0.178694 0.293229 0.102423
O O11 0.241922 0.378409 0.206831
O O12 0.279997 0.416884 0.600428
O O13 0.291790 0.708211 0.666169
O O14 0.410005 0.708970 0.608936
O O15 0.887997 0.112004 0.983575
O O16 0.000000 0.154638 0.000000
#
# Coordination Sequence:
#
# PCOD8311389 Si02
#       7
#    16  16  16  16  16  16  16
#     4  10  18  30  53  84 114 154 191 241 274 327
#     4   8  15  29  46  70 106 153 190 231 272 321
#     4   8  15  28  47  70 106 149 197 230 267 315
#     4  10  19  33  53  76 110 153 192 232 285 341
#     4  10  20  32  54  85 113 150 190 242 286 339
#     4   9  19  35  55  80 111 148 192 234 284 349
#     4  11  24  42  65  90 115 143 188 247 308 372
#
# _framework density 19.20111
#
# number of rings (size 3 to 8) (size 9 to 14) (size 15 to 20)
#    0.000    2.571    1.429    1.714    2.000    1.857 
#    2.571    0.714    0.000    1.714    0.000    2.000 
#    0.000    0.000    0.000    3.714    0.000    0.000 
#
# Total GULP energy -694211.613630 kJ/mol
# GULP energy per Si atom -12396.635958 kJ/mol
# Density = 1.915741 g / cm^3
# Si number density = 19.201110 Si / 1000 Ang^3
#
#
#
# Elastic Constant Matrix: (Units=GPa)
#
#
# Indices 1 2 3 4 5 6 
#
# 1 94.5482 39.4041 42.6826 0.0000 0.0000 0.0000
# 2 39.4041 94.5496 42.6825 0.0000 0.0000 0.0000
# 3 42.6826 42.6825 128.8405 0.0000 0.0000 0.0000
# 4 0.0000 0.0000 0.0000 25.7621 0.0000 0.0000
# 5 0.0000 0.0000 0.0000 0.0000 25.7618 0.0000
# 6 0.0000 0.0000 0.0000 0.0000 0.0000 20.9810
#
#
#
# Elastic Compliance Matrix: (Units=1/GPa)
#
#
# Indices 1 2 3 4 5 6 
#
# 1 0.013799 -0.004335 -0.003135 0.000000 0.000000 0.000000
# 2 -0.004335 0.013798 -0.003135 0.000000 0.000000 0.000000
# 3 -0.003135 -0.003135 0.009839 0.000000 0.000000 0.000000
# 4 0.000000 0.000000 0.000000 0.038817 0.000000 0.000000
# 5 0.000000 0.000000 0.000000 0.000000 0.038817 0.000000
# 6 0.000000 0.000000 0.000000 0.000000 0.000000 0.047662
#
#
# Mechanical properties :
#
#
# Convention : Reuss Voigt Hill
#
# Bulk Modulus (GPa) = 61.63304 63.05297 62.34301
# Shear Modulus (GPa) = 26.40599 27.37893 26.89246
#
# Velocity S-wave (km/s) = 3.71244 3.78021 3.74648
# Velocity P-wave (km/s) = 7.10947 7.20852 7.15917
#
# Compressibility (1/GPa) = 0.01622506
#
# Stress axis : x y z
#
# Youngs Moduli (GPa) = 72.47035 72.47170 101.63994
#
# Poissons Ratio (x) = 0.31420 0.31864
# Poissons Ratio (y) = 0.31419 0.31863
# Poissons Ratio (z) = 0.22720 0.22719
#
# Static dielectric constant tensor:
#      x y z
#    x 3.412140 0.000000 0.000000 
#    y 0.000000 3.412140 0.000000 
#    z 0.000000 0.000000 4.236040 
# 
# 
# High freq. dielectric constant tensor:
#      x y z
#    x 1.715900 0.000000 0.000000 
#    y 0.000000 1.715900 0.000000 
#    z 0.000000 0.000000 1.792310 
# 
# From -- ./inp_files/3492.got.cif
#   From: 2010.03.12/outbox.cif.g09.slc.cpg/sg121_2_cif.got.tgz:3492.got - 2010.04.06 16:06:48.
