data_PCOD8311968
_publ_section_title
;
Structure prediction by ZEFSAII (Michael W. Deem and Ramdas Pophale) SiO2 
 PCOD8311968
Probable space group: I -4 2 D
;
_chemical_formula_sum "Si O2"
_cell_formula_units_Z 88
_cell_length_a 11.996365
_cell_length_b 11.996365
_cell_length_c 30.591218
_cell_angle_alpha 90.000000
_cell_angle_beta 90.000000
_cell_angle_gamma 90.000000
_cell_volume 4402.467018
_symmetry_space_group_name_H-M "I -4 2 D"
_symmetry_group_IT_number 122
_symmetry_cell_setting 'tetragonal'
loop_
_space_group_symop_operation_xyz
x,y,z
y,-x,-z
-x,-y,z
-y,x,-z
x,1/2-y,1/4-z
-x,1/2+y,1/4-z
-y,1/2-x,1/4+z
y,1/2+x,1/4+z
1/2+x,1/2+y,1/2+z
1/2+y,1/2-x,1/2-z
1/2-x,1/2-y,1/2+z
1/2-y,1/2+x,1/2-z
1/2+x,-y,3/4-z
1/2-x,y,3/4-z
1/2-y,-x,3/4+z
1/2+y,x,3/4+z
loop_
_atom_site_type_symbol
_atom_site_label
_atom_site_fract_x
_atom_site_fract_y
_atom_site_fract_z
Si Si1 0.673520 0.578605 0.256891
Si Si2 0.674125 0.001690 0.440513
Si Si3 0.500000 0.000000 0.923251
Si Si4 0.059882 0.396534 0.652145
Si Si5 0.694746 0.858098 0.596133
Si Si6 0.165486 0.284844 0.997668
O O1 0.588552 0.599353 0.217220
O O2 0.596033 0.560972 0.298953
O O3 0.761009 0.677842 0.265160
O O4 0.744152 0.466422 0.246959
O O5 0.686577 0.882030 0.462735
O O6 0.623827 0.989113 0.392091
O O7 0.796169 0.055195 0.436408
O O8 0.556079 0.094816 0.893187
O O9 0.189417 0.416701 0.640356
O O10 0.000000 0.500000 0.675756
O O11 0.674037 0.750000 0.625000
O O12 0.699027 0.829364 0.545096
#
# Coordination Sequence:
#
# PCOD8311968 Si02
#       6
#    16  16   8  16  16  16
#     4  11  20  41  65  94 127 173 220 276 324 397
#     4  11  21  41  63  94 133 173 211 269 344 403
#     4  10  24  40  66  88 128 175 230 275 334 386
#     4  11  23  37  62  97 136 169 215 274 344 399
#     4  11  21  43  62  91 129 177 215 268 337 397
#     4  11  23  38  69  92 128 176 228 267 334 398
#
# _framework density 19.988793999999999
#
# number of rings (size 3 to 8) (size 9 to 14) (size 15 to 20)
#    0.000    1.091    7.273    1.091    2.545    0.364 
#    0.000   10.909    0.000    0.000    0.000    0.000 
#    0.000    0.000    0.000    0.000    0.000    0.000 
#
# Total GULP energy -545539.109898 kJ/mol
# GULP energy per Si atom -12398.616134 kJ/mol
# Density = 1.994330 g / cm^3
# Si number density = 19.988794 Si / 1000 Ang^3
#
#
#
# Elastic Constant Matrix: (Units=GPa)
#
#
# Indices 1 2 3 4 5 6 
#
# 1 139.1095 65.1570 22.4979 0.0000 0.0000 0.0000
# 2 65.1570 139.1095 22.4979 0.0000 0.0000 0.0000
# 3 22.4979 22.4979 62.4964 0.0000 0.0000 0.0000
# 4 0.0000 0.0000 0.0000 24.0294 0.0000 0.0000
# 5 0.0000 0.0000 0.0000 0.0000 24.0294 0.0000
# 6 0.0000 0.0000 0.0000 0.0000 0.0000 54.8834
#
#
#
# Elastic Compliance Matrix: (Units=1/GPa)
#
#
# Indices 1 2 3 4 5 6 
#
# 1 0.009420 -0.004102 -0.001914 0.000000 0.000000 0.000000
# 2 -0.004102 0.009420 -0.001914 0.000000 0.000000 0.000000
# 3 -0.001914 -0.001914 0.017379 0.000000 0.000000 0.000000
# 4 0.000000 0.000000 0.000000 0.041616 0.000000 0.000000
# 5 0.000000 0.000000 0.000000 0.000000 0.041616 0.000000
# 6 0.000000 0.000000 0.000000 0.000000 0.000000 0.018220
#
#
# Mechanical properties :
#
#
# Convention : Reuss Voigt Hill
#
# Bulk Modulus (GPa) = 49.12326 62.33568 55.72947
# Shear Modulus (GPa) = 31.18814 35.95927 33.57371
#
# Velocity S-wave (km/s) = 3.95432 4.24603 4.10277
# Velocity P-wave (km/s) = 6.74371 7.43582 7.09821
#
# Compressibility (1/GPa) = 0.02035696
#
# Stress axis : x y z
#
# Youngs Moduli (GPa) = 106.16046 106.16046 57.54052
#
# Poissons Ratio (x) = 0.43552 0.11014
# Poissons Ratio (y) = 0.43552 0.11014
# Poissons Ratio (z) = 0.20320 0.20320
#
# Static dielectric constant tensor:
#      x y z
#    x 3.899920 0.000000 0.000000 
#    y 0.000000 3.899920 0.000000 
#    z 0.000000 0.000000 3.469340 
# 
# 
# High freq. dielectric constant tensor:
#      x y z
#    x 1.786910 0.000000 0.000000 
#    y 0.000000 1.786910 0.000000 
#    z 0.000000 0.000000 1.762290 
# 
# From -- ./inp_files/9531.got.cif
#   From: 2010.03.12/outbox.cif.g09.slc.cpg/sg122_5_cif.got.tgz:9531.got - 2010.04.06 16:17:16.
