data_PCOD8311367
_publ_section_title
;
Structure prediction by ZEFSAII (Michael W. Deem and Ramdas Pophale) SiO2 
 PCOD8311367
Probable space group: I -4 2 M
;
_chemical_formula_sum "Si O2"
_cell_formula_units_Z 96
_cell_length_a 26.576642
_cell_length_b 26.576642
_cell_length_c 9.939296
_cell_angle_alpha 90.000000
_cell_angle_beta 90.000000
_cell_angle_gamma 90.000000
_cell_volume 7020.302678
_symmetry_space_group_name_H-M "I -4 2 M"
_symmetry_group_IT_number 121
_symmetry_cell_setting 'tetragonal'
loop_
_space_group_symop_operation_xyz
x,y,z
y,-x,-z
-x,-y,z
-y,x,-z
x,-y,-z
-x,y,-z
-y,-x,z
y,x,z
1/2+x,1/2+y,1/2+z
1/2+y,1/2-x,1/2-z
1/2-x,1/2-y,1/2+z
1/2-y,1/2+x,1/2-z
1/2+x,1/2-y,1/2-z
1/2-x,1/2+y,1/2-z
1/2-y,1/2-x,1/2+z
1/2+y,1/2+x,1/2+z
loop_
_atom_site_type_symbol
_atom_site_label
_atom_site_fract_x
_atom_site_fract_y
_atom_site_fract_z
Si Si1 0.684911 0.601556 0.231897
Si Si2 0.642132 0.442017 0.028316
Si Si3 0.135530 0.055626 0.963339
Si Si4 0.761144 0.676345 0.328156
Si Si5 0.676008 0.761096 0.635649
Si Si6 0.603061 0.316647 0.278525
O O1 0.645253 0.645253 0.262931
O O2 0.680222 0.580792 0.081796
O O3 0.671814 0.555980 0.333310
O O4 0.739853 0.624506 0.263534
O O5 0.589890 0.410111 0.034390
O O6 0.627698 0.500000 0.000000
O O7 0.675485 0.439479 0.164628
O O8 0.083133 0.083133 0.933286
O O9 0.165934 0.082692 0.079601
O O10 0.120072 0.000000 0.000000
O O11 0.719159 0.719159 0.326222
O O12 0.779938 0.667401 0.481721
O O13 0.806912 0.693171 0.231467
O O14 0.716850 0.716850 0.632183
O O15 0.623889 0.739991 0.700326
O O16 0.649341 0.350660 0.228496
#
# Coordination Sequence:
#
# PCOD8311367 Si02
#       6
#    16  16  16  16  16  16
#     4   9  17  29  41  55  76  97 120 155 201 248
#     4  10  20  31  43  57  73  99 135 175 218 254
#     4  10  18  29  43  55  71  97 129 169 214 252
#     4   9  16  25  39  59  79  97 116 141 182 239
#     4   9  16  25  39  59  79  97 116 141 182 239
#     4   9  17  29  41  55  76  97 120 155 201 248
#
# _framework density 13.674625000000001
#
# number of rings (size 3 to 8) (size 9 to 14) (size 15 to 20)
#    0.000    2.667    1.667    1.000    2.333    0.333 
#    0.000    0.000    0.000    6.000    0.000    0.000 
#    0.000    0.000    0.000    0.000    0.000    0.000 
#
# Total GULP energy -594844.021417 kJ/mol
# GULP energy per Si atom -12392.583780 kJ/mol
# Density = 1.364350 g / cm^3
# Si number density = 13.674625 Si / 1000 Ang^3
#
#
#
# Elastic Constant Matrix: (Units=GPa)
#
#
# Indices 1 2 3 4 5 6 
#
# 1 37.2617 35.7723 15.2733 0.0000 0.0000 0.0000
# 2 35.7723 37.2616 15.2736 0.0000 0.0000 0.0000
# 3 15.2733 15.2736 67.1958 0.0000 0.0000 0.0000
# 4 0.0000 0.0000 0.0000 17.1853 0.0000 0.0000
# 5 0.0000 0.0000 0.0000 0.0000 17.1856 0.0000
# 6 0.0000 0.0000 0.0000 0.0000 0.0000 11.0225
#
#
#
# Elastic Compliance Matrix: (Units=1/GPa)
#
#
# Indices 1 2 3 4 5 6 
#
# 1 0.343277 -0.328148 -0.003437 0.000000 0.000000 0.000000
# 2 -0.328148 0.343280 -0.003441 0.000000 0.000000 0.000000
# 3 -0.003437 -0.003441 0.016445 0.000000 0.000000 0.000000
# 4 0.000000 0.000000 0.000000 0.058189 0.000000 0.000000
# 5 0.000000 0.000000 0.000000 0.000000 0.058188 0.000000
# 6 0.000000 0.000000 0.000000 0.000000 0.000000 0.090724
#
#
# Mechanical properties :
#
#
# Convention : Reuss Voigt Hill
#
# Bulk Modulus (GPa) = 30.34897 30.48416 30.41657
# Shear Modulus (GPa) = 3.14240 14.10533 8.62387
#
# Velocity S-wave (km/s) = 1.51755 3.21518 2.51399
# Velocity P-wave (km/s) = 5.03115 6.01033 5.54240
#
# Compressibility (1/GPa) = 0.03295005
#
# Stress axis : x y z
#
# Youngs Moduli (GPa) = 2.91310 2.91307 60.80758
#
# Poissons Ratio (x) = 0.95592 0.20901
# Poissons Ratio (y) = 0.95593 0.20925
# Poissons Ratio (z) = 0.01001 0.01002
#
# Static dielectric constant tensor:
#      x y z
#    x 2.523600 0.000000 0.000000 
#    y 0.000000 2.523600 0.000000 
#    z 0.000000 0.000000 2.923730 
# 
# 
# High freq. dielectric constant tensor:
#      x y z
#    x 1.479410 0.000000 0.000000 
#    y 0.000000 1.479410 0.000000 
#    z 0.000000 0.000000 1.545260 
# 
# From -- ./inp_files/2041.got.cif
#   From: 2010.03.12/outbox.cif.g09.slc.cpg/sg121_2_cif.got.tgz:2041.got - 2010.04.06 16:06:48.
