data_PCOD8311036
_publ_section_title
;
Structure prediction by ZEFSAII (Michael W. Deem and Ramdas Pophale) SiO2 
 PCOD8311036
Probable space group: I -4 M 2
;
_chemical_formula_sum "Si O2"
_cell_formula_units_Z 52
_cell_length_a 14.559284
_cell_length_b 14.559284
_cell_length_c 10.428176
_cell_angle_alpha 90.000000
_cell_angle_beta 90.000000
_cell_angle_gamma 90.000000
_cell_volume 2210.489150
_symmetry_space_group_name_H-M "I -4 M 2"
_symmetry_group_IT_number 119
_symmetry_cell_setting 'tetragonal'
loop_
_space_group_symop_operation_xyz
x,y,z
y,-x,-z
-x,-y,z
-y,x,-z
y,x,-z
-y,-x,-z
-x,y,z
x,-y,z
1/2+x,1/2+y,1/2+z
1/2+y,1/2-x,1/2-z
1/2-x,1/2-y,1/2+z
1/2-y,1/2+x,1/2-z
1/2+y,1/2+x,1/2-z
1/2-y,1/2-x,1/2-z
1/2-x,1/2+y,1/2+z
1/2+x,1/2-y,1/2+z
loop_
_atom_site_type_symbol
_atom_site_label
_atom_site_fract_x
_atom_site_fract_y
_atom_site_fract_z
Si Si1 0.808773 0.839915 0.256927
Si Si2 0.000000 0.500000 0.555740
Si Si3 0.500000 0.285944 0.836671
Si Si4 0.395887 0.395887 0.500000
Si Si5 0.500000 0.125298 0.676194
Si Si6 0.000000 0.700928 0.610076
O O1 0.760619 0.739382 0.250000
O O2 0.904922 0.842750 0.337097
O O3 0.825480 0.875350 0.113892
O O4 0.741660 0.908752 0.328918
O O5 0.093562 0.500000 0.470663
O O6 0.000000 0.591919 0.640488
O O7 0.500000 0.234305 0.696949
O O8 0.500000 0.216871 0.957114
O O9 0.381911 0.500000 0.451066
O O10 0.410460 0.089541 0.750000
#
# Coordination Sequence:
#
# PCOD8311036 Si02
#       6
#    16   4   8   8   8   8
#     4  12  29  47  76 113 150 199 261 319 394 459
#     4  10  23  42  79 110 166 204 246 308 388 474
#     4  12  24  45  73 112 153 197 262 326 373 451
#     4  11  24  54  82 104 148 207 268 322 376 473
#     4   9  16  36  67 104 140 199 257 295 360 446
#     4  12  27  49  71 113 161 204 249 319 398 458
#
# _framework density 23.524204999999998
#
# number of rings (size 3 to 8) (size 9 to 14) (size 15 to 20)
#    0.000    0.923    6.154    1.846    4.308    1.846 
#    0.000    1.538    0.000    0.000    0.000    0.000 
#    0.000    0.000    0.000    0.000    0.000    0.000 
#
# Total GULP energy -322378.821747 kJ/mol
# GULP energy per Si atom -12399.185452 kJ/mol
# Density = 2.347066 g / cm^3
# Si number density = 23.524205 Si / 1000 Ang^3
#
#
#
# Elastic Constant Matrix: (Units=GPa)
#
#
# Indices 1 2 3 4 5 6 
#
# 1 152.4531 66.9010 47.9712 0.0000 0.0000 0.0000
# 2 66.9010 152.4543 47.9710 0.0000 0.0000 0.0000
# 3 47.9712 47.9710 93.4980 0.0000 0.0000 0.0000
# 4 0.0000 0.0000 0.0000 36.1026 0.0000 0.0000
# 5 0.0000 0.0000 0.0000 0.0000 36.1014 0.0000
# 6 0.0000 0.0000 0.0000 0.0000 0.0000 6.0079
#
#
#
# Elastic Compliance Matrix: (Units=1/GPa)
#
#
# Indices 1 2 3 4 5 6 
#
# 1 0.008783 -0.002905 -0.003016 0.000000 0.000000 0.000000
# 2 -0.002905 0.008783 -0.003016 0.000000 0.000000 0.000000
# 3 -0.003016 -0.003016 0.013790 0.000000 0.000000 0.000000
# 4 0.000000 0.000000 0.000000 0.027699 0.000000 0.000000
# 5 0.000000 0.000000 0.000000 0.000000 0.027700 0.000000
# 6 0.000000 0.000000 0.000000 0.000000 0.000000 0.166448
#
#
# Mechanical properties :
#
#
# Convention : Reuss Voigt Hill
#
# Bulk Modulus (GPa) = 74.16913 80.45466 77.31189
# Shear Modulus (GPa) = 18.14410 31.34653 24.74532
#
# Velocity S-wave (km/s) = 2.78023 3.65433 3.24683
# Velocity P-wave (km/s) = 6.47330 7.21669 6.85508
#
# Compressibility (1/GPa) = 0.01348270
#
# Stress axis : x y z
#
# Youngs Moduli (GPa) = 113.85195 113.85322 72.51625
#
# Poissons Ratio (x) = 0.33079 0.21869
# Poissons Ratio (y) = 0.33079 0.21869
# Poissons Ratio (z) = 0.34336 0.34335
#
# Static dielectric constant tensor:
#      x y z
#    x 4.255860 0.000000 0.000000 
#    y 0.000000 4.255870 0.000000 
#    z 0.000000 0.000000 4.081960 
# 
# 
# High freq. dielectric constant tensor:
#      x y z
#    x 1.935260 0.000000 0.000000 
#    y 0.000000 1.935260 0.000000 
#    z 0.000000 0.000000 1.925850 
# 
# From -- ./inp_files/3577.got.cif
#   From: 2010.03.12/outbox.cif.g09.slc.cpg/sg119_2_cif.got.tgz:3577.got - 2010.04.14 02:25:26.
