data_PCOD8311433
_publ_section_title
;
Structure prediction by ZEFSAII (Michael W. Deem and Ramdas Pophale) SiO2 
 PCOD8311433
Probable space group: I -4 2 M
;
_chemical_formula_sum "Si O2"
_cell_formula_units_Z 80
_cell_length_a 16.560118
_cell_length_b 16.560118
_cell_length_c 17.173150
_cell_angle_alpha 90.000000
_cell_angle_beta 90.000000
_cell_angle_gamma 90.000000
_cell_volume 4709.521863
_symmetry_space_group_name_H-M "I -4 2 M"
_symmetry_group_IT_number 121
_symmetry_cell_setting 'tetragonal'
loop_
_space_group_symop_operation_xyz
x,y,z
y,-x,-z
-x,-y,z
-y,x,-z
x,-y,-z
-x,y,-z
-y,-x,z
y,x,z
1/2+x,1/2+y,1/2+z
1/2+y,1/2-x,1/2-z
1/2-x,1/2-y,1/2+z
1/2-y,1/2+x,1/2-z
1/2+x,1/2-y,1/2-z
1/2-x,1/2+y,1/2-z
1/2-y,1/2-x,1/2+z
1/2+y,1/2+x,1/2+z
loop_
_atom_site_type_symbol
_atom_site_label
_atom_site_fract_x
_atom_site_fract_y
_atom_site_fract_z
Si Si1 0.800124 0.673026 0.536101
Si Si2 0.148971 0.420777 0.679374
Si Si3 0.324135 0.991948 0.664602
Si Si4 0.890020 0.558857 0.433865
Si Si5 0.697042 0.432870 0.937746
O O1 0.714307 0.714307 0.520030
O O2 0.798645 0.637188 0.623675
O O3 0.812580 0.602578 0.472985
O O4 0.872771 0.736696 0.525919
O O5 0.062965 0.380693 0.696210
O O6 0.191743 0.431109 0.763340
O O7 0.138402 0.508511 0.640454
O O8 0.236575 0.022915 0.636802
O O9 0.372513 0.953166 0.592039
O O10 0.928908 0.500000 0.500000
O O11 0.617720 0.382281 0.911994
O O12 0.670629 0.500000 0.000000
#
# Coordination Sequence:
#
# PCOD8311433 Si02
#       5
#    16  16  16  16  16
#     4   9  19  35  50  70 102 138 173 210 253 306
#     4  10  20  29  49  77 108 131 165 205 262 313
#     4  11  19  31  48  78 107 135 163 210 265 313
#     4  10  19  30  50  77 100 134 172 210 253 310
#     4  10  20  34  51  69  97 137 181 218 249 292
#
# _framework density 16.986861999999999
#
# number of rings (size 3 to 8) (size 9 to 14) (size 15 to 20)
#    0.000    2.000    4.000    0.600    0.000    4.200 
#    0.000    3.000    0.000    0.000    0.000    0.000 
#    0.000   46.800    0.000    0.000    0.000    0.000 
#
# Total GULP energy -495871.200429 kJ/mol
# GULP energy per Si atom -12396.780011 kJ/mol
# Density = 1.694820 g / cm^3
# Si number density = 16.986862 Si / 1000 Ang^3
#
#
#
# Elastic Constant Matrix: (Units=GPa)
#
#
# Indices 1 2 3 4 5 6 
#
# 1 76.7422 48.6670 43.4202 0.0000 0.0000 0.0000
# 2 48.6670 76.7427 43.4207 0.0000 0.0000 0.0000
# 3 43.4202 43.4207 100.8485 0.0000 0.0000 0.0000
# 4 0.0000 0.0000 0.0000 18.7656 0.0000 0.0000
# 5 0.0000 0.0000 0.0000 0.0000 18.7655 0.0000
# 6 0.0000 0.0000 0.0000 0.0000 0.0000 32.8785
#
#
#
# Elastic Compliance Matrix: (Units=1/GPa)
#
#
# Indices 1 2 3 4 5 6 
#
# 1 0.023490 -0.012129 -0.004891 0.000000 0.000000 0.000000
# 2 -0.012129 0.023490 -0.004892 0.000000 0.000000 0.000000
# 3 -0.004891 -0.004892 0.014128 0.000000 0.000000 0.000000
# 4 0.000000 0.000000 0.000000 0.053289 0.000000 0.000000
# 5 0.000000 0.000000 0.000000 0.000000 0.053289 0.000000
# 6 0.000000 0.000000 0.000000 0.000000 0.000000 0.030415
#
#
# Mechanical properties :
#
#
# Convention : Reuss Voigt Hill
#
# Bulk Modulus (GPa) = 57.85695 58.37212 58.11453
# Shear Modulus (GPa) = 20.18692 22.00363 21.09528
#
# Velocity S-wave (km/s) = 3.45103 3.60298 3.52782
# Velocity P-wave (km/s) = 7.07201 7.19349 7.13301
#
# Compressibility (1/GPa) = 0.01728401
#
# Stress axis : x y z
#
# Youngs Moduli (GPa) = 42.57186 42.57190 70.78160
#
# Poissons Ratio (x) = 0.51634 0.34622
# Poissons Ratio (y) = 0.51634 0.34624
# Poissons Ratio (z) = 0.20824 0.20825
#
# Static dielectric constant tensor:
#      x y z
#    x 3.058730 0.000000 0.000000 
#    y 0.000000 3.058740 0.000000 
#    z 0.000000 0.000000 3.112080 
# 
# 
# High freq. dielectric constant tensor:
#      x y z
#    x 1.631310 0.000000 0.000000 
#    y 0.000000 1.631310 0.000000 
#    z 0.000000 0.000000 1.656070 
# 
# From -- ./inp_files/4264.got.cif
#   From: 2010.03.12/outbox.cif.g09.slc.cpg/sg121_3_cif.got.tgz:4264.got - 2010.04.06 16:06:48.
