data_PCOD8311920
_publ_section_title
;
Structure prediction by ZEFSAII (Michael W. Deem and Ramdas Pophale) SiO2 
 PCOD8311920
Probable space group: I -4 2 D
;
_chemical_formula_sum "Si O2"
_cell_formula_units_Z 44
_cell_length_a 12.483894
_cell_length_b 12.483894
_cell_length_c 12.899802
_cell_angle_alpha 90.000000
_cell_angle_beta 90.000000
_cell_angle_gamma 90.000000
_cell_volume 2010.403303
_symmetry_space_group_name_H-M "I -4 2 D"
_symmetry_group_IT_number 122
_symmetry_cell_setting 'tetragonal'
loop_
_space_group_symop_operation_xyz
x,y,z
y,-x,-z
-x,-y,z
-y,x,-z
x,1/2-y,1/4-z
-x,1/2+y,1/4-z
-y,1/2-x,1/4+z
y,1/2+x,1/4+z
1/2+x,1/2+y,1/2+z
1/2+y,1/2-x,1/2-z
1/2-x,1/2-y,1/2+z
1/2-y,1/2+x,1/2-z
1/2+x,-y,3/4-z
1/2-x,y,3/4-z
1/2-y,-x,3/4+z
1/2+y,x,3/4+z
loop_
_atom_site_type_symbol
_atom_site_label
_atom_site_fract_x
_atom_site_fract_y
_atom_site_fract_z
Si Si1 0.250000 0.266188 0.375000
Si Si2 0.860840 0.321644 0.332225
Si Si3 0.000000 0.000000 0.000000
Si Si4 0.897410 0.133812 0.494839
O O1 0.288408 0.345264 0.463855
O O2 0.156598 0.187568 0.414697
O O3 0.750000 0.372043 0.375000
O O4 0.953568 0.410722 0.329326
O O5 0.891783 0.218991 0.401416
O O6 0.015301 0.132340 0.546947
#
# Coordination Sequence:
#
# PCOD8311920 Si02
#       4
#     8  16   4  16
#     4  10  22  40  68  94 138 170 218 294 324 414
#     4  10  24  44  66  99 136 176 232 281 340 417
#     4  12  24  44  64  92 136 190 220 280 360 388
#     4  10  22  43  69  99 131 179 224 279 345 407
#
# _framework density 21.886156
#
# number of rings (size 3 to 8) (size 9 to 14) (size 15 to 20)
#    0.000    1.818    0.000    2.182   10.182    0.000 
#    0.000    0.000    0.000    0.000    0.000    0.000 
#    0.000    0.000    0.000    0.000    0.000    0.000 
#
# Total GULP energy -272735.600243 kJ/mol
# GULP energy per Si atom -12397.072738 kJ/mol
# Density = 2.183634 g / cm^3
# Si number density = 21.886156 Si / 1000 Ang^3
#
#
#
# Elastic Constant Matrix: (Units=GPa)
#
#
# Indices 1 2 3 4 5 6 
#
# 1 130.0773 68.0047 51.2011 0.0000 0.0000 0.0000
# 2 68.0047 130.0773 51.2010 0.0000 0.0000 0.0000
# 3 51.2011 51.2010 124.0749 0.0000 0.0000 0.0000
# 4 0.0000 0.0000 0.0000 30.0758 0.0000 0.0000
# 5 0.0000 0.0000 0.0000 0.0000 30.0758 0.0000
# 6 0.0000 0.0000 0.0000 0.0000 0.0000 47.6845
#
#
#
# Elastic Compliance Matrix: (Units=1/GPa)
#
#
# Indices 1 2 3 4 5 6 
#
# 1 0.011264 -0.004846 -0.002648 0.000000 0.000000 0.000000
# 2 -0.004846 0.011264 -0.002648 0.000000 0.000000 0.000000
# 3 -0.002648 -0.002648 0.010245 0.000000 0.000000 0.000000
# 4 0.000000 0.000000 0.000000 0.033249 0.000000 0.000000
# 5 0.000000 0.000000 0.000000 0.000000 0.033249 0.000000
# 6 0.000000 0.000000 0.000000 0.000000 0.000000 0.020971
#
#
# Mechanical properties :
#
#
# Convention : Reuss Voigt Hill
#
# Bulk Modulus (GPa) = 80.08160 80.56034 80.32097
# Shear Modulus (GPa) = 34.55644 35.82208 35.18926
#
# Velocity S-wave (km/s) = 3.97787 4.05006 4.01413
# Velocity P-wave (km/s) = 7.60049 7.66547 7.63305
#
# Compressibility (1/GPa) = 0.01248726
#
# Stress axis : x y z
#
# Youngs Moduli (GPa) = 88.77980 88.77979 97.60563
#
# Poissons Ratio (x) = 0.43026 0.25848
# Poissons Ratio (y) = 0.43026 0.25848
# Poissons Ratio (z) = 0.23511 0.23511
#
# Static dielectric constant tensor:
#      x y z
#    x 4.093700 0.000000 0.000000 
#    y 0.000000 4.093700 0.000000 
#    z 0.000000 0.000000 3.738610 
# 
# 
# High freq. dielectric constant tensor:
#      x y z
#    x 1.870410 0.000000 0.000000 
#    y 0.000000 1.870410 0.000000 
#    z 0.000000 0.000000 1.845400 
# 
# From -- ./inp_files/3751.got.cif
#   From: 2010.03.12/outbox.cif.g09.slc.cpg/sg122_2_cif.got.tgz:3751.got - 2010.04.06 16:17:16.
