data_PCOD8311082
_publ_section_title
;
Structure prediction by ZEFSAII (Michael W. Deem and Ramdas Pophale) SiO2 
 PCOD8311082
Probable space group: I -4 M 2
;
_chemical_formula_sum "Si O2"
_cell_formula_units_Z 48
_cell_length_a 7.904573
_cell_length_b 7.904573
_cell_length_c 37.545675
_cell_angle_alpha 90.000000
_cell_angle_beta 90.000000
_cell_angle_gamma 90.000000
_cell_volume 2345.939165
_symmetry_space_group_name_H-M "I -4 M 2"
_symmetry_group_IT_number 119
_symmetry_cell_setting 'tetragonal'
loop_
_space_group_symop_operation_xyz
x,y,z
y,-x,-z
-x,-y,z
-y,x,-z
y,x,-z
-y,-x,-z
-x,y,z
x,-y,z
1/2+x,1/2+y,1/2+z
1/2+y,1/2-x,1/2-z
1/2-x,1/2-y,1/2+z
1/2-y,1/2+x,1/2-z
1/2+y,1/2+x,1/2-z
1/2-y,1/2-x,1/2-z
1/2-x,1/2+y,1/2+z
1/2+x,1/2-y,1/2+z
loop_
_atom_site_type_symbol
_atom_site_label
_atom_site_fract_x
_atom_site_fract_y
_atom_site_fract_z
Si Si1 0.187865 0.693736 0.036362
Si Si2 0.500000 0.196160 0.162694
Si Si3 0.500000 0.199549 0.083581
Si Si4 0.698858 0.811755 0.789582
O O1 0.211067 0.500000 0.025248
O O2 0.328822 0.740004 0.064984
O O3 0.000000 0.727124 0.052623
O O4 0.201381 0.798620 0.000000
O O5 0.500000 0.278760 0.123378
O O6 0.671935 0.244086 0.182555
O O7 0.500000 0.000000 0.157237
O O8 0.500000 0.000000 0.083554
O O9 0.500000 0.828443 0.790950
O O10 0.751161 0.748840 0.750000
O O11 0.776219 0.000000 0.797952
#
# Coordination Sequence:
#
# PCOD8311082 Si02
#       4
#    16   8   8  16
#     4  11  23  40  65  94 123 161 212 266 316 377
#     4  11  25  39  59  91 129 167 207 265 326 382
#     4  11  25  43  59  89 131 169 213 260 321 391
#     4   9  20  39  62  89 120 159 212 265 315 381
#
# _framework density 20.460885999999999
#
# number of rings (size 3 to 8) (size 9 to 14) (size 15 to 20)
#    0.000    1.667    1.667    3.000    2.333    7.000 
#    0.000    6.667    0.000    0.000    0.000    0.000 
#    0.000    0.000    0.000    0.000    0.000    0.000 
#
# Total GULP energy -297499.731496 kJ/mol
# GULP energy per Si atom -12395.822146 kJ/mol
# Density = 2.041432 g / cm^3
# Si number density = 20.460886 Si / 1000 Ang^3
#
#
#
# Elastic Constant Matrix: (Units=GPa)
#
#
# Indices 1 2 3 4 5 6 
#
# 1 116.3923 47.2256 67.1603 0.0000 0.0000 0.0000
# 2 47.2256 116.3909 67.1598 0.0000 0.0000 0.0000
# 3 67.1603 67.1598 166.3434 0.0000 0.0000 0.0000
# 4 0.0000 0.0000 0.0000 30.1645 0.0000 0.0000
# 5 0.0000 0.0000 0.0000 0.0000 30.1646 0.0000
# 6 0.0000 0.0000 0.0000 0.0000 0.0000 20.9432
#
#
#
# Elastic Compliance Matrix: (Units=1/GPa)
#
#
# Indices 1 2 3 4 5 6 
#
# 1 0.011800 -0.002658 -0.003691 0.000000 0.000000 0.000000
# 2 -0.002658 0.011800 -0.003691 0.000000 0.000000 0.000000
# 3 -0.003691 -0.003691 0.008992 0.000000 0.000000 0.000000
# 4 0.000000 0.000000 0.000000 0.033152 0.000000 0.000000
# 5 0.000000 0.000000 0.000000 0.000000 0.033151 0.000000
# 6 0.000000 0.000000 0.000000 0.000000 0.000000 0.047748
#
#
# Mechanical properties :
#
#
# Convention : Reuss Voigt Hill
#
# Bulk Modulus (GPa) = 79.92354 84.69088 82.30721
# Shear Modulus (GPa) = 29.25794 30.75986 30.00890
#
# Velocity S-wave (km/s) = 3.78556 3.88151 3.83384
# Velocity P-wave (km/s) = 7.63241 7.84663 7.74026
#
# Compressibility (1/GPa) = 0.01251196
#
# Stress axis : x y z
#
# Youngs Moduli (GPa) = 84.74667 84.74576 111.20898
#
# Poissons Ratio (x) = 0.22526 0.41047
# Poissons Ratio (y) = 0.22526 0.41047
# Poissons Ratio (z) = 0.31280 0.31280
#
# Static dielectric constant tensor:
#      x y z
#    x 3.751850 0.000000 0.000000 
#    y 0.000000 3.751860 0.000000 
#    z 0.000000 0.000000 4.535780 
# 
# 
# High freq. dielectric constant tensor:
#      x y z
#    x 1.809890 0.000000 0.000000 
#    y 0.000000 1.809890 0.000000 
#    z 0.000000 0.000000 1.791090 
# 
# From -- ./inp_files/9872.got.cif
#   From: 2010.03.12/outbox.cif.g09.slc.cpg/sg119_5_cif.got.tgz:9872.got - 2010.04.14 02:25:26.
