data_PCOD8311173
_publ_section_title
;
Structure prediction by ZEFSAII (Michael W. Deem and Ramdas Pophale) SiO2 
 PCOD8311173
Probable space group: I -4 C 2
;
_chemical_formula_sum "Si O2"
_cell_formula_units_Z 48
_cell_length_a 16.179483
_cell_length_b 16.179483
_cell_length_c 8.914341
_cell_angle_alpha 90.000000
_cell_angle_beta 90.000000
_cell_angle_gamma 90.000000
_cell_volume 2333.557589
_symmetry_space_group_name_H-M "I -4 C 2"
_symmetry_group_IT_number 120
_symmetry_cell_setting 'tetragonal'
loop_
_space_group_symop_operation_xyz
x,y,z
y,-x,-z
-x,-y,z
-y,x,-z
y,x,1/2-z
-y,-x,1/2-z
-x,y,1/2+z
x,-y,1/2+z
1/2+x,1/2+y,1/2+z
1/2+y,1/2-x,1/2-z
1/2-x,1/2-y,1/2+z
1/2-y,1/2+x,1/2-z
1/2+y,1/2+x,-z
1/2-y,1/2-x,-z
1/2-x,1/2+y,z
1/2+x,1/2-y,z
loop_
_atom_site_type_symbol
_atom_site_label
_atom_site_fract_x
_atom_site_fract_y
_atom_site_fract_z
Si Si1 0.438415 0.601014 0.576460
Si Si2 0.515166 0.129521 0.223348
Si Si3 0.587581 0.217940 0.482350
O O1 0.535818 0.603823 0.537416
O O2 0.423313 0.576688 0.750000
O O3 0.399879 0.689333 0.538766
O O4 0.438562 0.085707 0.310545
O O5 0.553692 0.207855 0.313406
O O6 0.481293 0.166488 0.070881
O O7 0.677600 0.177600 0.500000
#
# Coordination Sequence:
#
# PCOD8311173 Si02
#       3
#    16  16  16
#     4  11  23  41  61  81 109 151 195 234 282 343
#     4   9  17  31  54  84 119 155 185 220 276 341
#     4  10  20  36  58  86 115 144 186 236 280 327
#
# _framework density 20.569451999999998
#
# number of rings (size 3 to 8) (size 9 to 14) (size 15 to 20)
#    0.000    2.000    0.000    5.000    0.000    4.000 
#    0.000   13.333    0.000    0.000    0.000    0.000 
#    0.000    0.000    0.000    0.000    0.000    0.000 
#
# Total GULP energy -297459.863320 kJ/mol
# GULP energy per Si atom -12394.160972 kJ/mol
# Density = 2.052264 g / cm^3
# Si number density = 20.569452 Si / 1000 Ang^3
#
#
#
# Elastic Constant Matrix: (Units=GPa)
#
#
# Indices 1 2 3 4 5 6 
#
# 1 113.2785 54.7181 48.1811 0.0000 0.0000 0.0000
# 2 54.7181 113.2788 48.1810 0.0000 0.0000 0.0000
# 3 48.1811 48.1810 84.8934 0.0000 0.0000 0.0000
# 4 0.0000 0.0000 0.0000 23.1244 0.0000 0.0000
# 5 0.0000 0.0000 0.0000 0.0000 23.1240 0.0000
# 6 0.0000 0.0000 0.0000 0.0000 0.0000 15.2580
#
#
#
# Elastic Compliance Matrix: (Units=1/GPa)
#
#
# Indices 1 2 3 4 5 6 
#
# 1 0.012951 -0.004125 -0.005009 0.000000 0.000000 0.000000
# 2 -0.004125 0.012951 -0.005009 0.000000 0.000000 0.000000
# 3 -0.005009 -0.005009 0.017465 0.000000 0.000000 0.000000
# 4 0.000000 0.000000 0.000000 0.043244 0.000000 0.000000
# 5 0.000000 0.000000 0.000000 0.000000 0.043245 0.000000
# 6 0.000000 0.000000 0.000000 0.000000 0.000000 0.065540
#
#
# Mechanical properties :
#
#
# Convention : Reuss Voigt Hill
#
# Bulk Modulus (GPa) = 66.31070 68.17900 67.24485
# Shear Modulus (GPa) = 21.86181 22.99265 22.42723
#
# Velocity S-wave (km/s) = 3.26364 3.34699 3.30558
# Velocity P-wave (km/s) = 6.81977 6.93932 6.87980
#
# Compressibility (1/GPa) = 0.01508052
#
# Stress axis : x y z
#
# Youngs Moduli (GPa) = 77.21413 77.21443 57.25702
#
# Poissons Ratio (x) = 0.31854 0.28680
# Poissons Ratio (y) = 0.31854 0.28680
# Poissons Ratio (z) = 0.38676 0.38676
#
# Static dielectric constant tensor:
#      x y z
#    x 3.669570 0.000000 0.000000 
#    y 0.000000 3.669570 0.000000 
#    z 0.000000 0.000000 3.675000 
# 
# 
# High freq. dielectric constant tensor:
#      x y z
#    x 1.795240 0.000000 0.000000 
#    y 0.000000 1.795240 0.000000 
#    z 0.000000 0.000000 1.804970 
# 
# From -- ./inp_files/883.got.cif
#   From: 2010.03.12/outbox.cif.g09.slc.cpg/sg120_1_cif.got.tgz:883.got - 2010.04.06 16:00:44.
