data_PCOD8311681
_publ_section_title
;
Structure prediction by ZEFSAII (Michael W. Deem and Ramdas Pophale) SiO2 
 PCOD8311681
Probable space group: I -4 2 M
;
_chemical_formula_sum "Si O2"
_cell_formula_units_Z 64
_cell_length_a 10.667734
_cell_length_b 10.667734
_cell_length_c 27.180360
_cell_angle_alpha 90.000000
_cell_angle_beta 90.000000
_cell_angle_gamma 90.000000
_cell_volume 3093.139882
_symmetry_space_group_name_H-M "I -4 2 M"
_symmetry_group_IT_number 121
_symmetry_cell_setting 'tetragonal'
loop_
_space_group_symop_operation_xyz
x,y,z
y,-x,-z
-x,-y,z
-y,x,-z
x,-y,-z
-x,y,-z
-y,-x,z
y,x,z
1/2+x,1/2+y,1/2+z
1/2+y,1/2-x,1/2-z
1/2-x,1/2-y,1/2+z
1/2-y,1/2+x,1/2-z
1/2+x,1/2-y,1/2-z
1/2-x,1/2+y,1/2-z
1/2-y,1/2-x,1/2+z
1/2+y,1/2+x,1/2+z
loop_
_atom_site_type_symbol
_atom_site_label
_atom_site_fract_x
_atom_site_fract_y
_atom_site_fract_z
Si Si1 0.135513 0.331360 0.134860
Si Si2 0.795835 0.993749 0.944865
Si Si3 0.461494 0.733682 0.713783
Si Si4 0.235049 0.433286 0.815839
O O1 0.261601 0.261601 0.117333
O O2 0.026100 0.316212 0.093405
O O3 0.173243 0.476424 0.142961
O O4 0.088108 0.261318 0.184127
O O5 0.905438 0.094563 0.938965
O O6 0.855923 0.855923 0.933995
O O7 0.740272 0.000000 0.000000
O O8 0.390114 0.609887 0.693119
O O9 0.486771 0.707416 0.771175
O O10 0.375219 0.854570 0.708401
O O11 0.344138 0.344138 0.838944
#
# Coordination Sequence:
#
# PCOD8311681 Si02
#       4
#    16  16  16  16
#     4  11  21  33  54  84 114 151 191 236 294 350
#     4   8  15  30  53  83 119 153 188 237 294 351
#     4  11  22  36  53  74 106 152 200 243 283 332
#     4  11  23  37  52  74 111 160 201 238 284 338
#
# _framework density 20.690947999999999
#
# number of rings (size 3 to 8) (size 9 to 14) (size 15 to 20)
#    0.000    1.750    2.500    3.750    0.000    4.500 
#    0.000    0.000    0.000    3.000    0.000    0.000 
#    0.000    4.000    0.000   41.250    0.000    1.000 
#
# Total GULP energy -396649.274238 kJ/mol
# GULP energy per Si atom -12395.289820 kJ/mol
# Density = 2.064385 g / cm^3
# Si number density = 20.690948 Si / 1000 Ang^3
#
#
#
# Elastic Constant Matrix: (Units=GPa)
#
#
# Indices 1 2 3 4 5 6 
#
# 1 91.7718 57.0579 35.9588 0.0000 0.0000 0.0000
# 2 57.0579 91.7718 35.9590 0.0000 0.0000 0.0000
# 3 35.9588 35.9590 104.9220 0.0000 0.0000 0.0000
# 4 0.0000 0.0000 0.0000 21.2105 0.0000 0.0000
# 5 0.0000 0.0000 0.0000 0.0000 21.2106 0.0000
# 6 0.0000 0.0000 0.0000 0.0000 0.0000 37.0843
#
#
#
# Elastic Compliance Matrix: (Units=1/GPa)
#
#
# Indices 1 2 3 4 5 6 
#
# 1 0.018430 -0.010377 -0.002760 0.000000 0.000000 0.000000
# 2 -0.010377 0.018430 -0.002760 0.000000 0.000000 0.000000
# 3 -0.002760 -0.002760 0.011423 0.000000 0.000000 0.000000
# 4 0.000000 0.000000 0.000000 0.047146 0.000000 0.000000
# 5 0.000000 0.000000 0.000000 0.000000 0.047146 0.000000
# 6 0.000000 0.000000 0.000000 0.000000 0.000000 0.026966
#
#
# Mechanical properties :
#
#
# Convention : Reuss Voigt Hill
#
# Bulk Modulus (GPa) = 60.64766 60.71301 60.68034
# Shear Modulus (GPa) = 24.17443 26.53374 25.35408
#
# Velocity S-wave (km/s) = 3.42183 3.58492 3.50433
# Velocity P-wave (km/s) = 6.70722 6.82217 6.76494
#
# Compressibility (1/GPa) = 0.01648868
#
# Stress axis : x y z
#
# Youngs Moduli (GPa) = 54.26004 54.25994 87.54587
#
# Poissons Ratio (x) = 0.56306 0.24161
# Poissons Ratio (y) = 0.56306 0.24161
# Poissons Ratio (z) = 0.14975 0.14975
#
# Static dielectric constant tensor:
#      x y z
#    x 3.730050 0.000000 0.000000 
#    y 0.000000 3.730050 0.000000 
#    z 0.000000 0.000000 3.687610 
# 
# 
# High freq. dielectric constant tensor:
#      x y z
#    x 1.801590 0.000000 0.000000 
#    y 0.000000 1.801590 0.000000 
#    z 0.000000 0.000000 1.773000 
# 
# From -- ./inp_files/7477.got.cif
#   From: 2010.03.12/outbox.cif.g09.slc.cpg/sg121_4_cif.got.tgz:7477.got - 2010.04.06 16:06:48.
