data_PCOD8311010
_publ_section_title
;
Structure prediction by ZEFSAII (Michael W. Deem and Ramdas Pophale) SiO2 
 PCOD8311010
Probable space group: I -4 M 2
;
_chemical_formula_sum "Si O2"
_cell_formula_units_Z 48
_cell_length_a 7.911564
_cell_length_b 7.911564
_cell_length_c 37.179536
_cell_angle_alpha 90.000000
_cell_angle_beta 90.000000
_cell_angle_gamma 90.000000
_cell_volume 2327.172931
_symmetry_space_group_name_H-M "I -4 M 2"
_symmetry_group_IT_number 119
_symmetry_cell_setting 'tetragonal'
loop_
_space_group_symop_operation_xyz
x,y,z
y,-x,-z
-x,-y,z
-y,x,-z
y,x,-z
-y,-x,-z
-x,y,z
x,-y,z
1/2+x,1/2+y,1/2+z
1/2+y,1/2-x,1/2-z
1/2-x,1/2-y,1/2+z
1/2-y,1/2+x,1/2-z
1/2+y,1/2+x,1/2-z
1/2-y,1/2-x,1/2-z
1/2-x,1/2+y,1/2+z
1/2+x,1/2-y,1/2+z
loop_
_atom_site_type_symbol
_atom_site_label
_atom_site_fract_x
_atom_site_fract_y
_atom_site_fract_z
Si Si1 0.188854 0.000000 0.868788
Si Si2 0.183828 0.802617 0.674713
Si Si3 0.500000 0.193389 0.552917
Si Si4 0.303004 0.803004 0.750000
Si Si5 0.694095 0.305906 0.000000
O O1 0.271464 0.828600 0.854416
O O2 0.192860 0.000000 0.911821
O O3 0.000000 0.000000 0.854775
O O4 0.221173 0.722409 0.713985
O O5 0.000000 0.735245 0.660978
O O6 0.175941 0.000000 0.680834
O O7 0.671629 0.234071 0.531201
O O8 0.500000 0.000000 0.565326
O O9 0.500000 0.765566 0.746622
O O10 0.500000 0.281093 0.013875
#
# Coordination Sequence:
#
# PCOD8311010 Si02
#       5
#     8  16   8   8   8
#     4  12  26  40  58  90 132 170 206 262 322 383
#     4  10  21  39  63  87 118 164 215 263 316 380
#     4  10  22  40  66  92 122 162 204 259 309 376
#     4   9  16  32  60  89 116 156 209 268 321 380
#     4   9  20  39  64  96 126 159 208 255 308 378
#
# _framework density 20.625882000000001
#
# number of rings (size 3 to 8) (size 9 to 14) (size 15 to 20)
#    0.000    2.000    1.667    1.500    2.333    3.333 
#    0.000    3.333    0.000    0.000    0.000    0.000 
#    0.000    0.000    0.000    0.000    0.000    0.000 
#
# Total GULP energy -297449.983011 kJ/mol
# GULP energy per Si atom -12393.749292 kJ/mol
# Density = 2.057894 g / cm^3
# Si number density = 20.625882 Si / 1000 Ang^3
#
#
#
# Elastic Constant Matrix: (Units=GPa)
#
#
# Indices 1 2 3 4 5 6 
#
# 1 90.5387 55.6045 53.1577 0.0000 0.0000 0.0000
# 2 55.6045 90.5397 53.1574 0.0000 0.0000 0.0000
# 3 53.1577 53.1574 129.2898 0.0000 0.0000 0.0000
# 4 0.0000 0.0000 0.0000 18.0752 0.0000 0.0000
# 5 0.0000 0.0000 0.0000 0.0000 18.0752 0.0000
# 6 0.0000 0.0000 0.0000 0.0000 0.0000 6.5214
#
#
#
# Elastic Compliance Matrix: (Units=1/GPa)
#
#
# Indices 1 2 3 4 5 6 
#
# 1 0.019194 -0.009431 -0.004014 0.000000 0.000000 0.000000
# 2 -0.009431 0.019194 -0.004014 0.000000 0.000000 0.000000
# 3 -0.004014 -0.004014 0.011035 0.000000 0.000000 0.000000
# 4 0.000000 0.000000 0.000000 0.055324 0.000000 0.000000
# 5 0.000000 0.000000 0.000000 0.000000 0.055324 0.000000
# 6 0.000000 0.000000 0.000000 0.000000 0.000000 0.153342
#
#
# Mechanical properties :
#
#
# Convention : Reuss Voigt Hill
#
# Bulk Modulus (GPa) = 68.94283 70.46750 69.70516
# Shear Modulus (GPa) = 14.15762 18.43093 16.29427
#
# Velocity S-wave (km/s) = 2.62277 2.99253 2.81373
# Velocity P-wave (km/s) = 6.53222 6.79552 6.66517
#
# Compressibility (1/GPa) = 0.01450477
#
# Stress axis : x y z
#
# Youngs Moduli (GPa) = 52.09992 52.10085 90.61937
#
# Poissons Ratio (x) = 0.49137 0.36374
# Poissons Ratio (y) = 0.49136 0.36373
# Poissons Ratio (z) = 0.20913 0.20912
#
# Static dielectric constant tensor:
#      x y z
#    x 3.794000 0.000000 0.000000 
#    y 0.000000 3.793990 0.000000 
#    z 0.000000 0.000000 3.535180 
# 
# 
# High freq. dielectric constant tensor:
#      x y z
#    x 1.807710 0.000000 0.000000 
#    y 0.000000 1.807710 0.000000 
#    z 0.000000 0.000000 1.791540 
# 
# From -- ./inp_files/9916.got.cif
#   From: 2010.03.12/outbox.cif.g09.slc.cpg/sg119_5_cif.got.tgz:9916.got - 2010.04.14 02:25:26.
