data_PCOD8311731
_publ_section_title
;
Structure prediction by ZEFSAII (Michael W. Deem and Ramdas Pophale) SiO2 
 PCOD8311731
Probable space group: I -4 2 D
;
_chemical_formula_sum "Si O2"
_cell_formula_units_Z 80
_cell_length_a 12.570920
_cell_length_b 12.570920
_cell_length_c 25.388812
_cell_angle_alpha 90.000000
_cell_angle_beta 90.000000
_cell_angle_gamma 90.000000
_cell_volume 4012.143935
_symmetry_space_group_name_H-M "I -4 2 D"
_symmetry_group_IT_number 122
_symmetry_cell_setting 'tetragonal'
loop_
_space_group_symop_operation_xyz
x,y,z
y,-x,-z
-x,-y,z
-y,x,-z
x,1/2-y,1/4-z
-x,1/2+y,1/4-z
-y,1/2-x,1/4+z
y,1/2+x,1/4+z
1/2+x,1/2+y,1/2+z
1/2+y,1/2-x,1/2-z
1/2-x,1/2-y,1/2+z
1/2-y,1/2+x,1/2-z
1/2+x,-y,3/4-z
1/2-x,y,3/4-z
1/2-y,-x,3/4+z
1/2+y,x,3/4+z
loop_
_atom_site_type_symbol
_atom_site_label
_atom_site_fract_x
_atom_site_fract_y
_atom_site_fract_z
Si Si1 0.233261 0.135035 0.638828
Si Si2 0.738166 0.606022 0.725937
Si Si3 0.494267 0.334405 0.698471
Si Si4 0.106070 0.953976 0.919900
Si Si5 0.199011 0.886048 0.265108
O O1 0.284889 0.250000 0.625000
O O2 0.212857 0.078654 0.582566
O O3 0.327210 0.082178 0.672324
O O4 0.129353 0.151654 0.675411
O O5 0.611634 0.624173 0.727163
O O6 0.798513 0.710074 0.748410
O O7 0.755592 0.501513 0.761834
O O8 0.495596 0.378602 0.639526
O O9 0.492615 0.206729 0.703359
O O10 0.601535 0.378529 0.724740
O O11 0.000000 0.000000 0.945894
#
# Coordination Sequence:
#
# PCOD8311731 Si02
#       5
#    16  16  16  16  16
#     4   9  17  38  59  82 117 164 202 244 311 370
#     4  10  21  40  63  87 116 165 213 248 309 377
#     4  10  19  36  57  89 122 158 198 244 314 383
#     4  10  17  32  57  86 121 157 192 247 308 377
#     4  11  21  36  66  86 119 161 209 259 304 376
#
# _framework density 19.939463
#
# number of rings (size 3 to 8) (size 9 to 14) (size 15 to 20)
#    0.000    2.000    6.000    3.000    0.000    2.000 
#    0.000    0.000   39.600    0.000    0.000    0.000 
#    0.000    0.000    0.000    0.000    0.000    0.000 
#
# Total GULP energy -495661.347336 kJ/mol
# GULP energy per Si atom -12391.533683 kJ/mol
# Density = 1.989408 g / cm^3
# Si number density = 19.939463 Si / 1000 Ang^3
#
#
#
# Elastic Constant Matrix: (Units=GPa)
#
#
# Indices 1 2 3 4 5 6 
#
# 1 114.9486 19.5064 33.0899 0.0000 0.0000 0.0000
# 2 19.5064 114.9486 33.0899 0.0000 0.0000 0.0000
# 3 33.0899 33.0899 66.2231 0.0000 0.0000 0.0000
# 4 0.0000 0.0000 0.0000 28.2502 0.0000 0.0000
# 5 0.0000 0.0000 0.0000 0.0000 28.2502 0.0000
# 6 0.0000 0.0000 0.0000 0.0000 0.0000 14.9828
#
#
#
# Elastic Compliance Matrix: (Units=1/GPa)
#
#
# Indices 1 2 3 4 5 6 
#
# 1 0.010170 -0.000307 -0.004928 0.000000 0.000000 0.000000
# 2 -0.000307 0.010170 -0.004928 0.000000 0.000000 0.000000
# 3 -0.004928 -0.004928 0.020026 0.000000 0.000000 0.000000
# 4 0.000000 0.000000 0.000000 0.035398 0.000000 0.000000
# 5 0.000000 0.000000 0.000000 0.000000 0.035398 0.000000
# 6 0.000000 0.000000 0.000000 0.000000 0.000000 0.066743
#
#
# Mechanical properties :
#
#
# Convention : Reuss Voigt Hill
#
# Bulk Modulus (GPa) = 49.90389 51.94367 50.92378
# Shear Modulus (GPa) = 24.40062 28.32557 26.36309
#
# Velocity S-wave (km/s) = 3.50199 3.77315 3.64009
# Velocity P-wave (km/s) = 6.43692 6.71486 6.57736
#
# Compressibility (1/GPa) = 0.02003852
#
# Stress axis : x y z
#
# Youngs Moduli (GPa) = 98.32470 98.32470 49.93597
#
# Poissons Ratio (x) = 0.03020 0.24610
# Poissons Ratio (y) = 0.03020 0.24610
# Poissons Ratio (z) = 0.48458 0.48458
#
# Static dielectric constant tensor:
#      x y z
#    x 3.582530 0.000000 0.000000 
#    y 0.000000 3.582530 0.000000 
#    z 0.000000 0.000000 3.510330 
# 
# 
# High freq. dielectric constant tensor:
#      x y z
#    x 1.770270 0.000000 0.000000 
#    y 0.000000 1.770270 0.000000 
#    z 0.000000 0.000000 1.755620 
# 
# From -- ./inp_files/9350.got.cif
#   From: 2010.03.12/outbox.cif.g09.slc.cpg/sg122_5_cif.got.tgz:9350.got - 2010.04.06 16:17:16.
