data_PCOD8311531
_publ_section_title
;
Structure prediction by ZEFSAII (Michael W. Deem and Ramdas Pophale) SiO2 
 PCOD8311531
Probable space group: I -4 2 M
;
_chemical_formula_sum "Si O2"
_cell_formula_units_Z 72
_cell_length_a 13.782450
_cell_length_b 13.782450
_cell_length_c 20.320001
_cell_angle_alpha 90.000000
_cell_angle_beta 90.000000
_cell_angle_gamma 90.000000
_cell_volume 3859.904647
_symmetry_space_group_name_H-M "I -4 2 M"
_symmetry_group_IT_number 121
_symmetry_cell_setting 'tetragonal'
loop_
_space_group_symop_operation_xyz
x,y,z
y,-x,-z
-x,-y,z
-y,x,-z
x,-y,-z
-x,y,-z
-y,-x,z
y,x,z
1/2+x,1/2+y,1/2+z
1/2+y,1/2-x,1/2-z
1/2-x,1/2-y,1/2+z
1/2-y,1/2+x,1/2-z
1/2+x,1/2-y,1/2-z
1/2-x,1/2+y,1/2-z
1/2-y,1/2-x,1/2+z
1/2+y,1/2+x,1/2+z
loop_
_atom_site_type_symbol
_atom_site_label
_atom_site_fract_x
_atom_site_fract_y
_atom_site_fract_z
Si Si1 0.455153 0.100116 0.387052
Si Si2 0.926798 0.225721 0.382946
Si Si3 0.375997 0.777557 0.342398
Si Si4 0.767832 0.611814 0.806694
Si Si5 0.000000 0.345757 0.500000
O O1 0.536813 0.185642 0.390436
O O2 0.373972 0.131693 0.335431
O O3 0.500000 0.000000 0.359175
O O4 0.411939 0.076807 0.459494
O O5 0.879755 0.120246 0.394043
O O6 0.858547 0.292636 0.338064
O O7 0.028921 0.211990 0.347241
O O8 0.936627 0.278107 0.453062
O O9 0.325116 0.674885 0.365297
O O10 0.419832 0.769074 0.269376
O O11 0.711798 0.711798 0.816110
#
# Coordination Sequence:
#
# PCOD8311531 Si02
#       5
#    16  16  16  16   8
#     4  11  20  33  59  80 109 148 190 236 283 329
#     4  10  21  37  57  83 117 151 184 229 289 345
#     4  10  20  34  54  83 113 145 187 234 283 333
#     4  10  21  35  54  85 116 144 187 233 280 344
#     4  10  21  34  54  87 112 148 195 234 269 336
#
# _framework density 18.653310999999999
#
# number of rings (size 3 to 8) (size 9 to 14) (size 15 to 20)
#    0.000    1.778    4.444    1.667    0.000    4.000 
#    0.000    0.000    0.000    2.000    0.000    0.000 
#    0.000    0.000    0.000    0.000    0.000    0.000 
#
# Total GULP energy -446215.314092 kJ/mol
# GULP energy per Si atom -12394.869836 kJ/mol
# Density = 1.861086 g / cm^3
# Si number density = 18.653311 Si / 1000 Ang^3
#
#
#
# Elastic Constant Matrix: (Units=GPa)
#
#
# Indices 1 2 3 4 5 6 
#
# 1 89.2894 44.9375 34.2237 0.0000 0.0000 0.0000
# 2 44.9375 89.2922 34.2244 0.0000 0.0000 0.0000
# 3 34.2237 34.2244 80.2759 0.0000 0.0000 0.0000
# 4 0.0000 0.0000 0.0000 25.3866 0.0000 0.0000
# 5 0.0000 0.0000 0.0000 0.0000 25.3862 0.0000
# 6 0.0000 0.0000 0.0000 0.0000 0.0000 52.4672
#
#
#
# Elastic Compliance Matrix: (Units=1/GPa)
#
#
# Indices 1 2 3 4 5 6 
#
# 1 0.016033 -0.006513 -0.004058 0.000000 0.000000 0.000000
# 2 -0.006513 0.016033 -0.004058 0.000000 0.000000 0.000000
# 3 -0.004058 -0.004058 0.015918 0.000000 0.000000 0.000000
# 4 0.000000 0.000000 0.000000 0.039391 0.000000 0.000000
# 5 0.000000 0.000000 0.000000 0.000000 0.039391 0.000000
# 6 0.000000 0.000000 0.000000 0.000000 0.000000 0.019060
#
#
# Mechanical properties :
#
#
# Convention : Reuss Voigt Hill
#
# Bulk Modulus (GPa) = 53.41092 53.95873 53.68483
# Shear Modulus (GPa) = 27.57455 30.34614 28.96035
#
# Velocity S-wave (km/s) = 3.84899 4.03780 3.94453
# Velocity P-wave (km/s) = 6.96051 7.12239 7.04191
#
# Compressibility (1/GPa) = 0.01872276
#
# Stress axis : x y z
#
# Youngs Moduli (GPa) = 62.37087 62.37270 62.82372
#
# Poissons Ratio (x) = 0.40625 0.25497
# Poissons Ratio (y) = 0.40624 0.25497
# Poissons Ratio (z) = 0.25313 0.25314
#
# Static dielectric constant tensor:
#      x y z
#    x 3.471520 0.000000 0.000000 
#    y 0.000000 3.471510 0.000000 
#    z 0.000000 0.000000 3.384620 
# 
# 
# High freq. dielectric constant tensor:
#      x y z
#    x 1.715250 0.000000 0.000000 
#    y 0.000000 1.715250 0.000000 
#    z 0.000000 0.000000 1.720470 
# 
# From -- ./inp_files/5184.got.cif
#   From: 2010.03.12/outbox.cif.g09.slc.cpg/sg121_3_cif.got.tgz:5184.got - 2010.04.06 16:06:48.
