data_PCOD8311093
_publ_section_title
;
Structure prediction by ZEFSAII (Michael W. Deem and Ramdas Pophale) SiO2 
 PCOD8311093
Probable space group: I -4 M 2
;
_chemical_formula_sum "Si O2"
_cell_formula_units_Z 48
_cell_length_a 7.907438
_cell_length_b 7.907438
_cell_length_c 36.913619
_cell_angle_alpha 90.000000
_cell_angle_beta 90.000000
_cell_angle_gamma 90.000000
_cell_volume 2308.119107
_symmetry_space_group_name_H-M "I -4 M 2"
_symmetry_group_IT_number 119
_symmetry_cell_setting 'tetragonal'
loop_
_space_group_symop_operation_xyz
x,y,z
y,-x,-z
-x,-y,z
-y,x,-z
y,x,-z
-y,-x,-z
-x,y,z
x,-y,z
1/2+x,1/2+y,1/2+z
1/2+y,1/2-x,1/2-z
1/2-x,1/2-y,1/2+z
1/2-y,1/2+x,1/2-z
1/2+y,1/2+x,1/2-z
1/2-y,1/2-x,1/2-z
1/2-x,1/2+y,1/2+z
1/2+x,1/2-y,1/2+z
loop_
_atom_site_type_symbol
_atom_site_label
_atom_site_fract_x
_atom_site_fract_y
_atom_site_fract_z
Si Si1 0.688109 0.500000 0.911297
Si Si2 0.188101 0.500000 0.833671
Si Si3 0.696887 0.813335 0.789484
Si Si4 0.302834 0.690662 0.458182
O O1 0.500000 0.500000 0.895371
O O2 0.812176 0.500000 0.877169
O O3 0.708880 0.330473 0.934680
O O4 0.269871 0.326006 0.819991
O O5 0.000000 0.500000 0.818891
O O6 0.500000 0.841207 0.786386
O O7 0.756934 0.743067 0.750000
O O8 0.778061 0.000000 0.798874
O O9 0.267526 0.732475 0.500000
O O10 0.500000 0.702274 0.449690
O O11 0.237684 0.500000 0.449029
#
# Coordination Sequence:
#
# PCOD8311093 Si02
#       4
#     8   8  16  16
#     4  12  26  40  60  90 128 168 210 262 320 378
#     4  12  26  40  60  90 128 168 210 262 320 378
#     4   9  20  40  65  91 121 160 207 261 318 378
#     4   9  20  40  65  91 121 160 207 261 318 378
#
# _framework density 20.796153
#
# number of rings (size 3 to 8) (size 9 to 14) (size 15 to 20)
#    0.000    2.000    0.000    5.000    4.667    2.667 
#    0.000    0.000    0.000    0.000    0.000    0.000 
#    0.000    0.000    0.000    0.000    0.000    0.000 
#
# Total GULP energy -297461.377156 kJ/mol
# GULP energy per Si atom -12394.224048 kJ/mol
# Density = 2.074882 g / cm^3
# Si number density = 20.796153 Si / 1000 Ang^3
#
#
#
# Elastic Constant Matrix: (Units=GPa)
#
#
# Indices 1 2 3 4 5 6 
#
# 1 97.4769 30.4677 45.1803 0.0000 0.0000 0.0000
# 2 30.4677 97.4768 45.1800 0.0000 0.0000 0.0000
# 3 45.1803 45.1800 102.6924 0.0000 0.0000 0.0000
# 4 0.0000 0.0000 0.0000 31.5225 0.0000 0.0000
# 5 0.0000 0.0000 0.0000 0.0000 31.5224 0.0000
# 6 0.0000 0.0000 0.0000 0.0000 0.0000 27.1533
#
#
#
# Elastic Compliance Matrix: (Units=1/GPa)
#
#
# Indices 1 2 3 4 5 6 
#
# 1 0.013131 -0.001792 -0.004989 0.000000 0.000000 0.000000
# 2 -0.001792 0.013131 -0.004989 0.000000 0.000000 0.000000
# 3 -0.004989 -0.004989 0.014127 0.000000 0.000000 0.000000
# 4 0.000000 0.000000 0.000000 0.031723 0.000000 0.000000
# 5 0.000000 0.000000 0.000000 0.000000 0.031723 0.000000
# 6 0.000000 0.000000 0.000000 0.000000 0.000000 0.036828
#
#
# Mechanical properties :
#
#
# Convention : Reuss Voigt Hill
#
# Bulk Modulus (GPa) = 59.34418 59.92245 59.63332
# Shear Modulus (GPa) = 29.44281 29.82752 29.63517
#
# Velocity S-wave (km/s) = 3.76677 3.79130 3.77905
# Velocity P-wave (km/s) = 6.89320 6.93123 6.91224
#
# Compressibility (1/GPa) = 0.01685085
#
# Stress axis : x y z
#
# Youngs Moduli (GPa) = 76.15422 76.15431 70.78418
#
# Poissons Ratio (x) = 0.13648 0.35312
# Poissons Ratio (y) = 0.13648 0.35312
# Poissons Ratio (z) = 0.37991 0.37991
#
# Static dielectric constant tensor:
#      x y z
#    x 3.664950 0.000000 0.000000 
#    y 0.000000 3.664950 0.000000 
#    z 0.000000 0.000000 3.650070 
# 
# 
# High freq. dielectric constant tensor:
#      x y z
#    x 1.817030 0.000000 0.000000 
#    y 0.000000 1.817030 0.000000 
#    z 0.000000 0.000000 1.803130 
# 
# From -- ./inp_files/9862.got.cif
#   From: 2010.03.12/outbox.cif.g09.slc.cpg/sg119_5_cif.got.tgz:9862.got - 2010.04.14 02:25:26.
