data_PCOD8311819
_publ_section_title
;
Structure prediction by ZEFSAII (Michael W. Deem and Ramdas Pophale) SiO2 
 PCOD8311819
Probable space group: I -4 2 D
;
_chemical_formula_sum "Si O2"
_cell_formula_units_Z 120
_cell_length_a 19.841351
_cell_length_b 19.841351
_cell_length_c 15.091033
_cell_angle_alpha 90.000000
_cell_angle_beta 90.000000
_cell_angle_gamma 90.000000
_cell_volume 5941.025942
_symmetry_space_group_name_H-M "I -4 2 D"
_symmetry_group_IT_number 122
_symmetry_cell_setting 'tetragonal'
loop_
_space_group_symop_operation_xyz
x,y,z
y,-x,-z
-x,-y,z
-y,x,-z
x,1/2-y,1/4-z
-x,1/2+y,1/4-z
-y,1/2-x,1/4+z
y,1/2+x,1/4+z
1/2+x,1/2+y,1/2+z
1/2+y,1/2-x,1/2-z
1/2-x,1/2-y,1/2+z
1/2-y,1/2+x,1/2-z
1/2+x,-y,3/4-z
1/2-x,y,3/4-z
1/2-y,-x,3/4+z
1/2+y,x,3/4+z
loop_
_atom_site_type_symbol
_atom_site_label
_atom_site_fract_x
_atom_site_fract_y
_atom_site_fract_z
Si Si1 0.053554 0.250000 0.125000
Si Si2 0.826989 0.135087 0.192543
Si Si3 0.566607 0.259439 0.753522
Si Si4 0.185319 0.513002 0.934917
Si Si5 0.402978 0.030873 0.282325
Si Si6 0.238768 0.220303 0.473552
Si Si7 0.851933 0.829115 0.003655
Si Si8 0.729812 0.582352 0.049050
O O1 0.099197 0.312319 0.162533
O O2 0.005642 0.231236 0.207159
O O3 0.883197 0.193220 0.198325
O O4 0.842311 0.074462 0.257636
O O5 0.755267 0.165679 0.222429
O O6 0.825721 0.108827 0.090669
O O7 0.597118 0.183200 0.761279
O O8 0.555442 0.283408 0.853170
O O9 0.250000 0.533464 0.875000
O O10 0.118141 0.493124 0.880498
O O11 0.207748 0.453789 0.001089
O O12 0.419569 0.967471 0.217705
O O13 0.339665 0.072364 0.250471
O O14 0.250000 0.189711 0.375000
O O15 0.294449 0.273241 0.501631
O O16 0.243070 0.162286 0.547486
#
# Coordination Sequence:
#
# PCOD8311819 Si02
#       8
#     8  16  16  16  16  16  16  16
#     4  12  22  40  64  90 124 170 204 272 320 378
#     4  10  20  37  63  88 126 159 206 264 322 378
#     4  11  22  40  61  93 123 164 209 264 319 379
#     4  10  22  37  56  90 117 154 202 253 303 378
#     4  10  22  40  57  79 122 166 199 243 298 375
#     4   9  19  35  60  93 126 157 192 269 324 372
#     4  10  21  40  61  93 125 158 214 260 327 377
#     4  11  22  36  58  92 122 154 205 254 310 379
#
# _framework density 20.198533000000001
#
# number of rings (size 3 to 8) (size 9 to 14) (size 15 to 20)
#    0.000    1.733    1.333    4.400    5.600    1.067 
#    4.800    0.000    0.000    0.400    3.467    0.000 
#    0.000    0.000    0.000    0.000    0.000    0.000 
#
# Total GULP energy -743711.563381 kJ/mol
# GULP energy per Si atom -12395.192723 kJ/mol
# Density = 2.015256 g / cm^3
# Si number density = 20.198533 Si / 1000 Ang^3
#
#
#
# Elastic Constant Matrix: (Units=GPa)
#
#
# Indices 1 2 3 4 5 6 
#
# 1 77.1243 14.9887 26.1083 0.0000 0.0000 0.0000
# 2 14.9887 77.1243 26.1083 0.0000 0.0000 0.0000
# 3 26.1083 26.1083 102.6848 0.0000 0.0000 0.0000
# 4 0.0000 0.0000 0.0000 37.2792 0.0000 0.0000
# 5 0.0000 0.0000 0.0000 0.0000 37.2792 0.0000
# 6 0.0000 0.0000 0.0000 0.0000 0.0000 15.3767
#
#
#
# Elastic Compliance Matrix: (Units=1/GPa)
#
#
# Indices 1 2 3 4 5 6 
#
# 1 0.014389 -0.001705 -0.003225 0.000000 0.000000 0.000000
# 2 -0.001705 0.014389 -0.003225 0.000000 0.000000 0.000000
# 3 -0.003225 -0.003225 0.011379 0.000000 0.000000 0.000000
# 4 0.000000 0.000000 0.000000 0.026825 0.000000 0.000000
# 5 0.000000 0.000000 0.000000 0.000000 0.026825 0.000000
# 6 0.000000 0.000000 0.000000 0.000000 0.000000 0.065033
#
#
# Mechanical properties :
#
#
# Convention : Reuss Voigt Hill
#
# Bulk Modulus (GPa) = 41.93392 43.48268 42.70830
# Shear Modulus (GPa) = 27.30775 30.63557 28.97166
#
# Velocity S-wave (km/s) = 3.68090 3.89874 3.79138
# Velocity P-wave (km/s) = 6.23469 6.46848 6.35266
#
# Compressibility (1/GPa) = 0.02384704
#
# Stress axis : x y z
#
# Youngs Moduli (GPa) = 69.49677 69.49677 87.88460
#
# Poissons Ratio (x) = 0.11847 0.28344
# Poissons Ratio (y) = 0.11847 0.28344
# Poissons Ratio (z) = 0.22414 0.22414
#
# Static dielectric constant tensor:
#      x y z
#    x 3.593000 0.000000 0.000000 
#    y 0.000000 3.593000 0.000000 
#    z 0.000000 0.000000 3.922200 
# 
# 
# High freq. dielectric constant tensor:
#      x y z
#    x 1.774380 0.000000 0.000000 
#    y 0.000000 1.774380 0.000000 
#    z 0.000000 0.000000 1.801450 
# 
# From -- ./inp_files/5586.got.cif
#   From: 2010.03.12/outbox.cif.g09.slc.cpg/sg122_3_cif.got.tgz:5586.got - 2010.04.06 16:17:16.
