data_PCOD8311273
_publ_section_title
;
Structure prediction by ZEFSAII (Michael W. Deem and Ramdas Pophale) SiO2 
 PCOD8311273
Probable space group: I -4 C 2
;
_chemical_formula_sum "Si O2"
_cell_formula_units_Z 96
_cell_length_a 22.453182
_cell_length_b 22.453182
_cell_length_c 8.644047
_cell_angle_alpha 90.000000
_cell_angle_beta 90.000000
_cell_angle_gamma 90.000000
_cell_volume 4357.856376
_symmetry_space_group_name_H-M "I -4 C 2"
_symmetry_group_IT_number 120
_symmetry_cell_setting 'tetragonal'
loop_
_space_group_symop_operation_xyz
x,y,z
y,-x,-z
-x,-y,z
-y,x,-z
y,x,1/2-z
-y,-x,1/2-z
-x,y,1/2+z
x,-y,1/2+z
1/2+x,1/2+y,1/2+z
1/2+y,1/2-x,1/2-z
1/2-x,1/2-y,1/2+z
1/2-y,1/2+x,1/2-z
1/2+y,1/2+x,-z
1/2-y,1/2-x,-z
1/2-x,1/2+y,z
1/2+x,1/2-y,z
loop_
_atom_site_type_symbol
_atom_site_label
_atom_site_fract_x
_atom_site_fract_y
_atom_site_fract_z
Si Si1 0.500000 0.000000 0.250000
Si Si2 0.385070 0.547852 0.870086
Si Si3 0.072426 0.572426 0.000000
Si Si4 0.000000 0.000000 0.500000
Si Si5 0.971165 0.776591 0.199888
Si Si6 0.847094 0.131573 0.921405
Si Si7 0.815806 0.239412 0.106857
Si Si8 0.712533 0.061772 0.484651
O O1 0.452865 0.962228 0.350826
O O2 0.401144 0.598857 0.750000
O O3 0.329511 0.519073 0.781086
O O4 0.439771 0.501741 0.896539
O O5 0.372980 0.582714 0.031114
O O6 0.063626 0.642933 0.976228
O O7 0.927253 0.806921 0.075391
O O8 0.940991 0.753105 0.358607
O O9 0.001866 0.720868 0.114881
O O10 0.843804 0.156197 0.750000
O O11 0.812749 0.174987 0.033316
O O12 0.771272 0.228729 0.250000
O O13 0.883991 0.263101 0.124151
O O14 0.789882 0.289882 0.000000
#
# Coordination Sequence:
#
# PCOD8311273 Si02
#       8
#     4  16   8   4  16  16  16  16
#     4  10  24  50  84 114 156 178 220 286 376 450
#     4  12  25  40  61  93 138 189 255 311 362 424
#     4  11  24  50  80 116 148 186 226 288 366 451
#     4  12  26  36  60  90 130 204 256 326 354 428
#     4  12  25  42  70 105 144 198 242 308 368 423
#     4  12  24  44  68  97 141 193 240 298 363 419
#     4  12  27  48  73 100 140 191 237 298 357 433
#     4  12  26  45  76 108 150 187 249 300 361 450
#
# _framework density 22.029178999999999
#
# number of rings (size 3 to 8) (size 9 to 14) (size 15 to 20)
#    0.000    0.167    5.833    3.250    4.667    0.000 
#    0.000    0.000    0.000    0.000    0.000    0.000 
#    0.000    0.000    0.000    0.000    0.000    0.000 
#
# Total GULP energy -594772.953042 kJ/mol
# GULP energy per Si atom -12391.103188 kJ/mol
# Density = 2.197904 g / cm^3
# Si number density = 22.029179 Si / 1000 Ang^3
#
#
#
# Elastic Constant Matrix: (Units=GPa)
#
#
# Indices 1 2 3 4 5 6 
#
# 1 122.7456 42.1547 26.8689 0.0000 0.0000 0.0000
# 2 42.1547 122.7449 26.8677 0.0000 0.0000 0.0000
# 3 26.8689 26.8677 71.0155 0.0000 0.0000 0.0000
# 4 0.0000 0.0000 0.0000 29.6023 0.0000 0.0000
# 5 0.0000 0.0000 0.0000 0.0000 29.6031 0.0000
# 6 0.0000 0.0000 0.0000 0.0000 0.0000 45.4090
#
#
#
# Elastic Compliance Matrix: (Units=1/GPa)
#
#
# Indices 1 2 3 4 5 6 
#
# 1 0.009663 -0.002746 -0.002617 0.000000 0.000000 0.000000
# 2 -0.002746 0.009663 -0.002617 0.000000 0.000000 0.000000
# 3 -0.002617 -0.002617 0.016062 0.000000 0.000000 0.000000
# 4 0.000000 0.000000 0.000000 0.033781 0.000000 0.000000
# 5 0.000000 0.000000 0.000000 0.000000 0.033780 0.000000
# 6 0.000000 0.000000 0.000000 0.000000 0.000000 0.022022
#
#
# Mechanical properties :
#
#
# Convention : Reuss Voigt Hill
#
# Bulk Modulus (GPa) = 51.47276 56.47651 53.97463
# Shear Modulus (GPa) = 33.91990 35.63053 34.77521
#
# Velocity S-wave (km/s) = 3.92825 4.02608 3.97747
# Velocity P-wave (km/s) = 6.63259 6.87788 6.75635
#
# Compressibility (1/GPa) = 0.01942775
#
# Stress axis : x y z
#
# Youngs Moduli (GPa) = 103.49010 103.49023 62.25977
#
# Poissons Ratio (x) = 0.28415 0.16294
# Poissons Ratio (y) = 0.28415 0.16293
# Poissons Ratio (z) = 0.27085 0.27083
#
# Static dielectric constant tensor:
#      x y z
#    x 4.192960 0.000000 0.000000 
#    y 0.000000 4.192960 0.000000 
#    z 0.000000 0.000000 3.905510 
# 
# 
# High freq. dielectric constant tensor:
#      x y z
#    x 1.873560 0.000000 0.000000 
#    y 0.000000 1.873560 0.000000 
#    z 0.000000 0.000000 1.860910 
# 
# From -- ./inp_files/1604.got.cif
#   From: 2010.03.12/outbox.cif.g09.slc.cpg/sg120_1_cif.got.tgz:1604.got - 2010.04.06 16:00:44.
