data_PCOD8311403
_publ_section_title
;
Structure prediction by ZEFSAII (Michael W. Deem and Ramdas Pophale) SiO2 
 PCOD8311403
Probable space group: I -4 2 M
;
_chemical_formula_sum "Si O2"
_cell_formula_units_Z 112
_cell_length_a 15.302115
_cell_length_b 15.302115
_cell_length_c 25.659177
_cell_angle_alpha 90.000000
_cell_angle_beta 90.000000
_cell_angle_gamma 90.000000
_cell_volume 6008.217495
_symmetry_space_group_name_H-M "I -4 2 M"
_symmetry_group_IT_number 121
_symmetry_cell_setting 'tetragonal'
loop_
_space_group_symop_operation_xyz
x,y,z
y,-x,-z
-x,-y,z
-y,x,-z
x,-y,-z
-x,y,-z
-y,-x,z
y,x,z
1/2+x,1/2+y,1/2+z
1/2+y,1/2-x,1/2-z
1/2-x,1/2-y,1/2+z
1/2-y,1/2+x,1/2-z
1/2+x,1/2-y,1/2-z
1/2-x,1/2+y,1/2-z
1/2-y,1/2-x,1/2+z
1/2+y,1/2+x,1/2+z
loop_
_atom_site_type_symbol
_atom_site_label
_atom_site_fract_x
_atom_site_fract_y
_atom_site_fract_z
Si Si1 0.406956 0.736991 0.165456
Si Si2 0.788159 0.482616 0.441634
Si Si3 0.842361 0.586252 0.027539
Si Si4 0.633012 0.056830 0.753687
Si Si5 0.812432 0.676038 0.427546
Si Si6 0.735191 0.872735 0.153528
Si Si7 0.769063 0.907625 0.623754
O O1 0.348556 0.651444 0.179085
O O2 0.395416 0.811268 0.208965
O O3 0.379687 0.777609 0.110622
O O4 0.509472 0.713842 0.161121
O O5 0.745492 0.500000 0.500000
O O6 0.879283 0.431311 0.446456
O O7 0.807466 0.574099 0.413986
O O8 0.734778 0.423110 0.399970
O O9 0.765279 0.562834 0.067284
O O10 0.874482 0.500000 0.000000
O O11 0.806814 0.657546 0.986691
O O12 0.543361 0.111271 0.760952
O O13 0.694773 0.059177 0.805004
O O14 0.716030 0.716030 0.420756
O O15 0.822474 0.822474 0.173530
O O16 0.659779 0.801287 0.146053
O O17 0.862646 0.862646 0.617413
#
# Coordination Sequence:
#
# PCOD8311403 Si02
#       7
#    16  16  16  16  16  16  16
#     4  11  22  37  55  79 111 151 194 233 280 338
#     4   9  20  33  53  86 111 147 189 236 297 348
#     4  10  18  33  54  82 113 147 190 239 293 347
#     4  11  22  37  59  89 118 149 188 243 299 348
#     4  10  20  34  52  78 116 153 187 235 287 343
#     4  10  20  38  60  84 116 152 192 240 297 357
#     4  10  20  36  56  79 111 151 193 234 280 341
#
# _framework density 18.641135999999999
#
# number of rings (size 3 to 8) (size 9 to 14) (size 15 to 20)
#    0.000    1.857    2.857    1.714    0.000    6.286 
#    0.000    0.000    0.000    0.429    0.000    3.000 
#    0.000    0.000    0.000    0.000    0.000    0.000 
#
# Total GULP energy -693969.288400 kJ/mol
# GULP energy per Si atom -12392.308721 kJ/mol
# Density = 1.859871 g / cm^3
# Si number density = 18.641136 Si / 1000 Ang^3
#
#
#
# Elastic Constant Matrix: (Units=GPa)
#
#
# Indices 1 2 3 4 5 6 
#
# 1 82.9291 42.8987 28.6035 0.0000 0.0000 0.0000
# 2 42.8987 82.9302 28.6034 0.0000 0.0000 0.0000
# 3 28.6035 28.6034 67.8970 0.0000 0.0000 0.0000
# 4 0.0000 0.0000 0.0000 26.9003 0.0000 0.0000
# 5 0.0000 0.0000 0.0000 0.0000 26.8999 0.0000
# 6 0.0000 0.0000 0.0000 0.0000 0.0000 19.0599
#
#
#
# Elastic Compliance Matrix: (Units=1/GPa)
#
#
# Indices 1 2 3 4 5 6 
#
# 1 0.017406 -0.007575 -0.004141 0.000000 0.000000 0.000000
# 2 -0.007575 0.017405 -0.004141 0.000000 0.000000 0.000000
# 3 -0.004141 -0.004141 0.018217 0.000000 0.000000 0.000000
# 4 0.000000 0.000000 0.000000 0.037174 0.000000 0.000000
# 5 0.000000 0.000000 0.000000 0.000000 0.037175 0.000000
# 6 0.000000 0.000000 0.000000 0.000000 0.000000 0.052466
#
#
# Mechanical properties :
#
#
# Convention : Reuss Voigt Hill
#
# Bulk Modulus (GPa) = 46.92022 48.21864 47.56943
# Shear Modulus (GPa) = 22.86620 23.48204 23.17412
#
# Velocity S-wave (km/s) = 3.50616 3.55306 3.52969
# Velocity P-wave (km/s) = 6.45103 6.53875 6.49504
#
# Compressibility (1/GPa) = 0.02131277
#
# Stress axis : x y z
#
# Youngs Moduli (GPa) = 57.45300 57.45392 54.89267
#
# Poissons Ratio (x) = 0.43523 0.22733
# Poissons Ratio (y) = 0.43522 0.22732
# Poissons Ratio (z) = 0.23793 0.23792
#
# Static dielectric constant tensor:
#      x y z
#    x 3.348640 0.000000 0.000000 
#    y 0.000000 3.348640 0.000000 
#    z 0.000000 0.000000 3.593740 
# 
# 
# High freq. dielectric constant tensor:
#      x y z
#    x 1.709470 0.000000 0.000000 
#    y 0.000000 1.709470 0.000000 
#    z 0.000000 0.000000 1.726210 
# 
# From -- ./inp_files/7188.got.cif
#   From: 2010.03.12/outbox.cif.g09.slc.cpg/sg121_4_cif.got.tgz:7188.got - 2010.04.06 16:06:48.
