data_PCOD8311139
_publ_section_title
;
Structure prediction by ZEFSAII (Michael W. Deem and Ramdas Pophale) SiO2 
 PCOD8311139
Probable space group: I -4 C 2
;
_chemical_formula_sum "Si O2"
_cell_formula_units_Z 72
_cell_length_a 19.947678
_cell_length_b 19.947678
_cell_length_c 9.849262
_cell_angle_alpha 90.000000
_cell_angle_beta 90.000000
_cell_angle_gamma 90.000000
_cell_volume 3919.118440
_symmetry_space_group_name_H-M "I -4 C 2"
_symmetry_group_IT_number 120
_symmetry_cell_setting 'tetragonal'
loop_
_space_group_symop_operation_xyz
x,y,z
y,-x,-z
-x,-y,z
-y,x,-z
y,x,1/2-z
-y,-x,1/2-z
-x,y,1/2+z
x,-y,1/2+z
1/2+x,1/2+y,1/2+z
1/2+y,1/2-x,1/2-z
1/2-x,1/2-y,1/2+z
1/2-y,1/2+x,1/2-z
1/2+y,1/2+x,-z
1/2-y,1/2-x,-z
1/2-x,1/2+y,z
1/2+x,1/2-y,z
loop_
_atom_site_type_symbol
_atom_site_label
_atom_site_fract_x
_atom_site_fract_y
_atom_site_fract_z
Si Si1 0.491772 0.794629 0.228643
Si Si2 0.500000 0.000000 0.750000
Si Si3 0.994245 0.204822 0.481117
Si Si4 0.000000 0.000000 0.500000
Si Si5 0.901757 0.601981 0.653351
Si Si6 0.104176 0.904583 0.402832
O O1 0.497794 0.731743 0.328768
O O2 0.425509 0.837835 0.263843
O O3 0.562203 0.835721 0.229377
O O4 0.479142 0.767333 0.077937
O O5 0.542456 0.955344 0.853618
O O6 0.064997 0.169890 0.523457
O O7 0.929382 0.156165 0.487652
O O8 0.035805 0.050518 0.603112
O O9 0.879517 0.620484 0.500000
O O10 0.120054 0.879947 0.250000
#
# Coordination Sequence:
#
# PCOD8311139 Si02
#       6
#    16   4  16   4  16  16
#     4  11  22  37  60  87 116 151 194 236 287 343
#     4   8  18  28  52  86 112 134 188 234 304 342
#     4  11  22  37  60  87 116 151 194 236 287 343
#     4   8  18  28  52  86 112 134 188 234 304 342
#     4  10  19  34  56  83 118 148 184 238 292 339
#     4  10  19  34  56  83 118 148 184 238 292 339
#
# _framework density 18.371478
#
# number of rings (size 3 to 8) (size 9 to 14) (size 15 to 20)
#    0.000    1.778    4.444    0.667    0.000    1.778 
#    0.000    0.000    0.000    8.000    0.000    0.000 
#    0.000    0.000    0.000    0.000    0.000    0.000 
#
# Total GULP energy -446213.526482 kJ/mol
# GULP energy per Si atom -12394.820180 kJ/mol
# Density = 1.832966 g / cm^3
# Si number density = 18.371478 Si / 1000 Ang^3
#
#
#
# Elastic Constant Matrix: (Units=GPa)
#
#
# Indices 1 2 3 4 5 6 
#
# 1 77.3157 29.5471 15.1845 0.0000 0.0000 0.0000
# 2 29.5471 77.3158 15.1847 0.0000 0.0000 0.0000
# 3 15.1845 15.1847 60.5490 0.0000 0.0000 0.0000
# 4 0.0000 0.0000 0.0000 30.5111 0.0000 0.0000
# 5 0.0000 0.0000 0.0000 0.0000 30.5111 0.0000
# 6 0.0000 0.0000 0.0000 0.0000 0.0000 33.9060
#
#
#
# Elastic Compliance Matrix: (Units=1/GPa)
#
#
# Indices 1 2 3 4 5 6 
#
# 1 0.015505 -0.005429 -0.002527 0.000000 0.000000 0.000000
# 2 -0.005429 0.015505 -0.002527 0.000000 0.000000 0.000000
# 3 -0.002527 -0.002527 0.017783 0.000000 0.000000 0.000000
# 4 0.000000 0.000000 0.000000 0.032775 0.000000 0.000000
# 5 0.000000 0.000000 0.000000 0.000000 0.032775 0.000000
# 6 0.000000 0.000000 0.000000 0.000000 0.000000 0.029493
#
#
# Mechanical properties :
#
#
# Convention : Reuss Voigt Hill
#
# Bulk Modulus (GPa) = 35.93592 37.22366 36.57979
# Shear Modulus (GPa) = 28.72280 29.33659 29.02969
#
# Velocity S-wave (km/s) = 3.95833 4.00040 3.97942
# Velocity P-wave (km/s) = 6.36352 6.45316 6.40850
#
# Compressibility (1/GPa) = 0.02782731
#
# Stress axis : x y z
#
# Youngs Moduli (GPa) = 64.49507 64.49506 56.23374
#
# Poissons Ratio (x) = 0.35015 0.14209
# Poissons Ratio (y) = 0.35015 0.14210
# Poissons Ratio (z) = 0.16297 0.16297
#
# Static dielectric constant tensor:
#      x y z
#    x 3.340850 0.000000 0.000000 
#    y 0.000000 3.340850 0.000000 
#    z 0.000000 0.000000 3.202300 
# 
# 
# High freq. dielectric constant tensor:
#      x y z
#    x 1.698220 0.000000 0.000000 
#    y 0.000000 1.698220 0.000000 
#    z 0.000000 0.000000 1.714610 
# 
# From -- ./inp_files/1372.got.cif
#   From: 2010.03.12/outbox.cif.g09.slc.cpg/sg120_1_cif.got.tgz:1372.got - 2010.04.06 16:00:44.
