data_PCOD8311123
_publ_section_title
;
Structure prediction by ZEFSAII (Michael W. Deem and Ramdas Pophale) SiO2 
 PCOD8311123
Probable space group: I -4 C 2
;
_chemical_formula_sum "Si O2"
_cell_formula_units_Z 92
_cell_length_a 24.090559
_cell_length_b 24.090559
_cell_length_c 9.749135
_cell_angle_alpha 90.000000
_cell_angle_beta 90.000000
_cell_angle_gamma 90.000000
_cell_volume 5657.959564
_symmetry_space_group_name_H-M "I -4 C 2"
_symmetry_group_IT_number 120
_symmetry_cell_setting 'tetragonal'
loop_
_space_group_symop_operation_xyz
x,y,z
y,-x,-z
-x,-y,z
-y,x,-z
y,x,1/2-z
-y,-x,1/2-z
-x,y,1/2+z
x,-y,1/2+z
1/2+x,1/2+y,1/2+z
1/2+y,1/2-x,1/2-z
1/2-x,1/2-y,1/2+z
1/2-y,1/2+x,1/2-z
1/2+y,1/2+x,-z
1/2-y,1/2-x,-z
1/2-x,1/2+y,z
1/2+x,1/2-y,z
loop_
_atom_site_type_symbol
_atom_site_label
_atom_site_fract_x
_atom_site_fract_y
_atom_site_fract_z
Si Si1 0.777019 0.705697 0.346271
Si Si2 0.404987 0.269824 0.097598
Si Si3 0.621373 0.378627 0.750000
Si Si4 0.000000 0.000000 0.500000
Si Si5 0.882756 0.017401 0.084758
Si Si6 0.627710 0.717598 0.789210
Si Si7 0.307087 0.482409 0.828065
O O1 0.726378 0.726378 0.250000
O O2 0.768917 0.731084 0.500000
O O3 0.779581 0.638110 0.361142
O O4 0.834575 0.727077 0.279644
O O5 0.385734 0.317548 0.197709
O O6 0.470195 0.260283 0.136019
O O7 0.397885 0.287645 0.940593
O O8 0.608026 0.418694 0.623234
O O9 0.011447 0.056147 0.411587
O O10 0.838426 0.989134 0.184487
O O11 0.856901 0.013953 0.934777
O O12 0.663697 0.663697 0.750000
O O13 0.577332 0.723501 0.679534
#
# Coordination Sequence:
#
# PCOD8311123 Si02
#       7
#    16  16   8   4  16  16  16
#     4   9  18  33  53  75  97 122 159 203 252 297
#     4  10  18  34  51  72  95 127 160 200 250 300
#     4  10  20  33  48  66  90 122 162 206 256 289
#     4  12  24  38  40  58  84 118 184 210 244 266
#     4  11  24  34  49  63  86 130 166 221 249 284
#     4  10  20  33  53  74  98 127 163 207 242 301
#     4  11  22  36  50  69  94 126 165 202 256 291
#
# _framework density 16.260279000000001
#
# number of rings (size 3 to 8) (size 9 to 14) (size 15 to 20)
#    0.000    1.739    2.609    3.130    2.435    2.435 
#    0.000    0.000    0.000    0.000    0.000    0.000 
#    0.000    0.696    0.000    6.261    0.000    0.000 
#
# Total GULP energy -569899.084519 kJ/mol
# GULP energy per Si atom -12389.110533 kJ/mol
# Density = 1.622327 g / cm^3
# Si number density = 16.260279 Si / 1000 Ang^3
#
#
#
# Elastic Constant Matrix: (Units=GPa)
#
#
# Indices 1 2 3 4 5 6 
#
# 1 83.3265 51.7335 26.7342 0.0000 0.0000 0.0000
# 2 51.7335 83.3272 26.7341 0.0000 0.0000 0.0000
# 3 26.7342 26.7341 52.1433 0.0000 0.0000 0.0000
# 4 0.0000 0.0000 0.0000 18.7431 0.0000 0.0000
# 5 0.0000 0.0000 0.0000 0.0000 18.7429 0.0000
# 6 0.0000 0.0000 0.0000 0.0000 0.0000 21.6458
#
#
#
# Elastic Compliance Matrix: (Units=1/GPa)
#
#
# Indices 1 2 3 4 5 6 
#
# 1 0.020471 -0.011181 -0.004763 0.000000 0.000000 0.000000
# 2 -0.011181 0.020471 -0.004763 0.000000 0.000000 0.000000
# 3 -0.004763 -0.004763 0.024062 0.000000 0.000000 0.000000
# 4 0.000000 0.000000 0.000000 0.053353 0.000000 0.000000
# 5 0.000000 0.000000 0.000000 0.000000 0.053353 0.000000
# 6 0.000000 0.000000 0.000000 0.000000 0.000000 0.046198
#
#
# Mechanical properties :
#
#
# Convention : Reuss Voigt Hill
#
# Bulk Modulus (GPa) = 42.39145 47.68897 45.04021
# Shear Modulus (GPa) = 18.71358 19.39938 19.05648
#
# Velocity S-wave (km/s) = 3.39614 3.45781 3.42711
# Velocity P-wave (km/s) = 6.44248 6.73306 6.58937
#
# Compressibility (1/GPa) = 0.02358966
#
# Stress axis : x y z
#
# Youngs Moduli (GPa) = 48.84944 48.85005 41.55969
#
# Poissons Ratio (x) = 0.54621 0.19795
# Poissons Ratio (y) = 0.54620 0.19794
# Poissons Ratio (z) = 0.23267 0.23266
#
# Static dielectric constant tensor:
#      x y z
#    x 3.188900 0.000000 0.000000 
#    y 0.000000 3.188940 0.000000 
#    z 0.000000 0.000000 3.261500 
# 
# 
# High freq. dielectric constant tensor:
#      x y z
#    x 1.600660 0.000000 0.000000 
#    y 0.000000 1.600660 0.000000 
#    z 0.000000 0.000000 1.638670 
# 
# From -- ./inp_files/1584.got.cif
#   From: 2010.03.12/outbox.cif.g09.slc.cpg/sg120_1_cif.got.tgz:1584.got - 2010.04.06 16:00:44.
