data_PCOD8311398
_publ_section_title
;
Structure prediction by ZEFSAII (Michael W. Deem and Ramdas Pophale) SiO2 
 PCOD8311398
Probable space group: I -4 2 M
;
_chemical_formula_sum "Si O2"
_cell_formula_units_Z 96
_cell_length_a 14.689714
_cell_length_b 14.689714
_cell_length_c 22.625880
_cell_angle_alpha 90.000000
_cell_angle_beta 90.000000
_cell_angle_gamma 90.000000
_cell_volume 4882.386547
_symmetry_space_group_name_H-M "I -4 2 M"
_symmetry_group_IT_number 121
_symmetry_cell_setting 'tetragonal'
loop_
_space_group_symop_operation_xyz
x,y,z
y,-x,-z
-x,-y,z
-y,x,-z
x,-y,-z
-x,y,-z
-y,-x,z
y,x,z
1/2+x,1/2+y,1/2+z
1/2+y,1/2-x,1/2-z
1/2-x,1/2-y,1/2+z
1/2-y,1/2+x,1/2-z
1/2+x,1/2-y,1/2-z
1/2-x,1/2+y,1/2-z
1/2-y,1/2-x,1/2+z
1/2+y,1/2+x,1/2+z
loop_
_atom_site_type_symbol
_atom_site_label
_atom_site_fract_x
_atom_site_fract_y
_atom_site_fract_z
Si Si1 0.576306 0.878907 0.754797
Si Si2 0.303104 0.454865 0.940331
Si Si3 0.577015 0.577015 0.264125
Si Si4 0.923867 0.076134 0.366647
Si Si5 0.693463 0.541860 0.435467
Si Si6 0.822383 0.674913 0.872711
Si Si7 0.202896 0.943152 0.820518
O O1 0.471628 0.888991 0.775849
O O2 0.637519 0.865025 0.812652
O O3 0.583834 0.800818 0.705121
O O4 0.385378 0.385378 0.954017
O O5 0.335839 0.536827 0.898773
O O6 0.217971 0.408058 0.909811
O O7 0.267466 0.500000 0.000000
O O8 0.500000 0.500000 0.267398
O O9 0.605559 0.605559 0.198569
O O10 0.668708 0.540917 0.295237
O O11 0.000000 0.000000 0.361828
O O12 0.709080 0.500000 0.500000
O O13 0.597756 0.597756 0.432935
O O14 0.777085 0.605633 0.415965
O O15 0.696630 0.455174 0.391291
O O16 0.742863 0.742863 0.853336
O O17 0.136933 0.863068 0.799228
#
# Coordination Sequence:
#
# PCOD8311398 Si02
#       7
#    16  16   8   8  16  16  16
#     4  11  23  42  65  90 127 170 219 257 318 394
#     4  10  18  32  55  83 121 164 209 259 317 380
#     4   9  18  32  56  93 124 152 200 262 333 389
#     4   9  16  26  50  83 118 158 198 255 318 380
#     4  11  23  42  68  97 132 171 216 266 332 398
#     4  10  22  42  64  91 128 172 214 265 325 386
#     4  11  21  38  66  95 126 161 211 277 333 390
#
# _framework density 19.662514999999999
#
# number of rings (size 3 to 8) (size 9 to 14) (size 15 to 20)
#    0.000    1.667    3.333    2.000    0.000    3.500 
#    4.500    0.000    0.000    0.000    0.000    0.000 
#    0.000    0.000    0.000    0.000    0.000    0.000 
#
# Total GULP energy -595145.051605 kJ/mol
# GULP energy per Si atom -12398.855242 kJ/mol
# Density = 1.961776 g / cm^3
# Si number density = 19.662515 Si / 1000 Ang^3
#
#
#
# Elastic Constant Matrix: (Units=GPa)
#
#
# Indices 1 2 3 4 5 6 
#
# 1 82.3022 30.2010 36.2270 0.0000 0.0000 0.0000
# 2 30.2010 82.3019 36.2265 0.0000 0.0000 0.0000
# 3 36.2270 36.2265 136.3946 0.0000 0.0000 0.0000
# 4 0.0000 0.0000 0.0000 28.9489 0.0000 0.0000
# 5 0.0000 0.0000 0.0000 0.0000 28.9492 0.0000
# 6 0.0000 0.0000 0.0000 0.0000 0.0000 25.7877
#
#
#
# Elastic Compliance Matrix: (Units=1/GPa)
#
#
# Indices 1 2 3 4 5 6 
#
# 1 0.014958 -0.004235 -0.002848 0.000000 0.000000 0.000000
# 2 -0.004235 0.014958 -0.002848 0.000000 0.000000 0.000000
# 3 -0.002848 -0.002848 0.008845 0.000000 0.000000 0.000000
# 4 0.000000 0.000000 0.000000 0.034544 0.000000 0.000000
# 5 0.000000 0.000000 0.000000 0.000000 0.034543 0.000000
# 6 0.000000 0.000000 0.000000 0.000000 0.000000 0.038778
#
#
# Mechanical properties :
#
#
# Convention : Reuss Voigt Hill
#
# Bulk Modulus (GPa) = 52.91526 56.25640 54.58583
# Shear Modulus (GPa) = 28.93720 29.96010 29.44865
#
# Velocity S-wave (km/s) = 3.84043 3.90772 3.87422
# Velocity P-wave (km/s) = 6.82901 7.00239 6.91624
#
# Compressibility (1/GPa) = 0.01889814
#
# Stress axis : x y z
#
# Youngs Moduli (GPa) = 66.85325 66.85322 113.06410
#
# Poissons Ratio (x) = 0.28315 0.32201
# Poissons Ratio (y) = 0.28315 0.32200
# Poissons Ratio (z) = 0.19040 0.19040
#
# Static dielectric constant tensor:
#      x y z
#    x 3.600930 0.000000 0.000000 
#    y 0.000000 3.600930 0.000000 
#    z 0.000000 0.000000 3.574920 
# 
# 
# High freq. dielectric constant tensor:
#      x y z
#    x 1.760330 0.000000 0.000000 
#    y 0.000000 1.760330 0.000000 
#    z 0.000000 0.000000 1.766900 
# 
# From -- ./inp_files/6474.got.cif
#   From: 2010.03.12/outbox.cif.g09.slc.cpg/sg121_4_cif.got.tgz:6474.got - 2010.04.06 16:06:48.
