data_PCOD8311424
_publ_section_title
;
Structure prediction by ZEFSAII (Michael W. Deem and Ramdas Pophale) SiO2 
 PCOD8311424
Probable space group: I -4 2 M
;
_chemical_formula_sum "Si O2"
_cell_formula_units_Z 80
_cell_length_a 31.403980
_cell_length_b 31.403980
_cell_length_c 5.194742
_cell_angle_alpha 90.000000
_cell_angle_beta 90.000000
_cell_angle_gamma 90.000000
_cell_volume 5123.106299
_symmetry_space_group_name_H-M "I -4 2 M"
_symmetry_group_IT_number 121
_symmetry_cell_setting 'tetragonal'
loop_
_space_group_symop_operation_xyz
x,y,z
y,-x,-z
-x,-y,z
-y,x,-z
x,-y,-z
-x,y,-z
-y,-x,z
y,x,z
1/2+x,1/2+y,1/2+z
1/2+y,1/2-x,1/2-z
1/2-x,1/2-y,1/2+z
1/2-y,1/2+x,1/2-z
1/2+x,1/2-y,1/2-z
1/2-x,1/2+y,1/2-z
1/2-y,1/2-x,1/2+z
1/2+y,1/2+x,1/2+z
loop_
_atom_site_type_symbol
_atom_site_label
_atom_site_fract_x
_atom_site_fract_y
_atom_site_fract_z
Si Si1 0.449651 0.618698 0.000160
Si Si2 0.550374 0.330155 0.500227
Si Si3 0.550619 0.814041 0.000295
Si Si4 0.589202 0.949790 0.468213
Si Si5 0.050884 0.265482 0.000363
O O1 0.427185 0.572816 0.001388
O O2 0.434147 0.644886 0.752028
O O3 0.500000 0.610231 0.000000
O O4 0.434178 0.645262 0.246956
O O5 0.500000 0.326942 0.500000
O O6 0.569331 0.282470 0.502017
O O7 0.566562 0.862530 0.998618
O O8 0.568543 0.789525 0.751455
O O9 0.500000 0.812805 0.000000
O O10 0.568564 0.790471 0.252391
O O11 0.560800 0.926874 0.682603
O O12 0.585604 0.000000 0.500000
O O13 0.000000 0.264955 0.000000
#
# Coordination Sequence:
#
# PCOD8311424 Si02
#       5
#    16  16  16  16  16
#     4  10  19  30  42  58  83 116 155 190 215 241
#     4   9  17  28  43  62  81 104 138 180 221 263
#     4   9  17  28  43  62  81 103 134 174 217 262
#     4  11  22  34  46  61  84 116 156 193 219 244
#     4   9  15  26  44  63  81  99 127 171 221 270
#
# _framework density 15.615525
#
# number of rings (size 3 to 8) (size 9 to 14) (size 15 to 20)
#    0.000    2.400    0.000    3.600    0.000    9.400 
#    0.000    0.000    0.000    3.600    0.000    0.000 
#    0.000    0.000    0.000    0.000    0.000  252.000 
#
# Total GULP energy -496000.179753 kJ/mol
# GULP energy per Si atom -12400.004494 kJ/mol
# Density = 1.557998 g / cm^3
# Si number density = 15.615525 Si / 1000 Ang^3
#
#
#
# Elastic Constant Matrix: (Units=GPa)
#
#
# Indices 1 2 3 4 5 6 
#
# 1 69.6932 29.6345 33.6554 0.0000 0.0000 0.0000
# 2 29.6345 69.6999 33.6569 0.0000 0.0000 0.0000
# 3 33.6554 33.6569 136.7704 0.0000 0.0000 0.0000
# 4 0.0000 0.0000 0.0000 17.4041 0.0000 0.0000
# 5 0.0000 0.0000 0.0000 0.0000 17.4051 0.0000
# 6 0.0000 0.0000 0.0000 0.0000 0.0000 1.4940
#
#
#
# Elastic Compliance Matrix: (Units=1/GPa)
#
#
# Indices 1 2 3 4 5 6 
#
# 1 0.018523 -0.006440 -0.002973 0.000000 0.000000 0.000000
# 2 -0.006440 0.018521 -0.002973 0.000000 0.000000 0.000000
# 3 -0.002973 -0.002973 0.008775 0.000000 0.000000 0.000000
# 4 0.000000 0.000000 0.000000 0.057458 0.000000 0.000000
# 5 0.000000 0.000000 0.000000 0.000000 0.057454 0.000000
# 6 0.000000 0.000000 0.000000 0.000000 0.000000 0.669363
#
#
# Mechanical properties :
#
#
# Convention : Reuss Voigt Hill
#
# Bulk Modulus (GPa) = 47.51398 52.22856 49.87127
# Shear Modulus (GPa) = 5.80127 19.20841 12.50484
#
# Velocity S-wave (km/s) = 1.92954 3.51106 2.83290
# Velocity P-wave (km/s) = 5.95463 7.06795 6.53504
#
# Compressibility (1/GPa) = 0.02104644
#
# Stress axis : x y z
#
# Youngs Moduli (GPa) = 53.98820 53.99343 113.96311
#
# Poissons Ratio (x) = 0.34769 0.33884
# Poissons Ratio (y) = 0.34766 0.33882
# Poissons Ratio (z) = 0.16052 0.16053
#
# Static dielectric constant tensor:
#      x y z
#    x 2.782130 0.000000 0.000000 
#    y 0.000000 2.782130 0.000000 
#    z 0.000000 0.000000 3.288570 
# 
# 
# High freq. dielectric constant tensor:
#      x y z
#    x 1.564730 0.000000 0.000000 
#    y 0.000000 1.564730 0.000000 
#    z 0.000000 0.000000 1.625930 
# 
# From -- ./inp_files/572.got.cif
#   From: 2010.03.12/outbox.cif.g09.slc.cpg/sg121_1_cif.got.tgz:572.got - 2010.04.06 16:06:48.
