data_PCOD8311838
_publ_section_title
;
Structure prediction by ZEFSAII (Michael W. Deem and Ramdas Pophale) SiO2 
 PCOD8311838
Probable space group: I -4 2 D
;
_chemical_formula_sum "Si O2"
_cell_formula_units_Z 88
_cell_length_a 14.938998
_cell_length_b 14.938998
_cell_length_c 18.808525
_cell_angle_alpha 90.000000
_cell_angle_beta 90.000000
_cell_angle_gamma 90.000000
_cell_volume 4197.567387
_symmetry_space_group_name_H-M "I -4 2 D"
_symmetry_group_IT_number 122
_symmetry_cell_setting 'tetragonal'
loop_
_space_group_symop_operation_xyz
x,y,z
y,-x,-z
-x,-y,z
-y,x,-z
x,1/2-y,1/4-z
-x,1/2+y,1/4-z
-y,1/2-x,1/4+z
y,1/2+x,1/4+z
1/2+x,1/2+y,1/2+z
1/2+y,1/2-x,1/2-z
1/2-x,1/2-y,1/2+z
1/2-y,1/2+x,1/2-z
1/2+x,-y,3/4-z
1/2-x,y,3/4-z
1/2-y,-x,3/4+z
1/2+y,x,3/4+z
loop_
_atom_site_type_symbol
_atom_site_label
_atom_site_fract_x
_atom_site_fract_y
_atom_site_fract_z
Si Si1 0.339069 0.444842 0.714584
Si Si2 0.854953 0.102584 0.030356
Si Si3 0.935018 0.232236 0.931788
Si Si4 0.236551 0.211900 0.298867
Si Si5 0.378944 0.293109 0.202898
Si Si6 0.500000 0.500000 0.375721
O O1 0.265365 0.453359 0.652143
O O2 0.328729 0.350046 0.752716
O O3 0.319614 0.523355 0.770603
O O4 0.436045 0.447102 0.678448
O O5 0.807090 0.188572 0.066315
O O6 0.777627 0.027324 0.024274
O O7 0.941753 0.068560 0.075187
O O8 0.883065 0.138495 0.952105
O O9 0.884294 0.321803 0.952558
O O10 0.250000 0.164394 0.375000
O O11 0.330305 0.224641 0.256973
O O12 0.384490 0.250000 0.125000
#
# Coordination Sequence:
#
# PCOD8311838 Si02
#       6
#    16  16  16  16  16   8
#     4  11  23  39  67  93 135 169 227 274 323 398
#     4  10  21  37  67  89 138 165 214 263 334 407
#     4  10  20  39  63  95 127 176 209 272 326 400
#     4  11  23  42  65  98 131 182 220 272 339 397
#     4  11  23  43  66  94 131 178 221 280 331 396
#     4  10  22  41  62 104 127 180 208 284 333 404
#
# _framework density 20.964523
#
# number of rings (size 3 to 8) (size 9 to 14) (size 15 to 20)
#    0.000    1.455    1.818    4.909    2.545    0.727 
#    0.000    0.000   12.000    0.545    0.000    0.000 
#    0.000    0.000    0.000    0.000    0.000    0.000 
#
# Total GULP energy -545191.267015 kJ/mol
# GULP energy per Si atom -12390.710614 kJ/mol
# Density = 2.091681 g / cm^3
# Si number density = 20.964523 Si / 1000 Ang^3
#
#
#
# Elastic Constant Matrix: (Units=GPa)
#
#
# Indices 1 2 3 4 5 6 
#
# 1 76.8070 34.1595 32.3082 0.0000 0.0000 0.0000
# 2 34.1595 76.8070 32.3082 0.0000 0.0000 0.0000
# 3 32.3082 32.3082 117.9525 0.0000 0.0000 0.0000
# 4 0.0000 0.0000 0.0000 27.6171 0.0000 0.0000
# 5 0.0000 0.0000 0.0000 0.0000 27.6172 0.0000
# 6 0.0000 0.0000 0.0000 0.0000 0.0000 24.4175
#
#
#
# Elastic Compliance Matrix: (Units=1/GPa)
#
#
# Indices 1 2 3 4 5 6 
#
# 1 0.017085 -0.006363 -0.002937 0.000000 0.000000 0.000000
# 2 -0.006363 0.017085 -0.002937 0.000000 0.000000 0.000000
# 3 -0.002937 -0.002937 0.010087 0.000000 0.000000 0.000000
# 4 0.000000 0.000000 0.000000 0.036209 0.000000 0.000000
# 5 0.000000 0.000000 0.000000 0.000000 0.036209 0.000000
# 6 0.000000 0.000000 0.000000 0.000000 0.000000 0.040954
#
#
# Mechanical properties :
#
#
# Convention : Reuss Voigt Hill
#
# Bulk Modulus (GPa) = 50.54770 52.12425 51.33598
# Shear Modulus (GPa) = 26.49743 27.44974 26.97358
#
# Velocity S-wave (km/s) = 3.55902 3.62241 3.59085
# Velocity P-wave (km/s) = 6.40720 6.51251 6.46007
#
# Compressibility (1/GPa) = 0.01978329
#
# Stress axis : x y z
#
# Youngs Moduli (GPa) = 58.53112 58.53111 99.13932
#
# Poissons Ratio (x) = 0.37244 0.29115
# Poissons Ratio (y) = 0.37244 0.29115
# Poissons Ratio (z) = 0.17189 0.17189
#
# Static dielectric constant tensor:
#      x y z
#    x 3.746050 0.000000 0.000000 
#    y 0.000000 3.746050 0.000000 
#    z 0.000000 0.000000 3.872210 
# 
# 
# High freq. dielectric constant tensor:
#      x y z
#    x 1.813550 0.000000 0.000000 
#    y 0.000000 1.813550 0.000000 
#    z 0.000000 0.000000 1.826570 
# 
# From -- ./inp_files/7192.got.cif
#   From: 2010.03.12/outbox.cif.g09.slc.cpg/sg122_4_cif.got.tgz:7192.got - 2010.04.06 16:17:16.
