data_PCOD8311663
_publ_section_title
;
Structure prediction by ZEFSAII (Michael W. Deem and Ramdas Pophale) SiO2 
 PCOD8311663
Probable space group: I -4 2 M
;
_chemical_formula_sum "Si O2"
_cell_formula_units_Z 26
_cell_length_a 11.811477
_cell_length_b 11.811477
_cell_length_c 8.977097
_cell_angle_alpha 90.000000
_cell_angle_beta 90.000000
_cell_angle_gamma 90.000000
_cell_volume 1252.403680
_symmetry_space_group_name_H-M "I -4 2 M"
_symmetry_group_IT_number 121
_symmetry_cell_setting 'tetragonal'
loop_
_space_group_symop_operation_xyz
x,y,z
y,-x,-z
-x,-y,z
-y,x,-z
x,-y,-z
-x,y,-z
-y,-x,z
y,x,z
1/2+x,1/2+y,1/2+z
1/2+y,1/2-x,1/2-z
1/2-x,1/2-y,1/2+z
1/2-y,1/2+x,1/2-z
1/2+x,1/2-y,1/2-z
1/2-x,1/2+y,1/2-z
1/2-y,1/2-x,1/2+z
1/2+y,1/2+x,1/2+z
loop_
_atom_site_type_symbol
_atom_site_label
_atom_site_fract_x
_atom_site_fract_y
_atom_site_fract_z
Si Si1 0.410952 0.589048 0.217500
Si Si2 0.026902 0.344050 0.332856
Si Si3 0.000000 0.000000 0.000000
O O1 0.500000 0.500000 0.144516
O O2 0.286588 0.558218 0.165037
O O3 0.420121 0.579880 0.397676
O O4 0.917304 0.367622 0.229288
O O5 0.000000 0.383335 0.500000
#
# Coordination Sequence:
#
# PCOD8311663 Si02
#       3
#     8  16   2
#     4  10  26  40  70 100 138 172 228 278 334 398
#     4  11  26  44  71  98 141 176 227 277 343 398
#     4   8  24  40  66  96 144 168 234 256 348 392
#
# _framework density 20.760081
#
# number of rings (size 3 to 8) (size 9 to 14) (size 15 to 20)
#    0.923    0.615    0.000    3.692   17.231    0.000 
#    0.000    0.000    0.000    0.000    0.000    0.000 
#    0.000    0.000    0.000    0.000    0.000    0.000 
#
# Total GULP energy -161156.886592 kJ/mol
# GULP energy per Si atom -12396.683584 kJ/mol
# Density = 2.071283 g / cm^3
# Si number density = 20.760081 Si / 1000 Ang^3
#
#
#
# Elastic Constant Matrix: (Units=GPa)
#
#
# Indices 1 2 3 4 5 6 
#
# 1 168.4303 71.3575 35.8250 0.0000 0.0000 0.0000
# 2 71.3575 168.4308 35.8254 0.0000 0.0000 0.0000
# 3 35.8250 35.8254 154.4343 0.0000 0.0000 0.0000
# 4 0.0000 0.0000 0.0000 30.1161 0.0000 0.0000
# 5 0.0000 0.0000 0.0000 0.0000 30.1164 0.0000
# 6 0.0000 0.0000 0.0000 0.0000 0.0000 34.2184
#
#
#
# Elastic Compliance Matrix: (Units=1/GPa)
#
#
# Indices 1 2 3 4 5 6 
#
# 1 0.007391 -0.002910 -0.001039 0.000000 0.000000 0.000000
# 2 -0.002910 0.007391 -0.001039 0.000000 0.000000 0.000000
# 3 -0.001039 -0.001039 0.006958 0.000000 0.000000 0.000000
# 4 0.000000 0.000000 0.000000 0.033205 0.000000 0.000000
# 5 0.000000 0.000000 0.000000 0.000000 0.033205 0.000000
# 6 0.000000 0.000000 0.000000 0.000000 0.000000 0.029224
#
#
# Mechanical properties :
#
#
# Convention : Reuss Voigt Hill
#
# Bulk Modulus (GPa) = 85.02310 86.36792 85.69551
# Shear Modulus (GPa) = 38.08874 42.10934 40.09904
#
# Velocity S-wave (km/s) = 4.28800 4.50864 4.39970
# Velocity P-wave (km/s) = 8.09691 8.29439 8.19625
#
# Compressibility (1/GPa) = 0.01176151
#
# Stress axis : x y z
#
# Youngs Moduli (GPa) = 135.29523 135.29551 143.72942
#
# Poissons Ratio (x) = 0.39375 0.14940
# Poissons Ratio (y) = 0.39375 0.14941
# Poissons Ratio (z) = 0.14063 0.14064
#
# Static dielectric constant tensor:
#      x y z
#    x 3.604360 0.000000 0.000000 
#    y 0.000000 3.604300 0.000000 
#    z 0.000000 0.000000 3.842440 
# 
# 
# High freq. dielectric constant tensor:
#      x y z
#    x 1.809480 0.000000 0.000000 
#    y 0.000000 1.809470 0.000000 
#    z 0.000000 0.000000 1.829990 
# 
# From -- ./inp_files/783.got.cif
#   From: 2010.03.12/outbox.cif.g09.slc.cpg/sg121_1_cif.got.tgz:783.got - 2010.04.06 16:06:48.
