data_PCOD8311516
_publ_section_title
;
Structure prediction by ZEFSAII (Michael W. Deem and Ramdas Pophale) SiO2 
 PCOD8311516
Probable space group: I -4 2 M
;
_chemical_formula_sum "Si O2"
_cell_formula_units_Z 112
_cell_length_a 13.793141
_cell_length_b 13.793141
_cell_length_c 36.528785
_cell_angle_alpha 90.000000
_cell_angle_beta 90.000000
_cell_angle_gamma 90.000000
_cell_volume 6949.628328
_symmetry_space_group_name_H-M "I -4 2 M"
_symmetry_group_IT_number 121
_symmetry_cell_setting 'tetragonal'
loop_
_space_group_symop_operation_xyz
x,y,z
y,-x,-z
-x,-y,z
-y,x,-z
x,-y,-z
-x,y,-z
-y,-x,z
y,x,z
1/2+x,1/2+y,1/2+z
1/2+y,1/2-x,1/2-z
1/2-x,1/2-y,1/2+z
1/2-y,1/2+x,1/2-z
1/2+x,1/2-y,1/2-z
1/2-x,1/2+y,1/2-z
1/2-y,1/2-x,1/2+z
1/2+y,1/2+x,1/2+z
loop_
_atom_site_type_symbol
_atom_site_label
_atom_site_fract_x
_atom_site_fract_y
_atom_site_fract_z
Si Si1 0.114944 0.272973 0.719948
Si Si2 0.389737 0.765602 0.499999
Si Si3 0.729784 0.887241 0.078888
Si Si4 0.386699 0.109229 0.851342
Si Si5 0.385060 0.227032 0.780055
Si Si6 0.886688 0.390781 0.351339
Si Si7 0.887231 0.729771 0.921114
O O1 0.170610 0.170610 0.724636
O O2 0.149641 0.350355 0.750004
O O3 0.143367 0.318330 0.680899
O O4 0.000002 0.254983 0.723972
O O5 0.500000 0.734483 0.500000
O O6 0.335352 0.664649 0.500001
O O7 0.366347 0.820688 0.461364
O O8 0.366346 0.820696 0.538632
O O9 0.830129 0.830129 0.082732
O O10 0.658029 0.852246 0.110723
O O11 0.754246 0.000007 0.083459
O O12 0.356644 0.181689 0.819107
O O13 0.500006 0.109633 0.857317
O O14 0.341995 0.147759 0.889282
O O15 0.351010 0.000007 0.841824
O O16 0.329395 0.329395 0.775364
O O17 0.830110 0.830110 0.917268
#
# Coordination Sequence:
#
# PCOD8311516 Si02
#       7
#    16  16  16  16  16  16  16
#     4  10  20  33  50  71  93 118 148 181 218 260
#     4   8  14  23  35  53  77 107 140 172 209 251
#     4   9  16  26  40  58  82 110 140 175 213 254
#     4   9  17  29  45  64  85 111 144 179 214 254
#     4  10  20  33  50  71  93 118 148 181 218 260
#     4   9  17  29  45  64  85 111 144 179 214 254
#     4   9  16  26  40  58  82 110 140 175 213 254
#
# _framework density 16.115969
#
# number of rings (size 3 to 8) (size 9 to 14) (size 15 to 20)
#    0.000    2.857    0.000    1.714    0.000    2.143 
#    0.000    3.571    0.000    4.286    0.000    4.000 
#    0.000    0.000    0.000    0.000    0.000   85.714 
#
# Total GULP energy -693740.445990 kJ/mol
# GULP energy per Si atom -12388.222250 kJ/mol
# Density = 1.607929 g / cm^3
# Si number density = 16.115969 Si / 1000 Ang^3
#
#
#
# Elastic Constant Matrix: (Units=GPa)
#
#
# Indices 1 2 3 4 5 6 
#
# 1 50.6506 32.8637 45.4880 0.0000 0.0000 0.0000
# 2 32.8637 50.6508 45.4879 0.0000 0.0000 0.0000
# 3 45.4880 45.4879 148.2814 0.0000 0.0000 0.0000
# 4 0.0000 0.0000 0.0000 23.9041 0.0000 0.0000
# 5 0.0000 0.0000 0.0000 0.0000 23.9039 0.0000
# 6 0.0000 0.0000 0.0000 0.0000 0.0000 17.9498
#
#
#
# Elastic Compliance Matrix: (Units=1/GPa)
#
#
# Indices 1 2 3 4 5 6 
#
# 1 0.037102 -0.019119 -0.005517 0.000000 0.000000 0.000000
# 2 -0.019119 0.037102 -0.005517 0.000000 0.000000 0.000000
# 3 -0.005517 -0.005517 0.010129 0.000000 0.000000 0.000000
# 4 0.000000 0.000000 0.000000 0.041834 0.000000 0.000000
# 5 0.000000 0.000000 0.000000 0.000000 0.041834 0.000000
# 6 0.000000 0.000000 0.000000 0.000000 0.000000 0.055711
#
#
# Mechanical properties :
#
#
# Convention : Reuss Voigt Hill
#
# Bulk Modulus (GPa) = 41.61668 55.25134 48.43401
# Shear Modulus (GPa) = 17.12176 21.53444 19.32810
#
# Velocity S-wave (km/s) = 3.26300 3.65940 3.46687
# Velocity P-wave (km/s) = 6.33052 7.22585 6.79295
#
# Compressibility (1/GPa) = 0.02402883
#
# Stress axis : x y z
#
# Youngs Moduli (GPa) = 26.95246 26.95262 98.72926
#
# Poissons Ratio (x) = 0.51529 0.54468
# Poissons Ratio (y) = 0.51529 0.54467
# Poissons Ratio (z) = 0.14869 0.14869
#
# Static dielectric constant tensor:
#      x y z
#    x 2.858620 0.000000 0.000000 
#    y 0.000000 2.858620 0.000000 
#    z 0.000000 0.000000 3.605090 
# 
# 
# High freq. dielectric constant tensor:
#      x y z
#    x 1.597130 0.000000 0.000000 
#    y 0.000000 1.597130 0.000000 
#    z 0.000000 0.000000 1.647380 
# 
# From -- ./inp_files/8400.got.cif
#   From: 2010.03.12/outbox.cif.g09.slc.cpg/sg121_5_cif.got.tgz:8400.got - 2010.04.06 16:06:48.
