data_PCOD8311721
_publ_section_title
;
Structure prediction by ZEFSAII (Michael W. Deem and Ramdas Pophale) SiO2 
 PCOD8311721
Probable space group: I -4 2 M
;
_chemical_formula_sum "Si O2"
_cell_formula_units_Z 40
_cell_length_a 9.906304
_cell_length_b 9.906304
_cell_length_c 18.775511
_cell_angle_alpha 90.000000
_cell_angle_beta 90.000000
_cell_angle_gamma 90.000000
_cell_volume 1842.532124
_symmetry_space_group_name_H-M "I -4 2 M"
_symmetry_group_IT_number 121
_symmetry_cell_setting 'tetragonal'
loop_
_space_group_symop_operation_xyz
x,y,z
y,-x,-z
-x,-y,z
-y,x,-z
x,-y,-z
-x,y,-z
-y,-x,z
y,x,z
1/2+x,1/2+y,1/2+z
1/2+y,1/2-x,1/2-z
1/2-x,1/2-y,1/2+z
1/2-y,1/2+x,1/2-z
1/2+x,1/2-y,1/2-z
1/2-x,1/2+y,1/2-z
1/2-y,1/2-x,1/2+z
1/2+y,1/2+x,1/2+z
loop_
_atom_site_type_symbol
_atom_site_label
_atom_site_fract_x
_atom_site_fract_y
_atom_site_fract_z
Si Si1 0.719228 0.506959 0.213948
Si Si2 0.276585 0.500000 0.500000
Si Si3 0.821270 0.404797 0.641935
O O1 0.601956 0.398045 0.215396
O O2 0.654971 0.654971 0.197730
O O3 0.792436 0.498850 0.290615
O O4 0.829130 0.465636 0.153533
O O5 0.368674 0.631327 0.488609
O O6 0.178388 0.512629 0.568430
O O7 0.701135 0.298866 0.638110
#
# Coordination Sequence:
#
# PCOD8311721 Si02
#       3
#    16   8  16
#     4   9  17  30  49  76 110 145 181 220 262 316
#     4   9  16  28  50  83 118 144 172 218 272 322
#     4   9  17  29  49  79 111 142 176 217 269 320
#
# _framework density 21.709254999999999
#
# number of rings (size 3 to 8) (size 9 to 14) (size 15 to 20)
#    0.000    3.000    0.000    1.200    0.000    5.600 
#    0.000    0.000    0.000    4.800    0.000   19.600 
#    0.000   48.000    0.000    0.000    0.000    0.000 
#
# Total GULP energy -247878.618909 kJ/mol
# GULP energy per Si atom -12393.930945 kJ/mol
# Density = 2.165984 g / cm^3
# Si number density = 21.709255 Si / 1000 Ang^3
#
#
#
# Elastic Constant Matrix: (Units=GPa)
#
#
# Indices 1 2 3 4 5 6 
#
# 1 63.0130 28.7320 69.4258 0.0000 0.0000 0.0000
# 2 28.7320 63.0120 69.4251 0.0000 0.0000 0.0000
# 3 69.4258 69.4251 183.1059 0.0000 0.0000 0.0000
# 4 0.0000 0.0000 0.0000 29.2165 0.0000 0.0000
# 5 0.0000 0.0000 0.0000 0.0000 29.2164 0.0000
# 6 0.0000 0.0000 0.0000 0.0000 0.0000 17.6553
#
#
#
# Elastic Compliance Matrix: (Units=1/GPa)
#
#
# Indices 1 2 3 4 5 6 
#
# 1 0.027374 -0.001797 -0.009697 0.000000 0.000000 0.000000
# 2 -0.001797 0.027374 -0.009697 0.000000 0.000000 0.000000
# 3 -0.009697 -0.009697 0.012815 0.000000 0.000000 0.000000
# 4 0.000000 0.000000 0.000000 0.034227 0.000000 0.000000
# 5 0.000000 0.000000 0.000000 0.000000 0.034227 0.000000
# 6 0.000000 0.000000 0.000000 0.000000 0.000000 0.056640
#
#
# Mechanical properties :
#
#
# Convention : Reuss Voigt Hill
#
# Bulk Modulus (GPa) = 39.71700 71.58852 55.65276
# Shear Modulus (GPa) = 20.53943 24.65419 22.59681
#
# Velocity S-wave (km/s) = 3.07923 3.37360 3.22977
# Velocity P-wave (km/s) = 5.56569 6.94425 6.29283
#
# Compressibility (1/GPa) = 0.02517814
#
# Stress axis : x y z
#
# Youngs Moduli (GPa) = 36.53158 36.53110 78.03379
#
# Poissons Ratio (x) = 0.06566 0.75673
# Poissons Ratio (y) = 0.06566 0.75673
# Poissons Ratio (z) = 0.35426 0.35426
#
# Static dielectric constant tensor:
#      x y z
#    x 4.049990 0.000000 0.000000 
#    y 0.000000 4.049990 0.000000 
#    z 0.000000 0.000000 4.051840 
# 
# 
# High freq. dielectric constant tensor:
#      x y z
#    x 1.851600 0.000000 0.000000 
#    y 0.000000 1.851600 0.000000 
#    z 0.000000 0.000000 1.829900 
# 
# From -- ./inp_files/3775.got.cif
#   From: 2010.03.12/outbox.cif.g09.slc.cpg/sg121_2_cif.got.tgz:3775.got - 2010.04.06 16:06:48.
