data_PCOD8311707
_publ_section_title
;
Structure prediction by ZEFSAII (Michael W. Deem and Ramdas Pophale) SiO2 
 PCOD8311707
Probable space group: I -4 2 M
;
_chemical_formula_sum "Si O2"
_cell_formula_units_Z 64
_cell_length_a 12.413175
_cell_length_b 12.413175
_cell_length_c 19.836728
_cell_angle_alpha 90.000000
_cell_angle_beta 90.000000
_cell_angle_gamma 90.000000
_cell_volume 3056.580193
_symmetry_space_group_name_H-M "I -4 2 M"
_symmetry_group_IT_number 121
_symmetry_cell_setting 'tetragonal'
loop_
_space_group_symop_operation_xyz
x,y,z
y,-x,-z
-x,-y,z
-y,x,-z
x,-y,-z
-x,y,-z
-y,-x,z
y,x,z
1/2+x,1/2+y,1/2+z
1/2+y,1/2-x,1/2-z
1/2-x,1/2-y,1/2+z
1/2-y,1/2+x,1/2-z
1/2+x,1/2-y,1/2-z
1/2-x,1/2+y,1/2-z
1/2-y,1/2-x,1/2+z
1/2+y,1/2+x,1/2+z
loop_
_atom_site_type_symbol
_atom_site_label
_atom_site_fract_x
_atom_site_fract_y
_atom_site_fract_z
Si Si1 0.003399 0.632055 0.321811
Si Si2 0.556609 0.724453 0.435915
Si Si3 0.780321 0.601564 0.951059
Si Si4 0.402686 0.227594 0.687689
O O1 0.126466 0.669842 0.336244
O O2 0.000000 0.500000 0.326549
O O3 0.930810 0.695898 0.374330
O O4 0.971612 0.679232 0.249216
O O5 0.500000 0.668822 0.500000
O O6 0.646492 0.646492 0.405138
O O7 0.614135 0.828906 0.469644
O O8 0.478923 0.743414 0.373863
O O9 0.670240 0.670240 0.955173
O O10 0.770615 0.500000 0.000000
O O11 0.329177 0.329177 0.708182
#
# Coordination Sequence:
#
# PCOD8311707 Si02
#       4
#    16  16  16  16
#     4  12  22  44  70  94 131 180 225 277 334 407
#     4  11  24  42  64  96 137 182 228 277 337 405
#     4  11  25  43  70 102 135 178 227 278 335 405
#     4  12  24  40  68 102 132 172 229 284 339 405
#
# _framework density 20.938431999999999
#
# number of rings (size 3 to 8) (size 9 to 14) (size 15 to 20)
#    0.000    0.500    5.000    3.000    0.000    8.000 
#    0.000    0.000    0.000    4.500    0.000    0.000 
#    0.000    0.000    0.000    0.000    0.000    0.000 
#
# Total GULP energy -396446.513038 kJ/mol
# GULP energy per Si atom -12388.953532 kJ/mol
# Density = 2.089078 g / cm^3
# Si number density = 20.938432 Si / 1000 Ang^3
#
#
#
# Elastic Constant Matrix: (Units=GPa)
#
#
# Indices 1 2 3 4 5 6 
#
# 1 105.4934 65.1551 38.3154 0.0000 0.0000 0.0000
# 2 65.1551 105.4934 38.3154 0.0000 0.0000 0.0000
# 3 38.3154 38.3154 107.9153 0.0000 0.0000 0.0000
# 4 0.0000 0.0000 0.0000 26.1400 0.0000 0.0000
# 5 0.0000 0.0000 0.0000 0.0000 26.1400 0.0000
# 6 0.0000 0.0000 0.0000 0.0000 0.0000 20.6420
#
#
#
# Elastic Compliance Matrix: (Units=1/GPa)
#
#
# Indices 1 2 3 4 5 6 
#
# 1 0.015881 -0.008909 -0.002475 0.000000 0.000000 0.000000
# 2 -0.008909 0.015881 -0.002475 0.000000 0.000000 0.000000
# 3 -0.002475 -0.002475 0.011024 0.000000 0.000000 0.000000
# 4 0.000000 0.000000 0.000000 0.038256 0.000000 0.000000
# 5 0.000000 0.000000 0.000000 0.000000 0.038256 0.000000
# 6 0.000000 0.000000 0.000000 0.000000 0.000000 0.048445
#
#
# Mechanical properties :
#
#
# Convention : Reuss Voigt Hill
#
# Bulk Modulus (GPa) = 66.37339 66.94151 66.65745
# Shear Modulus (GPa) = 24.93968 26.39217 25.66593
#
# Velocity S-wave (km/s) = 3.45497 3.55416 3.50491
# Velocity P-wave (km/s) = 6.90535 6.99162 6.94862
#
# Compressibility (1/GPa) = 0.01506628
#
# Stress axis : x y z
#
# Youngs Moduli (GPa) = 62.96863 62.96863 90.70955
#
# Poissons Ratio (x) = 0.56101 0.22453
# Poissons Ratio (y) = 0.56101 0.22453
# Poissons Ratio (z) = 0.15586 0.15586
#
# Static dielectric constant tensor:
#      x y z
#    x 4.091610 0.000000 0.000000 
#    y 0.000000 4.091610 0.000000 
#    z 0.000000 0.000000 3.780810 
# 
# 
# High freq. dielectric constant tensor:
#      x y z
#    x 1.822290 0.000000 0.000000 
#    y 0.000000 1.822290 0.000000 
#    z 0.000000 0.000000 1.831140 
# 
# From -- ./inp_files/5999.got.cif
#   From: 2010.03.12/outbox.cif.g09.slc.cpg/sg121_3_cif.got.tgz:5999.got - 2010.04.06 16:06:48.
