data_PCOD8311777
_publ_section_title
;
Structure prediction by ZEFSAII (Michael W. Deem and Ramdas Pophale) SiO2 
 PCOD8311777
Probable space group: I -4 2 D
;
_chemical_formula_sum "Si O2"
_cell_formula_units_Z 112
_cell_length_a 14.849371
_cell_length_b 14.849371
_cell_length_c 26.192711
_cell_angle_alpha 90.000000
_cell_angle_beta 90.000000
_cell_angle_gamma 90.000000
_cell_volume 5775.592808
_symmetry_space_group_name_H-M "I -4 2 D"
_symmetry_group_IT_number 122
_symmetry_cell_setting 'tetragonal'
loop_
_space_group_symop_operation_xyz
x,y,z
y,-x,-z
-x,-y,z
-y,x,-z
x,1/2-y,1/4-z
-x,1/2+y,1/4-z
-y,1/2-x,1/4+z
y,1/2+x,1/4+z
1/2+x,1/2+y,1/2+z
1/2+y,1/2-x,1/2-z
1/2-x,1/2-y,1/2+z
1/2-y,1/2+x,1/2-z
1/2+x,-y,3/4-z
1/2-x,y,3/4-z
1/2-y,-x,3/4+z
1/2+y,x,3/4+z
loop_
_atom_site_type_symbol
_atom_site_label
_atom_site_fract_x
_atom_site_fract_y
_atom_site_fract_z
Si Si1 0.324376 0.075497 0.476581
Si Si2 0.306044 0.078052 0.801714
Si Si3 0.244975 0.916115 0.021505
Si Si4 0.750000 0.862727 0.375000
Si Si5 0.500000 0.500000 0.268033
Si Si6 0.777979 0.432629 0.637173
Si Si7 0.620718 0.910982 0.906671
Si Si8 0.137280 0.484224 0.729216
O O1 0.351201 0.174656 0.497966
O O2 0.297304 0.074978 0.417236
O O3 0.238516 0.037664 0.505653
O O4 0.411514 0.011418 0.483169
O O5 0.358307 0.154640 0.771448
O O6 0.367983 0.046326 0.849772
O O7 0.216374 0.123675 0.823214
O O8 0.278099 0.996773 0.765775
O O9 0.278970 0.954417 0.076605
O O10 0.672124 0.800110 0.351649
O O11 0.585157 0.512084 0.305422
O O12 0.675025 0.446715 0.656267
O O13 0.851448 0.491887 0.668739
O O14 0.099430 0.569746 0.761790
#
# Coordination Sequence:
#
# PCOD8311777 Si02
#       8
#    16  16  16   8   8  16  16  16
#     4  11  22  41  61  94 126 163 214 271 326 383
#     4  10  21  38  59  91 124 162 212 249 320 384
#     4  10  22  38  63  92 126 170 209 268 317 391
#     4  10  20  40  64  88 120 176 210 266 328 390
#     4  12  22  36  66  95 122 169 214 264 324 398
#     4  10  19  38  65  89 120 168 220 254 325 396
#     4  10  20  36  60  90 121 162 203 253 312 392
#     4  11  23  40  66  97 126 169 218 274 328 394
#
# _framework density 19.391950000000001
#
# number of rings (size 3 to 8) (size 9 to 14) (size 15 to 20)
#    0.000    1.571    4.286    2.571    0.000    2.571 
#    5.143    0.000    0.000    0.000    0.000    0.000 
#    0.000    0.000    0.000    0.000    0.000    0.000 
#
# Total GULP energy -693895.515175 kJ/mol
# GULP energy per Si atom -12390.991342 kJ/mol
# Density = 1.934781 g / cm^3
# Si number density = 19.391950 Si / 1000 Ang^3
#
#
#
# Elastic Constant Matrix: (Units=GPa)
#
#
# Indices 1 2 3 4 5 6 
#
# 1 104.4798 49.2223 55.0624 0.0000 0.0000 0.0000
# 2 49.2223 104.4798 55.0624 0.0000 0.0000 0.0000
# 3 55.0624 55.0624 104.8262 0.0000 0.0000 0.0000
# 4 0.0000 0.0000 0.0000 33.6497 0.0000 0.0000
# 5 0.0000 0.0000 0.0000 0.0000 33.6497 0.0000
# 6 0.0000 0.0000 0.0000 0.0000 0.0000 36.2121
#
#
#
# Elastic Compliance Matrix: (Units=1/GPa)
#
#
# Indices 1 2 3 4 5 6 
#
# 1 0.014265 -0.003832 -0.005480 0.000000 0.000000 0.000000
# 2 -0.003832 0.014265 -0.005480 0.000000 0.000000 0.000000
# 3 -0.005480 -0.005480 0.015296 0.000000 0.000000 0.000000
# 4 0.000000 0.000000 0.000000 0.029718 0.000000 0.000000
# 5 0.000000 0.000000 0.000000 0.000000 0.029718 0.000000
# 6 0.000000 0.000000 0.000000 0.000000 0.000000 0.027615
#
#
# Mechanical properties :
#
#
# Convention : Reuss Voigt Hill
#
# Bulk Modulus (GPa) = 70.21613 70.27556 70.24585
# Shear Modulus (GPa) = 30.26487 30.99819 30.63153
#
# Velocity S-wave (km/s) = 3.95485 4.00247 3.97873
# Velocity P-wave (km/s) = 7.55923 7.59460 7.57693
#
# Compressibility (1/GPa) = 0.01424174
#
# Stress axis : x y z
#
# Youngs Moduli (GPa) = 70.10317 70.10317 65.37490
#
# Poissons Ratio (x) = 0.26866 0.35824
# Poissons Ratio (y) = 0.26866 0.35824
# Poissons Ratio (z) = 0.38415 0.38415
#
# Static dielectric constant tensor:
#      x y z
#    x 3.531340 0.000000 0.000000 
#    y 0.000000 3.531340 0.000000 
#    z 0.000000 0.000000 3.597720 
# 
# 
# High freq. dielectric constant tensor:
#      x y z
#    x 1.750930 0.000000 0.000000 
#    y 0.000000 1.750930 0.000000 
#    z 0.000000 0.000000 1.750570 
# 
# From -- ./inp_files/8828.got.cif
#   From: 2010.03.12/outbox.cif.g09.slc.cpg/sg122_5_cif.got.tgz:8828.got - 2010.04.06 16:17:16.
