data_PCOD8311535
_publ_section_title
;
Structure prediction by ZEFSAII (Michael W. Deem and Ramdas Pophale) SiO2 
 PCOD8311535
Probable space group: I -4 2 M
;
_chemical_formula_sum "Si O2"
_cell_formula_units_Z 106
_cell_length_a 20.547048
_cell_length_b 20.547048
_cell_length_c 13.620477
_cell_angle_alpha 90.000000
_cell_angle_beta 90.000000
_cell_angle_gamma 90.000000
_cell_volume 5750.309073
_symmetry_space_group_name_H-M "I -4 2 M"
_symmetry_group_IT_number 121
_symmetry_cell_setting 'tetragonal'
loop_
_space_group_symop_operation_xyz
x,y,z
y,-x,-z
-x,-y,z
-y,x,-z
x,-y,-z
-x,y,-z
-y,-x,z
y,x,z
1/2+x,1/2+y,1/2+z
1/2+y,1/2-x,1/2-z
1/2-x,1/2-y,1/2+z
1/2-y,1/2+x,1/2-z
1/2+x,1/2-y,1/2-z
1/2-x,1/2+y,1/2-z
1/2-y,1/2-x,1/2+z
1/2+y,1/2+x,1/2+z
loop_
_atom_site_type_symbol
_atom_site_label
_atom_site_fract_x
_atom_site_fract_y
_atom_site_fract_z
Si Si1 0.000000 0.000000 0.500000
Si Si2 0.323839 0.979531 0.770223
Si Si3 0.051116 0.196589 0.749878
Si Si4 0.448578 0.551423 0.813373
Si Si5 0.868770 0.614813 0.338100
Si Si6 0.574216 0.678527 0.472258
Si Si7 0.814350 0.387092 0.449241
Si Si8 0.273217 0.831199 0.307992
O O1 0.954303 0.954303 0.568267
O O2 0.355878 0.940580 0.679537
O O3 0.335211 0.942073 0.872092
O O4 0.246584 0.990156 0.748038
O O5 0.361022 0.047679 0.778440
O O6 0.030707 0.124161 0.717898
O O7 0.081126 0.195244 0.858314
O O8 0.108465 0.223339 0.679985
O O9 0.500000 0.500000 0.764592
O O10 0.856921 0.604056 0.452937
O O11 0.816549 0.664175 0.290656
O O12 0.500000 0.665590 0.500000
O O13 0.613737 0.613737 0.499367
O O14 0.604785 0.737999 0.531694
O O15 0.829250 0.316334 0.406104
O O16 0.236193 0.763808 0.298300
#
# Coordination Sequence:
#
# PCOD8311535 Si02
#       8
#     2  16  16   8  16  16  16  16
#     4   8  24  48  64  84 106 180 216 256 308 356
#     4  10  21  39  61  87 120 165 199 256 310 370
#     4  11  20  40  62  85 123 163 201 248 317 363
#     4  10  22  44  68  85 116 167 214 251 304 373
#     4  10  21  37  60  85 120 160 204 247 307 370
#     4  12  22  36  59  89 126 168 197 246 315 379
#     4  11  20  38  59  90 123 157 202 253 316 373
#     4  10  20  34  57  86 116 156 199 251 297 372
#
# _framework density 18.433790999999999
#
# number of rings (size 3 to 8) (size 9 to 14) (size 15 to 20)
#    0.226    1.208    6.038    0.906    0.000    1.660 
#    2.717    6.792    0.000    5.434    0.000    0.000 
#    0.000    0.000    0.000    0.000    0.000    0.000 
#
# Total GULP energy -657186.839652 kJ/mol
# GULP energy per Si atom -12399.751692 kJ/mol
# Density = 1.839184 g / cm^3
# Si number density = 18.433791 Si / 1000 Ang^3
#
#
#
# Elastic Constant Matrix: (Units=GPa)
#
#
# Indices 1 2 3 4 5 6 
#
# 1 116.3780 66.8664 39.6898 0.0000 0.0000 0.0000
# 2 66.8664 116.3808 39.6907 0.0000 0.0000 0.0000
# 3 39.6898 39.6907 69.4778 0.0000 0.0000 0.0000
# 4 0.0000 0.0000 0.0000 28.7618 0.0000 0.0000
# 5 0.0000 0.0000 0.0000 0.0000 28.7609 0.0000
# 6 0.0000 0.0000 0.0000 0.0000 0.0000 38.4491
#
#
#
# Elastic Compliance Matrix: (Units=1/GPa)
#
#
# Indices 1 2 3 4 5 6 
#
# 1 0.013724 -0.006472 -0.004143 0.000000 0.000000 0.000000
# 2 -0.006472 0.013724 -0.004143 0.000000 0.000000 0.000000
# 3 -0.004143 -0.004143 0.019126 0.000000 0.000000 0.000000
# 4 0.000000 0.000000 0.000000 0.034768 0.000000 0.000000
# 5 0.000000 0.000000 0.000000 0.000000 0.034769 0.000000
# 6 0.000000 0.000000 0.000000 0.000000 0.000000 0.026008
#
#
# Mechanical properties :
#
#
# Convention : Reuss Voigt Hill
#
# Bulk Modulus (GPa) = 58.62007 66.08117 62.35062
# Shear Modulus (GPa) = 28.19718 29.59368 28.89543
#
# Velocity S-wave (km/s) = 3.91531 4.01110 3.96349
# Velocity P-wave (km/s) = 7.23249 7.57480 7.40562
#
# Compressibility (1/GPa) = 0.01705900
#
# Stress axis : x y z
#
# Youngs Moduli (GPa) = 72.86328 72.86470 52.28432
#
# Poissons Ratio (x) = 0.47162 0.21659
# Poissons Ratio (y) = 0.47161 0.21660
# Poissons Ratio (z) = 0.30184 0.30186
#
# Static dielectric constant tensor:
#      x y z
#    x 3.480200 0.000000 0.000000 
#    y 0.000000 3.480180 0.000000 
#    z 0.000000 0.000000 3.339080 
# 
# 
# High freq. dielectric constant tensor:
#      x y z
#    x 1.716510 0.000000 0.000000 
#    y 0.000000 1.716510 0.000000 
#    z 0.000000 0.000000 1.702750 
# 
# From -- ./inp_files/4598.got.cif
#   From: 2010.03.12/outbox.cif.g09.slc.cpg/sg121_3_cif.got.tgz:4598.got - 2010.04.06 16:06:48.
