data_PCOD8311692
_publ_section_title
;
Structure prediction by ZEFSAII (Michael W. Deem and Ramdas Pophale) SiO2 
 PCOD8311692
Probable space group: I -4 2 M
;
_chemical_formula_sum "Si O2"
_cell_formula_units_Z 56
_cell_length_a 10.626223
_cell_length_b 10.626223
_cell_length_c 21.773714
_cell_angle_alpha 90.000000
_cell_angle_beta 90.000000
_cell_angle_gamma 90.000000
_cell_volume 2458.614086
_symmetry_space_group_name_H-M "I -4 2 M"
_symmetry_group_IT_number 121
_symmetry_cell_setting 'tetragonal'
loop_
_space_group_symop_operation_xyz
x,y,z
y,-x,-z
-x,-y,z
-y,x,-z
x,-y,-z
-x,y,-z
-y,-x,z
y,x,z
1/2+x,1/2+y,1/2+z
1/2+y,1/2-x,1/2-z
1/2-x,1/2-y,1/2+z
1/2-y,1/2+x,1/2-z
1/2+x,1/2-y,1/2-z
1/2-x,1/2+y,1/2-z
1/2-y,1/2-x,1/2+z
1/2+y,1/2+x,1/2+z
loop_
_atom_site_type_symbol
_atom_site_label
_atom_site_fract_x
_atom_site_fract_y
_atom_site_fract_z
Si Si1 0.500000 0.708359 0.000000
Si Si2 0.432105 0.766626 0.333480
Si Si3 0.462705 0.267348 0.206434
Si Si4 0.135067 0.670036 0.607573
O O1 0.527664 0.802400 0.943256
O O2 0.620366 0.620366 0.015449
O O3 0.342361 0.657640 0.362950
O O4 0.513564 0.707775 0.278414
O O5 0.352910 0.875262 0.301778
O O6 0.522128 0.832162 0.384434
O O7 0.392980 0.392980 0.181038
O O8 0.590361 0.238378 0.170108
O O9 0.264725 0.735276 0.586987
#
# Coordination Sequence:
#
# PCOD8311692 Si02
#       4
#     8  16  16  16
#     4   9  20  40  65  96 134 176 225 277 328 388
#     4  11  23  38  58  91 136 177 216 266 326 395
#     4  11  22  37  58  88 129 174 219 265 320 386
#     4  11  22  38  63  95 131 170 217 272 330 389
#
# _framework density 22.777058
#
# number of rings (size 3 to 8) (size 9 to 14) (size 15 to 20)
#    0.000    1.286    2.857    3.429    0.000    5.143 
#    0.000    2.857    0.000    0.000    0.000    4.000 
#    0.000   27.429    0.000    0.000    0.000    0.000 
#
# Total GULP energy -347084.951700 kJ/mol
# GULP energy per Si atom -12395.891132 kJ/mol
# Density = 2.272522 g / cm^3
# Si number density = 22.777058 Si / 1000 Ang^3
#
#
#
# Elastic Constant Matrix: (Units=GPa)
#
#
# Indices 1 2 3 4 5 6 
#
# 1 111.1110 70.1877 35.8726 0.0000 0.0000 0.0000
# 2 70.1877 111.1112 35.8724 0.0000 0.0000 0.0000
# 3 35.8726 35.8724 91.9272 0.0000 0.0000 0.0000
# 4 0.0000 0.0000 0.0000 31.5320 0.0000 0.0000
# 5 0.0000 0.0000 0.0000 0.0000 31.5317 0.0000
# 6 0.0000 0.0000 0.0000 0.0000 0.0000 43.5183
#
#
#
# Elastic Compliance Matrix: (Units=1/GPa)
#
#
# Indices 1 2 3 4 5 6 
#
# 1 0.015479 -0.008956 -0.002546 0.000000 0.000000 0.000000
# 2 -0.008956 0.015479 -0.002545 0.000000 0.000000 0.000000
# 3 -0.002546 -0.002545 0.012865 0.000000 0.000000 0.000000
# 4 0.000000 0.000000 0.000000 0.031714 0.000000 0.000000
# 5 0.000000 0.000000 0.000000 0.000000 0.031714 0.000000
# 6 0.000000 0.000000 0.000000 0.000000 0.000000 0.022979
#
#
# Mechanical properties :
#
#
# Convention : Reuss Voigt Hill
#
# Bulk Modulus (GPa) = 63.57672 66.44609 65.01141
# Shear Modulus (GPa) = 30.56827 32.79750 31.68288
#
# Velocity S-wave (km/s) = 3.66739 3.79877 3.73366
# Velocity P-wave (km/s) = 6.77541 6.96251 6.86960
#
# Compressibility (1/GPa) = 0.01572903
#
# Stress axis : x y z
#
# Youngs Moduli (GPa) = 64.60159 64.60176 77.73143
#
# Poissons Ratio (x) = 0.57860 0.19787
# Poissons Ratio (y) = 0.57860 0.19786
# Poissons Ratio (z) = 0.16444 0.16444
#
# Static dielectric constant tensor:
#      x y z
#    x 4.151350 0.000000 0.000000 
#    y 0.000000 4.151340 0.000000 
#    z 0.000000 0.000000 3.812770 
# 
# 
# High freq. dielectric constant tensor:
#      x y z
#    x 1.905280 0.000000 0.000000 
#    y 0.000000 1.905280 0.000000 
#    z 0.000000 0.000000 1.854960 
# 
# From -- ./inp_files/6850.got.cif
#   From: 2010.03.12/outbox.cif.g09.slc.cpg/sg121_4_cif.got.tgz:6850.got - 2010.04.06 16:06:48.
