data_PCOD8311400
_publ_section_title
;
Structure prediction by ZEFSAII (Michael W. Deem and Ramdas Pophale) SiO2 
 PCOD8311400
Probable space group: I -4 2 M
;
_chemical_formula_sum "Si O2"
_cell_formula_units_Z 96
_cell_length_a 23.536537
_cell_length_b 23.536537
_cell_length_c 10.647539
_cell_angle_alpha 90.000000
_cell_angle_beta 90.000000
_cell_angle_gamma 90.000000
_cell_volume 5898.401996
_symmetry_space_group_name_H-M "I -4 2 M"
_symmetry_group_IT_number 121
_symmetry_cell_setting 'tetragonal'
loop_
_space_group_symop_operation_xyz
x,y,z
y,-x,-z
-x,-y,z
-y,x,-z
x,-y,-z
-x,y,-z
-y,-x,z
y,x,z
1/2+x,1/2+y,1/2+z
1/2+y,1/2-x,1/2-z
1/2-x,1/2-y,1/2+z
1/2-y,1/2+x,1/2-z
1/2+x,1/2-y,1/2-z
1/2-x,1/2+y,1/2-z
1/2-y,1/2-x,1/2+z
1/2+y,1/2+x,1/2+z
loop_
_atom_site_type_symbol
_atom_site_label
_atom_site_fract_x
_atom_site_fract_y
_atom_site_fract_z
Si Si1 0.202230 0.619480 0.062177
Si Si2 0.087099 0.554580 0.085141
Si Si3 0.299667 0.896407 0.296944
Si Si4 0.998927 0.635683 0.818483
Si Si5 0.394621 0.799712 0.332838
Si Si6 0.837410 0.256209 0.065629
O O1 0.139589 0.592879 0.040047
O O2 0.229321 0.596492 0.193312
O O3 0.201224 0.687662 0.067129
O O4 0.233860 0.600909 0.932101
O O5 0.033078 0.596781 0.079658
O O6 0.094787 0.534926 0.227787
O O7 0.075995 0.500000 0.000000
O O8 0.326195 0.957028 0.265240
O O9 0.349704 0.849954 0.307961
O O10 0.256104 0.878761 0.186654
O O11 0.045383 0.676422 0.885239
O O12 0.373040 0.754607 0.435386
O O13 0.799363 0.200638 0.071680
#
# Coordination Sequence:
#
# PCOD8311400 Si02
#       6
#    16  16  16  16  16  16
#     4   9  18  33  49  68  87 112 160 203 244 294
#     4  11  21  35  46  63  95 134 166 206 243 295
#     4  10  18  33  48  66  87 117 157 200 246 300
#     4  11  19  35  46  65  95 128 169 199 252 294
#     4   9  20  33  47  67  93 120 156 202 244 307
#     4  10  20  35  50  65  87 116 156 216 270 299
#
# _framework density 16.275594000000002
#
# number of rings (size 3 to 8) (size 9 to 14) (size 15 to 20)
#    0.000    2.000    6.667    0.000    0.000    7.000 
#    3.000    7.500    0.000    0.000    0.000    0.000 
#    0.000    0.000    0.000    0.000    0.000    6.667 
#
# Total GULP energy -594742.021249 kJ/mol
# GULP energy per Si atom -12390.458776 kJ/mol
# Density = 1.623855 g / cm^3
# Si number density = 16.275594 Si / 1000 Ang^3
#
#
#
# Elastic Constant Matrix: (Units=GPa)
#
#
# Indices 1 2 3 4 5 6 
#
# 1 37.7893 32.3487 32.1456 0.0000 0.0000 0.0000
# 2 32.3487 37.7928 32.1465 0.0000 0.0000 0.0000
# 3 32.1456 32.1465 123.8386 0.0000 0.0000 0.0000
# 4 0.0000 0.0000 0.0000 15.9695 0.0000 0.0000
# 5 0.0000 0.0000 0.0000 0.0000 15.9704 0.0000
# 6 0.0000 0.0000 0.0000 0.0000 0.0000 24.6800
#
#
#
# Elastic Compliance Matrix: (Units=1/GPa)
#
#
# Indices 1 2 3 4 5 6 
#
# 1 0.101232 -0.082518 -0.004857 0.000000 0.000000 0.000000
# 2 -0.082518 0.101222 -0.004856 0.000000 0.000000 0.000000
# 3 -0.004857 -0.004856 0.010596 0.000000 0.000000 0.000000
# 4 0.000000 0.000000 0.000000 0.062619 0.000000 0.000000
# 5 0.000000 0.000000 0.000000 0.000000 0.062616 0.000000
# 6 0.000000 0.000000 0.000000 0.000000 0.000000 0.040519
#
#
# Mechanical properties :
#
#
# Convention : Reuss Voigt Hill
#
# Bulk Modulus (GPa) = 34.97953 43.63360 39.30656
# Shear Modulus (GPa) = 8.72912 18.17597 13.45255
#
# Velocity S-wave (km/s) = 2.31840 3.34543 2.87809
# Velocity P-wave (km/s) = 5.35773 6.46451 5.93697
#
# Compressibility (1/GPa) = 0.02858815
#
# Stress axis : x y z
#
# Youngs Moduli (GPa) = 9.87830 9.87929 94.37264
#
# Poissons Ratio (x) = 0.81522 0.45838
# Poissons Ratio (y) = 0.81514 0.45825
# Poissons Ratio (z) = 0.04798 0.04797
#
# Static dielectric constant tensor:
#      x y z
#    x 2.691600 0.000000 0.000000 
#    y 0.000000 2.691600 0.000000 
#    z 0.000000 0.000000 3.915860 
# 
# 
# High freq. dielectric constant tensor:
#      x y z
#    x 1.567870 0.000000 0.000000 
#    y 0.000000 1.567870 0.000000 
#    z 0.000000 0.000000 1.667550 
# 
# From -- ./inp_files/3290.got.cif
#   From: 2010.03.12/outbox.cif.g09.slc.cpg/sg121_2_cif.got.tgz:3290.got - 2010.04.06 16:06:48.
