data_PCOD8311153
_publ_section_title
;
Structure prediction by ZEFSAII (Michael W. Deem and Ramdas Pophale) SiO2 
 PCOD8311153
Probable space group: I -4 C 2
;
_chemical_formula_sum "Si O2"
_cell_formula_units_Z 88
_cell_length_a 13.722878
_cell_length_b 13.722878
_cell_length_c 25.928702
_cell_angle_alpha 90.000000
_cell_angle_beta 90.000000
_cell_angle_gamma 90.000000
_cell_volume 4882.825243
_symmetry_space_group_name_H-M "I -4 C 2"
_symmetry_group_IT_number 120
_symmetry_cell_setting 'tetragonal'
loop_
_space_group_symop_operation_xyz
x,y,z
y,-x,-z
-x,-y,z
-y,x,-z
y,x,1/2-z
-y,-x,1/2-z
-x,y,1/2+z
x,-y,1/2+z
1/2+x,1/2+y,1/2+z
1/2+y,1/2-x,1/2-z
1/2-x,1/2-y,1/2+z
1/2-y,1/2+x,1/2-z
1/2+y,1/2+x,-z
1/2-y,1/2-x,-z
1/2-x,1/2+y,z
1/2+x,1/2-y,z
loop_
_atom_site_type_symbol
_atom_site_label
_atom_site_fract_x
_atom_site_fract_y
_atom_site_fract_z
Si Si1 0.890263 0.735965 0.031869
Si Si2 0.677884 0.598731 0.460959
Si Si3 0.000000 0.000000 0.000000
Si Si4 0.262988 0.855424 0.714288
Si Si5 0.744142 0.218179 0.123890
Si Si6 0.186575 0.425449 0.211447
Si Si7 0.000000 0.500000 0.750000
O O1 0.853728 0.725901 0.090187
O O2 0.007950 0.747793 0.029835
O O3 0.861962 0.638039 0.000000
O O4 0.826439 0.825944 0.008705
O O5 0.569988 0.553606 0.459146
O O6 0.702546 0.657107 0.408889
O O7 0.171512 0.828489 0.750000
O O8 0.253360 0.818155 0.655807
O O9 0.358217 0.800467 0.737798
O O10 0.260592 0.971593 0.716090
O O11 0.727830 0.126308 0.160948
O O12 0.070090 0.443212 0.210058
#
# Coordination Sequence:
#
# PCOD8311153 Si02
#       7
#    16  16   4  16  16  16   4
#     4   9  19  34  52  73 102 137 169 208 255 305
#     4   9  18  33  51  74 103 133 168 208 254 303
#     4   8  16  32  52  68  94 136 164 200 256 304
#     4   9  19  34  52  72 100 134 164 204 252 302
#     4  10  20  32  53  79 100 129 171 216 252 297
#     4   9  18  33  50  73 102 132 167 204 252 306
#     4   8  16  32  52  68  98 140 168 200 248 312
#
# _framework density 18.022352000000001
#
# number of rings (size 3 to 8) (size 9 to 14) (size 15 to 20)
#    0.000    2.909    0.000    0.000    0.000   11.636 
#    0.000    0.000    0.000   17.455    0.000    1.273 
#    0.000    0.000    0.000    0.000    0.000    0.000 
#
# Total GULP energy -545096.992066 kJ/mol
# GULP energy per Si atom -12388.568002 kJ/mol
# Density = 1.798133 g / cm^3
# Si number density = 18.022352 Si / 1000 Ang^3
#
#
#
# Elastic Constant Matrix: (Units=GPa)
#
#
# Indices 1 2 3 4 5 6 
#
# 1 84.6564 22.2403 23.4444 0.0000 0.0000 0.0000
# 2 22.2403 84.6570 23.4446 0.0000 0.0000 0.0000
# 3 23.4444 23.4446 88.0493 0.0000 0.0000 0.0000
# 4 0.0000 0.0000 0.0000 16.7424 0.0000 0.0000
# 5 0.0000 0.0000 0.0000 0.0000 16.7423 0.0000
# 6 0.0000 0.0000 0.0000 0.0000 0.0000 31.6254
#
#
#
# Elastic Compliance Matrix: (Units=1/GPa)
#
#
# Indices 1 2 3 4 5 6 
#
# 1 0.013307 -0.002715 -0.002820 0.000000 0.000000 0.000000
# 2 -0.002715 0.013307 -0.002820 0.000000 0.000000 0.000000
# 3 -0.002820 -0.002820 0.012859 0.000000 0.000000 0.000000
# 4 0.000000 0.000000 0.000000 0.059729 0.000000 0.000000
# 5 0.000000 0.000000 0.000000 0.000000 0.059729 0.000000
# 6 0.000000 0.000000 0.000000 0.000000 0.000000 0.031620
#
#
# Mechanical properties :
#
#
# Convention : Reuss Voigt Hill
#
# Bulk Modulus (GPa) = 43.93312 43.95793 43.94552
# Shear Modulus (GPa) = 23.27227 25.57091 24.42159
#
# Velocity S-wave (km/s) = 3.59737 3.77084 3.68512
# Velocity P-wave (km/s) = 6.45637 6.58807 6.52255
#
# Compressibility (1/GPa) = 0.02276187
#
# Stress axis : x y z
#
# Youngs Moduli (GPa) = 75.15021 75.15067 77.76567
#
# Poissons Ratio (x) = 0.20402 0.21932
# Poissons Ratio (y) = 0.20402 0.21932
# Poissons Ratio (z) = 0.21194 0.21194
#
# Static dielectric constant tensor:
#      x y z
#    x 3.451480 0.000000 0.000000 
#    y 0.000000 3.451480 0.000000 
#    z 0.000000 0.000000 3.235430 
# 
# 
# High freq. dielectric constant tensor:
#      x y z
#    x 1.696930 0.000000 0.000000 
#    y 0.000000 1.696930 0.000000 
#    z 0.000000 0.000000 1.687760 
# 
# From -- ./inp_files/5835.got.cif
#   From: 2010.03.12/outbox.cif.g09.slc.cpg/sg120_3_cif.got.tgz:5835.got - 2010.04.06 16:00:44.
