data_PCOD8311320
_publ_section_title
;
Structure prediction by ZEFSAII (Michael W. Deem and Ramdas Pophale) SiO2 
 PCOD8311320
Probable space group: I -4 C 2
;
_chemical_formula_sum "Si O2"
_cell_formula_units_Z 52
_cell_length_a 16.067645
_cell_length_b 16.067645
_cell_length_c 8.448030
_cell_angle_alpha 90.000000
_cell_angle_beta 90.000000
_cell_angle_gamma 90.000000
_cell_volume 2181.021281
_symmetry_space_group_name_H-M "I -4 C 2"
_symmetry_group_IT_number 120
_symmetry_cell_setting 'tetragonal'
loop_
_space_group_symop_operation_xyz
x,y,z
y,-x,-z
-x,-y,z
-y,x,-z
y,x,1/2-z
-y,-x,1/2-z
-x,y,1/2+z
x,-y,1/2+z
1/2+x,1/2+y,1/2+z
1/2+y,1/2-x,1/2-z
1/2-x,1/2-y,1/2+z
1/2-y,1/2+x,1/2-z
1/2+y,1/2+x,-z
1/2-y,1/2-x,-z
1/2-x,1/2+y,z
1/2+x,1/2-y,z
loop_
_atom_site_type_symbol
_atom_site_label
_atom_site_fract_x
_atom_site_fract_y
_atom_site_fract_z
Si Si1 0.899632 0.422909 0.186728
Si Si2 0.061174 0.166171 0.852044
Si Si3 0.728480 0.402761 0.314229
Si Si4 0.000000 0.000000 0.000000
O O1 0.888874 0.521162 0.218260
O O2 0.819819 0.373709 0.256747
O O3 0.907415 0.407415 0.000000
O O4 0.142678 0.142678 0.750000
O O5 0.996631 0.217364 0.747577
O O6 0.092893 0.222014 0.996835
O O7 0.012524 0.082085 0.897189
O O8 0.660367 0.339634 0.250000
#
# Coordination Sequence:
#
# PCOD8311320 Si02
#       4
#    16  16  16   4
#     4  11  25  49  75  97 130 186 249 298 360 443
#     4  12  21  35  62 102 151 199 237 281 349 442
#     4  12  23  41  68 105 142 181 235 301 365 416
#     4  12  18  32  58  92 150 212 234 260 338 452
#
# _framework density 23.842043
#
# number of rings (size 3 to 8) (size 9 to 14) (size 15 to 20)
#    0.000    0.308    6.154    4.154    0.000    0.000 
#    0.000    7.692    0.000    0.000    0.000    0.000 
#    0.000    0.000    0.000    0.000    0.000    0.000 
#
# Total GULP energy -322484.507190 kJ/mol
# GULP energy per Si atom -12403.250277 kJ/mol
# Density = 2.378778 g / cm^3
# Si number density = 23.842043 Si / 1000 Ang^3
#
#
#
# Elastic Constant Matrix: (Units=GPa)
#
#
# Indices 1 2 3 4 5 6 
#
# 1 98.3768 25.9931 57.9109 0.0000 0.0000 0.0000
# 2 25.9931 98.3715 57.9105 0.0000 0.0000 0.0000
# 3 57.9109 57.9105 194.3372 0.0000 0.0000 0.0000
# 4 0.0000 0.0000 0.0000 23.7991 0.0000 0.0000
# 5 0.0000 0.0000 0.0000 0.0000 23.7982 0.0000
# 6 0.0000 0.0000 0.0000 0.0000 0.0000 2.9627
#
#
#
# Elastic Compliance Matrix: (Units=1/GPa)
#
#
# Indices 1 2 3 4 5 6 
#
# 1 0.012472 -0.001343 -0.003316 0.000000 0.000000 0.000000
# 2 -0.001343 0.012473 -0.003317 0.000000 0.000000 0.000000
# 3 -0.003316 -0.003317 0.007122 0.000000 0.000000 0.000000
# 4 0.000000 0.000000 0.000000 0.042018 0.000000 0.000000
# 5 0.000000 0.000000 0.000000 0.000000 0.042020 0.000000
# 6 0.000000 0.000000 0.000000 0.000000 0.000000 0.337528
#
#
# Mechanical properties :
#
#
# Convention : Reuss Voigt Hill
#
# Bulk Modulus (GPa) = 62.05382 74.96825 68.51104
# Shear Modulus (GPa) = 10.52726 26.73006 18.62866
#
# Velocity S-wave (km/s) = 2.10357 3.35196 2.79827
# Velocity P-wave (km/s) = 5.65540 6.81857 6.26404
#
# Compressibility (1/GPa) = 0.01611504
#
# Stress axis : x y z
#
# Youngs Moduli (GPa) = 80.17890 80.17390 140.40581
#
# Poissons Ratio (x) = 0.10770 0.46563
# Poissons Ratio (y) = 0.10770 0.46566
# Poissons Ratio (z) = 0.26590 0.26590
#
# Static dielectric constant tensor:
#      x y z
#    x 4.376880 0.000000 0.000000 
#    y 0.000000 4.376880 0.000000 
#    z 0.000000 0.000000 4.445630 
# 
# 
# High freq. dielectric constant tensor:
#      x y z
#    x 1.940990 0.000000 0.000000 
#    y 0.000000 1.940990 0.000000 
#    z 0.000000 0.000000 1.957240 
# 
# From -- ./inp_files/1002.got.cif
#   From: 2010.03.12/outbox.cif.g09.slc.cpg/sg120_1_cif.got.tgz:1002.got - 2010.04.06 16:00:44.
