data_PCOD8311539
_publ_section_title
;
Structure prediction by ZEFSAII (Michael W. Deem and Ramdas Pophale) SiO2 
 PCOD8311539
Probable space group: I -4 2 M
;
_chemical_formula_sum "Si O2"
_cell_formula_units_Z 56
_cell_length_a 12.614021
_cell_length_b 12.614021
_cell_length_c 17.480912
_cell_angle_alpha 90.000000
_cell_angle_beta 90.000000
_cell_angle_gamma 90.000000
_cell_volume 2781.449542
_symmetry_space_group_name_H-M "I -4 2 M"
_symmetry_group_IT_number 121
_symmetry_cell_setting 'tetragonal'
loop_
_space_group_symop_operation_xyz
x,y,z
y,-x,-z
-x,-y,z
-y,x,-z
x,-y,-z
-x,y,-z
-y,-x,z
y,x,z
1/2+x,1/2+y,1/2+z
1/2+y,1/2-x,1/2-z
1/2-x,1/2-y,1/2+z
1/2-y,1/2+x,1/2-z
1/2+x,1/2-y,1/2-z
1/2-x,1/2+y,1/2-z
1/2-y,1/2-x,1/2+z
1/2+y,1/2+x,1/2+z
loop_
_atom_site_type_symbol
_atom_site_label
_atom_site_fract_x
_atom_site_fract_y
_atom_site_fract_z
Si Si1 0.596608 0.774151 0.361869
Si Si2 0.330581 0.503557 0.229738
Si Si3 0.244212 0.931134 0.574943
Si Si4 0.000000 0.827514 0.000000
O O1 0.690842 0.690842 0.356421
O O2 0.527862 0.771078 0.282730
O O3 0.648649 0.886282 0.384834
O O4 0.512459 0.745768 0.426759
O O5 0.376622 0.623379 0.246015
O O6 0.422896 0.422896 0.251159
O O7 0.304318 0.492686 0.139950
O O8 0.162214 0.837787 0.551418
O O9 0.271509 0.000000 0.500000
O O10 0.897148 0.897148 0.015795
#
# Coordination Sequence:
#
# PCOD8311539 Si02
#       4
#    16  16  16   8
#     4   9  18  33  52  79 108 136 178 223 270 323
#     4   9  17  32  56  81 106 141 186 233 274 319
#     4  10  20  35  55  81 112 146 183 224 273 330
#     4   9  16  30  55  80 102 132 175 228 274 317
#
# _framework density 20.133386000000002
#
# number of rings (size 3 to 8) (size 9 to 14) (size 15 to 20)
#    0.000    2.714    0.000    1.714    0.000    4.857 
#    5.143    0.714    0.000    0.000    0.000    0.000 
#    0.000    0.000    0.000    0.000    0.000    0.000 
#
# Total GULP energy -346894.368590 kJ/mol
# GULP energy per Si atom -12389.084592 kJ/mol
# Density = 2.008756 g / cm^3
# Si number density = 20.133386 Si / 1000 Ang^3
#
#
#
# Elastic Constant Matrix: (Units=GPa)
#
#
# Indices 1 2 3 4 5 6 
#
# 1 55.5044 32.2265 48.0364 0.0000 0.0000 0.0000
# 2 32.2265 55.5038 48.0365 0.0000 0.0000 0.0000
# 3 48.0364 48.0365 142.8587 0.0000 0.0000 0.0000
# 4 0.0000 0.0000 0.0000 18.4669 0.0000 0.0000
# 5 0.0000 0.0000 0.0000 0.0000 18.4671 0.0000
# 6 0.0000 0.0000 0.0000 0.0000 0.0000 19.6806
#
#
#
# Elastic Compliance Matrix: (Units=1/GPa)
#
#
# Indices 1 2 3 4 5 6 
#
# 1 0.030501 -0.012459 -0.006067 0.000000 0.000000 0.000000
# 2 -0.012459 0.030501 -0.006067 0.000000 0.000000 0.000000
# 3 -0.006067 -0.006067 0.011080 0.000000 0.000000 0.000000
# 4 0.000000 0.000000 0.000000 0.054151 0.000000 0.000000
# 5 0.000000 0.000000 0.000000 0.000000 0.054150 0.000000
# 6 0.000000 0.000000 0.000000 0.000000 0.000000 0.050811
#
#
# Mechanical properties :
#
#
# Convention : Reuss Voigt Hill
#
# Bulk Modulus (GPa) = 43.67337 56.71841 50.19589
# Shear Modulus (GPa) = 17.36044 19.69409 18.52726
#
# Velocity S-wave (km/s) = 2.93963 3.13098 3.03681
# Velocity P-wave (km/s) = 5.76724 6.42676 6.10591
#
# Compressibility (1/GPa) = 0.02289725
#
# Stress axis : x y z
#
# Youngs Moduli (GPa) = 32.78621 32.78567 90.25455
#
# Poissons Ratio (x) = 0.40847 0.54754
# Poissons Ratio (y) = 0.40848 0.54755
# Poissons Ratio (z) = 0.19890 0.19890
#
# Static dielectric constant tensor:
#      x y z
#    x 3.546210 0.000000 0.000000 
#    y 0.000000 3.546220 0.000000 
#    z 0.000000 0.000000 3.833140 
# 
# 
# High freq. dielectric constant tensor:
#      x y z
#    x 1.757190 0.000000 0.000000 
#    y 0.000000 1.757190 0.000000 
#    z 0.000000 0.000000 1.796090 
# 
# From -- ./inp_files/3928.got.cif
#   From: 2010.03.12/outbox.cif.g09.slc.cpg/sg121_2_cif.got.tgz:3928.got - 2010.04.06 16:06:48.
