data_PCOD8311108
_publ_section_title
;
Structure prediction by ZEFSAII (Michael W. Deem and Ramdas Pophale) SiO2 
 PCOD8311108
Probable space group: I -4 C 2
;
_chemical_formula_sum "Si O2"
_cell_formula_units_Z 96
_cell_length_a 23.014726
_cell_length_b 23.014726
_cell_length_c 9.267041
_cell_angle_alpha 90.000000
_cell_angle_beta 90.000000
_cell_angle_gamma 90.000000
_cell_volume 4908.544155
_symmetry_space_group_name_H-M "I -4 C 2"
_symmetry_group_IT_number 120
_symmetry_cell_setting 'tetragonal'
loop_
_space_group_symop_operation_xyz
x,y,z
y,-x,-z
-x,-y,z
-y,x,-z
y,x,1/2-z
-y,-x,1/2-z
-x,y,1/2+z
x,-y,1/2+z
1/2+x,1/2+y,1/2+z
1/2+y,1/2-x,1/2-z
1/2-x,1/2-y,1/2+z
1/2-y,1/2+x,1/2-z
1/2+y,1/2+x,-z
1/2-y,1/2-x,-z
1/2-x,1/2+y,z
1/2+x,1/2-y,z
loop_
_atom_site_type_symbol
_atom_site_label
_atom_site_fract_x
_atom_site_fract_y
_atom_site_fract_z
Si Si1 0.698503 0.889112 0.196009
Si Si2 0.804893 0.195108 0.250000
Si Si3 0.262539 0.537944 0.391445
Si Si4 0.721053 0.221053 0.500000
Si Si5 0.934514 0.227128 0.295576
Si Si6 0.635110 0.072763 0.220695
Si Si7 0.013790 0.648182 0.003647
O O1 0.755652 0.904497 0.291458
O O2 0.717361 0.833245 0.106645
O O3 0.640635 0.879599 0.294748
O O4 0.686262 0.941818 0.089083
O O5 0.777902 0.222469 0.396995
O O6 0.873389 0.203987 0.242207
O O7 0.296444 0.485447 0.310408
O O8 0.294651 0.552346 0.541368
O O9 0.194531 0.523588 0.408560
O O10 0.934293 0.296151 0.289220
O O11 0.610663 0.049495 0.376484
O O12 0.609217 0.030719 0.094124
#
# Coordination Sequence:
#
# PCOD8311108 Si02
#       7
#    16   8  16   8  16  16  16
#     4  12  19  35  60  77 112 157 204 249 296 361
#     4  12  26  40  56  90 138 167 200 247 316 382
#     4  10  20  35  62  82 106 154 211 251 292 358
#     4  12  26  38  54  86 136 173 196 241 310 384
#     4  10  21  39  57  85 119 158 205 247 294 366
#     4  10  19  32  51  79 102 147 198 254 290 346
#     4  10  17  32  48  78  98 137 202 249 295 331
#
# _framework density 19.557734
#
# number of rings (size 3 to 8) (size 9 to 14) (size 15 to 20)
#    0.000    1.333    8.333    1.000    2.333    2.667 
#    0.000    0.000    0.000    0.500    4.333    0.000 
#    0.000    2.000    0.000    0.000    0.000    0.000 
#
# Total GULP energy -594792.781446 kJ/mol
# GULP energy per Si atom -12391.516280 kJ/mol
# Density = 1.951322 g / cm^3
# Si number density = 19.557734 Si / 1000 Ang^3
#
#
#
# Elastic Constant Matrix: (Units=GPa)
#
#
# Indices 1 2 3 4 5 6 
#
# 1 41.3180 18.2931 27.9019 0.0000 0.0000 0.0000
# 2 18.2931 41.3172 27.9020 0.0000 0.0000 0.0000
# 3 27.9019 27.9020 118.8355 0.0000 0.0000 0.0000
# 4 0.0000 0.0000 0.0000 18.5215 0.0000 0.0000
# 5 0.0000 0.0000 0.0000 0.0000 18.5210 0.0000
# 6 0.0000 0.0000 0.0000 0.0000 0.0000 15.1603
#
#
#
# Elastic Compliance Matrix: (Units=1/GPa)
#
#
# Indices 1 2 3 4 5 6 
#
# 1 0.032466 -0.010965 -0.005048 0.000000 0.000000 0.000000
# 2 -0.010965 0.032467 -0.005049 0.000000 0.000000 0.000000
# 3 -0.005048 -0.005049 0.010786 0.000000 0.000000 0.000000
# 4 0.000000 0.000000 0.000000 0.053991 0.000000 0.000000
# 5 0.000000 0.000000 0.000000 0.000000 0.053993 0.000000
# 6 0.000000 0.000000 0.000000 0.000000 0.000000 0.065962
#
#
# Mechanical properties :
#
#
# Convention : Reuss Voigt Hill
#
# Bulk Modulus (GPa) = 29.76631 38.85163 34.30897
# Shear Modulus (GPa) = 16.50234 18.93215 17.71724
#
# Velocity S-wave (km/s) = 2.90793 3.11467 3.01307
# Velocity P-wave (km/s) = 5.15049 5.73089 5.44842
#
# Compressibility (1/GPa) = 0.03359503
#
# Stress axis : x y z
#
# Youngs Moduli (GPa) = 30.80109 30.80037 92.71532
#
# Poissons Ratio (x) = 0.33773 0.46806
# Poissons Ratio (y) = 0.33774 0.46808
# Poissons Ratio (z) = 0.15549 0.15550
#
# Static dielectric constant tensor:
#      x y z
#    x 3.419650 0.000000 0.000000 
#    y 0.000000 3.419690 0.000000 
#    z 0.000000 0.000000 4.364170 
# 
# 
# High freq. dielectric constant tensor:
#      x y z
#    x 1.716740 0.000000 0.000000 
#    y 0.000000 1.716740 0.000000 
#    z 0.000000 0.000000 1.792850 
# 
# From -- ./inp_files/1586.got.cif
#   From: 2010.03.12/outbox.cif.g09.slc.cpg/sg120_1_cif.got.tgz:1586.got - 2010.04.06 16:00:44.
