data_PCOD8311836
_publ_section_title
;
Structure prediction by ZEFSAII (Michael W. Deem and Ramdas Pophale) SiO2 
 PCOD8311836
Probable space group: I -4 2 D
;
_chemical_formula_sum "Si O2"
_cell_formula_units_Z 96
_cell_length_a 16.225962
_cell_length_b 16.225962
_cell_length_c 17.205484
_cell_angle_alpha 90.000000
_cell_angle_beta 90.000000
_cell_angle_gamma 90.000000
_cell_volume 4529.891534
_symmetry_space_group_name_H-M "I -4 2 D"
_symmetry_group_IT_number 122
_symmetry_cell_setting 'tetragonal'
loop_
_space_group_symop_operation_xyz
x,y,z
y,-x,-z
-x,-y,z
-y,x,-z
x,1/2-y,1/4-z
-x,1/2+y,1/4-z
-y,1/2-x,1/4+z
y,1/2+x,1/4+z
1/2+x,1/2+y,1/2+z
1/2+y,1/2-x,1/2-z
1/2-x,1/2-y,1/2+z
1/2-y,1/2+x,1/2-z
1/2+x,-y,3/4-z
1/2-x,y,3/4-z
1/2-y,-x,3/4+z
1/2+y,x,3/4+z
loop_
_atom_site_type_symbol
_atom_site_label
_atom_site_fract_x
_atom_site_fract_y
_atom_site_fract_z
Si Si1 0.463209 0.586570 0.294404
Si Si2 0.679205 0.655084 0.811207
Si Si3 0.303731 0.390813 0.462972
Si Si4 0.203548 0.260870 0.536569
Si Si5 0.429381 0.326952 0.581921
Si Si6 0.706304 0.103235 0.598584
O O1 0.500000 0.500000 0.263429
O O2 0.427450 0.635623 0.219936
O O3 0.395411 0.555073 0.353991
O O4 0.522014 0.650132 0.342053
O O5 0.750000 0.635185 0.875000
O O6 0.724477 0.697881 0.738050
O O7 0.605534 0.715871 0.841407
O O8 0.232237 0.354271 0.517885
O O9 0.387633 0.368142 0.507991
O O10 0.288852 0.486660 0.452141
O O11 0.318605 0.350569 0.376577
O O12 0.178193 0.250000 0.625000
O O13 0.121178 0.251562 0.485105
O O14 0.382017 0.250000 0.625000
#
# Coordination Sequence:
#
# PCOD8311836 Si02
#       6
#    16  16  16  16  16  16
#     4  12  24  40  63 102 136 173 223 283 343 399
#     4   9  21  43  69  88 128 182 221 274 336 408
#     4  11  21  35  57  84 128 168 207 259 323 402
#     4  10  20  39  63  92 117 167 230 270 317 401
#     4  12  24  37  58  89 131 176 211 257 334 413
#     4  10  21  41  62  89 127 166 218 274 336 391
#
# _framework density 21.192561000000001
#
# number of rings (size 3 to 8) (size 9 to 14) (size 15 to 20)
#    0.000    1.333    1.667    7.000    0.000    0.667 
#    3.000    0.000    0.000    0.000    0.000    0.000 
#    0.000    0.000    0.000    0.000    0.000    0.000 
#
# Total GULP energy -594723.296950 kJ/mol
# GULP energy per Si atom -12390.068686 kJ/mol
# Density = 2.114433 g / cm^3
# Si number density = 21.192561 Si / 1000 Ang^3
#
#
#
# Elastic Constant Matrix: (Units=GPa)
#
#
# Indices 1 2 3 4 5 6 
#
# 1 76.5831 23.2125 15.5583 0.0000 0.0000 0.0000
# 2 23.2125 76.5831 15.5583 0.0000 0.0000 0.0000
# 3 15.5583 15.5583 101.6774 0.0000 0.0000 0.0000
# 4 0.0000 0.0000 0.0000 29.3811 0.0000 0.0000
# 5 0.0000 0.0000 0.0000 0.0000 29.3811 0.0000
# 6 0.0000 0.0000 0.0000 0.0000 0.0000 31.7022
#
#
#
# Elastic Compliance Matrix: (Units=1/GPa)
#
#
# Indices 1 2 3 4 5 6 
#
# 1 0.014630 -0.004107 -0.001610 0.000000 0.000000 0.000000
# 2 -0.004107 0.014630 -0.001610 0.000000 0.000000 0.000000
# 3 -0.001610 -0.001610 0.010328 0.000000 0.000000 0.000000
# 4 0.000000 0.000000 0.000000 0.034036 0.000000 0.000000
# 5 0.000000 0.000000 0.000000 0.000000 0.034036 0.000000
# 6 0.000000 0.000000 0.000000 0.000000 0.000000 0.031544
#
#
# Mechanical properties :
#
#
# Convention : Reuss Voigt Hill
#
# Bulk Modulus (GPa) = 40.10855 40.38910 40.24883
# Shear Modulus (GPa) = 30.83235 31.46052 31.14643
#
# Velocity S-wave (km/s) = 3.81841 3.85711 3.83781
# Velocity P-wave (km/s) = 6.19735 6.23987 6.21865
#
# Compressibility (1/GPa) = 0.02493234
#
# Stress axis : x y z
#
# Youngs Moduli (GPa) = 68.35408 68.35408 96.82630
#
# Poissons Ratio (x) = 0.28074 0.15590
# Poissons Ratio (y) = 0.28074 0.15590
# Poissons Ratio (z) = 0.11006 0.11006
#
# Static dielectric constant tensor:
#      x y z
#    x 3.730410 0.000000 0.000000 
#    y 0.000000 3.730410 0.000000 
#    z 0.000000 0.000000 4.071620 
# 
# 
# High freq. dielectric constant tensor:
#      x y z
#    x 1.817610 0.000000 0.000000 
#    y 0.000000 1.817610 0.000000 
#    z 0.000000 0.000000 1.840510 
# 
# From -- ./inp_files/6310.got.cif
#   From: 2010.03.12/outbox.cif.g09.slc.cpg/sg122_4_cif.got.tgz:6310.got - 2010.04.06 16:17:16.
