data_PCOD8311405
_publ_section_title
;
Structure prediction by ZEFSAII (Michael W. Deem and Ramdas Pophale) SiO2 
 PCOD8311405
Probable space group: I -4 2 M
;
_chemical_formula_sum "Si O2"
_cell_formula_units_Z 96
_cell_length_a 14.120430
_cell_length_b 14.120430
_cell_length_c 26.416222
_cell_angle_alpha 90.000000
_cell_angle_beta 90.000000
_cell_angle_gamma 90.000000
_cell_volume 5267.039194
_symmetry_space_group_name_H-M "I -4 2 M"
_symmetry_group_IT_number 121
_symmetry_cell_setting 'tetragonal'
loop_
_space_group_symop_operation_xyz
x,y,z
y,-x,-z
-x,-y,z
-y,x,-z
x,-y,-z
-x,y,-z
-y,-x,z
y,x,z
1/2+x,1/2+y,1/2+z
1/2+y,1/2-x,1/2-z
1/2-x,1/2-y,1/2+z
1/2-y,1/2+x,1/2-z
1/2+x,1/2-y,1/2-z
1/2-x,1/2+y,1/2-z
1/2-y,1/2-x,1/2+z
1/2+y,1/2+x,1/2+z
loop_
_atom_site_type_symbol
_atom_site_label
_atom_site_fract_x
_atom_site_fract_y
_atom_site_fract_z
Si Si1 0.250566 0.250566 0.476627
Si Si2 0.395500 0.895217 0.480289
Si Si3 0.626019 0.373982 0.643549
Si Si4 0.219709 0.518114 0.699931
Si Si5 0.092999 0.092999 0.968999
Si Si6 0.284471 0.715530 0.131477
Si Si7 0.429085 0.184486 0.802288
Si Si8 0.575396 0.919759 0.132876
O O1 0.167031 0.306084 0.503859
O O2 0.328873 0.328873 0.467667
O O3 0.201152 0.201152 0.428086
O O4 0.500000 0.858639 0.500000
O O5 0.379871 0.893002 0.420527
O O6 0.379405 0.000000 0.500000
O O7 0.677968 0.452230 0.678293
O O8 0.578657 0.421344 0.592521
O O9 0.704506 0.295495 0.632330
O O10 0.237665 0.458131 0.750813
O O11 0.144762 0.601724 0.712064
O O12 0.172564 0.454171 0.657211
O O13 0.000000 0.127851 0.000000
O O14 0.254743 0.618891 0.158147
O O15 0.525973 0.152280 0.828708
O O16 0.500000 0.000000 0.120190
#
# Coordination Sequence:
#
# PCOD8311405 Si02
#       8
#     8  16   8  16   8   8  16  16
#     4  11  23  36  59  85 117 153 195 242 303 353
#     4  11  22  37  57  88 119 152 196 251 301 346
#     4   9  21  34  52  77 115 151 184 236 288 342
#     4  10  19  32  54  83 112 145 188 237 291 341
#     4  10  22  39  56  77 114 165 206 229 272 363
#     4   9  20  33  53  78 112 145 183 233 291 349
#     4  10  18  34  54  83 109 148 189 232 292 347
#     4  10  19  31  55  82 112 146 190 240 289 344
#
# _framework density 18.226559999999999
#
# number of rings (size 3 to 8) (size 9 to 14) (size 15 to 20)
#    0.000    1.917    3.333    1.500    9.333    0.000 
#    0.000    3.333    0.000    0.250    0.000    1.167 
#    0.000    0.000    0.000    0.000    0.000    0.000 
#
# Total GULP energy -594672.186879 kJ/mol
# GULP energy per Si atom -12389.003893 kJ/mol
# Density = 1.818508 g / cm^3
# Si number density = 18.226560 Si / 1000 Ang^3
#
#
#
# Elastic Constant Matrix: (Units=GPa)
#
#
# Indices 1 2 3 4 5 6 
#
# 1 108.8542 14.5444 56.8079 0.0000 0.0000 0.0000
# 2 14.5444 108.8572 56.7955 0.0000 0.0000 0.0000
# 3 56.8079 56.7955 173.9289 0.0000 0.0000 0.0000
# 4 0.0000 0.0000 0.0000 7.2230 0.0000 0.0000
# 5 0.0000 0.0000 0.0000 0.0000 7.2220 0.0000
# 6 0.0000 0.0000 0.0000 0.0000 0.0000 27.8617
#
#
#
# Elastic Compliance Matrix: (Units=1/GPa)
#
#
# Indices 1 2 3 4 5 6 
#
# 1 0.011096 0.000492 -0.003785 0.000000 0.000000 0.000000
# 2 0.000492 0.011095 -0.003784 0.000000 0.000000 0.000000
# 3 -0.003785 -0.003784 0.008221 0.000000 0.000000 0.000000
# 4 0.000000 0.000000 0.000000 0.138446 0.000000 0.000000
# 5 0.000000 0.000000 0.000000 0.000000 0.138466 0.000000
# 6 0.000000 0.000000 0.000000 0.000000 0.000000 0.035892
#
#
# Mechanical properties :
#
#
# Convention : Reuss Voigt Hill
#
# Bulk Modulus (GPa) = 61.50340 71.99289 66.74814
# Shear Modulus (GPa) = 13.78215 26.02751 19.90483
#
# Velocity S-wave (km/s) = 2.75281 3.78299 3.30825
# Velocity P-wave (km/s) = 6.62730 7.65937 7.16195
#
# Compressibility (1/GPa) = 0.01625926
#
# Stress axis : x y z
#
# Youngs Moduli (GPa) = 90.12210 90.13326 121.63662
#
# Poissons Ratio (x) = -0.04436 0.46038
# Poissons Ratio (y) = -0.04436 0.46023
# Poissons Ratio (z) = 0.34110 0.34103
#
# Static dielectric constant tensor:
#      x y z
#    x 3.261350 0.000000 0.000000 
#    y 0.000000 3.261370 0.000000 
#    z 0.000000 0.000000 3.700050 
# 
# 
# High freq. dielectric constant tensor:
#      x y z
#    x 1.681940 0.000000 0.000000 
#    y 0.000000 1.681940 0.000000 
#    z 0.000000 0.000000 1.726330 
# 
# From -- ./inp_files/7163.got.cif
#   From: 2010.03.12/outbox.cif.g09.slc.cpg/sg121_4_cif.got.tgz:7163.got - 2010.04.06 16:06:48.
