data_PCOD8311523
_publ_section_title
;
Structure prediction by ZEFSAII (Michael W. Deem and Ramdas Pophale) SiO2 
 PCOD8311523
Probable space group: I -4 2 M
;
_chemical_formula_sum "Si O2"
_cell_formula_units_Z 96
_cell_length_a 17.371544
_cell_length_b 17.371544
_cell_length_c 17.029123
_cell_angle_alpha 90.000000
_cell_angle_beta 90.000000
_cell_angle_gamma 90.000000
_cell_volume 5138.887660
_symmetry_space_group_name_H-M "I -4 2 M"
_symmetry_group_IT_number 121
_symmetry_cell_setting 'tetragonal'
loop_
_space_group_symop_operation_xyz
x,y,z
y,-x,-z
-x,-y,z
-y,x,-z
x,-y,-z
-x,y,-z
-y,-x,z
y,x,z
1/2+x,1/2+y,1/2+z
1/2+y,1/2-x,1/2-z
1/2-x,1/2-y,1/2+z
1/2-y,1/2+x,1/2-z
1/2+x,1/2-y,1/2-z
1/2-x,1/2+y,1/2-z
1/2-y,1/2-x,1/2+z
1/2+y,1/2+x,1/2+z
loop_
_atom_site_type_symbol
_atom_site_label
_atom_site_fract_x
_atom_site_fract_y
_atom_site_fract_z
Si Si1 0.684376 0.879580 0.641038
Si Si2 0.969929 0.584760 0.080343
Si Si3 0.170024 0.295963 0.371653
Si Si4 0.456582 0.198036 0.308458
Si Si5 0.887611 0.235357 0.788499
Si Si6 0.909685 0.213483 0.494259
O O1 0.622136 0.917576 0.582702
O O2 0.689114 0.928419 0.720223
O O3 0.663057 0.790342 0.655223
O O4 0.764684 0.886174 0.594801
O O5 0.000000 0.500000 0.080546
O O6 0.997415 0.623672 0.161382
O O7 0.000000 0.626348 0.000000
O O8 0.246012 0.246012 0.375582
O O9 0.204293 0.382759 0.365838
O O10 0.117091 0.272046 0.298155
O O11 0.117003 0.282896 0.447982
O O12 0.521239 0.266996 0.312906
O O13 0.850479 0.149522 0.792063
O O14 0.865048 0.134953 0.517421
O O15 0.000000 0.197434 0.500000
#
# Coordination Sequence:
#
# PCOD8311523 Si02
#       6
#    16  16  16  16  16  16
#     4  10  21  32  52  76 105 143 185 224 272 334
#     4  10  22  31  47  77 112 146 170 221 271 333
#     4   9  19  35  54  76 105 143 185 227 279 338
#     4  10  20  33  53  78 106 144 182 229 274 329
#     4   9  18  34  52  74 103 140 183 224 274 336
#     4  11  23  37  57  79 107 146 189 234 278 329
#
# _framework density 18.681086000000001
#
# number of rings (size 3 to 8) (size 9 to 14) (size 15 to 20)
#    0.000    2.167    0.000    2.500   11.667    0.833 
#    0.000    0.000    0.000    0.500    0.000    0.000 
#    0.000    0.000    0.000    8.000    0.000    0.000 
#
# Total GULP energy -594815.242689 kJ/mol
# GULP energy per Si atom -12391.984223 kJ/mol
# Density = 1.863857 g / cm^3
# Si number density = 18.681086 Si / 1000 Ang^3
#
#
#
# Elastic Constant Matrix: (Units=GPa)
#
#
# Indices 1 2 3 4 5 6 
#
# 1 103.7786 47.0810 33.3934 0.0000 0.0000 0.0000
# 2 47.0810 103.7793 33.3937 0.0000 0.0000 0.0000
# 3 33.3934 33.3937 90.7287 0.0000 0.0000 0.0000
# 4 0.0000 0.0000 0.0000 26.2396 0.0000 0.0000
# 5 0.0000 0.0000 0.0000 0.0000 26.2399 0.0000
# 6 0.0000 0.0000 0.0000 0.0000 0.0000 20.3383
#
#
#
# Elastic Compliance Matrix: (Units=1/GPa)
#
#
# Indices 1 2 3 4 5 6 
#
# 1 0.012778 -0.004859 -0.002915 0.000000 0.000000 0.000000
# 2 -0.004859 0.012778 -0.002915 0.000000 0.000000 0.000000
# 3 -0.002915 -0.002915 0.013167 0.000000 0.000000 0.000000
# 4 0.000000 0.000000 0.000000 0.038110 0.000000 0.000000
# 5 0.000000 0.000000 0.000000 0.000000 0.038110 0.000000
# 6 0.000000 0.000000 0.000000 0.000000 0.000000 0.049168
#
#
# Mechanical properties :
#
#
# Convention : Reuss Voigt Hill
#
# Bulk Modulus (GPa) = 57.64764 58.44700 58.04732
# Shear Modulus (GPa) = 26.14085 26.85813 26.49949
#
# Velocity S-wave (km/s) = 3.74481 3.79584 3.77041
# Velocity P-wave (km/s) = 7.04443 7.11097 7.07777
#
# Compressibility (1/GPa) = 0.01734676
#
# Stress axis : x y z
#
# Youngs Moduli (GPa) = 78.25818 78.25860 75.94508
#
# Poissons Ratio (x) = 0.38027 0.22135
# Poissons Ratio (y) = 0.38027 0.22136
# Poissons Ratio (z) = 0.22810 0.22810
#
# Static dielectric constant tensor:
#      x y z
#    x 3.372580 0.000000 0.000000 
#    y 0.000000 3.372570 0.000000 
#    z 0.000000 0.000000 3.990310 
# 
# 
# High freq. dielectric constant tensor:
#      x y z
#    x 1.708130 0.000000 0.000000 
#    y 0.000000 1.708130 0.000000 
#    z 0.000000 0.000000 1.733140 
# 
# From -- ./inp_files/5414.got.cif
#   From: 2010.03.12/outbox.cif.g09.slc.cpg/sg121_3_cif.got.tgz:5414.got - 2010.04.06 16:06:48.
