data_PCOD8311930
_publ_section_title
;
Structure prediction by ZEFSAII (Michael W. Deem and Ramdas Pophale) SiO2 
 PCOD8311930
Probable space group: I -4 2 D
;
_chemical_formula_sum "Si O2"
_cell_formula_units_Z 96
_cell_length_a 14.857451
_cell_length_b 14.857451
_cell_length_c 19.548413
_cell_angle_alpha 90.000000
_cell_angle_beta 90.000000
_cell_angle_gamma 90.000000
_cell_volume 4315.191951
_symmetry_space_group_name_H-M "I -4 2 D"
_symmetry_group_IT_number 122
_symmetry_cell_setting 'tetragonal'
loop_
_space_group_symop_operation_xyz
x,y,z
y,-x,-z
-x,-y,z
-y,x,-z
x,1/2-y,1/4-z
-x,1/2+y,1/4-z
-y,1/2-x,1/4+z
y,1/2+x,1/4+z
1/2+x,1/2+y,1/2+z
1/2+y,1/2-x,1/2-z
1/2-x,1/2-y,1/2+z
1/2-y,1/2+x,1/2-z
1/2+x,-y,3/4-z
1/2-x,y,3/4-z
1/2-y,-x,3/4+z
1/2+y,x,3/4+z
loop_
_atom_site_type_symbol
_atom_site_label
_atom_site_fract_x
_atom_site_fract_y
_atom_site_fract_z
Si Si1 0.000000 0.000000 0.722182
Si Si2 0.955580 0.155732 0.818064
Si Si3 0.603549 0.718254 0.984428
Si Si4 0.193126 0.268970 0.992927
Si Si5 0.895191 0.616413 0.888191
Si Si6 0.250000 0.523330 0.875000
Si Si7 0.909481 0.907993 0.032917
O O1 0.007087 0.085796 0.769778
O O2 0.911635 0.009300 0.672497
O O3 0.855825 0.184076 0.792805
O O4 0.949089 0.113709 0.893231
O O5 0.026567 0.237071 0.813774
O O6 0.606036 0.621967 0.944550
O O7 0.703571 0.759571 0.979726
O O8 0.582690 0.707743 0.064287
O O9 0.146835 0.182497 0.025353
O O10 0.143806 0.291852 0.921317
O O11 0.827566 0.535786 0.909733
O O12 0.016164 0.885337 0.024624
#
# Coordination Sequence:
#
# PCOD8311930 Si02
#       7
#     8  16  16  16  16   8  16
#     4  10  22  42  66  94 142 178 228 294 360 410
#     4  11  24  44  67 107 144 183 241 307 345 448
#     4  12  24  42  76  97 144 190 228 295 372 419
#     4  11  24  46  73 106 145 189 243 298 366 435
#     4  11  23  46  66 102 144 186 238 302 350 436
#     4  12  24  46  64 110 140 182 246 294 348 456
#     4  11  25  46  70 104 141 189 246 298 358 432
#
# _framework density 22.246981999999999
#
# number of rings (size 3 to 8) (size 9 to 14) (size 15 to 20)
#    0.000    0.833    5.000    2.500    2.333    6.667 
#    0.000    5.000    0.000    0.000    0.000    0.000 
#    0.000    0.000    0.000    0.000    0.000    0.000 
#
# Total GULP energy -594742.195561 kJ/mol
# GULP energy per Si atom -12390.462408 kJ/mol
# Density = 2.219635 g / cm^3
# Si number density = 22.246982 Si / 1000 Ang^3
#
#
#
# Elastic Constant Matrix: (Units=GPa)
#
#
# Indices 1 2 3 4 5 6 
#
# 1 112.8308 51.1315 41.1150 0.0000 0.0000 0.0000
# 2 51.1315 112.8308 41.1150 0.0000 0.0000 0.0000
# 3 41.1150 41.1150 156.3551 0.0000 0.0000 0.0000
# 4 0.0000 0.0000 0.0000 27.1083 0.0000 0.0000
# 5 0.0000 0.0000 0.0000 0.0000 27.1083 0.0000
# 6 0.0000 0.0000 0.0000 0.0000 0.0000 33.8920
#
#
#
# Elastic Compliance Matrix: (Units=1/GPa)
#
#
# Indices 1 2 3 4 5 6 
#
# 1 0.011617 -0.004591 -0.001847 0.000000 0.000000 0.000000
# 2 -0.004591 0.011617 -0.001847 0.000000 0.000000 0.000000
# 3 -0.001847 -0.001847 0.007367 0.000000 0.000000 0.000000
# 4 0.000000 0.000000 0.000000 0.036889 0.000000 0.000000
# 5 0.000000 0.000000 0.000000 0.000000 0.036889 0.000000
# 6 0.000000 0.000000 0.000000 0.000000 0.000000 0.029505
#
#
# Mechanical properties :
#
#
# Convention : Reuss Voigt Hill
#
# Bulk Modulus (GPa) = 71.28303 72.08218 71.68261
# Shear Modulus (GPa) = 32.23061 34.19873 33.21467
#
# Velocity S-wave (km/s) = 3.81039 3.92501 3.86812
# Velocity P-wave (km/s) = 7.17426 7.28094 7.22780
#
# Compressibility (1/GPa) = 0.01402858
#
# Stress axis : x y z
#
# Youngs Moduli (GPa) = 86.08403 86.08403 135.73518
#
# Poissons Ratio (x) = 0.39522 0.25076
# Poissons Ratio (y) = 0.39522 0.25076
# Poissons Ratio (z) = 0.15903 0.15903
#
# Static dielectric constant tensor:
#      x y z
#    x 4.144810 0.000000 0.000000 
#    y 0.000000 4.144810 0.000000 
#    z 0.000000 0.000000 4.139490 
# 
# 
# High freq. dielectric constant tensor:
#      x y z
#    x 1.870390 0.000000 0.000000 
#    y 0.000000 1.870390 0.000000 
#    z 0.000000 0.000000 1.894240 
# 
# From -- ./inp_files/7335.got.cif
#   From: 2010.03.12/outbox.cif.g09.slc.cpg/sg122_4_cif.got.tgz:7335.got - 2010.04.06 16:17:16.
