data_PCOD8311431
_publ_section_title
;
Structure prediction by ZEFSAII (Michael W. Deem and Ramdas Pophale) SiO2 
 PCOD8311431
Probable space group: I -4 2 M
;
_chemical_formula_sum "Si O2"
_cell_formula_units_Z 36
_cell_length_a 14.197386
_cell_length_b 14.197386
_cell_length_c 9.811349
_cell_angle_alpha 90.000000
_cell_angle_beta 90.000000
_cell_angle_gamma 90.000000
_cell_volume 1977.632108
_symmetry_space_group_name_H-M "I -4 2 M"
_symmetry_group_IT_number 121
_symmetry_cell_setting 'tetragonal'
loop_
_space_group_symop_operation_xyz
x,y,z
y,-x,-z
-x,-y,z
-y,x,-z
x,-y,-z
-x,y,-z
-y,-x,z
y,x,z
1/2+x,1/2+y,1/2+z
1/2+y,1/2-x,1/2-z
1/2-x,1/2-y,1/2+z
1/2-y,1/2+x,1/2-z
1/2+x,1/2-y,1/2-z
1/2-x,1/2+y,1/2-z
1/2-y,1/2-x,1/2+z
1/2+y,1/2+x,1/2+z
loop_
_atom_site_type_symbol
_atom_site_label
_atom_site_fract_x
_atom_site_fract_y
_atom_site_fract_z
Si Si1 0.171843 0.587635 0.141004
Si Si2 0.000000 0.500000 0.000000
Si Si3 0.762591 0.383872 0.850725
O O1 0.064606 0.562103 0.099755
O O2 0.232176 0.494825 0.182716
O O3 0.172574 0.657808 0.267221
O O4 0.219501 0.635563 0.010070
O O5 0.660275 0.339726 0.813582
#
# Coordination Sequence:
#
# PCOD8311431 Si02
#       3
#    16   4  16
#     4  10  19  30  50  74  98 126 160 202 249 288
#     4   8  16  30  48  74  96 118 156 214 260 286
#     4  10  19  32  49  72 102 130 160 198 241 290
#
# _framework density 18.203588
#
# number of rings (size 3 to 8) (size 9 to 14) (size 15 to 20)
#    0.000    2.667    0.000    6.667    0.000    1.778 
#    0.000    0.000    0.000   22.667    0.000    0.000 
#    0.000   49.778    0.000    0.000    0.000    0.000 
#
# Total GULP energy -223080.669229 kJ/mol
# GULP energy per Si atom -12393.370513 kJ/mol
# Density = 1.816216 g / cm^3
# Si number density = 18.203588 Si / 1000 Ang^3
#
#
#
# Elastic Constant Matrix: (Units=GPa)
#
#
# Indices 1 2 3 4 5 6 
#
# 1 79.8031 48.9872 36.2011 0.0000 0.0000 0.0000
# 2 48.9872 79.7973 36.2008 0.0000 0.0000 0.0000
# 3 36.2011 36.2008 81.6293 0.0000 0.0000 0.0000
# 4 0.0000 0.0000 0.0000 11.8603 0.0000 0.0000
# 5 0.0000 0.0000 0.0000 0.0000 11.8609 0.0000
# 6 0.0000 0.0000 0.0000 0.0000 0.0000 27.5540
#
#
#
# Elastic Compliance Matrix: (Units=1/GPa)
#
#
# Indices 1 2 3 4 5 6 
#
# 1 0.021398 -0.011055 -0.004587 0.000000 0.000000 0.000000
# 2 -0.011055 0.021400 -0.004587 0.000000 0.000000 0.000000
# 3 -0.004587 -0.004587 0.016319 0.000000 0.000000 0.000000
# 4 0.000000 0.000000 0.000000 0.084315 0.000000 0.000000
# 5 0.000000 0.000000 0.000000 0.000000 0.084311 0.000000
# 6 0.000000 0.000000 0.000000 0.000000 0.000000 0.036292
#
#
# Mechanical properties :
#
#
# Convention : Reuss Voigt Hill
#
# Bulk Modulus (GPa) = 53.59744 53.77864 53.68804
# Shear Modulus (GPa) = 16.09206 18.24442 17.16824
#
# Velocity S-wave (km/s) = 2.97645 3.16926 3.07436
# Velocity P-wave (km/s) = 6.42803 6.55738 6.49303
#
# Compressibility (1/GPa) = 0.01865761
#
# Stress axis : x y z
#
# Youngs Moduli (GPa) = 46.73385 46.72981 61.27784
#
# Poissons Ratio (x) = 0.51661 0.28107
# Poissons Ratio (y) = 0.51665 0.28111
# Poissons Ratio (z) = 0.21436 0.21437
#
# Static dielectric constant tensor:
#      x y z
#    x 3.213460 0.000000 0.000000 
#    y 0.000000 3.213470 0.000000 
#    z 0.000000 0.000000 3.441300 
# 
# 
# High freq. dielectric constant tensor:
#      x y z
#    x 1.683360 0.000000 0.000000 
#    y 0.000000 1.683360 0.000000 
#    z 0.000000 0.000000 1.714900 
# 
# From -- ./inp_files/911.got.cif
#   From: 2010.03.12/outbox.cif.g09.slc.cpg/sg121_1_cif.got.tgz:911.got - 2010.04.06 16:06:48.
