data_PCOD8311286
_publ_section_title
;
Structure prediction by ZEFSAII (Michael W. Deem and Ramdas Pophale) SiO2 
 PCOD8311286
Probable space group: I -4 C 2
;
_chemical_formula_sum "Si O2"
_cell_formula_units_Z 112
_cell_length_a 15.433913
_cell_length_b 15.433913
_cell_length_c 23.268816
_cell_angle_alpha 90.000000
_cell_angle_beta 90.000000
_cell_angle_gamma 90.000000
_cell_volume 5542.763917
_symmetry_space_group_name_H-M "I -4 C 2"
_symmetry_group_IT_number 120
_symmetry_cell_setting 'tetragonal'
loop_
_space_group_symop_operation_xyz
x,y,z
y,-x,-z
-x,-y,z
-y,x,-z
y,x,1/2-z
-y,-x,1/2-z
-x,y,1/2+z
x,-y,1/2+z
1/2+x,1/2+y,1/2+z
1/2+y,1/2-x,1/2-z
1/2-x,1/2-y,1/2+z
1/2-y,1/2+x,1/2-z
1/2+y,1/2+x,-z
1/2-y,1/2-x,-z
1/2-x,1/2+y,z
1/2+x,1/2-y,z
loop_
_atom_site_type_symbol
_atom_site_label
_atom_site_fract_x
_atom_site_fract_y
_atom_site_fract_z
Si Si1 0.302276 0.657651 0.690010
Si Si2 0.476263 0.836971 0.816463
Si Si3 0.103986 0.741123 0.099658
Si Si4 0.802274 0.842349 0.309989
Si Si5 0.836973 0.476263 0.316464
Si Si6 0.856636 0.966890 0.000000
Si Si7 0.396014 0.758876 0.400341
O O1 0.353355 0.646646 0.750000
O O2 0.255377 0.568779 0.675935
O O3 0.367037 0.678666 0.638891
O O4 0.233876 0.733876 0.696920
O O5 0.499999 0.852985 0.750000
O O6 0.416394 0.916393 0.836904
O O7 0.555586 0.830145 0.860425
O O8 0.045708 0.789582 0.052572
O O9 0.186617 0.686617 0.073812
O O10 0.055585 0.669854 0.139573
O O11 0.853354 0.853354 0.250000
O O12 0.755376 0.931221 0.324066
O O13 0.867035 0.821336 0.361109
O O14 0.789583 0.954293 0.052573
O O15 0.935472 0.896417 0.000000
#
# Coordination Sequence:
#
# PCOD8311286 Si02
#       7
#    16  16  16  16  16  16  16
#     4   9  17  32  53  82 118 160 203 236 276 342
#     4  11  21  34  56  89 127 162 197 243 303 363
#     4  11  22  39  63  90 123 161 201 244 300 369
#     4   9  17  32  53  82 118 160 203 236 276 342
#     4  11  21  34  56  89 127 162 197 243 303 363
#     4  11  25  46  68  87 113 153 208 267 312 351
#     4  11  22  39  63  90 123 161 201 244 300 369
#
# _framework density 20.206526
#
# number of rings (size 3 to 8) (size 9 to 14) (size 15 to 20)
#    0.000    1.571    2.857    3.000    0.000    2.000 
#    0.000    2.143    0.000    1.714    0.000    0.000 
#    0.000    0.000    0.000    0.000    0.000    0.000 
#
# Total GULP energy -693858.679602 kJ/mol
# GULP energy per Si atom -12390.333564 kJ/mol
# Density = 2.016053 g / cm^3
# Si number density = 20.206526 Si / 1000 Ang^3
#
#
#
# Elastic Constant Matrix: (Units=GPa)
#
#
# Indices 1 2 3 4 5 6 
#
# 1 73.3487 40.6347 30.4695 0.0000 0.0000 0.0000
# 2 40.6347 73.3495 30.4688 0.0000 0.0000 0.0000
# 3 30.4695 30.4688 48.9969 0.0000 0.0000 0.0000
# 4 0.0000 0.0000 0.0000 19.6887 0.0000 0.0000
# 5 0.0000 0.0000 0.0000 0.0000 19.6887 0.0000
# 6 0.0000 0.0000 0.0000 0.0000 0.0000 38.0972
#
#
#
# Elastic Compliance Matrix: (Units=1/GPa)
#
#
# Indices 1 2 3 4 5 6 
#
# 1 0.021855 -0.008713 -0.008173 0.000000 0.000000 0.000000
# 2 -0.008713 0.021855 -0.008172 0.000000 0.000000 0.000000
# 3 -0.008173 -0.008172 0.030574 0.000000 0.000000 0.000000
# 4 0.000000 0.000000 0.000000 0.050791 0.000000 0.000000
# 5 0.000000 0.000000 0.000000 0.000000 0.050790 0.000000
# 6 0.000000 0.000000 0.000000 0.000000 0.000000 0.026249
#
#
# Mechanical properties :
#
#
# Convention : Reuss Voigt Hill
#
# Bulk Modulus (GPa) = 41.37707 44.31568 42.84638
# Shear Modulus (GPa) = 19.20963 21.76973 20.48968
#
# Velocity S-wave (km/s) = 3.08663 3.28588 3.18781
# Velocity P-wave (km/s) = 5.76408 6.03117 5.89913
#
# Compressibility (1/GPa) = 0.02416797
#
# Stress axis : x y z
#
# Youngs Moduli (GPa) = 45.75533 45.75661 32.70746
#
# Poissons Ratio (x) = 0.39866 0.26732
# Poissons Ratio (y) = 0.39865 0.26730
# Poissons Ratio (z) = 0.37397 0.37394
#
# Static dielectric constant tensor:
#      x y z
#    x 3.447720 0.000000 0.000000 
#    y 0.000000 3.447720 0.000000 
#    z 0.000000 0.000000 3.623440 
# 
# 
# High freq. dielectric constant tensor:
#      x y z
#    x 1.787400 0.000000 0.000000 
#    y 0.000000 1.787400 0.000000 
#    z 0.000000 0.000000 1.778060 
# 
# From -- ./inp_files/5912.got.cif
#   From: 2010.03.12/outbox.cif.g09.slc.cpg/sg120_3_cif.got.tgz:5912.got - 2010.04.06 16:00:44.
