data_PCOD8311969
_publ_section_title
;
Structure prediction by ZEFSAII (Michael W. Deem and Ramdas Pophale) SiO2 
 PCOD8311969
Probable space group: I -4 2 D
;
_chemical_formula_sum "Si O2"
_cell_formula_units_Z 88
_cell_length_a 16.669312
_cell_length_b 16.669312
_cell_length_c 15.107172
_cell_angle_alpha 90.000000
_cell_angle_beta 90.000000
_cell_angle_gamma 90.000000
_cell_volume 4197.768889
_symmetry_space_group_name_H-M "I -4 2 D"
_symmetry_group_IT_number 122
_symmetry_cell_setting 'tetragonal'
loop_
_space_group_symop_operation_xyz
x,y,z
y,-x,-z
-x,-y,z
-y,x,-z
x,1/2-y,1/4-z
-x,1/2+y,1/4-z
-y,1/2-x,1/4+z
y,1/2+x,1/4+z
1/2+x,1/2+y,1/2+z
1/2+y,1/2-x,1/2-z
1/2-x,1/2-y,1/2+z
1/2-y,1/2+x,1/2-z
1/2+x,-y,3/4-z
1/2-x,y,3/4-z
1/2-y,-x,3/4+z
1/2+y,x,3/4+z
loop_
_atom_site_type_symbol
_atom_site_label
_atom_site_fract_x
_atom_site_fract_y
_atom_site_fract_z
Si Si1 0.500000 0.500000 0.258255
Si Si2 0.078820 0.147445 0.296574
Si Si3 0.612400 0.103418 0.628847
Si Si4 0.278140 0.330219 0.668278
Si Si5 0.711991 0.967425 0.724578
Si Si6 0.672870 0.769256 0.313852
O O1 0.555444 0.448088 0.193568
O O2 0.438781 0.453848 0.320760
O O3 0.157344 0.140247 0.237533
O O4 0.100114 0.179418 0.394340
O O5 0.011196 0.204248 0.250834
O O6 0.574351 0.172613 0.690339
O O7 0.676455 0.144728 0.562135
O O8 0.651917 0.035583 0.690142
O O9 0.314001 0.250000 0.625000
O O10 0.265124 0.400150 0.597642
O O11 0.194415 0.304462 0.717023
O O12 0.750000 0.776208 0.375000
#
# Coordination Sequence:
#
# PCOD8311969 Si02
#       6
#     8  16  16  16  16  16
#     4  12  24  37  62  95 140 172 208 258 336 391
#     4  10  24  41  62  94 131 166 210 264 323 386
#     4  11  23  38  62 101 131 170 205 267 332 401
#     4  11  22  41  64  95 123 168 215 264 320 390
#     4  11  22  41  65  95 134 167 211 266 335 391
#     4   9  21  42  64  87 124 169 219 261 307 375
#
# _framework density 20.963517
#
# number of rings (size 3 to 8) (size 9 to 14) (size 15 to 20)
#    0.000    1.455    1.818    4.364    7.636    0.000 
#    0.000    3.636    0.000    0.000    0.000    0.000 
#    0.000    0.000    0.000    0.000    0.000    0.000 
#
# Total GULP energy -545471.977716 kJ/mol
# GULP energy per Si atom -12397.090403 kJ/mol
# Density = 2.091580 g / cm^3
# Si number density = 20.963517 Si / 1000 Ang^3
#
#
#
# Elastic Constant Matrix: (Units=GPa)
#
#
# Indices 1 2 3 4 5 6 
#
# 1 114.9208 51.4873 43.3287 0.0000 0.0000 0.0000
# 2 51.4873 114.9208 43.3287 0.0000 0.0000 0.0000
# 3 43.3287 43.3287 45.0348 0.0000 0.0000 0.0000
# 4 0.0000 0.0000 0.0000 13.2883 0.0000 0.0000
# 5 0.0000 0.0000 0.0000 0.0000 13.2883 0.0000
# 6 0.0000 0.0000 0.0000 0.0000 0.0000 15.8765
#
#
#
# Elastic Compliance Matrix: (Units=1/GPa)
#
#
# Indices 1 2 3 4 5 6 
#
# 1 0.013904 -0.001861 -0.011587 0.000000 0.000000 0.000000
# 2 -0.001861 0.013904 -0.011587 0.000000 0.000000 0.000000
# 3 -0.011587 -0.011587 0.044501 0.000000 0.000000 0.000000
# 4 0.000000 0.000000 0.000000 0.075254 0.000000 0.000000
# 5 0.000000 0.000000 0.000000 0.000000 0.075254 0.000000
# 6 0.000000 0.000000 0.000000 0.000000 0.000000 0.062986
#
#
# Mechanical properties :
#
#
# Convention : Reuss Voigt Hill
#
# Bulk Modulus (GPa) = 44.96476 61.24065 53.10271
# Shear Modulus (GPa) = 14.56511 17.60608 16.08559
#
# Velocity S-wave (km/s) = 2.63873 2.90115 2.77305
# Velocity P-wave (km/s) = 5.54793 6.36385 5.96985
#
# Compressibility (1/GPa) = 0.02223964
#
# Stress axis : x y z
#
# Youngs Moduli (GPa) = 71.92202 71.92202 22.47120
#
# Poissons Ratio (x) = 0.13382 0.26038
# Poissons Ratio (y) = 0.13382 0.26038
# Poissons Ratio (z) = 0.83337 0.83337
#
# Static dielectric constant tensor:
#      x y z
#    x 4.117510 0.000000 0.000000 
#    y 0.000000 4.117510 0.000000 
#    z 0.000000 0.000000 3.792410 
# 
# 
# High freq. dielectric constant tensor:
#      x y z
#    x 1.831000 0.000000 0.000000 
#    y 0.000000 1.831000 0.000000 
#    z 0.000000 0.000000 1.796600 
# 
# From -- ./inp_files/5370.got.cif
#   From: 2010.03.12/outbox.cif.g09.slc.cpg/sg122_3_cif.got.tgz:5370.got - 2010.04.06 16:17:16.
