data_PCOD8311752
_publ_section_title
;
Structure prediction by ZEFSAII (Michael W. Deem and Ramdas Pophale) SiO2 
 PCOD8311752
Probable space group: I -4 2 D
;
_chemical_formula_sum "Si O2"
_cell_formula_units_Z 72
_cell_length_a 11.514868
_cell_length_b 11.514868
_cell_length_c 24.144614
_cell_angle_alpha 90.000000
_cell_angle_beta 90.000000
_cell_angle_gamma 90.000000
_cell_volume 3201.387128
_symmetry_space_group_name_H-M "I -4 2 D"
_symmetry_group_IT_number 122
_symmetry_cell_setting 'tetragonal'
loop_
_space_group_symop_operation_xyz
x,y,z
y,-x,-z
-x,-y,z
-y,x,-z
x,1/2-y,1/4-z
-x,1/2+y,1/4-z
-y,1/2-x,1/4+z
y,1/2+x,1/4+z
1/2+x,1/2+y,1/2+z
1/2+y,1/2-x,1/2-z
1/2-x,1/2-y,1/2+z
1/2-y,1/2+x,1/2-z
1/2+x,-y,3/4-z
1/2-x,y,3/4-z
1/2-y,-x,3/4+z
1/2+y,x,3/4+z
loop_
_atom_site_type_symbol
_atom_site_label
_atom_site_fract_x
_atom_site_fract_y
_atom_site_fract_z
Si Si1 0.121877 0.154456 0.199232
Si Si2 0.148609 0.038497 0.702960
Si Si3 0.710855 0.372357 0.936608
Si Si4 0.586188 0.098466 0.829202
Si Si5 0.000000 0.000000 0.602860
O O1 0.258477 0.158261 0.216292
O O2 0.070201 0.281874 0.186622
O O3 0.109276 0.072809 0.145659
O O4 0.047826 0.102320 0.249848
O O5 0.090566 0.166793 0.714783
O O6 0.286324 0.045625 0.702328
O O7 0.110263 0.984788 0.643457
O O8 0.750000 0.330282 0.875000
O O9 0.615044 0.476630 0.935186
O O10 0.500000 0.000000 0.807084
#
# Coordination Sequence:
#
# PCOD8311752 Si02
#       5
#    16  16  16  16   8
#     4  10  19  37  58  94 140 170 218 282 330 400
#     4  10  21  34  65  98 125 185 229 268 346 409
#     4   9  17  38  62  92 131 175 224 276 348 388
#     4  10  21  36  59  96 141 175 213 277 341 396
#     4  10  18  38  66  82 127 190 225 286 340 392
#
# _framework density 22.49025
#
# number of rings (size 3 to 8) (size 9 to 14) (size 15 to 20)
#    0.000    2.222    6.667    0.000    7.778    0.000 
#    0.000    0.000   14.667   29.333    0.000    0.000 
#    0.000    0.000    0.000    0.000    0.000    0.000 
#
# Total GULP energy -446158.749108 kJ/mol
# GULP energy per Si atom -12393.298586 kJ/mol
# Density = 2.243906 g / cm^3
# Si number density = 22.490250 Si / 1000 Ang^3
#
#
#
# Elastic Constant Matrix: (Units=GPa)
#
#
# Indices 1 2 3 4 5 6 
#
# 1 108.9064 65.7701 19.3865 0.0000 0.0000 0.0000
# 2 65.7701 108.9064 19.3865 0.0000 0.0000 0.0000
# 3 19.3865 19.3865 55.4112 0.0000 0.0000 0.0000
# 4 0.0000 0.0000 0.0000 23.9034 0.0000 0.0000
# 5 0.0000 0.0000 0.0000 0.0000 23.9034 0.0000
# 6 0.0000 0.0000 0.0000 0.0000 0.0000 48.0601
#
#
#
# Elastic Compliance Matrix: (Units=1/GPa)
#
#
# Indices 1 2 3 4 5 6 
#
# 1 0.014695 -0.008488 -0.002172 0.000000 0.000000 0.000000
# 2 -0.008488 0.014695 -0.002172 0.000000 0.000000 0.000000
# 3 -0.002172 -0.002172 0.019566 0.000000 0.000000 0.000000
# 4 0.000000 0.000000 0.000000 0.041835 0.000000 0.000000
# 5 0.000000 0.000000 0.000000 0.000000 0.041835 0.000000
# 6 0.000000 0.000000 0.000000 0.000000 0.000000 0.020807
#
#
# Mechanical properties :
#
#
# Convention : Reuss Voigt Hill
#
# Bulk Modulus (GPa) = 42.92976 53.59005 48.25991
# Shear Modulus (GPa) = 26.75808 30.41877 28.58843
#
# Velocity S-wave (km/s) = 3.45304 3.68167 3.56918
# Velocity P-wave (km/s) = 5.91841 6.47709 6.20404
#
# Compressibility (1/GPa) = 0.02329386
#
# Stress axis : x y z
#
# Youngs Moduli (GPa) = 68.05215 68.05215 51.10797
#
# Poissons Ratio (x) = 0.57761 0.11099
# Poissons Ratio (y) = 0.57761 0.11099
# Poissons Ratio (z) = 0.14778 0.14778
#
# Static dielectric constant tensor:
#      x y z
#    x 4.039880 0.000000 0.000000 
#    y 0.000000 4.039880 0.000000 
#    z 0.000000 0.000000 3.804880 
# 
# 
# High freq. dielectric constant tensor:
#      x y z
#    x 1.880770 0.000000 0.000000 
#    y 0.000000 1.880770 0.000000 
#    z 0.000000 0.000000 1.862080 
# 
# From -- ./inp_files/8601.got.cif
#   From: 2010.03.12/outbox.cif.g09.slc.cpg/sg122_5_cif.got.tgz:8601.got - 2010.04.06 16:17:16.
