data_PCOD8311333
_publ_section_title
;
Structure prediction by ZEFSAII (Michael W. Deem and Ramdas Pophale) SiO2 
 PCOD8311333
Probable space group: I -4 C 2
;
_chemical_formula_sum "Si O2"
_cell_formula_units_Z 96
_cell_length_a 13.936960
_cell_length_b 13.936960
_cell_length_c 23.749050
_cell_angle_alpha 90.000000
_cell_angle_beta 90.000000
_cell_angle_gamma 90.000000
_cell_volume 4612.988257
_symmetry_space_group_name_H-M "I -4 C 2"
_symmetry_group_IT_number 120
_symmetry_cell_setting 'tetragonal'
loop_
_space_group_symop_operation_xyz
x,y,z
y,-x,-z
-x,-y,z
-y,x,-z
y,x,1/2-z
-y,-x,1/2-z
-x,y,1/2+z
x,-y,1/2+z
1/2+x,1/2+y,1/2+z
1/2+y,1/2-x,1/2-z
1/2-x,1/2-y,1/2+z
1/2-y,1/2+x,1/2-z
1/2+y,1/2+x,-z
1/2-y,1/2-x,-z
1/2-x,1/2+y,z
1/2+x,1/2-y,z
loop_
_atom_site_type_symbol
_atom_site_label
_atom_site_fract_x
_atom_site_fract_y
_atom_site_fract_z
Si Si1 0.000000 0.000000 0.000000
Si Si2 0.476507 0.350910 0.350171
Si Si3 0.280721 0.219280 0.000000
Si Si4 0.452080 0.856382 0.683452
Si Si5 0.079299 0.787931 0.093631
Si Si6 0.357136 0.382321 0.928712
Si Si7 0.000000 0.000000 0.750000
Si Si8 0.554935 0.145024 0.813912
O O1 0.082815 0.057185 0.031682
O O2 0.401097 0.399159 0.394271
O O3 0.584255 0.341517 0.374950
O O4 0.491754 0.407546 0.291155
O O5 0.429390 0.246267 0.343779
O O6 0.374552 0.235020 0.039243
O O7 0.194151 0.215533 0.044045
O O8 0.398654 0.772797 0.649406
O O9 0.440068 0.832820 0.748250
O O10 0.566324 0.864707 0.669207
O O11 0.398854 0.953883 0.667821
O O12 0.965821 0.783035 0.085575
#
# Coordination Sequence:
#
# PCOD8311333 Si02
#       8
#     4  16   8  16  16  16   4  16
#     4  12  18  48  68  82 128 180 226 268 360 382
#     4  12  23  40  67 100 140 178 227 283 349 418
#     4  12  28  42  72  98 132 178 244 284 354 404
#     4   9  20  42  62  93 130 180 217 277 335 419
#     4  12  24  42  65  99 133 173 227 292 340 414
#     4  12  23  44  65  94 130 180 221 288 338 409
#     4  12  22  40  64 114 140 188 218 296 340 442
#     4   9  20  40  66  87 136 179 218 262 349 412
#
# _framework density 20.810805999999999
#
# number of rings (size 3 to 8) (size 9 to 14) (size 15 to 20)
#    0.000    1.000    5.000    3.000    2.333    0.000 
#    0.000    0.000    0.000    1.000    0.000    0.000 
#    0.000    0.000    0.000    0.000    0.000    0.000 
#
# Total GULP energy -594627.960271 kJ/mol
# GULP energy per Si atom -12388.082506 kJ/mol
# Density = 2.076344 g / cm^3
# Si number density = 20.810806 Si / 1000 Ang^3
#
#
#
# Elastic Constant Matrix: (Units=GPa)
#
#
# Indices 1 2 3 4 5 6 
#
# 1 77.4016 20.5262 35.1344 0.0000 0.0000 0.0000
# 2 20.5262 77.4019 35.1351 0.0000 0.0000 0.0000
# 3 35.1344 35.1351 82.8165 0.0000 0.0000 0.0000
# 4 0.0000 0.0000 0.0000 35.6281 0.0000 0.0000
# 5 0.0000 0.0000 0.0000 0.0000 35.6281 0.0000
# 6 0.0000 0.0000 0.0000 0.0000 0.0000 27.4584
#
#
#
# Elastic Compliance Matrix: (Units=1/GPa)
#
#
# Indices 1 2 3 4 5 6 
#
# 1 0.016131 -0.001451 -0.006228 0.000000 0.000000 0.000000
# 2 -0.001451 0.016132 -0.006228 0.000000 0.000000 0.000000
# 3 -0.006228 -0.006228 0.017360 0.000000 0.000000 0.000000
# 4 0.000000 0.000000 0.000000 0.028068 0.000000 0.000000
# 5 0.000000 0.000000 0.000000 0.000000 0.028068 0.000000
# 6 0.000000 0.000000 0.000000 0.000000 0.000000 0.036419
#
#
# Mechanical properties :
#
#
# Convention : Reuss Voigt Hill
#
# Bulk Modulus (GPa) = 45.85482 46.57905 46.21694
# Shear Modulus (GPa) = 28.20703 29.53121 28.86912
#
# Velocity S-wave (km/s) = 3.68557 3.77109 3.72858
# Velocity P-wave (km/s) = 6.33981 6.43368 6.38692
#
# Compressibility (1/GPa) = 0.02180796
#
# Stress axis : x y z
#
# Youngs Moduli (GPa) = 61.99055 61.99034 57.60506
#
# Poissons Ratio (x) = 0.08993 0.35878
# Poissons Ratio (y) = 0.08993 0.35879
# Poissons Ratio (z) = 0.38609 0.38610
#
# Static dielectric constant tensor:
#      x y z
#    x 3.751810 0.000000 0.000000 
#    y 0.000000 3.751810 0.000000 
#    z 0.000000 0.000000 3.807070 
# 
# 
# High freq. dielectric constant tensor:
#      x y z
#    x 1.811870 0.000000 0.000000 
#    y 0.000000 1.811870 0.000000 
#    z 0.000000 0.000000 1.817540 
# 
# From -- ./inp_files/5884.got.cif
#   From: 2010.03.12/outbox.cif.g09.slc.cpg/sg120_3_cif.got.tgz:5884.got - 2010.04.06 16:00:44.
