data_PCOD8311446
_publ_section_title
;
Structure prediction by ZEFSAII (Michael W. Deem and Ramdas Pophale) SiO2 
 PCOD8311446
Probable space group: I -4 2 M
;
_chemical_formula_sum "Si O2"
_cell_formula_units_Z 92
_cell_length_a 24.354729
_cell_length_b 24.354729
_cell_length_c 9.912778
_cell_angle_alpha 90.000000
_cell_angle_beta 90.000000
_cell_angle_gamma 90.000000
_cell_volume 5879.792271
_symmetry_space_group_name_H-M "I -4 2 M"
_symmetry_group_IT_number 121
_symmetry_cell_setting 'tetragonal'
loop_
_space_group_symop_operation_xyz
x,y,z
y,-x,-z
-x,-y,z
-y,x,-z
x,-y,-z
-x,y,-z
-y,-x,z
y,x,z
1/2+x,1/2+y,1/2+z
1/2+y,1/2-x,1/2-z
1/2-x,1/2-y,1/2+z
1/2-y,1/2+x,1/2-z
1/2+x,1/2-y,1/2-z
1/2-x,1/2+y,1/2-z
1/2-y,1/2-x,1/2+z
1/2+y,1/2+x,1/2+z
loop_
_atom_site_type_symbol
_atom_site_label
_atom_site_fract_x
_atom_site_fract_y
_atom_site_fract_z
Si Si1 0.325913 0.237386 0.981509
Si Si2 0.741955 0.650891 0.495159
Si Si3 0.000000 0.000000 0.000000
Si Si4 0.389982 0.297094 0.766890
Si Si5 0.000000 0.000000 0.500000
Si Si6 0.336289 0.509119 0.848199
Si Si7 0.556277 0.443724 0.749453
Si Si8 0.206954 0.881999 0.286868
O O1 0.276611 0.276611 0.934549
O O2 0.304173 0.174486 0.978274
O O3 0.375545 0.251250 0.879263
O O4 0.344823 0.249197 0.133909
O O5 0.702886 0.702886 0.514346
O O6 0.734678 0.612644 0.625184
O O7 0.725504 0.614741 0.367403
O O8 0.964383 0.035618 0.104136
O O9 0.350743 0.350743 0.775577
O O10 0.452287 0.316800 0.784831
O O11 0.964963 0.035038 0.394312
O O12 0.380568 0.538225 0.750084
O O13 0.289903 0.556610 0.849458
O O14 0.357960 0.500000 0.000000
O O15 0.146475 0.853526 0.302271
#
# Coordination Sequence:
#
# PCOD8311446 Si02
#       8
#    16  16   2  16   2  16   8  16
#     4   9  16  30  51  71  93 116 153 197 244 306
#     4   9  18  32  49  71  93 118 149 199 260 301
#     4  10  28  42  44  74  76 106 172 238 276 278
#     4  10  21  32  49  72  94 123 162 207 244 294
#     4  10  20  34  52  66  68 114 168 202 256 278
#     4  12  23  35  52  68  92 128 173 210 248 294
#     4  11  24  38  54  62  88 122 169 221 257 292
#     4  10  19  32  48  69  93 123 160 199 243 290
#
# _framework density 15.646811
#
# number of rings (size 3 to 8) (size 9 to 14) (size 15 to 20)
#    0.000    1.913    3.478    1.043    3.652    6.261 
#    0.000    0.000    0.000    0.000    0.000    0.000 
#    0.000    0.000    0.000    0.000    0.000   60.870 
#
# Total GULP energy -569944.460588 kJ/mol
# GULP energy per Si atom -12390.096969 kJ/mol
# Density = 1.561120 g / cm^3
# Si number density = 15.646811 Si / 1000 Ang^3
#
#
#
# Elastic Constant Matrix: (Units=GPa)
#
#
# Indices 1 2 3 4 5 6 
#
# 1 59.3442 46.3350 28.3160 0.0000 0.0000 0.0000
# 2 46.3350 59.3431 28.3163 0.0000 0.0000 0.0000
# 3 28.3160 28.3163 109.9613 0.0000 0.0000 0.0000
# 4 0.0000 0.0000 0.0000 6.6920 0.0000 0.0000
# 5 0.0000 0.0000 0.0000 0.0000 6.6368 0.0000
# 6 0.0000 0.0000 0.0000 0.0000 0.0000 17.8548
#
#
#
# Elastic Compliance Matrix: (Units=1/GPa)
#
#
# Indices 1 2 3 4 5 6 
#
# 1 0.043924 -0.032947 -0.002827 0.000000 0.000000 0.000000
# 2 -0.032947 0.043925 -0.002827 0.000000 0.000000 0.000000
# 3 -0.002827 -0.002827 0.010550 0.000000 0.000000 0.000000
# 4 0.000000 0.000000 0.000000 0.149431 0.000000 0.000000
# 5 0.000000 0.000000 0.000000 0.000000 0.150676 0.000000
# 6 0.000000 0.000000 0.000000 0.000000 0.000000 0.056007
#
#
# Mechanical properties :
#
#
# Convention : Reuss Voigt Hill
#
# Bulk Modulus (GPa) = 47.17484 48.28700 47.73092
# Shear Modulus (GPa) = 9.28021 14.61547 11.94784
#
# Velocity S-wave (km/s) = 2.43802 3.05960 2.76632
# Velocity P-wave (km/s) = 6.17580 6.58856 6.38552
#
# Compressibility (1/GPa) = 0.02119774
#
# Stress axis : x y z
#
# Youngs Moduli (GPa) = 22.76653 22.76598 94.78695
#
# Poissons Ratio (x) = 0.75007 0.26792
# Poissons Ratio (y) = 0.75009 0.26797
# Poissons Ratio (z) = 0.06435 0.06436
#
# Static dielectric constant tensor:
#      x y z
#    x 2.867180 0.000000 0.000000 
#    y 0.000000 2.867590 0.000000 
#    z 0.000000 0.000000 3.106600 
# 
# 
# High freq. dielectric constant tensor:
#      x y z
#    x 1.566460 0.000000 0.000000 
#    y 0.000000 1.566460 0.000000 
#    z 0.000000 0.000000 1.619620 
# 
# From -- ./inp_files/2102.got.cif
#   From: 2010.03.12/outbox.cif.g09.slc.cpg/sg121_2_cif.got.tgz:2102.got - 2010.04.06 16:06:48.
