data_PCOD8311000
_publ_section_title
;
Structure prediction by ZEFSAII (Michael W. Deem and Ramdas Pophale) SiO2 
 PCOD8311000
Probable space group: I -4 M 2
;
_chemical_formula_sum "Si O2"
_cell_formula_units_Z 96
_cell_length_a 22.947994
_cell_length_b 22.947994
_cell_length_c 9.432026
_cell_angle_alpha 90.000000
_cell_angle_beta 90.000000
_cell_angle_gamma 90.000000
_cell_volume 4967.003255
_symmetry_space_group_name_H-M "I -4 M 2"
_symmetry_group_IT_number 119
_symmetry_cell_setting 'tetragonal'
loop_
_space_group_symop_operation_xyz
x,y,z
y,-x,-z
-x,-y,z
-y,x,-z
y,x,-z
-y,-x,-z
-x,y,z
x,-y,z
1/2+x,1/2+y,1/2+z
1/2+y,1/2-x,1/2-z
1/2-x,1/2-y,1/2+z
1/2-y,1/2+x,1/2-z
1/2+y,1/2+x,1/2-z
1/2-y,1/2-x,1/2-z
1/2-x,1/2+y,1/2+z
1/2+x,1/2-y,1/2+z
loop_
_atom_site_type_symbol
_atom_site_label
_atom_site_fract_x
_atom_site_fract_y
_atom_site_fract_z
Si Si1 0.933255 0.752252 0.531744
Si Si2 0.124968 0.828795 0.772326
Si Si3 0.249160 0.069539 0.011648
Si Si4 0.566448 0.434026 0.834996
Si Si5 0.754755 0.353621 0.243110
Si Si6 0.564502 0.841644 0.258241
O O1 0.909564 0.799505 0.642397
O O2 0.888585 0.747663 0.403034
O O3 0.933852 0.689722 0.606627
O O4 0.000000 0.769032 0.486468
O O5 0.099405 0.808692 0.923758
O O6 0.112113 0.897529 0.758086
O O7 0.194421 0.818136 0.764758
O O8 0.300001 0.088748 0.118906
O O9 0.241857 0.000000 0.000496
O O10 0.264132 0.097151 0.861291
O O11 0.500000 0.422530 0.794918
O O12 0.584474 0.500000 0.796502
O O13 0.577600 0.422401 0.000000
O O14 0.807241 0.307241 0.250000
O O15 0.500000 0.861192 0.298966
O O16 0.600340 0.899661 0.250000
#
# Coordination Sequence:
#
# PCOD8311000 Si02
#       6
#    16  16  16  16  16  16
#     4  10  21  38  60  81 106 147 196 237 272 329
#     4  11  22  36  56  82 112 147 187 233 285 342
#     4  10  22  40  59  78 109 152 191 229 276 338
#     4   9  17  30  51  80 111 143 187 243 290 327
#     4  12  25  38  56  85 118 151 188 235 290 345
#     4   9  18  34  57  83 109 140 178 225 282 337
#
# _framework density 19.327549000000001
#
# number of rings (size 3 to 8) (size 9 to 14) (size 15 to 20)
#    0.000    1.833    0.000    6.500    0.000    8.167 
#    0.000    0.000    0.000    0.000    0.000    2.333 
#    0.000   12.000    0.000    0.000    0.000    0.000 
#
# Total GULP energy -595193.006763 kJ/mol
# GULP energy per Si atom -12399.854308 kJ/mol
# Density = 1.928356 g / cm^3
# Si number density = 19.327549 Si / 1000 Ang^3
#
#
#
# Elastic Constant Matrix: (Units=GPa)
#
#
# Indices 1 2 3 4 5 6 
#
# 1 79.2054 40.2120 18.1644 0.0000 0.0000 0.0000
# 2 40.2120 79.1952 18.1643 0.0000 0.0000 0.0000
# 3 18.1644 18.1643 70.4878 0.0000 0.0000 0.0000
# 4 0.0000 0.0000 0.0000 22.9846 0.0000 0.0000
# 5 0.0000 0.0000 0.0000 0.0000 22.9820 0.0000
# 6 0.0000 0.0000 0.0000 0.0000 0.0000 38.2760
#
#
#
# Elastic Compliance Matrix: (Units=1/GPa)
#
#
# Indices 1 2 3 4 5 6 
#
# 1 0.017367 -0.008281 -0.002341 0.000000 0.000000 0.000000
# 2 -0.008281 0.017369 -0.002342 0.000000 0.000000 0.000000
# 3 -0.002341 -0.002342 0.015394 0.000000 0.000000 0.000000
# 4 0.000000 0.000000 0.000000 0.043507 0.000000 0.000000
# 5 0.000000 0.000000 0.000000 0.000000 0.043512 0.000000
# 6 0.000000 0.000000 0.000000 0.000000 0.000000 0.026126
#
#
# Mechanical properties :
#
#
# Convention : Reuss Voigt Hill
#
# Bulk Modulus (GPa) = 41.32107 42.44110 41.88109
# Shear Modulus (GPa) = 25.34596 27.00504 26.17550
#
# Velocity S-wave (km/s) = 3.62524 3.74201 3.68409
# Velocity P-wave (km/s) = 6.24091 6.37783 6.30974
#
# Compressibility (1/GPa) = 0.02420073
#
# Stress axis : x y z
#
# Youngs Moduli (GPa) = 57.58201 57.57415 64.96170
#
# Poissons Ratio (x) = 0.47677 0.15210
# Poissons Ratio (y) = 0.47684 0.15213
# Poissons Ratio (z) = 0.13482 0.13483
#
# Static dielectric constant tensor:
#      x y z
#    x 3.522200 0.000000 0.000000 
#    y 0.000000 3.522210 0.000000 
#    z 0.000000 0.000000 3.480640 
# 
# 
# High freq. dielectric constant tensor:
#      x y z
#    x 1.752650 0.000000 0.000000 
#    y 0.000000 1.752650 0.000000 
#    z 0.000000 0.000000 1.747980 
# 
# From -- ./inp_files/2680.got.cif
#   From: 2010.03.12/outbox.cif.g09.slc.cpg/sg119_2_cif.got.tgz:2680.got - 2010.04.14 02:25:26.
