data_PCOD8311238
_publ_section_title
;
Structure prediction by ZEFSAII (Michael W. Deem and Ramdas Pophale) SiO2 
 PCOD8311238
Probable space group: I -4 C 2
;
_chemical_formula_sum "Si O2"
_cell_formula_units_Z 96
_cell_length_a 23.160121
_cell_length_b 23.160121
_cell_length_c 8.974519
_cell_angle_alpha 90.000000
_cell_angle_beta 90.000000
_cell_angle_gamma 90.000000
_cell_volume 4813.853058
_symmetry_space_group_name_H-M "I -4 C 2"
_symmetry_group_IT_number 120
_symmetry_cell_setting 'tetragonal'
loop_
_space_group_symop_operation_xyz
x,y,z
y,-x,-z
-x,-y,z
-y,x,-z
y,x,1/2-z
-y,-x,1/2-z
-x,y,1/2+z
x,-y,1/2+z
1/2+x,1/2+y,1/2+z
1/2+y,1/2-x,1/2-z
1/2-x,1/2-y,1/2+z
1/2-y,1/2+x,1/2-z
1/2+y,1/2+x,-z
1/2-y,1/2-x,-z
1/2-x,1/2+y,z
1/2+x,1/2-y,z
loop_
_atom_site_type_symbol
_atom_site_label
_atom_site_fract_x
_atom_site_fract_y
_atom_site_fract_z
Si Si1 0.574264 0.638524 0.971868
Si Si2 0.867422 0.779712 0.681287
Si Si3 0.459722 0.347556 0.634635
Si Si4 0.555306 0.196381 0.838322
Si Si5 0.558305 0.215321 0.167880
Si Si6 0.655007 0.154429 0.334559
O O1 0.547625 0.643345 0.809371
O O2 0.618764 0.585589 0.970039
O O3 0.606684 0.697440 0.023658
O O4 0.522676 0.628774 0.089466
O O5 0.831578 0.831578 0.750000
O O6 0.919277 0.760223 0.793380
O O7 0.827160 0.723194 0.654271
O O8 0.450780 0.279998 0.609739
O O9 0.490445 0.192180 0.778803
O O10 0.595901 0.148019 0.761857
O O11 0.556770 0.181029 0.012645
O O12 0.618470 0.205528 0.256529
O O13 0.636160 0.136160 0.500000
#
# Coordination Sequence:
#
# PCOD8311238 Si02
#       6
#    16  16  16  16  16  16
#     4  11  24  41  61  90 121 163 224 265 334 385
#     4  10  22  41  61  94 128 166 213 267 329 387
#     4  11  24  39  63  89 120 169 213 277 322 389
#     4  10  23  36  63  94 119 173 214 257 323 379
#     4  12  20  41  65  88 131 165 219 262 323 399
#     4  10  22  40  61  95 131 167 211 267 327 388
#
# _framework density 19.942446
#
# number of rings (size 3 to 8) (size 9 to 14) (size 15 to 20)
#    1.000    0.333    1.667    4.500    2.333    0.333 
#    9.000    1.667    0.000    0.500    0.000    3.500 
#    0.000    0.000    0.000    0.000    0.000    0.000 
#
# Total GULP energy -594779.987447 kJ/mol
# GULP energy per Si atom -12391.249738 kJ/mol
# Density = 1.989706 g / cm^3
# Si number density = 19.942446 Si / 1000 Ang^3
#
#
#
# Elastic Constant Matrix: (Units=GPa)
#
#
# Indices 1 2 3 4 5 6 
#
# 1 72.8797 31.1704 35.8618 0.0000 0.0000 0.0000
# 2 31.1704 72.8797 35.8618 0.0000 0.0000 0.0000
# 3 35.8618 35.8618 134.2743 0.0000 0.0000 0.0000
# 4 0.0000 0.0000 0.0000 37.3906 0.0000 0.0000
# 5 0.0000 0.0000 0.0000 0.0000 37.3906 0.0000
# 6 0.0000 0.0000 0.0000 0.0000 0.0000 25.0255
#
#
#
# Elastic Compliance Matrix: (Units=1/GPa)
#
#
# Indices 1 2 3 4 5 6 
#
# 1 0.017877 -0.006098 -0.003146 0.000000 0.000000 0.000000
# 2 -0.006098 0.017877 -0.003146 0.000000 0.000000 0.000000
# 3 -0.003146 -0.003146 0.009128 0.000000 0.000000 0.000000
# 4 0.000000 0.000000 0.000000 0.026745 0.000000 0.000000
# 5 0.000000 0.000000 0.000000 0.000000 0.026745 0.000000
# 6 0.000000 0.000000 0.000000 0.000000 0.000000 0.039959
#
#
# Mechanical properties :
#
#
# Convention : Reuss Voigt Hill
#
# Bulk Modulus (GPa) = 49.74486 53.98016 51.86251
# Shear Modulus (GPa) = 29.44427 31.77067 30.60747
#
# Velocity S-wave (km/s) = 3.84664 3.99572 3.92189
# Velocity P-wave (km/s) = 6.68784 6.95805 6.82428
#
# Compressibility (1/GPa) = 0.02010258
#
# Stress axis : x y z
#
# Youngs Moduli (GPa) = 55.93649 55.93649 109.55420
#
# Poissons Ratio (x) = 0.34110 0.34466
# Poissons Ratio (y) = 0.34110 0.34466
# Poissons Ratio (z) = 0.17598 0.17598
#
# Static dielectric constant tensor:
#      x y z
#    x 3.492320 0.000000 0.000000 
#    y 0.000000 3.492320 0.000000 
#    z 0.000000 0.000000 3.682350 
# 
# 
# High freq. dielectric constant tensor:
#      x y z
#    x 1.759970 0.000000 0.000000 
#    y 0.000000 1.759970 0.000000 
#    z 0.000000 0.000000 1.797260 
# 
# From -- ./inp_files/1547.got.cif
#   From: 2010.03.12/outbox.cif.g09.slc.cpg/sg120_1_cif.got.tgz:1547.got - 2010.04.06 16:00:44.
