data_PCOD8311944
_publ_section_title
;
Structure prediction by ZEFSAII (Michael W. Deem and Ramdas Pophale) SiO2 
 PCOD8311944
Probable space group: I -4 2 D
;
_chemical_formula_sum "Si O2"
_cell_formula_units_Z 72
_cell_length_a 11.178218
_cell_length_b 11.178218
_cell_length_c 25.384569
_cell_angle_alpha 90.000000
_cell_angle_beta 90.000000
_cell_angle_gamma 90.000000
_cell_volume 3171.866822
_symmetry_space_group_name_H-M "I -4 2 D"
_symmetry_group_IT_number 122
_symmetry_cell_setting 'tetragonal'
loop_
_space_group_symop_operation_xyz
x,y,z
y,-x,-z
-x,-y,z
-y,x,-z
x,1/2-y,1/4-z
-x,1/2+y,1/4-z
-y,1/2-x,1/4+z
y,1/2+x,1/4+z
1/2+x,1/2+y,1/2+z
1/2+y,1/2-x,1/2-z
1/2-x,1/2-y,1/2+z
1/2-y,1/2+x,1/2-z
1/2+x,-y,3/4-z
1/2-x,y,3/4-z
1/2-y,-x,3/4+z
1/2+y,x,3/4+z
loop_
_atom_site_type_symbol
_atom_site_label
_atom_site_fract_x
_atom_site_fract_y
_atom_site_fract_z
Si Si1 0.495969 0.827761 0.277016
Si Si2 0.250000 0.739457 0.875000
Si Si3 0.866286 0.975858 0.649785
Si Si4 0.906572 0.093006 0.805829
Si Si5 0.481363 0.304879 0.489188
O O1 0.607002 0.874292 0.242697
O O2 0.516634 0.858527 0.338789
O O3 0.477424 0.685511 0.267293
O O4 0.166964 0.653004 0.910081
O O5 0.151060 0.822356 0.848884
O O6 0.758133 0.040568 0.682342
O O7 0.000000 0.000000 0.672058
O O8 0.804659 0.014193 0.779397
O O9 0.000000 0.000000 0.831696
O O10 0.373174 0.392529 0.505231
#
# Coordination Sequence:
#
# PCOD8311944 Si02
#       5
#    16   8  16  16  16
#     4  10  22  45  72 108 149 180 244 326 376 442
#     4  10  24  46  68 104 152 186 254 328 356 456
#     4  11  22  44  75 108 138 201 244 304 396 440
#     4  11  25  41  73 102 144 196 249 302 379 445
#     4  11  25  45  69 102 152 197 252 305 362 455
#
# _framework density 22.699566999999998
#
# number of rings (size 3 to 8) (size 9 to 14) (size 15 to 20)
#    0.000    1.333    4.444    0.667    3.111    7.111 
#    0.000    0.000    0.000    0.000    0.000    0.000 
#    0.000    0.000    0.000    0.000    0.000    0.000 
#
# Total GULP energy -445975.760960 kJ/mol
# GULP energy per Si atom -12388.215582 kJ/mol
# Density = 2.264790 g / cm^3
# Si number density = 22.699567 Si / 1000 Ang^3
#
#
#
# Elastic Constant Matrix: (Units=GPa)
#
#
# Indices 1 2 3 4 5 6 
#
# 1 141.7732 74.8409 34.3001 0.0000 0.0000 0.0000
# 2 74.8409 141.7731 34.3001 0.0000 0.0000 0.0000
# 3 34.3001 34.3001 92.8705 0.0000 0.0000 0.0000
# 4 0.0000 0.0000 0.0000 31.2394 0.0000 0.0000
# 5 0.0000 0.0000 0.0000 0.0000 31.2394 0.0000
# 6 0.0000 0.0000 0.0000 0.0000 0.0000 51.6267
#
#
#
# Elastic Compliance Matrix: (Units=1/GPa)
#
#
# Indices 1 2 3 4 5 6 
#
# 1 0.010084 -0.004856 -0.001931 0.000000 0.000000 0.000000
# 2 -0.004856 0.010084 -0.001931 0.000000 0.000000 0.000000
# 3 -0.001931 -0.001931 0.012194 0.000000 0.000000 0.000000
# 4 0.000000 0.000000 0.000000 0.032011 0.000000 0.000000
# 5 0.000000 0.000000 0.000000 0.000000 0.032011 0.000000
# 6 0.000000 0.000000 0.000000 0.000000 0.000000 0.019370
#
#
# Mechanical properties :
#
#
# Convention : Reuss Voigt Hill
#
# Bulk Modulus (GPa) = 66.99510 73.69989 70.34749
# Shear Modulus (GPa) = 36.18848 38.35279 37.27064
#
# Velocity S-wave (km/s) = 3.99712 4.11491 4.05644
# Velocity P-wave (km/s) = 7.13306 7.42393 7.27995
#
# Compressibility (1/GPa) = 0.01492646
#
# Stress axis : x y z
#
# Youngs Moduli (GPa) = 99.16468 99.16468 82.00786
#
# Poissons Ratio (x) = 0.48157 0.15835
# Poissons Ratio (y) = 0.48157 0.15835
# Poissons Ratio (z) = 0.19147 0.19147
#
# Static dielectric constant tensor:
#      x y z
#    x 4.647520 0.000000 0.000000 
#    y 0.000000 4.647520 0.000000 
#    z 0.000000 0.000000 3.961220 
# 
# 
# High freq. dielectric constant tensor:
#      x y z
#    x 1.905530 0.000000 0.000000 
#    y 0.000000 1.905530 0.000000 
#    z 0.000000 0.000000 1.878370 
# 
# From -- ./inp_files/8588.got.cif
#   From: 2010.03.12/outbox.cif.g09.slc.cpg/sg122_5_cif.got.tgz:8588.got - 2010.04.06 16:17:16.
