data_PCOD8311420
_publ_section_title
;
Structure prediction by ZEFSAII (Michael W. Deem and Ramdas Pophale) SiO2 
 PCOD8311420
Probable space group: I -4 2 M
;
_chemical_formula_sum "Si O2"
_cell_formula_units_Z 80
_cell_length_a 13.867164
_cell_length_b 13.867164
_cell_length_c 25.958001
_cell_angle_alpha 90.000000
_cell_angle_beta 90.000000
_cell_angle_gamma 90.000000
_cell_volume 4991.677839
_symmetry_space_group_name_H-M "I -4 2 M"
_symmetry_group_IT_number 121
_symmetry_cell_setting 'tetragonal'
loop_
_space_group_symop_operation_xyz
x,y,z
y,-x,-z
-x,-y,z
-y,x,-z
x,-y,-z
-x,y,-z
-y,-x,z
y,x,z
1/2+x,1/2+y,1/2+z
1/2+y,1/2-x,1/2-z
1/2-x,1/2-y,1/2+z
1/2-y,1/2+x,1/2-z
1/2+x,1/2-y,1/2-z
1/2-x,1/2+y,1/2-z
1/2-y,1/2-x,1/2+z
1/2+y,1/2+x,1/2+z
loop_
_atom_site_type_symbol
_atom_site_label
_atom_site_fract_x
_atom_site_fract_y
_atom_site_fract_z
Si Si1 0.114116 0.268665 0.097580
Si Si2 0.607045 0.885511 0.193382
Si Si3 0.768667 0.385882 0.597579
Si Si4 0.385509 0.107041 0.306618
Si Si5 0.885930 0.392267 1.000000
O O1 0.165286 0.165286 0.093068
O O2 0.150655 0.319948 0.149765
O O3 0.148407 0.335835 0.050629
O O4 0.999999 0.250040 0.096860
O O5 0.645772 0.854231 0.250000
O O6 0.500002 0.842338 0.183063
O O7 0.599525 0.000001 0.191548
O O8 0.665288 0.334713 0.593070
O O9 0.819953 0.349343 0.649764
O O10 0.835834 0.351592 0.550628
O O11 0.840926 0.500000 0.000000
O O12 0.000000 0.400574 0.000000
#
# Coordination Sequence:
#
# PCOD8311420 Si02
#       5
#    16  16  16  16  16
#     4  10  19  29  42  62  89 119 146 170 201 248
#     4   8  14  26  44  64  85 109 140 183 230 261
#     4  10  19  29  42  62  89 119 146 170 201 248
#     4   8  14  26  44  64  85 109 140 183 230 261
#     4   9  17  30  47  63  79 101 133 177 221 250
#
# _framework density 16.026675000000001
#
# number of rings (size 3 to 8) (size 9 to 14) (size 15 to 20)
#    0.000    3.000    0.000    3.000    0.000    6.000 
#    0.000    0.000    0.000    3.600    0.000    0.000 
#    0.000   32.800    0.000    0.000    0.000    0.000 
#
# Total GULP energy -495792.411756 kJ/mol
# GULP energy per Si atom -12394.810294 kJ/mol
# Density = 1.599020 g / cm^3
# Si number density = 16.026675 Si / 1000 Ang^3
#
#
#
# Elastic Constant Matrix: (Units=GPa)
#
#
# Indices 1 2 3 4 5 6 
#
# 1 63.7835 39.9044 45.2732 0.0000 0.0000 0.0000
# 2 39.9044 63.7812 45.2726 0.0000 0.0000 0.0000
# 3 45.2732 45.2726 146.2045 0.0000 0.0000 0.0000
# 4 0.0000 0.0000 0.0000 11.1662 0.0000 0.0000
# 5 0.0000 0.0000 0.0000 0.0000 11.1653 0.0000
# 6 0.0000 0.0000 0.0000 0.0000 0.0000 16.4669
#
#
#
# Elastic Compliance Matrix: (Units=1/GPa)
#
#
# Indices 1 2 3 4 5 6 
#
# 1 0.027549 -0.014330 -0.004093 0.000000 0.000000 0.000000
# 2 -0.014330 0.027550 -0.004093 0.000000 0.000000 0.000000
# 3 -0.004093 -0.004093 0.009375 0.000000 0.000000 0.000000
# 4 0.000000 0.000000 0.000000 0.089556 0.000000 0.000000
# 5 0.000000 0.000000 0.000000 0.000000 0.089563 0.000000
# 6 0.000000 0.000000 0.000000 0.000000 0.000000 0.060728
#
#
# Mechanical properties :
#
#
# Convention : Reuss Voigt Hill
#
# Bulk Modulus (GPa) = 51.44180 59.40774 55.42477
# Shear Modulus (GPa) = 14.05148 17.31428 15.68288
#
# Velocity S-wave (km/s) = 2.96422 3.29042 3.13157
# Velocity P-wave (km/s) = 6.62441 7.18222 6.90895
#
# Compressibility (1/GPa) = 0.01943945
#
# Stress axis : x y z
#
# Youngs Moduli (GPa) = 36.29917 36.29779 106.66931
#
# Poissons Ratio (x) = 0.52016 0.43662
# Poissons Ratio (y) = 0.52018 0.43664
# Poissons Ratio (z) = 0.14858 0.14858
#
# Static dielectric constant tensor:
#      x y z
#    x 2.766760 0.000000 0.000000 
#    y 0.000000 2.766760 0.000000 
#    z 0.000000 0.000000 3.529320 
# 
# 
# High freq. dielectric constant tensor:
#      x y z
#    x 1.580220 0.000000 0.000000 
#    y 0.000000 1.580220 0.000000 
#    z 0.000000 0.000000 1.640820 
# 
# From -- ./inp_files/7015.got.cif
#   From: 2010.03.12/outbox.cif.g09.slc.cpg/sg121_4_cif.got.tgz:7015.got - 2010.04.06 16:06:48.
