data_PCOD8311489
_publ_section_title
;
Structure prediction by ZEFSAII (Michael W. Deem and Ramdas Pophale) SiO2 
 PCOD8311489
Probable space group: I -4 2 M
;
_chemical_formula_sum "Si O2"
_cell_formula_units_Z 128
_cell_length_a 23.261872
_cell_length_b 23.261872
_cell_length_c 12.466416
_cell_angle_alpha 90.000000
_cell_angle_beta 90.000000
_cell_angle_gamma 90.000000
_cell_volume 6745.760816
_symmetry_space_group_name_H-M "I -4 2 M"
_symmetry_group_IT_number 121
_symmetry_cell_setting 'tetragonal'
loop_
_space_group_symop_operation_xyz
x,y,z
y,-x,-z
-x,-y,z
-y,x,-z
x,-y,-z
-x,y,-z
-y,-x,z
y,x,z
1/2+x,1/2+y,1/2+z
1/2+y,1/2-x,1/2-z
1/2-x,1/2-y,1/2+z
1/2-y,1/2+x,1/2-z
1/2+x,1/2-y,1/2-z
1/2-x,1/2+y,1/2-z
1/2-y,1/2-x,1/2+z
1/2+y,1/2+x,1/2+z
loop_
_atom_site_type_symbol
_atom_site_label
_atom_site_fract_x
_atom_site_fract_y
_atom_site_fract_z
Si Si1 0.036550 0.776409 0.265872
Si Si2 0.630960 0.928095 0.354266
Si Si3 0.358606 0.731287 0.419512
Si Si4 0.939734 0.845912 0.945381
Si Si5 0.447551 0.856118 0.770558
Si Si6 0.408508 0.742406 0.198582
Si Si7 0.158791 0.640336 0.939805
Si Si8 0.379450 0.714367 0.956916
O O1 0.058756 0.817713 0.172368
O O2 0.048248 0.709966 0.234578
O O3 0.064386 0.792199 0.381424
O O4 0.969259 0.786386 0.276276
O O5 0.569430 0.897490 0.328404
O O6 0.688518 0.909797 0.291036
O O7 0.645208 0.909302 0.474435
O O8 0.622986 0.996637 0.336797
O O9 0.297491 0.702510 0.452803
O O10 0.410380 0.698530 0.474762
O O11 0.363754 0.724430 0.290848
O O12 0.366168 0.796537 0.461873
O O13 0.904906 0.904906 0.934732
O O14 0.000000 0.861194 0.000000
O O15 0.388515 0.867257 0.834978
O O16 0.391805 0.716764 0.083455
O O17 0.226561 0.651223 0.924573
O O18 0.338130 0.661871 0.929577
#
# Coordination Sequence:
#
# PCOD8311489 Si02
#       8
#    16  16  16  16  16  16  16  16
#     4  10  20  37  58  82 112 153 197 232 282 346
#     4  10  20  35  55  79 109 152 196 240 282 333
#     4  11  21  35  58  87 116 148 187 234 291 353
#     4  11  23  39  60  83 112 147 189 239 289 351
#     4  10  20  35  56  81 110 153 193 239 285 334
#     4  10  19  35  57  81 115 152 186 234 292 342
#     4  10  20  36  55  81 117 149 188 231 292 346
#     4  10  20  34  56  86 118 149 187 235 287 347
#
# _framework density 18.974879000000001
#
# number of rings (size 3 to 8) (size 9 to 14) (size 15 to 20)
#    0.000    1.750    2.500    2.625    0.000    3.375 
#    0.000    0.625    0.000    1.500    0.000    0.000 
#    0.000    2.000    0.000    0.000    0.000    0.000 
#
# Total GULP energy -792999.428098 kJ/mol
# GULP energy per Si atom -12390.616064 kJ/mol
# Density = 1.893169 g / cm^3
# Si number density = 18.974879 Si / 1000 Ang^3
#
#
#
# Elastic Constant Matrix: (Units=GPa)
#
#
# Indices 1 2 3 4 5 6 
#
# 1 88.0896 37.4511 13.3048 0.0000 0.0000 0.0000
# 2 37.4511 88.0889 13.3059 0.0000 0.0000 0.0000
# 3 13.3048 13.3059 62.2897 0.0000 0.0000 0.0000
# 4 0.0000 0.0000 0.0000 27.3270 0.0000 0.0000
# 5 0.0000 0.0000 0.0000 0.0000 27.3272 0.0000
# 6 0.0000 0.0000 0.0000 0.0000 0.0000 24.1772
#
#
#
# Elastic Compliance Matrix: (Units=1/GPa)
#
#
# Indices 1 2 3 4 5 6 
#
# 1 0.014046 -0.005702 -0.001782 0.000000 0.000000 0.000000
# 2 -0.005702 0.014046 -0.001782 0.000000 0.000000 0.000000
# 3 -0.001782 -0.001782 0.016815 0.000000 0.000000 0.000000
# 4 0.000000 0.000000 0.000000 0.036594 0.000000 0.000000
# 5 0.000000 0.000000 0.000000 0.000000 0.036594 0.000000
# 6 0.000000 0.000000 0.000000 0.000000 0.000000 0.041361
#
#
# Mechanical properties :
#
#
# Convention : Reuss Voigt Hill
#
# Bulk Modulus (GPa) = 37.91705 40.73241 39.32473
# Shear Modulus (GPa) = 26.76950 27.39339 27.08144
#
# Velocity S-wave (km/s) = 3.76012 3.80368 3.78196
# Velocity P-wave (km/s) = 6.23518 6.38778 6.31194
#
# Compressibility (1/GPa) = 0.02637336
#
# Stress axis : x y z
#
# Youngs Moduli (GPa) = 71.19693 71.19604 59.46939
#
# Poissons Ratio (x) = 0.40598 0.10597
# Poissons Ratio (y) = 0.40599 0.10600
# Poissons Ratio (z) = 0.12687 0.12690
#
# Static dielectric constant tensor:
#      x y z
#    x 3.396730 0.000000 0.000000 
#    y 0.000000 3.396730 0.000000 
#    z 0.000000 0.000000 3.500420 
# 
# 
# High freq. dielectric constant tensor:
#      x y z
#    x 1.731070 0.000000 0.000000 
#    y 0.000000 1.731070 0.000000 
#    z 0.000000 0.000000 1.741320 
# 
# From -- ./inp_files/3551.got.cif
#   From: 2010.03.12/outbox.cif.g09.slc.cpg/sg121_2_cif.got.tgz:3551.got - 2010.04.06 16:06:48.
