data_PCOD8311668
_publ_section_title
;
Structure prediction by ZEFSAII (Michael W. Deem and Ramdas Pophale) SiO2 
 PCOD8311668
Probable space group: I -4 2 M
;
_chemical_formula_sum "Si O2"
_cell_formula_units_Z 64
_cell_length_a 15.444669
_cell_length_b 15.444669
_cell_length_c 15.015249
_cell_angle_alpha 90.000000
_cell_angle_beta 90.000000
_cell_angle_gamma 90.000000
_cell_volume 3581.704471
_symmetry_space_group_name_H-M "I -4 2 M"
_symmetry_group_IT_number 121
_symmetry_cell_setting 'tetragonal'
loop_
_space_group_symop_operation_xyz
x,y,z
y,-x,-z
-x,-y,z
-y,x,-z
x,-y,-z
-x,y,-z
-y,-x,z
y,x,z
1/2+x,1/2+y,1/2+z
1/2+y,1/2-x,1/2-z
1/2-x,1/2-y,1/2+z
1/2-y,1/2+x,1/2-z
1/2+x,1/2-y,1/2-z
1/2-x,1/2+y,1/2-z
1/2-y,1/2-x,1/2+z
1/2+y,1/2+x,1/2+z
loop_
_atom_site_type_symbol
_atom_site_label
_atom_site_fract_x
_atom_site_fract_y
_atom_site_fract_z
Si Si1 0.771338 0.626698 0.629020
Si Si2 0.592010 0.897201 0.775388
Si Si3 0.496874 0.634205 0.605289
Si Si4 0.899672 0.405905 0.020078
O O1 0.696409 0.696409 0.619922
O O2 0.825990 0.643250 0.718029
O O3 0.729536 0.528880 0.636421
O O4 0.831600 0.639518 0.542440
O O5 0.489834 0.882501 0.764087
O O6 0.619887 0.885242 0.877405
O O7 0.500000 0.635270 0.500000
O O8 0.399559 0.600442 0.635116
O O9 0.564448 0.564448 0.643650
O O10 0.856604 0.500000 0.000000
O O11 0.000000 0.414078 0.000000
#
# Coordination Sequence:
#
# PCOD8311668 Si02
#       4
#    16  16  16  16
#     4  11  22  34  53  86 116 140 187 238 278 338
#     4  11  20  36  58  79 105 144 187 230 281 342
#     4   8  15  29  48  72 107 146 176 210 265 328
#     4  11  19  35  60  79 103 147 187 227 283 343
#
# _framework density 17.868587999999999
#
# number of rings (size 3 to 8) (size 9 to 14) (size 15 to 20)
#    0.000    1.750    5.000    3.000    0.000    1.000 
#    0.000    1.250    0.000    0.000    0.000    0.000 
#    0.000    0.500    0.000    0.000    0.000    0.000 
#
# Total GULP energy -396432.423691 kJ/mol
# GULP energy per Si atom -12388.513240 kJ/mol
# Density = 1.782792 g / cm^3
# Si number density = 17.868588 Si / 1000 Ang^3
#
#
#
# Elastic Constant Matrix: (Units=GPa)
#
#
# Indices 1 2 3 4 5 6 
#
# 1 75.5427 35.0105 40.2458 0.0000 0.0000 0.0000
# 2 35.0105 75.5423 40.2457 0.0000 0.0000 0.0000
# 3 40.2458 40.2457 143.4921 0.0000 0.0000 0.0000
# 4 0.0000 0.0000 0.0000 15.5464 0.0000 0.0000
# 5 0.0000 0.0000 0.0000 0.0000 15.5465 0.0000
# 6 0.0000 0.0000 0.0000 0.0000 0.0000 9.7065
#
#
#
# Elastic Compliance Matrix: (Units=1/GPa)
#
#
# Indices 1 2 3 4 5 6 
#
# 1 0.018019 -0.006653 -0.003188 0.000000 0.000000 0.000000
# 2 -0.006653 0.018019 -0.003188 0.000000 0.000000 0.000000
# 3 -0.003188 -0.003188 0.008757 0.000000 0.000000 0.000000
# 4 0.000000 0.000000 0.000000 0.064323 0.000000 0.000000
# 5 0.000000 0.000000 0.000000 0.000000 0.064323 0.000000
# 6 0.000000 0.000000 0.000000 0.000000 0.000000 0.103024
#
#
# Mechanical properties :
#
#
# Convention : Reuss Voigt Hill
#
# Bulk Modulus (GPa) = 53.36639 58.39790 55.88214
# Shear Modulus (GPa) = 16.19331 20.09824 18.14577
#
# Velocity S-wave (km/s) = 3.01366 3.35741 3.19017
# Velocity P-wave (km/s) = 6.48385 6.91249 6.70160
#
# Compressibility (1/GPa) = 0.01873839
#
# Stress axis : x y z
#
# Youngs Moduli (GPa) = 55.49649 55.49620 114.18996
#
# Poissons Ratio (x) = 0.36920 0.36404
# Poissons Ratio (y) = 0.36920 0.36404
# Poissons Ratio (z) = 0.17692 0.17692
#
# Static dielectric constant tensor:
#      x y z
#    x 3.524520 0.000000 0.000000 
#    y 0.000000 3.524540 0.000000 
#    z 0.000000 0.000000 3.309600 
# 
# 
# High freq. dielectric constant tensor:
#      x y z
#    x 1.677590 0.000000 0.000000 
#    y 0.000000 1.677590 0.000000 
#    z 0.000000 0.000000 1.674900 
# 
# From -- ./inp_files/4045.got.cif
#   From: 2010.03.12/outbox.cif.g09.slc.cpg/sg121_3_cif.got.tgz:4045.got - 2010.04.06 16:06:48.
