data_PCOD8311078
_publ_section_title
;
Structure prediction by ZEFSAII (Michael W. Deem and Ramdas Pophale) SiO2 
 PCOD8311078
Probable space group: I -4 M 2
;
_chemical_formula_sum "Si O2"
_cell_formula_units_Z 52
_cell_length_a 19.292306
_cell_length_b 19.292306
_cell_length_c 6.879556
_cell_angle_alpha 90.000000
_cell_angle_beta 90.000000
_cell_angle_gamma 90.000000
_cell_volume 2560.523073
_symmetry_space_group_name_H-M "I -4 M 2"
_symmetry_group_IT_number 119
_symmetry_cell_setting 'tetragonal'
loop_
_space_group_symop_operation_xyz
x,y,z
y,-x,-z
-x,-y,z
-y,x,-z
y,x,-z
-y,-x,-z
-x,y,z
x,-y,z
1/2+x,1/2+y,1/2+z
1/2+y,1/2-x,1/2-z
1/2-x,1/2-y,1/2+z
1/2-y,1/2+x,1/2-z
1/2+y,1/2+x,1/2-z
1/2-y,1/2-x,1/2-z
1/2-x,1/2+y,1/2+z
1/2+x,1/2-y,1/2+z
loop_
_atom_site_type_symbol
_atom_site_label
_atom_site_fract_x
_atom_site_fract_y
_atom_site_fract_z
Si Si1 0.718415 0.889386 0.690851
Si Si2 0.000000 0.730652 0.984961
Si Si3 0.862579 0.137421 0.500000
Si Si4 0.500000 0.634154 0.250609
Si Si5 0.500000 0.500000 0.500000
Si Si6 0.000000 0.500000 0.750000
Si Si7 0.650551 0.000000 0.411069
O O1 0.679701 0.820300 0.750000
O O2 0.794970 0.864404 0.634129
O O3 0.678983 0.931566 0.519955
O O4 0.719627 0.932784 0.886693
O O5 0.000000 0.808662 0.914675
O O6 0.000000 0.677010 0.808703
O O7 0.859213 0.067836 0.377778
O O8 0.500000 0.562631 0.356060
O O9 0.000000 0.566733 0.604957
#
# Coordination Sequence:
#
# PCOD8311078 Si02
#       7
#    16   8   8   8   2   2   8
#     4  11  25  43  68 100 139 184 235 291 356 432
#     4  11  22  45  72  92 140 185 225 295 361 405
#     4  12  24  45  65  98 142 184 227 299 352 412
#     4  12  23  43  66  97 134 176 230 279 347 409
#     4  12  24  34  68 104 120 170 240 264 322 440
#     4  12  24  40  82  96 132 190 220 288 374 416
#     4  11  23  48  66 105 135 176 235 300 351 431
#
# _framework density 20.308351999999999
#
# number of rings (size 3 to 8) (size 9 to 14) (size 15 to 20)
#    0.000    0.615    3.077    5.538    0.000    3.692 
#    2.769    3.077    0.000    0.000    0.000    0.000 
#    0.000    0.000    0.000    0.000    0.000    0.000 
#
# Total GULP energy -322455.098511 kJ/mol
# GULP energy per Si atom -12402.119174 kJ/mol
# Density = 2.026213 g / cm^3
# Si number density = 20.308352 Si / 1000 Ang^3
#
#
#
# Elastic Constant Matrix: (Units=GPa)
#
#
# Indices 1 2 3 4 5 6 
#
# 1 177.1700 60.3737 72.9383 0.0000 0.0000 0.0000
# 2 60.3737 177.1734 72.9396 0.0000 0.0000 0.0000
# 3 72.9383 72.9396 148.7766 0.0000 0.0000 0.0000
# 4 0.0000 0.0000 0.0000 40.0566 0.0000 0.0000
# 5 0.0000 0.0000 0.0000 0.0000 40.0676 0.0000
# 6 0.0000 0.0000 0.0000 0.0000 0.0000 29.0070
#
#
#
# Elastic Compliance Matrix: (Units=1/GPa)
#
#
# Indices 1 2 3 4 5 6 
#
# 1 0.007292 -0.001269 -0.002953 0.000000 0.000000 0.000000
# 2 -0.001269 0.007292 -0.002953 0.000000 0.000000 0.000000
# 3 -0.002953 -0.002953 0.009617 0.000000 0.000000 0.000000
# 4 0.000000 0.000000 0.000000 0.024965 0.000000 0.000000
# 5 0.000000 0.000000 0.000000 0.000000 0.024958 0.000000
# 6 0.000000 0.000000 0.000000 0.000000 0.000000 0.034474
#
#
# Mechanical properties :
#
#
# Convention : Reuss Voigt Hill
#
# Bulk Modulus (GPa) = 101.50706 101.73590 101.62148
# Shear Modulus (GPa) = 39.60938 41.61745 40.61341
#
# Velocity S-wave (km/s) = 4.42112 4.53181 4.47681
# Velocity P-wave (km/s) = 8.72658 8.80837 8.76757
#
# Compressibility (1/GPa) = 0.00985153
#
# Stress axis : x y z
#
# Youngs Moduli (GPa) = 137.12721 137.12928 103.98447
#
# Poissons Ratio (x) = 0.17406 0.30705
# Poissons Ratio (y) = 0.17406 0.30705
# Poissons Ratio (z) = 0.40492 0.40493
#
# Static dielectric constant tensor:
#      x y z
#    x 3.973660 0.000000 0.000000 
#    y 0.000000 3.973650 0.000000 
#    z 0.000000 0.000000 3.874800 
# 
# 
# High freq. dielectric constant tensor:
#      x y z
#    x 1.810520 0.000000 0.000000 
#    y 0.000000 1.810520 0.000000 
#    z 0.000000 0.000000 1.807190 
# 
# From -- ./inp_files/591.got.cif
#   From: 2010.03.12/outbox.cif.g09.slc.cpg/sg119_1_cif.got.tgz:591.got - 2010.04.14 02:25:26.
