data_PCOD8311183
_publ_section_title
;
Structure prediction by ZEFSAII (Michael W. Deem and Ramdas Pophale) SiO2 
 PCOD8311183
Probable space group: I -4 C 2
;
_chemical_formula_sum "Si O2"
_cell_formula_units_Z 80
_cell_length_a 16.865451
_cell_length_b 16.865451
_cell_length_c 14.429639
_cell_angle_alpha 90.000000
_cell_angle_beta 90.000000
_cell_angle_gamma 90.000000
_cell_volume 4104.416118
_symmetry_space_group_name_H-M "I -4 C 2"
_symmetry_group_IT_number 120
_symmetry_cell_setting 'tetragonal'
loop_
_space_group_symop_operation_xyz
x,y,z
y,-x,-z
-x,-y,z
-y,x,-z
y,x,1/2-z
-y,-x,1/2-z
-x,y,1/2+z
x,-y,1/2+z
1/2+x,1/2+y,1/2+z
1/2+y,1/2-x,1/2-z
1/2-x,1/2-y,1/2+z
1/2-y,1/2+x,1/2-z
1/2+y,1/2+x,-z
1/2-y,1/2-x,-z
1/2-x,1/2+y,z
1/2+x,1/2-y,z
loop_
_atom_site_type_symbol
_atom_site_label
_atom_site_fract_x
_atom_site_fract_y
_atom_site_fract_z
Si Si1 0.422919 0.540708 0.355396
Si Si2 0.617121 0.806515 0.581643
Si Si3 0.181008 0.307634 0.725653
Si Si4 0.700279 0.642521 0.573411
Si Si5 0.237033 0.950240 0.394050
O O1 0.500000 0.500000 0.401333
O O2 0.439712 0.560289 0.250000
O O3 0.411588 0.624848 0.403955
O O4 0.349754 0.480118 0.363927
O O5 0.630156 0.869845 0.500000
O O6 0.640391 0.837606 0.683437
O O7 0.670408 0.730901 0.556929
O O8 0.524443 0.789792 0.578122
O O9 0.228336 0.228336 0.750000
O O10 0.233729 0.360615 0.654731
O O11 0.095787 0.280477 0.688625
O O12 0.737098 0.611117 0.478789
#
# Coordination Sequence:
#
# PCOD8311183 Si02
#       5
#    16  16  16  16  16
#     4  10  23  36  54  91 137 169 200 247 324 385
#     4  10  22  39  60  90 120 160 209 258 309 375
#     4  10  21  40  62  85 121 162 218 256 302 376
#     4  10  20  38  60  87 126 164 208 252 304 376
#     4  11  23  36  65  91 120 169 206 258 320 369
#
# _framework density 19.491201
#
# number of rings (size 3 to 8) (size 9 to 14) (size 15 to 20)
#    0.000    1.800    0.000    6.000    8.400    3.200 
#    0.000    0.000    0.000    7.800    0.000    0.000 
#    0.000    0.000    0.000    0.000    0.000    0.000 
#
# Total GULP energy -496050.496701 kJ/mol
# GULP energy per Si atom -12401.262418 kJ/mol
# Density = 1.944684 g / cm^3
# Si number density = 19.491201 Si / 1000 Ang^3
#
#
#
# Elastic Constant Matrix: (Units=GPa)
#
#
# Indices 1 2 3 4 5 6 
#
# 1 61.2576 86.6128 47.6335 0.0000 0.0000 0.0000
# 2 86.6128 61.2572 47.6312 0.0000 0.0000 0.0000
# 3 47.6335 47.6312 123.6027 0.0000 0.0000 0.0000
# 4 0.0000 0.0000 0.0000 26.8278 0.0000 0.0000
# 5 0.0000 0.0000 0.0000 0.0000 26.8277 0.0000
# 6 0.0000 0.0000 0.0000 0.0000 0.0000 32.0323
#
#
#
# Elastic Compliance Matrix: (Units=1/GPa)
#
#
# Indices 1 2 3 4 5 6 
#
# 1 -0.015222 0.024218 -0.003466 0.000000 0.000000 0.000000
# 2 0.024218 -0.015221 -0.003467 0.000000 0.000000 0.000000
# 3 -0.003466 -0.003467 0.010762 0.000000 0.000000 0.000000
# 4 0.000000 0.000000 0.000000 0.037275 0.000000 0.000000
# 5 0.000000 0.000000 0.000000 0.000000 0.037275 0.000000
# 6 0.000000 0.000000 0.000000 0.000000 0.000000 0.031219
#
#
# Mechanical properties :
#
#
# Convention : Reuss Voigt Hill
#
# Bulk Modulus (GPa) = 67.17052 67.76361 67.46706
# Shear Modulus (GPa) = 88.52429 21.42023 54.97226
#
# Velocity S-wave (km/s) = 6.74657 3.31867 5.31647
# Velocity P-wave (km/s) = 9.75833 7.03750 8.50739
#
# Compressibility (1/GPa) = 0.01488748
#
# Stress axis : x y z
#
# Youngs Moduli (GPa) = -65.69515 -65.69721 92.91577
#
# Poissons Ratio (x) = 1.59104 0.32208
# Poissons Ratio (y) = 1.59099 0.32217
# Poissons Ratio (z) = -0.22772 -0.22779
#
# Static dielectric constant tensor:
#      x y z
#    x 3.600380 0.000000 0.000000 
#    y 0.000000 3.600400 0.000000 
#    z 0.000000 0.000000 3.666690 
# 
# 
# High freq. dielectric constant tensor:
#      x y z
#    x 1.749630 0.000000 0.000000 
#    y 0.000000 1.749630 0.000000 
#    z 0.000000 0.000000 1.773180 
# 
# From -- ./inp_files/3461.got.cif
#   From: 2010.03.12/outbox.cif.g09.slc.cpg/sg120_2_cif.got.tgz:3461.got - 2010.04.06 16:00:44.
