data_PCOD8311045
_publ_section_title
;
Structure prediction by ZEFSAII (Michael W. Deem and Ramdas Pophale) SiO2 
 PCOD8311045
Probable space group: I -4 M 2
;
_chemical_formula_sum "Si O2"
_cell_formula_units_Z 72
_cell_length_a 11.255244
_cell_length_b 11.255244
_cell_length_c 29.936312
_cell_angle_alpha 90.000000
_cell_angle_beta 90.000000
_cell_angle_gamma 90.000000
_cell_volume 3792.347496
_symmetry_space_group_name_H-M "I -4 M 2"
_symmetry_group_IT_number 119
_symmetry_cell_setting 'tetragonal'
loop_
_space_group_symop_operation_xyz
x,y,z
y,-x,-z
-x,-y,z
-y,x,-z
y,x,-z
-y,-x,-z
-x,y,z
x,-y,z
1/2+x,1/2+y,1/2+z
1/2+y,1/2-x,1/2-z
1/2-x,1/2-y,1/2+z
1/2-y,1/2+x,1/2-z
1/2+y,1/2+x,1/2-z
1/2-y,1/2-x,1/2-z
1/2-x,1/2+y,1/2+z
1/2+x,1/2-y,1/2+z
loop_
_atom_site_type_symbol
_atom_site_label
_atom_site_fract_x
_atom_site_fract_y
_atom_site_fract_z
Si Si1 0.282844 0.740464 0.622924
Si Si2 0.362198 0.137001 0.198527
Si Si3 0.304783 0.500000 0.498139
Si Si4 0.500000 0.864355 0.589071
Si Si5 0.362464 0.500000 0.588363
Si Si6 0.133284 0.860169 0.449971
O O1 0.213869 0.732211 0.669978
O O2 0.385762 0.839597 0.620261
O O3 0.347954 0.615218 0.618164
O O4 0.190333 0.769905 0.583850
O O5 0.500000 0.158346 0.187786
O O6 0.335355 0.164646 0.250000
O O7 0.329373 0.000000 0.186962
O O8 0.379241 0.620760 0.500000
O O9 0.211552 0.500000 0.457410
O O10 0.258868 0.500000 0.549762
O O11 0.500000 0.000000 0.573691
O O12 0.500000 0.500000 0.568586
O O13 0.174482 0.825519 0.500000
O O14 0.000000 0.809598 0.440556
O O15 0.130029 0.000000 0.444765
#
# Coordination Sequence:
#
# PCOD8311045 Si02
#       6
#    16  16   8   8   8  16
#     4  12  21  37  60  85 117 151 198 236 297 355
#     4   9  19  37  63  95 122 142 177 240 310 363
#     4  11  18  38  61  82 113 156 202 249 298 337
#     4  12  27  39  56  84 122 165 205 244 289 347
#     4  12  22  36  58  87 117 156 196 248 294 348
#     4   9  20  38  56  77 113 160 200 236 282 337
#
# _framework density 18.985603000000001
#
# number of rings (size 3 to 8) (size 9 to 14) (size 15 to 20)
#    0.000    1.444    5.556    2.667    3.111    0.000 
#    0.000    1.111    4.889    0.000    0.000    0.000 
#    0.000    0.000    0.000    0.000    0.000    0.000 
#
# Total GULP energy -445987.361716 kJ/mol
# GULP energy per Si atom -12388.537825 kJ/mol
# Density = 1.894239 g / cm^3
# Si number density = 18.985603 Si / 1000 Ang^3
#
#
#
# Elastic Constant Matrix: (Units=GPa)
#
#
# Indices 1 2 3 4 5 6 
#
# 1 84.6252 41.6895 54.4028 0.0000 0.0000 0.0000
# 2 41.6895 84.6246 54.4032 0.0000 0.0000 0.0000
# 3 54.4028 54.4032 113.7050 0.0000 0.0000 0.0000
# 4 0.0000 0.0000 0.0000 30.5135 0.0000 0.0000
# 5 0.0000 0.0000 0.0000 0.0000 30.5136 0.0000
# 6 0.0000 0.0000 0.0000 0.0000 0.0000 26.5401
#
#
#
# Elastic Compliance Matrix: (Units=1/GPa)
#
#
# Indices 1 2 3 4 5 6 
#
# 1 0.018379 -0.004912 -0.006443 0.000000 0.000000 0.000000
# 2 -0.004912 0.018379 -0.006444 0.000000 0.000000 0.000000
# 3 -0.006443 -0.006444 0.014960 0.000000 0.000000 0.000000
# 4 0.000000 0.000000 0.000000 0.032772 0.000000 0.000000
# 5 0.000000 0.000000 0.000000 0.000000 0.032772 0.000000
# 6 0.000000 0.000000 0.000000 0.000000 0.000000 0.037679
#
#
# Mechanical properties :
#
#
# Convention : Reuss Voigt Hill
#
# Bulk Modulus (GPa) = 62.03114 64.88286 63.45700
# Shear Modulus (GPa) = 25.52155 26.34405 25.93280
#
# Velocity S-wave (km/s) = 3.67039 3.72907 3.69984
# Velocity P-wave (km/s) = 7.12082 7.26569 7.19362
#
# Compressibility (1/GPa) = 0.01612093
#
# Stress axis : x y z
#
# Youngs Moduli (GPa) = 54.41062 54.40974 66.84281
#
# Poissons Ratio (x) = 0.26725 0.43069
# Poissons Ratio (y) = 0.26726 0.43070
# Poissons Ratio (z) = 0.35058 0.35059
#
# Static dielectric constant tensor:
#      x y z
#    x 3.519350 0.000000 0.000000 
#    y 0.000000 3.519350 0.000000 
#    z 0.000000 0.000000 3.423840 
# 
# 
# High freq. dielectric constant tensor:
#      x y z
#    x 1.733070 0.000000 0.000000 
#    y 0.000000 1.733070 0.000000 
#    z 0.000000 0.000000 1.718550 
# 
# From -- ./inp_files/10068.got.cif
#   From: 2010.03.12/outbox.cif.g09.slc.cpg/sg119_6_cif.got.tgz:10068.got - 2010.04.14 02:25:26.
