data_PCOD8311670
_publ_section_title
;
Structure prediction by ZEFSAII (Michael W. Deem and Ramdas Pophale) SiO2 
 PCOD8311670
Probable space group: I -4 2 M
;
_chemical_formula_sum "Si O2"
_cell_formula_units_Z 68
_cell_length_a 16.513718
_cell_length_b 16.513718
_cell_length_c 13.268623
_cell_angle_alpha 90.000000
_cell_angle_beta 90.000000
_cell_angle_gamma 90.000000
_cell_volume 3618.391735
_symmetry_space_group_name_H-M "I -4 2 M"
_symmetry_group_IT_number 121
_symmetry_cell_setting 'tetragonal'
loop_
_space_group_symop_operation_xyz
x,y,z
y,-x,-z
-x,-y,z
-y,x,-z
x,-y,-z
-x,y,-z
-y,-x,z
y,x,z
1/2+x,1/2+y,1/2+z
1/2+y,1/2-x,1/2-z
1/2-x,1/2-y,1/2+z
1/2-y,1/2+x,1/2-z
1/2+x,1/2-y,1/2-z
1/2-x,1/2+y,1/2-z
1/2-y,1/2-x,1/2+z
1/2+y,1/2+x,1/2+z
loop_
_atom_site_type_symbol
_atom_site_label
_atom_site_fract_x
_atom_site_fract_y
_atom_site_fract_z
Si Si1 0.881258 0.118742 0.901358
Si Si2 0.698276 0.698276 0.421466
Si Si3 0.881554 0.703657 0.749543
Si Si4 0.881309 0.118692 0.596706
Si Si5 0.755111 0.565682 0.751272
Si Si6 0.198652 0.801349 0.422758
Si Si7 0.500000 0.500000 0.500000
Si Si8 0.500000 0.500000 0.000000
O O1 0.916691 0.198023 0.845183
O O2 0.948978 0.051023 0.917953
O O3 0.859168 0.140833 0.014943
O O4 0.642879 0.752732 0.351646
O O5 0.751425 0.751425 0.495955
O O6 0.836969 0.617765 0.751578
O O7 0.854317 0.744201 0.646506
O O8 0.977933 0.704351 0.748183
O O9 0.916490 0.198292 0.652265
O O10 0.860462 0.139539 0.481991
O O11 0.949128 0.050872 0.582229
#
# Coordination Sequence:
#
# PCOD8311670 Si02
#       8
#     8   8  16   8  16   8   2   2
#     4  11  22  41  61  93 124 160 196 252 310 376
#     4  11  19  41  66  84 114 162 217 236 296 378
#     4  11  23  38  61  93 118 162 204 263 293 358
#     4  11  22  41  61  93 124 160 196 252 310 376
#     4  11  23  39  61  87 126 160 208 247 305 359
#     4  11  19  41  66  84 114 162 217 236 296 378
#     4  12  24  34  60  96 128 150 184 270 328 336
#     4  12  24  34  60  96 128 150 184 270 328 336
#
# _framework density 18.79288
#
# number of rings (size 3 to 8) (size 9 to 14) (size 15 to 20)
#    0.000    0.941    4.706    4.235    0.000    4.235 
#    0.000    0.000    0.000    0.000    0.000    0.000 
#    0.000    0.000    0.000    0.000    0.000    0.000 
#
# Total GULP energy -421402.637521 kJ/mol
# GULP energy per Si atom -12394.195221 kJ/mol
# Density = 1.875011 g / cm^3
# Si number density = 18.792880 Si / 1000 Ang^3
#
#
#
# Elastic Constant Matrix: (Units=GPa)
#
#
# Indices 1 2 3 4 5 6 
#
# 1 143.0296 80.8639 37.7147 0.0000 0.0000 0.0000
# 2 80.8639 143.0227 37.7082 0.0000 0.0000 0.0000
# 3 37.7147 37.7082 102.6922 0.0000 0.0000 0.0000
# 4 0.0000 0.0000 0.0000 -9.3572 0.0000 0.0000
# 5 0.0000 0.0000 0.0000 0.0000 -9.3733 0.0000
# 6 0.0000 0.0000 0.0000 0.0000 0.0000 47.0108
#
#
#
# Elastic Compliance Matrix: (Units=1/GPa)
#
#
# Indices 1 2 3 4 5 6 
#
# 1 0.010592 -0.005495 -0.001872 0.000000 0.000000 0.000000
# 2 -0.005495 0.010592 -0.001871 0.000000 0.000000 0.000000
# 3 -0.001872 -0.001871 0.011113 0.000000 0.000000 0.000000
# 4 0.000000 0.000000 0.000000 -0.106869 0.000000 0.000000
# 5 0.000000 0.000000 0.000000 0.000000 -0.106686 0.000000
# 6 0.000000 0.000000 0.000000 0.000000 0.000000 0.021272
#
#
# Mechanical properties :
#
#
# Convention : Reuss Voigt Hill
#
# Bulk Modulus (GPa) = 72.36128 77.92422 75.14275
# Shear Modulus (GPa) = -36.52201 21.15324 -7.68438
#
# Velocity S-wave (km/s) = -4.41318 3.35863 -2.02432
# Velocity P-wave (km/s) = 3.55247 7.52299 5.88283
#
# Compressibility (1/GPa) = 0.01381955
#
# Stress axis : x y z
#
# Youngs Moduli (GPa) = 94.41179 94.41023 89.98817
#
# Poissons Ratio (x) = 0.51878 0.16848
# Poissons Ratio (y) = 0.51879 0.16839
# Poissons Ratio (z) = 0.17676 0.17667
#
# Static dielectric constant tensor:
#      x y z
#    x 3.557540 0.000000 0.000000 
#    y 0.000000 3.557580 0.000000 
#    z 0.000000 0.000000 3.962910 
# 
# 
# High freq. dielectric constant tensor:
#      x y z
#    x 1.730650 0.000000 0.000000 
#    y 0.000000 1.730650 0.000000 
#    z 0.000000 0.000000 1.747810 
# 
# From -- ./inp_files/4207.got.cif
#   From: 2010.03.12/outbox.cif.g09.slc.cpg/sg121_3_cif.got.tgz:4207.got - 2010.04.06 16:06:48.
