data_PCOD8311583
_publ_section_title
;
Structure prediction by ZEFSAII (Michael W. Deem and Ramdas Pophale) SiO2 
 PCOD8311583
Probable space group: I -4 2 M
;
_chemical_formula_sum "Si O2"
_cell_formula_units_Z 96
_cell_length_a 21.759266
_cell_length_b 21.759266
_cell_length_c 9.529604
_cell_angle_alpha 90.000000
_cell_angle_beta 90.000000
_cell_angle_gamma 90.000000
_cell_volume 4511.940217
_symmetry_space_group_name_H-M "I -4 2 M"
_symmetry_group_IT_number 121
_symmetry_cell_setting 'tetragonal'
loop_
_space_group_symop_operation_xyz
x,y,z
y,-x,-z
-x,-y,z
-y,x,-z
x,-y,-z
-x,y,-z
-y,-x,z
y,x,z
1/2+x,1/2+y,1/2+z
1/2+y,1/2-x,1/2-z
1/2-x,1/2-y,1/2+z
1/2-y,1/2+x,1/2-z
1/2+x,1/2-y,1/2-z
1/2-x,1/2+y,1/2-z
1/2-y,1/2-x,1/2+z
1/2+y,1/2+x,1/2+z
loop_
_atom_site_type_symbol
_atom_site_label
_atom_site_fract_x
_atom_site_fract_y
_atom_site_fract_z
Si Si1 0.045159 0.788303 0.804453
Si Si2 0.070938 0.835000 0.528253
Si Si3 0.750445 0.848382 0.654271
Si Si4 0.538996 0.848403 0.794833
Si Si5 0.372557 0.093976 0.593009
Si Si6 0.687602 0.589128 0.399370
O O1 0.081220 0.831525 0.695653
O O2 0.041018 0.724075 0.724451
O O3 0.978010 0.817569 0.830966
O O4 0.084217 0.783501 0.946057
O O5 0.103321 0.896679 0.470936
O O6 0.101040 0.777286 0.451462
O O7 0.000000 0.836845 0.500000
O O8 0.780523 0.780523 0.624215
O O9 0.677313 0.852542 0.631830
O O10 0.766088 0.867631 0.813282
O O11 0.562386 0.880054 0.650105
O O12 0.468180 0.863126 0.819847
O O13 0.580671 0.871759 0.926355
O O14 0.619725 0.619725 0.402724
#
# Coordination Sequence:
#
# PCOD8311583 Si02
#       6
#    16  16  16  16  16  16
#     4  11  21  38  62  90 126 170 220 257 329 379
#     4  11  20  34  57  85 121 166 218 266 321 380
#     4  10  20  39  65  90 127 167 210 268 316 379
#     4  11  25  42  71  93 131 170 208 274 312 397
#     4  11  24  45  65 101 130 165 219 255 330 381
#     4  10  21  35  60  92 124 166 218 266 314 386
#
# _framework density 21.276879000000001
#
# number of rings (size 3 to 8) (size 9 to 14) (size 15 to 20)
#    0.000    1.333    5.000    0.500    2.333    1.167 
#    0.000    4.167    0.000    8.000    0.000    0.000 
#    0.000    0.000    0.000    0.000    0.000    0.000 
#
# Total GULP energy -594979.914143 kJ/mol
# GULP energy per Si atom -12395.414878 kJ/mol
# Density = 2.122845 g / cm^3
# Si number density = 21.276879 Si / 1000 Ang^3
#
#
#
# Elastic Constant Matrix: (Units=GPa)
#
#
# Indices 1 2 3 4 5 6 
#
# 1 58.4153 26.6094 17.2370 0.0000 0.0000 0.0000
# 2 26.6094 58.4154 17.2367 0.0000 0.0000 0.0000
# 3 17.2370 17.2367 102.4951 0.0000 0.0000 0.0000
# 4 0.0000 0.0000 0.0000 24.9052 0.0000 0.0000
# 5 0.0000 0.0000 0.0000 0.0000 24.9056 0.0000
# 6 0.0000 0.0000 0.0000 0.0000 0.0000 27.2403
#
#
#
# Elastic Compliance Matrix: (Units=1/GPa)
#
#
# Indices 1 2 3 4 5 6 
#
# 1 0.022031 -0.009409 -0.002123 0.000000 0.000000 0.000000
# 2 -0.009409 0.022031 -0.002123 0.000000 0.000000 0.000000
# 3 -0.002123 -0.002123 0.010471 0.000000 0.000000 0.000000
# 4 0.000000 0.000000 0.000000 0.040152 0.000000 0.000000
# 5 0.000000 0.000000 0.000000 0.000000 0.040152 0.000000
# 6 0.000000 0.000000 0.000000 0.000000 0.000000 0.036710
#
#
# Mechanical properties :
#
#
# Convention : Reuss Voigt Hill
#
# Bulk Modulus (GPa) = 36.73268 37.94356 37.33812
# Shear Modulus (GPa) = 24.04643 25.95975 25.00309
#
# Velocity S-wave (km/s) = 3.36544 3.49677 3.43174
# Velocity P-wave (km/s) = 5.69238 5.84595 5.76968
#
# Compressibility (1/GPa) = 0.02722372
#
# Stress axis : x y z
#
# Youngs Moduli (GPa) = 45.38996 45.39008 95.50632
#
# Poissons Ratio (x) = 0.42709 0.20273
# Poissons Ratio (y) = 0.42709 0.20272
# Poissons Ratio (z) = 0.09635 0.09635
#
# Static dielectric constant tensor:
#      x y z
#    x 3.803220 0.000000 0.000000 
#    y 0.000000 3.803230 0.000000 
#    z 0.000000 0.000000 4.714200 
# 
# 
# High freq. dielectric constant tensor:
#      x y z
#    x 1.820380 0.000000 0.000000 
#    y 0.000000 1.820380 0.000000 
#    z 0.000000 0.000000 1.853660 
# 
# From -- ./inp_files/1924.got.cif
#   From: 2010.03.12/outbox.cif.g09.slc.cpg/sg121_1_cif.got.tgz:1924.got - 2010.04.06 16:06:48.
