data_PCOD8311990
_publ_section_title
;
Structure prediction by ZEFSAII (Michael W. Deem and Ramdas Pophale) SiO2 
 PCOD8311990
Probable space group: I -4 2 D
;
_chemical_formula_sum "Si O2"
_cell_formula_units_Z 72
_cell_length_a 14.403239
_cell_length_b 14.403239
_cell_length_c 16.590000
_cell_angle_alpha 90.000000
_cell_angle_beta 90.000000
_cell_angle_gamma 90.000000
_cell_volume 3441.650142
_symmetry_space_group_name_H-M "I -4 2 D"
_symmetry_group_IT_number 122
_symmetry_cell_setting 'tetragonal'
loop_
_space_group_symop_operation_xyz
x,y,z
y,-x,-z
-x,-y,z
-y,x,-z
x,1/2-y,1/4-z
-x,1/2+y,1/4-z
-y,1/2-x,1/4+z
y,1/2+x,1/4+z
1/2+x,1/2+y,1/2+z
1/2+y,1/2-x,1/2-z
1/2-x,1/2-y,1/2+z
1/2-y,1/2+x,1/2-z
1/2+x,-y,3/4-z
1/2-x,y,3/4-z
1/2-y,-x,3/4+z
1/2+y,x,3/4+z
loop_
_atom_site_type_symbol
_atom_site_label
_atom_site_fract_x
_atom_site_fract_y
_atom_site_fract_z
Si Si1 0.431229 0.844171 0.030712
Si Si2 0.978133 0.364120 0.713353
Si Si3 0.369370 0.237766 0.715487
Si Si4 0.679552 0.567183 0.436140
Si Si5 0.000000 0.000000 0.159459
O O1 0.456776 0.880832 0.119163
O O2 0.476519 0.744065 0.014328
O O3 0.319826 0.833613 0.023243
O O4 0.468106 0.914283 0.963651
O O5 0.902610 0.419324 0.766939
O O6 0.331990 0.250000 0.625000
O O7 0.334975 0.137172 0.741461
O O8 0.480732 0.238336 0.719920
O O9 0.750000 0.618353 0.375000
O O10 0.582951 0.534256 0.397345
#
# Coordination Sequence:
#
# PCOD8311990 Si02
#       5
#    16  16  16  16   8
#     4  11  25  43  71 105 135 181 231 281 340 409
#     4  10  24  48  70  99 140 183 229 286 337 402
#     4  11  24  45  64 100 137 175 227 278 342 405
#     4  11  24  42  69  97 134 183 219 282 338 406
#     4  12  22  45  69 100 140 176 226 280 343 404
#
# _framework density 20.920197999999999
#
# number of rings (size 3 to 8) (size 9 to 14) (size 15 to 20)
#    0.000    1.111    4.444    2.667    6.222    0.000 
#    8.000    0.000    0.000    0.000    0.000    0.000 
#    0.000    0.000    0.000    0.000    0.000    0.000 
#
# Total GULP energy -446463.000535 kJ/mol
# GULP energy per Si atom -12401.750015 kJ/mol
# Density = 2.087258 g / cm^3
# Si number density = 20.920198 Si / 1000 Ang^3
#
#
#
# Elastic Constant Matrix: (Units=GPa)
#
#
# Indices 1 2 3 4 5 6 
#
# 1 102.4244 16.5133 48.4047 0.0000 0.0000 0.0000
# 2 16.5133 102.4244 48.4047 0.0000 0.0000 0.0000
# 3 48.4047 48.4047 120.7387 0.0000 0.0000 0.0000
# 4 0.0000 0.0000 0.0000 39.7173 0.0000 0.0000
# 5 0.0000 0.0000 0.0000 0.0000 39.7173 0.0000
# 6 0.0000 0.0000 0.0000 0.0000 0.0000 26.7839
#
#
#
# Elastic Compliance Matrix: (Units=1/GPa)
#
#
# Indices 1 2 3 4 5 6 
#
# 1 0.012060 0.000420 -0.005003 0.000000 0.000000 0.000000
# 2 0.000420 0.012060 -0.005003 0.000000 0.000000 0.000000
# 3 -0.005003 -0.005003 0.012294 0.000000 0.000000 0.000000
# 4 0.000000 0.000000 0.000000 0.025178 0.000000 0.000000
# 5 0.000000 0.000000 0.000000 0.000000 0.025178 0.000000
# 6 0.000000 0.000000 0.000000 0.000000 0.000000 0.037336
#
#
# Mechanical properties :
#
#
# Convention : Reuss Voigt Hill
#
# Bulk Modulus (GPa) = 58.00103 61.35923 59.68013
# Shear Modulus (GPa) = 33.55111 35.39468 34.47289
#
# Velocity S-wave (km/s) = 4.00905 4.11772 4.06375
# Velocity P-wave (km/s) = 7.01534 7.21119 7.11394
#
# Compressibility (1/GPa) = 0.01724107
#
# Stress axis : x y z
#
# Youngs Moduli (GPa) = 82.91799 82.91798 81.33967
#
# Poissons Ratio (x) = -0.03484 0.40698
# Poissons Ratio (y) = -0.03484 0.40698
# Poissons Ratio (z) = 0.41487 0.41487
#
# Static dielectric constant tensor:
#      x y z
#    x 3.919280 0.000000 0.000000 
#    y 0.000000 3.919280 0.000000 
#    z 0.000000 0.000000 4.111030 
# 
# 
# High freq. dielectric constant tensor:
#      x y z
#    x 1.825600 0.000000 0.000000 
#    y 0.000000 1.825600 0.000000 
#    z 0.000000 0.000000 1.825260 
# 
# From -- ./inp_files/6116.got.cif
#   From: 2010.03.12/outbox.cif.g09.slc.cpg/sg122_4_cif.got.tgz:6116.got - 2010.04.06 16:17:16.
