data_PCOD8311820
_publ_section_title
;
Structure prediction by ZEFSAII (Michael W. Deem and Ramdas Pophale) SiO2 
 PCOD8311820
Probable space group: I -4 2 D
;
_chemical_formula_sum "Si O2"
_cell_formula_units_Z 112
_cell_length_a 15.698105
_cell_length_b 15.698105
_cell_length_c 21.442586
_cell_angle_alpha 90.000000
_cell_angle_beta 90.000000
_cell_angle_gamma 90.000000
_cell_volume 5284.107202
_symmetry_space_group_name_H-M "I -4 2 D"
_symmetry_group_IT_number 122
_symmetry_cell_setting 'tetragonal'
loop_
_space_group_symop_operation_xyz
x,y,z
y,-x,-z
-x,-y,z
-y,x,-z
x,1/2-y,1/4-z
-x,1/2+y,1/4-z
-y,1/2-x,1/4+z
y,1/2+x,1/4+z
1/2+x,1/2+y,1/2+z
1/2+y,1/2-x,1/2-z
1/2-x,1/2-y,1/2+z
1/2-y,1/2+x,1/2-z
1/2+x,-y,3/4-z
1/2-x,y,3/4-z
1/2-y,-x,3/4+z
1/2+y,x,3/4+z
loop_
_atom_site_type_symbol
_atom_site_label
_atom_site_fract_x
_atom_site_fract_y
_atom_site_fract_z
Si Si1 0.178743 0.730867 0.485506
Si Si2 0.631115 0.173889 0.755785
Si Si3 0.599658 0.380894 0.358540
Si Si4 0.345043 0.156491 0.392032
Si Si5 0.835385 0.087808 0.119561
Si Si6 0.417557 0.604804 0.021954
Si Si7 0.803451 0.963639 0.817233
O O1 0.280056 0.725028 0.493018
O O2 0.149068 0.701475 0.417496
O O3 0.132281 0.665215 0.535031
O O4 0.148932 0.828121 0.493493
O O5 0.620006 0.117439 0.817633
O O6 0.629073 0.105790 0.699763
O O7 0.553967 0.243666 0.744017
O O8 0.499382 0.370133 0.352524
O O9 0.625055 0.462284 0.314948
O O10 0.250000 0.188199 0.375000
O O11 0.410556 0.233456 0.380291
O O12 0.379428 0.080099 0.347486
O O13 0.871245 0.159009 0.166357
O O14 0.511444 0.617858 0.994502
O O15 0.750000 0.999897 0.875000
#
# Coordination Sequence:
#
# PCOD8311820 Si02
#       7
#    16  16  16  16  16  16  16
#     4  10  21  39  60  88 125 163 216 257 320 410
#     4  10  23  39  62  86 126 180 211 269 342 398
#     4  12  24  36  61  95 125 164 220 283 323 401
#     4   9  18  37  64  86 115 165 208 249 323 398
#     4  10  21  37  61  86 119 168 215 263 331 400
#     4  10  20  37  63  93 120 153 207 266 317 389
#     4  10  21  39  57  82 122 164 219 268 320 403
#
# _framework density 21.195632
#
# number of rings (size 3 to 8) (size 9 to 14) (size 15 to 20)
#    0.000    1.857    0.000    5.571    8.000    0.000 
#    0.000    5.714    3.143    0.000    0.000    0.000 
#    0.000    0.000    0.000    0.000    0.000    0.000 
#
# Total GULP energy -693829.562853 kJ/mol
# GULP energy per Si atom -12389.813622 kJ/mol
# Density = 2.114739 g / cm^3
# Si number density = 21.195632 Si / 1000 Ang^3
#
#
#
# Elastic Constant Matrix: (Units=GPa)
#
#
# Indices 1 2 3 4 5 6 
#
# 1 88.0259 31.2765 17.4149 0.0000 0.0000 0.0000
# 2 31.2765 88.0259 17.4148 0.0000 0.0000 0.0000
# 3 17.4149 17.4148 75.4847 0.0000 0.0000 0.0000
# 4 0.0000 0.0000 0.0000 25.9199 0.0000 0.0000
# 5 0.0000 0.0000 0.0000 0.0000 25.9199 0.0000
# 6 0.0000 0.0000 0.0000 0.0000 0.0000 37.9885
#
#
#
# Elastic Compliance Matrix: (Units=1/GPa)
#
#
# Indices 1 2 3 4 5 6 
#
# 1 0.013304 -0.004317 -0.002073 0.000000 0.000000 0.000000
# 2 -0.004317 0.013304 -0.002073 0.000000 0.000000 0.000000
# 3 -0.002073 -0.002073 0.014204 0.000000 0.000000 0.000000
# 4 0.000000 0.000000 0.000000 0.038580 0.000000 0.000000
# 5 0.000000 0.000000 0.000000 0.000000 0.038580 0.000000
# 6 0.000000 0.000000 0.000000 0.000000 0.000000 0.026324
#
#
# Mechanical properties :
#
#
# Convention : Reuss Voigt Hill
#
# Bulk Modulus (GPa) = 41.86656 42.63876 42.25266
# Shear Modulus (GPa) = 29.55303 30.32766 29.94034
#
# Velocity S-wave (km/s) = 3.73808 3.78675 3.76250
# Velocity P-wave (km/s) = 6.19890 6.26736 6.23322
#
# Compressibility (1/GPa) = 0.02388541
#
# Stress axis : x y z
#
# Youngs Moduli (GPa) = 75.16327 75.16327 70.40049
#
# Poissons Ratio (x) = 0.32448 0.14597
# Poissons Ratio (y) = 0.32448 0.14597
# Poissons Ratio (z) = 0.15585 0.15585
#
# Static dielectric constant tensor:
#      x y z
#    x 3.705780 0.000000 0.000000 
#    y 0.000000 3.705780 0.000000 
#    z 0.000000 0.000000 4.126900 
# 
# 
# High freq. dielectric constant tensor:
#      x y z
#    x 1.822980 0.000000 0.000000 
#    y 0.000000 1.822980 0.000000 
#    z 0.000000 0.000000 1.823750 
# 
# From -- ./inp_files/8117.got.cif
#   From: 2010.03.12/outbox.cif.g09.slc.cpg/sg122_5_cif.got.tgz:8117.got - 2010.04.06 16:17:16.
