data_PCOD8311723
_publ_section_title
;
Structure prediction by ZEFSAII (Michael W. Deem and Ramdas Pophale) SiO2 
 PCOD8311723
Probable space group: I -4 2 D
;
_chemical_formula_sum "Si O2"
_cell_formula_units_Z 64
_cell_length_a 11.798955
_cell_length_b 11.798955
_cell_length_c 22.781223
_cell_angle_alpha 90.000000
_cell_angle_beta 90.000000
_cell_angle_gamma 90.000000
_cell_volume 3171.495685
_symmetry_space_group_name_H-M "I -4 2 D"
_symmetry_group_IT_number 122
_symmetry_cell_setting 'tetragonal'
loop_
_space_group_symop_operation_xyz
x,y,z
y,-x,-z
-x,-y,z
-y,x,-z
x,1/2-y,1/4-z
-x,1/2+y,1/4-z
-y,1/2-x,1/4+z
y,1/2+x,1/4+z
1/2+x,1/2+y,1/2+z
1/2+y,1/2-x,1/2-z
1/2-x,1/2-y,1/2+z
1/2-y,1/2+x,1/2-z
1/2+x,-y,3/4-z
1/2-x,y,3/4-z
1/2-y,-x,3/4+z
1/2+y,x,3/4+z
loop_
_atom_site_type_symbol
_atom_site_label
_atom_site_fract_x
_atom_site_fract_y
_atom_site_fract_z
Si Si1 0.243075 0.038122 0.941326
Si Si2 0.104172 0.666342 0.418312
Si Si3 0.500000 0.000000 0.826280
Si Si4 0.620384 0.057488 0.482878
Si Si5 0.137647 0.250000 0.625000
O O1 0.250000 0.090911 0.875000
O O2 0.110652 0.036551 0.962299
O O3 0.288705 0.909431 0.937949
O O4 0.316621 0.107473 0.988686
O O5 0.146308 0.788138 0.398608
O O6 0.034080 0.604882 0.367253
O O7 0.020104 0.688263 0.471897
O O8 0.697646 0.059380 0.425427
O O9 0.500000 0.000000 0.468644
#
# Coordination Sequence:
#
# PCOD8311723 Si02
#       5
#    16  16   8  16   8
#     4   9  15  33  63  92 130 167 199 270 342 388
#     4  10  18  38  63  92 127 168 220 270 324 393
#     4  10  14  32  65  94 136 158 205 272 348 402
#     4  10  22  44  65  88 136 175 220 278 327 391
#     4  12  24  42  66  92 128 180 228 276 322 390
#
# _framework density 20.179753999999999
#
# number of rings (size 3 to 8) (size 9 to 14) (size 15 to 20)
#    0.000    2.000   10.000    0.000    0.000    0.000 
#   13.500    1.250    0.000    0.000    0.000    7.000 
#    0.000    0.000    0.000    0.000    0.000    0.000 
#
# Total GULP energy -396709.304352 kJ/mol
# GULP energy per Si atom -12397.165761 kJ/mol
# Density = 2.013382 g / cm^3
# Si number density = 20.179754 Si / 1000 Ang^3
#
#
#
# Elastic Constant Matrix: (Units=GPa)
#
#
# Indices 1 2 3 4 5 6 
#
# 1 117.2275 34.3151 54.7522 0.0000 0.0000 0.0000
# 2 34.3151 117.2275 54.7522 0.0000 0.0000 0.0000
# 3 54.7522 54.7522 121.4830 0.0000 0.0000 0.0000
# 4 0.0000 0.0000 0.0000 2.8039 0.0000 0.0000
# 5 0.0000 0.0000 0.0000 0.0000 2.8039 0.0000
# 6 0.0000 0.0000 0.0000 0.0000 0.0000 21.6598
#
#
#
# Elastic Compliance Matrix: (Units=1/GPa)
#
#
# Indices 1 2 3 4 5 6 
#
# 1 0.010923 -0.001138 -0.004410 0.000000 0.000000 0.000000
# 2 -0.001138 0.010923 -0.004410 0.000000 0.000000 0.000000
# 3 -0.004410 -0.004410 0.012207 0.000000 0.000000 0.000000
# 4 0.000000 0.000000 0.000000 0.356646 0.000000 0.000000
# 5 0.000000 0.000000 0.000000 0.000000 0.356646 0.000000
# 6 0.000000 0.000000 0.000000 0.000000 0.000000 0.046168
#
#
# Mechanical properties :
#
#
# Convention : Reuss Voigt Hill
#
# Bulk Modulus (GPa) = 70.73653 71.50858 71.12255
# Shear Modulus (GPa) = 6.11139 19.59475 12.85307
#
# Velocity S-wave (km/s) = 1.74214 3.11948 2.52648
# Velocity P-wave (km/s) = 6.25908 6.96331 6.62056
#
# Compressibility (1/GPa) = 0.01413697
#
# Stress axis : x y z
#
# Youngs Moduli (GPa) = 91.54699 91.54699 81.91913
#
# Poissons Ratio (x) = 0.10414 0.36130
# Poissons Ratio (y) = 0.10414 0.36130
# Poissons Ratio (z) = 0.40376 0.40376
#
# Static dielectric constant tensor:
#      x y z
#    x 3.930830 0.000000 0.000000 
#    y 0.000000 3.930830 0.000000 
#    z 0.000000 0.000000 3.655810 
# 
# 
# High freq. dielectric constant tensor:
#      x y z
#    x 1.771640 0.000000 0.000000 
#    y 0.000000 1.771640 0.000000 
#    z 0.000000 0.000000 1.788850 
# 
# From -- ./inp_files/7886.got.cif
#   From: 2010.03.12/outbox.cif.g09.slc.cpg/sg122_4_cif.got.tgz:7886.got - 2010.04.06 16:17:16.
