data_PCOD8311591
_publ_section_title
;
Structure prediction by ZEFSAII (Michael W. Deem and Ramdas Pophale) SiO2 
 PCOD8311591
Probable space group: I -4 2 M
;
_chemical_formula_sum "Si O2"
_cell_formula_units_Z 64
_cell_length_a 16.554339
_cell_length_b 16.554339
_cell_length_c 12.344463
_cell_angle_alpha 90.000000
_cell_angle_beta 90.000000
_cell_angle_gamma 90.000000
_cell_volume 3382.952432
_symmetry_space_group_name_H-M "I -4 2 M"
_symmetry_group_IT_number 121
_symmetry_cell_setting 'tetragonal'
loop_
_space_group_symop_operation_xyz
x,y,z
y,-x,-z
-x,-y,z
-y,x,-z
x,-y,-z
-x,y,-z
-y,-x,z
y,x,z
1/2+x,1/2+y,1/2+z
1/2+y,1/2-x,1/2-z
1/2-x,1/2-y,1/2+z
1/2-y,1/2+x,1/2-z
1/2+x,1/2-y,1/2-z
1/2-x,1/2+y,1/2-z
1/2-y,1/2-x,1/2+z
1/2+y,1/2+x,1/2+z
loop_
_atom_site_type_symbol
_atom_site_label
_atom_site_fract_x
_atom_site_fract_y
_atom_site_fract_z
Si Si1 0.942388 0.819776 0.593415
Si Si2 0.893783 0.566747 0.584714
Si Si3 0.703031 0.830479 0.458885
Si Si4 0.526108 0.177354 0.190626
O O1 0.894685 0.894685 0.649097
O O2 0.879409 0.764069 0.532136
O O3 0.000000 0.855126 0.500000
O O4 0.988894 0.767938 0.684950
O O5 0.922505 0.500000 0.500000
O O6 0.823094 0.621662 0.530514
O O7 0.855184 0.522830 0.688168
O O8 0.973898 0.617880 0.614472
O O9 0.742928 0.742928 0.429555
O O10 0.681058 0.881063 0.350305
#
# Coordination Sequence:
#
# PCOD8311591 Si02
#       4
#    16  16  16  16
#     4   8  15  30  51  76 104 135 175 221 270 322
#     4  11  22  35  52  80 111 142 180 221 268 327
#     4   9  19  35  52  71 100 137 177 222 270 320
#     4  10  21  34  53  77 107 146 179 221 275 327
#
# _framework density 18.918385000000001
#
# number of rings (size 3 to 8) (size 9 to 14) (size 15 to 20)
#    0.000    2.500    0.000    3.750    0.000    7.750 
#    0.000    6.250    0.000    0.000    0.000    0.000 
#    0.000    2.500    0.000    1.000    0.000    0.000 
#
# Total GULP energy -396536.121412 kJ/mol
# GULP energy per Si atom -12391.753794 kJ/mol
# Density = 1.887533 g / cm^3
# Si number density = 18.918385 Si / 1000 Ang^3
#
#
#
# Elastic Constant Matrix: (Units=GPa)
#
#
# Indices 1 2 3 4 5 6 
#
# 1 80.9015 60.9492 42.5756 0.0000 0.0000 0.0000
# 2 60.9492 80.9015 42.5756 0.0000 0.0000 0.0000
# 3 42.5756 42.5756 92.3459 0.0000 0.0000 0.0000
# 4 0.0000 0.0000 0.0000 15.8280 0.0000 0.0000
# 5 0.0000 0.0000 0.0000 0.0000 15.8280 0.0000
# 6 0.0000 0.0000 0.0000 0.0000 0.0000 34.2522
#
#
#
# Elastic Compliance Matrix: (Units=1/GPa)
#
#
# Indices 1 2 3 4 5 6 
#
# 1 0.029933 -0.020186 -0.004494 0.000000 0.000000 0.000000
# 2 -0.020186 0.029933 -0.004494 0.000000 0.000000 0.000000
# 3 -0.004494 -0.004494 0.014973 0.000000 0.000000 0.000000
# 4 0.000000 0.000000 0.000000 0.063179 0.000000 0.000000
# 5 0.000000 0.000000 0.000000 0.000000 0.063179 0.000000
# 6 0.000000 0.000000 0.000000 0.000000 0.000000 0.029195
#
#
# Mechanical properties :
#
#
# Convention : Reuss Voigt Hill
#
# Bulk Modulus (GPa) = 60.63725 60.70554 60.67139
# Shear Modulus (GPa) = 16.99303 20.38488 18.68896
#
# Velocity S-wave (km/s) = 3.00030 3.28612 3.14645
# Velocity P-wave (km/s) = 6.64259 6.82319 6.73349
#
# Compressibility (1/GPa) = 0.01649151
#
# Stress axis : x y z
#
# Youngs Moduli (GPa) = 33.40746 33.40746 66.78829
#
# Poissons Ratio (x) = 0.67437 0.30014
# Poissons Ratio (y) = 0.67437 0.30014
# Poissons Ratio (z) = 0.15013 0.15013
#
# Static dielectric constant tensor:
#      x y z
#    x 4.033160 0.000000 0.000000 
#    y 0.000000 4.033160 0.000000 
#    z 0.000000 0.000000 3.259520 
# 
# 
# High freq. dielectric constant tensor:
#      x y z
#    x 1.724300 0.000000 0.000000 
#    y 0.000000 1.724300 0.000000 
#    z 0.000000 0.000000 1.708780 
# 
# From -- ./inp_files/2905.got.cif
#   From: 2010.03.12/outbox.cif.g09.slc.cpg/sg121_2_cif.got.tgz:2905.got - 2010.04.06 16:06:48.
