data_PCOD8311799
_publ_section_title
;
Structure prediction by ZEFSAII (Michael W. Deem and Ramdas Pophale) SiO2 
 PCOD8311799
Probable space group: I -4 2 D
;
_chemical_formula_sum "Si O2"
_cell_formula_units_Z 56
_cell_length_a 11.705627
_cell_length_b 11.705627
_cell_length_c 21.419686
_cell_angle_alpha 90.000000
_cell_angle_beta 90.000000
_cell_angle_gamma 90.000000
_cell_volume 2934.961863
_symmetry_space_group_name_H-M "I -4 2 D"
_symmetry_group_IT_number 122
_symmetry_cell_setting 'tetragonal'
loop_
_space_group_symop_operation_xyz
x,y,z
y,-x,-z
-x,-y,z
-y,x,-z
x,1/2-y,1/4-z
-x,1/2+y,1/4-z
-y,1/2-x,1/4+z
y,1/2+x,1/4+z
1/2+x,1/2+y,1/2+z
1/2+y,1/2-x,1/2-z
1/2-x,1/2-y,1/2+z
1/2-y,1/2+x,1/2-z
1/2+x,-y,3/4-z
1/2-x,y,3/4-z
1/2-y,-x,3/4+z
1/2+y,x,3/4+z
loop_
_atom_site_type_symbol
_atom_site_label
_atom_site_fract_x
_atom_site_fract_y
_atom_site_fract_z
Si Si1 0.676708 0.507832 0.013253
Si Si2 0.914914 0.591123 0.521589
Si Si3 0.500000 0.000000 0.901561
Si Si4 0.616467 0.219690 0.864604
O O1 0.711094 0.562758 0.078566
O O2 0.600186 0.395457 0.026377
O O3 0.785199 0.473549 0.971477
O O4 0.904422 0.557376 0.447826
O O5 0.789484 0.590875 0.551481
O O6 0.000000 0.500000 0.555291
O O7 0.441630 0.904761 0.857993
O O8 0.750000 0.203116 0.875000
#
# Coordination Sequence:
#
# PCOD8311799 Si02
#       4
#    16  16   8  16
#     4  10  20  34  57  92 121 150 201 257 309 366
#     4   9  20  36  58  86 121 159 197 257 299 364
#     4   8  22  40  54  87 123 154 210 252 286 374
#     4  11  20  38  61  84 121 164 199 250 315 358
#
# _framework density 19.080317999999998
#
# number of rings (size 3 to 8) (size 9 to 14) (size 15 to 20)
#    0.857    1.429    2.857    0.000    4.000    0.000 
#    0.000    8.571    0.000    0.000    0.000    0.000 
#    0.000    0.000    0.000    0.000    0.000    0.000 
#
# Total GULP energy -347003.158448 kJ/mol
# GULP energy per Si atom -12392.969945 kJ/mol
# Density = 1.903689 g / cm^3
# Si number density = 19.080318 Si / 1000 Ang^3
#
#
#
# Elastic Constant Matrix: (Units=GPa)
#
#
# Indices 1 2 3 4 5 6 
#
# 1 157.8600 84.0066 44.4902 0.0000 0.0000 0.0000
# 2 84.0066 157.8600 44.4902 0.0000 0.0000 0.0000
# 3 44.4902 44.4902 51.9892 0.0000 0.0000 0.0000
# 4 0.0000 0.0000 0.0000 22.0315 0.0000 0.0000
# 5 0.0000 0.0000 0.0000 0.0000 22.0315 0.0000
# 6 0.0000 0.0000 0.0000 0.0000 0.0000 36.3863
#
#
#
# Elastic Compliance Matrix: (Units=1/GPa)
#
#
# Indices 1 2 3 4 5 6 
#
# 1 0.009787 -0.003753 -0.005164 0.000000 0.000000 0.000000
# 2 -0.003753 0.009787 -0.005164 0.000000 0.000000 0.000000
# 3 -0.005164 -0.005164 0.028073 0.000000 0.000000 0.000000
# 4 0.000000 0.000000 0.000000 0.045390 0.000000 0.000000
# 5 0.000000 0.000000 0.000000 0.000000 0.045390 0.000000
# 6 0.000000 0.000000 0.000000 0.000000 0.000000 0.027483
#
#
# Mechanical properties :
#
#
# Convention : Reuss Voigt Hill
#
# Bulk Modulus (GPa) = 51.31931 79.29814 65.30872
# Shear Modulus (GPa) = 24.92943 29.07134 27.00038
#
# Velocity S-wave (km/s) = 3.61855 3.90760 3.76585
# Velocity P-wave (km/s) = 6.66434 7.87462 7.29462
#
# Compressibility (1/GPa) = 0.01948584
#
# Stress axis : x y z
#
# Youngs Moduli (GPa) = 102.17331 102.17331 35.62169
#
# Poissons Ratio (x) = 0.38346 0.18395
# Poissons Ratio (y) = 0.38346 0.18395
# Poissons Ratio (z) = 0.52761 0.52761
#
# Static dielectric constant tensor:
#      x y z
#    x 3.622110 0.000000 0.000000 
#    y 0.000000 3.622110 0.000000 
#    z 0.000000 0.000000 3.067340 
# 
# 
# High freq. dielectric constant tensor:
#      x y z
#    x 1.748220 0.000000 0.000000 
#    y 0.000000 1.748220 0.000000 
#    z 0.000000 0.000000 1.702750 
# 
# From -- ./inp_files/6796.got.cif
#   From: 2010.03.12/outbox.cif.g09.slc.cpg/sg122_4_cif.got.tgz:6796.got - 2010.04.06 16:17:16.
