data_PCOD8311330
_publ_section_title
;
Structure prediction by ZEFSAII (Michael W. Deem and Ramdas Pophale) SiO2 
 PCOD8311330
Probable space group: I -4 C 2
;
_chemical_formula_sum "Si O2"
_cell_formula_units_Z 48
_cell_length_a 8.942537
_cell_length_b 8.942537
_cell_length_c 25.441394
_cell_angle_alpha 90.000000
_cell_angle_beta 90.000000
_cell_angle_gamma 90.000000
_cell_volume 2034.522023
_symmetry_space_group_name_H-M "I -4 C 2"
_symmetry_group_IT_number 120
_symmetry_cell_setting 'tetragonal'
loop_
_space_group_symop_operation_xyz
x,y,z
y,-x,-z
-x,-y,z
-y,x,-z
y,x,1/2-z
-y,-x,1/2-z
-x,y,1/2+z
x,-y,1/2+z
1/2+x,1/2+y,1/2+z
1/2+y,1/2-x,1/2-z
1/2-x,1/2-y,1/2+z
1/2-y,1/2+x,1/2-z
1/2+y,1/2+x,-z
1/2-y,1/2-x,-z
1/2-x,1/2+y,z
1/2+x,1/2-y,z
loop_
_atom_site_type_symbol
_atom_site_label
_atom_site_fract_x
_atom_site_fract_y
_atom_site_fract_z
Si Si1 0.851106 0.080772 0.618989
Si Si2 0.430443 0.217773 0.771893
Si Si3 0.362212 0.888617 0.059721
O O1 0.725387 0.079154 0.664935
O O2 0.884016 0.247638 0.598401
O O3 0.788086 0.979061 0.572238
O O4 0.000000 0.000000 0.640135
O O5 0.378008 0.378008 0.750000
O O6 0.594552 0.184020 0.750648
O O7 0.500000 0.000000 0.066760
O O8 0.337715 0.837715 0.000000
#
# Coordination Sequence:
#
# PCOD8311330 Si02
#       3
#    16  16  16
#     4  12  28  48  80 110 153 209 261 322 401 472
#     4  11  28  48  75 109 151 194 251 312 379 460
#     4  11  28  48  78 115 156 200 260 329 392 476
#
# _framework density 23.592766999999998
#
# number of rings (size 3 to 8) (size 9 to 14) (size 15 to 20)
#    0.000    0.667    0.000    4.000   28.000    0.000 
#    0.000    0.000    0.000    0.000    0.000    0.000 
#    0.000    0.000    0.000    0.000    0.000    0.000 
#
# Total GULP energy -297685.600208 kJ/mol
# GULP energy per Si atom -12403.566675 kJ/mol
# Density = 2.353907 g / cm^3
# Si number density = 23.592767 Si / 1000 Ang^3
#
#
#
# Elastic Constant Matrix: (Units=GPa)
#
#
# Indices 1 2 3 4 5 6 
#
# 1 107.4968 42.6391 58.3592 0.0000 0.0000 0.0000
# 2 42.6391 107.4968 58.3592 0.0000 0.0000 0.0000
# 3 58.3592 58.3592 173.8457 0.0000 0.0000 0.0000
# 4 0.0000 0.0000 0.0000 37.2232 0.0000 0.0000
# 5 0.0000 0.0000 0.0000 0.0000 37.2232 0.0000
# 6 0.0000 0.0000 0.0000 0.0000 0.0000 57.8777
#
#
#
# Elastic Compliance Matrix: (Units=1/GPa)
#
#
# Indices 1 2 3 4 5 6 
#
# 1 0.012216 -0.003203 -0.003026 0.000000 0.000000 0.000000
# 2 -0.003203 0.012216 -0.003026 0.000000 0.000000 0.000000
# 3 -0.003026 -0.003026 0.007784 0.000000 0.000000 0.000000
# 4 0.000000 0.000000 0.000000 0.026865 0.000000 0.000000
# 5 0.000000 0.000000 0.000000 0.000000 0.026865 0.000000
# 6 0.000000 0.000000 0.000000 0.000000 0.000000 0.017278
#
#
# Mechanical properties :
#
#
# Convention : Reuss Voigt Hill
#
# Bulk Modulus (GPa) = 72.95606 78.61716 75.78661
# Shear Modulus (GPa) = 39.58858 41.76363 40.67610
#
# Velocity S-wave (km/s) = 4.10078 4.21192 4.15672
# Velocity P-wave (km/s) = 7.30835 7.55306 7.43171
#
# Compressibility (1/GPa) = 0.01370688
#
# Stress axis : x y z
#
# Youngs Moduli (GPa) = 81.86286 81.86286 128.47612
#
# Poissons Ratio (x) = 0.26219 0.38871
# Poissons Ratio (y) = 0.26219 0.38871
# Poissons Ratio (z) = 0.24768 0.24768
#
# Static dielectric constant tensor:
#      x y z
#    x 4.304210 0.000000 0.000000 
#    y 0.000000 4.304210 0.000000 
#    z 0.000000 0.000000 4.328710 
# 
# 
# High freq. dielectric constant tensor:
#      x y z
#    x 1.944670 0.000000 0.000000 
#    y 0.000000 1.944670 0.000000 
#    z 0.000000 0.000000 1.943350 
# 
# From -- ./inp_files/6347.got.cif
#   From: 2010.03.12/outbox.cif.g09.slc.cpg/sg120_4_cif.got.tgz:6347.got - 2010.04.06 16:00:44.
