data_PCOD8311294
_publ_section_title
;
Structure prediction by ZEFSAII (Michael W. Deem and Ramdas Pophale) SiO2 
 PCOD8311294
Probable space group: I -4 C 2
;
_chemical_formula_sum "Si O2"
_cell_formula_units_Z 116
_cell_length_a 17.128065
_cell_length_b 17.128065
_cell_length_c 17.104437
_cell_angle_alpha 90.000000
_cell_angle_beta 90.000000
_cell_angle_gamma 90.000000
_cell_volume 5017.939127
_symmetry_space_group_name_H-M "I -4 C 2"
_symmetry_group_IT_number 120
_symmetry_cell_setting 'tetragonal'
loop_
_space_group_symop_operation_xyz
x,y,z
y,-x,-z
-x,-y,z
-y,x,-z
y,x,1/2-z
-y,-x,1/2-z
-x,y,1/2+z
x,-y,1/2+z
1/2+x,1/2+y,1/2+z
1/2+y,1/2-x,1/2-z
1/2-x,1/2-y,1/2+z
1/2-y,1/2+x,1/2-z
1/2+y,1/2+x,-z
1/2-y,1/2-x,-z
1/2-x,1/2+y,z
1/2+x,1/2-y,z
loop_
_atom_site_type_symbol
_atom_site_label
_atom_site_fract_x
_atom_site_fract_y
_atom_site_fract_z
Si Si1 0.597979 0.373895 0.948857
Si Si2 0.190120 0.170163 0.392071
Si Si3 0.658289 0.039624 0.488643
Si Si4 0.839936 0.251268 0.120130
Si Si5 0.810016 0.429450 0.740636
Si Si6 0.000000 0.000000 0.500000
Si Si7 0.429943 0.167874 0.648311
Si Si8 0.225383 0.026392 0.123722
O O1 0.659213 0.360807 0.878987
O O2 0.514467 0.334879 0.933878
O O3 0.636661 0.335933 0.024936
O O4 0.574873 0.466090 0.952427
O O5 0.238600 0.249933 0.403351
O O6 0.245448 0.108765 0.346140
O O7 0.109849 0.191657 0.346383
O O8 0.569977 0.069977 0.500000
O O9 0.708032 0.104002 0.442155
O O10 0.694204 0.034827 0.575443
O O11 0.655676 0.957272 0.441916
O O12 0.855655 0.282631 0.207797
O O13 0.845843 0.495219 0.796974
O O14 0.869331 0.398636 0.674502
O O15 0.738034 0.471574 0.698332
#
# Coordination Sequence:
#
# PCOD8311294 Si02
#       8
#    16  16  16  16  16   4  16  16
#     4  12  23  40  71 107 141 183 234 297 363 428
#     4  12  23  44  77 105 133 195 244 303 352 426
#     4  11  21  43  73 105 136 186 242 301 349 427
#     4  11  23  43  75  99 143 186 249 299 354 432
#     4  11  28  47  68 105 144 191 237 298 372 434
#     4  12  24  40  64 110 152 180 216 298 392 428
#     4  11  27  48  72 102 149 191 243 291 372 437
#     4  12  24  42  71 109 141 180 242 298 356 432
#
# _framework density 23.117059999999999
#
# number of rings (size 3 to 8) (size 9 to 14) (size 15 to 20)
#    0.000    0.552    5.517    2.069    3.862    4.690 
#    0.000    0.690    0.000    0.828    0.000    0.000 
#    0.000    0.000    0.000    0.000    0.000    0.000 
#
# Total GULP energy -718988.470296 kJ/mol
# GULP energy per Si atom -12396.352936 kJ/mol
# Density = 2.306444 g / cm^3
# Si number density = 23.117060 Si / 1000 Ang^3
#
#
#
# Elastic Constant Matrix: (Units=GPa)
#
#
# Indices 1 2 3 4 5 6 
#
# 1 124.6545 59.6584 25.0084 0.0000 0.0000 0.0000
# 2 59.6584 124.6544 25.0084 0.0000 0.0000 0.0000
# 3 25.0084 25.0084 53.6934 0.0000 0.0000 0.0000
# 4 0.0000 0.0000 0.0000 27.6333 0.0000 0.0000
# 5 0.0000 0.0000 0.0000 0.0000 27.6333 0.0000
# 6 0.0000 0.0000 0.0000 0.0000 0.0000 51.1459
#
#
#
# Elastic Compliance Matrix: (Units=1/GPa)
#
#
# Indices 1 2 3 4 5 6 
#
# 1 0.010798 -0.004588 -0.002893 0.000000 0.000000 0.000000
# 2 -0.004588 0.010798 -0.002893 0.000000 0.000000 0.000000
# 3 -0.002893 -0.002893 0.021319 0.000000 0.000000 0.000000
# 4 0.000000 0.000000 0.000000 0.036188 0.000000 0.000000
# 5 0.000000 0.000000 0.000000 0.000000 0.036188 0.000000
# 6 0.000000 0.000000 0.000000 0.000000 0.000000 0.019552
#
#
# Mechanical properties :
#
#
# Convention : Reuss Voigt Hill
#
# Bulk Modulus (GPa) = 45.10732 58.03918 51.57325
# Shear Modulus (GPa) = 30.67888 34.17098 32.42493
#
# Velocity S-wave (km/s) = 3.64690 3.84887 3.74925
# Velocity P-wave (km/s) = 6.10640 6.70171 6.41097
#
# Compressibility (1/GPa) = 0.02216935
#
# Stress axis : x y z
#
# Youngs Moduli (GPa) = 92.60940 92.60940 46.90689
#
# Poissons Ratio (x) = 0.42485 0.13568
# Poissons Ratio (y) = 0.42485 0.13568
# Poissons Ratio (z) = 0.26789 0.26788
#
# Static dielectric constant tensor:
#      x y z
#    x 4.305700 0.000000 0.000000 
#    y 0.000000 4.305700 0.000000 
#    z 0.000000 0.000000 4.035700 
# 
# 
# High freq. dielectric constant tensor:
#      x y z
#    x 1.919810 0.000000 0.000000 
#    y 0.000000 1.919810 0.000000 
#    z 0.000000 0.000000 1.895030 
# 
# From -- ./inp_files/4584.got.cif
#   From: 2010.03.12/outbox.cif.g09.slc.cpg/sg120_3_cif.got.tgz:4584.got - 2010.04.06 16:00:44.
