data_PCOD8311870
_publ_section_title
;
Structure prediction by ZEFSAII (Michael W. Deem and Ramdas Pophale) SiO2 
 PCOD8311870
Probable space group: I -4 2 D
;
_chemical_formula_sum "Si O2"
_cell_formula_units_Z 56
_cell_length_a 12.795655
_cell_length_b 12.795655
_cell_length_c 17.290109
_cell_angle_alpha 90.000000
_cell_angle_beta 90.000000
_cell_angle_gamma 90.000000
_cell_volume 2830.888572
_symmetry_space_group_name_H-M "I -4 2 D"
_symmetry_group_IT_number 122
_symmetry_cell_setting 'tetragonal'
loop_
_space_group_symop_operation_xyz
x,y,z
y,-x,-z
-x,-y,z
-y,x,-z
x,1/2-y,1/4-z
-x,1/2+y,1/4-z
-y,1/2-x,1/4+z
y,1/2+x,1/4+z
1/2+x,1/2+y,1/2+z
1/2+y,1/2-x,1/2-z
1/2-x,1/2-y,1/2+z
1/2-y,1/2+x,1/2-z
1/2+x,-y,3/4-z
1/2-x,y,3/4-z
1/2-y,-x,3/4+z
1/2+y,x,3/4+z
loop_
_atom_site_type_symbol
_atom_site_label
_atom_site_fract_x
_atom_site_fract_y
_atom_site_fract_z
Si Si1 0.933681 0.629595 0.793946
Si Si2 0.569905 0.138574 0.716098
Si Si3 0.866900 0.636601 0.457749
Si Si4 0.000000 0.000000 0.683135
O O1 0.862507 0.547516 0.746351
O O2 0.875761 0.739044 0.795788
O O3 0.947571 0.590397 0.881640
O O4 0.446112 0.131623 0.732530
O O5 0.586624 0.115793 0.625950
O O6 0.610908 0.252130 0.740279
O O7 0.953486 0.591925 0.514801
#
# Coordination Sequence:
#
# PCOD8311870 Si02
#       4
#    16  16  16   8
#     4   9  22  40  57  86 121 148 189 241 281 337
#     4  10  22  40  56  84 121 146 188 241 281 338
#     4  11  22  37  64  85 110 159 190 229 292 337
#     4  10  21  38  59  88 116 148 194 236 281 340
#
# _framework density 19.781773999999999
#
# number of rings (size 3 to 8) (size 9 to 14) (size 15 to 20)
#    0.000    2.286    0.000    3.429    0.000   11.429 
#    0.000    8.571    0.000    0.000    0.000    0.000 
#    0.000    0.000    0.000    0.000    0.000    0.000 
#
# Total GULP energy -347274.516928 kJ/mol
# GULP energy per Si atom -12402.661319 kJ/mol
# Density = 1.973675 g / cm^3
# Si number density = 19.781774 Si / 1000 Ang^3
#
#
#
# Elastic Constant Matrix: (Units=GPa)
#
#
# Indices 1 2 3 4 5 6 
#
# 1 128.1177 64.8172 42.2012 0.0000 0.0000 0.0000
# 2 64.8172 128.1177 42.2012 0.0000 0.0000 0.0000
# 3 42.2012 42.2012 97.5425 0.0000 0.0000 0.0000
# 4 0.0000 0.0000 0.0000 24.1227 0.0000 0.0000
# 5 0.0000 0.0000 0.0000 0.0000 24.1227 0.0000
# 6 0.0000 0.0000 0.0000 0.0000 0.0000 28.9134
#
#
#
# Elastic Compliance Matrix: (Units=1/GPa)
#
#
# Indices 1 2 3 4 5 6 
#
# 1 0.011095 -0.004702 -0.002766 0.000000 0.000000 0.000000
# 2 -0.004702 0.011095 -0.002766 0.000000 0.000000 0.000000
# 3 -0.002766 -0.002766 0.012645 0.000000 0.000000 0.000000
# 4 0.000000 0.000000 0.000000 0.041455 0.000000 0.000000
# 5 0.000000 0.000000 0.000000 0.000000 0.041455 0.000000
# 6 0.000000 0.000000 0.000000 0.000000 0.000000 0.034586
#
#
# Mechanical properties :
#
#
# Convention : Reuss Voigt Hill
#
# Bulk Modulus (GPa) = 69.60045 72.46857 71.03451
# Shear Modulus (GPa) = 28.15489 29.06898 28.61193
#
# Velocity S-wave (km/s) = 3.77672 3.83754 3.80725
# Velocity P-wave (km/s) = 7.36741 7.50661 7.43733
#
# Compressibility (1/GPa) = 0.01436772
#
# Stress axis : x y z
#
# Youngs Moduli (GPa) = 90.12755 90.12755 79.08091
#
# Poissons Ratio (x) = 0.42381 0.21873
# Poissons Ratio (y) = 0.42381 0.21873
# Poissons Ratio (z) = 0.24929 0.24929
#
# Static dielectric constant tensor:
#      x y z
#    x 3.556540 0.000000 0.000000 
#    y 0.000000 3.556540 0.000000 
#    z 0.000000 0.000000 3.690580 
# 
# 
# High freq. dielectric constant tensor:
#      x y z
#    x 1.771520 0.000000 0.000000 
#    y 0.000000 1.771520 0.000000 
#    z 0.000000 0.000000 1.780850 
# 
# From -- ./inp_files/5059.got.cif
#   From: 2010.03.12/outbox.cif.g09.slc.cpg/sg122_3_cif.got.tgz:5059.got - 2010.04.06 16:17:16.
