data_PCOD8311730
_publ_section_title
;
Structure prediction by ZEFSAII (Michael W. Deem and Ramdas Pophale) SiO2 
 PCOD8311730
Probable space group: I -4 2 D
;
_chemical_formula_sum "Si O2"
_cell_formula_units_Z 72
_cell_length_a 10.547963
_cell_length_b 10.547963
_cell_length_c 34.707565
_cell_angle_alpha 90.000000
_cell_angle_beta 90.000000
_cell_angle_gamma 90.000000
_cell_volume 3861.547142
_symmetry_space_group_name_H-M "I -4 2 D"
_symmetry_group_IT_number 122
_symmetry_cell_setting 'tetragonal'
loop_
_space_group_symop_operation_xyz
x,y,z
y,-x,-z
-x,-y,z
-y,x,-z
x,1/2-y,1/4-z
-x,1/2+y,1/4-z
-y,1/2-x,1/4+z
y,1/2+x,1/4+z
1/2+x,1/2+y,1/2+z
1/2+y,1/2-x,1/2-z
1/2-x,1/2-y,1/2+z
1/2-y,1/2+x,1/2-z
1/2+x,-y,3/4-z
1/2-x,y,3/4-z
1/2-y,-x,3/4+z
1/2+y,x,3/4+z
loop_
_atom_site_type_symbol
_atom_site_label
_atom_site_fract_x
_atom_site_fract_y
_atom_site_fract_z
Si Si1 0.431596 0.618427 0.436622
Si Si2 0.139979 0.205187 0.666233
Si Si3 0.642230 0.640296 0.011638
Si Si4 0.000000 0.000000 0.284539
Si Si5 0.248218 0.603300 0.505535
O O1 0.500000 0.500000 0.414303
O O2 0.364010 0.722986 0.409595
O O3 0.328219 0.567667 0.467505
O O4 0.551555 0.681888 0.457220
O O5 0.087626 0.250000 0.625000
O O6 0.150607 0.330317 0.692791
O O7 0.039801 0.113949 0.687124
O O8 0.675042 0.493011 0.006453
O O9 0.744745 0.730991 0.990771
O O10 0.961969 0.889461 0.254917
#
# Coordination Sequence:
#
# PCOD8311730 Si02
#       5
#    16  16  16   8  16
#     4  10  18  32  60  81 109 142 189 239 296 342
#     4  10  22  38  57  81 119 157 189 239 299 353
#     4  10  20  34  56  84 113 146 193 244 287 344
#     4  10  20  34  56  82 113 142 196 230 288 357
#     4  10  17  31  53  88 102 140 182 244 287 335
#
# _framework density 18.645377
#
# number of rings (size 3 to 8) (size 9 to 14) (size 15 to 20)
#    0.000    2.000    4.444    0.000    0.000    1.778 
#    0.000    0.000   14.667    0.000    0.000    0.000 
#    0.000    0.000    0.000    0.000    0.000    0.000 
#
# Total GULP energy -446049.683658 kJ/mol
# GULP energy per Si atom -12390.268991 kJ/mol
# Density = 1.860294 g / cm^3
# Si number density = 18.645377 Si / 1000 Ang^3
#
#
#
# Elastic Constant Matrix: (Units=GPa)
#
#
# Indices 1 2 3 4 5 6 
#
# 1 102.1167 30.8712 29.1459 0.0000 0.0000 0.0000
# 2 30.8712 102.1166 29.1459 0.0000 0.0000 0.0000
# 3 29.1459 29.1459 67.2441 0.0000 0.0000 0.0000
# 4 0.0000 0.0000 0.0000 16.9464 0.0000 0.0000
# 5 0.0000 0.0000 0.0000 0.0000 16.9464 0.0000
# 6 0.0000 0.0000 0.0000 0.0000 0.0000 34.4993
#
#
#
# Elastic Compliance Matrix: (Units=1/GPa)
#
#
# Indices 1 2 3 4 5 6 
#
# 1 0.011660 -0.002376 -0.004024 0.000000 0.000000 0.000000
# 2 -0.002376 0.011660 -0.004024 0.000000 0.000000 0.000000
# 3 -0.004024 -0.004024 0.018359 0.000000 0.000000 0.000000
# 4 0.000000 0.000000 0.000000 0.059010 0.000000 0.000000
# 5 0.000000 0.000000 0.000000 0.000000 0.059010 0.000000
# 6 0.000000 0.000000 0.000000 0.000000 0.000000 0.028986
#
#
# Mechanical properties :
#
#
# Convention : Reuss Voigt Hill
#
# Bulk Modulus (GPa) = 48.00557 49.97813 48.99185
# Shear Modulus (GPa) = 23.09738 25.83271 24.46504
#
# Velocity S-wave (km/s) = 3.52344 3.72624 3.62625
# Velocity P-wave (km/s) = 6.50810 6.73616 6.62311
#
# Compressibility (1/GPa) = 0.02083092
#
# Stress axis : x y z
#
# Youngs Moduli (GPa) = 85.76654 85.76654 54.46871
#
# Poissons Ratio (x) = 0.20382 0.21916
# Poissons Ratio (y) = 0.20382 0.21916
# Poissons Ratio (z) = 0.34509 0.34509
#
# Static dielectric constant tensor:
#      x y z
#    x 3.768230 0.000000 0.000000 
#    y 0.000000 3.768230 0.000000 
#    z 0.000000 0.000000 2.873880 
# 
# 
# High freq. dielectric constant tensor:
#      x y z
#    x 1.741690 0.000000 0.000000 
#    y 0.000000 1.741690 0.000000 
#    z 0.000000 0.000000 1.660650 
# 
# From -- ./inp_files/9270.got.cif
#   From: 2010.03.12/outbox.cif.g09.slc.cpg/sg122_5_cif.got.tgz:9270.got - 2010.04.06 16:17:16.
