data_PCOD8311694
_publ_section_title
;
Structure prediction by ZEFSAII (Michael W. Deem and Ramdas Pophale) SiO2 
 PCOD8311694
Probable space group: I -4 2 M
;
_chemical_formula_sum "Si O2"
_cell_formula_units_Z 58
_cell_length_a 11.826474
_cell_length_b 11.826474
_cell_length_c 20.751646
_cell_angle_alpha 90.000000
_cell_angle_beta 90.000000
_cell_angle_gamma 90.000000
_cell_volume 2902.439080
_symmetry_space_group_name_H-M "I -4 2 M"
_symmetry_group_IT_number 121
_symmetry_cell_setting 'tetragonal'
loop_
_space_group_symop_operation_xyz
x,y,z
y,-x,-z
-x,-y,z
-y,x,-z
x,-y,-z
-x,y,-z
-y,-x,z
y,x,z
1/2+x,1/2+y,1/2+z
1/2+y,1/2-x,1/2-z
1/2-x,1/2-y,1/2+z
1/2-y,1/2+x,1/2-z
1/2+x,1/2-y,1/2-z
1/2-x,1/2+y,1/2-z
1/2-y,1/2-x,1/2+z
1/2+y,1/2+x,1/2+z
loop_
_atom_site_type_symbol
_atom_site_label
_atom_site_fract_x
_atom_site_fract_y
_atom_site_fract_z
Si Si1 0.130841 0.462826 0.328936
Si Si2 0.088478 0.088478 0.625583
Si Si3 0.000000 0.000000 0.500000
Si Si4 0.181798 0.000375 0.075321
Si Si5 0.237918 0.944878 0.705568
O O1 0.195981 0.507549 0.391515
O O2 0.134533 0.326864 0.331505
O O3 0.199930 0.504674 0.267261
O O4 0.000000 0.500000 0.327427
O O5 0.079611 0.079611 0.546522
O O6 0.048247 0.207603 0.656037
O O7 0.000000 0.000000 0.655069
O O8 0.110921 0.110921 0.095323
O O9 0.111193 0.888808 0.096088
O O10 0.204339 0.000000 0.000000
O O11 0.129957 0.870044 0.726226
#
# Coordination Sequence:
#
# PCOD8311694 Si02
#       5
#    16   8   2  16  16
#     4  12  23  39  58  91 138 166 207 273 324 385
#     4   8  20  38  67  87 122 164 213 263 313 380
#     4   8  16  48  60  92 132 156 218 280 308 372
#     4   9  20  41  68  94 122 166 225 275 320 386
#     4  11  22  39  62  92 123 170 215 259 326 384
#
# _framework density 19.983191000000001
#
# number of rings (size 3 to 8) (size 9 to 14) (size 15 to 20)
#    0.414    1.379    2.759    2.483    3.862    0.552 
#    2.483    2.759    0.000    0.000    0.000    0.000 
#    0.000    0.000    0.000    0.000    0.000    0.000 
#
# Total GULP energy -359271.400830 kJ/mol
# GULP energy per Si atom -12388.668994 kJ/mol
# Density = 1.993771 g / cm^3
# Si number density = 19.983191 Si / 1000 Ang^3
#
#
#
# Elastic Constant Matrix: (Units=GPa)
#
#
# Indices 1 2 3 4 5 6 
#
# 1 115.9752 48.6699 67.2431 0.0000 0.0000 0.0000
# 2 48.6699 115.9744 67.2434 0.0000 0.0000 0.0000
# 3 67.2431 67.2434 115.7841 0.0000 0.0000 0.0000
# 4 0.0000 0.0000 0.0000 25.5234 0.0000 0.0000
# 5 0.0000 0.0000 0.0000 0.0000 25.5233 0.0000
# 6 0.0000 0.0000 0.0000 0.0000 0.0000 29.1815
#
#
#
# Elastic Compliance Matrix: (Units=1/GPa)
#
#
# Indices 1 2 3 4 5 6 
#
# 1 0.013206 -0.001651 -0.006711 0.000000 0.000000 0.000000
# 2 -0.001651 0.013207 -0.006711 0.000000 0.000000 0.000000
# 3 -0.006711 -0.006711 0.016432 0.000000 0.000000 0.000000
# 4 0.000000 0.000000 0.000000 0.039180 0.000000 0.000000
# 5 0.000000 0.000000 0.000000 0.000000 0.039180 0.000000
# 6 0.000000 0.000000 0.000000 0.000000 0.000000 0.034268
#
#
# Mechanical properties :
#
#
# Convention : Reuss Voigt Hill
#
# Bulk Modulus (GPa) = 78.74833 79.33851 79.04342
# Shear Modulus (GPa) = 26.33632 27.01746 26.67689
#
# Velocity S-wave (km/s) = 3.63426 3.68096 3.65768
# Velocity P-wave (km/s) = 7.55667 7.60623 7.58149
#
# Compressibility (1/GPa) = 0.01269868
#
# Stress axis : x y z
#
# Youngs Moduli (GPa) = 75.72043 75.71930 60.85787
#
# Poissons Ratio (x) = 0.12503 0.40841
# Poissons Ratio (y) = 0.12503 0.40842
# Poissons Ratio (z) = 0.50815 0.50815
#
# Static dielectric constant tensor:
#      x y z
#    x 3.915550 0.000000 0.000000 
#    y 0.000000 3.915540 0.000000 
#    z 0.000000 0.000000 3.475000 
# 
# 
# High freq. dielectric constant tensor:
#      x y z
#    x 1.778950 0.000000 0.000000 
#    y 0.000000 1.778950 0.000000 
#    z 0.000000 0.000000 1.769180 
# 
# From -- ./inp_files/6041.got.cif
#   From: 2010.03.12/outbox.cif.g09.slc.cpg/sg121_4_cif.got.tgz:6041.got - 2010.04.06 16:06:48.
