data_PCOD8311079
_publ_section_title
;
Structure prediction by ZEFSAII (Michael W. Deem and Ramdas Pophale) SiO2 
 PCOD8311079
Probable space group: I -4 M 2
;
_chemical_formula_sum "Si O2"
_cell_formula_units_Z 48
_cell_length_a 7.794878
_cell_length_b 7.794878
_cell_length_c 38.301009
_cell_angle_alpha 90.000000
_cell_angle_beta 90.000000
_cell_angle_gamma 90.000000
_cell_volume 2327.174019
_symmetry_space_group_name_H-M "I -4 M 2"
_symmetry_group_IT_number 119
_symmetry_cell_setting 'tetragonal'
loop_
_space_group_symop_operation_xyz
x,y,z
y,-x,-z
-x,-y,z
-y,x,-z
y,x,-z
-y,-x,-z
-x,y,z
x,-y,z
1/2+x,1/2+y,1/2+z
1/2+y,1/2-x,1/2-z
1/2-x,1/2-y,1/2+z
1/2-y,1/2+x,1/2-z
1/2+y,1/2+x,1/2-z
1/2-y,1/2-x,1/2-z
1/2-x,1/2+y,1/2+z
1/2+x,1/2-y,1/2+z
loop_
_atom_site_type_symbol
_atom_site_label
_atom_site_fract_x
_atom_site_fract_y
_atom_site_fract_z
Si Si1 0.000000 0.294413 0.585467
Si Si2 0.500000 0.801904 0.162977
Si Si3 0.690200 0.703132 0.539083
Si Si4 0.309742 0.798342 0.711599
O O1 0.170576 0.222882 0.566273
O O2 0.000000 0.500000 0.584576
O O3 0.000000 0.216308 0.624648
O O4 0.326830 0.754980 0.182912
O O5 0.500000 0.000000 0.156412
O O6 0.751383 0.751383 0.500000
O O7 0.500000 0.780394 0.547130
O O8 0.679102 0.500000 0.542089
O O9 0.500000 0.719251 0.703510
O O10 0.241489 0.741489 0.750000
O O11 0.327620 0.000000 0.712098
#
# Coordination Sequence:
#
# PCOD8311079 Si02
#       4
#     8   8  16  16
#     4   9  18  31  47  77 117 147 177 227 287 344
#     4  11  23  33  53  89 123 151 181 235 305 357
#     4   8  14  27  50  74  98 140 191 231 272 327
#     4   9  20  39  60  79 104 148 200 241 282 341
#
# _framework density 20.625874
#
# number of rings (size 3 to 8) (size 9 to 14) (size 15 to 20)
#    0.000    3.000    0.000    2.500    2.333    2.000 
#    0.000    3.333    7.333    0.000    0.000    0.000 
#    0.000    0.000    0.000    0.000    0.000    0.000 
#
# Total GULP energy -297393.203466 kJ/mol
# GULP energy per Si atom -12391.383478 kJ/mol
# Density = 2.057893 g / cm^3
# Si number density = 20.625874 Si / 1000 Ang^3
#
#
#
# Elastic Constant Matrix: (Units=GPa)
#
#
# Indices 1 2 3 4 5 6 
#
# 1 82.3923 26.7002 69.5908 0.0000 0.0000 0.0000
# 2 26.7002 82.3924 69.5908 0.0001 0.0000 0.0000
# 3 69.5908 69.5908 202.5786 0.0001 0.0000 0.0000
# 4 0.0000 0.0001 0.0001 4.0646 0.0000 0.0000
# 5 0.0000 0.0000 0.0000 0.0000 4.0645 0.0000
# 6 0.0000 0.0000 0.0000 0.0000 0.0000 17.8936
#
#
#
# Elastic Compliance Matrix: (Units=1/GPa)
#
#
# Indices 1 2 3 4 5 6 
#
# 1 0.017137 -0.000819 -0.005606 0.000000 0.000000 0.000000
# 2 -0.000819 0.017137 -0.005606 0.000000 0.000000 0.000000
# 3 -0.005606 -0.005606 0.008788 0.000000 0.000000 0.000000
# 4 0.000000 0.000000 0.000000 0.246026 0.000002 0.000000
# 5 0.000000 0.000000 0.000000 0.000002 0.246035 0.000000
# 6 0.000000 0.000000 0.000000 0.000000 0.000000 0.055886
#
#
# Mechanical properties :
#
#
# Convention : Reuss Voigt Hill
#
# Bulk Modulus (GPa) = 52.62722 77.68076 65.15399
# Shear Modulus (GPa) = 8.04630 18.63665 13.34148
#
# Velocity S-wave (km/s) = 1.97726 3.00918 2.54605
# Velocity P-wave (km/s) = 5.54827 7.05813 6.34824
#
# Compressibility (1/GPa) = 0.01900157
#
# Stress axis : x y z
#
# Youngs Moduli (GPa) = 58.35269 58.35274 113.79387
#
# Poissons Ratio (x) = 0.04777 0.63791
# Poissons Ratio (y) = 0.04777 0.63791
# Poissons Ratio (z) = 0.32711 0.32711
#
# Static dielectric constant tensor:
#      x y z
#    x 3.675450 0.000000 0.000000 
#    y 0.000000 3.675450 0.000000 
#    z 0.000000 0.000000 4.654800 
# 
# 
# High freq. dielectric constant tensor:
#      x y z
#    x 1.792120 0.000000 0.000000 
#    y 0.000000 1.792120 0.000000 
#    z 0.000000 0.000000 1.803380 
# 
# From -- ./inp_files/9879.got.cif
#   From: 2010.03.12/outbox.cif.g09.slc.cpg/sg119_5_cif.got.tgz:9879.got - 2010.04.14 02:25:26.
