data_PCOD8311801
_publ_section_title
;
Structure prediction by ZEFSAII (Michael W. Deem and Ramdas Pophale) SiO2 
 PCOD8311801
Probable space group: I -4 2 D
;
_chemical_formula_sum "Si O2"
_cell_formula_units_Z 104
_cell_length_a 17.027579
_cell_length_b 17.027579
_cell_length_c 17.215443
_cell_angle_alpha 90.000000
_cell_angle_beta 90.000000
_cell_angle_gamma 90.000000
_cell_volume 4991.418801
_symmetry_space_group_name_H-M "I -4 2 D"
_symmetry_group_IT_number 122
_symmetry_cell_setting 'tetragonal'
loop_
_space_group_symop_operation_xyz
x,y,z
y,-x,-z
-x,-y,z
-y,x,-z
x,1/2-y,1/4-z
-x,1/2+y,1/4-z
-y,1/2-x,1/4+z
y,1/2+x,1/4+z
1/2+x,1/2+y,1/2+z
1/2+y,1/2-x,1/2-z
1/2-x,1/2-y,1/2+z
1/2-y,1/2+x,1/2-z
1/2+x,-y,3/4-z
1/2-x,y,3/4-z
1/2-y,-x,3/4+z
1/2+y,x,3/4+z
loop_
_atom_site_type_symbol
_atom_site_label
_atom_site_fract_x
_atom_site_fract_y
_atom_site_fract_z
Si Si1 0.500000 0.000000 0.949031
Si Si2 0.251709 0.307480 0.190360
Si Si3 0.460683 0.384297 0.025848
Si Si4 0.814522 0.193102 0.692607
Si Si5 0.915780 0.349999 0.409444
Si Si6 0.109782 0.080341 0.681268
Si Si7 0.541214 0.780332 0.356124
O O1 0.441673 0.941942 0.900417
O O2 0.552318 0.940848 0.999108
O O3 0.286350 0.250000 0.125000
O O4 0.234912 0.258513 0.266742
O O5 0.173354 0.350291 0.154936
O O6 0.318714 0.368710 0.214296
O O7 0.440377 0.374016 0.116162
O O8 0.406351 0.448158 0.982053
O O9 0.441591 0.301591 0.983981
O O10 0.849749 0.250000 0.625000
O O11 0.882302 0.169272 0.754158
O O12 0.771120 0.119180 0.655212
O O13 0.992657 0.299340 0.391235
O O14 0.144229 0.002975 0.641557
#
# Coordination Sequence:
#
# PCOD8311801 Si02
#       7
#     8  16  16  16  16  16  16
#     4  12  22  38  63  95 122 176 214 260 316 386
#     4   9  22  43  62  90 123 171 211 268 319 369
#     4   9  18  30  54  89 129 166 194 237 305 383
#     4  11  24  40  67  94 127 170 213 260 315 390
#     4  10  24  42  64  90 133 163 212 269 328 367
#     4  10  20  35  60  86 130 164 205 257 315 378
#     4  10  21  38  59  89 128 164 204 260 307 389
#
# _framework density 20.835758999999999
#
# number of rings (size 3 to 8) (size 9 to 14) (size 15 to 20)
#    0.000    2.000    1.538    1.846   10.769    0.000 
#    0.000    3.077    0.000    0.000    0.000    0.000 
#    0.000    0.000    0.000    0.000    0.000    0.000 
#
# Total GULP energy -644672.688944 kJ/mol
# GULP energy per Si atom -12397.551710 kJ/mol
# Density = 2.078834 g / cm^3
# Si number density = 20.835759 Si / 1000 Ang^3
#
#
#
# Elastic Constant Matrix: (Units=GPa)
#
#
# Indices 1 2 3 4 5 6 
#
# 1 67.0378 14.5469 8.1337 0.0000 0.0000 0.0000
# 2 14.5469 67.0378 8.1337 0.0000 0.0000 0.0000
# 3 8.1337 8.1337 27.5315 0.0000 0.0000 0.0000
# 4 0.0000 0.0000 0.0000 20.9376 0.0000 0.0000
# 5 0.0000 0.0000 0.0000 0.0000 20.9376 0.0000
# 6 0.0000 0.0000 0.0000 0.0000 0.0000 28.6314
#
#
#
# Elastic Compliance Matrix: (Units=1/GPa)
#
#
# Indices 1 2 3 4 5 6 
#
# 1 0.016038 -0.003013 -0.003848 0.000000 0.000000 0.000000
# 2 -0.003013 0.016038 -0.003848 0.000000 0.000000 0.000000
# 3 -0.003848 -0.003848 0.038596 0.000000 0.000000 0.000000
# 4 0.000000 0.000000 0.000000 0.047761 0.000000 0.000000
# 5 0.000000 0.000000 0.000000 0.000000 0.047761 0.000000
# 6 0.000000 0.000000 0.000000 0.000000 0.000000 0.034927
#
#
# Mechanical properties :
#
#
# Convention : Reuss Voigt Hill
#
# Bulk Modulus (GPa) = 20.30329 24.80397 22.55363
# Shear Modulus (GPa) = 20.92441 22.82083 21.87262
#
# Velocity S-wave (km/s) = 3.17244 3.31308 3.24352
# Velocity P-wave (km/s) = 4.81505 5.15419 4.98751
#
# Compressibility (1/GPa) = 0.04925309
#
# Stress axis : x y z
#
# Youngs Moduli (GPa) = 62.35316 62.35316 25.90969
#
# Poissons Ratio (x) = 0.18789 0.09970
# Poissons Ratio (y) = 0.18789 0.09970
# Poissons Ratio (z) = 0.23993 0.23993
#
# Static dielectric constant tensor:
#      x y z
#    x 3.743160 0.000000 0.000000 
#    y 0.000000 3.743160 0.000000 
#    z 0.000000 0.000000 3.655510 
# 
# 
# High freq. dielectric constant tensor:
#      x y z
#    x 1.813040 0.000000 0.000000 
#    y 0.000000 1.813040 0.000000 
#    z 0.000000 0.000000 1.791710 
# 
# From -- ./inp_files/6375.got.cif
#   From: 2010.03.12/outbox.cif.g09.slc.cpg/sg122_4_cif.got.tgz:6375.got - 2010.04.06 16:17:16.
