data_PCOD8311471
_publ_section_title
;
Structure prediction by ZEFSAII (Michael W. Deem and Ramdas Pophale) SiO2 
 PCOD8311471
Probable space group: I -4 2 M
;
_chemical_formula_sum "Si O2"
_cell_formula_units_Z 120
_cell_length_a 14.596673
_cell_length_b 14.596673
_cell_length_c 28.653873
_cell_angle_alpha 90.000000
_cell_angle_beta 90.000000
_cell_angle_gamma 90.000000
_cell_volume 6105.076208
_symmetry_space_group_name_H-M "I -4 2 M"
_symmetry_group_IT_number 121
_symmetry_cell_setting 'tetragonal'
loop_
_space_group_symop_operation_xyz
x,y,z
y,-x,-z
-x,-y,z
-y,x,-z
x,-y,-z
-x,y,-z
-y,-x,z
y,x,z
1/2+x,1/2+y,1/2+z
1/2+y,1/2-x,1/2-z
1/2-x,1/2-y,1/2+z
1/2-y,1/2+x,1/2-z
1/2+x,1/2-y,1/2-z
1/2-x,1/2+y,1/2-z
1/2-y,1/2-x,1/2+z
1/2+y,1/2+x,1/2+z
loop_
_atom_site_type_symbol
_atom_site_label
_atom_site_fract_x
_atom_site_fract_y
_atom_site_fract_z
Si Si1 0.351759 0.500000 0.500000
Si Si2 0.698772 0.543684 0.402492
Si Si3 0.831557 0.685009 0.427036
Si Si4 0.923288 0.771611 0.339881
Si Si5 0.263744 0.111814 0.620750
Si Si6 0.255356 0.894121 0.832726
Si Si7 0.450353 0.857414 0.245383
Si Si8 0.594875 0.748254 0.016466
O O1 0.409187 0.590814 0.505482
O O2 0.296005 0.507805 0.452333
O O3 0.610209 0.610209 0.394795
O O4 0.797579 0.593168 0.401410
O O5 0.697956 0.465805 0.363504
O O6 0.739085 0.739085 0.438577
O O7 0.893719 0.737604 0.390480
O O8 0.880758 0.673048 0.477591
O O9 0.864793 0.864793 0.327228
O O10 0.911087 0.692371 0.301011
O O11 0.032400 0.784222 0.347671
O O12 0.191420 0.191420 0.617151
O O13 0.357076 0.151306 0.643214
O O14 0.290948 0.082351 0.567994
O O15 0.190299 0.809702 0.819877
O O16 0.282200 0.946028 0.785731
O O17 0.556036 0.887344 0.241055
O O18 0.668599 0.668599 0.015465
O O19 0.500000 0.702742 0.000000
#
# Coordination Sequence:
#
# PCOD8311471 Si02
#       8
#     8  16  16  16  16  16  16  16
#     4   9  18  32  52  80 113 150 194 240 283 342
#     4  10  21  37  58  85 117 157 204 248 300 362
#     4   9  19  34  55  84 118 157 198 243 293 348
#     4  11  21  39  63  87 117 156 200 249 300 355
#     4  10  22  38  58  86 122 159 196 244 301 361
#     4  11  23  41  63  89 121 156 197 252 310 364
#     4  11  23  41  65  92 119 154 198 246 301 367
#     4  10  19  33  55  83 118 159 201 245 294 353
#
# _framework density 19.655774000000001
#
# number of rings (size 3 to 8) (size 9 to 14) (size 15 to 20)
#    0.000    1.800    2.667    1.600    1.867    1.200 
#    0.000    2.667    0.000    2.400    0.000    0.000 
#    0.000    0.000    0.000    0.000    0.000    0.000 
#
# Total GULP energy -743382.633893 kJ/mol
# GULP energy per Si atom -12389.710565 kJ/mol
# Density = 1.961104 g / cm^3
# Si number density = 19.655774 Si / 1000 Ang^3
#
#
#
# Elastic Constant Matrix: (Units=GPa)
#
#
# Indices 1 2 3 4 5 6 
#
# 1 67.2340 19.6906 33.1289 0.0000 0.0000 0.0000
# 2 19.6906 67.2349 33.1290 0.0000 0.0000 0.0000
# 3 33.1289 33.1290 101.2278 0.0000 0.0000 0.0000
# 4 0.0000 0.0000 0.0000 34.1045 0.0000 0.0000
# 5 0.0000 0.0000 0.0000 0.0000 34.1049 0.0000
# 6 0.0000 0.0000 0.0000 0.0000 0.0000 24.2435
#
#
#
# Elastic Compliance Matrix: (Units=1/GPa)
#
#
# Indices 1 2 3 4 5 6 
#
# 1 0.018181 -0.002853 -0.005016 0.000000 0.000000 0.000000
# 2 -0.002853 0.018180 -0.005016 0.000000 0.000000 0.000000
# 3 -0.005016 -0.005016 0.013162 0.000000 0.000000 0.000000
# 4 0.000000 0.000000 0.000000 0.029322 0.000000 0.000000
# 5 0.000000 0.000000 0.000000 0.000000 0.029321 0.000000
# 6 0.000000 0.000000 0.000000 0.000000 0.000000 0.041248
#
#
# Mechanical properties :
#
#
# Convention : Reuss Voigt Hill
#
# Bulk Modulus (GPa) = 42.10106 45.28818 43.69462
# Shear Modulus (GPa) = 27.30707 28.47377 27.89042
#
# Velocity S-wave (km/s) = 3.73133 3.81020 3.77097
# Velocity P-wave (km/s) = 6.32688 6.51518 6.42172
#
# Compressibility (1/GPa) = 0.02375237
#
# Stress axis : x y z
#
# Youngs Moduli (GPa) = 55.00342 55.00429 75.97553
#
# Poissons Ratio (x) = 0.15691 0.38112
# Poissons Ratio (y) = 0.15691 0.38112
# Poissons Ratio (z) = 0.27592 0.27592
#
# Static dielectric constant tensor:
#      x y z
#    x 3.539530 0.000000 0.000000 
#    y 0.000000 3.539530 0.000000 
#    z 0.000000 0.000000 3.784370 
# 
# 
# High freq. dielectric constant tensor:
#      x y z
#    x 1.753820 0.000000 0.000000 
#    y 0.000000 1.753820 0.000000 
#    z 0.000000 0.000000 1.777930 
# 
# From -- ./inp_files/8453.got.cif
#   From: 2010.03.12/outbox.cif.g09.slc.cpg/sg121_5_cif.got.tgz:8453.got - 2010.04.06 16:06:48.
