data_PCOD8311985
_publ_section_title
;
Structure prediction by ZEFSAII (Michael W. Deem and Ramdas Pophale) SiO2 
 PCOD8311985
Probable space group: I -4 2 D
;
_chemical_formula_sum "Si O2"
_cell_formula_units_Z 36
_cell_length_a 9.477623
_cell_length_b 9.477623
_cell_length_c 16.581592
_cell_angle_alpha 90.000000
_cell_angle_beta 90.000000
_cell_angle_gamma 90.000000
_cell_volume 1489.447102
_symmetry_space_group_name_H-M "I -4 2 D"
_symmetry_group_IT_number 122
_symmetry_cell_setting 'tetragonal'
loop_
_space_group_symop_operation_xyz
x,y,z
y,-x,-z
-x,-y,z
-y,x,-z
x,1/2-y,1/4-z
-x,1/2+y,1/4-z
-y,1/2-x,1/4+z
y,1/2+x,1/4+z
1/2+x,1/2+y,1/2+z
1/2+y,1/2-x,1/2-z
1/2-x,1/2-y,1/2+z
1/2-y,1/2+x,1/2-z
1/2+x,-y,3/4-z
1/2-x,y,3/4-z
1/2-y,-x,3/4+z
1/2+y,x,3/4+z
loop_
_atom_site_type_symbol
_atom_site_label
_atom_site_fract_x
_atom_site_fract_y
_atom_site_fract_z
Si Si1 0.384373 0.236024 0.929617
Si Si2 0.300112 0.432847 0.533862
Si Si3 0.500000 0.500000 0.000000
O O1 0.250000 0.210392 0.875000
O O2 0.525696 0.197136 0.879059
O O3 0.393661 0.401381 0.950141
O O4 0.351179 0.138156 0.008523
O O5 0.322988 0.572192 0.478945
#
# Coordination Sequence:
#
# PCOD8311985 Si02
#       3
#    16  16   4
#     4  10  24  46  69 103 138 185 233 295 356 428
#     4   9  20  47  70 105 136 183 234 293 358 434
#     4  12  28  44  68  96 140 188 230 292 356 424
#
# _framework density 24.170041999999999
#
# number of rings (size 3 to 8) (size 9 to 14) (size 15 to 20)
#    0.000    2.222    0.000    0.000    6.222    0.000 
#   88.000    0.000    0.000    0.000    0.000    0.000 
#    0.000    0.000    0.000    0.000    0.000    0.000 
#
# Total GULP energy -223051.193569 kJ/mol
# GULP energy per Si atom -12391.732976 kJ/mol
# Density = 2.411503 g / cm^3
# Si number density = 24.170042 Si / 1000 Ang^3
#
#
#
# Elastic Constant Matrix: (Units=GPa)
#
#
# Indices 1 2 3 4 5 6 
#
# 1 96.9930 48.0813 48.5957 0.0000 0.0000 0.0000
# 2 48.0813 96.9930 48.5957 0.0000 0.0000 0.0000
# 3 48.5957 48.5957 70.1411 0.0000 0.0000 0.0000
# 4 0.0000 0.0000 0.0000 25.6897 0.0000 0.0000
# 5 0.0000 0.0000 0.0000 0.0000 25.6897 0.0000
# 6 0.0000 0.0000 0.0000 0.0000 0.0000 59.5095
#
#
#
# Elastic Compliance Matrix: (Units=1/GPa)
#
#
# Indices 1 2 3 4 5 6 
#
# 1 0.016654 -0.003791 -0.008912 0.000000 0.000000 0.000000
# 2 -0.003791 0.016654 -0.008912 0.000000 0.000000 0.000000
# 3 -0.008912 -0.008912 0.026607 0.000000 0.000000 0.000000
# 4 0.000000 0.000000 0.000000 0.038926 0.000000 0.000000
# 5 0.000000 0.000000 0.000000 0.000000 0.038926 0.000000
# 6 0.000000 0.000000 0.000000 0.000000 0.000000 0.016804
#
#
# Mechanical properties :
#
#
# Convention : Reuss Voigt Hill
#
# Bulk Modulus (GPa) = 59.93586 61.63028 60.78307
# Shear Modulus (GPa) = 24.58645 30.10141 27.34393
#
# Velocity S-wave (km/s) = 3.19286 3.53285 3.36715
# Velocity P-wave (km/s) = 6.20031 6.49580 6.34978
#
# Compressibility (1/GPa) = 0.01668450
#
# Stress axis : x y z
#
# Youngs Moduli (GPa) = 60.04408 60.04408 37.58472
#
# Poissons Ratio (x) = 0.22760 0.33497
# Poissons Ratio (y) = 0.22760 0.33497
# Poissons Ratio (z) = 0.53514 0.53514
#
# Static dielectric constant tensor:
#      x y z
#    x 4.392240 0.000000 0.000000 
#    y 0.000000 4.392240 0.000000 
#    z 0.000000 0.000000 4.796630 
# 
# 
# High freq. dielectric constant tensor:
#      x y z
#    x 1.950350 0.000000 0.000000 
#    y 0.000000 1.950350 0.000000 
#    z 0.000000 0.000000 1.945590 
# 
# From -- ./inp_files/4842.got.cif
#   From: 2010.03.12/outbox.cif.g09.slc.cpg/sg122_3_cif.got.tgz:4842.got - 2010.04.06 16:17:16.
