data_PCOD8311695
_publ_section_title
;
Structure prediction by ZEFSAII (Michael W. Deem and Ramdas Pophale) SiO2 
 PCOD8311695
Probable space group: I -4 2 M
;
_chemical_formula_sum "Si O2"
_cell_formula_units_Z 48
_cell_length_a 13.026548
_cell_length_b 13.026548
_cell_length_c 13.899721
_cell_angle_alpha 90.000000
_cell_angle_beta 90.000000
_cell_angle_gamma 90.000000
_cell_volume 2358.656900
_symmetry_space_group_name_H-M "I -4 2 M"
_symmetry_group_IT_number 121
_symmetry_cell_setting 'tetragonal'
loop_
_space_group_symop_operation_xyz
x,y,z
y,-x,-z
-x,-y,z
-y,x,-z
x,-y,-z
-x,y,-z
-y,-x,z
y,x,z
1/2+x,1/2+y,1/2+z
1/2+y,1/2-x,1/2-z
1/2-x,1/2-y,1/2+z
1/2-y,1/2+x,1/2-z
1/2+x,1/2-y,1/2-z
1/2-x,1/2+y,1/2-z
1/2-y,1/2-x,1/2+z
1/2+y,1/2+x,1/2+z
loop_
_atom_site_type_symbol
_atom_site_label
_atom_site_fract_x
_atom_site_fract_y
_atom_site_fract_z
Si Si1 0.128813 0.699585 0.271241
Si Si2 0.503269 0.121591 0.390326
Si Si3 0.334119 0.494076 0.894619
O O1 0.222626 0.777375 0.264161
O O2 0.163129 0.605940 0.339265
O O3 0.026033 0.751702 0.315274
O O4 0.097678 0.663576 0.164356
O O5 0.500000 0.160826 0.500000
O O6 0.500000 0.000000 0.382754
O O7 0.427230 0.572771 0.896720
O O8 0.380254 0.380254 0.871717
O O9 0.280407 0.500000 0.000000
#
# Coordination Sequence:
#
# PCOD8311695 Si02
#       3
#    16  16  16
#     4  11  22  39  64  93 123 167 215 255 316 384
#     4  11  24  44  63  87 128 165 203 259 315 369
#     4   8  16  31  53  87 126 159 201 257 305 351
#
# _framework density 20.350565
#
# number of rings (size 3 to 8) (size 9 to 14) (size 15 to 20)
#    0.000    2.000    3.333    1.000    4.667    2.667 
#    0.000    0.000    0.000    0.000    0.000    2.333 
#    0.000    0.000    0.000    0.000    0.000    0.000 
#
# Total GULP energy -297574.635838 kJ/mol
# GULP energy per Si atom -12398.943160 kJ/mol
# Density = 2.030425 g / cm^3
# Si number density = 20.350565 Si / 1000 Ang^3
#
#
#
# Elastic Constant Matrix: (Units=GPa)
#
#
# Indices 1 2 3 4 5 6 
#
# 1 82.8247 32.1844 55.8333 0.0000 0.0000 0.0000
# 2 32.1844 82.8241 55.8336 0.0000 0.0000 0.0000
# 3 55.8333 55.8336 174.5534 0.0000 0.0000 0.0000
# 4 0.0000 0.0000 0.0000 20.3303 0.0000 0.0000
# 5 0.0000 0.0000 0.0000 0.0000 20.3284 0.0000
# 6 0.0000 0.0000 0.0000 0.0000 0.0000 34.8322
#
#
#
# Elastic Compliance Matrix: (Units=1/GPa)
#
#
# Indices 1 2 3 4 5 6 
#
# 1 0.016179 -0.003568 -0.004034 0.000000 0.000000 0.000000
# 2 -0.003568 0.016180 -0.004034 0.000000 0.000000 0.000000
# 3 -0.004034 -0.004034 0.008310 0.000000 0.000000 0.000000
# 4 0.000000 0.000000 0.000000 0.049188 0.000000 0.000000
# 5 0.000000 0.000000 0.000000 0.000000 0.049192 0.000000
# 6 0.000000 0.000000 0.000000 0.000000 0.000000 0.028709
#
#
# Mechanical properties :
#
#
# Convention : Reuss Voigt Hill
#
# Bulk Modulus (GPa) = 57.48119 69.76719 63.62419
# Shear Modulus (GPa) = 25.40285 28.18826 26.79555
#
# Velocity S-wave (km/s) = 3.53691 3.72578 3.63257
# Velocity P-wave (km/s) = 6.70719 7.27088 6.99472
#
# Compressibility (1/GPa) = 0.01739699
#
# Stress axis : x y z
#
# Youngs Moduli (GPa) = 61.80684 61.80611 120.34234
#
# Poissons Ratio (x) = 0.22050 0.48547
# Poissons Ratio (y) = 0.22051 0.48548
# Poissons Ratio (z) = 0.24933 0.24933
#
# Static dielectric constant tensor:
#      x y z
#    x 3.698740 0.000000 0.000000 
#    y 0.000000 3.698730 0.000000 
#    z 0.000000 0.000000 3.990290 
# 
# 
# High freq. dielectric constant tensor:
#      x y z
#    x 1.788210 0.000000 0.000000 
#    y 0.000000 1.788210 0.000000 
#    z 0.000000 0.000000 1.796050 
# 
# From -- ./inp_files/2545.got.cif
#   From: 2010.03.12/outbox.cif.g09.slc.cpg/sg121_2_cif.got.tgz:2545.got - 2010.04.06 16:06:48.
