data_PCOD8311321
_publ_section_title
;
Structure prediction by ZEFSAII (Michael W. Deem and Ramdas Pophale) SiO2 
 PCOD8311321
Probable space group: I -4 C 2
;
_chemical_formula_sum "Si O2"
_cell_formula_units_Z 40
_cell_length_a 14.934322
_cell_length_b 14.934322
_cell_length_c 7.479042
_cell_angle_alpha 90.000000
_cell_angle_beta 90.000000
_cell_angle_gamma 90.000000
_cell_volume 1668.080456
_symmetry_space_group_name_H-M "I -4 C 2"
_symmetry_group_IT_number 120
_symmetry_cell_setting 'tetragonal'
loop_
_space_group_symop_operation_xyz
x,y,z
y,-x,-z
-x,-y,z
-y,x,-z
y,x,1/2-z
-y,-x,1/2-z
-x,y,1/2+z
x,-y,1/2+z
1/2+x,1/2+y,1/2+z
1/2+y,1/2-x,1/2-z
1/2-x,1/2-y,1/2+z
1/2-y,1/2+x,1/2-z
1/2+y,1/2+x,-z
1/2-y,1/2-x,-z
1/2-x,1/2+y,z
1/2+x,1/2-y,z
loop_
_atom_site_type_symbol
_atom_site_label
_atom_site_fract_x
_atom_site_fract_y
_atom_site_fract_z
Si Si1 0.098925 0.098925 0.250000
Si Si2 0.380779 0.968775 0.334459
Si Si3 0.575099 0.679200 0.116190
O O1 0.107150 0.174065 0.408484
O O2 0.004355 0.107843 0.148369
O O3 0.428332 0.917664 0.164970
O O4 0.411069 0.911069 0.500000
O O5 0.274414 0.965189 0.326317
O O6 0.656934 0.656934 0.250000
#
# Coordination Sequence:
#
# PCOD8311321 Si02
#       3
#     8  16  16
#     4  12  25  44  78 114 154 204 250 307 400 453
#     4  11  25  51  78 107 148 208 256 313 391 455
#     4  12  26  47  77 114 156 202 254 321 383 467
#
# _framework density 23.979659000000002
#
# number of rings (size 3 to 8) (size 9 to 14) (size 15 to 20)
#    0.000    0.400    4.000    5.400    0.000    0.000 
#   21.600    0.000    0.000    0.000    0.000    0.000 
#    0.000    0.000    0.000    0.000    0.000    0.000 
#
# Total GULP energy -247800.691481 kJ/mol
# GULP energy per Si atom -12390.034574 kJ/mol
# Density = 2.392508 g / cm^3
# Si number density = 23.979659 Si / 1000 Ang^3
#
#
#
# Elastic Constant Matrix: (Units=GPa)
#
#
# Indices 1 2 3 4 5 6 
#
# 1 113.4101 45.6427 27.7633 0.0000 0.0000 0.0000
# 2 45.6427 113.4101 27.7633 0.0000 0.0000 0.0000
# 3 27.7633 27.7633 146.5190 0.0000 0.0000 0.0000
# 4 0.0000 0.0000 0.0000 31.4449 0.0000 0.0000
# 5 0.0000 0.0000 0.0000 0.0000 31.4449 0.0000
# 6 0.0000 0.0000 0.0000 0.0000 0.0000 19.9329
#
#
#
# Elastic Compliance Matrix: (Units=1/GPa)
#
#
# Indices 1 2 3 4 5 6 
#
# 1 0.010744 -0.004012 -0.001276 0.000000 0.000000 0.000000
# 2 -0.004012 0.010744 -0.001276 0.000000 0.000000 0.000000
# 3 -0.001276 -0.001276 0.007309 0.000000 0.000000 0.000000
# 4 0.000000 0.000000 0.000000 0.031802 0.000000 0.000000
# 5 0.000000 0.000000 0.000000 0.000000 0.031802 0.000000
# 6 0.000000 0.000000 0.000000 0.000000 0.000000 0.050168
#
#
# Mechanical properties :
#
#
# Convention : Reuss Voigt Hill
#
# Bulk Modulus (GPa) = 63.81306 63.96419 63.88862
# Shear Modulus (GPa) = 31.07146 34.70921 32.89033
#
# Velocity S-wave (km/s) = 3.60355 3.80866 3.70752
# Velocity P-wave (km/s) = 6.63198 6.78774 6.71031
#
# Compressibility (1/GPa) = 0.01567077
#
# Stress axis : x y z
#
# Youngs Moduli (GPa) = 93.07117 93.07117 136.82662
#
# Poissons Ratio (x) = 0.37339 0.17455
# Poissons Ratio (y) = 0.37339 0.17455
# Poissons Ratio (z) = 0.11873 0.11873
#
# Static dielectric constant tensor:
#      x y z
#    x 4.405190 0.000000 0.000000 
#    y 0.000000 4.405190 0.000000 
#    z 0.000000 0.000000 5.395440 
# 
# 
# High freq. dielectric constant tensor:
#      x y z
#    x 1.933440 0.000000 0.000000 
#    y 0.000000 1.933440 0.000000 
#    z 0.000000 0.000000 1.978960 
# 
# From -- ./inp_files/770.got.cif
#   From: 2010.03.12/outbox.cif.g09.slc.cpg/sg120_1_cif.got.tgz:770.got - 2010.04.06 16:00:44.
