data_PCOD8311318
_publ_section_title
;
Structure prediction by ZEFSAII (Michael W. Deem and Ramdas Pophale) SiO2 
 PCOD8311318
Probable space group: I -4 C 2
;
_chemical_formula_sum "Si O2"
_cell_formula_units_Z 52
_cell_length_a 13.519373
_cell_length_b 13.519373
_cell_length_c 13.774146
_cell_angle_alpha 90.000000
_cell_angle_beta 90.000000
_cell_angle_gamma 90.000000
_cell_volume 2517.548134
_symmetry_space_group_name_H-M "I -4 C 2"
_symmetry_group_IT_number 120
_symmetry_cell_setting 'tetragonal'
loop_
_space_group_symop_operation_xyz
x,y,z
y,-x,-z
-x,-y,z
-y,x,-z
y,x,1/2-z
-y,-x,1/2-z
-x,y,1/2+z
x,-y,1/2+z
1/2+x,1/2+y,1/2+z
1/2+y,1/2-x,1/2-z
1/2-x,1/2-y,1/2+z
1/2-y,1/2+x,1/2-z
1/2+y,1/2+x,-z
1/2-y,1/2-x,-z
1/2-x,1/2+y,z
1/2+x,1/2-y,z
loop_
_atom_site_type_symbol
_atom_site_label
_atom_site_fract_x
_atom_site_fract_y
_atom_site_fract_z
Si Si1 0.000000 0.000000 0.750000
Si Si2 0.050940 0.348073 0.730028
Si Si3 0.246723 0.100440 0.964683
Si Si4 0.681648 0.450395 0.624546
O O1 0.992508 0.097060 0.816377
O O2 0.124220 0.440227 0.738885
O O3 0.048505 0.309471 0.620101
O O4 0.091673 0.262079 0.799889
O O5 0.138412 0.131014 0.931876
O O6 0.301550 0.198451 0.000000
O O7 0.237201 0.022727 0.051163
#
# Coordination Sequence:
#
# PCOD8311318 Si02
#       4
#     4  16  16  16
#     4  12  24  46  72  96 154 180 230 292 344 400
#     4  11  25  48  72 100 138 179 232 290 349 410
#     4  12  26  46  72 104 137 185 233 288 347 411
#     4  12  26  45  70 105 139 184 232 285 344 414
#
# _framework density 20.655017999999998
#
# number of rings (size 3 to 8) (size 9 to 14) (size 15 to 20)
#    0.000    0.308    6.154    1.846    4.308    0.000 
#    0.000    0.000    0.000    0.000    0.000    0.000 
#    0.000    0.000    0.000    0.000    0.000    0.000 
#
# Total GULP energy -322611.804169 kJ/mol
# GULP energy per Si atom -12408.146314 kJ/mol
# Density = 2.060801 g / cm^3
# Si number density = 20.655018 Si / 1000 Ang^3
#
#
#
# Elastic Constant Matrix: (Units=GPa)
#
#
# Indices 1 2 3 4 5 6 
#
# 1 93.9034 17.6133 37.3706 0.0000 0.0000 0.0000
# 2 17.6133 93.9017 37.3698 0.0000 0.0000 0.0000
# 3 37.3706 37.3698 127.5389 0.0000 0.0000 0.0000
# 4 0.0000 0.0000 0.0000 30.7016 0.0000 0.0000
# 5 0.0000 0.0000 0.0000 0.0000 30.7032 0.0000
# 6 0.0000 0.0000 0.0000 0.0000 0.0000 30.6937
#
#
#
# Elastic Compliance Matrix: (Units=1/GPa)
#
#
# Indices 1 2 3 4 5 6 
#
# 1 0.012133 -0.000975 -0.003270 0.000000 0.000000 0.000000
# 2 -0.000975 0.012133 -0.003270 0.000000 0.000000 0.000000
# 3 -0.003270 -0.003270 0.009757 0.000000 0.000000 0.000000
# 4 0.000000 0.000000 0.000000 0.032572 0.000000 0.000000
# 5 0.000000 0.000000 0.000000 0.000000 0.032570 0.000000
# 6 0.000000 0.000000 0.000000 0.000000 0.000000 0.032580
#
#
# Mechanical properties :
#
#
# Convention : Reuss Voigt Hill
#
# Bulk Modulus (GPa) = 52.64333 55.56127 54.10230
# Shear Modulus (GPa) = 32.65741 33.28573 32.97157
#
# Velocity S-wave (km/s) = 3.98060 4.01871 3.99970
# Velocity P-wave (km/s) = 6.83149 6.96358 6.89785
#
# Compressibility (1/GPa) = 0.01899576
#
# Stress axis : x y z
#
# Youngs Moduli (GPa) = 82.41802 82.41679 102.49251
#
# Poissons Ratio (x) = 0.08033 0.33511
# Poissons Ratio (y) = 0.08033 0.33511
# Poissons Ratio (z) = 0.26948 0.26947
#
# Static dielectric constant tensor:
#      x y z
#    x 3.750660 0.000000 0.000000 
#    y 0.000000 3.750660 0.000000 
#    z 0.000000 0.000000 4.019740 
# 
# 
# High freq. dielectric constant tensor:
#      x y z
#    x 1.815370 0.000000 0.000000 
#    y 0.000000 1.815370 0.000000 
#    z 0.000000 0.000000 1.830070 
# 
# From -- ./inp_files/2185.got.cif
#   From: 2010.03.12/outbox.cif.g09.slc.cpg/sg120_2_cif.got.tgz:2185.got - 2010.04.06 16:00:44.
