data_PCOD8311595
_publ_section_title
;
Structure prediction by ZEFSAII (Michael W. Deem and Ramdas Pophale) SiO2 
 PCOD8311595
Probable space group: I -4 2 M
;
_chemical_formula_sum "Si O2"
_cell_formula_units_Z 128
_cell_length_a 21.646239
_cell_length_b 21.646239
_cell_length_c 13.611719
_cell_angle_alpha 90.000000
_cell_angle_beta 90.000000
_cell_angle_gamma 90.000000
_cell_volume 6377.902465
_symmetry_space_group_name_H-M "I -4 2 M"
_symmetry_group_IT_number 121
_symmetry_cell_setting 'tetragonal'
loop_
_space_group_symop_operation_xyz
x,y,z
y,-x,-z
-x,-y,z
-y,x,-z
x,-y,-z
-x,y,-z
-y,-x,z
y,x,z
1/2+x,1/2+y,1/2+z
1/2+y,1/2-x,1/2-z
1/2-x,1/2-y,1/2+z
1/2-y,1/2+x,1/2-z
1/2+x,1/2-y,1/2-z
1/2-x,1/2+y,1/2-z
1/2-y,1/2-x,1/2+z
1/2+y,1/2+x,1/2+z
loop_
_atom_site_type_symbol
_atom_site_label
_atom_site_fract_x
_atom_site_fract_y
_atom_site_fract_z
Si Si1 0.777145 0.547409 0.863328
Si Si2 0.642844 0.261208 0.280356
Si Si3 0.174948 0.643101 0.451446
Si Si4 0.729894 0.827977 0.841681
Si Si5 0.432407 0.334169 0.006191
Si Si6 0.411973 0.953693 0.638664
Si Si7 0.741636 0.092088 0.343356
Si Si8 0.457102 0.912884 0.371980
O O1 0.747159 0.574669 0.764124
O O2 0.730280 0.564410 0.948887
O O3 0.845317 0.572179 0.898649
O O4 0.788730 0.475452 0.843149
O O5 0.668222 0.331779 0.276408
O O6 0.642647 0.239332 0.392326
O O7 0.685896 0.219231 0.213099
O O8 0.193355 0.646651 0.564758
O O9 0.136554 0.702061 0.413767
O O10 0.139737 0.578871 0.430657
O O11 0.793070 0.793070 0.872324
O O12 0.745205 0.884181 0.768130
O O13 0.382187 0.382187 0.964017
O O14 0.500000 0.366315 0.000000
O O15 0.413300 0.312248 0.115655
O O16 0.469372 0.911453 0.600980
O O17 0.405247 0.950621 0.755752
O O18 0.426155 0.022111 0.598875
#
# Coordination Sequence:
#
# PCOD8311595 Si02
#       8
#    16  16  16  16  16  16  16  16
#     4  11  19  34  60  88 116 154 199 242 296 364
#     4  10  21  35  55  82 112 148 192 254 305 351
#     4  11  19  34  58  86 110 153 206 255 296 347
#     4  10  22  38  58  82 112 152 196 251 308 359
#     4  10  22  39  63  93 118 150 189 237 299 373
#     4   9  17  31  53  84 115 161 206 246 301 346
#     4  10  22  38  60  84 116 154 196 246 297 361
#     4   9  17  30  54  84 113 160 210 255 291 342
#
# _framework density 20.069292999999998
#
# number of rings (size 3 to 8) (size 9 to 14) (size 15 to 20)
#    0.000    2.000    2.500    2.625    0.000    2.625 
#    0.000    0.625    5.500    0.000   13.000    0.000 
#    0.000    0.000    0.000    0.000    0.000   43.000 
#
# Total GULP energy -793288.748224 kJ/mol
# GULP energy per Si atom -12395.136691 kJ/mol
# Density = 2.002361 g / cm^3
# Si number density = 20.069293 Si / 1000 Ang^3
#
#
#
# Elastic Constant Matrix: (Units=GPa)
#
#
# Indices 1 2 3 4 5 6 
#
# 1 90.2374 71.4231 44.2351 0.0000 0.0000 0.0000
# 2 71.4231 90.2365 44.2342 0.0000 0.0000 0.0000
# 3 44.2351 44.2342 98.5672 0.0000 0.0000 0.0000
# 4 0.0000 0.0000 0.0000 21.7110 0.0000 0.0000
# 5 0.0000 0.0000 0.0000 0.0000 21.7110 0.0000
# 6 0.0000 0.0000 0.0000 0.0000 0.0000 31.9455
#
#
#
# Elastic Compliance Matrix: (Units=1/GPa)
#
#
# Indices 1 2 3 4 5 6 
#
# 1 0.030676 -0.022476 -0.003680 0.000000 0.000000 0.000000
# 2 -0.022476 0.030676 -0.003680 0.000000 0.000000 0.000000
# 3 -0.003680 -0.003680 0.013448 0.000000 0.000000 0.000000
# 4 0.000000 0.000000 0.000000 0.046060 0.000000 0.000000
# 5 0.000000 0.000000 0.000000 0.000000 0.046060 0.000000
# 6 0.000000 0.000000 0.000000 0.000000 0.000000 0.031303
#
#
# Mechanical properties :
#
#
# Convention : Reuss Voigt Hill
#
# Bulk Modulus (GPa) = 66.10162 66.53619 66.31891
# Shear Modulus (GPa) = 19.01595 23.01676 21.01636
#
# Velocity S-wave (km/s) = 3.08151 3.39021 3.23954
# Velocity P-wave (km/s) = 6.75790 6.96778 6.86364
#
# Compressibility (1/GPa) = 0.01512822
#
# Stress axis : x y z
#
# Youngs Moduli (GPa) = 32.59886 32.59880 74.35963
#
# Poissons Ratio (x) = 0.73270 0.27364
# Poissons Ratio (y) = 0.73270 0.27361
# Poissons Ratio (z) = 0.11996 0.11995
#
# Static dielectric constant tensor:
#      x y z
#    x 3.840000 0.000000 0.000000 
#    y 0.000000 3.840010 0.000000 
#    z 0.000000 0.000000 3.771470 
# 
# 
# High freq. dielectric constant tensor:
#      x y z
#    x 1.767100 0.000000 0.000000 
#    y 0.000000 1.767100 0.000000 
#    z 0.000000 0.000000 1.786730 
# 
# From -- ./inp_files/3550.got.cif
#   From: 2010.03.12/outbox.cif.g09.slc.cpg/sg121_2_cif.got.tgz:3550.got - 2010.04.06 16:06:48.
