data_PCOD8311009
_publ_section_title
;
Structure prediction by ZEFSAII (Michael W. Deem and Ramdas Pophale) SiO2 
 PCOD8311009
Probable space group: I -4 M 2
;
_chemical_formula_sum "Si O2"
_cell_formula_units_Z 96
_cell_length_a 15.157267
_cell_length_b 15.157267
_cell_length_c 19.915639
_cell_angle_alpha 90.000000
_cell_angle_beta 90.000000
_cell_angle_gamma 90.000000
_cell_volume 4575.473531
_symmetry_space_group_name_H-M "I -4 M 2"
_symmetry_group_IT_number 119
_symmetry_cell_setting 'tetragonal'
loop_
_space_group_symop_operation_xyz
x,y,z
y,-x,-z
-x,-y,z
-y,x,-z
y,x,-z
-y,-x,-z
-x,y,z
x,-y,z
1/2+x,1/2+y,1/2+z
1/2+y,1/2-x,1/2-z
1/2-x,1/2-y,1/2+z
1/2-y,1/2+x,1/2-z
1/2+y,1/2+x,1/2-z
1/2-y,1/2-x,1/2-z
1/2-x,1/2+y,1/2+z
1/2+x,1/2-y,1/2+z
loop_
_atom_site_type_symbol
_atom_site_label
_atom_site_fract_x
_atom_site_fract_y
_atom_site_fract_z
Si Si1 0.900875 0.767232 0.469627
Si Si2 0.896995 0.403984 0.541844
Si Si3 0.654999 0.728938 0.824254
Si Si4 0.597502 0.604522 0.426238
Si Si5 0.400338 0.738234 0.681809
Si Si6 0.102336 0.321801 0.682868
O O1 0.846311 0.846311 0.500000
O O2 0.858617 0.673252 0.493439
O O3 0.904202 0.780003 0.389918
O O4 0.000000 0.774352 0.498204
O O5 0.853867 0.500000 0.524390
O O6 0.877611 0.384221 0.619639
O O7 0.000000 0.410610 0.528154
O O8 0.598230 0.703553 0.758665
O O9 0.681871 0.832058 0.822416
O O10 0.737582 0.664024 0.825752
O O11 0.633711 0.633711 0.500000
O O12 0.500000 0.645103 0.412885
O O13 0.590187 0.500000 0.425537
O O14 0.662208 0.637000 0.367557
O O15 0.500000 0.767392 0.661728
O O16 0.124844 0.375157 0.750000
O O17 0.000000 0.292440 0.684094
#
# Coordination Sequence:
#
# PCOD8311009 Si02
#       6
#    16  16  16  16  16  16
#     4  11  23  41  66  91 124 164 210 266 316 369
#     4   9  19  37  62  92 124 160 204 255 312 376
#     4  11  23  40  60  89 123 159 211 256 311 365
#     4   8  15  31  56  85 117 152 191 239 298 366
#     4  10  21  39  60  84 119 161 204 250 306 367
#     4  11  21  38  62  91 125 162 198 247 312 385
#
# _framework density 20.981435000000001
#
# number of rings (size 3 to 8) (size 9 to 14) (size 15 to 20)
#    0.000    2.000    3.333    1.500    0.000    3.000 
#    0.000    0.000    0.000   11.000    0.000    0.000 
#    0.000    0.333    0.000    0.000    0.000    0.000 
#
# Total GULP energy -594961.592875 kJ/mol
# GULP energy per Si atom -12395.033185 kJ/mol
# Density = 2.093368 g / cm^3
# Si number density = 20.981435 Si / 1000 Ang^3
#
#
#
# Elastic Constant Matrix: (Units=GPa)
#
#
# Indices 1 2 3 4 5 6 
#
# 1 88.7867 39.3129 27.9759 0.0000 0.0000 0.0000
# 2 39.3129 88.7869 27.9758 0.0000 0.0000 0.0000
# 3 27.9759 27.9758 152.5563 0.0000 0.0000 0.0000
# 4 0.0000 0.0000 0.0000 26.9271 0.0000 0.0000
# 5 0.0000 0.0000 0.0000 0.0000 26.9271 0.0000
# 6 0.0000 0.0000 0.0000 0.0000 0.0000 17.5582
#
#
#
# Elastic Compliance Matrix: (Units=1/GPa)
#
#
# Indices 1 2 3 4 5 6 
#
# 1 0.014349 -0.005863 -0.001556 0.000000 0.000000 0.000000
# 2 -0.005863 0.014349 -0.001556 0.000000 0.000000 0.000000
# 3 -0.001556 -0.001556 0.007126 0.000000 0.000000 0.000000
# 4 0.000000 0.000000 0.000000 0.037137 0.000000 0.000000
# 5 0.000000 0.000000 0.000000 0.000000 0.037137 0.000000
# 6 0.000000 0.000000 0.000000 0.000000 0.000000 0.056953
#
#
# Mechanical properties :
#
#
# Convention : Reuss Voigt Hill
#
# Bulk Modulus (GPa) = 55.94965 57.85101 56.90033
# Shear Modulus (GPa) = 26.18329 29.94018 28.06173
#
# Velocity S-wave (km/s) = 3.53643 3.78164 3.66109
# Velocity P-wave (km/s) = 6.58781 6.83375 6.71191
#
# Compressibility (1/GPa) = 0.01787321
#
# Stress axis : x y z
#
# Youngs Moduli (GPa) = 69.68922 69.68939 140.33697
#
# Poissons Ratio (x) = 0.40861 0.21839
# Poissons Ratio (y) = 0.40861 0.21839
# Poissons Ratio (z) = 0.10845 0.10845
#
# Static dielectric constant tensor:
#      x y z
#    x 3.755570 0.000000 0.000000 
#    y 0.000000 3.755570 0.000000 
#    z 0.000000 0.000000 4.387100 
# 
# 
# High freq. dielectric constant tensor:
#      x y z
#    x 1.809080 0.000000 0.000000 
#    y 0.000000 1.809080 0.000000 
#    z 0.000000 0.000000 1.837970 
# 
# From -- ./inp_files/7804.got.cif
#   From: 2010.03.12/outbox.cif.g09.slc.cpg/sg119_4_cif.got.tgz:7804.got - 2010.04.14 02:25:26.
