data_PCOD8311300
_publ_section_title
;
Structure prediction by ZEFSAII (Michael W. Deem and Ramdas Pophale) SiO2 
 PCOD8311300
Probable space group: I -4 C 2
;
_chemical_formula_sum "Si O2"
_cell_formula_units_Z 96
_cell_length_a 19.217013
_cell_length_b 19.217013
_cell_length_c 12.132636
_cell_angle_alpha 90.000000
_cell_angle_beta 90.000000
_cell_angle_gamma 90.000000
_cell_volume 4480.504688
_symmetry_space_group_name_H-M "I -4 C 2"
_symmetry_group_IT_number 120
_symmetry_cell_setting 'tetragonal'
loop_
_space_group_symop_operation_xyz
x,y,z
y,-x,-z
-x,-y,z
-y,x,-z
y,x,1/2-z
-y,-x,1/2-z
-x,y,1/2+z
x,-y,1/2+z
1/2+x,1/2+y,1/2+z
1/2+y,1/2-x,1/2-z
1/2-x,1/2-y,1/2+z
1/2-y,1/2+x,1/2-z
1/2+y,1/2+x,-z
1/2-y,1/2-x,-z
1/2-x,1/2+y,z
1/2+x,1/2-y,z
loop_
_atom_site_type_symbol
_atom_site_label
_atom_site_fract_x
_atom_site_fract_y
_atom_site_fract_z
Si Si1 0.081830 0.924638 0.022573
Si Si2 0.301140 0.801140 0.000000
Si Si3 0.792865 0.618367 0.214935
Si Si4 0.495227 0.103185 0.283455
Si Si5 0.869126 0.130875 0.250000
Si Si6 0.321749 0.659001 0.122585
Si Si7 0.385204 0.822511 0.392773
O O1 0.089950 0.897940 0.146122
O O2 0.137909 0.890456 0.942583
O O3 0.006419 0.904886 0.977363
O O4 0.303914 0.866798 0.084121
O O5 0.298597 0.733872 0.077464
O O6 0.826377 0.543989 0.252947
O O7 0.712504 0.616510 0.243534
O O8 0.833232 0.675180 0.287698
O O9 0.545181 0.065865 0.189649
O O10 0.546151 0.128635 0.381459
O O11 0.339824 0.660177 0.250000
O O12 0.260498 0.601762 0.098117
O O13 0.346466 0.846466 0.500000
#
# Coordination Sequence:
#
# PCOD8311300 Si02
#       7
#    16   8  16  16   8  16  16
#     4  11  29  48  69 103 140 190 237 290 369 441
#     4  12  22  44  68 111 148 181 242 308 362 420
#     4  11  23  44  67 104 143 183 237 295 359 418
#     4   9  22  46  64  97 143 190 241 285 350 431
#     4  12  24  47  76 100 146 186 236 309 356 438
#     4  12  24  41  74 107 144 183 243 305 364 432
#     4  11  22  40  69 103 139 189 235 297 355 421
#
# _framework density 21.426158000000001
#
# number of rings (size 3 to 8) (size 9 to 14) (size 15 to 20)
#    0.000    1.000    4.167    2.000    4.667    0.667 
#   15.000    0.833    0.000    0.000    0.000    0.000 
#    0.000    0.000    0.000    0.000    0.000    0.000 
#
# Total GULP energy -594791.238074 kJ/mol
# GULP energy per Si atom -12391.484127 kJ/mol
# Density = 2.137739 g / cm^3
# Si number density = 21.426158 Si / 1000 Ang^3
#
#
#
# Elastic Constant Matrix: (Units=GPa)
#
#
# Indices 1 2 3 4 5 6 
#
# 1 70.2907 79.0903 32.7952 0.0000 0.0000 0.0000
# 2 79.0903 70.2899 32.7983 0.0000 0.0000 0.0000
# 3 32.7952 32.7983 130.4161 0.0000 0.0000 0.0000
# 4 0.0000 0.0000 0.0000 24.0358 0.0000 0.0000
# 5 0.0000 0.0000 0.0000 0.0000 24.0360 0.0000
# 6 0.0000 0.0000 0.0000 0.0000 0.0000 45.9277
#
#
#
# Elastic Compliance Matrix: (Units=1/GPa)
#
#
# Indices 1 2 3 4 5 6 
#
# 1 -0.053054 0.060580 -0.001894 0.000000 0.000000 0.000000
# 2 0.060580 -0.053056 -0.001891 0.000000 0.000000 0.000000
# 3 -0.001894 -0.001891 0.008620 0.000000 0.000000 0.000000
# 4 0.000000 0.000000 0.000000 0.041605 0.000000 0.000000
# 5 0.000000 0.000000 0.000000 0.000000 0.041604 0.000000
# 6 0.000000 0.000000 0.000000 0.000000 0.000000 0.021773
#
#
# Mechanical properties :
#
#
# Convention : Reuss Voigt Hill
#
# Bulk Modulus (GPa) = 62.11031 62.26270 62.18650
# Shear Modulus (GPa) = -49.63625 27.22074 -11.20776
#
# Velocity S-wave (km/s) = -4.81835 3.56820 -2.28959
# Velocity P-wave (km/s) = 1.37997 6.78957 4.70075
#
# Compressibility (1/GPa) = 0.01610039
#
# Stress axis : x y z
#
# Youngs Moduli (GPa) = -18.84866 -18.84795 116.01492
#
# Poissons Ratio (x) = 1.14182 0.21974
# Poissons Ratio (y) = 1.14186 0.21936
# Poissons Ratio (z) = -0.03570 -0.03564
#
# Static dielectric constant tensor:
#      x y z
#    x 4.109170 0.000000 0.000000 
#    y 0.000000 4.109140 0.000000 
#    z 0.000000 0.000000 3.912990 
# 
# 
# High freq. dielectric constant tensor:
#      x y z
#    x 1.848430 0.000000 0.000000 
#    y 0.000000 1.848430 0.000000 
#    z 0.000000 0.000000 1.827980 
# 
# From -- ./inp_files/2779.got.cif
#   From: 2010.03.12/outbox.cif.g09.slc.cpg/sg120_2_cif.got.tgz:2779.got - 2010.04.06 16:00:44.
