data_PCOD8311575
_publ_section_title
;
Structure prediction by ZEFSAII (Michael W. Deem and Ramdas Pophale) SiO2 
 PCOD8311575
Probable space group: I -4 2 M
;
_chemical_formula_sum "Si O2"
_cell_formula_units_Z 88
_cell_length_a 11.549195
_cell_length_b 11.549195
_cell_length_c 32.977595
_cell_angle_alpha 90.000000
_cell_angle_beta 90.000000
_cell_angle_gamma 90.000000
_cell_volume 4398.680403
_symmetry_space_group_name_H-M "I -4 2 M"
_symmetry_group_IT_number 121
_symmetry_cell_setting 'tetragonal'
loop_
_space_group_symop_operation_xyz
x,y,z
y,-x,-z
-x,-y,z
-y,x,-z
x,-y,-z
-x,y,-z
-y,-x,z
y,x,z
1/2+x,1/2+y,1/2+z
1/2+y,1/2-x,1/2-z
1/2-x,1/2-y,1/2+z
1/2-y,1/2+x,1/2-z
1/2+x,1/2-y,1/2-z
1/2-x,1/2+y,1/2-z
1/2-y,1/2-x,1/2+z
1/2+y,1/2+x,1/2+z
loop_
_atom_site_type_symbol
_atom_site_label
_atom_site_fract_x
_atom_site_fract_y
_atom_site_fract_z
Si Si1 0.093585 0.093585 0.898061
Si Si2 0.814891 0.371838 0.990009
Si Si3 0.378079 0.815157 0.809963
Si Si4 0.731573 0.456000 0.251688
Si Si5 0.969122 0.673595 0.935458
Si Si6 0.097708 0.097708 0.809807
Si Si7 0.000000 0.500000 0.131345
O O1 0.138926 0.138926 0.854366
O O2 0.027166 0.193895 0.921971
O O3 0.000000 0.000000 0.887979
O O4 0.706190 0.293811 0.977153
O O5 0.870580 0.325554 0.030971
O O6 0.770017 0.500000 0.000000
O O7 0.908343 0.370009 0.953595
O O8 0.275650 0.724351 0.825283
O O9 0.490777 0.750494 0.792963
O O10 0.336667 0.881418 0.769409
O O11 0.423723 0.904891 0.843959
O O12 0.617313 0.382688 0.245327
O O13 0.709885 0.552817 0.286008
O O14 0.934484 0.592019 0.897618
O O15 0.000000 0.000000 0.812524
#
# Coordination Sequence:
#
# PCOD8311575 Si02
#       7
#     8  16  16  16  16   8   8
#     4  11  22  36  62 102 130 163 217 269 325 393
#     4  11  22  43  71  94 125 170 207 249 311 387
#     4  11  23  38  62  91 122 171 225 271 332 394
#     4  10  20  38  60  85 121 164 217 276 321 378
#     4  11  22  42  63  95 135 166 201 263 325 381
#     4   9  18  34  56  80 119 158 198 264 325 357
#     4  12  24  42  62  92 136 172 212 272 334 388
#
# _framework density 20.006
#
# number of rings (size 3 to 8) (size 9 to 14) (size 15 to 20)
#    0.000    1.273    3.636    3.273    0.000    3.091 
#    1.636    0.000    0.000    0.000    0.000    0.000 
#    0.000    0.000    0.000    0.000    0.000    0.000 
#
# Total GULP energy -545261.094687 kJ/mol
# GULP energy per Si atom -12392.297607 kJ/mol
# Density = 1.996047 g / cm^3
# Si number density = 20.006000 Si / 1000 Ang^3
#
#
#
# Elastic Constant Matrix: (Units=GPa)
#
#
# Indices 1 2 3 4 5 6 
#
# 1 89.7207 32.3009 31.7730 0.0000 0.0000 0.0000
# 2 32.3009 89.7207 31.7731 0.0000 0.0000 0.0000
# 3 31.7730 31.7731 96.4960 0.0000 0.0000 0.0000
# 4 0.0000 0.0000 0.0000 24.1694 0.0000 0.0000
# 5 0.0000 0.0000 0.0000 0.0000 24.1686 0.0000
# 6 0.0000 0.0000 0.0000 0.0000 0.0000 31.9165
#
#
#
# Elastic Compliance Matrix: (Units=1/GPa)
#
#
# Indices 1 2 3 4 5 6 
#
# 1 0.013653 -0.003762 -0.003257 0.000000 0.000000 0.000000
# 2 -0.003762 0.013653 -0.003257 0.000000 0.000000 0.000000
# 3 -0.003257 -0.003257 0.012508 0.000000 0.000000 0.000000
# 4 0.000000 0.000000 0.000000 0.041375 0.000000 0.000000
# 5 0.000000 0.000000 0.000000 0.000000 0.041376 0.000000
# 6 0.000000 0.000000 0.000000 0.000000 0.000000 0.031332
#
#
# Mechanical properties :
#
#
# Convention : Reuss Voigt Hill
#
# Bulk Modulus (GPa) = 51.91291 51.95906 51.93599
# Shear Modulus (GPa) = 27.64415 28.05694 27.85054
#
# Velocity S-wave (km/s) = 3.72128 3.74896 3.73515
# Velocity P-wave (km/s) = 6.66850 6.69087 6.67969
#
# Compressibility (1/GPa) = 0.01926303
#
# Stress axis : x y z
#
# Youngs Moduli (GPa) = 73.24134 73.24130 79.94930
#
# Poissons Ratio (x) = 0.27554 0.26039
# Poissons Ratio (y) = 0.27554 0.26039
# Poissons Ratio (z) = 0.23854 0.23854
#
# Static dielectric constant tensor:
#      x y z
#    x 3.639110 0.000000 0.000000 
#    y 0.000000 3.639120 0.000000 
#    z 0.000000 0.000000 3.796700 
# 
# 
# High freq. dielectric constant tensor:
#      x y z
#    x 1.777520 0.000000 0.000000 
#    y 0.000000 1.777520 0.000000 
#    z 0.000000 0.000000 1.780080 
# 
# From -- ./inp_files/8253.got.cif
#   From: 2010.03.12/outbox.cif.g09.slc.cpg/sg121_5_cif.got.tgz:8253.got - 2010.04.06 16:06:48.
