data_PCOD8311224
_publ_section_title
;
Structure prediction by ZEFSAII (Michael W. Deem and Ramdas Pophale) SiO2 
 PCOD8311224
Probable space group: I -4 C 2
;
_chemical_formula_sum "Si O2"
_cell_formula_units_Z 108
_cell_length_a 14.011746
_cell_length_b 14.011746
_cell_length_c 24.979420
_cell_angle_alpha 90.000000
_cell_angle_beta 90.000000
_cell_angle_gamma 90.000000
_cell_volume 4904.185198
_symmetry_space_group_name_H-M "I -4 C 2"
_symmetry_group_IT_number 120
_symmetry_cell_setting 'tetragonal'
loop_
_space_group_symop_operation_xyz
x,y,z
y,-x,-z
-x,-y,z
-y,x,-z
y,x,1/2-z
-y,-x,1/2-z
-x,y,1/2+z
x,-y,1/2+z
1/2+x,1/2+y,1/2+z
1/2+y,1/2-x,1/2-z
1/2-x,1/2-y,1/2+z
1/2-y,1/2+x,1/2-z
1/2+y,1/2+x,-z
1/2-y,1/2-x,-z
1/2-x,1/2+y,z
1/2+x,1/2-y,z
loop_
_atom_site_type_symbol
_atom_site_label
_atom_site_fract_x
_atom_site_fract_y
_atom_site_fract_z
Si Si1 0.500000 0.500000 0.500000
Si Si2 0.223705 0.286427 0.610611
Si Si3 0.342142 0.414055 0.929705
Si Si4 0.325273 0.105688 0.634728
Si Si5 0.675616 0.175616 0.500000
Si Si6 0.189074 0.545954 0.516778
Si Si7 0.986501 0.345818 0.258077
Si Si8 0.017601 0.713462 0.146998
O O1 0.434964 0.440081 0.540309
O O2 0.315607 0.357122 0.604095
O O3 0.259820 0.198223 0.646288
O O4 0.201790 0.256040 0.549427
O O5 0.124364 0.328077 0.634424
O O6 0.309028 0.496755 0.887589
O O7 0.262777 0.402485 0.976233
O O8 0.289888 0.063148 0.579145
O O9 0.302852 0.032745 0.683165
O O10 0.438406 0.132753 0.632098
O O11 0.566256 0.194947 0.488063
O O12 0.084921 0.584921 0.500000
O O13 0.900742 0.414305 0.239915
O O14 0.990375 0.265646 0.211001
#
# Coordination Sequence:
#
# PCOD8311224 Si02
#       8
#     4  16  16  16   8  16  16  16
#     4  12  28  44  60  92 134 176 240 256 332 406
#     4  11  21  39  59  84 128 165 215 260 317 384
#     4  11  24  41  63  90 126 176 215 278 315 401
#     4  10  22  38  64  90 127 170 212 262 327 393
#     4  12  23  32  56  92 130 167 194 262 330 394
#     4  12  21  37  59  95 126 157 205 263 338 400
#     4   9  20  39  62  94 129 160 203 268 332 398
#     4  10  21  40  63  92 125 166 213 270 328 392
#
# _framework density 22.022006999999999
#
# number of rings (size 3 to 8) (size 9 to 14) (size 15 to 20)
#    0.000    1.333    4.444    2.000    4.148    0.593 
#    2.667    0.000    0.000    0.000    0.000    1.037 
#    0.000    0.000    0.000    0.000    0.000    0.000 
#
# Total GULP energy -668973.810546 kJ/mol
# GULP energy per Si atom -12388.403899 kJ/mol
# Density = 2.197188 g / cm^3
# Si number density = 22.022007 Si / 1000 Ang^3
#
#
#
# Elastic Constant Matrix: (Units=GPa)
#
#
# Indices 1 2 3 4 5 6 
#
# 1 76.7170 12.3436 19.8652 0.0000 0.0000 0.0000
# 2 12.3436 76.7170 19.8652 0.0000 0.0000 0.0000
# 3 19.8652 19.8652 129.8154 0.0000 0.0000 0.0000
# 4 0.0000 0.0000 0.0000 25.0928 0.0000 0.0000
# 5 0.0000 0.0000 0.0000 0.0000 25.0928 0.0000
# 6 0.0000 0.0000 0.0000 0.0000 0.0000 9.2932
#
#
#
# Elastic Compliance Matrix: (Units=1/GPa)
#
#
# Indices 1 2 3 4 5 6 
#
# 1 0.013793 -0.001742 -0.001844 0.000000 0.000000 0.000000
# 2 -0.001742 0.013793 -0.001844 0.000000 0.000000 0.000000
# 3 -0.001844 -0.001844 0.008268 0.000000 0.000000 0.000000
# 4 0.000000 0.000000 0.000000 0.039852 0.000000 0.000000
# 5 0.000000 0.000000 0.000000 0.000000 0.039852 0.000000
# 6 0.000000 0.000000 0.000000 0.000000 0.000000 0.107605
#
#
# Mechanical properties :
#
#
# Convention : Reuss Voigt Hill
#
# Bulk Modulus (GPa) = 40.01099 43.04415 41.52757
# Shear Modulus (GPa) = 20.63103 27.30745 23.96924
#
# Velocity S-wave (km/s) = 3.06410 3.52519 3.30270
# Velocity P-wave (km/s) = 5.54314 6.01313 5.78291
#
# Compressibility (1/GPa) = 0.02499313
#
# Stress axis : x y z
#
# Youngs Moduli (GPa) = 72.50222 72.50222 120.95351
#
# Poissons Ratio (x) = 0.12628 0.22305
# Poissons Ratio (y) = 0.12628 0.22305
# Poissons Ratio (z) = 0.13370 0.13370
#
# Static dielectric constant tensor:
#      x y z
#    x 3.949070 0.000000 0.000000 
#    y 0.000000 3.949070 0.000000 
#    z 0.000000 0.000000 4.304130 
# 
# 
# High freq. dielectric constant tensor:
#      x y z
#    x 1.846270 0.000000 0.000000 
#    y 0.000000 1.846270 0.000000 
#    z 0.000000 0.000000 1.873200 
# 
# From -- ./inp_files/6320.got.cif
#   From: 2010.03.12/outbox.cif.g09.slc.cpg/sg120_4_cif.got.tgz:6320.got - 2010.04.06 16:00:44.
