data_PCOD8311953
_publ_section_title
;
Structure prediction by ZEFSAII (Michael W. Deem and Ramdas Pophale) SiO2 
 PCOD8311953
Probable space group: I -4 2 D
;
_chemical_formula_sum "Si O2"
_cell_formula_units_Z 92
_cell_length_a 14.294938
_cell_length_b 14.294938
_cell_length_c 20.828373
_cell_angle_alpha 90.000000
_cell_angle_beta 90.000000
_cell_angle_gamma 90.000000
_cell_volume 4256.179138
_symmetry_space_group_name_H-M "I -4 2 D"
_symmetry_group_IT_number 122
_symmetry_cell_setting 'tetragonal'
loop_
_space_group_symop_operation_xyz
x,y,z
y,-x,-z
-x,-y,z
-y,x,-z
x,1/2-y,1/4-z
-x,1/2+y,1/4-z
-y,1/2-x,1/4+z
y,1/2+x,1/4+z
1/2+x,1/2+y,1/2+z
1/2+y,1/2-x,1/2-z
1/2-x,1/2-y,1/2+z
1/2-y,1/2+x,1/2-z
1/2+x,-y,3/4-z
1/2-x,y,3/4-z
1/2-y,-x,3/4+z
1/2+y,x,3/4+z
loop_
_atom_site_type_symbol
_atom_site_label
_atom_site_fract_x
_atom_site_fract_y
_atom_site_fract_z
Si Si1 0.667891 0.433707 0.721290
Si Si2 0.000000 0.000000 0.152753
Si Si3 0.126719 0.805422 0.717244
Si Si4 0.142829 0.893737 0.588664
Si Si5 0.435830 0.610271 0.462188
Si Si6 0.738574 0.709795 0.196359
Si Si7 0.500000 0.500000 0.000000
O O1 0.562422 0.424998 0.693507
O O2 0.674415 0.542388 0.736075
O O3 0.746376 0.409163 0.668758
O O4 0.688626 0.367828 0.782404
O O5 0.067607 0.062828 0.109067
O O6 0.128595 0.891209 0.665708
O O7 0.108004 0.706245 0.684813
O O8 0.221102 0.797044 0.758278
O O9 0.084396 0.970955 0.548082
O O10 0.540680 0.621781 0.490500
O O11 0.389181 0.710580 0.453795
O O12 0.734674 0.750000 0.125000
#
# Coordination Sequence:
#
# PCOD8311953 Si02
#       7
#    16   8  16  16  16  16   4
#     4  11  24  44  64  99 135 175 228 275 341 406
#     4  10  23  45  66  96 135 169 222 290 330 414
#     4  10  23  42  64  99 135 177 223 278 330 416
#     4  10  23  40  68  96 139 175 226 270 339 409
#     4   9  22  44  70  97 128 169 224 285 349 407
#     4  11  25  43  69  97 136 181 224 287 346 408
#     4  12  20  42  72 104 130 196 212 286 340 416
#
# _framework density 21.615632000000002
#
# number of rings (size 3 to 8) (size 9 to 14) (size 15 to 20)
#    0.000    1.913    1.739    1.043    7.304    3.478 
#    6.261    0.000    0.000    0.000    0.000    0.000 
#    0.000    0.000    0.000    0.000    0.000    0.000 
#
# Total GULP energy -570095.784371 kJ/mol
# GULP energy per Si atom -12393.386617 kJ/mol
# Density = 2.156643 g / cm^3
# Si number density = 21.615632 Si / 1000 Ang^3
#
#
#
# Elastic Constant Matrix: (Units=GPa)
#
#
# Indices 1 2 3 4 5 6 
#
# 1 75.5998 28.5679 28.3727 0.0000 0.0000 0.0000
# 2 28.5679 75.5998 28.3727 0.0000 0.0000 0.0000
# 3 28.3727 28.3727 114.7259 0.0000 0.0000 0.0000
# 4 0.0000 0.0000 0.0000 23.6425 0.0000 0.0000
# 5 0.0000 0.0000 0.0000 0.0000 23.6425 0.0000
# 6 0.0000 0.0000 0.0000 0.0000 0.0000 40.3033
#
#
#
# Elastic Compliance Matrix: (Units=1/GPa)
#
#
# Indices 1 2 3 4 5 6 
#
# 1 0.016178 -0.005084 -0.002744 0.000000 0.000000 0.000000
# 2 -0.005084 0.016178 -0.002744 0.000000 0.000000 0.000000
# 3 -0.002744 -0.002744 0.010074 0.000000 0.000000 0.000000
# 4 0.000000 0.000000 0.000000 0.042297 0.000000 0.000000
# 5 0.000000 0.000000 0.000000 0.000000 0.042297 0.000000
# 6 0.000000 0.000000 0.000000 0.000000 0.000000 0.024812
#
#
# Mechanical properties :
#
#
# Convention : Reuss Voigt Hill
#
# Bulk Modulus (GPa) = 46.97578 48.50580 47.74079
# Shear Modulus (GPa) = 27.76631 29.55845 28.66238
#
# Velocity S-wave (km/s) = 3.58795 3.70193 3.64538
# Velocity P-wave (km/s) = 6.24051 6.38445 6.31289
#
# Compressibility (1/GPa) = 0.02128757
#
# Stress axis : x y z
#
# Youngs Moduli (GPa) = 61.81091 61.81091 99.26979
#
# Poissons Ratio (x) = 0.31423 0.27238
# Poissons Ratio (y) = 0.31423 0.27238
# Poissons Ratio (z) = 0.16960 0.16960
#
# Static dielectric constant tensor:
#      x y z
#    x 3.841020 0.000000 0.000000 
#    y 0.000000 3.841020 0.000000 
#    z 0.000000 0.000000 4.148790 
# 
# 
# High freq. dielectric constant tensor:
#      x y z
#    x 1.842500 0.000000 0.000000 
#    y 0.000000 1.842500 0.000000 
#    z 0.000000 0.000000 1.857820 
# 
# From -- ./inp_files/7350.got.cif
#   From: 2010.03.12/outbox.cif.g09.slc.cpg/sg122_4_cif.got.tgz:7350.got - 2010.04.06 16:17:16.
