data_PCOD8311714
_publ_section_title
;
Structure prediction by ZEFSAII (Michael W. Deem and Ramdas Pophale) SiO2 
 PCOD8311714
Probable space group: I -4 2 M
;
_chemical_formula_sum "Si O2"
_cell_formula_units_Z 48
_cell_length_a 13.426895
_cell_length_b 13.426895
_cell_length_c 11.056895
_cell_angle_alpha 90.000000
_cell_angle_beta 90.000000
_cell_angle_gamma 90.000000
_cell_volume 1993.353719
_symmetry_space_group_name_H-M "I -4 2 M"
_symmetry_group_IT_number 121
_symmetry_cell_setting 'tetragonal'
loop_
_space_group_symop_operation_xyz
x,y,z
y,-x,-z
-x,-y,z
-y,x,-z
x,-y,-z
-x,y,-z
-y,-x,z
y,x,z
1/2+x,1/2+y,1/2+z
1/2+y,1/2-x,1/2-z
1/2-x,1/2-y,1/2+z
1/2-y,1/2+x,1/2-z
1/2+x,1/2-y,1/2-z
1/2-x,1/2+y,1/2-z
1/2-y,1/2-x,1/2+z
1/2+y,1/2+x,1/2+z
loop_
_atom_site_type_symbol
_atom_site_label
_atom_site_fract_x
_atom_site_fract_y
_atom_site_fract_z
Si Si1 0.298250 0.701751 0.345521
Si Si2 0.893680 0.893680 0.948838
Si Si3 0.350636 0.065643 0.279875
Si Si4 0.255002 0.000000 0.500000
Si Si5 0.136484 0.136484 0.672204
O O1 0.316086 0.683915 0.489001
O O2 0.398843 0.749453 0.287676
O O3 0.218229 0.781772 0.312736
O O4 0.897238 0.897238 0.804722
O O5 0.000000 0.862638 0.000000
O O6 0.448405 0.131358 0.251853
O O7 0.327853 0.073841 0.424415
O O8 0.182590 0.954002 0.400902
#
# Coordination Sequence:
#
# PCOD8311714 Si02
#       5
#     8   8  16   8   8
#     4  12  26  49  79 108 160 194 259 317 378 471
#     4  11  28  51  75 110 151 202 255 320 385 464
#     4  11  26  48  77 116 154 205 256 314 389 455
#     4  12  26  48  74 114 154 196 256 321 377 470
#     4  12  28  46  74 112 147 205 254 311 399 441
#
# _framework density 24.080022
#
# number of rings (size 3 to 8) (size 9 to 14) (size 15 to 20)
#    0.000    0.500    3.333    3.000    4.667    5.667 
#    6.000    0.000    0.000    0.000    0.000    0.000 
#    0.000    0.000    0.000    0.000    0.000    0.000 
#
# Total GULP energy -297361.005790 kJ/mol
# GULP energy per Si atom -12390.041908 kJ/mol
# Density = 2.402521 g / cm^3
# Si number density = 24.080022 Si / 1000 Ang^3
#
#
#
# Elastic Constant Matrix: (Units=GPa)
#
#
# Indices 1 2 3 4 5 6 
#
# 1 44.5866 105.9530 70.5096 0.0000 0.0000 0.0000
# 2 105.9530 44.5864 70.5072 0.0000 0.0000 0.0000
# 3 70.5096 70.5072 225.7155 0.0000 0.0000 0.0000
# 4 0.0000 0.0000 0.0000 42.3745 0.0000 0.0000
# 5 0.0000 0.0000 0.0000 0.0000 42.3748 0.0000
# 6 0.0000 0.0000 0.0000 0.0000 0.0000 47.1224
#
#
#
# Elastic Compliance Matrix: (Units=1/GPa)
#
#
# Indices 1 2 3 4 5 6 
#
# 1 -0.003453 0.012843 -0.002933 0.000000 0.000000 0.000000
# 2 0.012843 -0.003452 -0.002934 0.000000 0.000000 0.000000
# 3 -0.002933 -0.002934 0.006263 0.000000 0.000000 0.000000
# 4 0.000000 0.000000 0.000000 0.023599 0.000000 0.000000
# 5 0.000000 0.000000 0.000000 0.000000 0.023599 0.000000
# 6 0.000000 0.000000 0.000000 0.000000 0.000000 0.021221
#
#
# Mechanical properties :
#
#
# Convention : Reuss Voigt Hill
#
# Bulk Modulus (GPa) = 75.12803 89.86978 82.49891
# Shear Modulus (GPa) = 85.81949 30.90227 58.36088
#
# Velocity S-wave (km/s) = 5.97634 3.58623 4.92837
# Velocity P-wave (km/s) = 8.88196 7.38582 8.16822
#
# Compressibility (1/GPa) = 0.01331061
#
# Stress axis : x y z
#
# Youngs Moduli (GPa) = -289.64093 -289.65689 159.66723
#
# Poissons Ratio (x) = 3.72009 0.46835
# Poissons Ratio (y) = 3.71989 0.46839
# Poissons Ratio (z) = -0.84961 -0.84972
#
# Static dielectric constant tensor:
#      x y z
#    x 3.437320 0.000000 0.000000 
#    y 0.000000 3.437470 0.000000 
#    z 0.000000 0.000000 4.718770 
# 
# 
# High freq. dielectric constant tensor:
#      x y z
#    x 1.962740 0.000000 0.000000 
#    y 0.000000 1.962740 0.000000 
#    z 0.000000 0.000000 1.965620 
# 
# From -- ./inp_files/2703.got.cif
#   From: 2010.03.12/outbox.cif.g09.slc.cpg/sg121_2_cif.got.tgz:2703.got - 2010.04.06 16:06:48.
