data_PCOD8311559
_publ_section_title
;
Structure prediction by ZEFSAII (Michael W. Deem and Ramdas Pophale) SiO2 
 PCOD8311559
Probable space group: I -4 2 M
;
_chemical_formula_sum "Si O2"
_cell_formula_units_Z 112
_cell_length_a 13.479845
_cell_length_b 13.479845
_cell_length_c 28.820484
_cell_angle_alpha 90.000000
_cell_angle_beta 90.000000
_cell_angle_gamma 90.000000
_cell_volume 5236.861241
_symmetry_space_group_name_H-M "I -4 2 M"
_symmetry_group_IT_number 121
_symmetry_cell_setting 'tetragonal'
loop_
_space_group_symop_operation_xyz
x,y,z
y,-x,-z
-x,-y,z
-y,x,-z
x,-y,-z
-x,y,-z
-y,-x,z
y,x,z
1/2+x,1/2+y,1/2+z
1/2+y,1/2-x,1/2-z
1/2-x,1/2-y,1/2+z
1/2-y,1/2+x,1/2-z
1/2+x,1/2-y,1/2-z
1/2-x,1/2+y,1/2-z
1/2-y,1/2-x,1/2+z
1/2+y,1/2+x,1/2+z
loop_
_atom_site_type_symbol
_atom_site_label
_atom_site_fract_x
_atom_site_fract_y
_atom_site_fract_z
Si Si1 0.459425 0.298619 0.631722
Si Si2 0.754817 0.079553 0.040612
Si Si3 0.859523 0.416723 0.200796
Si Si4 0.755632 0.588907 0.963742
Si Si5 0.584071 0.584071 0.194561
Si Si6 0.581887 0.860907 0.695970
Si Si7 0.794553 0.048573 0.635018
Si Si8 0.418037 0.581964 0.701288
O O1 0.392302 0.392302 0.615675
O O2 0.519143 0.253969 0.588650
O O3 0.387187 0.215418 0.655124
O O4 0.536962 0.327522 0.672130
O O5 0.852015 0.147986 0.038443
O O6 0.655549 0.145127 0.035232
O O7 0.758846 0.000000 0.000000
O O8 0.819877 0.394418 0.252555
O O9 0.963582 0.367505 0.191645
O O10 0.778403 0.378460 0.164142
O O11 0.867168 0.533967 0.189537
O O12 0.659563 0.659563 0.971822
O O13 0.752674 0.528748 0.915160
O O14 0.760334 0.500000 0.000000
O O15 0.500000 0.500000 0.197562
O O16 0.681014 0.547968 0.166199
O O17 0.616611 0.616611 0.246959
O O18 0.897021 0.102980 0.625305
O O19 0.500000 0.500000 0.709261
#
# Coordination Sequence:
#
# PCOD8311559 Si02
#       8
#    16  16  16  16   8  16  16   8
#     4  11  21  36  60  91 125 161 206 261 315 376
#     4  11  24  43  65  92 125 163 214 267 325 393
#     4   9  18  36  55  77 117 163 207 255 303 374
#     4  10  24  43  66  96 125 159 208 265 321 386
#     4   9  18  32  54  87 124 162 198 239 298 370
#     4   9  19  34  55  81 114 162 210 251 311 366
#     4  10  20  36  59  86 119 153 195 243 304 368
#     4   9  18  32  54  85 126 164 199 244 299 361
#
# _framework density 21.386856999999999
#
# number of rings (size 3 to 8) (size 9 to 14) (size 15 to 20)
#    0.000    2.143    0.714    3.000    1.000    4.000 
#    2.571    0.000    0.000    0.000    0.000    0.000 
#    0.000    0.000    0.000    0.000    0.000    0.000 
#
# Total GULP energy -693956.041450 kJ/mol
# GULP energy per Si atom -12392.072169 kJ/mol
# Density = 2.133818 g / cm^3
# Si number density = 21.386857 Si / 1000 Ang^3
#
#
#
# Elastic Constant Matrix: (Units=GPa)
#
#
# Indices 1 2 3 4 5 6 
#
# 1 83.0489 -2.1859 39.2954 0.0000 0.0000 0.0000
# 2 -2.1859 83.0499 39.2958 0.0000 0.0000 0.0000
# 3 39.2954 39.2958 159.6984 0.0000 0.0000 0.0000
# 4 0.0000 0.0000 0.0000 13.0106 0.0000 0.0000
# 5 0.0000 0.0000 0.0000 0.0000 13.0158 0.0000
# 6 0.0000 0.0000 0.0000 0.0000 0.0000 -0.7389
#
#
#
# Elastic Compliance Matrix: (Units=1/GPa)
#
#
# Indices 1 2 3 4 5 6 
#
# 1 0.013993 0.002261 -0.003999 0.000000 0.000000 0.000000
# 2 0.002261 0.013993 -0.003999 0.000000 0.000000 0.000000
# 3 -0.003999 -0.003999 0.008230 0.000000 0.000000 0.000000
# 4 0.000000 0.000000 0.000000 0.076860 0.000000 0.000000
# 5 0.000000 0.000000 0.000000 0.000000 0.076830 0.000000
# 6 0.000000 0.000000 0.000000 0.000000 0.000000 -1.353339
#
#
# Mechanical properties :
#
#
# Convention : Reuss Voigt Hill
#
# Bulk Modulus (GPa) = 40.42115 53.17866 46.79990
# Shear Modulus (GPa) = -4.37173 21.68362 8.65594
#
# Velocity S-wave (km/s) = -1.43128 3.18760 2.01398
# Velocity P-wave (km/s) = 4.02612 6.20216 5.22859
#
# Compressibility (1/GPa) = 0.02473952
#
# Stress axis : x y z
#
# Youngs Moduli (GPa) = 71.46467 71.46538 121.50697
#
# Poissons Ratio (x) = -0.16156 0.48595
# Poissons Ratio (y) = -0.16155 0.48595
# Poissons Ratio (z) = 0.28581 0.28582
#
# Static dielectric constant tensor:
#      x y z
#    x 3.823260 0.000000 0.000000 
#    y 0.000000 3.823250 0.000000 
#    z 0.000000 0.000000 4.555020 
# 
# 
# High freq. dielectric constant tensor:
#      x y z
#    x 1.830530 0.000000 0.000000 
#    y 0.000000 1.830530 0.000000 
#    z 0.000000 0.000000 1.845320 
# 
# From -- ./inp_files/7774.got.cif
#   From: 2010.03.12/outbox.cif.g09.slc.cpg/sg121_4_cif.got.tgz:7774.got - 2010.04.06 16:06:48.
