data_PCOD8311802
_publ_section_title
;
Structure prediction by ZEFSAII (Michael W. Deem and Ramdas Pophale) SiO2 
 PCOD8311802
Probable space group: I -4 2 D
;
_chemical_formula_sum "Si O2"
_cell_formula_units_Z 88
_cell_length_a 13.996285
_cell_length_b 13.996285
_cell_length_c 21.152101
_cell_angle_alpha 90.000000
_cell_angle_beta 90.000000
_cell_angle_gamma 90.000000
_cell_volume 4143.611846
_symmetry_space_group_name_H-M "I -4 2 D"
_symmetry_group_IT_number 122
_symmetry_cell_setting 'tetragonal'
loop_
_space_group_symop_operation_xyz
x,y,z
y,-x,-z
-x,-y,z
-y,x,-z
x,1/2-y,1/4-z
-x,1/2+y,1/4-z
-y,1/2-x,1/4+z
y,1/2+x,1/4+z
1/2+x,1/2+y,1/2+z
1/2+y,1/2-x,1/2-z
1/2-x,1/2-y,1/2+z
1/2-y,1/2+x,1/2-z
1/2+x,-y,3/4-z
1/2-x,y,3/4-z
1/2-y,-x,3/4+z
1/2+y,x,3/4+z
loop_
_atom_site_type_symbol
_atom_site_label
_atom_site_fract_x
_atom_site_fract_y
_atom_site_fract_z
Si Si1 0.768306 0.135744 0.522606
Si Si2 0.061909 0.359964 0.243715
Si Si3 0.790249 0.034095 0.651858
Si Si4 0.030467 0.809112 0.562716
Si Si5 0.500000 0.000000 0.372668
Si Si6 0.672499 0.261597 0.424850
O O1 0.875194 0.177594 0.520184
O O2 0.693342 0.213609 0.494263
O O3 0.752593 0.101370 0.594883
O O4 0.750369 0.044019 0.478758
O O5 0.113745 0.453365 0.275031
O O6 0.123324 0.331625 0.182228
O O7 0.070165 0.267041 0.287560
O O8 0.768199 0.924047 0.640671
O O9 0.906032 0.035312 0.662139
O O10 0.058165 0.750000 0.625000
O O11 0.977832 0.909551 0.578231
O O12 0.750000 0.227267 0.375000
#
# Coordination Sequence:
#
# PCOD8311802 Si02
#       6
#    16  16  16  16   8  16
#     4  11  22  36  62  89 130 171 212 268 329 404
#     4   9  21  44  68  85 122 167 217 279 334 395
#     4  10  22  40  60  96 127 171 219 267 340 403
#     4  11  22  36  58  89 128 172 210 255 327 396
#     4  10  20  35  60  86 136 158 212 261 312 408
#     4  11  22  40  63  92 127 169 220 276 332 403
#
# _framework density 21.237508999999999
#
# number of rings (size 3 to 8) (size 9 to 14) (size 15 to 20)
#    0.000    1.636    0.000    6.000    5.091    0.727 
#    9.818    0.000    0.000    0.000    0.000    0.000 
#    0.000    0.000    0.000    0.000    0.000    0.000 
#
# Total GULP energy -545119.829300 kJ/mol
# GULP energy per Si atom -12389.087030 kJ/mol
# Density = 2.118917 g / cm^3
# Si number density = 21.237509 Si / 1000 Ang^3
#
#
#
# Elastic Constant Matrix: (Units=GPa)
#
#
# Indices 1 2 3 4 5 6 
#
# 1 88.6335 11.0504 26.0036 0.0000 0.0000 0.0000
# 2 11.0504 88.6335 26.0036 0.0000 0.0000 0.0000
# 3 26.0036 26.0036 51.3803 0.0000 0.0000 0.0000
# 4 0.0000 0.0000 0.0000 32.8117 0.0000 0.0000
# 5 0.0000 0.0000 0.0000 0.0000 32.8117 0.0000
# 6 0.0000 0.0000 0.0000 0.0000 0.0000 26.7654
#
#
#
# Elastic Compliance Matrix: (Units=1/GPa)
#
#
# Indices 1 2 3 4 5 6 
#
# 1 0.013260 0.000371 -0.006899 0.000000 0.000000 0.000000
# 2 0.000371 0.013260 -0.006899 0.000000 0.000000 0.000000
# 3 -0.006899 -0.006899 0.026445 0.000000 0.000000 0.000000
# 4 0.000000 0.000000 0.000000 0.030477 0.000000 0.000000
# 5 0.000000 0.000000 0.000000 0.000000 0.030477 0.000000
# 6 0.000000 0.000000 0.000000 0.000000 0.000000 0.037362
#
#
# Mechanical properties :
#
#
# Convention : Reuss Voigt Hill
#
# Bulk Modulus (GPa) = 38.29531 39.41802 38.85666
# Shear Modulus (GPa) = 26.76110 29.51707 28.13908
#
# Velocity S-wave (km/s) = 3.55362 3.73212 3.64396
# Velocity P-wave (km/s) = 5.90836 6.09692 6.00338
#
# Compressibility (1/GPa) = 0.02611286
#
# Stress axis : x y z
#
# Youngs Moduli (GPa) = 75.41407 75.41407 37.81371
#
# Poissons Ratio (x) = -0.02796 0.26086
# Poissons Ratio (y) = -0.02796 0.26086
# Poissons Ratio (z) = 0.52025 0.52025
#
# Static dielectric constant tensor:
#      x y z
#    x 3.969300 0.000000 0.000000 
#    y 0.000000 3.969300 0.000000 
#    z 0.000000 0.000000 3.557110 
# 
# 
# High freq. dielectric constant tensor:
#      x y z
#    x 1.842390 0.000000 0.000000 
#    y 0.000000 1.842390 0.000000 
#    z 0.000000 0.000000 1.799810 
# 
# From -- ./inp_files/7206.got.cif
#   From: 2010.03.12/outbox.cif.g09.slc.cpg/sg122_4_cif.got.tgz:7206.got - 2010.04.06 16:17:16.
