data_PCOD8311562
_publ_section_title
;
Structure prediction by ZEFSAII (Michael W. Deem and Ramdas Pophale) SiO2 
 PCOD8311562
Probable space group: I -4 2 M
;
_chemical_formula_sum "Si O2"
_cell_formula_units_Z 96
_cell_length_a 14.577090
_cell_length_b 14.577090
_cell_length_c 20.455313
_cell_angle_alpha 90.000000
_cell_angle_beta 90.000000
_cell_angle_gamma 90.000000
_cell_volume 4346.581224
_symmetry_space_group_name_H-M "I -4 2 M"
_symmetry_group_IT_number 121
_symmetry_cell_setting 'tetragonal'
loop_
_space_group_symop_operation_xyz
x,y,z
y,-x,-z
-x,-y,z
-y,x,-z
x,-y,-z
-x,y,-z
-y,-x,z
y,x,z
1/2+x,1/2+y,1/2+z
1/2+y,1/2-x,1/2-z
1/2-x,1/2-y,1/2+z
1/2-y,1/2+x,1/2-z
1/2+x,1/2-y,1/2-z
1/2-x,1/2+y,1/2-z
1/2-y,1/2-x,1/2+z
1/2+y,1/2+x,1/2+z
loop_
_atom_site_type_symbol
_atom_site_label
_atom_site_fract_x
_atom_site_fract_y
_atom_site_fract_z
Si Si1 0.130259 0.279241 0.755699
Si Si2 0.225940 0.621845 0.137129
Si Si3 0.646674 0.102354 0.497514
Si Si4 0.852655 0.003306 0.815684
Si Si5 0.916558 0.230543 0.377179
Si Si6 0.782229 0.927970 0.049624
O O1 0.209724 0.209724 0.775019
O O2 0.151551 0.366733 0.802666
O O3 0.032854 0.226888 0.767672
O O4 0.129127 0.300097 0.677462
O O5 0.305727 0.694274 0.143538
O O6 0.275178 0.523866 0.137787
O O7 0.171796 0.637491 0.069541
O O8 0.735784 0.100063 0.450603
O O9 0.576350 0.173454 0.465067
O O10 0.602945 0.000000 0.500000
O O11 0.923189 0.923189 0.835361
O O12 0.797866 0.036335 0.878390
O O13 0.910132 0.089869 0.785340
O O14 0.869958 0.130043 0.368816
O O15 0.828344 0.828344 0.039197
O O16 0.828298 0.000000 0.000000
#
# Coordination Sequence:
#
# PCOD8311562 Si02
#       6
#    16  16  16  16  16  16
#     4   9  19  36  56  81 115 152 189 230 284 350
#     4  10  20  36  60  85 113 152 192 235 292 352
#     4  10  22  40  59  81 112 153 200 243 285 338
#     4   9  18  32  52  82 118 152 187 231 284 345
#     4  10  21  37  58  84 113 145 190 247 294 341
#     4  11  21  33  55  84 115 150 187 233 288 349
#
# _framework density 22.086323
#
# number of rings (size 3 to 8) (size 9 to 14) (size 15 to 20)
#    0.000    2.167    0.000    3.000    0.000    4.833 
#    0.000    5.000    0.000    5.500    0.000    0.000 
#    0.000    0.000    0.000    0.000    0.000    0.167 
#
# Total GULP energy -594757.466253 kJ/mol
# GULP energy per Si atom -12390.780547 kJ/mol
# Density = 2.203605 g / cm^3
# Si number density = 22.086323 Si / 1000 Ang^3
#
#
#
# Elastic Constant Matrix: (Units=GPa)
#
#
# Indices 1 2 3 4 5 6 
#
# 1 65.6997 15.4834 14.2396 0.0000 0.0000 0.0000
# 2 15.4834 65.6981 14.2391 0.0000 0.0000 0.0000
# 3 14.2396 14.2391 91.9137 0.0000 0.0000 0.0000
# 4 0.0000 0.0000 0.0000 21.3120 0.0000 0.0000
# 5 0.0000 0.0000 0.0000 0.0000 21.3130 0.0000
# 6 0.0000 0.0000 0.0000 0.0000 0.0000 23.7996
#
#
#
# Elastic Compliance Matrix: (Units=1/GPa)
#
#
# Indices 1 2 3 4 5 6 
#
# 1 0.016470 -0.003444 -0.002018 0.000000 0.000000 0.000000
# 2 -0.003444 0.016470 -0.002018 0.000000 0.000000 0.000000
# 3 -0.002018 -0.002018 0.011505 0.000000 0.000000 0.000000
# 4 0.000000 0.000000 0.000000 0.046922 0.000000 0.000000
# 5 0.000000 0.000000 0.000000 0.000000 0.046920 0.000000
# 6 0.000000 0.000000 0.000000 0.000000 0.000000 0.042017
#
#
# Mechanical properties :
#
#
# Convention : Reuss Voigt Hill
#
# Bulk Modulus (GPa) = 33.91575 34.58176 34.24876
# Shear Modulus (GPa) = 24.37923 25.24155 24.81039
#
# Velocity S-wave (km/s) = 3.32598 3.38429 3.35526
# Velocity P-wave (km/s) = 5.48988 5.56442 5.52728
#
# Compressibility (1/GPa) = 0.02948482
#
# Stress axis : x y z
#
# Youngs Moduli (GPa) = 60.71709 60.71575 86.91853
#
# Poissons Ratio (x) = 0.20911 0.17540
# Poissons Ratio (y) = 0.20912 0.17540
# Poissons Ratio (z) = 0.12253 0.12252
#
# Static dielectric constant tensor:
#      x y z
#    x 3.937960 0.000000 0.000000 
#    y 0.000000 3.937950 0.000000 
#    z 0.000000 0.000000 4.239760 
# 
# 
# High freq. dielectric constant tensor:
#      x y z
#    x 1.855080 0.000000 0.000000 
#    y 0.000000 1.855080 0.000000 
#    z 0.000000 0.000000 1.882620 
# 
# From -- ./inp_files/6453.got.cif
#   From: 2010.03.12/outbox.cif.g09.slc.cpg/sg121_4_cif.got.tgz:6453.got - 2010.04.06 16:06:48.
