data_PCOD8311203
_publ_section_title
;
Structure prediction by ZEFSAII (Michael W. Deem and Ramdas Pophale) SiO2 
 PCOD8311203
Probable space group: I -4 C 2
;
_chemical_formula_sum "Si O2"
_cell_formula_units_Z 56
_cell_length_a 12.387188
_cell_length_b 12.387188
_cell_length_c 18.800158
_cell_angle_alpha 90.000000
_cell_angle_beta 90.000000
_cell_angle_gamma 90.000000
_cell_volume 2884.741863
_symmetry_space_group_name_H-M "I -4 C 2"
_symmetry_group_IT_number 120
_symmetry_cell_setting 'tetragonal'
loop_
_space_group_symop_operation_xyz
x,y,z
y,-x,-z
-x,-y,z
-y,x,-z
y,x,1/2-z
-y,-x,1/2-z
-x,y,1/2+z
x,-y,1/2+z
1/2+x,1/2+y,1/2+z
1/2+y,1/2-x,1/2-z
1/2-x,1/2-y,1/2+z
1/2-y,1/2+x,1/2-z
1/2+y,1/2+x,-z
1/2-y,1/2-x,-z
1/2-x,1/2+y,z
1/2+x,1/2-y,z
loop_
_atom_site_type_symbol
_atom_site_label
_atom_site_fract_x
_atom_site_fract_y
_atom_site_fract_z
Si Si1 0.364781 0.135220 0.500000
Si Si2 0.385823 0.885823 0.500000
Si Si3 0.710127 0.254689 0.388795
Si Si4 0.180646 0.819355 0.250000
Si Si5 0.535608 0.379198 0.316981
O O1 0.491426 0.147694 0.485446
O O2 0.325023 0.197666 0.571163
O O3 0.314185 0.851856 0.433209
O O4 0.735508 0.205096 0.312122
O O5 0.600908 0.326495 0.382110
O O6 0.065297 0.807735 0.289801
O O7 0.500000 0.500000 0.340083
O O8 0.615824 0.384176 0.250000
#
# Coordination Sequence:
#
# PCOD8311203 Si02
#       5
#     8   8  16   8  16
#     4  10  24  42  58  84 124 166 204 246 302 368
#     4  10  24  40  58  86 124 158 208 254 294 370
#     4  11  21  39  64  86 121 166 198 248 315 360
#     4  10  21  34  63  92 118 148 202 248 309 356
#     4   9  20  36  57  93 123 147 197 258 294 363
#
# _framework density 19.412482000000001
#
# number of rings (size 3 to 8) (size 9 to 14) (size 15 to 20)
#    0.000    2.286    1.429    1.714    8.000    0.000 
#    0.000    0.000    0.000    3.429    0.000    0.000 
#    0.000    0.000    0.000    0.000    0.000    0.000 
#
# Total GULP energy -346888.541532 kJ/mol
# GULP energy per Si atom -12388.876483 kJ/mol
# Density = 1.936830 g / cm^3
# Si number density = 19.412482 Si / 1000 Ang^3
#
#
#
# Elastic Constant Matrix: (Units=GPa)
#
#
# Indices 1 2 3 4 5 6 
#
# 1 91.3557 74.5865 52.9598 0.0000 0.0000 0.0000
# 2 74.5865 91.3558 52.9601 0.0000 0.0000 0.0000
# 3 52.9598 52.9601 113.8219 0.0000 0.0000 0.0000
# 4 0.0000 0.0000 0.0000 25.5052 0.0000 0.0000
# 5 0.0000 0.0000 0.0000 0.0000 25.5057 0.0000
# 6 0.0000 0.0000 0.0000 0.0000 0.0000 35.2273
#
#
#
# Elastic Compliance Matrix: (Units=1/GPa)
#
#
# Indices 1 2 3 4 5 6 
#
# 1 0.034102 -0.025530 -0.003988 0.000000 0.000000 0.000000
# 2 -0.025530 0.034103 -0.003989 0.000000 0.000000 0.000000
# 3 -0.003988 -0.003989 0.012497 0.000000 0.000000 0.000000
# 4 0.000000 0.000000 0.000000 0.039208 0.000000 0.000000
# 5 0.000000 0.000000 0.000000 0.000000 0.039207 0.000000
# 6 0.000000 0.000000 0.000000 0.000000 0.000000 0.028387
#
#
# Mechanical properties :
#
#
# Convention : Reuss Voigt Hill
#
# Bulk Modulus (GPa) = 73.05984 73.06070 73.06027
# Shear Modulus (GPa) = 19.29897 24.98276 22.14087
#
# Velocity S-wave (km/s) = 3.15644 3.59129 3.38086
# Velocity P-wave (km/s) = 7.14152 7.41041 7.27721
#
# Compressibility (1/GPa) = 0.01368741
#
# Stress axis : x y z
#
# Youngs Moduli (GPa) = 29.32342 29.32334 80.01790
#
# Poissons Ratio (x) = 0.74864 0.31914
# Poissons Ratio (y) = 0.74864 0.31916
# Poissons Ratio (z) = 0.11695 0.11696
#
# Static dielectric constant tensor:
#      x y z
#    x 3.563120 0.000000 0.000000 
#    y 0.000000 3.563150 0.000000 
#    z 0.000000 0.000000 3.602280 
# 
# 
# High freq. dielectric constant tensor:
#      x y z
#    x 1.756590 0.000000 0.000000 
#    y 0.000000 1.756590 0.000000 
#    z 0.000000 0.000000 1.755100 
# 
# From -- ./inp_files/4943.got.cif
#   From: 2010.03.12/outbox.cif.g09.slc.cpg/sg120_3_cif.got.tgz:4943.got - 2010.04.06 16:00:44.
