data_PCOD8311789
_publ_section_title
;
Structure prediction by ZEFSAII (Michael W. Deem and Ramdas Pophale) SiO2 
 PCOD8311789
Probable space group: I -4 2 D
;
_chemical_formula_sum "Si O2"
_cell_formula_units_Z 112
_cell_length_a 14.331375
_cell_length_b 14.331375
_cell_length_c 30.122310
_cell_angle_alpha 90.000000
_cell_angle_beta 90.000000
_cell_angle_gamma 90.000000
_cell_volume 6186.770326
_symmetry_space_group_name_H-M "I -4 2 D"
_symmetry_group_IT_number 122
_symmetry_cell_setting 'tetragonal'
loop_
_space_group_symop_operation_xyz
x,y,z
y,-x,-z
-x,-y,z
-y,x,-z
x,1/2-y,1/4-z
-x,1/2+y,1/4-z
-y,1/2-x,1/4+z
y,1/2+x,1/4+z
1/2+x,1/2+y,1/2+z
1/2+y,1/2-x,1/2-z
1/2-x,1/2-y,1/2+z
1/2-y,1/2+x,1/2-z
1/2+x,-y,3/4-z
1/2-x,y,3/4-z
1/2-y,-x,3/4+z
1/2+y,x,3/4+z
loop_
_atom_site_type_symbol
_atom_site_label
_atom_site_fract_x
_atom_site_fract_y
_atom_site_fract_z
Si Si1 0.916136 0.564324 0.809235
Si Si2 0.774981 0.579556 0.984183
Si Si3 0.440437 0.283943 0.408568
Si Si4 0.376158 0.057644 0.732485
Si Si5 0.939276 0.779982 0.808355
Si Si6 0.077581 0.429298 0.909804
Si Si7 0.731837 0.791023 0.780058
O O1 0.829326 0.544834 0.776952
O O2 0.949052 0.669800 0.807579
O O3 0.889750 0.542352 0.860327
O O4 0.000000 0.500000 0.792246
O O5 0.833442 0.558153 0.940520
O O6 0.777506 0.690395 0.994059
O O7 0.816879 0.521767 0.025953
O O8 0.512344 0.347740 0.435863
O O9 0.451198 0.319130 0.358108
O O10 0.465464 0.174747 0.412338
O O11 0.334463 0.296699 0.426466
O O12 0.475211 0.112624 0.730276
O O13 0.295227 0.128966 0.745493
O O14 0.837736 0.812375 0.792676
O O15 0.000000 0.500000 0.927510
#
# Coordination Sequence:
#
# PCOD8311789 Si02
#       7
#    16  16  16  16  16  16  16
#     4   9  19  32  50  72 105 145 188 222 247 307
#     4  10  20  31  51  76 110 140 185 215 266 315
#     4   9  18  35  55  76 106 135 180 227 269 326
#     4   9  18  35  64  83  96 131 185 231 272 318
#     4  10  20  31  52  80 110 145 173 221 277 316
#     4   9  18  33  50  73 104 145 178 212 265 323
#     4   9  19  35  55  77 105 145 182 221 266 329
#
# _framework density 18.103145999999999
#
# number of rings (size 3 to 8) (size 9 to 14) (size 15 to 20)
#    0.000    2.714    0.000    0.857    6.000    3.429 
#    0.000    0.714    6.286    8.571    0.000    0.000 
#    0.000    0.000    0.000    0.000    0.000    0.000 
#
# Total GULP energy -694212.112786 kJ/mol
# GULP energy per Si atom -12396.644871 kJ/mol
# Density = 1.806194 g / cm^3
# Si number density = 18.103146 Si / 1000 Ang^3
#
#
#
# Elastic Constant Matrix: (Units=GPa)
#
#
# Indices 1 2 3 4 5 6 
#
# 1 86.8184 49.8852 46.9498 0.0000 0.0000 0.0000
# 2 49.8852 86.8184 46.9498 0.0000 0.0000 0.0000
# 3 46.9498 46.9498 106.6833 0.0000 0.0000 0.0000
# 4 0.0000 0.0000 0.0000 16.4609 0.0000 0.0000
# 5 0.0000 0.0000 0.0000 0.0000 16.4609 0.0000
# 6 0.0000 0.0000 0.0000 0.0000 0.0000 32.3637
#
#
#
# Elastic Compliance Matrix: (Units=1/GPa)
#
#
# Indices 1 2 3 4 5 6 
#
# 1 0.018780 -0.008296 -0.004614 0.000000 0.000000 0.000000
# 2 -0.008296 0.018780 -0.004614 0.000000 0.000000 0.000000
# 3 -0.004614 -0.004614 0.013435 0.000000 0.000000 0.000000
# 4 0.000000 0.000000 0.000000 0.060750 0.000000 0.000000
# 5 0.000000 0.000000 0.000000 0.000000 0.060750 0.000000
# 6 0.000000 0.000000 0.000000 0.000000 0.000000 0.030899
#
#
# Mechanical properties :
#
#
# Convention : Reuss Voigt Hill
#
# Bulk Modulus (GPa) = 62.70636 63.09886 62.90261
# Shear Modulus (GPa) = 20.51221 22.15945 21.33583
#
# Velocity S-wave (km/s) = 3.36977 3.50246 3.43676
# Velocity P-wave (km/s) = 7.06074 7.16151 7.11130
#
# Compressibility (1/GPa) = 0.01594734
#
# Stress axis : x y z
#
# Youngs Moduli (GPa) = 53.24768 53.24768 74.43417
#
# Poissons Ratio (x) = 0.44173 0.34344
# Poissons Ratio (y) = 0.44173 0.34344
# Poissons Ratio (z) = 0.24569 0.24569
#
# Static dielectric constant tensor:
#      x y z
#    x 3.314650 0.000000 0.000000 
#    y 0.000000 3.314650 0.000000 
#    z 0.000000 0.000000 3.342330 
# 
# 
# High freq. dielectric constant tensor:
#      x y z
#    x 1.694620 0.000000 0.000000 
#    y 0.000000 1.694620 0.000000 
#    z 0.000000 0.000000 1.692650 
# 
# From -- ./inp_files/9674.got.cif
#   From: 2010.03.12/outbox.cif.g09.slc.cpg/sg122_5_cif.got.tgz:9674.got - 2010.04.06 16:17:16.
