data_PCOD8311281
_publ_section_title
;
Structure prediction by ZEFSAII (Michael W. Deem and Ramdas Pophale) SiO2 
 PCOD8311281
Probable space group: I -4 C 2
;
_chemical_formula_sum "Si O2"
_cell_formula_units_Z 80
_cell_length_a 15.060343
_cell_length_b 15.060343
_cell_length_c 23.094422
_cell_angle_alpha 90.000000
_cell_angle_beta 90.000000
_cell_angle_gamma 90.000000
_cell_volume 5238.136644
_symmetry_space_group_name_H-M "I -4 C 2"
_symmetry_group_IT_number 120
_symmetry_cell_setting 'tetragonal'
loop_
_space_group_symop_operation_xyz
x,y,z
y,-x,-z
-x,-y,z
-y,x,-z
y,x,1/2-z
-y,-x,1/2-z
-x,y,1/2+z
x,-y,1/2+z
1/2+x,1/2+y,1/2+z
1/2+y,1/2-x,1/2-z
1/2-x,1/2-y,1/2+z
1/2-y,1/2+x,1/2-z
1/2+y,1/2+x,-z
1/2-y,1/2-x,-z
1/2-x,1/2+y,z
1/2+x,1/2-y,z
loop_
_atom_site_type_symbol
_atom_site_label
_atom_site_fract_x
_atom_site_fract_y
_atom_site_fract_z
Si Si1 0.206921 0.706914 0.431466
Si Si2 0.648718 0.851288 0.068104
Si Si3 0.535641 0.174767 0.126802
Si Si4 0.964353 0.674766 0.873197
Si Si5 0.644039 0.999999 0.750000
O O1 0.197642 0.697642 0.500000
O O2 0.278938 0.778926 0.412923
O O3 0.235608 0.610879 0.404401
O O4 0.235605 0.610888 0.595602
O O5 0.554797 0.819098 0.091808
O O6 0.680904 0.945212 0.091805
O O7 0.640598 0.859403 0.000000
O O8 0.572525 0.072527 0.127678
O O9 0.521126 0.204901 0.193745
O O10 0.978871 0.704900 0.806255
O O11 0.584300 0.915699 0.767718
#
# Coordination Sequence:
#
# PCOD8311281 Si02
#       5
#    16  16  16  16  16
#     4   9  20  31  42  69  99 123 150 194 232 270
#     4  11  19  29  48  69  94 123 157 193 230 275
#     4   9  18  30  47  69  94 120 153 188 239 273
#     4   9  18  30  47  69  94 120 153 188 239 273
#     4   9  14  26  44  70  96 119 144 193 236 274
#
# _framework density 15.272606
#
# number of rings (size 3 to 8) (size 9 to 14) (size 15 to 20)
#    1.200    1.400    2.000    1.800    0.000    0.800 
#    0.000    4.000    0.000    1.200    0.000    5.600 
#    0.000    3.200    0.000    0.000    0.000    0.000 
#
# Total GULP energy -495557.232652 kJ/mol
# GULP energy per Si atom -12388.930816 kJ/mol
# Density = 1.523784 g / cm^3
# Si number density = 15.272606 Si / 1000 Ang^3
#
#
#
# Elastic Constant Matrix: (Units=GPa)
#
#
# Indices 1 2 3 4 5 6 
#
# 1 68.5491 55.1861 51.0146 0.0000 0.0000 0.0000
# 2 55.1861 68.5492 51.0144 0.0000 0.0000 0.0000
# 3 51.0146 51.0144 115.2399 0.0000 0.0000 0.0000
# 4 0.0000 0.0000 0.0000 17.6045 0.0000 0.0000
# 5 0.0000 0.0000 0.0000 0.0000 17.6045 0.0000
# 6 0.0000 0.0000 0.0000 0.0000 0.0000 25.0112
#
#
#
# Elastic Compliance Matrix: (Units=1/GPa)
#
#
# Indices 1 2 3 4 5 6 
#
# 1 0.043781 -0.031053 -0.005634 0.000000 0.000000 0.000000
# 2 -0.031053 0.043780 -0.005634 0.000000 0.000000 0.000000
# 3 -0.005634 -0.005634 0.013666 0.000000 0.000000 0.000000
# 4 0.000000 0.000000 0.000000 0.056804 0.000000 0.000000
# 5 0.000000 0.000000 0.000000 0.000000 0.056804 0.000000
# 6 0.000000 0.000000 0.000000 0.000000 0.000000 0.039982
#
#
# Mechanical properties :
#
#
# Convention : Reuss Voigt Hill
#
# Bulk Modulus (GPa) = 60.29875 62.97429 61.63652
# Shear Modulus (GPa) = 14.49328 18.38558 16.43943
#
# Velocity S-wave (km/s) = 3.08388 3.47339 3.28441
# Velocity P-wave (km/s) = 7.22826 7.57686 7.40462
#
# Compressibility (1/GPa) = 0.01658409
#
# Stress axis : x y z
#
# Youngs Moduli (GPa) = 22.84113 22.84127 73.17461
#
# Poissons Ratio (x) = 0.70929 0.41230
# Poissons Ratio (y) = 0.70928 0.41228
# Poissons Ratio (z) = 0.12870 0.12869
#
# Static dielectric constant tensor:
#      x y z
#    x 2.654260 0.000000 0.000000 
#    y 0.000000 2.654260 0.000000 
#    z 0.000000 0.000000 3.116630 
# 
# 
# High freq. dielectric constant tensor:
#      x y z
#    x 1.547730 0.000000 0.000000 
#    y 0.000000 1.547730 0.000000 
#    z 0.000000 0.000000 1.611110 
# 
# From -- ./inp_files/5172.got.cif
#   From: 2010.03.12/outbox.cif.g09.slc.cpg/sg120_3_cif.got.tgz:5172.got - 2010.04.06 16:00:44.
