data_PCOD8311620
_publ_section_title
;
Structure prediction by ZEFSAII (Michael W. Deem and Ramdas Pophale) SiO2 
 PCOD8311620
Probable space group: I -4 2 M
;
_chemical_formula_sum "Si O2"
_cell_formula_units_Z 96
_cell_length_a 19.866305
_cell_length_b 19.866305
_cell_length_c 11.912363
_cell_angle_alpha 90.000000
_cell_angle_beta 90.000000
_cell_angle_gamma 90.000000
_cell_volume 4701.453191
_symmetry_space_group_name_H-M "I -4 2 M"
_symmetry_group_IT_number 121
_symmetry_cell_setting 'tetragonal'
loop_
_space_group_symop_operation_xyz
x,y,z
y,-x,-z
-x,-y,z
-y,x,-z
x,-y,-z
-x,y,-z
-y,-x,z
y,x,z
1/2+x,1/2+y,1/2+z
1/2+y,1/2-x,1/2-z
1/2-x,1/2-y,1/2+z
1/2-y,1/2+x,1/2-z
1/2+x,1/2-y,1/2-z
1/2-x,1/2+y,1/2-z
1/2-y,1/2-x,1/2+z
1/2+y,1/2+x,1/2+z
loop_
_atom_site_type_symbol
_atom_site_label
_atom_site_fract_x
_atom_site_fract_y
_atom_site_fract_z
Si Si1 0.775811 0.119633 0.556630
Si Si2 0.427307 0.171894 0.542238
Si Si3 0.191619 0.402514 0.148254
Si Si4 0.746114 0.477399 0.257515
Si Si5 0.608707 0.500868 0.631261
Si Si6 0.669105 0.226211 0.635752
O O1 0.850767 0.149234 0.543982
O O2 0.752776 0.088639 0.438618
O O3 0.776853 0.064525 0.651552
O O4 0.724747 0.178383 0.585340
O O5 0.500000 0.144032 0.500000
O O6 0.379205 0.109752 0.582056
O O7 0.431046 0.222566 0.646244
O O8 0.397734 0.215818 0.439034
O O9 0.194383 0.471062 0.220619
O O10 0.206148 0.341850 0.234435
O O11 0.678284 0.512020 0.303127
O O12 0.624862 0.500000 0.500000
O O13 0.559960 0.440041 0.665029
O O14 0.571884 0.571884 0.662096
O O15 0.696876 0.303125 0.628635
#
# Coordination Sequence:
#
# PCOD8311620 Si02
#       6
#    16  16  16  16  16  16
#     4  10  22  39  60  90 124 160 206 257 319 389
#     4  11  23  42  64  93 126 168 223 271 329 391
#     4  11  23  40  63  90 130 166 209 268 323 386
#     4  12  22  39  64  94 122 171 214 268 324 386
#     4   9  20  38  59  90 133 174 214 263 319 386
#     4  10  21  38  63  95 128 162 203 267 331 384
#
# _framework density 20.419218999999998
#
# number of rings (size 3 to 8) (size 9 to 14) (size 15 to 20)
#    0.000    1.500    3.333    2.500    0.000    3.333 
#    0.000    0.000    0.000   16.500    0.000    2.333 
#    0.000    0.000    0.000    0.000    0.000    0.000 
#
# Total GULP energy -595043.500164 kJ/mol
# GULP energy per Si atom -12396.739587 kJ/mol
# Density = 2.037274 g / cm^3
# Si number density = 20.419219 Si / 1000 Ang^3
#
#
#
# Elastic Constant Matrix: (Units=GPa)
#
#
# Indices 1 2 3 4 5 6 
#
# 1 94.9747 40.5387 36.8340 0.0000 0.0000 0.0000
# 2 40.5387 94.9745 36.8339 0.0000 0.0000 0.0000
# 3 36.8340 36.8339 116.5476 0.0000 0.0000 0.0000
# 4 0.0000 0.0000 0.0000 -13.0642 0.0000 0.0000
# 5 0.0000 0.0000 0.0000 0.0000 -13.7327 0.0000
# 6 0.0000 0.0000 0.0000 0.0000 0.0000 19.2141
#
#
#
# Elastic Compliance Matrix: (Units=1/GPa)
#
#
# Indices 1 2 3 4 5 6 
#
# 1 0.013640 -0.004730 -0.002816 0.000000 0.000000 0.000000
# 2 -0.004730 0.013640 -0.002816 0.000000 0.000000 0.000000
# 3 -0.002816 -0.002816 0.010360 0.000000 0.000000 0.000000
# 4 0.000000 0.000000 0.000000 -0.076545 0.000000 0.000000
# 5 0.000000 0.000000 0.000000 0.000000 -0.072819 0.000000
# 6 0.000000 0.000000 0.000000 0.000000 0.000000 0.052045
#
#
# Mechanical properties :
#
#
# Convention : Reuss Voigt Hill
#
# Bulk Modulus (GPa) = 59.11378 59.43442 59.27410
# Shear Modulus (GPa) = -150.08044 11.30279 -69.38883
#
# Velocity S-wave (km/s) = -8.58249 2.35529 -5.83574
# Velocity P-wave (km/s) = 8.31861 6.04705 4.03934
#
# Compressibility (1/GPa) = 0.01691653
#
# Stress axis : x y z
#
# Youngs Moduli (GPa) = 73.31271 73.31260 96.52392
#
# Poissons Ratio (x) = 0.34677 0.27181
# Poissons Ratio (y) = 0.34677 0.27181
# Poissons Ratio (z) = 0.20645 0.20645
#
# Static dielectric constant tensor:
#      x y z
#    x 3.714020 0.000000 0.000000 
#    y 0.000000 3.714340 0.000000 
#    z 0.000000 0.000000 3.895470 
# 
# 
# High freq. dielectric constant tensor:
#      x y z
#    x 1.785220 0.000000 0.000000 
#    y 0.000000 1.785220 0.000000 
#    z 0.000000 0.000000 1.815310 
# 
# From -- ./inp_files/3327.got.cif
#   From: 2010.03.12/outbox.cif.g09.slc.cpg/sg121_2_cif.got.tgz:3327.got - 2010.04.06 16:06:48.
