data_PCOD8311855
_publ_section_title
;
Structure prediction by ZEFSAII (Michael W. Deem and Ramdas Pophale) SiO2 
 PCOD8311855
Probable space group: I -4 2 D
;
_chemical_formula_sum "Si O2"
_cell_formula_units_Z 64
_cell_length_a 12.115439
_cell_length_b 12.115439
_cell_length_c 20.923821
_cell_angle_alpha 90.000000
_cell_angle_beta 90.000000
_cell_angle_gamma 90.000000
_cell_volume 3071.279258
_symmetry_space_group_name_H-M "I -4 2 D"
_symmetry_group_IT_number 122
_symmetry_cell_setting 'tetragonal'
loop_
_space_group_symop_operation_xyz
x,y,z
y,-x,-z
-x,-y,z
-y,x,-z
x,1/2-y,1/4-z
-x,1/2+y,1/4-z
-y,1/2-x,1/4+z
y,1/2+x,1/4+z
1/2+x,1/2+y,1/2+z
1/2+y,1/2-x,1/2-z
1/2-x,1/2-y,1/2+z
1/2-y,1/2+x,1/2-z
1/2+x,-y,3/4-z
1/2-x,y,3/4-z
1/2-y,-x,3/4+z
1/2+y,x,3/4+z
loop_
_atom_site_type_symbol
_atom_site_label
_atom_site_fract_x
_atom_site_fract_y
_atom_site_fract_z
Si Si1 0.930483 0.894303 0.886400
Si Si2 0.118161 0.369282 0.735646
Si Si3 0.228623 0.342072 0.469991
Si Si4 0.132444 0.751495 0.364508
O O1 0.850582 0.914897 0.825728
O O2 0.855462 0.849960 0.945299
O O3 0.024116 0.810978 0.862127
O O4 0.000000 0.000000 0.909330
O O5 0.153539 0.489293 0.758956
O O6 0.189250 0.285254 0.779459
O O7 0.142320 0.354822 0.660186
O O8 0.217648 0.389893 0.541024
O O9 0.250000 0.684931 0.375000
#
# Coordination Sequence:
#
# PCOD8311855 Si02
#       4
#    16  16  16  16
#     4  11  25  43  66  94 135 182 231 291 335 409
#     4  10  20  44  69  99 138 173 220 282 349 415
#     4  10  24  44  65 101 131 178 234 282 347 412
#     4  10  23  42  66  98 131 177 226 281 342 410
#
# _framework density 20.838221000000001
#
# number of rings (size 3 to 8) (size 9 to 14) (size 15 to 20)
#    0.000    1.750    2.500    0.000    7.000    2.000 
#   18.000    0.000    0.000    0.000    0.000    0.000 
#    0.000    0.000    0.000    0.000    0.000    0.000 
#
# Total GULP energy -396558.368065 kJ/mol
# GULP energy per Si atom -12392.449002 kJ/mol
# Density = 2.079079 g / cm^3
# Si number density = 20.838221 Si / 1000 Ang^3
#
#
#
# Elastic Constant Matrix: (Units=GPa)
#
#
# Indices 1 2 3 4 5 6 
#
# 1 127.8878 54.9262 37.2438 0.0000 0.0000 0.0000
# 2 54.9262 127.8878 37.2438 0.0000 0.0000 0.0000
# 3 37.2438 37.2438 129.1163 0.0000 0.0000 0.0000
# 4 0.0000 0.0000 0.0000 24.9823 0.0000 0.0000
# 5 0.0000 0.0000 0.0000 0.0000 24.9823 0.0000
# 6 0.0000 0.0000 0.0000 0.0000 0.0000 39.5732
#
#
#
# Elastic Compliance Matrix: (Units=1/GPa)
#
#
# Indices 1 2 3 4 5 6 
#
# 1 0.009952 -0.003754 -0.001788 0.000000 0.000000 0.000000
# 2 -0.003754 0.009952 -0.001788 0.000000 0.000000 0.000000
# 3 -0.001788 -0.001788 0.008776 0.000000 0.000000 0.000000
# 4 0.000000 0.000000 0.000000 0.040028 0.000000 0.000000
# 5 0.000000 0.000000 0.000000 0.000000 0.040028 0.000000
# 6 0.000000 0.000000 0.000000 0.000000 0.000000 0.025270
#
#
# Mechanical properties :
#
#
# Convention : Reuss Voigt Hill
#
# Bulk Modulus (GPa) = 71.31838 71.52437 71.42137
# Shear Modulus (GPa) = 32.60726 34.93946 33.77336
#
# Velocity S-wave (km/s) = 3.96002 4.09920 4.03021
# Velocity P-wave (km/s) = 7.43022 7.53676 7.48368
#
# Compressibility (1/GPa) = 0.01402163
#
# Stress axis : x y z
#
# Youngs Moduli (GPa) = 100.48035 100.48035 113.94135
#
# Poissons Ratio (x) = 0.37717 0.20372
# Poissons Ratio (y) = 0.37717 0.20372
# Poissons Ratio (z) = 0.17966 0.17966
#
# Static dielectric constant tensor:
#      x y z
#    x 3.885870 0.000000 0.000000 
#    y 0.000000 3.885870 0.000000 
#    z 0.000000 0.000000 3.724820 
# 
# 
# High freq. dielectric constant tensor:
#      x y z
#    x 1.813580 0.000000 0.000000 
#    y 0.000000 1.813580 0.000000 
#    z 0.000000 0.000000 1.821060 
# 
# From -- ./inp_files/6902.got.cif
#   From: 2010.03.12/outbox.cif.g09.slc.cpg/sg122_4_cif.got.tgz:6902.got - 2010.04.06 16:17:16.
