data_PCOD8311263
_publ_section_title
;
Structure prediction by ZEFSAII (Michael W. Deem and Ramdas Pophale) SiO2 
 PCOD8311263
Probable space group: I -4 C 2
;
_chemical_formula_sum "Si O2"
_cell_formula_units_Z 60
_cell_length_a 18.366622
_cell_length_b 18.366622
_cell_length_c 8.307083
_cell_angle_alpha 90.000000
_cell_angle_beta 90.000000
_cell_angle_gamma 90.000000
_cell_volume 2802.251599
_symmetry_space_group_name_H-M "I -4 C 2"
_symmetry_group_IT_number 120
_symmetry_cell_setting 'tetragonal'
loop_
_space_group_symop_operation_xyz
x,y,z
y,-x,-z
-x,-y,z
-y,x,-z
y,x,1/2-z
-y,-x,1/2-z
-x,y,1/2+z
x,-y,1/2+z
1/2+x,1/2+y,1/2+z
1/2+y,1/2-x,1/2-z
1/2-x,1/2-y,1/2+z
1/2-y,1/2+x,1/2-z
1/2+y,1/2+x,-z
1/2-y,1/2-x,-z
1/2-x,1/2+y,z
1/2+x,1/2-y,z
loop_
_atom_site_type_symbol
_atom_site_label
_atom_site_fract_x
_atom_site_fract_y
_atom_site_fract_z
Si Si1 0.178234 0.286905 0.683542
Si Si2 0.500000 0.000000 0.750000
Si Si3 0.260127 0.954077 0.126110
Si Si4 0.082242 0.582242 0.500000
Si Si5 0.099413 0.781712 0.697791
O O1 0.215293 0.215293 0.750000
O O2 0.196950 0.303051 0.500000
O O3 0.093527 0.268574 0.710483
O O4 0.206372 0.354381 0.791881
O O5 0.529217 0.932832 0.648201
O O6 0.230105 0.032325 0.179678
O O7 0.336987 0.944971 0.038516
O O8 0.204524 0.924601 0.987451
O O9 0.149681 0.850319 0.750000
#
# Coordination Sequence:
#
# PCOD8311263 Si02
#       5
#    16   4  16   8  16
#     4  11  22  40  65  95 132 174 224 286 347 422
#     4  10  24  38  56  82 144 174 216 270 344 446
#     4  12  23  43  66  97 135 177 237 289 351 431
#     4  11  22  40  60  94 126 184 218 277 350 426
#     4  11  24  43  67 100 136 180 234 295 360 430
#
# _framework density 21.411352999999998
#
# number of rings (size 3 to 8) (size 9 to 14) (size 15 to 20)
#    0.000    0.800    2.667    6.400    0.000    0.000 
#    0.000    0.000    0.000    6.400    0.000    0.000 
#    0.000    0.000    0.000    0.000    0.000    0.000 
#
# Total GULP energy -371671.574712 kJ/mol
# GULP energy per Si atom -12389.052490 kJ/mol
# Density = 2.136262 g / cm^3
# Si number density = 21.411353 Si / 1000 Ang^3
#
#
#
# Elastic Constant Matrix: (Units=GPa)
#
#
# Indices 1 2 3 4 5 6 
#
# 1 98.8460 75.2599 40.2653 0.0000 0.0000 0.0000
# 2 75.2599 98.8499 40.2645 0.0000 0.0000 0.0000
# 3 40.2653 40.2645 120.6251 0.0000 0.0000 0.0000
# 4 0.0000 0.0000 0.0000 6.6194 0.0000 0.0000
# 5 0.0000 0.0000 0.0000 0.0000 6.6193 0.0000
# 6 0.0000 0.0000 0.0000 0.0000 0.0000 25.9640
#
#
#
# Elastic Compliance Matrix: (Units=1/GPa)
#
#
# Indices 1 2 3 4 5 6 
#
# 1 0.024594 -0.017801 -0.002268 0.000000 0.000000 0.000000
# 2 -0.017801 0.024593 -0.002267 0.000000 0.000000 0.000000
# 3 -0.002268 -0.002267 0.009804 0.000000 0.000000 0.000000
# 4 0.000000 0.000000 0.000000 0.151070 0.000000 0.000000
# 5 0.000000 0.000000 0.000000 0.000000 0.151074 0.000000
# 6 0.000000 0.000000 0.000000 0.000000 0.000000 0.038515
#
#
# Mechanical properties :
#
#
# Convention : Reuss Voigt Hill
#
# Bulk Modulus (GPa) = 69.83627 69.98895 69.91261
# Shear Modulus (GPa) = 11.13352 18.67596 14.90474
#
# Velocity S-wave (km/s) = 2.28278 2.95658 2.64126
# Velocity P-wave (km/s) = 6.29567 6.66438 6.48264
#
# Compressibility (1/GPa) = 0.01431921
#
# Stress axis : x y z
#
# Youngs Moduli (GPa) = 40.66043 40.66251 102.00141
#
# Poissons Ratio (x) = 0.72384 0.23130
# Poissons Ratio (y) = 0.72380 0.23123
# Poissons Ratio (z) = 0.09220 0.09218
#
# Static dielectric constant tensor:
#      x y z
#    x 4.005110 0.000000 0.000000 
#    y 0.000000 4.005080 0.000000 
#    z 0.000000 0.000000 4.378690 
# 
# 
# High freq. dielectric constant tensor:
#      x y z
#    x 1.828270 0.000000 0.000000 
#    y 0.000000 1.828270 0.000000 
#    z 0.000000 0.000000 1.866460 
# 
# From -- ./inp_files/1118.got.cif
#   From: 2010.03.12/outbox.cif.g09.slc.cpg/sg120_1_cif.got.tgz:1118.got - 2010.04.06 16:00:44.
