data_PCOD8311963
_publ_section_title
;
Structure prediction by ZEFSAII (Michael W. Deem and Ramdas Pophale) SiO2 
 PCOD8311963
Probable space group: I -4 2 D
;
_chemical_formula_sum "Si O2"
_cell_formula_units_Z 72
_cell_length_a 12.466407
_cell_length_b 12.466407
_cell_length_c 20.737683
_cell_angle_alpha 90.000000
_cell_angle_beta 90.000000
_cell_angle_gamma 90.000000
_cell_volume 3222.870346
_symmetry_space_group_name_H-M "I -4 2 D"
_symmetry_group_IT_number 122
_symmetry_cell_setting 'tetragonal'
loop_
_space_group_symop_operation_xyz
x,y,z
y,-x,-z
-x,-y,z
-y,x,-z
x,1/2-y,1/4-z
-x,1/2+y,1/4-z
-y,1/2-x,1/4+z
y,1/2+x,1/4+z
1/2+x,1/2+y,1/2+z
1/2+y,1/2-x,1/2-z
1/2-x,1/2-y,1/2+z
1/2-y,1/2+x,1/2-z
1/2+x,-y,3/4-z
1/2-x,y,3/4-z
1/2-y,-x,3/4+z
1/2+y,x,3/4+z
loop_
_atom_site_type_symbol
_atom_site_label
_atom_site_fract_x
_atom_site_fract_y
_atom_site_fract_z
Si Si1 0.884879 0.683343 0.305566
Si Si2 0.000000 0.000000 0.703586
Si Si3 0.476376 0.750000 0.625000
Si Si4 0.500000 0.000000 0.750000
Si Si5 0.133847 0.861696 0.793848
Si Si6 0.507680 0.325048 0.897864
Si Si7 0.500000 0.000000 0.250000
O O1 0.789474 0.599713 0.317577
O O2 0.990141 0.611169 0.290139
O O3 0.848034 0.756674 0.246198
O O4 0.910593 0.752605 0.369941
O O5 0.961964 0.099511 0.747326
O O6 0.903090 0.952813 0.659943
O O7 0.548933 0.652599 0.651150
O O8 0.104759 0.749232 0.827309
O O9 0.465398 0.398028 0.956795
#
# Coordination Sequence:
#
# PCOD8311963 Si02
#       7
#    16   8   8   4  16  16   4
#     4  11  24  39  67  95 137 172 222 282 347 406
#     4   9  22  46  66  96 145 171 223 294 342 408
#     4  12  24  40  66 102 132 170 226 282 344 406
#     4  12  20  46  60  94 140 170 208 292 332 426
#     4  11  23  42  68 100 129 180 226 275 347 417
#     4  10  23  45  67  96 134 182 227 279 349 402
#     4  10  24  48  68  98 140 180 234 292 326 412
#
# _framework density 22.340335
#
# number of rings (size 3 to 8) (size 9 to 14) (size 15 to 20)
#    0.000    1.333    2.222    2.667    3.111    0.000 
#    4.000    0.000    0.000    0.000    0.000    0.000 
#    0.000    0.000    0.000    0.000    0.000    0.000 
#
# Total GULP energy -446379.665183 kJ/mol
# GULP energy per Si atom -12399.435144 kJ/mol
# Density = 2.228949 g / cm^3
# Si number density = 22.340335 Si / 1000 Ang^3
#
#
#
# Elastic Constant Matrix: (Units=GPa)
#
#
# Indices 1 2 3 4 5 6 
#
# 1 116.2023 46.4794 50.4279 0.0000 0.0000 0.0000
# 2 46.4794 116.2023 50.4279 0.0000 0.0000 0.0000
# 3 50.4279 50.4279 93.8901 0.0000 0.0000 0.0000
# 4 0.0000 0.0000 0.0000 36.4778 0.0000 0.0000
# 5 0.0000 0.0000 0.0000 0.0000 36.4778 0.0000
# 6 0.0000 0.0000 0.0000 0.0000 0.0000 40.2599
#
#
#
# Elastic Compliance Matrix: (Units=1/GPa)
#
#
# Indices 1 2 3 4 5 6 
#
# 1 0.011779 -0.002563 -0.004950 0.000000 0.000000 0.000000
# 2 -0.002563 0.011779 -0.004950 0.000000 0.000000 0.000000
# 3 -0.004950 -0.004950 0.015968 0.000000 0.000000 0.000000
# 4 0.000000 0.000000 0.000000 0.027414 0.000000 0.000000
# 5 0.000000 0.000000 0.000000 0.000000 0.027414 0.000000
# 6 0.000000 0.000000 0.000000 0.000000 0.000000 0.024839
#
#
# Mechanical properties :
#
#
# Convention : Reuss Voigt Hill
#
# Bulk Modulus (GPa) = 68.49233 68.99612 68.74423
# Shear Modulus (GPa) = 33.56060 34.57372 34.06716
#
# Velocity S-wave (km/s) = 3.88008 3.93821 3.90926
# Velocity P-wave (km/s) = 7.12731 7.18544 7.15643
#
# Compressibility (1/GPa) = 0.01460017
#
# Stress axis : x y z
#
# Youngs Moduli (GPa) = 84.89676 84.89676 62.62699
#
# Poissons Ratio (x) = 0.21763 0.30998
# Poissons Ratio (y) = 0.21763 0.30998
# Poissons Ratio (z) = 0.42021 0.42021
#
# Static dielectric constant tensor:
#      x y z
#    x 3.929570 0.000000 0.000000 
#    y 0.000000 3.929570 0.000000 
#    z 0.000000 0.000000 4.305000 
# 
# 
# High freq. dielectric constant tensor:
#      x y z
#    x 1.870410 0.000000 0.000000 
#    y 0.000000 1.870410 0.000000 
#    z 0.000000 0.000000 1.895990 
# 
# From -- ./inp_files/8689.got.cif
#   From: 2010.03.12/outbox.cif.g09.slc.cpg/sg122_5_cif.got.tgz:8689.got - 2010.04.06 16:17:16.
