data_PCOD8311037
_publ_section_title
;
Structure prediction by ZEFSAII (Michael W. Deem and Ramdas Pophale) SiO2 
 PCOD8311037
Probable space group: I -4 M 2
;
_chemical_formula_sum "Si O2"
_cell_formula_units_Z 88
_cell_length_a 14.028636
_cell_length_b 14.028636
_cell_length_c 21.392842
_cell_angle_alpha 90.000000
_cell_angle_beta 90.000000
_cell_angle_gamma 90.000000
_cell_volume 4210.167526
_symmetry_space_group_name_H-M "I -4 M 2"
_symmetry_group_IT_number 119
_symmetry_cell_setting 'tetragonal'
loop_
_space_group_symop_operation_xyz
x,y,z
y,-x,-z
-x,-y,z
-y,x,-z
y,x,-z
-y,-x,-z
-x,y,z
x,-y,z
1/2+x,1/2+y,1/2+z
1/2+y,1/2-x,1/2-z
1/2-x,1/2-y,1/2+z
1/2-y,1/2+x,1/2-z
1/2+y,1/2+x,1/2-z
1/2-y,1/2-x,1/2-z
1/2-x,1/2+y,1/2+z
1/2+x,1/2-y,1/2+z
loop_
_atom_site_type_symbol
_atom_site_label
_atom_site_fract_x
_atom_site_fract_y
_atom_site_fract_z
Si Si1 0.745297 0.105971 0.168825
Si Si2 0.275273 0.775273 0.750000
Si Si3 0.889846 0.272876 0.594907
Si Si4 0.602645 0.357336 0.567029
Si Si5 0.395483 0.746677 0.868878
Si Si6 0.357662 0.888169 0.968110
O O1 0.792080 0.168066 0.223862
O O2 0.646894 0.157585 0.149820
O O3 0.815374 0.097682 0.109299
O O4 0.723695 0.000000 0.193527
O O5 0.351980 0.788436 0.804682
O O6 0.830285 0.174017 0.597647
O O7 0.876208 0.330497 0.531189
O O8 0.000000 0.247925 0.606006
O O9 0.592751 0.407250 0.500000
O O10 0.500000 0.368876 0.601152
O O11 0.627518 0.249065 0.553988
O O12 0.500000 0.700473 0.855956
O O13 0.416518 0.837277 0.913496
O O14 0.385299 0.000000 0.976404
#
# Coordination Sequence:
#
# PCOD8311037 Si02
#       6
#    16   8  16  16  16  16
#     4  11  23  41  63  90 122 162 209 260 316 375
#     4  10  24  42  60  88 124 166 214 266 316 358
#     4  11  23  41  64  94 130 164 204 257 319 383
#     4  11  20  35  62  95 130 160 189 237 312 391
#     4  11  24  43  66  91 125 170 217 264 312 370
#     4  11  21  38  66  96 127 161 199 249 315 385
#
# _framework density 20.901781
#
# number of rings (size 3 to 8) (size 9 to 14) (size 15 to 20)
#    0.000    1.091    5.455    2.182    0.000    8.545 
#    0.000    0.000    0.000    2.182    0.000    0.000 
#    0.000    0.000    0.000    0.000    0.000    0.000 
#
# Total GULP energy -545360.045116 kJ/mol
# GULP energy per Si atom -12394.546480 kJ/mol
# Density = 2.085421 g / cm^3
# Si number density = 20.901781 Si / 1000 Ang^3
#
#
#
# Elastic Constant Matrix: (Units=GPa)
#
#
# Indices 1 2 3 4 5 6 
#
# 1 140.5681 39.4357 24.9588 0.0000 0.0000 0.0000
# 2 39.4357 140.5684 24.9598 0.0000 0.0000 0.0000
# 3 24.9588 24.9598 82.1146 0.0000 0.0000 0.0000
# 4 0.0000 0.0000 0.0000 -0.5883 0.0000 0.0000
# 5 0.0000 0.0000 0.0000 0.0000 -0.5889 0.0000
# 6 0.0000 0.0000 0.0000 0.0000 0.0000 9.3616
#
#
#
# Elastic Compliance Matrix: (Units=1/GPa)
#
#
# Indices 1 2 3 4 5 6 
#
# 1 0.007977 -0.001911 -0.001844 0.000000 0.000000 0.000000
# 2 -0.001911 0.007977 -0.001844 0.000000 0.000000 0.000000
# 3 -0.001844 -0.001844 0.013299 0.000000 0.000000 0.000000
# 4 0.000000 0.000000 0.000000 -1.699871 -0.000004 0.000000
# 5 0.000000 0.000000 0.000000 -0.000004 -1.698040 0.000000
# 6 0.000000 0.000000 0.000000 0.000000 0.000000 0.106819
#
#
# Mechanical properties :
#
#
# Convention : Reuss Voigt Hill
#
# Bulk Modulus (GPa) = 55.38151 60.21774 57.79963
# Shear Modulus (GPa) = -1.54101 19.89667 9.17783
#
# Velocity S-wave (km/s) = -0.85957 3.08866 2.09773
# Velocity P-wave (km/s) = 5.05652 6.44920 5.79485
#
# Compressibility (1/GPa) = 0.01805657
#
# Stress axis : x y z
#
# Youngs Moduli (GPa) = 125.35392 125.35372 75.19290
#
# Poissons Ratio (x) = 0.23950 0.13866
# Poissons Ratio (y) = 0.23950 0.13866
# Poissons Ratio (z) = 0.23115 0.23117
#
# Static dielectric constant tensor:
#      x y z
#    x 3.874120 0.000000 0.000000 
#    y 0.000000 3.874120 0.000000 
#    z 0.000000 0.000000 3.793800 
# 
# 
# High freq. dielectric constant tensor:
#      x y z
#    x 1.819720 0.000000 0.000000 
#    y 0.000000 1.819720 0.000000 
#    z 0.000000 0.000000 1.810970 
# 
# From -- ./inp_files/7707.got.cif
#   From: 2010.03.12/outbox.cif.g09.slc.cpg/sg119_4_cif.got.tgz:7707.got - 2010.04.14 02:25:26.
