data_PCOD8311940
_publ_section_title
;
Structure prediction by ZEFSAII (Michael W. Deem and Ramdas Pophale) SiO2 
 PCOD8311940
Probable space group: I -4 2 D
;
_chemical_formula_sum "Si O2"
_cell_formula_units_Z 64
_cell_length_a 14.181744
_cell_length_b 14.181744
_cell_length_c 14.895609
_cell_angle_alpha 90.000000
_cell_angle_beta 90.000000
_cell_angle_gamma 90.000000
_cell_volume 2995.832631
_symmetry_space_group_name_H-M "I -4 2 D"
_symmetry_group_IT_number 122
_symmetry_cell_setting 'tetragonal'
loop_
_space_group_symop_operation_xyz
x,y,z
y,-x,-z
-x,-y,z
-y,x,-z
x,1/2-y,1/4-z
-x,1/2+y,1/4-z
-y,1/2-x,1/4+z
y,1/2+x,1/4+z
1/2+x,1/2+y,1/2+z
1/2+y,1/2-x,1/2-z
1/2-x,1/2-y,1/2+z
1/2-y,1/2+x,1/2-z
1/2+x,-y,3/4-z
1/2-x,y,3/4-z
1/2-y,-x,3/4+z
1/2+y,x,3/4+z
loop_
_atom_site_type_symbol
_atom_site_label
_atom_site_fract_x
_atom_site_fract_y
_atom_site_fract_z
Si Si1 0.470231 0.604984 0.900216
Si Si2 0.835303 0.662336 0.810261
Si Si3 0.630263 0.945793 0.785544
Si Si4 0.334788 0.123077 0.979281
O O1 0.500000 0.500000 0.927820
O O2 0.566305 0.664306 0.884487
O O3 0.406473 0.598433 0.811249
O O4 0.411601 0.655733 0.979086
O O5 0.750000 0.630614 0.875000
O O6 0.816087 0.765790 0.771800
O O7 0.557373 0.889371 0.722186
O O8 0.617245 0.913426 0.888303
O O9 0.734814 0.925639 0.751999
#
# Coordination Sequence:
#
# PCOD8311940 Si02
#       4
#    16  16  16  16
#     4  12  27  46  72 107 140 195 251 303 377 450
#     4  12  25  48  70 103 146 189 242 312 370 450
#     4  10  22  44  68 104 142 184 246 303 372 446
#     4  11  25  44  71 105 143 188 247 301 381 440
#
# _framework density 21.363008000000001
#
# number of rings (size 3 to 8) (size 9 to 14) (size 15 to 20)
#    0.000    0.750    5.000    2.250    7.000    2.000 
#    4.500    0.000    0.000    0.000    0.000    0.000 
#    0.000    0.000    0.000    0.000    0.000    0.000 
#
# Total GULP energy -396846.715849 kJ/mol
# GULP energy per Si atom -12401.459870 kJ/mol
# Density = 2.131438 g / cm^3
# Si number density = 21.363008 Si / 1000 Ang^3
#
#
#
# Elastic Constant Matrix: (Units=GPa)
#
#
# Indices 1 2 3 4 5 6 
#
# 1 118.8455 26.5847 57.4914 0.0000 0.0000 0.0000
# 2 26.5847 118.8455 57.4914 0.0000 0.0000 0.0000
# 3 57.4914 57.4914 144.3760 0.0000 0.0000 0.0000
# 4 0.0000 0.0000 0.0000 36.1519 0.0000 0.0000
# 5 0.0000 0.0000 0.0000 0.0000 36.1519 0.0000
# 6 0.0000 0.0000 0.0000 0.0000 0.0000 27.7008
#
#
#
# Elastic Compliance Matrix: (Units=1/GPa)
#
#
# Indices 1 2 3 4 5 6 
#
# 1 0.010437 -0.000402 -0.003996 0.000000 0.000000 0.000000
# 2 -0.000402 0.010437 -0.003996 0.000000 0.000000 0.000000
# 3 -0.003996 -0.003996 0.010109 0.000000 0.000000 0.000000
# 4 0.000000 0.000000 0.000000 0.027661 0.000000 0.000000
# 5 0.000000 0.000000 0.000000 0.000000 0.027661 0.000000
# 6 0.000000 0.000000 0.000000 0.000000 0.000000 0.036100
#
#
# Mechanical properties :
#
#
# Convention : Reuss Voigt Hill
#
# Bulk Modulus (GPa) = 70.44534 73.91133 72.17834
# Shear Modulus (GPa) = 34.74008 36.03422 35.38715
#
# Velocity S-wave (km/s) = 4.03697 4.11147 4.07439
# Velocity P-wave (km/s) = 7.40111 7.56385 7.48292
#
# Compressibility (1/GPa) = 0.01419540
#
# Stress axis : x y z
#
# Youngs Moduli (GPa) = 95.81009 95.81007 98.92104
#
# Poissons Ratio (x) = 0.03847 0.39532
# Poissons Ratio (y) = 0.03847 0.39532
# Poissons Ratio (z) = 0.38289 0.38289
#
# Static dielectric constant tensor:
#      x y z
#    x 4.038950 0.000000 0.000000 
#    y 0.000000 4.038950 0.000000 
#    z 0.000000 0.000000 3.823700 
# 
# 
# High freq. dielectric constant tensor:
#      x y z
#    x 1.847000 0.000000 0.000000 
#    y 0.000000 1.847000 0.000000 
#    z 0.000000 0.000000 1.839120 
# 
# From -- ./inp_files/5157.got.cif
#   From: 2010.03.12/outbox.cif.g09.slc.cpg/sg122_3_cif.got.tgz:5157.got - 2010.04.06 16:17:16.
