data_PCOD8311023
_publ_section_title
;
Structure prediction by ZEFSAII (Michael W. Deem and Ramdas Pophale) SiO2 
 PCOD8311023
Probable space group: I -4 M 2
;
_chemical_formula_sum "Si O2"
_cell_formula_units_Z 72
_cell_length_a 19.743334
_cell_length_b 19.743334
_cell_length_c 9.841949
_cell_angle_alpha 90.000000
_cell_angle_beta 90.000000
_cell_angle_gamma 90.000000
_cell_volume 3836.384215
_symmetry_space_group_name_H-M "I -4 M 2"
_symmetry_group_IT_number 119
_symmetry_cell_setting 'tetragonal'
loop_
_space_group_symop_operation_xyz
x,y,z
y,-x,-z
-x,-y,z
-y,x,-z
y,x,-z
-y,-x,-z
-x,y,z
x,-y,z
1/2+x,1/2+y,1/2+z
1/2+y,1/2-x,1/2-z
1/2-x,1/2-y,1/2+z
1/2-y,1/2+x,1/2-z
1/2+y,1/2+x,1/2-z
1/2-y,1/2-x,1/2-z
1/2-x,1/2+y,1/2+z
1/2+x,1/2-y,1/2+z
loop_
_atom_site_type_symbol
_atom_site_label
_atom_site_fract_x
_atom_site_fract_y
_atom_site_fract_z
Si Si1 0.684050 0.080222 0.302289
Si Si2 0.189432 0.077168 0.128928
Si Si3 0.424544 0.075457 0.750000
Si Si4 0.421060 0.318385 0.684060
Si Si5 0.709026 0.077653 0.598720
O O1 0.615893 0.115893 0.250000
O O2 0.741936 0.100883 0.198068
O O3 0.712631 0.108112 0.447318
O O4 0.669050 0.000000 0.309289
O O5 0.125564 0.115465 0.195831
O O6 0.172063 0.000000 0.160897
O O7 0.205700 0.088851 0.970540
O O8 0.500000 0.084042 0.686110
O O9 0.369670 0.087917 0.634472
O O10 0.500000 0.336536 0.712132
O O11 0.391875 0.260929 0.788419
O O12 0.729651 0.000000 0.593792
#
# Coordination Sequence:
#
# PCOD8311023 Si02
#       5
#    16  16   8  16  16
#     4  10  22  38  54  77 110 144 181 226 274 321
#     4   9  19  36  56  81 112 141 176 225 272 319
#     4   9  18  32  52  78 104 136 184 230 265 308
#     4   9  18  35  58  82 109 143 180 218 269 327
#     4   9  19  34  53  78 107 140 175 221 273 318
#
# _framework density 18.767671
#
# number of rings (size 3 to 8) (size 9 to 14) (size 15 to 20)
#    0.000    2.778    0.000    0.000    3.111    2.444 
#    2.000    4.444    0.000    0.000    0.000    6.222 
#    0.000    0.000    0.000    0.000    0.000    0.000 
#
# Total GULP energy -446035.748793 kJ/mol
# GULP energy per Si atom -12389.881911 kJ/mol
# Density = 1.872496 g / cm^3
# Si number density = 18.767671 Si / 1000 Ang^3
#
#
#
# Elastic Constant Matrix: (Units=GPa)
#
#
# Indices 1 2 3 4 5 6 
#
# 1 87.0214 57.7758 54.3172 0.0000 0.0000 0.0000
# 2 57.7758 87.0201 54.3177 0.0000 0.0000 0.0000
# 3 54.3172 54.3177 112.4682 0.0000 0.0000 0.0000
# 4 0.0000 0.0000 0.0000 24.0805 0.0000 0.0000
# 5 0.0000 0.0000 0.0000 0.0000 24.0804 0.0000
# 6 0.0000 0.0000 0.0000 0.0000 0.0000 26.1054
#
#
#
# Elastic Compliance Matrix: (Units=1/GPa)
#
#
# Indices 1 2 3 4 5 6 
#
# 1 0.022512 -0.011682 -0.005231 0.000000 0.000000 0.000000
# 2 -0.011682 0.022513 -0.005231 0.000000 0.000000 0.000000
# 3 -0.005231 -0.005231 0.013944 0.000000 0.000000 0.000000
# 4 0.000000 0.000000 0.000000 0.041527 0.000000 0.000000
# 5 0.000000 0.000000 0.000000 0.000000 0.041528 0.000000
# 6 0.000000 0.000000 0.000000 0.000000 0.000000 0.038306
#
#
# Mechanical properties :
#
#
# Convention : Reuss Voigt Hill
#
# Bulk Modulus (GPa) = 68.10982 68.81457 68.46220
# Shear Modulus (GPa) = 21.78555 22.85986 22.32271
#
# Velocity S-wave (km/s) = 3.41075 3.49384 3.45254
# Velocity P-wave (km/s) = 7.20283 7.28162 7.24233
#
# Compressibility (1/GPa) = 0.01468217
#
# Stress axis : x y z
#
# Youngs Moduli (GPa) = 44.42087 44.41957 71.71603
#
# Poissons Ratio (x) = 0.51889 0.37511
# Poissons Ratio (y) = 0.51891 0.37515
# Poissons Ratio (z) = 0.23234 0.23236
#
# Static dielectric constant tensor:
#      x y z
#    x 3.364640 0.000000 0.000000 
#    y 0.000000 3.364650 0.000000 
#    z 0.000000 0.000000 3.670730 
# 
# 
# High freq. dielectric constant tensor:
#      x y z
#    x 1.717590 0.000000 0.000000 
#    y 0.000000 1.717590 0.000000 
#    z 0.000000 0.000000 1.732060 
# 
# From -- ./inp_files/2393.got.cif
#   From: 2010.03.12/outbox.cif.g09.slc.cpg/sg119_2_cif.got.tgz:2393.got - 2010.04.14 02:25:26.
