data_PCOD8311543
_publ_section_title
;
Structure prediction by ZEFSAII (Michael W. Deem and Ramdas Pophale) SiO2 
 PCOD8311543
Probable space group: I -4 2 M
;
_chemical_formula_sum "Si O2"
_cell_formula_units_Z 84
_cell_length_a 23.210610
_cell_length_b 23.210610
_cell_length_c 8.486956
_cell_angle_alpha 90.000000
_cell_angle_beta 90.000000
_cell_angle_gamma 90.000000
_cell_volume 4572.198315
_symmetry_space_group_name_H-M "I -4 2 M"
_symmetry_group_IT_number 121
_symmetry_cell_setting 'tetragonal'
loop_
_space_group_symop_operation_xyz
x,y,z
y,-x,-z
-x,-y,z
-y,x,-z
x,-y,-z
-x,y,-z
-y,-x,z
y,x,z
1/2+x,1/2+y,1/2+z
1/2+y,1/2-x,1/2-z
1/2-x,1/2-y,1/2+z
1/2-y,1/2+x,1/2-z
1/2+x,1/2-y,1/2-z
1/2-x,1/2+y,1/2-z
1/2-y,1/2-x,1/2+z
1/2+y,1/2+x,1/2+z
loop_
_atom_site_type_symbol
_atom_site_label
_atom_site_fract_x
_atom_site_fract_y
_atom_site_fract_z
Si Si1 0.075860 0.322065 0.161343
Si Si2 0.236885 0.145566 0.687815
Si Si3 0.000000 0.500000 0.750000
Si Si4 0.208921 0.471206 0.168451
Si Si5 0.895861 0.427676 0.652113
Si Si6 0.684112 0.225752 0.477759
O O1 0.084868 0.361805 0.316832
O O2 0.020006 0.282464 0.196597
O O3 0.065465 0.363245 0.012293
O O4 0.128323 0.279096 0.132032
O O5 0.171270 0.171270 0.688033
O O6 0.239352 0.076139 0.681406
O O7 0.273022 0.171193 0.541130
O O8 0.271859 0.166667 0.840680
O O9 0.049195 0.530069 0.643749
O O10 0.146411 0.442650 0.200755
O O11 0.211657 0.500000 0.000000
O O12 0.716244 0.283756 0.422380
#
# Coordination Sequence:
#
# PCOD8311543 Si02
#       6
#    16  16   4  16  16  16
#     4  12  23  40  55  78 111 148 195 239 287 339
#     4  10  22  38  58  83 110 143 193 243 300 348
#     4  12  28  34  48  74 102 152 202 228 270 292
#     4  12  25  39  56  78 109 156 192 242 287 335
#     4  12  25  37  53  73 112 150 199 245 268 323
#     4  10  20  35  59  84 109 144 186 246 299 344
#
# _framework density 18.371905999999999
#
# number of rings (size 3 to 8) (size 9 to 14) (size 15 to 20)
#    0.000    0.762    5.714    1.714    2.667    0.762 
#    0.000    0.000    0.000    0.000    0.000    0.000 
#    0.000    2.667    0.000    8.381    0.000    0.000 
#
# Total GULP energy -520695.961035 kJ/mol
# GULP energy per Si atom -12397.522882 kJ/mol
# Density = 1.833009 g / cm^3
# Si number density = 18.371906 Si / 1000 Ang^3
#
#
#
# Elastic Constant Matrix: (Units=GPa)
#
#
# Indices 1 2 3 4 5 6 
#
# 1 96.0364 62.9368 37.2673 0.0000 0.0000 0.0000
# 2 62.9368 96.0365 37.2680 0.0000 0.0000 0.0000
# 3 37.2673 37.2680 88.3788 0.0000 0.0000 0.0000
# 4 0.0000 0.0000 0.0000 21.0641 0.0000 0.0000
# 5 0.0000 0.0000 0.0000 0.0000 21.0638 0.0000
# 6 0.0000 0.0000 0.0000 0.0000 0.0000 39.9020
#
#
#
# Elastic Compliance Matrix: (Units=1/GPa)
#
#
# Indices 1 2 3 4 5 6 
#
# 1 0.019026 -0.011186 -0.003306 0.000000 0.000000 0.000000
# 2 -0.011186 0.019026 -0.003306 0.000000 0.000000 0.000000
# 3 -0.003306 -0.003306 0.014103 0.000000 0.000000 0.000000
# 4 0.000000 0.000000 0.000000 0.047474 0.000000 0.000000
# 5 0.000000 0.000000 0.000000 0.000000 0.047475 0.000000
# 6 0.000000 0.000000 0.000000 0.000000 0.000000 0.025061
#
#
# Mechanical properties :
#
#
# Convention : Reuss Voigt Hill
#
# Bulk Modulus (GPa) = 60.38840 61.71067 61.04954
# Shear Modulus (GPa) = 23.44316 25.93794 24.69055
#
# Velocity S-wave (km/s) = 3.57604 3.76150 3.66994
# Velocity P-wave (km/s) = 7.07051 7.24761 7.15960
#
# Compressibility (1/GPa) = 0.01655947
#
# Stress axis : x y z
#
# Youngs Moduli (GPa) = 52.55942 52.55911 70.90572
#
# Poissons Ratio (x) = 0.58791 0.23442
# Poissons Ratio (y) = 0.58791 0.23444
# Poissons Ratio (z) = 0.17376 0.17378
#
# Static dielectric constant tensor:
#      x y z
#    x 3.511410 0.000000 0.000000 
#    y 0.000000 3.511410 0.000000 
#    z 0.000000 0.000000 3.428150 
# 
# 
# High freq. dielectric constant tensor:
#      x y z
#    x 1.684740 0.000000 0.000000 
#    y 0.000000 1.684740 0.000000 
#    z 0.000000 0.000000 1.727220 
# 
# From -- ./inp_files/1870.got.cif
#   From: 2010.03.12/outbox.cif.g09.slc.cpg/sg121_1_cif.got.tgz:1870.got - 2010.04.06 16:06:48.
