data_PCOD8311172
_publ_section_title
;
Structure prediction by ZEFSAII (Michael W. Deem and Ramdas Pophale) SiO2 
 PCOD8311172
Probable space group: I -4 C 2
;
_chemical_formula_sum "Si O2"
_cell_formula_units_Z 104
_cell_length_a 14.390670
_cell_length_b 14.390670
_cell_length_c 25.168962
_cell_angle_alpha 90.000000
_cell_angle_beta 90.000000
_cell_angle_gamma 90.000000
_cell_volume 5212.275150
_symmetry_space_group_name_H-M "I -4 C 2"
_symmetry_group_IT_number 120
_symmetry_cell_setting 'tetragonal'
loop_
_space_group_symop_operation_xyz
x,y,z
y,-x,-z
-x,-y,z
-y,x,-z
y,x,1/2-z
-y,-x,1/2-z
-x,y,1/2+z
x,-y,1/2+z
1/2+x,1/2+y,1/2+z
1/2+y,1/2-x,1/2-z
1/2-x,1/2-y,1/2+z
1/2-y,1/2+x,1/2-z
1/2+y,1/2+x,-z
1/2-y,1/2-x,-z
1/2-x,1/2+y,z
1/2+x,1/2-y,z
loop_
_atom_site_type_symbol
_atom_site_label
_atom_site_fract_x
_atom_site_fract_y
_atom_site_fract_z
Si Si1 0.087454 0.375648 0.249715
Si Si2 0.468862 0.195022 0.068582
Si Si3 0.726684 0.944922 0.589875
Si Si4 0.142783 0.992493 0.510088
Si Si5 0.855186 0.719812 0.143938
Si Si6 0.695580 0.139710 0.640271
Si Si7 0.581709 0.918292 0.500000
O O1 0.122515 0.478601 0.235143
O O2 0.106285 0.302796 0.202468
O O3 0.145755 0.341010 0.299958
O O4 0.452999 0.271174 0.023249
O O5 0.557491 0.220847 0.104531
O O6 0.375246 0.194617 0.102215
O O7 0.490516 0.094261 0.038787
O O8 0.721470 0.858867 0.629983
O O9 0.671004 0.916137 0.537235
O O10 0.829509 0.967111 0.568074
O O11 0.690333 0.034582 0.620643
O O12 0.073419 0.908028 0.522862
O O13 0.799338 0.816996 0.139483
#
# Coordination Sequence:
#
# PCOD8311172 Si02
#       7
#    16  16  16  16  16  16   8
#     4  11  22  40  63  88 115 150 191 247 305 354
#     4  10  21  37  56  88 116 154 198 236 293 346
#     4  10  21  37  56  88 116 154 198 236 293 346
#     4  10  20  36  56  80 119 162 198 235 275 340
#     4  11  22  39  60  86 121 148 193 249 292 352
#     4  12  23  36  62  86 114 159 192 243 301 347
#     4   8  20  33  54  78 120 146 178 247 274 330
#
# _framework density 19.9529
#
# number of rings (size 3 to 8) (size 9 to 14) (size 15 to 20)
#    0.000    1.538    3.077    2.308    0.000    5.538 
#    0.000    6.154    0.000    0.000    0.000    2.154 
#    0.000    0.000    0.000    0.000    0.000    0.000 
#
# Total GULP energy -644418.274544 kJ/mol
# GULP energy per Si atom -12392.659126 kJ/mol
# Density = 1.990749 g / cm^3
# Si number density = 19.952900 Si / 1000 Ang^3
#
#
#
# Elastic Constant Matrix: (Units=GPa)
#
#
# Indices 1 2 3 4 5 6 
#
# 1 56.1601 11.3338 10.3422 0.0000 0.0000 0.0000
# 2 11.3338 56.1600 10.3416 0.0000 0.0000 0.0000
# 3 10.3422 10.3416 73.7854 0.0000 0.0000 0.0000
# 4 0.0000 0.0000 0.0000 29.3480 0.0000 0.0000
# 5 0.0000 0.0000 0.0000 0.0000 29.3481 0.0000
# 6 0.0000 0.0000 0.0000 0.0000 0.0000 32.0096
#
#
#
# Elastic Compliance Matrix: (Units=1/GPa)
#
#
# Indices 1 2 3 4 5 6 
#
# 1 0.018895 -0.003414 -0.002170 0.000000 0.000000 0.000000
# 2 -0.003414 0.018895 -0.002170 0.000000 0.000000 0.000000
# 3 -0.002170 -0.002170 0.014161 0.000000 0.000000 0.000000
# 4 0.000000 0.000000 0.000000 0.034074 0.000000 0.000000
# 5 0.000000 0.000000 0.000000 0.000000 0.034074 0.000000
# 6 0.000000 0.000000 0.000000 0.000000 0.000000 0.031241
#
#
# Mechanical properties :
#
#
# Convention : Reuss Voigt Hill
#
# Bulk Modulus (GPa) = 27.43943 27.79340 27.61642
# Shear Modulus (GPa) = 27.93400 28.41369 28.17384
#
# Velocity S-wave (km/s) = 3.74571 3.77774 3.76176
# Velocity P-wave (km/s) = 5.69992 5.74353 5.72177
#
# Compressibility (1/GPa) = 0.03644390
#
# Stress axis : x y z
#
# Youngs Moduli (GPa) = 52.92476 52.92486 70.61610
#
# Poissons Ratio (x) = 0.18066 0.15323
# Poissons Ratio (y) = 0.18066 0.15322
# Poissons Ratio (z) = 0.11484 0.11483
#
# Static dielectric constant tensor:
#      x y z
#    x 3.622190 0.000000 0.000000 
#    y 0.000000 3.622190 0.000000 
#    z 0.000000 0.000000 3.710790 
# 
# 
# High freq. dielectric constant tensor:
#      x y z
#    x 1.772120 0.000000 0.000000 
#    y 0.000000 1.772120 0.000000 
#    z 0.000000 0.000000 1.782890 
# 
# From -- ./inp_files/5923.got.cif
#   From: 2010.03.12/outbox.cif.g09.slc.cpg/sg120_3_cif.got.tgz:5923.got - 2010.04.06 16:00:44.
