data_PCOD8311592
_publ_section_title
;
Structure prediction by ZEFSAII (Michael W. Deem and Ramdas Pophale) SiO2 
 PCOD8311592
Probable space group: I -4 2 M
;
_chemical_formula_sum "Si O2"
_cell_formula_units_Z 88
_cell_length_a 15.922597
_cell_length_b 15.922597
_cell_length_c 19.876794
_cell_angle_alpha 90.000000
_cell_angle_beta 90.000000
_cell_angle_gamma 90.000000
_cell_volume 5039.345599
_symmetry_space_group_name_H-M "I -4 2 M"
_symmetry_group_IT_number 121
_symmetry_cell_setting 'tetragonal'
loop_
_space_group_symop_operation_xyz
x,y,z
y,-x,-z
-x,-y,z
-y,x,-z
x,-y,-z
-x,y,-z
-y,-x,z
y,x,z
1/2+x,1/2+y,1/2+z
1/2+y,1/2-x,1/2-z
1/2-x,1/2-y,1/2+z
1/2-y,1/2+x,1/2-z
1/2+x,1/2-y,1/2-z
1/2-x,1/2+y,1/2-z
1/2-y,1/2-x,1/2+z
1/2+y,1/2+x,1/2+z
loop_
_atom_site_type_symbol
_atom_site_label
_atom_site_fract_x
_atom_site_fract_y
_atom_site_fract_z
Si Si1 0.585186 0.816543 0.730204
Si Si2 0.389330 0.610671 0.864176
Si Si3 0.295401 0.295401 0.030059
Si Si4 0.442762 0.691221 0.160063
Si Si5 0.545082 0.088559 0.654705
Si Si6 0.262189 0.737812 0.826639
Si Si7 0.578222 0.178859 0.047677
O O1 0.549689 0.733992 0.766994
O O2 0.525528 0.839966 0.667229
O O3 0.587918 0.894611 0.780878
O O4 0.677695 0.796148 0.705389
O O5 0.363596 0.636405 0.941315
O O6 0.378013 0.513435 0.848899
O O7 0.333109 0.666892 0.813436
O O8 0.249706 0.249706 0.092923
O O9 0.223214 0.343026 0.988293
O O10 0.351869 0.648132 0.150938
O O11 0.459391 0.760077 0.103585
O O12 0.594850 0.110429 0.585795
O O13 0.500000 0.000000 0.645932
O O14 0.500000 0.155756 0.000000
#
# Coordination Sequence:
#
# PCOD8311592 Si02
#       7
#    16   8   8  16  16   8  16
#     4  11  20  40  56  90 116 149 197 236 304 353
#     4  10  21  34  56  79 112 156 186 238 290 333
#     4  10  22  38  55  78 117 158 195 233 282 350
#     4  11  21  35  58  84 117 154 190 238 287 354
#     4  11  23  35  61  85 121 152 192 249 297 351
#     4  10  22  36  63  78 111 164 185 245 294 345
#     4  11  22  38  55  84 120 156 198 236 289 355
#
# _framework density 17.462585000000001
#
# number of rings (size 3 to 8) (size 9 to 14) (size 15 to 20)
#    0.545    0.727    5.455    1.364    5.091    0.364 
#    0.000    0.909    0.000    0.000    0.000    0.000 
#    0.000    0.000    0.000    0.000    0.000    0.000 
#
# Total GULP energy -545457.286639 kJ/mol
# GULP energy per Si atom -12396.756515 kJ/mol
# Density = 1.742284 g / cm^3
# Si number density = 17.462585 Si / 1000 Ang^3
#
#
#
# Elastic Constant Matrix: (Units=GPa)
#
#
# Indices 1 2 3 4 5 6 
#
# 1 75.7955 32.2653 34.9499 0.0000 0.0000 0.0000
# 2 32.2653 75.7915 34.9502 0.0000 0.0000 0.0000
# 3 34.9499 34.9502 79.9053 0.0000 0.0000 0.0000
# 4 0.0000 0.0000 0.0000 29.4713 0.0000 0.0000
# 5 0.0000 0.0000 0.0000 0.0000 29.4716 0.0000
# 6 0.0000 0.0000 0.0000 0.0000 0.0000 34.7766
#
#
#
# Elastic Compliance Matrix: (Units=1/GPa)
#
#
# Indices 1 2 3 4 5 6 
#
# 1 0.017939 -0.005034 -0.005645 0.000000 0.000000 0.000000
# 2 -0.005034 0.017940 -0.005645 0.000000 0.000000 0.000000
# 3 -0.005645 -0.005645 0.017453 0.000000 0.000000 0.000000
# 4 0.000000 0.000000 0.000000 0.033931 0.000000 0.000000
# 5 0.000000 0.000000 0.000000 0.000000 0.033931 0.000000
# 6 0.000000 0.000000 0.000000 0.000000 0.000000 0.028755
#
#
# Mechanical properties :
#
#
# Convention : Reuss Voigt Hill
#
# Bulk Modulus (GPa) = 48.34464 48.42479 48.38471
# Shear Modulus (GPa) = 26.38636 27.36569 26.87602
#
# Velocity S-wave (km/s) = 3.89140 3.96296 3.92735
# Velocity P-wave (km/s) = 6.92355 6.98075 6.95221
#
# Compressibility (1/GPa) = 0.02068482
#
# Stress axis : x y z
#
# Youngs Moduli (GPa) = 55.74442 55.74039 57.29707
#
# Poissons Ratio (x) = 0.28059 0.32342
# Poissons Ratio (y) = 0.28061 0.32345
# Poissons Ratio (z) = 0.31465 0.31467
#
# Static dielectric constant tensor:
#      x y z
#    x 3.213280 0.000000 0.000000 
#    y 0.000000 3.213270 0.000000 
#    z 0.000000 0.000000 3.365620 
# 
# 
# High freq. dielectric constant tensor:
#      x y z
#    x 1.670430 0.000000 0.000000 
#    y 0.000000 1.670430 0.000000 
#    z 0.000000 0.000000 1.667490 
# 
# From -- ./inp_files/6350.got.cif
#   From: 2010.03.12/outbox.cif.g09.slc.cpg/sg121_4_cif.got.tgz:6350.got - 2010.04.06 16:06:48.
