data_PCOD8311491
_publ_section_title
;
Structure prediction by ZEFSAII (Michael W. Deem and Ramdas Pophale) SiO2 
 PCOD8311491
Probable space group: I -4 2 M
;
_chemical_formula_sum "Si O2"
_cell_formula_units_Z 64
_cell_length_a 13.366605
_cell_length_b 13.366605
_cell_length_c 19.857012
_cell_angle_alpha 90.000000
_cell_angle_beta 90.000000
_cell_angle_gamma 90.000000
_cell_volume 3547.775472
_symmetry_space_group_name_H-M "I -4 2 M"
_symmetry_group_IT_number 121
_symmetry_cell_setting 'tetragonal'
loop_
_space_group_symop_operation_xyz
x,y,z
y,-x,-z
-x,-y,z
-y,x,-z
x,-y,-z
-x,y,-z
-y,-x,z
y,x,z
1/2+x,1/2+y,1/2+z
1/2+y,1/2-x,1/2-z
1/2-x,1/2-y,1/2+z
1/2-y,1/2+x,1/2-z
1/2+x,1/2-y,1/2-z
1/2-x,1/2+y,1/2-z
1/2-y,1/2-x,1/2+z
1/2+y,1/2+x,1/2+z
loop_
_atom_site_type_symbol
_atom_site_label
_atom_site_fract_x
_atom_site_fract_y
_atom_site_fract_z
Si Si1 0.062181 0.223578 0.289591
Si Si2 0.224171 0.066069 0.440365
Si Si3 0.724665 0.888167 0.811056
Si Si4 0.449471 0.103831 0.433090
O O1 0.126186 0.126186 0.267098
O O2 0.020061 0.209298 0.365653
O O3 0.131580 0.322407 0.284079
O O4 0.964842 0.235933 0.244331
O O5 0.175007 0.175007 0.440619
O O6 0.338696 0.080342 0.456787
O O7 0.175129 0.000000 0.500000
O O8 0.815142 0.815142 0.832462
O O9 0.687152 0.953047 0.874750
O O10 0.500000 0.148627 0.500000
O O11 0.500000 0.000000 0.408518
#
# Coordination Sequence:
#
# PCOD8311491 Si02
#       4
#    16  16  16  16
#     4   9  21  37  56  83 115 151 189 234 284 337
#     4  10  20  36  55  83 117 146 183 233 283 334
#     4  10  22  37  56  85 117 148 186 235 283 333
#     4  10  19  35  59  84 108 144 189 234 277 324
#
# _framework density 18.039473999999998
#
# number of rings (size 3 to 8) (size 9 to 14) (size 15 to 20)
#    0.000    2.250    2.500    2.250    7.000    1.750 
#    0.000    7.500    0.000    0.000    0.000    0.000 
#    0.000    0.000    0.000    0.000    0.000    0.000 
#
# Total GULP energy -396636.403638 kJ/mol
# GULP energy per Si atom -12394.887614 kJ/mol
# Density = 1.799842 g / cm^3
# Si number density = 18.039474 Si / 1000 Ang^3
#
#
#
# Elastic Constant Matrix: (Units=GPa)
#
#
# Indices 1 2 3 4 5 6 
#
# 1 84.8424 45.5751 61.7709 0.0000 0.0000 0.0000
# 2 45.5751 84.8424 61.7709 0.0000 0.0000 0.0000
# 3 61.7709 61.7709 130.3299 0.0000 0.0000 0.0000
# 4 0.0000 0.0000 0.0000 20.9183 0.0000 0.0000
# 5 0.0000 0.0000 0.0000 0.0000 20.9183 0.0000
# 6 0.0000 0.0000 0.0000 0.0000 0.0000 25.6364
#
#
#
# Elastic Compliance Matrix: (Units=1/GPa)
#
#
# Indices 1 2 3 4 5 6 
#
# 1 0.019691 -0.005776 -0.006595 0.000000 0.000000 0.000000
# 2 -0.005776 0.019691 -0.006595 0.000000 0.000000 0.000000
# 3 -0.006595 -0.006595 0.013925 0.000000 0.000000 0.000000
# 4 0.000000 0.000000 0.000000 0.047805 0.000000 0.000000
# 5 0.000000 0.000000 0.000000 0.000000 0.047805 0.000000
# 6 0.000000 0.000000 0.000000 0.000000 0.000000 0.039007
#
#
# Mechanical properties :
#
#
# Convention : Reuss Voigt Hill
#
# Bulk Modulus (GPa) = 65.04459 70.91649 67.98054
# Shear Modulus (GPa) = 21.64687 22.22111 21.93399
#
# Velocity S-wave (km/s) = 3.46782 3.51352 3.49074
# Velocity P-wave (km/s) = 7.22284 7.47375 7.34937
#
# Compressibility (1/GPa) = 0.01537407
#
# Stress axis : x y z
#
# Youngs Moduli (GPa) = 50.78502 50.78502 71.81562
#
# Poissons Ratio (x) = 0.29332 0.47364
# Poissons Ratio (y) = 0.29332 0.47364
# Poissons Ratio (z) = 0.33494 0.33494
#
# Static dielectric constant tensor:
#      x y z
#    x 3.421070 0.000000 0.000000 
#    y 0.000000 3.421070 0.000000 
#    z 0.000000 0.000000 3.514590 
# 
# 
# High freq. dielectric constant tensor:
#      x y z
#    x 1.692990 0.000000 0.000000 
#    y 0.000000 1.692990 0.000000 
#    z 0.000000 0.000000 1.701150 
# 
# From -- ./inp_files/6006.got.cif
#   From: 2010.03.12/outbox.cif.g09.slc.cpg/sg121_4_cif.got.tgz:6006.got - 2010.04.06 16:06:48.
