data_PCOD8311666
_publ_section_title
;
Structure prediction by ZEFSAII (Michael W. Deem and Ramdas Pophale) SiO2 
 PCOD8311666
Probable space group: I -4 2 M
;
_chemical_formula_sum "Si O2"
_cell_formula_units_Z 96
_cell_length_a 15.713222
_cell_length_b 15.713222
_cell_length_c 23.982293
_cell_angle_alpha 90.000000
_cell_angle_beta 90.000000
_cell_angle_gamma 90.000000
_cell_volume 5921.356342
_symmetry_space_group_name_H-M "I -4 2 M"
_symmetry_group_IT_number 121
_symmetry_cell_setting 'tetragonal'
loop_
_space_group_symop_operation_xyz
x,y,z
y,-x,-z
-x,-y,z
-y,x,-z
x,-y,-z
-x,y,-z
-y,-x,z
y,x,z
1/2+x,1/2+y,1/2+z
1/2+y,1/2-x,1/2-z
1/2-x,1/2-y,1/2+z
1/2-y,1/2+x,1/2-z
1/2+x,1/2-y,1/2-z
1/2-x,1/2+y,1/2-z
1/2-y,1/2-x,1/2+z
1/2+y,1/2+x,1/2+z
loop_
_atom_site_type_symbol
_atom_site_label
_atom_site_fract_x
_atom_site_fract_y
_atom_site_fract_z
Si Si1 0.930730 0.069271 0.314630
Si Si2 0.730514 0.410003 0.977909
Si Si3 0.789248 0.649986 0.912441
Si Si4 0.256096 0.028086 0.639427
Si Si5 0.889053 0.756200 0.835361
Si Si6 0.630140 0.049004 0.257564
Si Si7 0.568259 0.431742 0.681203
O O1 0.958231 0.160901 0.337988
O O2 0.928039 0.071962 0.247932
O O3 0.000000 0.000000 0.334797
O O4 0.650042 0.349959 0.973664
O O5 0.772436 0.418305 0.917046
O O6 0.695041 0.500000 0.000000
O O7 0.801116 0.376438 0.022510
O O8 0.704039 0.704039 0.907553
O O9 0.774279 0.570703 0.871652
O O10 0.872668 0.703022 0.892476
O O11 0.326195 0.060995 0.682686
O O12 0.798266 0.798266 0.816532
O O13 0.921851 0.695090 0.788569
O O14 0.954783 0.836442 0.842518
O O15 0.548089 0.108187 0.255759
O O16 0.500000 0.500000 0.659087
#
# Coordination Sequence:
#
# PCOD8311666 Si02
#       7
#     8  16  16  16  16  16   8
#     4  11  20  28  45  72 110 148 175 221 265 306
#     4   9  18  29  45  72 106 146 181 217 252 306
#     4   9  17  30  49  73  99 140 186 209 252 316
#     4  11  18  32  48  70 108 143 181 218 258 308
#     4   9  17  33  53  72 101 137 176 218 270 326
#     4  11  22  35  51  74 103 140 176 221 269 317
#     4   9  18  30  49  74 106 135 172 222 276 318
#
# _framework density 16.212502000000001
#
# number of rings (size 3 to 8) (size 9 to 14) (size 15 to 20)
#    0.500    1.667    4.167    0.500    0.000    0.833 
#    0.000    0.833    0.000    1.000    0.000    0.000 
#    0.000    1.333    0.000    0.000    0.000    0.000 
#
# Total GULP energy -594688.352519 kJ/mol
# GULP energy per Si atom -12389.340677 kJ/mol
# Density = 1.617560 g / cm^3
# Si number density = 16.212502 Si / 1000 Ang^3
#
#
#
# Elastic Constant Matrix: (Units=GPa)
#
#
# Indices 1 2 3 4 5 6 
#
# 1 76.5511 59.4419 58.0150 0.0000 0.0000 0.0000
# 2 59.4419 76.5506 58.0151 0.0000 0.0000 0.0000
# 3 58.0150 58.0151 110.0047 0.0000 0.0000 0.0000
# 4 0.0000 0.0000 0.0000 9.0165 0.0000 0.0000
# 5 0.0000 0.0000 0.0000 0.0000 9.0150 0.0000
# 6 0.0000 0.0000 0.0000 0.0000 0.0000 15.4932
#
#
#
# Elastic Compliance Matrix: (Units=1/GPa)
#
#
# Indices 1 2 3 4 5 6 
#
# 1 0.035909 -0.022540 -0.007050 0.000000 0.000000 0.000000
# 2 -0.022540 0.035909 -0.007051 0.000000 0.000000 0.000000
# 3 -0.007050 -0.007051 0.016527 0.000000 0.000000 0.000000
# 4 0.000000 0.000000 0.000000 0.110908 0.000000 0.000000
# 5 0.000000 0.000000 0.000000 0.000000 0.110927 0.000000
# 6 0.000000 0.000000 0.000000 0.000000 0.000000 0.064544
#
#
# Mechanical properties :
#
#
# Convention : Reuss Voigt Hill
#
# Bulk Modulus (GPa) = 66.38874 68.22782 67.30828
# Shear Modulus (GPa) = 11.03686 12.54723 11.79204
#
# Velocity S-wave (km/s) = 2.61197 2.78496 2.69985
# Velocity P-wave (km/s) = 7.08057 7.24681 7.16417
#
# Compressibility (1/GPa) = 0.01506280
#
# Stress axis : x y z
#
# Youngs Moduli (GPa) = 27.84843 27.84801 60.50579
#
# Poissons Ratio (x) = 0.62769 0.42659
# Poissons Ratio (y) = 0.62770 0.42661
# Poissons Ratio (z) = 0.19634 0.19635
#
# Static dielectric constant tensor:
#      x y z
#    x 3.411980 0.000000 0.000000 
#    y 0.000000 3.412050 0.000000 
#    z 0.000000 0.000000 3.299730 
# 
# 
# High freq. dielectric constant tensor:
#      x y z
#    x 1.613040 0.000000 0.000000 
#    y 0.000000 1.613040 0.000000 
#    z 0.000000 0.000000 1.621420 
# 
# From -- ./inp_files/7694.got.cif
#   From: 2010.03.12/outbox.cif.g09.slc.cpg/sg121_4_cif.got.tgz:7694.got - 2010.04.06 16:06:48.
