data_PCOD8311971
_publ_section_title
;
Structure prediction by ZEFSAII (Michael W. Deem and Ramdas Pophale) SiO2 
 PCOD8311971
Probable space group: I -4 2 D
;
_chemical_formula_sum "Si O2"
_cell_formula_units_Z 56
_cell_length_a 14.986865
_cell_length_b 14.986865
_cell_length_c 11.224002
_cell_angle_alpha 90.000000
_cell_angle_beta 90.000000
_cell_angle_gamma 90.000000
_cell_volume 2520.979568
_symmetry_space_group_name_H-M "I -4 2 D"
_symmetry_group_IT_number 122
_symmetry_cell_setting 'tetragonal'
loop_
_space_group_symop_operation_xyz
x,y,z
y,-x,-z
-x,-y,z
-y,x,-z
x,1/2-y,1/4-z
-x,1/2+y,1/4-z
-y,1/2-x,1/4+z
y,1/2+x,1/4+z
1/2+x,1/2+y,1/2+z
1/2+y,1/2-x,1/2-z
1/2-x,1/2-y,1/2+z
1/2-y,1/2+x,1/2-z
1/2+x,-y,3/4-z
1/2-x,y,3/4-z
1/2-y,-x,3/4+z
1/2+y,x,3/4+z
loop_
_atom_site_type_symbol
_atom_site_label
_atom_site_fract_x
_atom_site_fract_y
_atom_site_fract_z
Si Si1 0.560786 0.373714 0.530494
Si Si2 0.893709 0.600009 0.752267
Si Si3 0.698820 0.250000 0.125000
Si Si4 0.300113 0.359057 0.229877
O O1 0.455126 0.391790 0.538847
O O2 0.603698 0.360943 0.661623
O O3 0.574443 0.282904 0.454923
O O4 0.877214 0.496152 0.727771
O O5 0.837707 0.635042 0.867101
O O6 0.861526 0.651240 0.634584
O O7 0.763107 0.245501 0.240340
#
# Coordination Sequence:
#
# PCOD8311971 Si02
#       4
#    16  16   8  16
#     4   9  20  39  66  94 131 183 228 291 344 414
#     4  11  27  45  70 104 142 187 232 295 357 418
#     4  10  24  44  68  94 140 184 222 288 346 414
#     4  10  24  42  66 101 135 179 238 283 356 413
#
# _framework density 22.213588000000001
#
# number of rings (size 3 to 8) (size 9 to 14) (size 15 to 20)
#    0.000    2.286    0.000    0.857   12.000    6.857 
#   10.286    0.000    0.000    0.000    0.000    0.000 
#    0.000    0.000    0.000    0.000    0.000    0.000 
#
# Total GULP energy -347002.019722 kJ/mol
# GULP energy per Si atom -12392.929276 kJ/mol
# Density = 2.216303 g / cm^3
# Si number density = 22.213588 Si / 1000 Ang^3
#
#
#
# Elastic Constant Matrix: (Units=GPa)
#
#
# Indices 1 2 3 4 5 6 
#
# 1 128.7013 62.8312 35.5931 0.0000 0.0000 0.0000
# 2 62.8312 128.7013 35.5931 0.0000 0.0000 0.0000
# 3 35.5931 35.5931 76.2980 0.0000 0.0000 0.0000
# 4 0.0000 0.0000 0.0000 30.3988 0.0000 0.0000
# 5 0.0000 0.0000 0.0000 0.0000 30.3988 0.0000
# 6 0.0000 0.0000 0.0000 0.0000 0.0000 36.7563
#
#
#
# Elastic Compliance Matrix: (Units=1/GPa)
#
#
# Indices 1 2 3 4 5 6 
#
# 1 0.010749 -0.004433 -0.002946 0.000000 0.000000 0.000000
# 2 -0.004433 0.010749 -0.002946 0.000000 0.000000 0.000000
# 3 -0.002946 -0.002946 0.015856 0.000000 0.000000 0.000000
# 4 0.000000 0.000000 0.000000 0.032896 0.000000 0.000000
# 5 0.000000 0.000000 0.000000 0.000000 0.032896 0.000000
# 6 0.000000 0.000000 0.000000 0.000000 0.000000 0.027206
#
#
# Mechanical properties :
#
#
# Convention : Reuss Voigt Hill
#
# Bulk Modulus (GPa) = 59.87332 66.85948 63.36640
# Shear Modulus (GPa) = 31.93463 32.82302 32.37883
#
# Velocity S-wave (km/s) = 3.79571 3.84814 3.82201
# Velocity P-wave (km/s) = 6.79866 7.06456 6.93289
#
# Compressibility (1/GPa) = 0.01670193
#
# Stress axis : x y z
#
# Youngs Moduli (GPa) = 93.03386 93.03386 63.06923
#
# Poissons Ratio (x) = 0.41238 0.18583
# Poissons Ratio (y) = 0.41238 0.18583
# Poissons Ratio (z) = 0.27412 0.27412
#
# Static dielectric constant tensor:
#      x y z
#    x 4.207020 0.000000 0.000000 
#    y 0.000000 4.207020 0.000000 
#    z 0.000000 0.000000 3.789480 
# 
# 
# High freq. dielectric constant tensor:
#      x y z
#    x 1.885830 0.000000 0.000000 
#    y 0.000000 1.885830 0.000000 
#    z 0.000000 0.000000 1.849070 
# 
# From -- ./inp_files/3919.got.cif
#   From: 2010.03.12/outbox.cif.g09.slc.cpg/sg122_2_cif.got.tgz:3919.got - 2010.04.06 16:17:16.
