data_PCOD8311253
_publ_section_title
;
Structure prediction by ZEFSAII (Michael W. Deem and Ramdas Pophale) SiO2 
 PCOD8311253
Probable space group: I -4 C 2
;
_chemical_formula_sum "Si O2"
_cell_formula_units_Z 112
_cell_length_a 14.699872
_cell_length_b 14.699872
_cell_length_c 25.419086
_cell_angle_alpha 90.000000
_cell_angle_beta 90.000000
_cell_angle_gamma 90.000000
_cell_volume 5492.714637
_symmetry_space_group_name_H-M "I -4 C 2"
_symmetry_group_IT_number 120
_symmetry_cell_setting 'tetragonal'
loop_
_space_group_symop_operation_xyz
x,y,z
y,-x,-z
-x,-y,z
-y,x,-z
y,x,1/2-z
-y,-x,1/2-z
-x,y,1/2+z
x,-y,1/2+z
1/2+x,1/2+y,1/2+z
1/2+y,1/2-x,1/2-z
1/2-x,1/2-y,1/2+z
1/2-y,1/2+x,1/2-z
1/2+y,1/2+x,-z
1/2-y,1/2-x,-z
1/2-x,1/2+y,z
1/2+x,1/2-y,z
loop_
_atom_site_type_symbol
_atom_site_label
_atom_site_fract_x
_atom_site_fract_y
_atom_site_fract_z
Si Si1 0.668817 0.920360 0.203702
Si Si2 0.318134 0.097836 0.642177
Si Si3 0.943854 0.189657 0.108931
Si Si4 0.231639 0.720125 0.123656
Si Si5 0.017170 0.320412 0.184540
Si Si6 0.846051 0.880278 0.454789
Si Si7 0.823841 0.950393 0.565744
O O1 0.735192 0.859460 0.167272
O O2 0.694268 0.916455 0.265310
O O3 0.565171 0.888364 0.196914
O O4 0.684127 0.025568 0.189249
O O5 0.255450 0.186022 0.653900
O O6 0.422570 0.132964 0.637775
O O7 0.278915 0.047550 0.589496
O O8 0.868649 0.269347 0.097453
O O9 0.892652 0.092184 0.109642
O O10 0.986193 0.219604 0.165370
O O11 0.021743 0.186189 0.065363
O O12 0.301605 0.705984 0.076139
O O13 0.822552 0.880623 0.516502
O O14 0.952983 0.863857 0.449064
#
# Coordination Sequence:
#
# PCOD8311253 Si02
#       7
#    16  16  16  16  16  16  16
#     4  11  22  41  67  96 130 179 224 265 335 399
#     4  11  22  40  61 101 126 165 221 274 325 387
#     4  10  23  40  59  99 130 166 220 274 326 394
#     4  10  24  42  64  96 135 168 218 284 328 395
#     4  11  22  40  66  95 133 176 217 274 330 402
#     4  12  21  44  67  93 126 177 226 272 334 402
#     4  11  24  40  68  95 125 176 223 274 331 400
#
# _framework density 20.390647000000001
#
# number of rings (size 3 to 8) (size 9 to 14) (size 15 to 20)
#    0.000    1.143    5.714    0.857    0.000    2.857 
#    2.571    0.000    0.000    0.000   11.143    0.000 
#    0.000    0.000    0.000    0.000    0.000    0.000 
#
# Total GULP energy -693837.801900 kJ/mol
# GULP energy per Si atom -12389.960748 kJ/mol
# Density = 2.034424 g / cm^3
# Si number density = 20.390647 Si / 1000 Ang^3
#
#
#
# Elastic Constant Matrix: (Units=GPa)
#
#
# Indices 1 2 3 4 5 6 
#
# 1 94.0269 9.8432 48.7223 0.0000 0.0000 0.0000
# 2 9.8432 94.0269 48.7223 0.0000 0.0000 0.0000
# 3 48.7223 48.7223 97.6779 0.0000 0.0000 0.0000
# 4 0.0000 0.0000 0.0000 33.3052 0.0000 0.0000
# 5 0.0000 0.0000 0.0000 0.0000 33.3052 0.0000
# 6 0.0000 0.0000 0.0000 0.0000 0.0000 25.1125
#
#
#
# Elastic Compliance Matrix: (Units=1/GPa)
#
#
# Indices 1 2 3 4 5 6 
#
# 1 0.014987 0.003108 -0.009026 0.000000 0.000000 0.000000
# 2 0.003108 0.014987 -0.009026 0.000000 0.000000 0.000000
# 3 -0.009026 -0.009026 0.019242 0.000000 0.000000 0.000000
# 4 0.000000 0.000000 0.000000 0.030025 0.000000 0.000000
# 5 0.000000 0.000000 0.000000 0.000000 0.030025 0.000000
# 6 0.000000 0.000000 0.000000 0.000000 0.000000 0.039821
#
#
# Mechanical properties :
#
#
# Convention : Reuss Voigt Hill
#
# Bulk Modulus (GPa) = 51.73723 55.58973 53.66348
# Shear Modulus (GPa) = 26.96619 30.24084 28.60352
#
# Velocity S-wave (km/s) = 3.64053 3.85525 3.74943
# Velocity P-wave (km/s) = 6.56502 6.86577 6.71708
#
# Compressibility (1/GPa) = 0.01932844
#
# Stress axis : x y z
#
# Youngs Moduli (GPa) = 66.72515 66.72515 51.96949
#
# Poissons Ratio (x) = -0.20739 0.46907
# Poissons Ratio (y) = -0.20739 0.46907
# Poissons Ratio (z) = 0.60225 0.60225
#
# Static dielectric constant tensor:
#      x y z
#    x 3.875060 0.000000 0.000000 
#    y 0.000000 3.875060 0.000000 
#    z 0.000000 0.000000 3.662900 
# 
# 
# High freq. dielectric constant tensor:
#      x y z
#    x 1.801410 0.000000 0.000000 
#    y 0.000000 1.801410 0.000000 
#    z 0.000000 0.000000 1.777490 
# 
# From -- ./inp_files/6278.got.cif
#   From: 2010.03.12/outbox.cif.g09.slc.cpg/sg120_4_cif.got.tgz:6278.got - 2010.04.06 16:00:44.
