data_PCOD8311357
_publ_section_title
;
Structure prediction by ZEFSAII (Michael W. Deem and Ramdas Pophale) SiO2 
 PCOD8311357
Probable space group: I -4 2 M
;
_chemical_formula_sum "Si O2"
_cell_formula_units_Z 80
_cell_length_a 11.830741
_cell_length_b 11.830741
_cell_length_c 31.993405
_cell_angle_alpha 90.000000
_cell_angle_beta 90.000000
_cell_angle_gamma 90.000000
_cell_volume 4478.002765
_symmetry_space_group_name_H-M "I -4 2 M"
_symmetry_group_IT_number 121
_symmetry_cell_setting 'tetragonal'
loop_
_space_group_symop_operation_xyz
x,y,z
y,-x,-z
-x,-y,z
-y,x,-z
x,-y,-z
-x,y,-z
-y,-x,z
y,x,z
1/2+x,1/2+y,1/2+z
1/2+y,1/2-x,1/2-z
1/2-x,1/2-y,1/2+z
1/2-y,1/2+x,1/2-z
1/2+x,1/2-y,1/2-z
1/2-x,1/2+y,1/2-z
1/2-y,1/2-x,1/2+z
1/2+y,1/2+x,1/2+z
loop_
_atom_site_type_symbol
_atom_site_label
_atom_site_fract_x
_atom_site_fract_y
_atom_site_fract_z
Si Si1 0.995214 0.632515 0.201502
Si Si2 0.683816 0.131014 0.002885
Si Si3 0.268524 0.085224 0.286805
Si Si4 0.291361 0.895487 0.350781
Si Si5 0.502767 0.868941 0.067138
O O1 0.943086 0.706430 0.238637
O O2 0.917027 0.652566 0.160554
O O3 0.000000 0.500000 0.213807
O O4 0.127809 0.660634 0.193650
O O5 0.797819 0.202181 0.000894
O O6 0.616681 0.161431 0.045555
O O7 0.604289 0.160895 0.964051
O O8 0.717791 0.000000 0.000000
O O9 0.154048 0.154048 0.289807
O O10 0.248084 0.968950 0.311736
O O11 0.208054 0.791947 0.359406
O O12 0.296538 0.976764 0.391129
O O13 0.500000 0.000000 0.078895
#
# Coordination Sequence:
#
# PCOD8311357 Si02
#       5
#    16  16  16  16  16
#     4  10  17  34  53  71  94 131 178 216 255 314
#     4   9  18  33  55  82 111 142 174 215 266 313
#     4  11  20  32  51  74 101 131 169 218 271 321
#     4  11  21  34  55  79 104 138 181 225 269 320
#     4   9  18  34  55  78 105 140 185 221 250 309
#
# _framework density 17.865106000000001
#
# number of rings (size 3 to 8) (size 9 to 14) (size 15 to 20)
#    0.000    2.000    4.000    4.200    0.000    1.400 
#    0.000    0.000    0.000   11.400    0.000    0.000 
#    0.000    0.000    0.000    0.000    0.000    0.000 
#
# Total GULP energy -495735.518349 kJ/mol
# GULP energy per Si atom -12393.387959 kJ/mol
# Density = 1.782444 g / cm^3
# Si number density = 17.865106 Si / 1000 Ang^3
#
#
#
# Elastic Constant Matrix: (Units=GPa)
#
#
# Indices 1 2 3 4 5 6 
#
# 1 64.2175 34.1335 23.6571 0.0000 0.0000 0.0000
# 2 34.1335 64.2225 23.6576 0.0000 0.0000 0.0000
# 3 23.6571 23.6576 88.1128 0.0000 0.0000 0.0000
# 4 0.0000 0.0000 0.0000 18.3538 0.0000 0.0000
# 5 0.0000 0.0000 0.0000 0.0000 18.3542 0.0000
# 6 0.0000 0.0000 0.0000 0.0000 0.0000 34.6768
#
#
#
# Elastic Compliance Matrix: (Units=1/GPa)
#
#
# Indices 1 2 3 4 5 6 
#
# 1 0.022457 -0.010781 -0.003135 0.000000 0.000000 0.000000
# 2 -0.010781 0.022456 -0.003135 0.000000 0.000000 0.000000
# 3 -0.003135 -0.003135 0.013032 0.000000 0.000000 0.000000
# 4 0.000000 0.000000 0.000000 0.054485 0.000000 0.000000
# 5 0.000000 0.000000 0.000000 0.000000 0.054483 0.000000
# 6 0.000000 0.000000 0.000000 0.000000 0.000000 0.028838
#
#
# Mechanical properties :
#
#
# Convention : Reuss Voigt Hill
#
# Bulk Modulus (GPa) = 41.93870 42.16099 42.04985
# Shear Modulus (GPa) = 21.02606 23.28393 22.15499
#
# Velocity S-wave (km/s) = 3.43437 3.61407 3.52536
# Velocity P-wave (km/s) = 6.26520 6.40829 6.33715
#
# Compressibility (1/GPa) = 0.02384432
#
# Stress axis : x y z
#
# Youngs Moduli (GPa) = 44.52885 44.53245 76.73209
#
# Poissons Ratio (x) = 0.48011 0.24054
# Poissons Ratio (y) = 0.48007 0.24052
# Poissons Ratio (z) = 0.13959 0.13959
#
# Static dielectric constant tensor:
#      x y z
#    x 3.271850 0.000000 0.000000 
#    y 0.000000 3.271840 0.000000 
#    z 0.000000 0.000000 3.309270 
# 
# 
# High freq. dielectric constant tensor:
#      x y z
#    x 1.672490 0.000000 0.000000 
#    y 0.000000 1.672490 0.000000 
#    z 0.000000 0.000000 1.693380 
# 
# From -- ./inp_files/8066.got.cif
#   From: 2010.03.12/outbox.cif.g09.slc.cpg/sg121_5_cif.got.tgz:8066.got - 2010.04.06 16:06:48.
