data_PCOD8311069
_publ_section_title
;
Structure prediction by ZEFSAII (Michael W. Deem and Ramdas Pophale) SiO2 
 PCOD8311069
Probable space group: I -4 M 2
;
_chemical_formula_sum "Si O2"
_cell_formula_units_Z 96
_cell_length_a 19.994872
_cell_length_b 19.994872
_cell_length_c 13.452396
_cell_angle_alpha 90.000000
_cell_angle_beta 90.000000
_cell_angle_gamma 90.000000
_cell_volume 5378.199398
_symmetry_space_group_name_H-M "I -4 M 2"
_symmetry_group_IT_number 119
_symmetry_cell_setting 'tetragonal'
loop_
_space_group_symop_operation_xyz
x,y,z
y,-x,-z
-x,-y,z
-y,x,-z
y,x,-z
-y,-x,-z
-x,y,z
x,-y,z
1/2+x,1/2+y,1/2+z
1/2+y,1/2-x,1/2-z
1/2-x,1/2-y,1/2+z
1/2-y,1/2+x,1/2-z
1/2+y,1/2+x,1/2-z
1/2-y,1/2-x,1/2-z
1/2-x,1/2+y,1/2+z
1/2+x,1/2-y,1/2+z
loop_
_atom_site_type_symbol
_atom_site_label
_atom_site_fract_x
_atom_site_fract_y
_atom_site_fract_z
Si Si1 0.121118 0.311636 0.393164
Si Si2 0.922565 0.422565 0.250000
Si Si3 0.808861 0.221006 0.110416
Si Si4 0.922849 0.276240 0.605002
Si Si5 0.191758 0.924186 0.742755
Si Si6 0.688096 0.811905 0.250000
Si Si7 0.423295 0.622453 0.104578
O O1 0.102773 0.382702 0.345996
O O2 0.199811 0.299592 0.390814
O O3 0.093681 0.314918 0.504126
O O4 0.086300 0.251543 0.334693
O O5 0.908343 0.500000 0.271493
O O6 0.878175 0.199899 0.160783
O O7 0.747812 0.190342 0.171289
O O8 0.808779 0.191222 0.000000
O O9 0.882394 0.309334 0.694456
O O10 0.901355 0.199270 0.591347
O O11 0.000000 0.283820 0.632260
O O12 0.121430 0.911158 0.689094
O O13 0.193419 0.000000 0.781086
O O14 0.500000 0.616114 0.138865
O O15 0.414524 0.585477 0.000000
#
# Coordination Sequence:
#
# PCOD8311069 Si02
#       7
#    16   8  16  16  16   8  16
#     4  12  21  36  63  88 121 153 192 249 299 354
#     4  11  23  38  57  88 126 158 191 236 299 363
#     4  12  23  38  62  91 116 155 203 244 291 344
#     4  11  23  38  61  93 121 153 198 246 296 350
#     4  12  23  38  59  87 122 158 198 243 292 352
#     4  12  21  40  63  83 124 155 197 244 289 352
#     4  11  22  36  57  90 127 157 194 244 299 353
#
# _framework density 17.84984
#
# number of rings (size 3 to 8) (size 9 to 14) (size 15 to 20)
#    0.000    0.417    8.333    2.000    0.000    1.167 
#    0.000    2.500    0.000    1.250    0.000    0.000 
#    0.000    0.000    0.000    0.000    0.000    0.000 
#
# Total GULP energy -595551.803860 kJ/mol
# GULP energy per Si atom -12407.329247 kJ/mol
# Density = 1.780921 g / cm^3
# Si number density = 17.849840 Si / 1000 Ang^3
#
#
#
# Elastic Constant Matrix: (Units=GPa)
#
#
# Indices 1 2 3 4 5 6 
#
# 1 116.7433 32.9444 55.7105 0.0000 0.0000 0.0000
# 2 32.9444 116.7461 55.7121 0.0000 0.0000 0.0000
# 3 55.7105 55.7121 128.5132 0.0000 0.0000 0.0000
# 4 0.0000 0.0000 0.0000 21.5445 0.0000 0.0000
# 5 0.0000 0.0000 0.0000 0.0000 21.5334 0.0000
# 6 0.0000 0.0000 0.0000 0.0000 0.0000 22.8997
#
#
#
# Elastic Compliance Matrix: (Units=1/GPa)
#
#
# Indices 1 2 3 4 5 6 
#
# 1 0.010898 -0.001035 -0.004276 0.000000 0.000000 0.000000
# 2 -0.001035 0.010898 -0.004276 0.000000 0.000000 0.000000
# 3 -0.004276 -0.004276 0.011488 0.000000 0.000000 0.000000
# 4 0.000000 0.000000 0.000000 0.046416 0.000000 0.000000
# 5 0.000000 0.000000 0.000000 0.000000 0.046440 0.000000
# 6 0.000000 0.000000 0.000000 0.000000 0.000000 0.043669
#
#
# Mechanical properties :
#
#
# Convention : Reuss Voigt Hill
#
# Bulk Modulus (GPa) = 70.86258 72.30406 71.58332
# Shear Modulus (GPa) = 25.81504 27.70456 26.75980
#
# Velocity S-wave (km/s) = 3.80706 3.94393 3.87610
# Velocity P-wave (km/s) = 7.68833 7.83162 7.76031
#
# Compressibility (1/GPa) = 0.01411182
#
# Stress axis : x y z
#
# Youngs Moduli (GPa) = 91.75771 91.75912 87.04387
#
# Poissons Ratio (x) = 0.09497 0.37218
# Poissons Ratio (y) = 0.09496 0.37218
# Poissons Ratio (z) = 0.39233 0.39235
#
# Static dielectric constant tensor:
#      x y z
#    x 3.396350 0.000000 0.000000 
#    y 0.000000 3.396350 0.000000 
#    z 0.000000 0.000000 3.348960 
# 
# 
# High freq. dielectric constant tensor:
#      x y z
#    x 1.695080 0.000000 0.000000 
#    y 0.000000 1.695080 0.000000 
#    z 0.000000 0.000000 1.682210 
# 
# From -- ./inp_files/4237.got.cif
#   From: 2010.03.12/outbox.cif.g09.slc.cpg/sg119_3_cif.got.tgz:4237.got - 2010.04.14 02:25:26.
