data_PCOD8311657
_publ_section_title
;
Structure prediction by ZEFSAII (Michael W. Deem and Ramdas Pophale) SiO2 
 PCOD8311657
Probable space group: I -4 2 M
;
_chemical_formula_sum "Si O2"
_cell_formula_units_Z 64
_cell_length_a 13.169526
_cell_length_b 13.169526
_cell_length_c 17.020663
_cell_angle_alpha 90.000000
_cell_angle_beta 90.000000
_cell_angle_gamma 90.000000
_cell_volume 2952.002773
_symmetry_space_group_name_H-M "I -4 2 M"
_symmetry_group_IT_number 121
_symmetry_cell_setting 'tetragonal'
loop_
_space_group_symop_operation_xyz
x,y,z
y,-x,-z
-x,-y,z
-y,x,-z
x,-y,-z
-x,y,-z
-y,-x,z
y,x,z
1/2+x,1/2+y,1/2+z
1/2+y,1/2-x,1/2-z
1/2-x,1/2-y,1/2+z
1/2-y,1/2+x,1/2-z
1/2+x,1/2-y,1/2-z
1/2-x,1/2+y,1/2-z
1/2-y,1/2-x,1/2+z
1/2+y,1/2+x,1/2+z
loop_
_atom_site_type_symbol
_atom_site_label
_atom_site_fract_x
_atom_site_fract_y
_atom_site_fract_z
Si Si1 0.432136 0.263034 0.426098
Si Si2 0.381425 0.781340 0.999272
Si Si3 0.730723 0.888521 0.676620
Si Si4 0.759801 0.927022 0.225998
O O1 0.500000 0.296197 0.500000
O O2 0.350002 0.350002 0.410637
O O3 0.374654 0.156528 0.446538
O O4 0.499328 0.251126 0.348683
O O5 0.321071 0.678930 0.022767
O O6 0.360317 0.811718 0.909244
O O7 0.500000 0.758554 0.000000
O O8 0.841784 0.841784 0.689642
O O9 0.650064 0.834110 0.733396
O O10 0.745619 0.007264 0.694706
O O11 0.866708 0.866708 0.224867
#
# Coordination Sequence:
#
# PCOD8311657 Si02
#       4
#    16  16  16  16
#     4  11  22  40  66  96 129 166 214 275 335 392
#     4  10  23  43  65  93 130 171 217 270 323 390
#     4  10  23  43  63  91 130 166 210 265 323 393
#     4  11  24  43  65  95 133 172 217 273 333 399
#
# _framework density 21.680197
#
# number of rings (size 3 to 8) (size 9 to 14) (size 15 to 20)
#    0.000    1.500    2.500    1.500    3.500    5.500 
#    0.000    2.500    0.000    0.000    0.000    0.000 
#    0.000    0.000    0.000    0.000    0.000    0.000 
#
# Total GULP energy -396686.649901 kJ/mol
# GULP energy per Si atom -12396.457809 kJ/mol
# Density = 2.163085 g / cm^3
# Si number density = 21.680197 Si / 1000 Ang^3
#
#
#
# Elastic Constant Matrix: (Units=GPa)
#
#
# Indices 1 2 3 4 5 6 
#
# 1 125.3020 48.2565 23.7777 0.0000 0.0000 0.0000
# 2 48.2565 125.3029 23.7775 0.0000 0.0000 0.0000
# 3 23.7777 23.7775 39.2911 0.0000 0.0000 0.0000
# 4 0.0000 0.0000 0.0000 34.9517 0.0000 0.0000
# 5 0.0000 0.0000 0.0000 0.0000 34.9517 0.0000
# 6 0.0000 0.0000 0.0000 0.0000 0.0000 23.5920
#
#
#
# Elastic Compliance Matrix: (Units=1/GPa)
#
#
# Indices 1 2 3 4 5 6 
#
# 1 0.009943 -0.003036 -0.004180 0.000000 0.000000 0.000000
# 2 -0.003036 0.009943 -0.004180 0.000000 0.000000 0.000000
# 3 -0.004180 -0.004180 0.030510 0.000000 0.000000 0.000000
# 4 0.000000 0.000000 0.000000 0.028611 0.000000 0.000000
# 5 0.000000 0.000000 0.000000 0.000000 0.028611 0.000000
# 6 0.000000 0.000000 0.000000 0.000000 0.000000 0.042387
#
#
# Mechanical properties :
#
#
# Convention : Reuss Voigt Hill
#
# Bulk Modulus (GPa) = 36.22586 53.50217 44.86402
# Shear Modulus (GPa) = 27.47270 31.63802 29.55536
#
# Velocity S-wave (km/s) = 3.56361 3.82423 3.69622
# Velocity P-wave (km/s) = 5.80326 6.65065 6.24135
#
# Compressibility (1/GPa) = 0.02760459
#
# Stress axis : x y z
#
# Youngs Moduli (GPa) = 100.57130 100.57236 32.77606
#
# Poissons Ratio (x) = 0.30535 0.13700
# Poissons Ratio (y) = 0.30535 0.13700
# Poissons Ratio (z) = 0.42038 0.42037
#
# Static dielectric constant tensor:
#      x y z
#    x 3.891070 0.000000 0.000000 
#    y 0.000000 3.891060 0.000000 
#    z 0.000000 0.000000 4.116630 
# 
# 
# High freq. dielectric constant tensor:
#      x y z
#    x 1.852060 0.000000 0.000000 
#    y 0.000000 1.852050 0.000000 
#    z 0.000000 0.000000 1.856880 
# 
# From -- ./inp_files/6030.got.cif
#   From: 2010.03.12/outbox.cif.g09.slc.cpg/sg121_4_cif.got.tgz:6030.got - 2010.04.06 16:06:48.
