data_PCOD8311336
_publ_section_title
;
Structure prediction by ZEFSAII (Michael W. Deem and Ramdas Pophale) SiO2 
 PCOD8311336
Probable space group: I -4 C 2
;
_chemical_formula_sum "Si O2"
_cell_formula_units_Z 48
_cell_length_a 14.067042
_cell_length_b 14.067042
_cell_length_c 9.963994
_cell_angle_alpha 90.000000
_cell_angle_beta 90.000000
_cell_angle_gamma 90.000000
_cell_volume 1971.691779
_symmetry_space_group_name_H-M "I -4 C 2"
_symmetry_group_IT_number 120
_symmetry_cell_setting 'tetragonal'
loop_
_space_group_symop_operation_xyz
x,y,z
y,-x,-z
-x,-y,z
-y,x,-z
y,x,1/2-z
-y,-x,1/2-z
-x,y,1/2+z
x,-y,1/2+z
1/2+x,1/2+y,1/2+z
1/2+y,1/2-x,1/2-z
1/2-x,1/2-y,1/2+z
1/2-y,1/2+x,1/2-z
1/2+y,1/2+x,-z
1/2-y,1/2-x,-z
1/2-x,1/2+y,z
1/2+x,1/2-y,z
loop_
_atom_site_type_symbol
_atom_site_label
_atom_site_fract_x
_atom_site_fract_y
_atom_site_fract_z
Si Si1 0.266119 0.233882 0.500000
Si Si2 0.446077 0.701557 0.555817
Si Si3 0.000000 0.000000 0.000000
Si Si4 0.000000 0.500000 0.250000
Si Si5 0.433734 0.195289 0.336399
O O1 0.286466 0.345156 0.517339
O O2 0.320604 0.193127 0.367373
O O3 0.469183 0.591160 0.589810
O O4 0.523184 0.740232 0.452746
O O5 0.450855 0.760778 0.691527
O O6 0.090242 0.478381 0.155519
#
# Coordination Sequence:
#
# PCOD8311336 Si02
#       5
#     8  16   4   4  16
#     4  12  26  49  74 115 162 208 266 324 418 498
#     4  12  28  51  84 117 161 210 273 343 417 495
#     4  12  28  54  84 122 168 210 284 342 432 490
#     4  12  28  50  80 110 160 202 276 330 408 482
#     4  12  28  51  80 117 155 216 268 344 410 498
#
# _framework density 24.344577000000001
#
# number of rings (size 3 to 8) (size 9 to 14) (size 15 to 20)
#    0.000    0.000    3.333    5.000    0.000   10.000 
#    0.000    0.000    0.000    0.000    0.000    0.000 
#    0.000    0.000    0.000    0.000    0.000    0.000 
#
# Total GULP energy -297648.821493 kJ/mol
# GULP energy per Si atom -12402.034229 kJ/mol
# Density = 2.428917 g / cm^3
# Si number density = 24.344577 Si / 1000 Ang^3
#
#
#
# Elastic Constant Matrix: (Units=GPa)
#
#
# Indices 1 2 3 4 5 6 
#
# 1 166.1130 57.8133 58.4138 0.0000 0.0000 0.0000
# 2 57.8133 166.1144 58.4143 0.0000 0.0000 0.0000
# 3 58.4138 58.4143 139.9581 0.0000 0.0000 0.0000
# 4 0.0000 0.0000 0.0000 25.6926 0.0000 0.0000
# 5 0.0000 0.0000 0.0000 0.0000 25.6933 0.0000
# 6 0.0000 0.0000 0.0000 0.0000 0.0000 43.8750
#
#
#
# Elastic Compliance Matrix: (Units=1/GPa)
#
#
# Indices 1 2 3 4 5 6 
#
# 1 0.007471 -0.001762 -0.002383 0.000000 0.000000 0.000000
# 2 -0.001762 0.007471 -0.002383 0.000000 0.000000 0.000000
# 3 -0.002383 -0.002383 0.009134 0.000000 0.000000 0.000000
# 4 0.000000 0.000000 0.000000 0.038922 0.000000 0.000000
# 5 0.000000 0.000000 0.000000 0.000000 0.038921 0.000000
# 6 0.000000 0.000000 0.000000 0.000000 0.000000 0.022792
#
#
# Mechanical properties :
#
#
# Convention : Reuss Voigt Hill
#
# Bulk Modulus (GPa) = 90.73714 91.27426 91.00570
# Shear Modulus (GPa) = 35.35073 38.88846 37.11959
#
# Velocity S-wave (km/s) = 3.81478 4.00111 3.90905
# Velocity P-wave (km/s) = 7.53368 7.67588 7.60511
#
# Compressibility (1/GPa) = 0.01102085
#
# Stress axis : x y z
#
# Youngs Moduli (GPa) = 133.84656 133.84753 109.48206
#
# Poissons Ratio (x) = 0.23589 0.26086
# Poissons Ratio (y) = 0.23589 0.26086
# Poissons Ratio (z) = 0.31891 0.31892
#
# Static dielectric constant tensor:
#      x y z
#    x 4.793570 0.000000 0.000000 
#    y 0.000000 4.793520 0.000000 
#    z 0.000000 0.000000 4.138750 
# 
# 
# High freq. dielectric constant tensor:
#      x y z
#    x 1.993540 0.000000 0.000000 
#    y 0.000000 1.993540 0.000000 
#    z 0.000000 0.000000 1.938490 
# 
# From -- ./inp_files/2164.got.cif
#   From: 2010.03.12/outbox.cif.g09.slc.cpg/sg120_2_cif.got.tgz:2164.got - 2010.04.06 16:00:44.
