data_PCOD8311674
_publ_section_title
;
Structure prediction by ZEFSAII (Michael W. Deem and Ramdas Pophale) SiO2 
 PCOD8311674
Probable space group: I -4 2 M
;
_chemical_formula_sum "Si O2"
_cell_formula_units_Z 96
_cell_length_a 19.583328
_cell_length_b 19.583328
_cell_length_c 13.053658
_cell_angle_alpha 90.000000
_cell_angle_beta 90.000000
_cell_angle_gamma 90.000000
_cell_volume 5006.165767
_symmetry_space_group_name_H-M "I -4 2 M"
_symmetry_group_IT_number 121
_symmetry_cell_setting 'tetragonal'
loop_
_space_group_symop_operation_xyz
x,y,z
y,-x,-z
-x,-y,z
-y,x,-z
x,-y,-z
-x,y,-z
-y,-x,z
y,x,z
1/2+x,1/2+y,1/2+z
1/2+y,1/2-x,1/2-z
1/2-x,1/2-y,1/2+z
1/2-y,1/2+x,1/2-z
1/2+x,1/2-y,1/2-z
1/2-x,1/2+y,1/2-z
1/2-y,1/2-x,1/2+z
1/2+y,1/2+x,1/2+z
loop_
_atom_site_type_symbol
_atom_site_label
_atom_site_fract_x
_atom_site_fract_y
_atom_site_fract_z
Si Si1 0.348341 0.943146 0.919413
Si Si2 0.438230 0.183729 0.073119
Si Si3 0.744554 0.854378 0.397864
Si Si4 0.145789 0.962825 0.110032
Si Si5 0.248000 0.519833 0.247886
Si Si6 0.855647 0.750594 0.953719
O O1 0.407129 0.889056 0.889742
O O2 0.317358 0.983276 0.823135
O O3 0.284067 0.900839 0.960289
O O4 0.375426 0.000000 0.000000
O O5 0.460405 0.232062 0.166616
O O6 0.500000 0.162343 0.000000
O O7 0.386075 0.230120 0.009326
O O8 0.816543 0.816543 0.404191
O O9 0.748711 0.907250 0.306204
O O10 0.681001 0.803045 0.376827
O O11 0.071502 0.928499 0.135913
O O12 0.202098 0.903878 0.113490
O O13 0.176736 0.012381 0.198122
O O14 0.140200 0.000000 0.000000
O O15 0.797229 0.797229 0.008092
#
# Coordination Sequence:
#
# PCOD8311674 Si02
#       6
#    16  16  16  16  16  16
#     4  11  20  35  57  77 114 151 186 227 284 346
#     4   9  22  38  54  79 114 149 190 232 281 341
#     4   9  20  37  58  81 110 144 183 236 289 339
#     4  11  22  38  57  84 121 155 191 237 294 355
#     4  11  21  35  57  89 111 147 190 241 289 336
#     4   9  17  34  56  80 110 141 176 227 288 339
#
# _framework density 19.176352999999999
#
# number of rings (size 3 to 8) (size 9 to 14) (size 15 to 20)
#    0.000    2.000    3.333    0.000    2.333    3.833 
#    0.000    0.000    0.000    0.000    0.000    0.000 
#    0.000    0.000    0.000    0.000    0.000    0.000 
#
# Total GULP energy -594822.737798 kJ/mol
# GULP energy per Si atom -12392.140371 kJ/mol
# Density = 1.913271 g / cm^3
# Si number density = 19.176353 Si / 1000 Ang^3
#
#
#
# Elastic Constant Matrix: (Units=GPa)
#
#
# Indices 1 2 3 4 5 6 
#
# 1 78.8966 38.1348 30.2050 0.0000 0.0000 0.0000
# 2 38.1348 78.8957 30.2051 0.0000 0.0000 0.0000
# 3 30.2050 30.2051 82.4782 0.0000 0.0000 0.0000
# 4 0.0000 0.0000 0.0000 22.6293 0.0000 0.0000
# 5 0.0000 0.0000 0.0000 0.0000 22.6292 0.0000
# 6 0.0000 0.0000 0.0000 0.0000 0.0000 39.9536
#
#
#
# Elastic Compliance Matrix: (Units=1/GPa)
#
#
# Indices 1 2 3 4 5 6 
#
# 1 0.017535 -0.006998 -0.003859 0.000000 0.000000 0.000000
# 2 -0.006998 0.017535 -0.003859 0.000000 0.000000 0.000000
# 3 -0.003859 -0.003859 0.014951 0.000000 0.000000 0.000000
# 4 0.000000 0.000000 0.000000 0.044191 0.000000 0.000000
# 5 0.000000 0.000000 0.000000 0.000000 0.044191 0.000000
# 6 0.000000 0.000000 0.000000 0.000000 0.000000 0.025029
#
#
# Mechanical properties :
#
#
# Convention : Reuss Voigt Hill
#
# Bulk Modulus (GPa) = 48.56954 48.59561 48.58258
# Shear Modulus (GPa) = 25.03445 26.49079 25.76262
#
# Velocity S-wave (km/s) = 3.61707 3.72079 3.66930
# Velocity P-wave (km/s) = 6.54424 6.62235 6.58341
#
# Compressibility (1/GPa) = 0.02058903
#
# Stress axis : x y z
#
# Youngs Moduli (GPa) = 57.02992 57.02908 66.88666
#
# Poissons Ratio (x) = 0.39910 0.25809
# Poissons Ratio (y) = 0.39911 0.25810
# Poissons Ratio (z) = 0.22006 0.22006
#
# Static dielectric constant tensor:
#      x y z
#    x 3.737170 0.000000 0.000000 
#    y 0.000000 3.737170 0.000000 
#    z 0.000000 0.000000 3.318810 
# 
# 
# High freq. dielectric constant tensor:
#      x y z
#    x 1.749730 0.000000 0.000000 
#    y 0.000000 1.749730 0.000000 
#    z 0.000000 0.000000 1.722800 
# 
# From -- ./inp_files/3335.got.cif
#   From: 2010.03.12/outbox.cif.g09.slc.cpg/sg121_2_cif.got.tgz:3335.got - 2010.04.06 16:06:48.
