data_PCOD8311502
_publ_section_title
;
Structure prediction by ZEFSAII (Michael W. Deem and Ramdas Pophale) SiO2 
 PCOD8311502
Probable space group: I -4 2 M
;
_chemical_formula_sum "Si O2"
_cell_formula_units_Z 112
_cell_length_a 14.265558
_cell_length_b 14.265558
_cell_length_c 31.726929
_cell_angle_alpha 90.000000
_cell_angle_beta 90.000000
_cell_angle_gamma 90.000000
_cell_volume 6456.625015
_symmetry_space_group_name_H-M "I -4 2 M"
_symmetry_group_IT_number 121
_symmetry_cell_setting 'tetragonal'
loop_
_space_group_symop_operation_xyz
x,y,z
y,-x,-z
-x,-y,z
-y,x,-z
x,-y,-z
-x,y,-z
-y,-x,z
y,x,z
1/2+x,1/2+y,1/2+z
1/2+y,1/2-x,1/2-z
1/2-x,1/2-y,1/2+z
1/2-y,1/2+x,1/2-z
1/2+x,1/2-y,1/2-z
1/2-x,1/2+y,1/2-z
1/2-y,1/2-x,1/2+z
1/2+y,1/2+x,1/2+z
loop_
_atom_site_type_symbol
_atom_site_label
_atom_site_fract_x
_atom_site_fract_y
_atom_site_fract_z
Si Si1 0.857913 0.299407 0.225742
Si Si2 0.226164 0.378629 0.612042
Si Si3 0.180399 0.677366 0.594626
Si Si4 0.120895 0.723505 0.318306
Si Si5 0.505643 0.891575 0.450612
Si Si6 0.448420 0.698809 0.656173
Si Si7 0.416313 0.264176 0.831209
O O1 0.774402 0.225599 0.225285
O O2 0.887305 0.328587 0.273056
O O3 0.946292 0.248990 0.202203
O O4 0.820269 0.390395 0.200935
O O5 0.289078 0.289078 0.596933
O O6 0.144148 0.350313 0.644730
O O7 0.173385 0.428255 0.572794
O O8 0.298228 0.448353 0.636045
O O9 0.247758 0.752243 0.571204
O O10 0.137109 0.611169 0.559784
O O11 0.240113 0.620431 0.628137
O O12 0.101403 0.732732 0.620690
O O13 0.204088 0.795913 0.315810
O O14 0.026749 0.781351 0.327676
O O15 0.500000 0.875601 0.500000
O O16 0.500000 0.000000 0.437342
O O17 0.408371 0.591629 0.658211
O O18 0.359739 0.359739 0.820761
#
# Coordination Sequence:
#
# PCOD8311502 Si02
#       7
#    16  16  16  16  16  16  16
#     4   8  16  30  46  65  91 126 167 208 248 288
#     4  10  21  34  50  74 107 137 160 205 267 310
#     4   8  15  30  51  71  90 121 159 199 243 287
#     4  10  20  31  45  68  99 131 162 206 261 305
#     4  10  20  34  54  77 100 129 167 209 249 302
#     4   8  15  30  50  68  91 128 170 202 233 288
#     4   9  17  31  51  67  89 127 169 209 246 295
#
# _framework density 17.346525
#
# number of rings (size 3 to 8) (size 9 to 14) (size 15 to 20)
#    0.000    3.000    0.000    2.571    2.000    1.143 
#    0.000    0.000    0.000    2.571    0.000    2.000 
#    0.000    0.000    0.000   26.571    0.000    0.000 
#
# Total GULP energy -693911.237175 kJ/mol
# GULP energy per Si atom -12391.272092 kJ/mol
# Density = 1.730704 g / cm^3
# Si number density = 17.346525 Si / 1000 Ang^3
#
#
#
# Elastic Constant Matrix: (Units=GPa)
#
#
# Indices 1 2 3 4 5 6 
#
# 1 70.0234 21.2040 38.0330 0.0000 0.0000 0.0000
# 2 21.2040 70.0263 38.0335 0.0000 0.0000 0.0000
# 3 38.0330 38.0335 90.5956 0.0000 0.0000 0.0000
# 4 0.0000 0.0000 0.0000 21.1399 0.0000 0.0000
# 5 0.0000 0.0000 0.0000 0.0000 21.1398 0.0000
# 6 0.0000 0.0000 0.0000 0.0000 0.0000 14.0553
#
#
#
# Elastic Compliance Matrix: (Units=1/GPa)
#
#
# Indices 1 2 3 4 5 6 
#
# 1 0.018674 -0.001809 -0.007080 0.000000 0.000000 0.000000
# 2 -0.001809 0.018673 -0.007080 0.000000 0.000000 0.000000
# 3 -0.007080 -0.007080 0.016983 0.000000 0.000000 0.000000
# 4 0.000000 0.000000 0.000000 0.047304 0.000000 0.000000
# 5 0.000000 0.000000 0.000000 0.000000 0.047304 0.000000
# 6 0.000000 0.000000 0.000000 0.000000 0.000000 0.071148
#
#
# Mechanical properties :
#
#
# Convention : Reuss Voigt Hill
#
# Bulk Modulus (GPa) = 44.65879 47.24291 45.95085
# Shear Modulus (GPa) = 19.26865 20.15864 19.71364
#
# Velocity S-wave (km/s) = 3.33649 3.41268 3.37480
# Velocity P-wave (km/s) = 6.37526 6.54388 6.46012
#
# Compressibility (1/GPa) = 0.02239201
#
# Stress axis : x y z
#
# Youngs Moduli (GPa) = 53.54934 53.55187 58.88351
#
# Poissons Ratio (x) = 0.09688 0.41691
# Poissons Ratio (y) = 0.09688 0.41689
# Poissons Ratio (z) = 0.37914 0.37914
#
# Static dielectric constant tensor:
#      x y z
#    x 3.255740 0.000000 0.000000 
#    y 0.000000 3.255740 0.000000 
#    z 0.000000 0.000000 3.246440 
# 
# 
# High freq. dielectric constant tensor:
#      x y z
#    x 1.659680 0.000000 0.000000 
#    y 0.000000 1.659680 0.000000 
#    z 0.000000 0.000000 1.655260 
# 
# From -- ./inp_files/8392.got.cif
#   From: 2010.03.12/outbox.cif.g09.slc.cpg/sg121_5_cif.got.tgz:8392.got - 2010.04.06 16:06:48.
