data_PCOD8311501
_publ_section_title
;
Structure prediction by ZEFSAII (Michael W. Deem and Ramdas Pophale) SiO2 
 PCOD8311501
Probable space group: I -4 2 M
;
_chemical_formula_sum "Si O2"
_cell_formula_units_Z 112
_cell_length_a 23.321036
_cell_length_b 23.321036
_cell_length_c 12.330943
_cell_angle_alpha 90.000000
_cell_angle_beta 90.000000
_cell_angle_gamma 90.000000
_cell_volume 6706.438849
_symmetry_space_group_name_H-M "I -4 2 M"
_symmetry_group_IT_number 121
_symmetry_cell_setting 'tetragonal'
loop_
_space_group_symop_operation_xyz
x,y,z
y,-x,-z
-x,-y,z
-y,x,-z
x,-y,-z
-x,y,-z
-y,-x,z
y,x,z
1/2+x,1/2+y,1/2+z
1/2+y,1/2-x,1/2-z
1/2-x,1/2-y,1/2+z
1/2-y,1/2+x,1/2-z
1/2+x,1/2-y,1/2-z
1/2-x,1/2+y,1/2-z
1/2-y,1/2-x,1/2+z
1/2+y,1/2+x,1/2+z
loop_
_atom_site_type_symbol
_atom_site_label
_atom_site_fract_x
_atom_site_fract_y
_atom_site_fract_z
Si Si1 0.502584 0.591845 0.827060
Si Si2 0.178989 0.274605 0.955204
Si Si3 0.862401 0.234482 0.605624
Si Si4 0.797598 0.891243 0.803531
Si Si5 0.658723 0.509252 0.617294
Si Si6 0.420976 0.327498 0.071172
Si Si7 0.623732 0.719838 0.649876
O O1 0.447151 0.552850 0.808694
O O2 0.555219 0.555219 0.880341
O O3 0.523033 0.611732 0.708769
O O4 0.485044 0.646329 0.902682
O O5 0.231263 0.231263 0.952954
O O6 0.146831 0.270055 0.070842
O O7 0.204831 0.338189 0.938897
O O8 0.136964 0.259368 0.854557
O O9 0.813895 0.186106 0.598400
O O10 0.917478 0.214867 0.532831
O O11 0.882237 0.243943 0.728661
O O12 0.853392 0.853392 0.834358
O O13 0.791813 0.896525 0.673667
O O14 0.804802 0.953630 0.853259
O O15 0.628768 0.500000 0.500000
O O16 0.702352 0.561805 0.606691
O O17 0.381573 0.381573 0.045556
O O18 0.665141 0.665141 0.645180
#
# Coordination Sequence:
#
# PCOD8311501 Si02
#       7
#    16  16  16  16  16  16  16
#     4   9  18  30  44  63  85 119 170 215 248 286
#     4   9  17  28  44  65  88 113 146 191 245 300
#     4   9  18  30  46  66  89 115 145 199 256 297
#     4   9  17  29  44  63  87 121 161 196 236 294
#     4  11  19  29  44  62  90 122 153 202 254 288
#     4   8  15  28  45  62  84 113 150 196 249 296
#     4  10  20  31  44  68  92 114 152 195 242 298
#
# _framework density 16.700368999999998
#
# number of rings (size 3 to 8) (size 9 to 14) (size 15 to 20)
#    0.000    2.714    1.429    1.714    2.000    1.714 
#    0.000    3.571    0.000    5.143    0.000    8.000 
#    0.000    0.000    0.000    0.000    0.000    0.714 
#
# Total GULP energy -693995.813415 kJ/mol
# GULP energy per Si atom -12392.782382 kJ/mol
# Density = 1.666236 g / cm^3
# Si number density = 16.700369 Si / 1000 Ang^3
#
#
#
# Elastic Constant Matrix: (Units=GPa)
#
#
# Indices 1 2 3 4 5 6 
#
# 1 49.3208 36.7473 32.5021 0.0000 0.0000 0.0000
# 2 36.7473 49.3207 32.5023 0.0000 0.0000 0.0000
# 3 32.5021 32.5023 117.7700 0.0000 0.0000 0.0000
# 4 0.0000 0.0000 0.0000 18.0594 0.0000 0.0000
# 5 0.0000 0.0000 0.0000 0.0000 18.0594 0.0000
# 6 0.0000 0.0000 0.0000 0.0000 0.0000 31.7775
#
#
#
# Elastic Compliance Matrix: (Units=1/GPa)
#
#
# Indices 1 2 3 4 5 6 
#
# 1 0.047105 -0.032427 -0.004051 0.000000 0.000000 0.000000
# 2 -0.032427 0.047105 -0.004051 0.000000 0.000000 0.000000
# 3 -0.004051 -0.004051 0.010727 0.000000 0.000000 0.000000
# 4 0.000000 0.000000 0.000000 0.055373 0.000000 0.000000
# 5 0.000000 0.000000 0.000000 0.000000 0.055373 0.000000
# 6 0.000000 0.000000 0.000000 0.000000 0.000000 0.031469
#
#
# Mechanical properties :
#
#
# Convention : Reuss Voigt Hill
#
# Bulk Modulus (GPa) = 41.87617 46.65718 44.26668
# Shear Modulus (GPa) = 14.87342 21.22323 18.04833
#
# Velocity S-wave (km/s) = 2.98754 3.56873 3.29099
# Velocity P-wave (km/s) = 6.08522 6.70668 6.40350
#
# Compressibility (1/GPa) = 0.02387993
#
# Stress axis : x y z
#
# Youngs Moduli (GPa) = 21.22907 21.22897 93.22211
#
# Poissons Ratio (x) = 0.68839 0.37763
# Poissons Ratio (y) = 0.68840 0.37764
# Poissons Ratio (z) = 0.08600 0.08600
#
# Static dielectric constant tensor:
#      x y z
#    x 2.994330 0.000000 0.000000 
#    y 0.000000 2.994330 0.000000 
#    z 0.000000 0.000000 3.470340 
# 
# 
# High freq. dielectric constant tensor:
#      x y z
#    x 1.600880 0.000000 0.000000 
#    y 0.000000 1.600880 0.000000 
#    z 0.000000 0.000000 1.669710 
# 
# From -- ./inp_files/3476.got.cif
#   From: 2010.03.12/outbox.cif.g09.slc.cpg/sg121_2_cif.got.tgz:3476.got - 2010.04.06 16:06:48.
