data_PCOD8311371
_publ_section_title
;
Structure prediction by ZEFSAII (Michael W. Deem and Ramdas Pophale) SiO2 
 PCOD8311371
Probable space group: I -4 2 M
;
_chemical_formula_sum "Si O2"
_cell_formula_units_Z 96
_cell_length_a 13.607187
_cell_length_b 13.607187
_cell_length_c 31.826187
_cell_angle_alpha 90.000000
_cell_angle_beta 90.000000
_cell_angle_gamma 90.000000
_cell_volume 5892.794778
_symmetry_space_group_name_H-M "I -4 2 M"
_symmetry_group_IT_number 121
_symmetry_cell_setting 'tetragonal'
loop_
_space_group_symop_operation_xyz
x,y,z
y,-x,-z
-x,-y,z
-y,x,-z
x,-y,-z
-x,y,-z
-y,-x,z
y,x,z
1/2+x,1/2+y,1/2+z
1/2+y,1/2-x,1/2-z
1/2-x,1/2-y,1/2+z
1/2-y,1/2+x,1/2-z
1/2+x,1/2-y,1/2-z
1/2-x,1/2+y,1/2-z
1/2-y,1/2-x,1/2+z
1/2+y,1/2+x,1/2+z
loop_
_atom_site_type_symbol
_atom_site_label
_atom_site_fract_x
_atom_site_fract_y
_atom_site_fract_z
Si Si1 0.842697 0.003870 0.203620
Si Si2 0.215521 0.499189 0.373143
Si Si3 0.197202 0.354110 0.164512
Si Si4 0.049531 0.601016 0.671088
Si Si5 0.628684 0.785368 0.752870
Si Si6 0.497339 0.339255 0.547256
O O1 0.907070 0.092931 0.222363
O O2 0.797968 0.038452 0.159318
O O3 0.760439 0.975983 0.238018
O O4 0.907908 0.907908 0.194281
O O5 0.197231 0.613715 0.363324
O O6 0.119636 0.429701 0.367783
O O7 0.249146 0.489303 0.421038
O O8 0.303604 0.303604 0.153088
O O9 0.186064 0.471914 0.156380
O O10 0.177375 0.340366 0.213729
O O11 0.114594 0.638445 0.709708
O O12 0.000000 0.500000 0.687266
O O13 0.699650 0.699650 0.769813
O O14 0.500000 0.296523 0.500000
O O15 0.585401 0.414600 0.553758
O O16 0.394558 0.394558 0.555936
#
# Coordination Sequence:
#
# PCOD8311371 Si02
#       6
#    16  16  16  16  16  16
#     4   9  17  28  42  61  87 121 157 195 238 279
#     4  10  18  29  45  68  94 120 155 198 239 287
#     4   9  19  32  46  61  83 121 163 202 245 292
#     4  10  22  31  45  65  91 121 159 203 247 285
#     4   9  19  31  41  60  87 116 157 202 242 282
#     4   9  17  29  48  75 104 132 158 186 232 297
#
# _framework density 16.291080999999998
#
# number of rings (size 3 to 8) (size 9 to 14) (size 15 to 20)
#    0.000    2.667    0.000    3.500    7.000    3.333 
#    0.000    0.000    0.000    4.500    0.000    0.000 
#    0.000    0.000    0.000    0.000    0.000   20.833 
#
# Total GULP energy -594912.886503 kJ/mol
# GULP energy per Si atom -12394.018469 kJ/mol
# Density = 1.625400 g / cm^3
# Si number density = 16.291081 Si / 1000 Ang^3
#
#
#
# Elastic Constant Matrix: (Units=GPa)
#
#
# Indices 1 2 3 4 5 6 
#
# 1 74.5050 33.8494 41.9287 0.0000 0.0000 0.0000
# 2 33.8494 74.5042 41.9283 0.0000 0.0000 0.0000
# 3 41.9287 41.9283 98.4291 0.0000 0.0000 0.0000
# 4 0.0000 0.0000 0.0000 19.2757 0.0000 0.0000
# 5 0.0000 0.0000 0.0000 0.0000 19.2758 0.0000
# 6 0.0000 0.0000 0.0000 0.0000 0.0000 26.7658
#
#
#
# Elastic Compliance Matrix: (Units=1/GPa)
#
#
# Indices 1 2 3 4 5 6 
#
# 1 0.019182 -0.005415 -0.005865 0.000000 0.000000 0.000000
# 2 -0.005415 0.019183 -0.005865 0.000000 0.000000 0.000000
# 3 -0.005865 -0.005865 0.015156 0.000000 0.000000 0.000000
# 4 0.000000 0.000000 0.000000 0.051879 0.000000 0.000000
# 5 0.000000 0.000000 0.000000 0.000000 0.051879 0.000000
# 6 0.000000 0.000000 0.000000 0.000000 0.000000 0.037361
#
#
# Mechanical properties :
#
#
# Convention : Reuss Voigt Hill
#
# Bulk Modulus (GPa) = 51.99478 53.65013 52.82245
# Shear Modulus (GPa) = 21.24595 21.71224 21.47909
#
# Velocity S-wave (km/s) = 3.61521 3.65467 3.63500
# Velocity P-wave (km/s) = 7.02935 7.12829 7.07899
#
# Compressibility (1/GPa) = 0.01923270
#
# Stress axis : x y z
#
# Youngs Moduli (GPa) = 52.13106 52.13065 65.97982
#
# Poissons Ratio (x) = 0.28227 0.38696
# Poissons Ratio (y) = 0.28227 0.38696
# Poissons Ratio (z) = 0.30574 0.30574
#
# Static dielectric constant tensor:
#      x y z
#    x 3.145770 0.000000 0.000000 
#    y 0.000000 3.145770 0.000000 
#    z 0.000000 0.000000 2.742940 
# 
# 
# High freq. dielectric constant tensor:
#      x y z
#    x 1.621950 0.000000 0.000000 
#    y 0.000000 1.621950 0.000000 
#    z 0.000000 0.000000 1.580520 
# 
# From -- ./inp_files/8326.got.cif
#   From: 2010.03.12/outbox.cif.g09.slc.cpg/sg121_5_cif.got.tgz:8326.got - 2010.04.06 16:06:48.
