data_PCOD8311190
_publ_section_title
;
Structure prediction by ZEFSAII (Michael W. Deem and Ramdas Pophale) SiO2 
 PCOD8311190
Probable space group: I -4 C 2
;
_chemical_formula_sum "Si O2"
_cell_formula_units_Z 96
_cell_length_a 23.259105
_cell_length_b 23.259105
_cell_length_c 8.762221
_cell_angle_alpha 90.000000
_cell_angle_beta 90.000000
_cell_angle_gamma 90.000000
_cell_volume 4740.238587
_symmetry_space_group_name_H-M "I -4 C 2"
_symmetry_group_IT_number 120
_symmetry_cell_setting 'tetragonal'
loop_
_space_group_symop_operation_xyz
x,y,z
y,-x,-z
-x,-y,z
-y,x,-z
y,x,1/2-z
-y,-x,1/2-z
-x,y,1/2+z
x,-y,1/2+z
1/2+x,1/2+y,1/2+z
1/2+y,1/2-x,1/2-z
1/2-x,1/2-y,1/2+z
1/2-y,1/2+x,1/2-z
1/2+y,1/2+x,-z
1/2-y,1/2-x,-z
1/2-x,1/2+y,z
1/2+x,1/2-y,z
loop_
_atom_site_type_symbol
_atom_site_label
_atom_site_fract_x
_atom_site_fract_y
_atom_site_fract_z
Si Si1 0.622558 0.936938 0.117837
Si Si2 0.872023 0.432243 0.616275
Si Si3 0.279557 0.860871 0.583517
Si Si4 0.441419 0.562345 0.569956
Si Si5 0.360726 0.224000 0.553851
Si Si6 0.354232 0.351109 0.929881
O O1 0.610237 0.889706 0.248150
O O2 0.681620 0.916147 0.035053
O O3 0.631401 0.002106 0.174017
O O4 0.569076 0.930925 0.000000
O O5 0.925611 0.425611 0.500000
O O6 0.813430 0.410592 0.532317
O O7 0.304200 0.804200 0.500000
O O8 0.281717 0.859266 0.765356
O O9 0.214595 0.868423 0.527896
O O10 0.503581 0.580186 0.506584
O O11 0.445805 0.554196 0.750000
O O12 0.397429 0.611998 0.529134
O O13 0.298583 0.201417 0.500000
O O14 0.368115 0.290634 0.511908
O O15 0.362526 0.362526 0.750000
#
# Coordination Sequence:
#
# PCOD8311190 Si02
#       6
#    16  16  16  16  16  16
#     4  11  23  37  59  86 120 164 209 269 315 376
#     4  11  22  40  58  85 120 164 216 257 327 370
#     4  10  21  39  60  90 124 161 208 260 316 371
#     4  11  23  43  68  96 129 166 204 254 314 376
#     4  10  20  39  61  87 126 164 202 258 320 374
#     4  10  22  39  65  97 126 164 210 255 311 385
#
# _framework density 20.252147000000001
#
# number of rings (size 3 to 8) (size 9 to 14) (size 15 to 20)
#    0.000    1.500    3.333    3.500    0.000    4.667 
#    0.000    0.000    0.000    0.000    0.000    0.000 
#    0.000    0.000    0.000    0.000    0.000    0.000 
#
# Total GULP energy -594754.551327 kJ/mol
# GULP energy per Si atom -12390.719819 kJ/mol
# Density = 2.020605 g / cm^3
# Si number density = 20.252147 Si / 1000 Ang^3
#
#
#
# Elastic Constant Matrix: (Units=GPa)
#
#
# Indices 1 2 3 4 5 6 
#
# 1 129.9335 90.9044 47.5182 0.0000 0.0000 0.0000
# 2 90.9044 129.9321 47.5182 0.0000 0.0000 0.0000
# 3 47.5182 47.5182 89.5333 0.0000 0.0000 0.0000
# 4 0.0000 0.0000 0.0000 29.4968 0.0000 0.0000
# 5 0.0000 0.0000 0.0000 0.0000 29.4972 0.0000
# 6 0.0000 0.0000 0.0000 0.0000 0.0000 28.1121
#
#
#
# Elastic Compliance Matrix: (Units=1/GPa)
#
#
# Indices 1 2 3 4 5 6 
#
# 1 0.015745 -0.009877 -0.003115 0.000000 0.000000 0.000000
# 2 -0.009877 0.015746 -0.003115 0.000000 0.000000 0.000000
# 3 -0.003115 -0.003115 0.014475 0.000000 0.000000 0.000000
# 4 0.000000 0.000000 0.000000 0.033902 0.000000 0.000000
# 5 0.000000 0.000000 0.000000 0.000000 0.033902 0.000000
# 6 0.000000 0.000000 0.000000 0.000000 0.000000 0.035572
#
#
# Mechanical properties :
#
#
# Convention : Reuss Voigt Hill
#
# Bulk Modulus (GPa) = 72.70767 80.14227 76.42497
# Shear Modulus (GPa) = 26.86173 28.31842 27.59008
#
# Velocity S-wave (km/s) = 3.64588 3.74343 3.69498
# Velocity P-wave (km/s) = 7.32819 7.63823 7.48482
#
# Compressibility (1/GPa) = 0.01375371
#
# Stress axis : x y z
#
# Youngs Moduli (GPa) = 63.51071 63.50987 69.08400
#
# Poissons Ratio (x) = 0.62728 0.21517
# Poissons Ratio (y) = 0.62729 0.21518
# Poissons Ratio (z) = 0.19781 0.19781
#
# Static dielectric constant tensor:
#      x y z
#    x 3.701860 0.000000 0.000000 
#    y 0.000000 3.701870 0.000000 
#    z 0.000000 0.000000 3.829790 
# 
# 
# High freq. dielectric constant tensor:
#      x y z
#    x 1.787220 0.000000 0.000000 
#    y 0.000000 1.787220 0.000000 
#    z 0.000000 0.000000 1.798870 
# 
# From -- ./inp_files/1557.got.cif
#   From: 2010.03.12/outbox.cif.g09.slc.cpg/sg120_1_cif.got.tgz:1557.got - 2010.04.06 16:00:44.
