data_PCOD8311526
_publ_section_title
;
Structure prediction by ZEFSAII (Michael W. Deem and Ramdas Pophale) SiO2 
 PCOD8311526
Probable space group: I -4 2 M
;
_chemical_formula_sum "Si O2"
_cell_formula_units_Z 48
_cell_length_a 9.058946
_cell_length_b 9.058946
_cell_length_c 31.212332
_cell_angle_alpha 90.000000
_cell_angle_beta 90.000000
_cell_angle_gamma 90.000000
_cell_volume 2561.424502
_symmetry_space_group_name_H-M "I -4 2 M"
_symmetry_group_IT_number 121
_symmetry_cell_setting 'tetragonal'
loop_
_space_group_symop_operation_xyz
x,y,z
y,-x,-z
-x,-y,z
-y,x,-z
x,-y,-z
-x,y,-z
-y,-x,z
y,x,z
1/2+x,1/2+y,1/2+z
1/2+y,1/2-x,1/2-z
1/2-x,1/2-y,1/2+z
1/2-y,1/2+x,1/2-z
1/2+x,1/2-y,1/2-z
1/2-x,1/2+y,1/2-z
1/2-y,1/2-x,1/2+z
1/2+y,1/2+x,1/2+z
loop_
_atom_site_type_symbol
_atom_site_label
_atom_site_fract_x
_atom_site_fract_y
_atom_site_fract_z
Si Si1 0.568765 0.199033 0.271421
Si Si2 0.258600 0.500074 0.365353
Si Si3 0.500000 0.000000 0.431636
Si Si4 0.000000 0.246451 0.500000
O O1 0.639575 0.360426 0.264837
O O2 0.426821 0.187137 0.240949
O O3 0.526043 0.173878 0.320733
O O4 0.362610 0.637391 0.376708
O O5 0.350540 0.350540 0.360816
O O6 0.144296 0.481029 0.403272
O O7 0.350976 0.983959 0.458886
O O8 0.854432 0.145569 0.504153
#
# Coordination Sequence:
#
# PCOD8311526 Si02
#       4
#    16  16   8   8
#     4  10  20  34  52  75 105 140 178 219 262 307
#     4  10  21  36  54  78 107 138 176 221 261 301
#     4  11  20  36  61  80 102 140 177 208 254 319
#     4  10  22  38  56  82 112 136 164 210 264 314
#
# _framework density 18.739571999999999
#
# number of rings (size 3 to 8) (size 9 to 14) (size 15 to 20)
#    0.000    1.833    0.000    5.000    0.000    2.000 
#    0.000    1.667    0.000   12.000    0.000    0.000 
#    0.000    0.000    0.000    0.000    0.000    0.000 
#
# Total GULP energy -297625.450919 kJ/mol
# GULP energy per Si atom -12401.060455 kJ/mol
# Density = 1.869692 g / cm^3
# Si number density = 18.739572 Si / 1000 Ang^3
#
#
#
# Elastic Constant Matrix: (Units=GPa)
#
#
# Indices 1 2 3 4 5 6 
#
# 1 90.5412 32.8819 48.5516 0.0000 0.0000 0.0000
# 2 32.8819 90.5368 48.5506 0.0000 0.0000 0.0000
# 3 48.5516 48.5506 121.1744 0.0000 0.0000 0.0000
# 4 0.0000 0.0000 0.0000 30.6820 0.0000 0.0000
# 5 0.0000 0.0000 0.0000 0.0000 30.6824 0.0000
# 6 0.0000 0.0000 0.0000 0.0000 0.0000 36.3814
#
#
#
# Elastic Compliance Matrix: (Units=1/GPa)
#
#
# Indices 1 2 3 4 5 6 
#
# 1 0.014588 -0.002756 -0.004741 0.000000 0.000000 0.000000
# 2 -0.002756 0.014588 -0.004741 0.000000 0.000000 0.000000
# 3 -0.004741 -0.004741 0.012052 0.000000 0.000000 0.000000
# 4 0.000000 0.000000 0.000000 0.032592 0.000000 0.000000
# 5 0.000000 0.000000 0.000000 0.000000 0.032592 0.000000
# 6 0.000000 0.000000 0.000000 0.000000 0.000000 0.027487
#
#
# Mechanical properties :
#
#
# Convention : Reuss Voigt Hill
#
# Bulk Modulus (GPa) = 59.69177 62.46897 61.08037
# Shear Modulus (GPa) = 30.49561 31.03371 30.76466
#
# Velocity S-wave (km/s) = 4.03840 4.07388 4.05618
# Velocity P-wave (km/s) = 7.32580 7.45227 7.38931
#
# Compressibility (1/GPa) = 0.01675273
#
# Stress axis : x y z
#
# Youngs Moduli (GPa) = 68.55086 68.54739 82.97649
#
# Poissons Ratio (x) = 0.18891 0.39337
# Poissons Ratio (y) = 0.18891 0.39339
# Poissons Ratio (z) = 0.32498 0.32498
#
# Static dielectric constant tensor:
#      x y z
#    x 3.552960 0.000000 0.000000 
#    y 0.000000 3.552980 0.000000 
#    z 0.000000 0.000000 3.445480 
# 
# 
# High freq. dielectric constant tensor:
#      x y z
#    x 1.735860 0.000000 0.000000 
#    y 0.000000 1.735860 0.000000 
#    z 0.000000 0.000000 1.732050 
# 
# From -- ./inp_files/7883.got.cif
#   From: 2010.03.12/outbox.cif.g09.slc.cpg/sg121_4_cif.got.tgz:7883.got - 2010.04.06 16:06:48.
