data_PCOD8311609
_publ_section_title
;
Structure prediction by ZEFSAII (Michael W. Deem and Ramdas Pophale) SiO2 
 PCOD8311609
Probable space group: I -4 2 M
;
_chemical_formula_sum "Si O2"
_cell_formula_units_Z 116
_cell_length_a 17.444105
_cell_length_b 17.444105
_cell_length_c 18.977849
_cell_angle_alpha 90.000000
_cell_angle_beta 90.000000
_cell_angle_gamma 90.000000
_cell_volume 5774.898707
_symmetry_space_group_name_H-M "I -4 2 M"
_symmetry_group_IT_number 121
_symmetry_cell_setting 'tetragonal'
loop_
_space_group_symop_operation_xyz
x,y,z
y,-x,-z
-x,-y,z
-y,x,-z
x,-y,-z
-x,y,-z
-y,-x,z
y,x,z
1/2+x,1/2+y,1/2+z
1/2+y,1/2-x,1/2-z
1/2-x,1/2-y,1/2+z
1/2-y,1/2+x,1/2-z
1/2+x,1/2-y,1/2-z
1/2-x,1/2+y,1/2-z
1/2-y,1/2-x,1/2+z
1/2+y,1/2+x,1/2+z
loop_
_atom_site_type_symbol
_atom_site_label
_atom_site_fract_x
_atom_site_fract_y
_atom_site_fract_z
Si Si1 0.940681 0.811581 0.557275
Si Si2 0.500000 0.000000 0.500000
Si Si3 0.932660 0.360675 0.413437
Si Si4 0.237581 0.356544 0.591668
Si Si5 0.423948 0.699453 0.540900
Si Si6 0.727694 0.505411 0.677287
Si Si7 0.621835 0.001402 0.731925
Si Si8 0.996690 0.122485 0.694083
O O1 0.860413 0.860413 0.553365
O O2 0.930927 0.719606 0.542250
O O3 0.981564 0.817130 0.633297
O O4 0.000000 0.845446 0.500000
O O5 0.559764 0.947047 0.543854
O O6 0.848212 0.365121 0.380337
O O7 0.993284 0.357303 0.350338
O O8 0.271207 0.271207 0.603931
O O9 0.240910 0.376793 0.508085
O O10 0.288755 0.414758 0.637445
O O11 0.500000 0.675271 0.500000
O O12 0.377836 0.622165 0.553373
O O13 0.439738 0.736619 0.617544
O O14 0.803138 0.510617 0.722958
O O15 0.657500 0.489080 0.729048
O O16 0.577406 0.928096 0.761336
O O17 0.051261 0.051261 0.684596
O O18 0.909051 0.090950 0.686288
#
# Coordination Sequence:
#
# PCOD8311609 Si02
#       8
#    16   4  16  16  16  16  16  16
#     4  11  23  43  66  93 130 169 218 268 324 387
#     4  12  28  40  70  96 126 156 216 268 324 380
#     4  12  24  42  65  95 121 166 210 266 316 383
#     4  10  22  39  61  89 124 166 209 255 318 386
#     4   9  20  36  57  87 121 161 207 253 313 377
#     4  11  20  37  63  87 127 164 203 261 316 380
#     4  11  23  40  62  89 122 159 205 255 317 378
#     4  10  21  37  61  92 124 163 211 262 315 378
#
# _framework density 20.086932999999998
#
# number of rings (size 3 to 8) (size 9 to 14) (size 15 to 20)
#    0.000    1.379    3.448    2.483    2.897    1.379 
#    0.000    0.000    0.000    0.000    0.000    0.000 
#    0.000    0.000    0.000    0.000    0.000    0.000 
#
# Total GULP energy -718791.389535 kJ/mol
# GULP energy per Si atom -12392.954992 kJ/mol
# Density = 2.004121 g / cm^3
# Si number density = 20.086933 Si / 1000 Ang^3
#
#
#
# Elastic Constant Matrix: (Units=GPa)
#
#
# Indices 1 2 3 4 5 6 
#
# 1 78.4155 28.2863 21.5654 0.0000 0.0000 0.0000
# 2 28.2863 78.4149 21.5653 0.0000 0.0000 0.0000
# 3 21.5654 21.5653 103.4852 0.0000 0.0000 0.0000
# 4 0.0000 0.0000 0.0000 27.8688 0.0000 0.0000
# 5 0.0000 0.0000 0.0000 0.0000 27.8675 0.0000
# 6 0.0000 0.0000 0.0000 0.0000 0.0000 19.1602
#
#
#
# Elastic Compliance Matrix: (Units=1/GPa)
#
#
# Indices 1 2 3 4 5 6 
#
# 1 0.015091 -0.004857 -0.002133 0.000000 0.000000 0.000000
# 2 -0.004857 0.015091 -0.002133 0.000000 0.000000 0.000000
# 3 -0.002133 -0.002133 0.010552 0.000000 0.000000 0.000000
# 4 0.000000 0.000000 0.000000 0.035882 0.000000 0.000000
# 5 0.000000 0.000000 0.000000 0.000000 0.035884 0.000000
# 6 0.000000 0.000000 0.000000 0.000000 0.000000 0.052192
#
#
# Mechanical properties :
#
#
# Convention : Reuss Voigt Hill
#
# Bulk Modulus (GPa) = 44.46539 44.79440 44.62990
# Shear Modulus (GPa) = 26.25576 27.57253 26.91414
#
# Velocity S-wave (km/s) = 3.61931 3.70896 3.66441
# Velocity P-wave (km/s) = 6.29686 6.37891 6.33802
#
# Compressibility (1/GPa) = 0.02248940
#
# Stress axis : x y z
#
# Youngs Moduli (GPa) = 66.26361 66.26317 94.76804
#
# Poissons Ratio (x) = 0.32186 0.20211
# Poissons Ratio (y) = 0.32186 0.20211
# Poissons Ratio (z) = 0.14132 0.14132
#
# Static dielectric constant tensor:
#      x y z
#    x 3.676320 0.000000 0.000000 
#    y 0.000000 3.676330 0.000000 
#    z 0.000000 0.000000 3.812750 
# 
# 
# High freq. dielectric constant tensor:
#      x y z
#    x 1.780920 0.000000 0.000000 
#    y 0.000000 1.780920 0.000000 
#    z 0.000000 0.000000 1.788190 
# 
# From -- ./inp_files/5531.got.cif
#   From: 2010.03.12/outbox.cif.g09.slc.cpg/sg121_3_cif.got.tgz:5531.got - 2010.04.06 16:06:48.
