data_PCOD8311483
_publ_section_title
;
Structure prediction by ZEFSAII (Michael W. Deem and Ramdas Pophale) SiO2 
 PCOD8311483
Probable space group: I -4 2 M
;
_chemical_formula_sum "Si O2"
_cell_formula_units_Z 96
_cell_length_a 14.579327
_cell_length_b 14.579327
_cell_length_c 23.720569
_cell_angle_alpha 90.000000
_cell_angle_beta 90.000000
_cell_angle_gamma 90.000000
_cell_volume 5041.967666
_symmetry_space_group_name_H-M "I -4 2 M"
_symmetry_group_IT_number 121
_symmetry_cell_setting 'tetragonal'
loop_
_space_group_symop_operation_xyz
x,y,z
y,-x,-z
-x,-y,z
-y,x,-z
x,-y,-z
-x,y,-z
-y,-x,z
y,x,z
1/2+x,1/2+y,1/2+z
1/2+y,1/2-x,1/2-z
1/2-x,1/2-y,1/2+z
1/2-y,1/2+x,1/2-z
1/2+x,1/2-y,1/2-z
1/2-x,1/2+y,1/2-z
1/2-y,1/2-x,1/2+z
1/2+y,1/2+x,1/2+z
loop_
_atom_site_type_symbol
_atom_site_label
_atom_site_fract_x
_atom_site_fract_y
_atom_site_fract_z
Si Si1 0.286466 0.437775 0.843777
Si Si2 0.097159 0.247493 0.026292
Si Si3 0.077008 0.922993 0.304733
Si Si4 0.178441 0.328247 0.922864
Si Si5 0.144208 0.539409 0.251498
Si Si6 0.923741 0.923741 0.824036
Si Si7 0.235197 0.503104 0.635035
O O1 0.362186 0.362186 0.829282
O O2 0.333865 0.538303 0.838745
O O3 0.240196 0.417545 0.905539
O O4 0.206024 0.424721 0.799058
O O5 0.156669 0.156669 0.025386
O O6 0.079520 0.278828 0.090174
O O7 0.146796 0.327835 0.988766
O O8 0.000000 0.220077 0.000000
O O9 0.104561 0.895440 0.240446
O O10 0.000000 0.000000 0.303630
O O11 0.236786 0.236786 0.910086
O O12 0.088813 0.327538 0.883283
O O13 0.109078 0.438149 0.237703
O O14 0.204658 0.540507 0.307013
O O15 0.963952 0.839559 0.859426
O O16 0.000000 0.000000 0.819631
#
# Coordination Sequence:
#
# PCOD8311483 Si02
#       7
#    16  16   8  16  16   8  16
#     4  10  19  34  57  80 113 153 194 243 301 351
#     4   9  19  31  48  77 115 154 199 237 272 336
#     4   9  18  30  48  82 114 145 186 241 297 356
#     4   9  17  32  51  76 105 155 200 229 274 340
#     4  11  23  37  54  79 114 151 189 239 288 354
#     4  11  20  28  48  78 120 158 190 245 293 345
#     4  11  19  32  51  74 113 158 196 229 287 345
#
# _framework density 19.040185999999999
#
# number of rings (size 3 to 8) (size 9 to 14) (size 15 to 20)
#    0.000    2.000    4.167    0.500    1.167    0.833 
#    1.500    0.000    0.000    1.000    0.000    0.000 
#    2.500    0.000    0.000    0.000    0.000    0.000 
#
# Total GULP energy -594898.983307 kJ/mol
# GULP energy per Si atom -12393.728819 kJ/mol
# Density = 1.899685 g / cm^3
# Si number density = 19.040186 Si / 1000 Ang^3
#
#
#
# Elastic Constant Matrix: (Units=GPa)
#
#
# Indices 1 2 3 4 5 6 
#
# 1 60.9837 32.6524 40.4935 0.0000 0.0000 0.0000
# 2 32.6524 60.9832 40.4932 0.0000 0.0000 0.0000
# 3 40.4935 40.4932 106.8976 0.0000 0.0000 0.0000
# 4 0.0000 0.0000 0.0000 26.8638 0.0000 0.0000
# 5 0.0000 0.0000 0.0000 0.0000 26.8634 0.0000
# 6 0.0000 0.0000 0.0000 0.0000 0.0000 17.4257
#
#
#
# Elastic Compliance Matrix: (Units=1/GPa)
#
#
# Indices 1 2 3 4 5 6 
#
# 1 0.025590 -0.009707 -0.006017 0.000000 0.000000 0.000000
# 2 -0.009707 0.025590 -0.006017 0.000000 0.000000 0.000000
# 3 -0.006017 -0.006017 0.013913 0.000000 0.000000 0.000000
# 4 0.000000 0.000000 0.000000 0.037225 0.000000 0.000000
# 5 0.000000 0.000000 0.000000 0.000000 0.037225 0.000000
# 6 0.000000 0.000000 0.000000 0.000000 0.000000 0.057387
#
#
# Mechanical properties :
#
#
# Convention : Reuss Voigt Hill
#
# Bulk Modulus (GPa) = 46.26790 50.68250 48.47520
# Shear Modulus (GPa) = 20.19260 21.91228 21.05244
#
# Velocity S-wave (km/s) = 3.26010 3.39609 3.32879
# Velocity P-wave (km/s) = 6.20676 6.48494 6.34737
#
# Compressibility (1/GPa) = 0.02161326
#
# Stress axis : x y z
#
# Youngs Moduli (GPa) = 39.07740 39.07714 71.87442
#
# Poissons Ratio (x) = 0.37931 0.43246
# Poissons Ratio (y) = 0.37931 0.43246
# Poissons Ratio (z) = 0.23512 0.23512
#
# Static dielectric constant tensor:
#      x y z
#    x 3.468020 0.000000 0.000000 
#    y 0.000000 3.468020 0.000000 
#    z 0.000000 0.000000 3.748310 
# 
# 
# High freq. dielectric constant tensor:
#      x y z
#    x 1.727770 0.000000 0.000000 
#    y 0.000000 1.727770 0.000000 
#    z 0.000000 0.000000 1.734180 
# 
# From -- ./inp_files/7162.got.cif
#   From: 2010.03.12/outbox.cif.g09.slc.cpg/sg121_4_cif.got.tgz:7162.got - 2010.04.06 16:06:48.
