data_PCOD8311732
_publ_section_title
;
Structure prediction by ZEFSAII (Michael W. Deem and Ramdas Pophale) SiO2 
 PCOD8311732
Probable space group: I -4 2 D
;
_chemical_formula_sum "Si O2"
_cell_formula_units_Z 112
_cell_length_a 13.687537
_cell_length_b 13.687537
_cell_length_c 31.683872
_cell_angle_alpha 90.000000
_cell_angle_beta 90.000000
_cell_angle_gamma 90.000000
_cell_volume 5935.931252
_symmetry_space_group_name_H-M "I -4 2 D"
_symmetry_group_IT_number 122
_symmetry_cell_setting 'tetragonal'
loop_
_space_group_symop_operation_xyz
x,y,z
y,-x,-z
-x,-y,z
-y,x,-z
x,1/2-y,1/4-z
-x,1/2+y,1/4-z
-y,1/2-x,1/4+z
y,1/2+x,1/4+z
1/2+x,1/2+y,1/2+z
1/2+y,1/2-x,1/2-z
1/2-x,1/2-y,1/2+z
1/2-y,1/2+x,1/2-z
1/2+x,-y,3/4-z
1/2-x,y,3/4-z
1/2-y,-x,3/4+z
1/2+y,x,3/4+z
loop_
_atom_site_type_symbol
_atom_site_label
_atom_site_fract_x
_atom_site_fract_y
_atom_site_fract_z
Si Si1 0.942286 0.790005 0.864223
Si Si2 0.898874 0.749916 0.477935
Si Si3 0.162167 0.475657 0.401468
Si Si4 0.624455 0.260404 0.257146
Si Si5 0.755527 0.919174 0.763096
Si Si6 0.735391 0.395311 0.541634
Si Si7 0.196792 0.343880 0.101154
O O1 0.889777 0.743195 0.823107
O O2 0.932847 0.907481 0.855927
O O3 0.892353 0.758028 0.907614
O O4 0.054787 0.753973 0.865624
O O5 0.852044 0.849658 0.495814
O O6 0.834558 0.663389 0.498489
O O7 0.008273 0.731299 0.493143
O O8 0.250000 0.426364 0.375000
O O9 0.197222 0.483190 0.449720
O O10 0.142548 0.584218 0.385273
O O11 0.669667 0.335509 0.223409
O O12 0.671864 0.288920 0.301717
O O13 0.654658 0.865469 0.776138
O O14 0.735649 0.992519 0.724337
O O15 0.242590 0.250000 0.125000
#
# Coordination Sequence:
#
# PCOD8311732 Si02
#       7
#    16  16  16  16  16  16  16
#     4  10  21  35  56  84 114 153 191 241 284 348
#     4   9  22  39  64  84 111 151 198 242 305 344
#     4  10  17  33  52  79 111 155 193 228 273 346
#     4  10  21  40  61  87 108 156 197 249 293 355
#     4  10  21  34  55  84 121 156 194 234 284 338
#     4  11  22  36  56  85 125 153 199 238 286 339
#     4  10  21  34  56  79 118 154 192 230 292 344
#
# _framework density 18.868144000000001
#
# number of rings (size 3 to 8) (size 9 to 14) (size 15 to 20)
#    0.000    2.000    2.857    0.429    4.000    1.143 
#    2.571    0.000    3.143    1.714    0.000    0.000 
#    0.000    0.000    0.000    0.000    0.000    0.000 
#
# Total GULP energy -694160.043100 kJ/mol
# GULP energy per Si atom -12395.715055 kJ/mol
# Density = 1.882520 g / cm^3
# Si number density = 18.868144 Si / 1000 Ang^3
#
#
#
# Elastic Constant Matrix: (Units=GPa)
#
#
# Indices 1 2 3 4 5 6 
#
# 1 88.6131 31.4365 42.8141 0.0000 0.0000 0.0000
# 2 31.4365 88.6131 42.8141 0.0000 0.0000 0.0000
# 3 42.8141 42.8141 102.3841 0.0000 0.0000 0.0000
# 4 0.0000 0.0000 0.0000 24.0485 0.0000 0.0000
# 5 0.0000 0.0000 0.0000 0.0000 24.0485 0.0000
# 6 0.0000 0.0000 0.0000 0.0000 0.0000 13.8911
#
#
#
# Elastic Compliance Matrix: (Units=1/GPa)
#
#
# Indices 1 2 3 4 5 6 
#
# 1 0.014680 -0.002810 -0.004964 0.000000 0.000000 0.000000
# 2 -0.002810 0.014680 -0.004964 0.000000 0.000000 0.000000
# 3 -0.004964 -0.004964 0.013919 0.000000 0.000000 0.000000
# 4 0.000000 0.000000 0.000000 0.041583 0.000000 0.000000
# 5 0.000000 0.000000 0.000000 0.000000 0.041583 0.000000
# 6 0.000000 0.000000 0.000000 0.000000 0.000000 0.071988
#
#
# Mechanical properties :
#
#
# Convention : Reuss Voigt Hill
#
# Bulk Modulus (GPa) = 56.16694 57.08218 56.62456
# Shear Modulus (GPa) = 21.75408 23.23401 22.49405
#
# Velocity S-wave (km/s) = 3.39920 3.51292 3.45653
# Velocity P-wave (km/s) = 6.72598 6.83908 6.78277
#
# Compressibility (1/GPa) = 0.01780407
#
# Stress axis : x y z
#
# Youngs Moduli (GPa) = 68.11942 68.11942 71.84596
#
# Poissons Ratio (x) = 0.19139 0.35664
# Poissons Ratio (y) = 0.19139 0.35664
# Poissons Ratio (z) = 0.33814 0.33814
#
# Static dielectric constant tensor:
#      x y z
#    x 3.382240 0.000000 0.000000 
#    y 0.000000 3.382240 0.000000 
#    z 0.000000 0.000000 3.451650 
# 
# 
# High freq. dielectric constant tensor:
#      x y z
#    x 1.720600 0.000000 0.000000 
#    y 0.000000 1.720600 0.000000 
#    z 0.000000 0.000000 1.730900 
# 
# From -- ./inp_files/8796.got.cif
#   From: 2010.03.12/outbox.cif.g09.slc.cpg/sg122_5_cif.got.tgz:8796.got - 2010.04.06 16:17:16.
