data_PCOD8311463
_publ_section_title
;
Structure prediction by ZEFSAII (Michael W. Deem and Ramdas Pophale) SiO2 
 PCOD8311463
Probable space group: I -4 2 M
;
_chemical_formula_sum "Si O2"
_cell_formula_units_Z 112
_cell_length_a 15.091375
_cell_length_b 15.091375
_cell_length_c 25.277091
_cell_angle_alpha 90.000000
_cell_angle_beta 90.000000
_cell_angle_gamma 90.000000
_cell_volume 5756.847349
_symmetry_space_group_name_H-M "I -4 2 M"
_symmetry_group_IT_number 121
_symmetry_cell_setting 'tetragonal'
loop_
_space_group_symop_operation_xyz
x,y,z
y,-x,-z
-x,-y,z
-y,x,-z
x,-y,-z
-x,y,-z
-y,-x,z
y,x,z
1/2+x,1/2+y,1/2+z
1/2+y,1/2-x,1/2-z
1/2-x,1/2-y,1/2+z
1/2-y,1/2+x,1/2-z
1/2+x,1/2-y,1/2-z
1/2-x,1/2+y,1/2-z
1/2-y,1/2-x,1/2+z
1/2+y,1/2+x,1/2+z
loop_
_atom_site_type_symbol
_atom_site_label
_atom_site_fract_x
_atom_site_fract_y
_atom_site_fract_z
Si Si1 0.803667 0.052256 0.340009
Si Si2 0.787811 0.358831 0.490846
Si Si3 0.276602 0.580813 0.961862
Si Si4 0.313304 0.833079 0.800945
Si Si5 0.726172 0.870918 0.311051
Si Si6 0.378424 0.231304 0.392476
Si Si7 0.214324 0.932033 0.887979
O O1 0.896399 0.103602 0.324478
O O2 0.793305 0.052733 0.402332
O O3 0.720090 0.097157 0.311653
O O4 0.796033 0.950039 0.322891
O O5 0.722811 0.277190 0.497731
O O6 0.880674 0.322598 0.467762
O O7 0.805247 0.401119 0.548617
O O8 0.744337 0.426473 0.449167
O O9 0.346505 0.653496 0.980421
O O10 0.291685 0.500000 0.000000
O O11 0.233202 0.766799 0.795138
O O12 0.320945 0.887765 0.745943
O O13 0.292170 0.893895 0.851218
O O14 0.781474 0.781474 0.308149
O O15 0.648798 0.852785 0.355057
O O16 0.297293 0.297293 0.394292
O O17 0.463958 0.288269 0.372694
O O18 0.119973 0.880028 0.879344
#
# Coordination Sequence:
#
# PCOD8311463 Si02
#       7
#    16  16  16  16  16  16  16
#     4  10  20  37  62  85 110 152 201 241 283 347
#     4   9  17  33  54  76 107 147 186 223 278 345
#     4  10  19  32  54  82 113 152 192 231 283 349
#     4   9  19  37  58  79 106 146 189 229 282 339
#     4  10  22  38  57  84 118 152 187 237 296 348
#     4  10  21  35  55  84 116 148 177 225 294 344
#     4  10  19  35  59  81 105 144 192 233 273 339
#
# _framework density 19.455093000000002
#
# number of rings (size 3 to 8) (size 9 to 14) (size 15 to 20)
#    0.000    2.286    1.429    1.286    2.000    2.429 
#    0.000    2.143    0.000    6.000    0.000    0.000 
#    0.000    0.000    0.000    0.000    0.000    0.000 
#
# Total GULP energy -693778.304394 kJ/mol
# GULP energy per Si atom -12388.898293 kJ/mol
# Density = 1.941081 g / cm^3
# Si number density = 19.455093 Si / 1000 Ang^3
#
#
#
# Elastic Constant Matrix: (Units=GPa)
#
#
# Indices 1 2 3 4 5 6 
#
# 1 50.8726 21.8323 27.0677 0.0000 0.0000 0.0000
# 2 21.8323 50.8734 27.0639 0.0000 0.0000 0.0000
# 3 27.0677 27.0639 98.3105 0.0000 0.0000 0.0000
# 4 0.0000 0.0000 0.0000 15.8159 0.0000 0.0000
# 5 0.0000 0.0000 0.0000 0.0000 15.8272 0.0000
# 6 0.0000 0.0000 0.0000 0.0000 0.0000 13.1741
#
#
#
# Elastic Compliance Matrix: (Units=1/GPa)
#
#
# Indices 1 2 3 4 5 6 
#
# 1 0.025868 -0.008567 -0.004764 0.000000 0.000000 0.000000
# 2 -0.008567 0.025867 -0.004762 0.000000 0.000000 0.000000
# 3 -0.004764 -0.004762 0.012794 0.000000 0.000000 0.000000
# 4 0.000000 0.000000 0.000000 0.063227 0.000000 0.000000
# 5 0.000000 0.000000 0.000000 0.000000 0.063182 0.000000
# 6 0.000000 0.000000 0.000000 0.000000 0.000000 0.075906
#
#
# Mechanical properties :
#
#
# Convention : Reuss Voigt Hill
#
# Bulk Modulus (GPa) = 35.28167 39.10934 37.19551
# Shear Modulus (GPa) = 16.00107 17.23628 16.61868
#
# Velocity S-wave (km/s) = 2.87097 2.97972 2.92585
# Velocity P-wave (km/s) = 5.40039 5.65547 5.52940
#
# Compressibility (1/GPa) = 0.02834333
#
# Stress axis : x y z
#
# Youngs Moduli (GPa) = 38.65740 38.65998 78.15906
#
# Poissons Ratio (x) = 0.33120 0.37234
# Poissons Ratio (y) = 0.33118 0.37220
# Poissons Ratio (z) = 0.18416 0.18410
#
# Static dielectric constant tensor:
#      x y z
#    x 3.495660 0.000000 0.000000 
#    y 0.000000 3.495610 0.000000 
#    z 0.000000 0.000000 4.405720 
# 
# 
# High freq. dielectric constant tensor:
#      x y z
#    x 1.734950 0.000000 0.000000 
#    y 0.000000 1.734950 0.000000 
#    z 0.000000 0.000000 1.773540 
# 
# From -- ./inp_files/7197.got.cif
#   From: 2010.03.12/outbox.cif.g09.slc.cpg/sg121_4_cif.got.tgz:7197.got - 2010.04.06 16:06:48.
