data_PCOD8311210
_publ_section_title
;
Structure prediction by ZEFSAII (Michael W. Deem and Ramdas Pophale) SiO2 
 PCOD8311210
Probable space group: I -4 C 2
;
_chemical_formula_sum "Si O2"
_cell_formula_units_Z 68
_cell_length_a 13.811469
_cell_length_b 13.811469
_cell_length_c 19.315953
_cell_angle_alpha 90.000000
_cell_angle_beta 90.000000
_cell_angle_gamma 90.000000
_cell_volume 3684.646987
_symmetry_space_group_name_H-M "I -4 C 2"
_symmetry_group_IT_number 120
_symmetry_cell_setting 'tetragonal'
loop_
_space_group_symop_operation_xyz
x,y,z
y,-x,-z
-x,-y,z
-y,x,-z
y,x,1/2-z
-y,-x,1/2-z
-x,y,1/2+z
x,-y,1/2+z
1/2+x,1/2+y,1/2+z
1/2+y,1/2-x,1/2-z
1/2-x,1/2-y,1/2+z
1/2-y,1/2+x,1/2-z
1/2+y,1/2+x,-z
1/2-y,1/2-x,-z
1/2-x,1/2+y,z
1/2+x,1/2-y,z
loop_
_atom_site_type_symbol
_atom_site_label
_atom_site_fract_x
_atom_site_fract_y
_atom_site_fract_z
Si Si1 0.066876 0.306731 0.801817
Si Si2 0.648499 0.457529 0.421910
Si Si3 0.500000 0.000000 0.750000
Si Si4 0.550107 0.654783 0.421738
Si Si5 0.400946 0.263528 0.713383
O O1 0.065432 0.249375 0.874380
O O2 0.175564 0.326032 0.775238
O O3 0.014472 0.411635 0.804114
O O4 0.008111 0.246135 0.745069
O O5 0.629563 0.571428 0.407033
O O6 0.690011 0.441913 0.498849
O O7 0.553015 0.394259 0.410102
O O8 0.726830 0.416392 0.368672
O O9 0.357675 0.357675 0.750000
#
# Coordination Sequence:
#
# PCOD8311210 Si02
#       5
#    16  16   4  16  16
#     4  10  21  37  59  81 116 152 187 233 282 335
#     4   9  19  35  56  88 117 142 178 241 290 336
#     4   8  20  40  56  78 120 156 188 234 276 328
#     4   9  18  36  59  83 117 145 182 234 292 331
#     4  11  22  36  57  86 112 146 192 232 281 338
#
# _framework density 18.454957
#
# number of rings (size 3 to 8) (size 9 to 14) (size 15 to 20)
#    0.000    2.353    2.353    1.412    3.294    0.941 
#    0.000    0.000    0.000   21.176    0.000    0.000 
#    0.000    0.000    0.000    0.000    0.000    0.000 
#
# Total GULP energy -421336.645572 kJ/mol
# GULP energy per Si atom -12392.254282 kJ/mol
# Density = 1.841295 g / cm^3
# Si number density = 18.454957 Si / 1000 Ang^3
#
#
#
# Elastic Constant Matrix: (Units=GPa)
#
#
# Indices 1 2 3 4 5 6 
#
# 1 80.7599 33.6191 52.0335 0.0000 0.0000 0.0000
# 2 33.6191 80.7599 52.0335 0.0000 0.0000 0.0000
# 3 52.0335 52.0335 126.2199 0.0000 0.0000 0.0000
# 4 0.0000 0.0000 0.0000 30.3294 0.0000 0.0000
# 5 0.0000 0.0000 0.0000 0.0000 30.3294 0.0000
# 6 0.0000 0.0000 0.0000 0.0000 0.0000 21.1475
#
#
#
# Elastic Compliance Matrix: (Units=1/GPa)
#
#
# Indices 1 2 3 4 5 6 
#
# 1 0.017602 -0.003611 -0.005767 0.000000 0.000000 0.000000
# 2 -0.003611 0.017602 -0.005767 0.000000 0.000000 0.000000
# 3 -0.005767 -0.005767 0.012678 0.000000 0.000000 0.000000
# 4 0.000000 0.000000 0.000000 0.032971 0.000000 0.000000
# 5 0.000000 0.000000 0.000000 0.000000 0.032971 0.000000
# 6 0.000000 0.000000 0.000000 0.000000 0.000000 0.047287
#
#
# Mechanical properties :
#
#
# Convention : Reuss Voigt Hill
#
# Bulk Modulus (GPa) = 56.85444 62.56797 59.71120
# Shear Modulus (GPa) = 25.34646 26.36482 25.85564
#
# Velocity S-wave (km/s) = 3.70999 3.78379 3.74707
# Velocity P-wave (km/s) = 7.01613 7.28465 7.15165
#
# Compressibility (1/GPa) = 0.01758878
#
# Stress axis : x y z
#
# Youngs Moduli (GPa) = 56.81278 56.81278 78.87760
#
# Poissons Ratio (x) = 0.20517 0.45492
# Poissons Ratio (y) = 0.20517 0.45492
# Poissons Ratio (z) = 0.32766 0.32766
#
# Static dielectric constant tensor:
#      x y z
#    x 3.342530 0.000000 0.000000 
#    y 0.000000 3.342530 0.000000 
#    z 0.000000 0.000000 3.374140 
# 
# 
# High freq. dielectric constant tensor:
#      x y z
#    x 1.710590 0.000000 0.000000 
#    y 0.000000 1.710590 0.000000 
#    z 0.000000 0.000000 1.709510 
# 
# From -- ./inp_files/5113.got.cif
#   From: 2010.03.12/outbox.cif.g09.slc.cpg/sg120_3_cif.got.tgz:5113.got - 2010.04.06 16:00:44.
