data_PCOD8311145
_publ_section_title
;
Structure prediction by ZEFSAII (Michael W. Deem and Ramdas Pophale) SiO2 
 PCOD8311145
Probable space group: I -4 C 2
;
_chemical_formula_sum "Si O2"
_cell_formula_units_Z 112
_cell_length_a 15.679230
_cell_length_b 15.679230
_cell_length_c 21.414309
_cell_angle_alpha 90.000000
_cell_angle_beta 90.000000
_cell_angle_gamma 90.000000
_cell_volume 5264.456322
_symmetry_space_group_name_H-M "I -4 C 2"
_symmetry_group_IT_number 120
_symmetry_cell_setting 'tetragonal'
loop_
_space_group_symop_operation_xyz
x,y,z
y,-x,-z
-x,-y,z
-y,x,-z
y,x,1/2-z
-y,-x,1/2-z
-x,y,1/2+z
x,-y,1/2+z
1/2+x,1/2+y,1/2+z
1/2+y,1/2-x,1/2-z
1/2-x,1/2-y,1/2+z
1/2-y,1/2+x,1/2-z
1/2+y,1/2+x,-z
1/2-y,1/2-x,-z
1/2-x,1/2+y,z
1/2+x,1/2-y,z
loop_
_atom_site_type_symbol
_atom_site_label
_atom_site_fract_x
_atom_site_fract_y
_atom_site_fract_z
Si Si1 0.605932 0.324276 0.567384
Si Si2 0.804444 0.703654 0.204768
Si Si3 0.874963 0.546681 0.734309
Si Si4 0.754187 0.465461 0.119279
Si Si5 0.783139 0.939036 0.501299
Si Si6 0.776573 0.226415 0.927503
Si Si7 0.409637 0.650943 0.809617
O O1 0.513292 0.288726 0.550110
O O2 0.623746 0.411766 0.528911
O O3 0.680623 0.255633 0.546538
O O4 0.609817 0.343073 0.641112
O O5 0.781150 0.781150 0.250000
O O6 0.903142 0.687622 0.219585
O O7 0.792164 0.725217 0.134000
O O8 0.742349 0.622961 0.217523
O O9 0.895386 0.459634 0.769967
O O10 0.837316 0.539062 0.663887
O O11 0.728499 0.376974 0.086943
O O12 0.671906 0.498568 0.159440
O O13 0.772883 0.531192 0.061863
O O14 0.746535 0.852714 0.470898
O O15 0.413664 0.586337 0.750000
#
# Coordination Sequence:
#
# PCOD8311145 Si02
#       7
#    16  16  16  16  16  16  16
#     4  10  23  42  67  98 134 182 233 296 355 424
#     4  10  19  37  64  91 125 174 225 279 351 428
#     4  11  23  40  64  99 139 178 227 293 369 440
#     4  11  22  40  67  97 133 180 235 291 344 443
#     4  11  23  42  66  97 131 183 236 290 351 419
#     4  11  23  41  67  97 135 179 234 293 357 424
#     4   9  20  39  63  93 131 174 221 283 350 417
#
# _framework density 21.274751999999999
#
# number of rings (size 3 to 8) (size 9 to 14) (size 15 to 20)
#    0.000    1.571    4.286    0.429    0.000    2.571 
#    0.000    0.000    0.000    0.857    0.000    0.000 
#    0.000    0.000    0.000    0.000    0.000    0.000 
#
# Total GULP energy -693774.251162 kJ/mol
# GULP energy per Si atom -12388.825914 kJ/mol
# Density = 2.122633 g / cm^3
# Si number density = 21.274752 Si / 1000 Ang^3
#
#
#
# Elastic Constant Matrix: (Units=GPa)
#
#
# Indices 1 2 3 4 5 6 
#
# 1 97.7579 54.0710 56.2954 0.0000 0.0000 0.0000
# 2 54.0710 97.7575 56.2958 0.0000 0.0000 0.0000
# 3 56.2954 56.2958 115.7744 0.0000 0.0000 0.0000
# 4 0.0000 0.0000 0.0000 42.8795 0.0000 0.0000
# 5 0.0000 0.0000 0.0000 0.0000 42.8795 0.0000
# 6 0.0000 0.0000 0.0000 0.0000 0.0000 23.8007
#
#
#
# Elastic Compliance Matrix: (Units=1/GPa)
#
#
# Indices 1 2 3 4 5 6 
#
# 1 0.016595 -0.006295 -0.005009 0.000000 0.000000 0.000000
# 2 -0.006295 0.016596 -0.005009 0.000000 0.000000 0.000000
# 3 -0.005009 -0.005009 0.013509 0.000000 0.000000 0.000000
# 4 0.000000 0.000000 0.000000 0.023321 0.000000 0.000000
# 5 0.000000 0.000000 0.000000 0.000000 0.023321 0.000000
# 6 0.000000 0.000000 0.000000 0.000000 0.000000 0.042015
#
#
# Mechanical properties :
#
#
# Convention : Reuss Voigt Hill
#
# Bulk Modulus (GPa) = 71.04824 71.62377 71.33601
# Shear Modulus (GPa) = 28.95641 31.55381 30.25511
#
# Velocity S-wave (km/s) = 3.69327 3.85536 3.77518
# Velocity P-wave (km/s) = 7.18714 7.31830 7.25302
#
# Compressibility (1/GPa) = 0.01407494
#
# Stress axis : x y z
#
# Youngs Moduli (GPa) = 60.25778 60.25709 74.02746
#
# Poissons Ratio (x) = 0.37931 0.37078
# Poissons Ratio (y) = 0.37931 0.37079
# Poissons Ratio (z) = 0.30181 0.30182
#
# Static dielectric constant tensor:
#      x y z
#    x 3.839980 0.000000 0.000000 
#    y 0.000000 3.839980 0.000000 
#    z 0.000000 0.000000 4.167800 
# 
# 
# High freq. dielectric constant tensor:
#      x y z
#    x 1.815970 0.000000 0.000000 
#    y 0.000000 1.815970 0.000000 
#    z 0.000000 0.000000 1.857440 
# 
# From -- ./inp_files/5909.got.cif
#   From: 2010.03.12/outbox.cif.g09.slc.cpg/sg120_3_cif.got.tgz:5909.got - 2010.04.06 16:00:44.
