data_PCOD8311518
_publ_section_title
;
Structure prediction by ZEFSAII (Michael W. Deem and Ramdas Pophale) SiO2 
 PCOD8311518
Probable space group: I -4 2 M
;
_chemical_formula_sum "Si O2"
_cell_formula_units_Z 64
_cell_length_a 12.965515
_cell_length_b 12.965515
_cell_length_c 20.692445
_cell_angle_alpha 90.000000
_cell_angle_beta 90.000000
_cell_angle_gamma 90.000000
_cell_volume 3478.494760
_symmetry_space_group_name_H-M "I -4 2 M"
_symmetry_group_IT_number 121
_symmetry_cell_setting 'tetragonal'
loop_
_space_group_symop_operation_xyz
x,y,z
y,-x,-z
-x,-y,z
-y,x,-z
x,-y,-z
-x,y,-z
-y,-x,z
y,x,z
1/2+x,1/2+y,1/2+z
1/2+y,1/2-x,1/2-z
1/2-x,1/2-y,1/2+z
1/2-y,1/2+x,1/2-z
1/2+x,1/2-y,1/2-z
1/2-x,1/2+y,1/2-z
1/2-y,1/2-x,1/2+z
1/2+y,1/2+x,1/2+z
loop_
_atom_site_type_symbol
_atom_site_label
_atom_site_fract_x
_atom_site_fract_y
_atom_site_fract_z
Si Si1 0.519970 0.165869 0.179542
Si Si2 0.090405 0.740220 0.948486
Si Si3 0.668618 0.009043 0.820203
Si Si4 0.240612 0.071539 0.559694
O O1 0.628615 0.107603 0.166846
O O2 0.519450 0.223113 0.249675
O O3 0.501253 0.247052 0.122374
O O4 0.429122 0.083331 0.181099
O O5 0.159702 0.840299 0.960613
O O6 0.155579 0.635134 0.956158
O O7 0.041967 0.747300 0.876555
O O8 0.000000 0.737486 0.000000
O O9 0.147953 0.147953 0.575329
O O10 0.211448 0.000000 0.500000
#
# Coordination Sequence:
#
# PCOD8311518 Si02
#       4
#    16  16  16  16
#     4   8  14  27  49  74  97 123 158 201 246 289
#     4  10  20  33  50  73 100 131 166 202 242 288
#     4   8  14  27  49  74  97 123 158 201 246 289
#     4  10  20  33  50  73 100 131 166 202 242 288
#
# _framework density 18.398764
#
# number of rings (size 3 to 8) (size 9 to 14) (size 15 to 20)
#    0.000    3.000    0.000    3.000    0.000    3.000 
#    0.000    2.500    0.000    9.000    0.000    0.000 
#    0.000    0.000    0.000    0.000    0.000    0.000 
#
# Total GULP energy -396657.768169 kJ/mol
# GULP energy per Si atom -12395.555255 kJ/mol
# Density = 1.835689 g / cm^3
# Si number density = 18.398764 Si / 1000 Ang^3
#
#
#
# Elastic Constant Matrix: (Units=GPa)
#
#
# Indices 1 2 3 4 5 6 
#
# 1 35.8290 2.3264 8.5709 0.0000 0.0000 0.0000
# 2 2.3264 35.8297 8.5711 0.0000 0.0000 0.0000
# 3 8.5709 8.5711 98.8874 0.0000 0.0000 0.0000
# 4 0.0000 0.0000 0.0000 1.3826 0.0000 0.0000
# 5 0.0000 0.0000 0.0000 0.0000 1.3825 0.0000
# 6 0.0000 0.0000 0.0000 0.0000 0.0000 10.1079
#
#
#
# Elastic Compliance Matrix: (Units=1/GPa)
#
#
# Indices 1 2 3 4 5 6 
#
# 1 0.028559 -0.001289 -0.002364 0.000000 0.000000 0.000000
# 2 -0.001289 0.028559 -0.002364 0.000000 0.000000 0.000000
# 3 -0.002364 -0.002364 0.010522 0.000000 0.000000 0.000000
# 4 0.000000 0.000000 0.000000 0.723271 0.000000 0.000000
# 5 0.000000 0.000000 0.000000 0.000000 0.723311 0.000000
# 6 0.000000 0.000000 0.000000 0.000000 0.000000 0.098933
#
#
# Mechanical properties :
#
#
# Convention : Reuss Voigt Hill
#
# Bulk Modulus (GPa) = 17.98297 23.27589 20.62943
# Shear Modulus (GPa) = 3.04187 12.64645 7.84416
#
# Velocity S-wave (km/s) = 1.28720 2.62459 2.06704
# Velocity P-wave (km/s) = 3.46474 4.67577 4.11505
#
# Compressibility (1/GPa) = 0.05560816
#
# Stress axis : x y z
#
# Youngs Moduli (GPa) = 35.01470 35.01535 95.03673
#
# Poissons Ratio (x) = 0.04513 0.22463
# Poissons Ratio (y) = 0.04513 0.22463
# Poissons Ratio (z) = 0.08276 0.08276
#
# Static dielectric constant tensor:
#      x y z
#    x 3.132700 0.000000 0.000000 
#    y 0.000000 3.132700 0.000000 
#    z 0.000000 0.000000 3.896690 
# 
# 
# High freq. dielectric constant tensor:
#      x y z
#    x 1.678240 0.000000 0.000000 
#    y 0.000000 1.678240 0.000000 
#    z 0.000000 0.000000 1.733920 
# 
# From -- ./inp_files/5073.got.cif
#   From: 2010.03.12/outbox.cif.g09.slc.cpg/sg121_3_cif.got.tgz:5073.got - 2010.04.06 16:06:48.
