data_PCOD8311066
_publ_section_title
;
Structure prediction by ZEFSAII (Michael W. Deem and Ramdas Pophale) SiO2 
 PCOD8311066
Probable space group: I -4 M 2
;
_chemical_formula_sum "Si O2"
_cell_formula_units_Z 112
_cell_length_a 13.868915
_cell_length_b 13.868915
_cell_length_c 31.701700
_cell_angle_alpha 90.000000
_cell_angle_beta 90.000000
_cell_angle_gamma 90.000000
_cell_volume 6097.720653
_symmetry_space_group_name_H-M "I -4 M 2"
_symmetry_group_IT_number 119
_symmetry_cell_setting 'tetragonal'
loop_
_space_group_symop_operation_xyz
x,y,z
y,-x,-z
-x,-y,z
-y,x,-z
y,x,-z
-y,-x,-z
-x,y,z
x,-y,z
1/2+x,1/2+y,1/2+z
1/2+y,1/2-x,1/2-z
1/2-x,1/2-y,1/2+z
1/2-y,1/2+x,1/2-z
1/2+y,1/2+x,1/2-z
1/2-y,1/2-x,1/2-z
1/2-x,1/2+y,1/2+z
1/2+x,1/2-y,1/2+z
loop_
_atom_site_type_symbol
_atom_site_label
_atom_site_fract_x
_atom_site_fract_y
_atom_site_fract_z
Si Si1 0.392877 0.113923 0.131716
Si Si2 0.779427 0.614952 0.712962
Si Si3 0.292032 0.388369 0.325837
Si Si4 0.885612 0.606700 0.125889
Si Si5 0.615432 0.210443 0.542641
Si Si6 0.608825 0.885787 0.039309
Si Si7 0.612873 0.604942 0.586940
O O1 0.500000 0.158277 0.136938
O O2 0.325666 0.151646 0.169005
O O3 0.349662 0.143726 0.085658
O O4 0.401272 0.000000 0.134676
O O5 0.770539 0.500000 0.716972
O O6 0.846708 0.653293 0.750000
O O7 0.674259 0.665950 0.713194
O O8 0.295579 0.500000 0.312258
O O9 0.182777 0.356005 0.337640
O O10 0.360763 0.367691 0.365673
O O11 0.844097 0.500000 0.136399
O O12 0.847224 0.640575 0.080124
O O13 0.000000 0.604227 0.123720
O O14 0.500000 0.210384 0.542538
O O15 0.658702 0.174183 0.498105
O O16 0.653245 0.319135 0.552484
O O17 0.500000 0.845924 0.034757
O O18 0.606245 0.000000 0.034708
O O19 0.500000 0.594016 0.579947
O O20 0.663363 0.500000 0.579924
#
# Coordination Sequence:
#
# PCOD8311066 Si02
#       7
#    16  16  16  16  16  16  16
#     4   8  15  28  45  65  88 113 142 185 245 299
#     4  11  22  35  53  74  93 115 149 196 249 302
#     4   9  18  32  50  72  97 129 167 198 232 290
#     4   8  13  23  42  68  97 127 158 195 234 265
#     4   8  12  17  31  59  89 116 153 196 229 261
#     4   8  12  19  34  57  85 114 144 184 235 282
#     4   8  13  22  37  57  85 125 167 200 227 258
#
# _framework density 18.367519999999999
#
# number of rings (size 3 to 8) (size 9 to 14) (size 15 to 20)
#    0.000    3.429    0.000    3.857    0.000    3.286 
#    0.000    0.714    0.000    4.286    0.000    8.000 
#    0.000    2.286    0.000    0.000    0.000    0.000 
#
# Total GULP energy -693856.119176 kJ/mol
# GULP energy per Si atom -12390.287842 kJ/mol
# Density = 1.832571 g / cm^3
# Si number density = 18.367520 Si / 1000 Ang^3
#
#
#
# Elastic Constant Matrix: (Units=GPa)
#
#
# Indices 1 2 3 4 5 6 
#
# 1 86.1053 26.8853 41.7819 0.0000 0.0000 0.0000
# 2 26.8853 86.1054 41.7826 0.0000 0.0000 0.0000
# 3 41.7819 41.7826 68.7260 0.0000 0.0000 0.0000
# 4 0.0000 0.0000 0.0000 22.1031 0.0000 0.0000
# 5 0.0000 0.0000 0.0000 0.0000 22.1030 0.0000
# 6 0.0000 0.0000 0.0000 0.0000 0.0000 10.9769
#
#
#
# Elastic Compliance Matrix: (Units=1/GPa)
#
#
# Indices 1 2 3 4 5 6 
#
# 1 0.016483 -0.000403 -0.009776 0.000000 0.000000 0.000000
# 2 -0.000403 0.016483 -0.009776 0.000000 0.000000 0.000000
# 3 -0.009776 -0.009776 0.026437 0.000000 0.000000 0.000000
# 4 0.000000 0.000000 0.000000 0.045243 0.000000 0.000000
# 5 0.000000 0.000000 0.000000 0.000000 0.045243 0.000000
# 6 0.000000 0.000000 0.000000 0.000000 0.000000 0.091100
#
#
# Mechanical properties :
#
#
# Convention : Reuss Voigt Hill
#
# Bulk Modulus (GPa) = 51.29870 51.31514 51.30692
# Shear Modulus (GPa) = 17.39746 19.73572 18.56659
#
# Velocity S-wave (km/s) = 3.08098 3.28150 3.18282
# Velocity P-wave (km/s) = 6.37544 6.50817 6.44215
#
# Compressibility (1/GPa) = 0.01949367
#
# Stress axis : x y z
#
# Youngs Moduli (GPa) = 60.66774 60.66706 37.82512
#
# Poissons Ratio (x) = 0.02444 0.36978
# Poissons Ratio (y) = 0.02444 0.36979
# Poissons Ratio (z) = 0.59309 0.59310
#
# Static dielectric constant tensor:
#      x y z
#    x 3.356890 0.000000 0.000000 
#    y 0.000000 3.356890 0.000000 
#    z 0.000000 0.000000 3.394990 
# 
# 
# High freq. dielectric constant tensor:
#      x y z
#    x 1.683180 0.000000 0.000000 
#    y 0.000000 1.683180 0.000000 
#    z 0.000000 0.000000 1.697110 
# 
# From -- ./inp_files/10465.got.cif
#   From: 2010.03.12/outbox.cif.g09.slc.cpg/sg119_6_cif.got.tgz:10465.got - 2010.04.14 02:25:26.
