data_PCOD8311182
_publ_section_title
;
Structure prediction by ZEFSAII (Michael W. Deem and Ramdas Pophale) SiO2 
 PCOD8311182
Probable space group: I -4 C 2
;
_chemical_formula_sum "Si O2"
_cell_formula_units_Z 96
_cell_length_a 13.820089
_cell_length_b 13.820089
_cell_length_c 27.193296
_cell_angle_alpha 90.000000
_cell_angle_beta 90.000000
_cell_angle_gamma 90.000000
_cell_volume 5193.779762
_symmetry_space_group_name_H-M "I -4 C 2"
_symmetry_group_IT_number 120
_symmetry_cell_setting 'tetragonal'
loop_
_space_group_symop_operation_xyz
x,y,z
y,-x,-z
-x,-y,z
-y,x,-z
y,x,1/2-z
-y,-x,1/2-z
-x,y,1/2+z
x,-y,1/2+z
1/2+x,1/2+y,1/2+z
1/2+y,1/2-x,1/2-z
1/2-x,1/2-y,1/2+z
1/2-y,1/2+x,1/2-z
1/2+y,1/2+x,-z
1/2-y,1/2-x,-z
1/2-x,1/2+y,z
1/2+x,1/2-y,z
loop_
_atom_site_type_symbol
_atom_site_label
_atom_site_fract_x
_atom_site_fract_y
_atom_site_fract_z
Si Si1 0.798465 0.724241 0.335625
Si Si2 0.333020 0.666981 0.750000
Si Si3 0.274311 0.403990 0.415513
Si Si4 0.230690 0.730690 0.000000
Si Si5 0.868932 0.190439 0.583651
Si Si6 0.960475 0.829426 0.284587
Si Si7 0.892030 0.014043 0.110722
O O1 0.711828 0.713149 0.298097
O O2 0.799777 0.632426 0.372975
O O3 0.770022 0.820709 0.366273
O O4 0.901086 0.736996 0.306530
O O5 0.446863 0.695433 0.751058
O O6 0.234106 0.367868 0.468026
O O7 0.282771 0.518885 0.414343
O O8 0.380324 0.354715 0.406013
O O9 0.238140 0.823351 0.964530
O O10 0.839328 0.075558 0.583294
O O11 0.890250 0.890250 0.250000
O O12 0.002394 0.890044 0.330355
O O13 0.000000 0.000000 0.092230
#
# Coordination Sequence:
#
# PCOD8311182 Si02
#       7
#    16   8  16   8  16  16  16
#     4  10  22  36  54  89 114 156 187 233 290 343
#     4  12  21  34  60  83 118 156 182 244 282 325
#     4  10  20  38  58  83 116 147 188 243 300 346
#     4  10  22  36  56  88 106 154 186 236 310 350
#     4   9  21  37  57  83 117 142 193 239 291 359
#     4  11  21  33  56  89 117 148 200 232 284 348
#     4   9  17  32  54  84 112 142 174 239 304 334
#
# _framework density 18.483649
#
# number of rings (size 3 to 8) (size 9 to 14) (size 15 to 20)
#    0.000    2.000    2.500    1.250    7.000    0.000 
#    0.000    0.000    0.000    6.000    0.000    0.000 
#    0.000    0.000    0.000    0.000    0.000    0.000 
#
# Total GULP energy -594762.090522 kJ/mol
# GULP energy per Si atom -12390.876886 kJ/mol
# Density = 1.844158 g / cm^3
# Si number density = 18.483649 Si / 1000 Ang^3
#
#
#
# Elastic Constant Matrix: (Units=GPa)
#
#
# Indices 1 2 3 4 5 6 
#
# 1 93.9071 55.5595 50.5615 0.0000 0.0000 0.0000
# 2 55.5595 93.9068 50.5617 0.0000 0.0000 0.0000
# 3 50.5615 50.5617 117.3920 0.0000 0.0000 0.0000
# 4 0.0000 0.0000 0.0000 28.3563 0.0000 0.0000
# 5 0.0000 0.0000 0.0000 0.0000 28.3560 0.0000
# 6 0.0000 0.0000 0.0000 0.0000 0.0000 22.6550
#
#
#
# Elastic Compliance Matrix: (Units=1/GPa)
#
#
# Indices 1 2 3 4 5 6 
#
# 1 0.017760 -0.008318 -0.004067 0.000000 0.000000 0.000000
# 2 -0.008318 0.017760 -0.004067 0.000000 0.000000 0.000000
# 3 -0.004067 -0.004067 0.012022 0.000000 0.000000 0.000000
# 4 0.000000 0.000000 0.000000 0.035266 0.000000 0.000000
# 5 0.000000 0.000000 0.000000 0.000000 0.035266 0.000000
# 6 0.000000 0.000000 0.000000 0.000000 0.000000 0.044140
#
#
# Mechanical properties :
#
#
# Convention : Reuss Voigt Hill
#
# Bulk Modulus (GPa) = 68.31284 68.73014 68.52149
# Shear Modulus (GPa) = 25.00073 25.77501 25.38787
#
# Velocity S-wave (km/s) = 3.68174 3.73832 3.71014
# Velocity P-wave (km/s) = 7.42377 7.47652 7.45019
#
# Compressibility (1/GPa) = 0.01463854
#
# Stress axis : x y z
#
# Youngs Moduli (GPa) = 56.30779 56.30752 83.18399
#
# Poissons Ratio (x) = 0.46835 0.33828
# Poissons Ratio (y) = 0.46836 0.33828
# Poissons Ratio (z) = 0.22898 0.22899
#
# Static dielectric constant tensor:
#      x y z
#    x 3.449670 0.000000 0.000000 
#    y 0.000000 3.449680 0.000000 
#    z 0.000000 0.000000 3.589000 
# 
# 
# High freq. dielectric constant tensor:
#      x y z
#    x 1.698070 0.000000 0.000000 
#    y 0.000000 1.698070 0.000000 
#    z 0.000000 0.000000 1.734630 
# 
# From -- ./inp_files/6248.got.cif
#   From: 2010.03.12/outbox.cif.g09.slc.cpg/sg120_4_cif.got.tgz:6248.got - 2010.04.06 16:00:44.
