data_PCOD8311648
_publ_section_title
;
Structure prediction by ZEFSAII (Michael W. Deem and Ramdas Pophale) SiO2 
 PCOD8311648
Probable space group: I -4 2 M
;
_chemical_formula_sum "Si O2"
_cell_formula_units_Z 96
_cell_length_a 15.104326
_cell_length_b 15.104326
_cell_length_c 21.783064
_cell_angle_alpha 90.000000
_cell_angle_beta 90.000000
_cell_angle_gamma 90.000000
_cell_volume 4969.602683
_symmetry_space_group_name_H-M "I -4 2 M"
_symmetry_group_IT_number 121
_symmetry_cell_setting 'tetragonal'
loop_
_space_group_symop_operation_xyz
x,y,z
y,-x,-z
-x,-y,z
-y,x,-z
x,-y,-z
-x,y,-z
-y,-x,z
y,x,z
1/2+x,1/2+y,1/2+z
1/2+y,1/2-x,1/2-z
1/2-x,1/2-y,1/2+z
1/2-y,1/2+x,1/2-z
1/2+x,1/2-y,1/2-z
1/2-x,1/2+y,1/2-z
1/2-y,1/2-x,1/2+z
1/2+y,1/2+x,1/2+z
loop_
_atom_site_type_symbol
_atom_site_label
_atom_site_fract_x
_atom_site_fract_y
_atom_site_fract_z
Si Si1 0.322549 0.825296 0.627677
Si Si2 0.930641 0.930641 0.157696
Si Si3 0.514863 0.760393 0.802785
Si Si4 0.306354 0.160949 0.625670
Si Si5 0.012384 0.260445 0.157749
Si Si6 0.430526 0.569474 0.196235
Si Si7 0.896012 0.244887 0.504399
O O1 0.251366 0.748634 0.644282
O O2 0.324181 0.903687 0.678602
O O3 0.420468 0.784787 0.625486
O O4 0.304289 0.869645 0.562271
O O5 0.930639 0.930639 0.230796
O O6 0.958774 0.835292 0.132883
O O7 0.000000 0.000000 0.130663
O O8 0.422182 0.780726 0.833441
O O9 0.499892 0.762325 0.730595
O O10 0.543710 0.665077 0.829102
O O11 0.245691 0.245691 0.645123
O O12 0.409842 0.174120 0.638103
O O13 0.296285 0.140369 0.554401
O O14 0.500000 0.500000 0.168990
O O15 0.851840 0.148161 0.509193
O O16 0.000000 0.230750 0.500000
#
# Coordination Sequence:
#
# PCOD8311648 Si02
#       7
#    16   8  16  16  16   8  16
#     4  11  23  41  63  91 128 167 209 262 313 367
#     4   9  18  36  58  85 118 155 215 258 302 369
#     4  11  21  36  60  89 130 165 206 255 315 380
#     4  11  23  41  63  91 127 167 210 260 312 371
#     4  11  23  37  61  91 123 171 206 257 319 371
#     4   9  18  32  54  87 120 163 205 250 308 371
#     4  10  22  43  67  92 123 164 210 257 306 362
#
# _framework density 19.317440000000001
#
# number of rings (size 3 to 8) (size 9 to 14) (size 15 to 20)
#    0.000    1.500    3.333    2.000    0.000    4.833 
#    0.000    2.500    0.000    0.000    0.000    0.000 
#    0.000    0.000    0.000    0.000    0.000    0.000 
#
# Total GULP energy -595302.565331 kJ/mol
# GULP energy per Si atom -12402.136778 kJ/mol
# Density = 1.927347 g / cm^3
# Si number density = 19.317440 Si / 1000 Ang^3
#
#
#
# Elastic Constant Matrix: (Units=GPa)
#
#
# Indices 1 2 3 4 5 6 
#
# 1 138.7456 56.3082 43.3761 0.0000 0.0000 0.0000
# 2 56.3082 138.7471 43.3765 0.0000 0.0000 0.0000
# 3 43.3761 43.3765 71.9375 0.0000 0.0000 0.0000
# 4 0.0000 0.0000 0.0000 39.0698 0.0000 0.0000
# 5 0.0000 0.0000 0.0000 0.0000 39.1063 0.0000
# 6 0.0000 0.0000 0.0000 0.0000 0.0000 36.5894
#
#
#
# Elastic Compliance Matrix: (Units=1/GPa)
#
#
# Indices 1 2 3 4 5 6 
#
# 1 0.009568 -0.002562 -0.004224 0.000000 0.000000 0.000000
# 2 -0.002562 0.009568 -0.004224 0.000000 0.000000 0.000000
# 3 -0.004224 -0.004224 0.018995 0.000000 0.000000 0.000000
# 4 0.000000 0.000000 0.000000 0.025595 0.000000 0.000000
# 5 0.000000 0.000000 0.000000 0.000000 0.025571 0.000000
# 6 0.000000 0.000000 0.000000 0.000000 0.000000 0.027330
#
#
# Mechanical properties :
#
#
# Convention : Reuss Voigt Hill
#
# Bulk Modulus (GPa) = 62.07507 70.61686 66.34597
# Shear Modulus (GPa) = 34.71769 36.71105 35.71437
#
# Velocity S-wave (km/s) = 4.24396 4.36410 4.30445
# Velocity P-wave (km/s) = 7.49793 7.87586 7.68922
#
# Compressibility (1/GPa) = 0.01610953
#
# Stress axis : x y z
#
# Youngs Moduli (GPa) = 104.51573 104.51661 52.64540
#
# Poissons Ratio (x) = 0.26781 0.22238
# Poissons Ratio (y) = 0.26781 0.22238
# Poissons Ratio (z) = 0.44149 0.44149
#
# Static dielectric constant tensor:
#      x y z
#    x 2.936150 0.000000 0.000000 
#    y 0.000000 2.934490 0.000000 
#    z 0.000000 0.000000 3.414940 
# 
# 
# High freq. dielectric constant tensor:
#      x y z
#    x 1.760570 0.000000 0.000000 
#    y 0.000000 1.760570 0.000000 
#    z 0.000000 0.000000 1.740010 
# 
# From -- ./inp_files/6483.got.cif
#   From: 2010.03.12/outbox.cif.g09.slc.cpg/sg121_4_cif.got.tgz:6483.got - 2010.04.06 16:06:48.
