data_PCOD8311308
_publ_section_title
;
Structure prediction by ZEFSAII (Michael W. Deem and Ramdas Pophale) SiO2 
 PCOD8311308
Probable space group: I -4 C 2
;
_chemical_formula_sum "Si O2"
_cell_formula_units_Z 112
_cell_length_a 14.222929
_cell_length_b 14.222929
_cell_length_c 25.518896
_cell_angle_alpha 90.000000
_cell_angle_beta 90.000000
_cell_angle_gamma 90.000000
_cell_volume 5162.261092
_symmetry_space_group_name_H-M "I -4 C 2"
_symmetry_group_IT_number 120
_symmetry_cell_setting 'tetragonal'
loop_
_space_group_symop_operation_xyz
x,y,z
y,-x,-z
-x,-y,z
-y,x,-z
y,x,1/2-z
-y,-x,1/2-z
-x,y,1/2+z
x,-y,1/2+z
1/2+x,1/2+y,1/2+z
1/2+y,1/2-x,1/2-z
1/2-x,1/2-y,1/2+z
1/2-y,1/2+x,1/2-z
1/2+y,1/2+x,-z
1/2-y,1/2-x,-z
1/2-x,1/2+y,z
1/2+x,1/2-y,z
loop_
_atom_site_type_symbol
_atom_site_label
_atom_site_fract_x
_atom_site_fract_y
_atom_site_fract_z
Si Si1 0.424845 0.126948 0.742387
Si Si2 0.440968 0.360013 0.998504
Si Si3 0.260214 0.930070 0.858267
Si Si4 0.730730 0.170542 0.667632
Si Si5 0.734025 0.503508 0.102115
Si Si6 0.924284 0.580410 0.062115
Si Si7 0.108356 0.178077 0.610066
O O1 0.524573 0.117394 0.772614
O O2 0.458288 0.170116 0.687739
O O3 0.346851 0.191411 0.773160
O O4 0.392051 0.306955 0.047056
O O5 0.383535 0.453242 0.984328
O O6 0.438623 0.297720 0.946565
O O7 0.221753 0.829579 0.840171
O O8 0.317223 0.945084 0.913144
O O9 0.174044 0.003753 0.864467
O O10 0.657803 0.231349 0.634478
O O11 0.739891 0.064504 0.648690
O O12 0.824334 0.560674 0.086579
O O13 0.656059 0.577786 0.122373
O O14 0.000000 0.500000 0.077324
O O15 0.913091 0.586910 0.000000
#
# Coordination Sequence:
#
# PCOD8311308 Si02
#       7
#    16  16  16  16  16  16  16
#     4  11  25  45  73 100 133 183 232 289 349 411
#     4   9  19  37  63  96 137 186 230 268 331 415
#     4  12  24  44  71  99 138 177 231 282 347 415
#     4  12  25  44  69 103 132 180 232 288 348 413
#     4  11  23  42  65  96 137 180 226 281 344 408
#     4  11  24  41  65 101 143 182 228 287 342 409
#     4  11  23  43  65  99 137 179 226 284 338 409
#
# _framework density 21.695920000000001
#
# number of rings (size 3 to 8) (size 9 to 14) (size 15 to 20)
#    0.000    1.000    2.857    3.857    2.000    4.571 
#    0.000    0.714    0.000    1.714    0.000    0.000 
#    0.000    0.000    0.000    0.000    0.000    0.000 
#
# Total GULP energy -694117.366379 kJ/mol
# GULP energy per Si atom -12394.952971 kJ/mol
# Density = 2.164654 g / cm^3
# Si number density = 21.695920 Si / 1000 Ang^3
#
#
#
# Elastic Constant Matrix: (Units=GPa)
#
#
# Indices 1 2 3 4 5 6 
#
# 1 103.2499 -4.0285 26.3051 0.0000 0.0000 0.0000
# 2 -4.0285 103.2533 26.3063 0.0000 0.0000 0.0000
# 3 26.3051 26.3063 81.6103 0.0000 0.0000 0.0000
# 4 0.0000 0.0000 0.0000 40.6901 0.0000 0.0000
# 5 0.0000 0.0000 0.0000 0.0000 40.6900 0.0000
# 6 0.0000 0.0000 0.0000 0.0000 0.0000 43.7031
#
#
#
# Elastic Compliance Matrix: (Units=1/GPa)
#
#
# Indices 1 2 3 4 5 6 
#
# 1 0.010739 0.001417 -0.003918 0.000000 0.000000 0.000000
# 2 0.001417 0.010738 -0.003918 0.000000 0.000000 0.000000
# 3 -0.003918 -0.003918 0.014779 0.000000 0.000000 0.000000
# 4 0.000000 0.000000 0.000000 0.024576 0.000000 0.000000
# 5 0.000000 0.000000 0.000000 0.000000 0.024576 0.000000
# 6 0.000000 0.000000 0.000000 0.000000 0.000000 0.022882
#
#
# Mechanical properties :
#
#
# Convention : Reuss Voigt Hill
#
# Bulk Modulus (GPa) = 42.70201 42.80881 42.75541
# Shear Modulus (GPa) = 38.77926 40.98533 39.88230
#
# Velocity S-wave (km/s) = 4.23235 4.35107 4.29212
# Velocity P-wave (km/s) = 6.60367 6.70944 6.65676
#
# Compressibility (1/GPa) = 0.02341810
#
# Stress axis : x y z
#
# Youngs Moduli (GPa) = 93.12040 93.12300 67.66211
#
# Poissons Ratio (x) = -0.13198 0.26512
# Poissons Ratio (y) = -0.13197 0.26512
# Poissons Ratio (z) = 0.36487 0.36488
#
# Static dielectric constant tensor:
#      x y z
#    x 3.976680 0.000000 0.000000 
#    y 0.000000 3.976690 0.000000 
#    z 0.000000 0.000000 2.516020 
# 
# 
# High freq. dielectric constant tensor:
#      x y z
#    x 1.858440 0.000000 0.000000 
#    y 0.000000 1.858440 0.000000 
#    z 0.000000 0.000000 1.848140 
# 
# From -- ./inp_files/5945.got.cif
#   From: 2010.03.12/outbox.cif.g09.slc.cpg/sg120_3_cif.got.tgz:5945.got - 2010.04.06 16:00:44.
