data_PCOD8311722
_publ_section_title
;
Structure prediction by ZEFSAII (Michael W. Deem and Ramdas Pophale) SiO2 
 PCOD8311722
Probable space group: I -4 2 M
;
_chemical_formula_sum "Si O2"
_cell_formula_units_Z 52
_cell_length_a 18.000000
_cell_length_b 18.000000
_cell_length_c 18.000000
_cell_angle_alpha 90.000000
_cell_angle_beta 90.000000
_cell_angle_gamma 90.000000
_cell_volume 5832.000000
_symmetry_space_group_name_H-M "I -4 2 M"
_symmetry_group_IT_number 121
_symmetry_cell_setting 'tetragonal'
loop_
_space_group_symop_operation_xyz
x,y,z
y,-x,-z
-x,-y,z
-y,x,-z
x,-y,-z
-x,y,-z
-y,-x,z
y,x,z
1/2+x,1/2+y,1/2+z
1/2+y,1/2-x,1/2-z
1/2-x,1/2-y,1/2+z
1/2-y,1/2+x,1/2-z
1/2+x,1/2-y,1/2-z
1/2-x,1/2+y,1/2-z
1/2-y,1/2-x,1/2+z
1/2+y,1/2+x,1/2+z
loop_
_atom_site_type_symbol
_atom_site_label
_atom_site_fract_x
_atom_site_fract_y
_atom_site_fract_z
Si Si1 0.000000 0.888102 0.000000
Si Si2 0.661202 0.786082 0.604244
Si Si3 0.668311 0.446102 0.355190
Si Si4 0.046814 0.575801 0.657286
Si Si5 0.421187 0.177512 0.460241
Si Si6 0.784898 0.904416 0.825729
Si Si7 0.419802 0.159144 0.210263
O O1 0.952634 0.839301 0.055897
O O2 0.941087 0.941087 0.955794
O O3 0.729389 0.729389 0.595340
O O4 0.592357 0.748580 0.648944
O O5 0.641465 0.819886 0.523710
O O6 0.680804 0.851642 0.658918
O O7 0.605120 0.394881 0.318763
O O8 0.659006 0.526443 0.318748
O O9 0.102118 0.583832 0.587734
O O10 0.086575 0.584458 0.737258
O O11 0.000000 0.500000 0.649703
O O12 0.989950 0.645546 0.655737
O O13 0.500000 0.182781 0.500000
O O14 0.406922 0.247659 0.406798
O O15 0.826426 0.826426 0.813336
O O16 0.729081 0.926004 0.762106
#
# Coordination Sequence:
#
# PCOD8311722 Si02
#       7
#     8  16  16  16  16  16  16
#     4   9  16  26  42  66  94 125 160 196 240 293
#     4  11  22  36  53  77 110 147 184 224 270 325
#     4  10  19  31  49  71 100 137 174 213 257 306
#     4  11  21  35  58  83 109 138 178 231 281 327
#     4  11  22  35  55  82 111 143 179 223 276 330
#     4  11  22  36  53  77 110 147 184 221 265 324
#     4  11  21  37  56  77 106 145 182 226 277 324
#
# _framework density 8.9163239999999995
#
# number of rings (size 3 to 8) (size 9 to 14) (size 15 to 20)
#    0.000    1.308    3.077    4.154    0.000    4.308 
#    0.000    0.000    0.000    0.923    0.000    0.000 
#    0.000    0.000    0.000    0.000    0.000    0.923 
#
# Total GULP energy -644192.050477 kJ/mol
# GULP energy per Si atom -12388.308663 kJ/mol
# Density = 0.889603 g / cm^3
# Si number density = 8.916324 Si / 1000 Ang^3
#
#
#
# Elastic Constant Matrix: (Units=GPa)
#
#
# Indices 1 2 3 4 5 6 
#
# 1 75.2220 28.7416 26.4637 0.0000 0.0000 0.0000
# 2 28.7416 75.2223 26.4634 0.0000 0.0000 0.0000
# 3 26.4637 26.4634 55.1069 0.0000 0.0000 0.0000
# 4 0.0000 0.0000 0.0000 11.7821 0.0000 0.0000
# 5 0.0000 0.0000 0.0000 0.0000 11.7822 0.0000
# 6 0.0000 0.0000 0.0000 0.0000 0.0000 17.5961
#
#
#
# Elastic Compliance Matrix: (Units=1/GPa)
#
#
# Indices 1 2 3 4 5 6 
#
# 1 0.017123 -0.004392 -0.006114 0.000000 0.000000 0.000000
# 2 -0.004392 0.017123 -0.006114 0.000000 0.000000 0.000000
# 3 -0.006114 -0.006114 0.024019 0.000000 0.000000 0.000000
# 4 0.000000 0.000000 0.000000 0.084874 0.000000 0.000000
# 5 0.000000 0.000000 0.000000 0.000000 0.084874 0.000000
# 6 0.000000 0.000000 0.000000 0.000000 0.000000 0.056831
#
#
# Mechanical properties :
#
#
# Convention : Reuss Voigt Hill
#
# Bulk Modulus (GPa) = 39.95887 40.98761 40.47324
# Shear Modulus (GPa) = 15.31753 16.49092 15.90422
#
# Velocity S-wave (km/s) = 2.93398 3.04429 2.98964
# Velocity P-wave (km/s) = 5.82529 5.94907 5.88750
#
# Compressibility (1/GPa) = 0.02502573
#
# Stress axis : x y z
#
# Youngs Moduli (GPa) = 58.40143 58.40188 41.63450
#
# Poissons Ratio (x) = 0.25648 0.25455
# Poissons Ratio (y) = 0.25647 0.25454
# Poissons Ratio (z) = 0.35706 0.35705
#
# Static dielectric constant tensor:
#      x y z
#    x 3.545570 0.000000 0.000000 
#    y 0.000000 3.545550 0.000000 
#    z 0.000000 0.000000 3.289570 
# 
# 
# High freq. dielectric constant tensor:
#      x y z
#    x 1.687050 0.000000 0.000000 
#    y 0.000000 1.687050 0.000000 
#    z 0.000000 0.000000 1.666740 
# 
# From -- ./inp_files/5489.got.cif
#   From: 2010.03.12/outbox.ucp.g09.slc.cvg/sg121_3_cif.got.tgz:5489.got - 2010.05.04 20:24:21.
