data_PCOD8311775
_publ_section_title
;
Structure prediction by ZEFSAII (Michael W. Deem and Ramdas Pophale) SiO2 
 PCOD8311775
Probable space group: I -4 2 D
;
_chemical_formula_sum "Si O2"
_cell_formula_units_Z 72
_cell_length_a 11.428901
_cell_length_b 11.428901
_cell_length_c 27.567862
_cell_angle_alpha 90.000000
_cell_angle_beta 90.000000
_cell_angle_gamma 90.000000
_cell_volume 3600.908016
_symmetry_space_group_name_H-M "I -4 2 D"
_symmetry_group_IT_number 122
_symmetry_cell_setting 'tetragonal'
loop_
_space_group_symop_operation_xyz
x,y,z
y,-x,-z
-x,-y,z
-y,x,-z
x,1/2-y,1/4-z
-x,1/2+y,1/4-z
-y,1/2-x,1/4+z
y,1/2+x,1/4+z
1/2+x,1/2+y,1/2+z
1/2+y,1/2-x,1/2-z
1/2-x,1/2-y,1/2+z
1/2-y,1/2+x,1/2-z
1/2+x,-y,3/4-z
1/2-x,y,3/4-z
1/2-y,-x,3/4+z
1/2+y,x,3/4+z
loop_
_atom_site_type_symbol
_atom_site_label
_atom_site_fract_x
_atom_site_fract_y
_atom_site_fract_z
Si Si1 0.686307 0.281904 0.245069
Si Si2 0.341499 0.674534 0.414664
Si Si3 0.500000 0.500000 0.365328
Si Si4 0.996559 0.124241 0.307576
Si Si5 0.330805 0.563596 0.718693
O O1 0.781519 0.333450 0.282833
O O2 0.674054 0.374671 0.202049
O O3 0.560318 0.267481 0.270873
O O4 0.729070 0.161290 0.220572
O O5 0.250000 0.712891 0.375000
O O6 0.400198 0.551037 0.400805
O O7 0.434551 0.778531 0.410722
O O8 0.557333 0.603168 0.332984
O O9 0.929754 0.096781 0.257378
O O10 0.000000 0.000000 0.336546
#
# Coordination Sequence:
#
# PCOD8311775 Si02
#       5
#    16  16   8  16  16
#     4  10  20  39  62  87 116 164 204 239 295 374
#     4  11  22  36  60  86 121 154 190 254 313 346
#     4  12  22  38  57  90 124 154 184 262 319 338
#     4   9  19  39  59  81 115 161 199 238 294 360
#     4  10  19  38  63  82 122 155 198 248 294 356
#
# _framework density 19.994956999999999
#
# number of rings (size 3 to 8) (size 9 to 14) (size 15 to 20)
#    0.000    1.778    5.556    0.000    0.000    5.778 
#    0.000    6.667    0.000    0.000    0.000    0.000 
#    0.000    0.000    0.000    0.000    0.000    0.000 
#
# Total GULP energy -446292.013609 kJ/mol
# GULP energy per Si atom -12397.000378 kJ/mol
# Density = 1.994945 g / cm^3
# Si number density = 19.994957 Si / 1000 Ang^3
#
#
#
# Elastic Constant Matrix: (Units=GPa)
#
#
# Indices 1 2 3 4 5 6 
#
# 1 142.9572 93.1881 39.8869 0.0000 0.0000 0.0000
# 2 93.1881 142.9572 39.8869 0.0000 0.0000 0.0000
# 3 39.8869 39.8869 51.2122 0.0000 0.0000 0.0000
# 4 0.0000 0.0000 0.0000 24.1198 0.0000 0.0000
# 5 0.0000 0.0000 0.0000 0.0000 24.1198 0.0000
# 6 0.0000 0.0000 0.0000 0.0000 0.0000 46.4984
#
#
#
# Elastic Compliance Matrix: (Units=1/GPa)
#
#
# Indices 1 2 3 4 5 6 
#
# 1 0.012920 -0.007173 -0.004476 0.000000 0.000000 0.000000
# 2 -0.007173 0.012920 -0.004476 0.000000 0.000000 0.000000
# 3 -0.004476 -0.004476 0.026499 0.000000 0.000000 0.000000
# 4 0.000000 0.000000 0.000000 0.041460 0.000000 0.000000
# 5 0.000000 0.000000 0.000000 0.000000 0.041460 0.000000
# 6 0.000000 0.000000 0.000000 0.000000 0.000000 0.021506
#
#
# Mechanical properties :
#
#
# Convention : Reuss Voigt Hill
#
# Bulk Modulus (GPa) = 49.77931 75.89449 62.83690
# Shear Modulus (GPa) = 25.54809 29.89192 27.72000
#
# Velocity S-wave (km/s) = 3.57841 3.87068 3.72741
# Velocity P-wave (km/s) = 6.48254 7.61679 7.07244
#
# Compressibility (1/GPa) = 0.02008867
#
# Stress axis : x y z
#
# Youngs Moduli (GPa) = 77.40096 77.40096 37.73780
#
# Poissons Ratio (x) = 0.55520 0.16891
# Poissons Ratio (y) = 0.55520 0.16891
# Poissons Ratio (z) = 0.34643 0.34643
#
# Static dielectric constant tensor:
#      x y z
#    x 3.949350 0.000000 0.000000 
#    y 0.000000 3.949350 0.000000 
#    z 0.000000 0.000000 3.353920 
# 
# 
# High freq. dielectric constant tensor:
#      x y z
#    x 1.787790 0.000000 0.000000 
#    y 0.000000 1.787790 0.000000 
#    z 0.000000 0.000000 1.750040 
# 
# From -- ./inp_files/8641.got.cif
#   From: 2010.03.12/outbox.cif.g09.slc.cpg/sg122_5_cif.got.tgz:8641.got - 2010.04.06 16:17:16.
