data_PCOD8311567
_publ_section_title
;
Structure prediction by ZEFSAII (Michael W. Deem and Ramdas Pophale) SiO2 
 PCOD8311567
Probable space group: I -4 2 M
;
_chemical_formula_sum "Si O2"
_cell_formula_units_Z 72
_cell_length_a 14.302384
_cell_length_b 14.302384
_cell_length_c 18.440480
_cell_angle_alpha 90.000000
_cell_angle_beta 90.000000
_cell_angle_gamma 90.000000
_cell_volume 3772.151176
_symmetry_space_group_name_H-M "I -4 2 M"
_symmetry_group_IT_number 121
_symmetry_cell_setting 'tetragonal'
loop_
_space_group_symop_operation_xyz
x,y,z
y,-x,-z
-x,-y,z
-y,x,-z
x,-y,-z
-x,y,-z
-y,-x,z
y,x,z
1/2+x,1/2+y,1/2+z
1/2+y,1/2-x,1/2-z
1/2-x,1/2-y,1/2+z
1/2-y,1/2+x,1/2-z
1/2+x,1/2-y,1/2-z
1/2-x,1/2+y,1/2-z
1/2-y,1/2-x,1/2+z
1/2+y,1/2+x,1/2+z
loop_
_atom_site_type_symbol
_atom_site_label
_atom_site_fract_x
_atom_site_fract_y
_atom_site_fract_z
Si Si1 0.411107 0.257115 0.397655
Si Si2 0.095906 0.252607 0.624581
Si Si3 0.847105 0.000000 0.500000
Si Si4 0.051280 0.357753 0.759986
Si Si5 0.616799 0.233853 0.439882
O O1 0.351732 0.351732 0.379601
O O2 0.401766 0.179968 0.334276
O O3 0.520746 0.276614 0.409185
O O4 0.377431 0.214532 0.473898
O O5 0.174789 0.174789 0.633134
O O6 0.015612 0.216956 0.570400
O O7 0.051380 0.272815 0.702731
O O8 0.136332 0.351388 0.595384
O O9 0.909538 0.090463 0.517097
O O10 0.111907 0.444006 0.729351
O O11 0.688989 0.311012 0.415076
#
# Coordination Sequence:
#
# PCOD8311567 Si02
#       5
#    16  16   8  16  16
#     4  10  20  37  59  83 113 148 191 240 292 346
#     4  10  20  38  60  83 117 153 189 240 294 346
#     4   9  20  38  60  87 116 152 200 247 294 350
#     4  11  23  38  54  82 119 155 196 240 288 345
#     4   9  19  36  59  86 112 146 192 237 288 350
#
# _framework density 19.087250999999998
#
# number of rings (size 3 to 8) (size 9 to 14) (size 15 to 20)
#    0.000    2.111    2.222    0.667    3.111    0.444 
#    0.000    4.444    0.000    2.667    0.000    0.000 
#    0.000    0.000    0.000    0.000    0.000    0.000 
#
# Total GULP energy -446180.355109 kJ/mol
# GULP energy per Si atom -12393.898753 kJ/mol
# Density = 1.904381 g / cm^3
# Si number density = 19.087251 Si / 1000 Ang^3
#
#
#
# Elastic Constant Matrix: (Units=GPa)
#
#
# Indices 1 2 3 4 5 6 
#
# 1 75.1069 32.4806 37.2368 0.0000 0.0000 0.0000
# 2 32.4806 75.1062 37.2363 0.0000 0.0000 0.0000
# 3 37.2368 37.2363 95.9240 0.0000 0.0000 0.0000
# 4 0.0000 0.0000 0.0000 34.1461 0.0000 0.0000
# 5 0.0000 0.0000 0.0000 0.0000 34.1459 0.0000
# 6 0.0000 0.0000 0.0000 0.0000 0.0000 23.2567
#
#
#
# Elastic Compliance Matrix: (Units=1/GPa)
#
#
# Indices 1 2 3 4 5 6 
#
# 1 0.018085 -0.005375 -0.004934 0.000000 0.000000 0.000000
# 2 -0.005375 0.018085 -0.004934 0.000000 0.000000 0.000000
# 3 -0.004934 -0.004934 0.014255 0.000000 0.000000 0.000000
# 4 0.000000 0.000000 0.000000 0.029286 0.000000 0.000000
# 5 0.000000 0.000000 0.000000 0.000000 0.029286 0.000000
# 6 0.000000 0.000000 0.000000 0.000000 0.000000 0.042998
#
#
# Mechanical properties :
#
#
# Convention : Reuss Voigt Hill
#
# Bulk Modulus (GPa) = 50.15034 51.11607 50.63321
# Shear Modulus (GPa) = 26.43712 27.58863 27.01288
#
# Velocity S-wave (km/s) = 3.72569 3.80596 3.76604
# Velocity P-wave (km/s) = 6.69619 6.79354 6.74504
#
# Compressibility (1/GPa) = 0.01994005
#
# Stress axis : x y z
#
# Youngs Moduli (GPa) = 55.29455 55.29432 70.14840
#
# Poissons Ratio (x) = 0.29720 0.34611
# Poissons Ratio (y) = 0.29720 0.34610
# Poissons Ratio (z) = 0.27282 0.27281
#
# Static dielectric constant tensor:
#      x y z
#    x 3.458120 0.000000 0.000000 
#    y 0.000000 3.458130 0.000000 
#    z 0.000000 0.000000 3.536370 
# 
# 
# High freq. dielectric constant tensor:
#      x y z
#    x 1.735000 0.000000 0.000000 
#    y 0.000000 1.735000 0.000000 
#    z 0.000000 0.000000 1.749410 
# 
# From -- ./inp_files/5176.got.cif
#   From: 2010.03.12/outbox.cif.g09.slc.cpg/sg121_3_cif.got.tgz:5176.got - 2010.04.06 16:06:48.
