data_PCOD8311785
_publ_section_title
;
Structure prediction by ZEFSAII (Michael W. Deem and Ramdas Pophale) SiO2 
 PCOD8311785
Probable space group: I -4 2 D
;
_chemical_formula_sum "Si O2"
_cell_formula_units_Z 88
_cell_length_a 11.312879
_cell_length_b 11.312879
_cell_length_c 34.518755
_cell_angle_alpha 90.000000
_cell_angle_beta 90.000000
_cell_angle_gamma 90.000000
_cell_volume 4417.752767
_symmetry_space_group_name_H-M "I -4 2 D"
_symmetry_group_IT_number 122
_symmetry_cell_setting 'tetragonal'
loop_
_space_group_symop_operation_xyz
x,y,z
y,-x,-z
-x,-y,z
-y,x,-z
x,1/2-y,1/4-z
-x,1/2+y,1/4-z
-y,1/2-x,1/4+z
y,1/2+x,1/4+z
1/2+x,1/2+y,1/2+z
1/2+y,1/2-x,1/2-z
1/2-x,1/2-y,1/2+z
1/2-y,1/2+x,1/2-z
1/2+x,-y,3/4-z
1/2-x,y,3/4-z
1/2-y,-x,3/4+z
1/2+y,x,3/4+z
loop_
_atom_site_type_symbol
_atom_site_label
_atom_site_fract_x
_atom_site_fract_y
_atom_site_fract_z
Si Si1 0.000000 0.500000 0.839008
Si Si2 0.583260 0.892081 0.471780
Si Si3 0.451603 0.631929 0.605315
Si Si4 0.661769 0.981117 0.270464
Si Si5 0.503880 0.826486 0.733277
Si Si6 0.314895 0.876237 0.112516
O O1 0.881254 0.479267 0.813348
O O2 0.981032 0.614906 0.865941
O O3 0.703630 0.951232 0.485307
O O4 0.530105 0.809304 0.505578
O O5 0.604702 0.816868 0.433423
O O6 0.500000 0.000000 0.461846
O O7 0.500000 0.500000 0.614654
O O8 0.512866 0.750000 0.625000
O O9 0.455587 0.660512 0.559900
O O10 0.321736 0.622665 0.623884
O O11 0.585193 0.864831 0.260033
O O12 0.403632 0.876489 0.762435
O O13 0.371146 0.750000 0.125000
#
# Coordination Sequence:
#
# PCOD8311785 Si02
#       6
#     8  16  16  16  16  16
#     4  10  19  40  64  88 124 170 204 266 340 390
#     4  12  24  36  64 100 124 165 226 270 320 404
#     4  11  24  46  67  98 134 176 229 285 342 400
#     4   9  22  43  62  85 128 170 210 265 334 386
#     4  11  22  44  69  86 130 182 219 263 335 402
#     4  11  21  38  66  92 129 169 214 273 336 401
#
# _framework density 19.919630999999999
#
# number of rings (size 3 to 8) (size 9 to 14) (size 15 to 20)
#    0.000    1.455    6.364    0.000    2.545    0.727 
#    9.818    0.909    0.000    0.000    0.000    0.000 
#    0.000    0.000    0.000    0.000    0.000    0.000 
#
# Total GULP energy -545336.465005 kJ/mol
# GULP energy per Si atom -12394.010568 kJ/mol
# Density = 1.987429 g / cm^3
# Si number density = 19.919631 Si / 1000 Ang^3
#
#
#
# Elastic Constant Matrix: (Units=GPa)
#
#
# Indices 1 2 3 4 5 6 
#
# 1 102.3147 38.8540 30.6047 0.0000 0.0000 0.0000
# 2 38.8540 102.3147 30.6047 0.0000 0.0000 0.0000
# 3 30.6047 30.6047 85.3766 0.0000 0.0000 0.0000
# 4 0.0000 0.0000 0.0000 26.8612 0.0000 0.0000
# 5 0.0000 0.0000 0.0000 0.0000 26.8612 0.0000
# 6 0.0000 0.0000 0.0000 0.0000 0.0000 27.8947
#
#
#
# Elastic Compliance Matrix: (Units=1/GPa)
#
#
# Indices 1 2 3 4 5 6 
#
# 1 0.012073 -0.003685 -0.003007 0.000000 0.000000 0.000000
# 2 -0.003685 0.012073 -0.003007 0.000000 0.000000 0.000000
# 3 -0.003007 -0.003007 0.013868 0.000000 0.000000 0.000000
# 4 0.000000 0.000000 0.000000 0.037228 0.000000 0.000000
# 5 0.000000 0.000000 0.000000 0.000000 0.037228 0.000000
# 6 0.000000 0.000000 0.000000 0.000000 0.000000 0.035849
#
#
# Mechanical properties :
#
#
# Convention : Reuss Voigt Hill
#
# Bulk Modulus (GPa) = 53.71525 54.45920 54.08723
# Shear Modulus (GPa) = 28.74855 28.98625 28.86740
#
# Velocity S-wave (km/s) = 3.80310 3.81879 3.81096
# Velocity P-wave (km/s) = 6.80510 6.84420 6.82468
#
# Compressibility (1/GPa) = 0.01861669
#
# Stress axis : x y z
#
# Youngs Moduli (GPa) = 82.83243 82.83244 72.10666
#
# Poissons Ratio (x) = 0.30526 0.21680
# Poissons Ratio (y) = 0.30526 0.21680
# Poissons Ratio (z) = 0.24904 0.24904
#
# Static dielectric constant tensor:
#      x y z
#    x 3.645440 0.000000 0.000000 
#    y 0.000000 3.645440 0.000000 
#    z 0.000000 0.000000 3.643200 
# 
# 
# High freq. dielectric constant tensor:
#      x y z
#    x 1.772440 0.000000 0.000000 
#    y 0.000000 1.772440 0.000000 
#    z 0.000000 0.000000 1.776140 
# 
# From -- ./inp_files/9493.got.cif
#   From: 2010.03.12/outbox.cif.g09.slc.cpg/sg122_5_cif.got.tgz:9493.got - 2010.04.06 16:17:16.
