data_PCOD8311888
_publ_section_title
;
Structure prediction by ZEFSAII (Michael W. Deem and Ramdas Pophale) SiO2 
 PCOD8311888
Probable space group: I -4 2 D
;
_chemical_formula_sum "Si O2"
_cell_formula_units_Z 104
_cell_length_a 17.116898
_cell_length_b 17.116898
_cell_length_c 17.417123
_cell_angle_alpha 90.000000
_cell_angle_beta 90.000000
_cell_angle_gamma 90.000000
_cell_volume 5103.011467
_symmetry_space_group_name_H-M "I -4 2 D"
_symmetry_group_IT_number 122
_symmetry_cell_setting 'tetragonal'
loop_
_space_group_symop_operation_xyz
x,y,z
y,-x,-z
-x,-y,z
-y,x,-z
x,1/2-y,1/4-z
-x,1/2+y,1/4-z
-y,1/2-x,1/4+z
y,1/2+x,1/4+z
1/2+x,1/2+y,1/2+z
1/2+y,1/2-x,1/2-z
1/2-x,1/2-y,1/2+z
1/2-y,1/2+x,1/2-z
1/2+x,-y,3/4-z
1/2-x,y,3/4-z
1/2-y,-x,3/4+z
1/2+y,x,3/4+z
loop_
_atom_site_type_symbol
_atom_site_label
_atom_site_fract_x
_atom_site_fract_y
_atom_site_fract_z
Si Si1 0.222438 0.819218 0.684621
Si Si2 0.764888 0.436598 0.062246
Si Si3 0.610107 0.887164 0.063252
Si Si4 0.887547 0.052781 0.478641
Si Si5 0.909743 0.148506 0.806844
Si Si6 0.679088 0.268304 0.425411
Si Si7 0.500000 0.500000 0.261640
O O1 0.201964 0.750000 0.625000
O O2 0.263596 0.894280 0.644970
O O3 0.142894 0.843539 0.729842
O O4 0.290554 0.789583 0.740899
O O5 0.779651 0.529431 0.064118
O O6 0.827254 0.399924 0.005465
O O7 0.680430 0.414583 0.030870
O O8 0.565210 0.862635 0.140512
O O9 0.703585 0.890361 0.073745
O O10 0.571855 0.969871 0.040450
O O11 0.962099 0.102055 0.503567
O O12 0.854103 0.154582 0.881686
O O13 0.960427 0.068738 0.811665
O O14 0.750000 0.232559 0.375000
#
# Coordination Sequence:
#
# PCOD8311888 Si02
#       7
#    16  16  16  16  16  16   8
#     4  11  24  42  68 101 132 171 224 271 331 411
#     4  11  24  39  62  97 128 173 215 268 327 396
#     4  11  22  39  62  89 134 170 215 276 326 395
#     4  11  24  35  56  92 132 175 213 254 324 399
#     4  10  25  41  69  91 136 172 220 277 340 389
#     4  10  21  43  67  97 126 175 222 280 329 393
#     4  10  24  42  61  97 128 176 218 270 334 394
#
# _framework density 20.380122
#
# number of rings (size 3 to 8) (size 9 to 14) (size 15 to 20)
#    0.000    1.385    1.538    3.231   12.923    0.000 
#    0.000    3.077    6.769    0.923    0.000    0.000 
#    0.000    0.000    0.000    0.000    0.000    0.000 
#
# Total GULP energy -644505.982522 kJ/mol
# GULP energy per Si atom -12394.345818 kJ/mol
# Density = 2.033374 g / cm^3
# Si number density = 20.380122 Si / 1000 Ang^3
#
#
#
# Elastic Constant Matrix: (Units=GPa)
#
#
# Indices 1 2 3 4 5 6 
#
# 1 98.5790 43.5174 49.5048 0.0000 0.0000 0.0000
# 2 43.5174 98.5790 49.5048 0.0000 0.0000 0.0000
# 3 49.5048 49.5048 115.7846 0.0000 0.0000 0.0000
# 4 0.0000 0.0000 0.0000 41.5280 0.0000 0.0000
# 5 0.0000 0.0000 0.0000 0.0000 41.5280 0.0000
# 6 0.0000 0.0000 0.0000 0.0000 0.0000 2.3935
#
#
#
# Elastic Compliance Matrix: (Units=1/GPa)
#
#
# Indices 1 2 3 4 5 6 
#
# 1 0.014093 -0.004069 -0.004286 0.000000 0.000000 0.000000
# 2 -0.004069 0.014093 -0.004286 0.000000 0.000000 0.000000
# 3 -0.004286 -0.004286 0.012302 0.000000 0.000000 0.000000
# 4 0.000000 0.000000 0.000000 0.024080 0.000000 0.000000
# 5 0.000000 0.000000 0.000000 0.000000 0.024080 0.000000
# 6 0.000000 0.000000 0.000000 0.000000 0.000000 0.417797
#
#
# Mechanical properties :
#
#
# Convention : Reuss Voigt Hill
#
# Bulk Modulus (GPa) = 65.76352 66.44408 66.10380
# Shear Modulus (GPa) = 9.31457 28.45092 18.88275
#
# Velocity S-wave (km/s) = 2.14017 3.74038 3.04719
# Velocity P-wave (km/s) = 6.20045 7.16429 6.69973
#
# Compressibility (1/GPa) = 0.01520600
#
# Stress axis : x y z
#
# Youngs Moduli (GPa) = 70.95940 70.95939 81.29071
#
# Poissons Ratio (x) = 0.28873 0.34839
# Poissons Ratio (y) = 0.28873 0.34839
# Poissons Ratio (z) = 0.30411 0.30411
#
# Static dielectric constant tensor:
#      x y z
#    x 3.696790 0.000000 0.000000 
#    y 0.000000 3.696790 0.000000 
#    z 0.000000 0.000000 3.721540 
# 
# 
# High freq. dielectric constant tensor:
#      x y z
#    x 1.797580 0.000000 0.000000 
#    y 0.000000 1.797580 0.000000 
#    z 0.000000 0.000000 1.792990 
# 
# From -- ./inp_files/6389.got.cif
#   From: 2010.03.12/outbox.cif.g09.slc.cpg/sg122_4_cif.got.tgz:6389.got - 2010.04.06 16:17:16.
