data_PCOD8311472
_publ_section_title
;
Structure prediction by ZEFSAII (Michael W. Deem and Ramdas Pophale) SiO2 
 PCOD8311472
Probable space group: I -4 2 M
;
_chemical_formula_sum "Si O2"
_cell_formula_units_Z 128
_cell_length_a 23.241335
_cell_length_b 23.241335
_cell_length_c 12.202492
_cell_angle_alpha 90.000000
_cell_angle_beta 90.000000
_cell_angle_gamma 90.000000
_cell_volume 6591.293839
_symmetry_space_group_name_H-M "I -4 2 M"
_symmetry_group_IT_number 121
_symmetry_cell_setting 'tetragonal'
loop_
_space_group_symop_operation_xyz
x,y,z
y,-x,-z
-x,-y,z
-y,x,-z
x,-y,-z
-x,y,-z
-y,-x,z
y,x,z
1/2+x,1/2+y,1/2+z
1/2+y,1/2-x,1/2-z
1/2-x,1/2-y,1/2+z
1/2-y,1/2+x,1/2-z
1/2+x,1/2-y,1/2-z
1/2-x,1/2+y,1/2-z
1/2-y,1/2-x,1/2+z
1/2+y,1/2+x,1/2+z
loop_
_atom_site_type_symbol
_atom_site_label
_atom_site_fract_x
_atom_site_fract_y
_atom_site_fract_z
Si Si1 0.560910 0.350054 0.995167
Si Si2 0.812383 0.454737 0.812690
Si Si3 0.661606 0.863421 0.524860
Si Si4 0.077684 0.258783 0.361768
Si Si5 0.305374 0.395434 0.229349
Si Si6 0.258311 0.353126 0.637386
Si Si7 0.206982 0.058521 0.956781
Si Si8 0.160892 0.454117 0.417718
O O1 0.609280 0.390721 0.043007
O O2 0.557841 0.298854 0.081118
O O3 0.500000 0.382257 0.000000
O O4 0.570352 0.334505 0.868874
O O5 0.848872 0.420529 0.902679
O O6 0.793199 0.517613 0.852920
O O7 0.762737 0.406402 0.784831
O O8 0.854079 0.466057 0.709003
O O9 0.714846 0.874418 0.443418
O O10 0.668274 0.804011 0.593214
O O11 0.608074 0.861318 0.445378
O O12 0.107108 0.250211 0.243975
O O13 0.328230 0.328230 0.223888
O O14 0.325653 0.419972 0.347532
O O15 0.297110 0.297110 0.664274
O O16 0.291490 0.391232 0.547352
O O17 0.270724 0.039955 0.923280
O O18 0.175904 0.000000 0.000000
O O19 0.131856 0.500000 0.500000
#
# Coordination Sequence:
#
# PCOD8311472 Si02
#       8
#    16  16  16  16  16  16  16  16
#     4  11  22  37  58  87 118 157 202 253 301 349
#     4  11  20  37  62  84 115 160 209 246 293 361
#     4  11  22  37  57  88 120 157 194 245 304 362
#     4  12  22  41  62  88 119 159 212 247 291 363
#     4  10  19  33  56  84 114 148 198 252 297 342
#     4  11  24  38  57  88 128 163 193 246 316 369
#     4   9  18  35  57  81 113 159 205 244 283 357
#     4   9  19  35  56  84 115 152 194 246 294 352
#
# _framework density 19.419556
#
# number of rings (size 3 to 8) (size 9 to 14) (size 15 to 20)
#    0.000    1.500    2.500    4.875    0.000    1.625 
#    0.000    0.000    0.000    1.500    0.000    3.500 
#    0.000    3.250    0.000    0.000    0.000    0.000 
#
# Total GULP energy -792882.016406 kJ/mol
# GULP energy per Si atom -12388.781506 kJ/mol
# Density = 1.937536 g / cm^3
# Si number density = 19.419556 Si / 1000 Ang^3
#
#
#
# Elastic Constant Matrix: (Units=GPa)
#
#
# Indices 1 2 3 4 5 6 
#
# 1 63.5797 34.0560 28.2487 0.0000 0.0000 0.0000
# 2 34.0560 63.5843 28.2487 0.0000 0.0000 0.0000
# 3 28.2487 28.2487 122.7125 0.0000 0.0000 0.0000
# 4 0.0000 0.0000 0.0000 21.8626 0.0000 0.0000
# 5 0.0000 0.0000 0.0000 0.0000 21.8624 0.0000
# 6 0.0000 0.0000 0.0000 0.0000 0.0000 40.6161
#
#
#
# Elastic Compliance Matrix: (Units=1/GPa)
#
#
# Indices 1 2 3 4 5 6 
#
# 1 0.022843 -0.011026 -0.002720 0.000000 0.000000 0.000000
# 2 -0.011026 0.022841 -0.002720 0.000000 0.000000 0.000000
# 3 -0.002720 -0.002720 0.009401 0.000000 0.000000 0.000000
# 4 0.000000 0.000000 0.000000 0.045740 0.000000 0.000000
# 5 0.000000 0.000000 0.000000 0.000000 0.045741 0.000000
# 6 0.000000 0.000000 0.000000 0.000000 0.000000 0.024621
#
#
# Mechanical properties :
#
#
# Convention : Reuss Voigt Hill
#
# Bulk Modulus (GPa) = 45.14064 47.88703 46.51384
# Shear Modulus (GPa) = 23.64016 27.48976 25.56496
#
# Velocity S-wave (km/s) = 3.49282 3.76649 3.63223
# Velocity P-wave (km/s) = 6.28982 6.60515 6.44941
#
# Compressibility (1/GPa) = 0.02215299
#
# Stress axis : x y z
#
# Youngs Moduli (GPa) = 43.77688 43.78046 106.36661
#
# Poissons Ratio (x) = 0.48274 0.28934
# Poissons Ratio (y) = 0.48270 0.28930
# Poissons Ratio (z) = 0.11908 0.11907
#
# Static dielectric constant tensor:
#      x y z
#    x 3.573910 0.000000 0.000000 
#    y 0.000000 3.573880 0.000000 
#    z 0.000000 0.000000 3.827940 
# 
# 
# High freq. dielectric constant tensor:
#      x y z
#    x 1.733800 0.000000 0.000000 
#    y 0.000000 1.733800 0.000000 
#    z 0.000000 0.000000 1.783890 
# 
# From -- ./inp_files/3558.got.cif
#   From: 2010.03.12/outbox.cif.g09.slc.cpg/sg121_2_cif.got.tgz:3558.got - 2010.04.06 16:06:48.
