data_PCOD8311570
_publ_section_title
;
Structure prediction by ZEFSAII (Michael W. Deem and Ramdas Pophale) SiO2 
 PCOD8311570
Probable space group: I -4 2 M
;
_chemical_formula_sum "Si O2"
_cell_formula_units_Z 80
_cell_length_a 13.479858
_cell_length_b 13.479858
_cell_length_c 22.689421
_cell_angle_alpha 90.000000
_cell_angle_beta 90.000000
_cell_angle_gamma 90.000000
_cell_volume 4122.816904
_symmetry_space_group_name_H-M "I -4 2 M"
_symmetry_group_IT_number 121
_symmetry_cell_setting 'tetragonal'
loop_
_space_group_symop_operation_xyz
x,y,z
y,-x,-z
-x,-y,z
-y,x,-z
x,-y,-z
-x,y,-z
-y,-x,z
y,x,z
1/2+x,1/2+y,1/2+z
1/2+y,1/2-x,1/2-z
1/2-x,1/2-y,1/2+z
1/2-y,1/2+x,1/2-z
1/2+x,1/2-y,1/2-z
1/2-x,1/2+y,1/2-z
1/2-y,1/2-x,1/2+z
1/2+y,1/2+x,1/2+z
loop_
_atom_site_type_symbol
_atom_site_label
_atom_site_fract_x
_atom_site_fract_y
_atom_site_fract_z
Si Si1 0.353141 0.964613 0.241394
Si Si2 0.341741 0.506441 0.433403
Si Si3 0.296415 0.130465 0.875590
Si Si4 0.269469 0.432946 0.943209
Si Si5 0.838031 0.001995 0.679832
O O1 0.432444 0.903290 0.281332
O O2 0.345118 0.888769 0.186954
O O3 0.250985 0.984921 0.274831
O O4 0.304917 0.500000 0.500000
O O5 0.383112 0.616889 0.417792
O O6 0.430226 0.430226 0.423087
O O7 0.248303 0.476470 0.394028
O O8 0.212032 0.212032 0.868097
O O9 0.375175 0.169504 0.923777
O O10 0.356936 0.356936 0.960438
O O11 0.302054 0.500584 0.887841
O O12 0.245669 0.500000 0.000000
O O13 0.913692 0.913692 0.690585
O O14 0.891995 0.108006 0.692549
#
# Coordination Sequence:
#
# PCOD8311570 Si02
#       5
#    16  16  16  16  16
#     4  11  23  40  59  81 120 163 203 250 309 361
#     4   8  15  31  54  80 112 148 189 242 298 353
#     4  10  20  37  60  85 119 160 202 251 307 366
#     4  10  20  37  61  90 124 159 198 249 310 373
#     4  10  21  38  63  92 118 154 206 256 307 372
#
# _framework density 19.404209000000002
#
# number of rings (size 3 to 8) (size 9 to 14) (size 15 to 20)
#    0.000    2.200    2.000    1.800    0.000    2.600 
#    3.600    2.000    0.000    0.000    0.000    0.000 
#    0.000    0.000    0.000    0.000    0.000    0.000 
#
# Total GULP energy -495672.981725 kJ/mol
# GULP energy per Si atom -12391.824543 kJ/mol
# Density = 1.936004 g / cm^3
# Si number density = 19.404209 Si / 1000 Ang^3
#
#
#
# Elastic Constant Matrix: (Units=GPa)
#
#
# Indices 1 2 3 4 5 6 
#
# 1 98.9162 48.2207 52.7523 0.0000 0.0000 0.0000
# 2 48.2207 98.9148 52.7522 0.0000 0.0000 0.0000
# 3 52.7523 52.7522 94.9803 0.0000 0.0000 0.0000
# 4 0.0000 0.0000 0.0000 34.8960 0.0000 0.0000
# 5 0.0000 0.0000 0.0000 0.0000 34.9001 0.0000
# 6 0.0000 0.0000 0.0000 0.0000 0.0000 14.1580
#
#
#
# Elastic Compliance Matrix: (Units=1/GPa)
#
#
# Indices 1 2 3 4 5 6 
#
# 1 0.015510 -0.004216 -0.006273 0.000000 0.000000 0.000000
# 2 -0.004216 0.015510 -0.006273 0.000000 0.000000 0.000000
# 3 -0.006273 -0.006273 0.017497 0.000000 0.000000 0.000000
# 4 0.000000 0.000000 0.000000 0.028657 0.000000 0.000000
# 5 0.000000 0.000000 0.000000 0.000000 0.028653 0.000000
# 6 0.000000 0.000000 0.000000 0.000000 0.000000 0.070632
#
#
# Mechanical properties :
#
#
# Convention : Reuss Voigt Hill
#
# Bulk Modulus (GPa) = 66.69512 66.69574 66.69543
# Shear Modulus (GPa) = 23.25803 26.06322 24.66062
#
# Velocity S-wave (km/s) = 3.46585 3.66891 3.56882
# Velocity P-wave (km/s) = 7.10368 7.23839 7.17135
#
# Compressibility (1/GPa) = 0.01499360
#
# Stress axis : x y z
#
# Youngs Moduli (GPa) = 64.47437 64.47315 57.15411
#
# Poissons Ratio (x) = 0.27180 0.35852
# Poissons Ratio (y) = 0.27180 0.35853
# Poissons Ratio (z) = 0.40444 0.40444
#
# Static dielectric constant tensor:
#      x y z
#    x 2.361360 0.000000 0.000000 
#    y 0.000000 2.358390 0.000000 
#    z 0.000000 0.000000 4.287010 
# 
# 
# High freq. dielectric constant tensor:
#      x y z
#    x 1.755530 0.000000 0.000000 
#    y 0.000000 1.755530 0.000000 
#    z 0.000000 0.000000 1.739430 
# 
# From -- ./inp_files/6178.got.cif
#   From: 2010.03.12/outbox.cif.g09.slc.cpg/sg121_4_cif.got.tgz:6178.got - 2010.04.06 16:06:48.
