data_PCOD8311934
_publ_section_title
;
Structure prediction by ZEFSAII (Michael W. Deem and Ramdas Pophale) SiO2 
 PCOD8311934
Probable space group: I -4 2 D
;
_chemical_formula_sum "Si O2"
_cell_formula_units_Z 96
_cell_length_a 19.753514
_cell_length_b 19.753514
_cell_length_c 10.239020
_cell_angle_alpha 90.000000
_cell_angle_beta 90.000000
_cell_angle_gamma 90.000000
_cell_volume 3995.279072
_symmetry_space_group_name_H-M "I -4 2 D"
_symmetry_group_IT_number 122
_symmetry_cell_setting 'tetragonal'
loop_
_space_group_symop_operation_xyz
x,y,z
y,-x,-z
-x,-y,z
-y,x,-z
x,1/2-y,1/4-z
-x,1/2+y,1/4-z
-y,1/2-x,1/4+z
y,1/2+x,1/4+z
1/2+x,1/2+y,1/2+z
1/2+y,1/2-x,1/2-z
1/2-x,1/2-y,1/2+z
1/2-y,1/2+x,1/2-z
1/2+x,-y,3/4-z
1/2-x,y,3/4-z
1/2-y,-x,3/4+z
1/2+y,x,3/4+z
loop_
_atom_site_type_symbol
_atom_site_label
_atom_site_fract_x
_atom_site_fract_y
_atom_site_fract_z
Si Si1 0.831434 0.875682 0.639167
Si Si2 0.053149 0.714608 0.485132
Si Si3 0.403091 0.304027 0.362299
Si Si4 0.910618 0.452710 0.293750
Si Si5 0.501446 0.420110 0.825819
Si Si6 0.845976 0.377608 0.620593
O O1 0.761346 0.918917 0.635361
O O2 0.842495 0.824088 0.760223
O O3 0.896255 0.924058 0.642385
O O4 0.831309 0.837723 0.499501
O O5 0.051381 0.750000 0.625000
O O6 0.106675 0.652445 0.503185
O O7 0.976591 0.692225 0.456417
O O8 0.401745 0.355212 0.484727
O O9 0.389403 0.230748 0.426000
O O10 0.915622 0.516860 0.194321
O O11 0.891343 0.482774 0.432971
O O12 0.500000 0.500000 0.844655
O O13 0.447154 0.382438 0.918430
#
# Coordination Sequence:
#
# PCOD8311934 Si02
#       6
#    16  16  16  16  16  16
#     4  11  23  41  70 102 138 182 234 296 361 425
#     4  10  22  43  67 103 146 176 234 301 358 427
#     4  12  23  43  74  99 140 189 239 292 361 443
#     4  11  21  41  66 101 139 178 228 298 359 414
#     4  12  23  39  66 105 135 173 233 291 364 420
#     4  11  25  40  70 104 138 185 228 300 364 423
#
# _framework density 24.028359999999999
#
# number of rings (size 3 to 8) (size 9 to 14) (size 15 to 20)
#    0.000    0.833    5.000    3.500    4.667    0.667 
#    0.000    0.000   40.333    0.000    0.000    0.000 
#    0.000    0.000    0.000    0.000    0.000    0.000 
#
# Total GULP energy -594951.074656 kJ/mol
# GULP energy per Si atom -12394.814055 kJ/mol
# Density = 2.397367 g / cm^3
# Si number density = 24.028360 Si / 1000 Ang^3
#
#
#
# Elastic Constant Matrix: (Units=GPa)
#
#
# Indices 1 2 3 4 5 6 
#
# 1 78.7571 7.2320 4.4102 0.0000 0.0000 0.0000
# 2 7.2320 78.7571 4.4102 0.0000 0.0000 0.0000
# 3 4.4102 4.4102 58.9433 0.0000 0.0000 0.0000
# 4 0.0000 0.0000 0.0000 30.5053 0.0000 0.0000
# 5 0.0000 0.0000 0.0000 0.0000 30.5053 0.0000
# 6 0.0000 0.0000 0.0000 0.0000 0.0000 37.4590
#
#
#
# Elastic Compliance Matrix: (Units=1/GPa)
#
#
# Indices 1 2 3 4 5 6 
#
# 1 0.012850 -0.001131 -0.000877 0.000000 0.000000 0.000000
# 2 -0.001131 0.012850 -0.000877 0.000000 0.000000 0.000000
# 3 -0.000877 -0.000877 0.017097 0.000000 0.000000 0.000000
# 4 0.000000 0.000000 0.000000 0.032781 0.000000 0.000000
# 5 0.000000 0.000000 0.000000 0.000000 0.032781 0.000000
# 6 0.000000 0.000000 0.000000 0.000000 0.000000 0.026696
#
#
# Mechanical properties :
#
#
# Convention : Reuss Voigt Hill
#
# Bulk Modulus (GPa) = 27.00668 27.61807 27.31238
# Shear Modulus (GPa) = 32.64408 33.05426 32.84917
#
# Velocity S-wave (km/s) = 3.68987 3.71298 3.70144
# Velocity P-wave (km/s) = 5.42378 5.46814 5.44601
#
# Compressibility (1/GPa) = 0.03702787
#
# Stress axis : x y z
#
# Youngs Moduli (GPa) = 77.81974 77.81974 58.49088
#
# Poissons Ratio (x) = 0.08801 0.05129
# Poissons Ratio (y) = 0.08801 0.05129
# Poissons Ratio (z) = 0.06824 0.06824
#
# Static dielectric constant tensor:
#      x y z
#    x 4.352310 0.000000 0.000000 
#    y 0.000000 4.352310 0.000000 
#    z 0.000000 0.000000 4.128910 
# 
# 
# High freq. dielectric constant tensor:
#      x y z
#    x 1.948290 0.000000 0.000000 
#    y 0.000000 1.948290 0.000000 
#    z 0.000000 0.000000 1.942990 
# 
# From -- ./inp_files/4475.got.cif
#   From: 2010.03.12/outbox.cif.g09.slc.cpg/sg122_3_cif.got.tgz:4475.got - 2010.04.06 16:17:16.
