data_PCOD8311475
_publ_section_title
;
Structure prediction by ZEFSAII (Michael W. Deem and Ramdas Pophale) SiO2 
 PCOD8311475
Probable space group: I -4 2 M
;
_chemical_formula_sum "Si O2"
_cell_formula_units_Z 120
_cell_length_a 20.608417
_cell_length_b 20.608417
_cell_length_c 14.213474
_cell_angle_alpha 90.000000
_cell_angle_beta 90.000000
_cell_angle_gamma 90.000000
_cell_volume 6036.559788
_symmetry_space_group_name_H-M "I -4 2 M"
_symmetry_group_IT_number 121
_symmetry_cell_setting 'tetragonal'
loop_
_space_group_symop_operation_xyz
x,y,z
y,-x,-z
-x,-y,z
-y,x,-z
x,-y,-z
-x,y,-z
-y,-x,z
y,x,z
1/2+x,1/2+y,1/2+z
1/2+y,1/2-x,1/2-z
1/2-x,1/2-y,1/2+z
1/2-y,1/2+x,1/2-z
1/2+x,1/2-y,1/2-z
1/2-x,1/2+y,1/2-z
1/2-y,1/2-x,1/2+z
1/2+y,1/2+x,1/2+z
loop_
_atom_site_type_symbol
_atom_site_label
_atom_site_fract_x
_atom_site_fract_y
_atom_site_fract_z
Si Si1 0.500000 0.138636 0.000000
Si Si2 0.264724 0.157608 0.907103
Si Si3 0.491850 0.098873 0.209242
Si Si4 0.608560 0.764640 0.925487
Si Si5 0.774201 0.328465 0.389169
Si Si6 0.464530 0.757664 0.728457
Si Si7 0.628611 0.270720 0.876749
Si Si8 0.308635 0.411966 0.743168
O O1 0.517824 0.096550 0.905618
O O2 0.440426 0.181541 0.964149
O O3 0.199395 0.199395 0.890923
O O4 0.327421 0.201219 0.882722
O O5 0.261467 0.093784 0.844363
O O6 0.272993 0.130313 0.014171
O O7 0.560080 0.066416 0.239909
O O8 0.495420 0.171870 0.250591
O O9 0.578643 0.715921 0.849309
O O10 0.624639 0.717432 0.012068
O O11 0.738509 0.261492 0.418365
O O12 0.845254 0.303603 0.357843
O O13 0.739757 0.361754 0.303656
O O14 0.440532 0.727298 0.826903
O O15 0.518684 0.704916 0.692698
O O16 0.674435 0.325566 0.830769
O O17 0.382606 0.382606 0.736659
#
# Coordination Sequence:
#
# PCOD8311475 Si02
#       8
#     8  16  16  16  16  16  16  16
#     4  12  22  43  66  92 132 167 218 270 308 392
#     4  10  21  37  59  89 117 153 208 268 332 386
#     4  11  26  44  61  86 126 177 223 258 309 381
#     4  11  19  36  61  90 120 157 198 265 325 380
#     4   8  18  35  56  83 117 148 187 257 324 378
#     4  12  23  36  60  85 119 165 207 261 318 384
#     4  10  19  33  57  89 116 146 192 248 320 383
#     4  11  22  36  55  82 117 157 205 258 325 393
#
# _framework density 19.878872000000001
#
# number of rings (size 3 to 8) (size 9 to 14) (size 15 to 20)
#    0.000    1.467    2.667    4.000    1.867    2.667 
#    0.000    1.333    0.000    1.600    0.000    0.000 
#    0.000   11.733    0.000    0.000    0.000    0.400 
#
# Total GULP energy -743322.603368 kJ/mol
# GULP energy per Si atom -12388.710056 kJ/mol
# Density = 1.983363 g / cm^3
# Si number density = 19.878872 Si / 1000 Ang^3
#
#
#
# Elastic Constant Matrix: (Units=GPa)
#
#
# Indices 1 2 3 4 5 6 
#
# 1 82.1622 42.9212 22.2755 0.0000 0.0000 0.0000
# 2 42.9212 82.1633 22.2747 0.0000 0.0000 0.0000
# 3 22.2755 22.2747 65.9532 0.0000 0.0000 0.0000
# 4 0.0000 0.0000 0.0000 26.6297 0.0000 0.0000
# 5 0.0000 0.0000 0.0000 0.0000 26.6294 0.0000
# 6 0.0000 0.0000 0.0000 0.0000 0.0000 34.2559
#
#
#
# Elastic Compliance Matrix: (Units=1/GPa)
#
#
# Indices 1 2 3 4 5 6 
#
# 1 0.017286 -0.008198 -0.003070 0.000000 0.000000 0.000000
# 2 -0.008198 0.017285 -0.003069 0.000000 0.000000 0.000000
# 3 -0.003070 -0.003069 0.017236 0.000000 0.000000 0.000000
# 4 0.000000 0.000000 0.000000 0.037552 0.000000 0.000000
# 5 0.000000 0.000000 0.000000 0.000000 0.037553 0.000000
# 6 0.000000 0.000000 0.000000 0.000000 0.000000 0.029192
#
#
# Mechanical properties :
#
#
# Convention : Reuss Voigt Hill
#
# Bulk Modulus (GPa) = 43.22670 45.02462 44.12566
# Shear Modulus (GPa) = 25.97575 27.02347 26.49961
#
# Velocity S-wave (km/s) = 3.61875 3.69101 3.65506
# Velocity P-wave (km/s) = 6.26520 6.39245 6.32915
#
# Compressibility (1/GPa) = 0.02313385
#
# Stress axis : x y z
#
# Youngs Moduli (GPa) = 57.85130 57.85260 58.01967
#
# Poissons Ratio (x) = 0.47426 0.17809
# Poissons Ratio (y) = 0.47425 0.17807
# Poissons Ratio (z) = 0.17758 0.17756
#
# Static dielectric constant tensor:
#      x y z
#    x 3.587260 0.000000 0.000000 
#    y 0.000000 3.587260 0.000000 
#    z 0.000000 0.000000 3.880830 
# 
# 
# High freq. dielectric constant tensor:
#      x y z
#    x 1.756270 0.000000 0.000000 
#    y 0.000000 1.756270 0.000000 
#    z 0.000000 0.000000 1.789100 
# 
# From -- ./inp_files/4616.got.cif
#   From: 2010.03.12/outbox.cif.g09.slc.cpg/sg121_3_cif.got.tgz:4616.got - 2010.04.06 16:06:48.
