data_PCOD8311452
_publ_section_title
;
Structure prediction by ZEFSAII (Michael W. Deem and Ramdas Pophale) SiO2 
 PCOD8311452
Probable space group: I -4 2 M
;
_chemical_formula_sum "Si O2"
_cell_formula_units_Z 104
_cell_length_a 19.482541
_cell_length_b 19.482541
_cell_length_c 15.234191
_cell_angle_alpha 90.000000
_cell_angle_beta 90.000000
_cell_angle_gamma 90.000000
_cell_volume 5782.432795
_symmetry_space_group_name_H-M "I -4 2 M"
_symmetry_group_IT_number 121
_symmetry_cell_setting 'tetragonal'
loop_
_space_group_symop_operation_xyz
x,y,z
y,-x,-z
-x,-y,z
-y,x,-z
x,-y,-z
-x,y,-z
-y,-x,z
y,x,z
1/2+x,1/2+y,1/2+z
1/2+y,1/2-x,1/2-z
1/2-x,1/2-y,1/2+z
1/2-y,1/2+x,1/2-z
1/2+x,1/2-y,1/2-z
1/2-x,1/2+y,1/2-z
1/2-y,1/2-x,1/2+z
1/2+y,1/2+x,1/2+z
loop_
_atom_site_type_symbol
_atom_site_label
_atom_site_fract_x
_atom_site_fract_y
_atom_site_fract_z
Si Si1 0.859814 0.255682 0.455694
Si Si2 0.336771 0.221802 0.411348
Si Si3 0.000000 0.183199 0.500000
Si Si4 0.307751 0.807588 0.277585
Si Si5 0.683480 0.423625 0.489322
Si Si6 0.501374 0.389955 0.820700
Si Si7 0.910677 0.197960 0.785427
O O1 0.809970 0.190031 0.453640
O O2 0.843001 0.307391 0.535283
O O3 0.855020 0.297813 0.363535
O O4 0.936740 0.231073 0.472452
O O5 0.281542 0.281542 0.422312
O O6 0.352249 0.205272 0.309806
O O7 0.407614 0.247327 0.455593
O O8 0.984032 0.133595 0.581107
O O9 0.255628 0.744372 0.285887
O O10 0.384443 0.775273 0.264313
O O11 0.658946 0.500000 0.500000
O O12 0.621744 0.378257 0.527053
O O13 0.696179 0.408711 0.388936
O O14 0.580405 0.419596 0.811504
O O15 0.452251 0.452251 0.794524
O O16 0.484960 0.324451 0.755960
O O17 0.856311 0.143690 0.745026
#
# Coordination Sequence:
#
# PCOD8311452 Si02
#       7
#    16  16   8  16  16  16  16
#     4  10  19  32  50  73 102 138 177 221 277 332
#     4   9  17  32  52  73  97 131 176 226 277 323
#     4  12  22  31  46  74 109 140 176 226 272 330
#     4   9  16  29  52  74  95 129 177 232 281 317
#     4  10  20  33  50  73 104 139 177 218 261 316
#     4  10  20  32  46  66 101 150 190 217 259 327
#     4   9  17  32  50  69  97 137 182 225 266 311
#
# _framework density 17.985510000000001
#
# number of rings (size 3 to 8) (size 9 to 14) (size 15 to 20)
#    0.000    2.308    1.538    2.308    0.000    5.077 
#    0.000    3.077    0.000    0.000    0.000    0.538 
#    0.000    0.000    1.846    0.000    0.000    0.000 
#
# Total GULP energy -644317.774330 kJ/mol
# GULP energy per Si atom -12390.726429 kJ/mol
# Density = 1.794457 g / cm^3
# Si number density = 17.985510 Si / 1000 Ang^3
#
#
#
# Elastic Constant Matrix: (Units=GPa)
#
#
# Indices 1 2 3 4 5 6 
#
# 1 66.9495 46.8976 35.6599 0.0000 0.0000 0.0000
# 2 46.8976 66.9497 35.6605 0.0000 0.0000 0.0000
# 3 35.6599 35.6605 101.4230 0.0000 0.0000 0.0000
# 4 0.0000 0.0000 0.0000 25.1237 0.0000 0.0000
# 5 0.0000 0.0000 0.0000 0.0000 25.1230 0.0000
# 6 0.0000 0.0000 0.0000 0.0000 0.0000 45.6963
#
#
#
# Elastic Compliance Matrix: (Units=1/GPa)
#
#
# Indices 1 2 3 4 5 6 
#
# 1 0.030568 -0.019303 -0.003961 0.000000 0.000000 0.000000
# 2 -0.019303 0.030568 -0.003961 0.000000 0.000000 0.000000
# 3 -0.003961 -0.003961 0.012645 0.000000 0.000000 0.000000
# 4 0.000000 0.000000 0.000000 0.039803 0.000000 0.000000
# 5 0.000000 0.000000 0.000000 0.000000 0.039804 0.000000
# 6 0.000000 0.000000 0.000000 0.000000 0.000000 0.021884
#
#
# Mechanical properties :
#
#
# Convention : Reuss Voigt Hill
#
# Bulk Modulus (GPa) = 51.72823 52.41756 52.07289
# Shear Modulus (GPa) = 21.17177 26.99554 24.08365
#
# Velocity S-wave (km/s) = 3.43469 3.87843 3.66329
# Velocity P-wave (km/s) = 6.67480 7.01882 6.84897
#
# Compressibility (1/GPa) = 0.01933181
#
# Stress axis : x y z
#
# Youngs Moduli (GPa) = 32.71432 32.71419 79.08347
#
# Poissons Ratio (x) = 0.63147 0.31321
# Poissons Ratio (y) = 0.63148 0.31324
# Poissons Ratio (z) = 0.12957 0.12958
#
# Static dielectric constant tensor:
#      x y z
#    x 3.090700 0.000000 0.000000 
#    y 0.000000 3.090700 0.000000 
#    z 0.000000 0.000000 3.411970 
# 
# 
# High freq. dielectric constant tensor:
#      x y z
#    x 1.660380 0.000000 0.000000 
#    y 0.000000 1.660380 0.000000 
#    z 0.000000 0.000000 1.713660 
# 
# From -- ./inp_files/4566.got.cif
#   From: 2010.03.12/outbox.cif.g09.slc.cpg/sg121_3_cif.got.tgz:4566.got - 2010.04.06 16:06:48.
