data_PCOD8311122
_publ_section_title
;
Structure prediction by ZEFSAII (Michael W. Deem and Ramdas Pophale) SiO2 
 PCOD8311122
Probable space group: I -4 C 2
;
_chemical_formula_sum "Si O2"
_cell_formula_units_Z 112
_cell_length_a 14.801595
_cell_length_b 14.801595
_cell_length_c 29.511708
_cell_angle_alpha 90.000000
_cell_angle_beta 90.000000
_cell_angle_gamma 90.000000
_cell_volume 6465.637902
_symmetry_space_group_name_H-M "I -4 C 2"
_symmetry_group_IT_number 120
_symmetry_cell_setting 'tetragonal'
loop_
_space_group_symop_operation_xyz
x,y,z
y,-x,-z
-x,-y,z
-y,x,-z
y,x,1/2-z
-y,-x,1/2-z
-x,y,1/2+z
x,-y,1/2+z
1/2+x,1/2+y,1/2+z
1/2+y,1/2-x,1/2-z
1/2-x,1/2-y,1/2+z
1/2-y,1/2+x,1/2-z
1/2+y,1/2+x,-z
1/2-y,1/2-x,-z
1/2-x,1/2+y,z
1/2+x,1/2-y,z
loop_
_atom_site_type_symbol
_atom_site_label
_atom_site_fract_x
_atom_site_fract_y
_atom_site_fract_z
Si Si1 0.572262 0.927738 0.901541
Si Si2 0.506004 0.236408 0.656810
Si Si3 0.823857 0.182737 0.369958
Si Si4 0.799883 0.299883 0.052120
Si Si5 1.000000 0.352285 0.750000
Si Si6 0.317263 0.676143 0.369958
Si Si7 0.236408 0.506004 0.156810
O O1 0.622882 0.877118 0.942832
O O2 0.520268 0.855365 0.870902
O O3 0.500000 0.000000 0.920818
O O4 0.644635 0.979732 0.870902
O O5 0.594303 0.299141 0.658822
O O6 0.477319 0.211460 0.707609
O O7 0.429049 0.295923 0.632717
O O8 0.792187 0.166913 0.422550
O O9 0.766750 0.266750 0.349350
O O10 0.929049 0.204077 0.367283
O O11 0.707813 0.333087 0.077450
O O12 0.779806 0.279806 0.000000
O O13 0.913586 0.413586 0.761982
O O14 0.022681 0.288540 0.792391
O O15 0.405697 0.700859 0.341178
#
# Coordination Sequence:
#
# PCOD8311122 Si02
#       7
#    16  16  16  16  16  16  16
#     4  10  18  33  57  81 114 140 189 247 288 335
#     4  11  20  36  53  82 114 154 191 229 290 334
#     4   9  20  36  57  76 113 153 181 236 289 337
#     4   8  18  37  55  80 113 143 180 234 294 344
#     4  11  20  30  54  85 112 148 196 241 276 331
#     4   9  20  36  57  76 113 153 181 236 289 337
#     4  11  20  36  53  82 114 154 191 229 290 334
#
# _framework density 17.322344000000001
#
# number of rings (size 3 to 8) (size 9 to 14) (size 15 to 20)
#    0.857    1.286    2.857    2.571    0.000    2.000 
#    0.000    8.571    0.000    1.714    0.000    8.000 
#    0.000    0.000    0.000    0.000    0.000    0.000 
#
# Total GULP energy -694152.718817 kJ/mol
# GULP energy per Si atom -12395.584265 kJ/mol
# Density = 1.728292 g / cm^3
# Si number density = 17.322344 Si / 1000 Ang^3
#
#
#
# Elastic Constant Matrix: (Units=GPa)
#
#
# Indices 1 2 3 4 5 6 
#
# 1 83.2736 39.1232 21.0872 0.0000 0.0000 0.0000
# 2 39.1232 83.2736 21.0872 0.0000 0.0000 0.0000
# 3 21.0872 21.0872 92.3732 0.0000 0.0000 0.0000
# 4 0.0000 0.0000 0.0000 12.8916 0.0000 0.0000
# 5 0.0000 0.0000 0.0000 0.0000 12.8916 0.0000
# 6 0.0000 0.0000 0.0000 0.0000 0.0000 36.4836
#
#
#
# Elastic Compliance Matrix: (Units=1/GPa)
#
#
# Indices 1 2 3 4 5 6 
#
# 1 0.015759 -0.006891 -0.002024 0.000000 0.000000 0.000000
# 2 -0.006891 0.015759 -0.002024 0.000000 0.000000 0.000000
# 3 -0.002024 -0.002024 0.011750 0.000000 0.000000 0.000000
# 4 0.000000 0.000000 0.000000 0.077570 0.000000 0.000000
# 5 0.000000 0.000000 0.000000 0.000000 0.077570 0.000000
# 6 0.000000 0.000000 0.000000 0.000000 0.000000 0.027410
#
#
# Mechanical properties :
#
#
# Convention : Reuss Voigt Hill
#
# Bulk Modulus (GPa) = 46.75543 46.83508 46.79526
# Shear Modulus (GPa) = 19.62124 24.29487 21.95805
#
# Velocity S-wave (km/s) = 3.36923 3.74908 3.56422
# Velocity P-wave (km/s) = 6.49505 6.77029 6.63410
#
# Compressibility (1/GPa) = 0.02138789
#
# Stress axis : x y z
#
# Youngs Moduli (GPa) = 63.45666 63.45666 85.10719
#
# Poissons Ratio (x) = 0.43729 0.17229
# Poissons Ratio (y) = 0.43729 0.17229
# Poissons Ratio (z) = 0.12846 0.12846
#
# Static dielectric constant tensor:
#      x y z
#    x 3.132570 0.000000 0.000000 
#    y 0.000000 3.132570 0.000000 
#    z 0.000000 0.000000 2.887880 
# 
# 
# High freq. dielectric constant tensor:
#      x y z
#    x 1.663790 0.000000 0.000000 
#    y 0.000000 1.663790 0.000000 
#    z 0.000000 0.000000 1.642240 
# 
# From -- ./inp_files/6682.got.cif
#   From: 2010.03.12/outbox.cif.g09.slc.cpg/sg120_4_cif.got.tgz:6682.got - 2010.04.06 16:00:44.
