data_PCOD8311436
_publ_section_title
;
Structure prediction by ZEFSAII (Michael W. Deem and Ramdas Pophale) SiO2 
 PCOD8311436
Probable space group: I -4 2 M
;
_chemical_formula_sum "Si O2"
_cell_formula_units_Z 64
_cell_length_a 18.227203
_cell_length_b 18.227203
_cell_length_c 10.246533
_cell_angle_alpha 90.000000
_cell_angle_beta 90.000000
_cell_angle_gamma 90.000000
_cell_volume 3404.215180
_symmetry_space_group_name_H-M "I -4 2 M"
_symmetry_group_IT_number 121
_symmetry_cell_setting 'tetragonal'
loop_
_space_group_symop_operation_xyz
x,y,z
y,-x,-z
-x,-y,z
-y,x,-z
x,-y,-z
-x,y,-z
-y,-x,z
y,x,z
1/2+x,1/2+y,1/2+z
1/2+y,1/2-x,1/2-z
1/2-x,1/2-y,1/2+z
1/2-y,1/2+x,1/2-z
1/2+x,1/2-y,1/2-z
1/2-x,1/2+y,1/2-z
1/2-y,1/2-x,1/2+z
1/2+y,1/2+x,1/2+z
loop_
_atom_site_type_symbol
_atom_site_label
_atom_site_fract_x
_atom_site_fract_y
_atom_site_fract_z
Si Si1 0.904587 0.575050 0.745701
Si Si2 0.839611 0.582239 0.007275
Si Si3 0.496424 0.619918 0.355404
Si Si4 0.056833 0.177277 0.603593
O O1 0.898641 0.487880 0.729470
O O2 0.873960 0.611515 0.612436
O O3 0.853357 0.610539 0.859909
O O4 0.755834 0.583274 0.052809
O O5 0.871556 0.500000 0.000000
O O6 0.500000 0.656513 0.500000
O O7 0.416019 0.583982 0.329946
O O8 0.555331 0.555331 0.348210
O O9 0.515596 0.680551 0.244616
O O10 0.128395 0.128395 0.613354
O O11 0.000000 0.142777 0.500000
#
# Coordination Sequence:
#
# PCOD8311436 Si02
#       4
#    16  16  16  16
#     4   9  16  30  53  74  92 117 151 193 244 296
#     4   9  18  31  47  72  98 121 156 200 238 281
#     4   8  14  26  45  67  90 121 164 207 240 273
#     4  10  19  31  47  69  99 131 164 201 239 281
#
# _framework density 18.800222999999999
#
# number of rings (size 3 to 8) (size 9 to 14) (size 15 to 20)
#    0.000    3.000    0.000    2.250    0.000    4.250 
#    0.000    8.750    0.000    0.000    0.000    0.000 
#    0.000    0.000    0.000    0.000    0.000    0.000 
#
# Total GULP energy -396467.776712 kJ/mol
# GULP energy per Si atom -12389.618022 kJ/mol
# Density = 1.875743 g / cm^3
# Si number density = 18.800223 Si / 1000 Ang^3
#
#
#
# Elastic Constant Matrix: (Units=GPa)
#
#
# Indices 1 2 3 4 5 6 
#
# 1 57.8239 17.8785 50.1138 0.0000 0.0000 0.0000
# 2 17.8785 57.8234 50.1138 0.0000 0.0000 0.0000
# 3 50.1138 50.1138 185.1050 0.0000 0.0000 0.0000
# 4 0.0000 0.0000 0.0000 23.0828 0.0000 0.0000
# 5 0.0000 0.0000 0.0000 0.0000 23.0830 0.0000
# 6 0.0000 0.0000 0.0000 0.0000 0.0000 12.2649
#
#
#
# Elastic Compliance Matrix: (Units=1/GPa)
#
#
# Indices 1 2 3 4 5 6 
#
# 1 0.022812 -0.002222 -0.005574 0.000000 0.000000 0.000000
# 2 -0.002222 0.022812 -0.005574 0.000000 0.000000 0.000000
# 3 -0.005574 -0.005574 0.008421 0.000000 0.000000 0.000000
# 4 0.000000 0.000000 0.000000 0.043322 0.000000 0.000000
# 5 0.000000 0.000000 0.000000 0.000000 0.043322 0.000000
# 6 0.000000 0.000000 0.000000 0.000000 0.000000 0.081533
#
#
# Mechanical properties :
#
#
# Convention : Reuss Voigt Hill
#
# Bulk Modulus (GPa) = 36.62580 59.66270 48.14425
# Shear Modulus (GPa) = 19.37493 23.86255 21.61874
#
# Velocity S-wave (km/s) = 3.21373 3.56655 3.39473
# Velocity P-wave (km/s) = 5.77015 6.98315 6.40543
#
# Compressibility (1/GPa) = 0.02730315
#
# Stress axis : x y z
#
# Youngs Moduli (GPa) = 43.83657 43.83606 118.75569
#
# Poissons Ratio (x) = 0.09741 0.66198
# Poissons Ratio (y) = 0.09741 0.66199
# Poissons Ratio (z) = 0.24436 0.24436
#
# Static dielectric constant tensor:
#      x y z
#    x 3.059260 0.000000 0.000000 
#    y 0.000000 3.059270 0.000000 
#    z 0.000000 0.000000 4.156460 
# 
# 
# High freq. dielectric constant tensor:
#      x y z
#    x 1.689530 0.000000 0.000000 
#    y 0.000000 1.689530 0.000000 
#    z 0.000000 0.000000 1.758680 
# 
# From -- ./inp_files/1558.got.cif
#   From: 2010.03.12/outbox.cif.g09.slc.cpg/sg121_1_cif.got.tgz:1558.got - 2010.04.06 16:06:48.
