data_PCOD8311795
_publ_section_title
;
Structure prediction by ZEFSAII (Michael W. Deem and Ramdas Pophale) SiO2 
 PCOD8311795
Probable space group: I -4 2 D
;
_chemical_formula_sum "Si O2"
_cell_formula_units_Z 80
_cell_length_a 28.730260
_cell_length_b 28.730260
_cell_length_c 5.039141
_cell_angle_alpha 90.000000
_cell_angle_beta 90.000000
_cell_angle_gamma 90.000000
_cell_volume 4159.447269
_symmetry_space_group_name_H-M "I -4 2 D"
_symmetry_group_IT_number 122
_symmetry_cell_setting 'tetragonal'
loop_
_space_group_symop_operation_xyz
x,y,z
y,-x,-z
-x,-y,z
-y,x,-z
x,1/2-y,1/4-z
-x,1/2+y,1/4-z
-y,1/2-x,1/4+z
y,1/2+x,1/4+z
1/2+x,1/2+y,1/2+z
1/2+y,1/2-x,1/2-z
1/2-x,1/2-y,1/2+z
1/2-y,1/2+x,1/2-z
1/2+x,-y,3/4-z
1/2-x,y,3/4-z
1/2-y,-x,3/4+z
1/2+y,x,3/4+z
loop_
_atom_site_type_symbol
_atom_site_label
_atom_site_fract_x
_atom_site_fract_y
_atom_site_fract_z
Si Si1 0.719615 0.303915 0.122545
Si Si2 0.649635 0.378289 0.975812
Si Si3 0.998896 0.858360 0.021908
Si Si4 0.197410 0.525713 0.778256
Si Si5 0.401378 0.096575 0.722861
O O1 0.706063 0.250000 0.125000
O O2 0.750000 0.318880 0.375000
O O3 0.671759 0.331320 0.090922
O O4 0.750000 0.318046 0.875000
O O5 0.687988 0.419137 0.985338
O O6 0.606163 0.386826 0.170528
O O7 0.631151 0.374158 0.675158
O O8 0.001122 0.834588 0.736453
O O9 0.956518 0.894771 0.018228
O O10 0.044531 0.889483 0.061111
O O11 0.994984 0.816917 0.240777
O O12 0.250000 0.517036 0.875000
#
# Coordination Sequence:
#
# PCOD8311795 Si02
#       5
#    16  16  16  16  16
#     4  10  20  34  53  78 108 141 180 221 262 317
#     4  10  20  35  56  79 107 141 178 224 271 315
#     4  10  21  37  57  81 109 141 179 224 271 321
#     4  10  20  35  56  81 107 139 181 222 265 318
#     4  10  21  37  56  79 108 140 179 225 272 325
#
# _framework density 19.233322999999999
#
# number of rings (size 3 to 8) (size 9 to 14) (size 15 to 20)
#    0.000    2.000    0.000    3.600    0.000    3.600 
#    0.000    6.000    0.000    7.200    0.000    0.000 
#    0.000    0.000    0.000    0.000    0.000    0.000 
#
# Total GULP energy -495897.560499 kJ/mol
# GULP energy per Si atom -12397.439012 kJ/mol
# Density = 1.918955 g / cm^3
# Si number density = 19.233323 Si / 1000 Ang^3
#
#
#
# Elastic Constant Matrix: (Units=GPa)
#
#
# Indices 1 2 3 4 5 6 
#
# 1 89.0116 60.9189 24.3688 0.0000 0.0000 0.0000
# 2 60.9189 89.0116 24.3688 0.0000 0.0000 0.0000
# 3 24.3688 24.3688 106.4679 0.0000 0.0000 0.0000
# 4 0.0000 0.0000 0.0000 24.8479 0.0000 0.0000
# 5 0.0000 0.0000 0.0000 0.0000 24.8479 0.0000
# 6 0.0000 0.0000 0.0000 0.0000 0.0000 20.3212
#
#
#
# Elastic Compliance Matrix: (Units=1/GPa)
#
#
# Indices 1 2 3 4 5 6 
#
# 1 0.021401 -0.014195 -0.001649 0.000000 0.000000 0.000000
# 2 -0.014195 0.021401 -0.001649 0.000000 0.000000 0.000000
# 3 -0.001649 -0.001649 0.010148 0.000000 0.000000 0.000000
# 4 0.000000 0.000000 0.000000 0.040245 0.000000 0.000000
# 5 0.000000 0.000000 0.000000 0.000000 0.040245 0.000000
# 6 0.000000 0.000000 0.000000 0.000000 0.000000 0.049210
#
#
# Mechanical properties :
#
#
# Convention : Reuss Voigt Hill
#
# Bulk Modulus (GPa) = 55.67296 55.97823 55.82560
# Shear Modulus (GPa) = 22.35893 25.65904 24.00898
#
# Velocity S-wave (km/s) = 3.41326 3.65649 3.53696
# Velocity P-wave (km/s) = 6.67403 6.85526 6.76525
#
# Compressibility (1/GPa) = 0.01796204
#
# Stress axis : x y z
#
# Youngs Moduli (GPa) = 46.72648 46.72648 98.54634
#
# Poissons Ratio (x) = 0.66329 0.16253
# Poissons Ratio (y) = 0.66329 0.16253
# Poissons Ratio (z) = 0.07707 0.07707
#
# Static dielectric constant tensor:
#      x y z
#    x 3.256090 0.000000 0.000000 
#    y 0.000000 3.256090 0.000000 
#    z 0.000000 0.000000 3.823840 
# 
# 
# High freq. dielectric constant tensor:
#      x y z
#    x 1.734330 0.000000 0.000000 
#    y 0.000000 1.734330 0.000000 
#    z 0.000000 0.000000 1.773050 
# 
# From -- ./inp_files/1304.got.cif
#   From: 2010.03.12/outbox.cif.g09.slc.cpg/sg122_1_cif.got.tgz:1304.got - 2010.04.06 16:17:16.
