data_PCOD8311046
_publ_section_title
;
Structure prediction by ZEFSAII (Michael W. Deem and Ramdas Pophale) SiO2 
 PCOD8311046
Probable space group: I -4 M 2
;
_chemical_formula_sum "Si O2"
_cell_formula_units_Z 56
_cell_length_a 11.510285
_cell_length_b 11.510285
_cell_length_c 20.583480
_cell_angle_alpha 90.000000
_cell_angle_beta 90.000000
_cell_angle_gamma 90.000000
_cell_volume 2727.036532
_symmetry_space_group_name_H-M "I -4 M 2"
_symmetry_group_IT_number 119
_symmetry_cell_setting 'tetragonal'
loop_
_space_group_symop_operation_xyz
x,y,z
y,-x,-z
-x,-y,z
-y,x,-z
y,x,-z
-y,-x,-z
-x,y,z
x,-y,z
1/2+x,1/2+y,1/2+z
1/2+y,1/2-x,1/2-z
1/2-x,1/2-y,1/2+z
1/2-y,1/2+x,1/2-z
1/2+y,1/2+x,1/2-z
1/2-y,1/2-x,1/2-z
1/2-x,1/2+y,1/2+z
1/2+x,1/2-y,1/2+z
loop_
_atom_site_type_symbol
_atom_site_label
_atom_site_fract_x
_atom_site_fract_y
_atom_site_fract_z
Si Si1 0.809585 0.000000 0.004481
Si Si2 0.000000 0.632885 0.112386
Si Si3 0.752287 0.207335 0.824100
Si Si4 0.863970 0.000000 0.137926
Si Si5 0.367389 0.362958 0.926125
O O1 0.705404 0.000000 0.954144
O O2 0.769823 0.000000 0.079308
O O3 0.882649 0.117352 0.000000
O O4 0.109862 0.660511 0.156328
O O5 0.000000 0.500000 0.090966
O O6 0.739569 0.239569 0.750000
O O7 0.724591 0.311824 0.874205
O O8 0.883378 0.159439 0.822947
O O9 0.000000 0.000000 0.113503
O O10 0.500000 0.318860 0.913040
O O11 0.363745 0.500000 0.918179
O O12 0.329248 0.329248 0.000000
#
# Coordination Sequence:
#
# PCOD8311046 Si02
#       5
#     8   8  16   8  16
#     4  11  18  42  73 100 129 174 230 278 322 402
#     4  12  27  41  66 104 141 172 220 285 352 391
#     4  12  27  43  68 100 134 177 225 280 334 410
#     4  12  24  46  74  97 132 185 231 272 341 409
#     4   9  21  44  71  98 132 176 223 275 340 408
#
# _framework density 20.535112000000002
#
# number of rings (size 3 to 8) (size 9 to 14) (size 15 to 20)
#    0.000    1.000    5.714    1.714   10.000    0.000 
#    0.000    0.714    0.000    0.000    0.000    0.000 
#    0.000    0.000    0.000    0.000    0.000    0.000 
#
# Total GULP energy -346966.797868 kJ/mol
# GULP energy per Si atom -12391.671352 kJ/mol
# Density = 2.048837 g / cm^3
# Si number density = 20.535112 Si / 1000 Ang^3
#
#
#
# Elastic Constant Matrix: (Units=GPa)
#
#
# Indices 1 2 3 4 5 6 
#
# 1 102.9219 38.6486 49.5880 0.0000 0.0000 0.0000
# 2 38.6486 102.9200 49.5874 0.0000 0.0000 0.0000
# 3 49.5880 49.5874 161.9809 0.0000 0.0000 0.0000
# 4 0.0000 0.0000 0.0000 14.3350 0.0000 0.0000
# 5 0.0000 0.0000 0.0000 0.0000 14.3310 0.0000
# 6 0.0000 0.0000 0.0000 0.0000 0.0000 29.7758
#
#
#
# Elastic Compliance Matrix: (Units=1/GPa)
#
#
# Indices 1 2 3 4 5 6 
#
# 1 0.012275 -0.003283 -0.002753 0.000000 0.000000 0.000000
# 2 -0.003283 0.012276 -0.002753 0.000000 0.000000 0.000000
# 3 -0.002753 -0.002753 0.007859 0.000000 0.000000 0.000000
# 4 0.000000 0.000000 0.000000 0.069759 0.000000 0.000000
# 5 0.000000 0.000000 0.000000 0.000000 0.069779 0.000000
# 6 0.000000 0.000000 0.000000 0.000000 0.000000 0.033584
#
#
# Mechanical properties :
#
#
# Convention : Reuss Voigt Hill
#
# Bulk Modulus (GPa) = 67.42139 71.49676 69.45907
# Shear Modulus (GPa) = 21.92462 27.02162 24.47312
#
# Velocity S-wave (km/s) = 3.27106 3.63143 3.45595
# Velocity P-wave (km/s) = 6.86804 7.24400 7.05852
#
# Compressibility (1/GPa) = 0.01483209
#
# Stress axis : x y z
#
# Youngs Moduli (GPa) = 81.46416 81.46279 127.24260
#
# Poissons Ratio (x) = 0.26747 0.35027
# Poissons Ratio (y) = 0.26747 0.35027
# Poissons Ratio (z) = 0.22425 0.22425
#
# Static dielectric constant tensor:
#      x y z
#    x 3.793730 0.000000 0.000000 
#    y 0.000000 3.793720 0.000000 
#    z 0.000000 0.000000 3.850990 
# 
# 
# High freq. dielectric constant tensor:
#      x y z
#    x 1.800770 0.000000 0.000000 
#    y 0.000000 1.800770 0.000000 
#    z 0.000000 0.000000 1.807970 
# 
# From -- ./inp_files/7291.got.cif
#   From: 2010.03.12/outbox.cif.g09.slc.cpg/sg119_4_cif.got.tgz:7291.got - 2010.04.14 02:25:26.
