data_PCOD8311854
_publ_section_title
;
Structure prediction by ZEFSAII (Michael W. Deem and Ramdas Pophale) SiO2 
 PCOD8311854
Probable space group: I -4 2 D
;
_chemical_formula_sum "Si O2"
_cell_formula_units_Z 76
_cell_length_a 14.243651
_cell_length_b 14.243651
_cell_length_c 18.526344
_cell_angle_alpha 90.000000
_cell_angle_beta 90.000000
_cell_angle_gamma 90.000000
_cell_volume 3758.654198
_symmetry_space_group_name_H-M "I -4 2 D"
_symmetry_group_IT_number 122
_symmetry_cell_setting 'tetragonal'
loop_
_space_group_symop_operation_xyz
x,y,z
y,-x,-z
-x,-y,z
-y,x,-z
x,1/2-y,1/4-z
-x,1/2+y,1/4-z
-y,1/2-x,1/4+z
y,1/2+x,1/4+z
1/2+x,1/2+y,1/2+z
1/2+y,1/2-x,1/2-z
1/2-x,1/2-y,1/2+z
1/2-y,1/2+x,1/2-z
1/2+x,-y,3/4-z
1/2-x,y,3/4-z
1/2-y,-x,3/4+z
1/2+y,x,3/4+z
loop_
_atom_site_type_symbol
_atom_site_label
_atom_site_fract_x
_atom_site_fract_y
_atom_site_fract_z
Si Si1 0.539484 0.599150 0.251203
Si Si2 0.647767 0.389498 0.894824
Si Si3 0.150289 0.402091 0.356407
Si Si4 0.783662 0.932121 0.478854
Si Si5 0.228068 0.750000 0.625000
Si Si6 0.000000 0.000000 0.000000
O O1 0.500000 0.500000 0.273693
O O2 0.599632 0.588928 0.178405
O O3 0.601548 0.627001 0.318902
O O4 0.457593 0.674314 0.235601
O O5 0.750000 0.347332 0.875000
O O6 0.659479 0.486298 0.938660
O O7 0.584800 0.319464 0.940784
O O8 0.250000 0.456959 0.375000
O O9 0.178617 0.296632 0.329531
O O10 0.083781 0.458005 0.300050
O O11 0.800880 0.837486 0.433609
#
# Coordination Sequence:
#
# PCOD8311854 Si02
#       6
#    16  16  16  16   8   4
#     4  11  23  43  64 103 134 178 233 283 353 422
#     4  10  23  40  64 101 137 176 228 278 354 417
#     4  10  26  46  74 100 142 185 238 298 363 423
#     4  11  22  41  69 101 143 182 230 292 347 424
#     4  10  20  44  68 104 140 184 230 294 358 410
#     4  12  24  56  72 108 140 182 256 296 364 456
#
# _framework density 20.220002999999998
#
# number of rings (size 3 to 8) (size 9 to 14) (size 15 to 20)
#    0.632    0.842    4.211    2.526    2.947    5.053 
#    0.000    1.053    0.000    0.000    0.000    0.000 
#    0.000    0.000    0.000    0.000    0.000    0.000 
#
# Total GULP energy -470769.891240 kJ/mol
# GULP energy per Si atom -12388.681348 kJ/mol
# Density = 2.017398 g / cm^3
# Si number density = 20.220003 Si / 1000 Ang^3
#
#
#
# Elastic Constant Matrix: (Units=GPa)
#
#
# Indices 1 2 3 4 5 6 
#
# 1 73.8703 31.7314 36.5284 0.0000 0.0000 0.0000
# 2 31.7314 73.8703 36.5284 0.0000 0.0000 0.0000
# 3 36.5284 36.5284 124.5668 0.0000 0.0000 0.0000
# 4 0.0000 0.0000 0.0000 38.6769 0.0000 0.0000
# 5 0.0000 0.0000 0.0000 0.0000 38.6769 0.0000
# 6 0.0000 0.0000 0.0000 0.0000 0.0000 20.3639
#
#
#
# Elastic Compliance Matrix: (Units=1/GPa)
#
#
# Indices 1 2 3 4 5 6 
#
# 1 0.017805 -0.005926 -0.003484 0.000000 0.000000 0.000000
# 2 -0.005926 0.017805 -0.003484 0.000000 0.000000 0.000000
# 3 -0.003484 -0.003484 0.010071 0.000000 0.000000 0.000000
# 4 0.000000 0.000000 0.000000 0.025855 0.000000 0.000000
# 5 0.000000 0.000000 0.000000 0.000000 0.025855 0.000000
# 6 0.000000 0.000000 0.000000 0.000000 0.000000 0.049107
#
#
# Mechanical properties :
#
#
# Convention : Reuss Voigt Hill
#
# Bulk Modulus (GPa) = 50.26239 53.54268 51.90254
# Shear Modulus (GPa) = 27.94604 30.71149 29.32877
#
# Velocity S-wave (km/s) = 3.72169 3.90149 3.81265
# Velocity P-wave (km/s) = 6.58633 6.84347 6.71613
#
# Compressibility (1/GPa) = 0.01989559
#
# Stress axis : x y z
#
# Youngs Moduli (GPa) = 56.16307 56.16308 99.29592
#
# Poissons Ratio (x) = 0.33281 0.34591
# Poissons Ratio (y) = 0.33281 0.34591
# Poissons Ratio (z) = 0.19565 0.19565
#
# Static dielectric constant tensor:
#      x y z
#    x 3.602440 0.000000 0.000000 
#    y 0.000000 3.602440 0.000000 
#    z 0.000000 0.000000 3.807850 
# 
# 
# High freq. dielectric constant tensor:
#      x y z
#    x 1.781710 0.000000 0.000000 
#    y 0.000000 1.781710 0.000000 
#    z 0.000000 0.000000 1.798830 
# 
# From -- ./inp_files/7128.got.cif
#   From: 2010.03.12/outbox.cif.g09.slc.cpg/sg122_4_cif.got.tgz:7128.got - 2010.04.06 16:17:16.
