data_PCOD8311001
_publ_section_title
;
Structure prediction by ZEFSAII (Michael W. Deem and Ramdas Pophale) SiO2 
 PCOD8311001
Probable space group: I -4 M 2
;
_chemical_formula_sum "Si O2"
_cell_formula_units_Z 112
_cell_length_a 14.820733
_cell_length_b 14.820733
_cell_length_c 27.520847
_cell_angle_alpha 90.000000
_cell_angle_beta 90.000000
_cell_angle_gamma 90.000000
_cell_volume 6045.067613
_symmetry_space_group_name_H-M "I -4 M 2"
_symmetry_group_IT_number 119
_symmetry_cell_setting 'tetragonal'
loop_
_space_group_symop_operation_xyz
x,y,z
y,-x,-z
-x,-y,z
-y,x,-z
y,x,-z
-y,-x,-z
-x,y,z
x,-y,z
1/2+x,1/2+y,1/2+z
1/2+y,1/2-x,1/2-z
1/2-x,1/2-y,1/2+z
1/2-y,1/2+x,1/2-z
1/2+y,1/2+x,1/2-z
1/2-y,1/2-x,1/2-z
1/2-x,1/2+y,1/2+z
1/2+x,1/2-y,1/2+z
loop_
_atom_site_type_symbol
_atom_site_label
_atom_site_fract_x
_atom_site_fract_y
_atom_site_fract_z
Si Si1 0.602396 0.603631 0.287919
Si Si2 0.824913 0.898738 0.682840
Si Si3 0.401780 0.105534 0.493233
Si Si4 0.278232 0.738766 0.348450
Si Si5 0.768334 0.288084 0.048713
Si Si6 0.601723 0.600570 0.920681
Si Si7 0.106573 0.395497 0.884438
O O1 0.500000 0.631220 0.300083
O O2 0.620432 0.500000 0.301693
O O3 0.618422 0.620291 0.231050
O O4 0.669424 0.663423 0.319176
O O5 0.750012 0.820390 0.676279
O O6 0.892604 0.892778 0.637531
O O7 0.780535 0.000000 0.684639
O O8 0.500000 0.150696 0.500541
O O9 0.339463 0.132541 0.538437
O O10 0.364434 0.132788 0.439488
O O11 0.413456 0.000000 0.493352
O O12 0.266376 0.702659 0.403503
O O13 0.334910 0.832707 0.348297
O O14 0.668732 0.329919 0.054053
O O15 0.773207 0.226794 0.000000
O O16 0.500000 0.620018 0.938716
O O17 0.631742 0.500000 0.935759
O O18 0.130356 0.500000 0.873632
O O19 0.000000 0.378930 0.876582
#
# Coordination Sequence:
#
# PCOD8311001 Si02
#       7
#    16  16  16  16  16  16  16
#     4  10  21  38  60  83 108 140 183 234 284 335
#     4   9  19  36  56  81 113 148 181 216 269 336
#     4   9  18  34  53  69  93 137 187 226 263 311
#     4  11  21  34  57  82 112 141 185 225 274 323
#     4  11  21  32  46  74 106 140 175 221 266 316
#     4   9  18  31  48  73 108 147 179 210 254 314
#     4   9  18  33  53  77 105 138 176 219 266 321
#
# _framework density 18.527501000000001
#
# number of rings (size 3 to 8) (size 9 to 14) (size 15 to 20)
#    0.000    2.286    1.429    2.571    0.000    6.857 
#    0.000    0.714    0.000    0.429    0.000    5.000 
#    0.000    0.000    0.000    0.000    0.000    0.000 
#
# Total GULP energy -694166.342315 kJ/mol
# GULP energy per Si atom -12395.827541 kJ/mol
# Density = 1.848533 g / cm^3
# Si number density = 18.527501 Si / 1000 Ang^3
#
#
#
# Elastic Constant Matrix: (Units=GPa)
#
#
# Indices 1 2 3 4 5 6 
#
# 1 86.8755 44.5464 40.4867 0.0000 0.0000 0.0000
# 2 44.5464 86.8758 40.4868 0.0000 0.0000 0.0000
# 3 40.4867 40.4868 76.4712 0.0000 0.0000 0.0000
# 4 0.0000 0.0000 0.0000 21.5411 0.0000 0.0000
# 5 0.0000 0.0000 0.0000 0.0000 21.5410 0.0000
# 6 0.0000 0.0000 0.0000 0.0000 0.0000 27.6741
#
#
#
# Elastic Compliance Matrix: (Units=1/GPa)
#
#
# Indices 1 2 3 4 5 6 
#
# 1 0.017459 -0.006166 -0.005979 0.000000 0.000000 0.000000
# 2 -0.006166 0.017459 -0.005979 0.000000 0.000000 0.000000
# 3 -0.005979 -0.005979 0.019408 0.000000 0.000000 0.000000
# 4 0.000000 0.000000 0.000000 0.046423 0.000000 0.000000
# 5 0.000000 0.000000 0.000000 0.000000 0.046423 0.000000
# 6 0.000000 0.000000 0.000000 0.000000 0.000000 0.036135
#
#
# Mechanical properties :
#
#
# Convention : Reuss Voigt Hill
#
# Bulk Modulus (GPa) = 55.31603 55.69580 55.50591
# Shear Modulus (GPa) = 22.16522 22.46474 22.31498
#
# Velocity S-wave (km/s) = 3.46257 3.48589 3.47425
# Velocity P-wave (km/s) = 6.77546 6.80649 6.79099
#
# Compressibility (1/GPa) = 0.01807794
#
# Stress axis : x y z
#
# Youngs Moduli (GPa) = 57.27829 57.27849 51.52590
#
# Poissons Ratio (x) = 0.35316 0.30807
# Poissons Ratio (y) = 0.35316 0.30807
# Poissons Ratio (z) = 0.34246 0.34246
#
# Static dielectric constant tensor:
#      x y z
#    x 3.458100 0.000000 0.000000 
#    y 0.000000 3.458080 0.000000 
#    z 0.000000 0.000000 3.455060 
# 
# 
# High freq. dielectric constant tensor:
#      x y z
#    x 1.710320 0.000000 0.000000 
#    y 0.000000 1.710320 0.000000 
#    z 0.000000 0.000000 1.711690 
# 
# From -- ./inp_files/8874.got.cif
#   From: 2010.03.12/outbox.cif.g09.slc.cpg/sg119_5_cif.got.tgz:8874.got - 2010.04.14 02:25:26.
