data_PCOD8311778
_publ_section_title
;
Structure prediction by ZEFSAII (Michael W. Deem and Ramdas Pophale) SiO2 
 PCOD8311778
Probable space group: I -4 2 D
;
_chemical_formula_sum "Si O2"
_cell_formula_units_Z 64
_cell_length_a 18.303681
_cell_length_b 18.303681
_cell_length_c 9.237760
_cell_angle_alpha 90.000000
_cell_angle_beta 90.000000
_cell_angle_gamma 90.000000
_cell_volume 3094.878125
_symmetry_space_group_name_H-M "I -4 2 D"
_symmetry_group_IT_number 122
_symmetry_cell_setting 'tetragonal'
loop_
_space_group_symop_operation_xyz
x,y,z
y,-x,-z
-x,-y,z
-y,x,-z
x,1/2-y,1/4-z
-x,1/2+y,1/4-z
-y,1/2-x,1/4+z
y,1/2+x,1/4+z
1/2+x,1/2+y,1/2+z
1/2+y,1/2-x,1/2-z
1/2-x,1/2-y,1/2+z
1/2-y,1/2+x,1/2-z
1/2+x,-y,3/4-z
1/2-x,y,3/4-z
1/2-y,-x,3/4+z
1/2+y,x,3/4+z
loop_
_atom_site_type_symbol
_atom_site_label
_atom_site_fract_x
_atom_site_fract_y
_atom_site_fract_z
Si Si1 0.182606 0.902325 0.583283
Si Si2 0.803967 0.572148 0.997838
Si Si3 0.797537 0.546175 0.506602
Si Si4 0.084787 0.344085 0.504458
O O1 0.144325 0.843499 0.688709
O O2 0.268888 0.887376 0.568042
O O3 0.147445 0.900018 0.425398
O O4 0.167362 0.980433 0.654049
O O5 0.750000 0.539576 0.875000
O O6 0.756447 0.593653 0.138956
O O7 0.856173 0.501654 0.030673
O O8 0.750000 0.514342 0.375000
O O9 0.863707 0.593342 0.437663
#
# Coordination Sequence:
#
# PCOD8311778 Si02
#       4
#    16  16  16  16
#     4  10  20  38  64  88 121 162 208 250 311 370
#     4  11  20  38  63  88 121 161 209 255 305 376
#     4  11  24  40  59  93 129 158 205 267 319 368
#     4  10  19  39  62  91 122 158 206 260 302 374
#
# _framework density 20.679327000000001
#
# number of rings (size 3 to 8) (size 9 to 14) (size 15 to 20)
#    0.000    1.500    7.500    0.000    0.000    6.000 
#    0.000    2.500    0.000    6.000    0.000    0.000 
#    0.000    0.000    0.000    0.000    0.000    0.000 
#
# Total GULP energy -396649.979530 kJ/mol
# GULP energy per Si atom -12395.311860 kJ/mol
# Density = 2.063226 g / cm^3
# Si number density = 20.679327 Si / 1000 Ang^3
#
#
#
# Elastic Constant Matrix: (Units=GPa)
#
#
# Indices 1 2 3 4 5 6 
#
# 1 86.4376 57.6292 21.2035 0.0000 0.0000 0.0000
# 2 57.6292 86.4376 21.2035 0.0000 0.0000 0.0000
# 3 21.2035 21.2035 52.8891 0.0000 0.0000 0.0000
# 4 0.0000 0.0000 0.0000 29.0014 0.0000 0.0000
# 5 0.0000 0.0000 0.0000 0.0000 29.0014 0.0000
# 6 0.0000 0.0000 0.0000 0.0000 0.0000 30.2918
#
#
#
# Elastic Compliance Matrix: (Units=1/GPa)
#
#
# Indices 1 2 3 4 5 6 
#
# 1 0.021291 -0.013421 -0.003155 0.000000 0.000000 0.000000
# 2 -0.013421 0.021291 -0.003155 0.000000 0.000000 0.000000
# 3 -0.003155 -0.003155 0.021437 0.000000 0.000000 0.000000
# 4 0.000000 0.000000 0.000000 0.034481 0.000000 0.000000
# 5 0.000000 0.000000 0.000000 0.000000 0.034481 0.000000
# 6 0.000000 0.000000 0.000000 0.000000 0.000000 0.033012
#
#
# Mechanical properties :
#
#
# Convention : Reuss Voigt Hill
#
# Bulk Modulus (GPa) = 40.72195 47.31518 44.01856
# Shear Modulus (GPa) = 23.40362 26.04076 24.72219
#
# Velocity S-wave (km/s) = 3.36778 3.55246 3.46136
# Velocity P-wave (km/s) = 5.90402 6.30530 6.10796
#
# Compressibility (1/GPa) = 0.02455678
#
# Stress axis : x y z
#
# Youngs Moduli (GPa) = 46.96809 46.96809 46.64767
#
# Poissons Ratio (x) = 0.63036 0.14718
# Poissons Ratio (y) = 0.63036 0.14718
# Poissons Ratio (z) = 0.14819 0.14819
#
# Static dielectric constant tensor:
#      x y z
#    x 3.556550 0.000000 0.000000 
#    y 0.000000 3.556550 0.000000 
#    z 0.000000 0.000000 3.763590 
# 
# 
# High freq. dielectric constant tensor:
#      x y z
#    x 1.795020 0.000000 0.000000 
#    y 0.000000 1.795020 0.000000 
#    z 0.000000 0.000000 1.805200 
# 
# From -- ./inp_files/2554.got.cif
#   From: 2010.03.12/outbox.cif.g09.slc.cpg/sg122_2_cif.got.tgz:2554.got - 2010.04.06 16:17:16.
