data_PCOD8311754
_publ_section_title
;
Structure prediction by ZEFSAII (Michael W. Deem and Ramdas Pophale) SiO2 
 PCOD8311754
Probable space group: I -4 2 D
;
_chemical_formula_sum "Si O2"
_cell_formula_units_Z 108
_cell_length_a 29.152863
_cell_length_b 29.152863
_cell_length_c 5.799767
_cell_angle_alpha 90.000000
_cell_angle_beta 90.000000
_cell_angle_gamma 90.000000
_cell_volume 4929.160618
_symmetry_space_group_name_H-M "I -4 2 D"
_symmetry_group_IT_number 122
_symmetry_cell_setting 'tetragonal'
loop_
_space_group_symop_operation_xyz
x,y,z
y,-x,-z
-x,-y,z
-y,x,-z
x,1/2-y,1/4-z
-x,1/2+y,1/4-z
-y,1/2-x,1/4+z
y,1/2+x,1/4+z
1/2+x,1/2+y,1/2+z
1/2+y,1/2-x,1/2-z
1/2-x,1/2-y,1/2+z
1/2-y,1/2+x,1/2-z
1/2+x,-y,3/4-z
1/2-x,y,3/4-z
1/2-y,-x,3/4+z
1/2+y,x,3/4+z
loop_
_atom_site_type_symbol
_atom_site_label
_atom_site_fract_x
_atom_site_fract_y
_atom_site_fract_z
Si Si1 0.775232 0.975426 0.127650
Si Si2 0.121158 0.394781 0.589222
Si Si3 0.250000 0.621906 0.875000
Si Si4 0.637461 0.822526 0.466814
Si Si5 0.500000 0.500000 0.500000
Si Si6 0.797835 0.620599 0.265366
Si Si7 0.677558 0.067368 0.654876
Si Si8 0.440835 0.025881 0.135604
O O1 0.750000 0.986023 0.375000
O O2 0.816229 0.012506 0.098043
O O3 0.750000 0.978073 0.875000
O O4 0.793174 0.923260 0.154260
O O5 0.124902 0.367500 0.824825
O O6 0.170895 0.395500 0.476575
O O7 0.082488 0.373733 0.417562
O O8 0.107017 0.447162 0.642619
O O9 0.222564 0.652362 0.683508
O O10 0.288733 0.589130 0.780050
O O11 0.679581 0.835759 0.635739
O O12 0.590459 0.809787 0.600237
O O13 0.452326 0.495846 0.361099
O O14 0.750000 0.637328 0.375000
O O15 0.483544 0.060692 0.186465
#
# Coordination Sequence:
#
# PCOD8311754 Si02
#       8
#    16  16   8  16   4  16  16  16
#     4  11  24  40  67  99 137 182 222 273 349 411
#     4  10  23  38  60  98 125 173 219 274 343 401
#     4  10  18  38  66  98 122 160 212 276 342 390
#     4  10  22  38  65  95 128 165 218 276 342 404
#     4   8  18  36  60  74 124 180 210 264 304 362
#     4  10  25  43  62  94 130 182 218 271 345 418
#     4  10  21  38  62 100 129 167 215 280 335 410
#     4   9  20  37  58  88 123 173 217 270 319 377
#
# _framework density 21.910423000000002
#
# number of rings (size 3 to 8) (size 9 to 14) (size 15 to 20)
#    0.000    2.222    0.741    1.333    6.222    8.296 
#    0.000    0.000    0.000    0.000  138.667    0.000 
#    0.000    0.000    0.000    0.000    0.000    0.000 
#
# Total GULP energy -669037.518257 kJ/mol
# GULP energy per Si atom -12389.583671 kJ/mol
# Density = 2.186055 g / cm^3
# Si number density = 21.910423 Si / 1000 Ang^3
#
#
#
# Elastic Constant Matrix: (Units=GPa)
#
#
# Indices 1 2 3 4 5 6 
#
# 1 74.7989 17.3820 18.0271 0.0000 0.0000 0.0000
# 2 17.3820 74.7989 18.0271 0.0000 0.0000 0.0000
# 3 18.0271 18.0271 102.5889 0.0000 0.0000 0.0000
# 4 0.0000 0.0000 0.0000 16.2732 0.0000 0.0000
# 5 0.0000 0.0000 0.0000 0.0000 16.2732 0.0000
# 6 0.0000 0.0000 0.0000 0.0000 0.0000 30.2175
#
#
#
# Elastic Compliance Matrix: (Units=1/GPa)
#
#
# Indices 1 2 3 4 5 6 
#
# 1 0.014533 -0.002884 -0.002047 0.000000 0.000000 0.000000
# 2 -0.002884 0.014533 -0.002047 0.000000 0.000000 0.000000
# 3 -0.002047 -0.002047 0.010467 0.000000 0.000000 0.000000
# 4 0.000000 0.000000 0.000000 0.061451 0.000000 0.000000
# 5 0.000000 0.000000 0.000000 0.000000 0.061451 0.000000
# 6 0.000000 0.000000 0.000000 0.000000 0.000000 0.033093
#
#
# Mechanical properties :
#
#
# Convention : Reuss Voigt Hill
#
# Bulk Modulus (GPa) = 39.09776 39.89545 39.49661
# Shear Modulus (GPa) = 22.93491 25.80281 24.36886
#
# Velocity S-wave (km/s) = 3.23887 3.43541 3.33859
# Velocity P-wave (km/s) = 5.64537 5.82958 5.73822
#
# Compressibility (1/GPa) = 0.02557691
#
# Stress axis : x y z
#
# Youngs Moduli (GPa) = 68.81047 68.81047 95.53808
#
# Poissons Ratio (x) = 0.19844 0.19556
# Poissons Ratio (y) = 0.19844 0.19556
# Poissons Ratio (z) = 0.14085 0.14085
#
# Static dielectric constant tensor:
#      x y z
#    x 4.021300 0.000000 0.000000 
#    y 0.000000 4.021300 0.000000 
#    z 0.000000 0.000000 4.274510 
# 
# 
# High freq. dielectric constant tensor:
#      x y z
#    x 1.843380 0.000000 0.000000 
#    y 0.000000 1.843380 0.000000 
#    z 0.000000 0.000000 1.877980 
# 
# From -- ./inp_files/1580.got.cif
#   From: 2010.03.12/outbox.cif.g09.slc.cpg/sg122_1_cif.got.tgz:1580.got - 2010.04.06 16:17:16.
