data_PCOD8311106
_publ_section_title
;
Structure prediction by ZEFSAII (Michael W. Deem and Ramdas Pophale) SiO2 
 PCOD8311106
Probable space group: I -4 C 2
;
_chemical_formula_sum "Si O2"
_cell_formula_units_Z 120
_cell_length_a 27.431981
_cell_length_b 27.431981
_cell_length_c 9.079548
_cell_angle_alpha 90.000000
_cell_angle_beta 90.000000
_cell_angle_gamma 90.000000
_cell_volume 6832.483185
_symmetry_space_group_name_H-M "I -4 C 2"
_symmetry_group_IT_number 120
_symmetry_cell_setting 'tetragonal'
loop_
_space_group_symop_operation_xyz
x,y,z
y,-x,-z
-x,-y,z
-y,x,-z
y,x,1/2-z
-y,-x,1/2-z
-x,y,1/2+z
x,-y,1/2+z
1/2+x,1/2+y,1/2+z
1/2+y,1/2-x,1/2-z
1/2-x,1/2-y,1/2+z
1/2-y,1/2+x,1/2-z
1/2+y,1/2+x,-z
1/2-y,1/2-x,-z
1/2-x,1/2+y,z
1/2+x,1/2-y,z
loop_
_atom_site_type_symbol
_atom_site_label
_atom_site_fract_x
_atom_site_fract_y
_atom_site_fract_z
Si Si1 0.250036 0.180969 0.824457
Si Si2 0.671165 0.676362 0.910826
Si Si3 0.481368 0.308903 0.209282
Si Si4 0.815775 0.062602 0.587284
Si Si5 0.772547 0.900891 0.589477
Si Si6 0.788766 0.471843 0.405687
Si Si7 0.661857 0.838143 0.000000
Si Si8 0.301394 0.058633 0.096473
O O1 0.231178 0.231178 0.750000
O O2 0.242713 0.135028 0.719558
O O3 0.307324 0.181689 0.859326
O O4 0.221189 0.174750 0.977313
O O5 0.691878 0.691878 0.750000
O O6 0.615117 0.660795 0.891240
O O7 0.699179 0.628564 0.964447
O O8 0.528659 0.335224 0.279204
O O9 0.441594 0.307172 0.339674
O O10 0.497391 0.255156 0.163125
O O11 0.459681 0.335824 0.066863
O O12 0.756837 0.066226 0.587082
O O13 0.726973 0.927198 0.511607
O O14 0.818780 0.511288 0.502234
O O15 0.818288 0.449664 0.266652
O O16 0.605281 0.829142 0.968637
#
# Coordination Sequence:
#
# PCOD8311106 Si02
#       8
#    16  16  16  16  16  16   8  16
#     4  10  23  38  49  70 112 162 195 229 262 318
#     4  11  21  31  51  74 106 144 198 236 266 323
#     4  10  16  27  49  72  96 132 177 226 283 326
#     4  10  18  31  47  72 101 140 178 230 280 323
#     4  11  19  33  54  76 103 145 192 230 272 325
#     4  10  18  34  56  81 100 141 183 232 296 313
#     4  12  22  38  56  78 114 153 204 224 272 331
#     4  10  20  33  58  77 107 143 185 235 276 332
#
# _framework density 17.56316
#
# number of rings (size 3 to 8) (size 9 to 14) (size 15 to 20)
#    0.000    1.600    6.667    2.400    0.000    0.533 
#    2.400    0.000    0.000    0.000    0.000    0.000 
#    0.000    2.133    4.800    0.000    0.000    0.000 
#
# Total GULP energy -743592.016075 kJ/mol
# GULP energy per Si atom -12393.200268 kJ/mol
# Density = 1.752319 g / cm^3
# Si number density = 17.563160 Si / 1000 Ang^3
#
#
#
# Elastic Constant Matrix: (Units=GPa)
#
#
# Indices 1 2 3 4 5 6 
#
# 1 56.9500 31.5403 34.1133 0.0000 0.0000 0.0000
# 2 31.5403 56.9507 34.1129 0.0000 0.0000 0.0000
# 3 34.1133 34.1129 130.5158 0.0000 0.0000 0.0000
# 4 0.0000 0.0000 0.0000 16.3359 0.0000 0.0000
# 5 0.0000 0.0000 0.0000 0.0000 16.3365 0.0000
# 6 0.0000 0.0000 0.0000 0.0000 0.0000 12.5581
#
#
#
# Elastic Compliance Matrix: (Units=1/GPa)
#
#
# Indices 1 2 3 4 5 6 
#
# 1 0.026754 -0.012601 -0.003699 0.000000 0.000000 0.000000
# 2 -0.012601 0.026753 -0.003699 0.000000 0.000000 0.000000
# 3 -0.003699 -0.003699 0.009596 0.000000 0.000000 0.000000
# 4 0.000000 0.000000 0.000000 0.061215 0.000000 0.000000
# 5 0.000000 0.000000 0.000000 0.000000 0.061213 0.000000
# 6 0.000000 0.000000 0.000000 0.000000 0.000000 0.079630
#
#
# Mechanical properties :
#
#
# Convention : Reuss Voigt Hill
#
# Bulk Modulus (GPa) = 43.28168 49.32771 46.30469
# Shear Modulus (GPa) = 15.98160 18.68943 17.33552
#
# Velocity S-wave (km/s) = 3.01981 3.26563 3.14513
# Velocity P-wave (km/s) = 6.07091 6.50892 6.29373
#
# Compressibility (1/GPa) = 0.02310447
#
# Stress axis : x y z
#
# Youngs Moduli (GPa) = 37.37786 37.37858 104.21462
#
# Poissons Ratio (x) = 0.47100 0.38551
# Poissons Ratio (y) = 0.47100 0.38548
# Poissons Ratio (z) = 0.13827 0.13826
#
# Static dielectric constant tensor:
#      x y z
#    x 3.060580 0.000000 0.000000 
#    y 0.000000 3.060560 0.000000 
#    z 0.000000 0.000000 3.860890 
# 
# 
# High freq. dielectric constant tensor:
#      x y z
#    x 1.638790 0.000000 0.000000 
#    y 0.000000 1.638790 0.000000 
#    z 0.000000 0.000000 1.710920 
# 
# From -- ./inp_files/1726.got.cif
#   From: 2010.03.12/outbox.cif.g09.slc.cpg/sg120_1_cif.got.tgz:1726.got - 2010.04.06 16:00:44.
