data_PCOD8311534
_publ_section_title
;
Structure prediction by ZEFSAII (Michael W. Deem and Ramdas Pophale) SiO2 
 PCOD8311534
Probable space group: I -4 2 M
;
_chemical_formula_sum "Si O2"
_cell_formula_units_Z 112
_cell_length_a 13.756655
_cell_length_b 13.756655
_cell_length_c 31.385158
_cell_angle_alpha 90.000000
_cell_angle_beta 90.000000
_cell_angle_gamma 90.000000
_cell_volume 5939.501701
_symmetry_space_group_name_H-M "I -4 2 M"
_symmetry_group_IT_number 121
_symmetry_cell_setting 'tetragonal'
loop_
_space_group_symop_operation_xyz
x,y,z
y,-x,-z
-x,-y,z
-y,x,-z
x,-y,-z
-x,y,-z
-y,-x,z
y,x,z
1/2+x,1/2+y,1/2+z
1/2+y,1/2-x,1/2-z
1/2-x,1/2-y,1/2+z
1/2-y,1/2+x,1/2-z
1/2+x,1/2-y,1/2-z
1/2-x,1/2+y,1/2-z
1/2-y,1/2-x,1/2+z
1/2+y,1/2+x,1/2+z
loop_
_atom_site_type_symbol
_atom_site_label
_atom_site_fract_x
_atom_site_fract_y
_atom_site_fract_z
Si Si1 0.157378 0.479423 0.251265
Si Si2 0.347436 0.988484 0.084222
Si Si3 0.499094 0.647099 0.549015
Si Si4 0.115246 0.725342 0.164756
Si Si5 0.001396 0.359921 0.550137
Si Si6 0.342057 0.497936 0.910471
Si Si7 0.723780 0.431336 0.177628
O O1 0.101153 0.578790 0.263921
O O2 0.221305 0.438991 0.290032
O O3 0.234909 0.498484 0.214042
O O4 0.298868 0.969322 0.130469
O O5 0.396854 0.888906 0.068757
O O6 0.260301 0.013280 0.053422
O O7 0.420724 0.079388 0.078648
O O8 0.500000 0.623924 0.500000
O O9 0.397241 0.602759 0.567955
O O10 0.589394 0.589394 0.570682
O O11 0.169927 0.830074 0.158973
O O12 0.193356 0.640262 0.161002
O O13 0.000000 0.386259 0.500000
O O14 0.015220 0.245710 0.556761
O O15 0.413438 0.586563 0.918159
O O16 0.395854 0.395854 0.920525
O O17 0.306566 0.499358 0.861677
O O18 0.631372 0.368629 0.194562
#
# Coordination Sequence:
#
# PCOD8311534 Si02
#       7
#    16  16  16  16  16  16  16
#     4   9  19  32  56  84 115 148 192 237 289 336
#     4  11  21  36  59  80 116 149 187 237 289 340
#     4   9  18  33  53  76 103 141 187 228 273 336
#     4  10  20  34  56  87 115 151 193 233 283 347
#     4  11  24  38  57  86 114 146 194 245 297 352
#     4  10  22  40  61  85 114 152 197 242 295 355
#     4   9  18  36  58  82 114 152 193 234 283 348
#
# _framework density 18.856798999999999
#
# number of rings (size 3 to 8) (size 9 to 14) (size 15 to 20)
#    0.000    2.143    1.429    2.571    2.000    3.429 
#    0.000    1.429    0.000    0.857    0.000    0.000 
#    0.000    0.000    0.000    0.000    0.000    0.000 
#
# Total GULP energy -693960.706045 kJ/mol
# GULP energy per Si atom -12392.155465 kJ/mol
# Density = 1.881388 g / cm^3
# Si number density = 18.856799 Si / 1000 Ang^3
#
#
#
# Elastic Constant Matrix: (Units=GPa)
#
#
# Indices 1 2 3 4 5 6 
#
# 1 102.5516 38.1498 40.6415 0.0000 0.0000 0.0000
# 2 38.1498 102.5500 40.6415 0.0000 0.0000 0.0000
# 3 40.6415 40.6415 82.9186 0.0000 0.0000 0.0000
# 4 0.0000 0.0000 0.0000 26.4994 0.0000 0.0000
# 5 0.0000 0.0000 0.0000 0.0000 26.4993 0.0000
# 6 0.0000 0.0000 0.0000 0.0000 0.0000 15.9302
#
#
#
# Elastic Compliance Matrix: (Units=1/GPa)
#
#
# Indices 1 2 3 4 5 6 
#
# 1 0.012721 -0.002807 -0.004859 0.000000 0.000000 0.000000
# 2 -0.002807 0.012721 -0.004860 0.000000 0.000000 0.000000
# 3 -0.004859 -0.004860 0.016824 0.000000 0.000000 0.000000
# 4 0.000000 0.000000 0.000000 0.037737 0.000000 0.000000
# 5 0.000000 0.000000 0.000000 0.000000 0.037737 0.000000
# 6 0.000000 0.000000 0.000000 0.000000 0.000000 0.062774
#
#
# Mechanical properties :
#
#
# Convention : Reuss Voigt Hill
#
# Bulk Modulus (GPa) = 58.08939 58.54287 58.31613
# Shear Modulus (GPa) = 23.66273 25.02496 24.34384
#
# Velocity S-wave (km/s) = 3.54625 3.64690 3.59693
# Velocity P-wave (km/s) = 6.90219 6.98903 6.94575
#
# Compressibility (1/GPa) = 0.01721485
#
# Stress axis : x y z
#
# Youngs Moduli (GPa) = 78.60983 78.60825 59.43996
#
# Poissons Ratio (x) = 0.22062 0.28885
# Poissons Ratio (y) = 0.22062 0.28885
# Poissons Ratio (z) = 0.38200 0.38201
#
# Static dielectric constant tensor:
#      x y z
#    x 3.509390 0.000000 0.000000 
#    y 0.000000 3.509400 0.000000 
#    z 0.000000 0.000000 3.266870 
# 
# 
# High freq. dielectric constant tensor:
#      x y z
#    x 1.731160 0.000000 0.000000 
#    y 0.000000 1.731160 0.000000 
#    z 0.000000 0.000000 1.720320 
# 
# From -- ./inp_files/7759.got.cif
#   From: 2010.03.12/outbox.cif.g09.slc.cpg/sg121_4_cif.got.tgz:7759.got - 2010.04.06 16:06:48.
