data_PCOD8311532
_publ_section_title
;
Structure prediction by ZEFSAII (Michael W. Deem and Ramdas Pophale) SiO2 
 PCOD8311532
Probable space group: I -4 2 M
;
_chemical_formula_sum "Si O2"
_cell_formula_units_Z 128
_cell_length_a 22.514095
_cell_length_b 22.514095
_cell_length_c 12.511235
_cell_angle_alpha 90.000000
_cell_angle_beta 90.000000
_cell_angle_gamma 90.000000
_cell_volume 6341.750768
_symmetry_space_group_name_H-M "I -4 2 M"
_symmetry_group_IT_number 121
_symmetry_cell_setting 'tetragonal'
loop_
_space_group_symop_operation_xyz
x,y,z
y,-x,-z
-x,-y,z
-y,x,-z
x,-y,-z
-x,y,-z
-y,-x,z
y,x,z
1/2+x,1/2+y,1/2+z
1/2+y,1/2-x,1/2-z
1/2-x,1/2-y,1/2+z
1/2-y,1/2+x,1/2-z
1/2+x,1/2-y,1/2-z
1/2-x,1/2+y,1/2-z
1/2-y,1/2-x,1/2+z
1/2+y,1/2+x,1/2+z
loop_
_atom_site_type_symbol
_atom_site_label
_atom_site_fract_x
_atom_site_fract_y
_atom_site_fract_z
Si Si1 0.470063 0.373873 0.885356
Si Si2 0.801300 0.458311 0.812542
Si Si3 0.665605 0.866044 0.521994
Si Si4 0.083569 0.250517 0.359021
Si Si5 0.328648 0.420384 0.238975
Si Si6 0.257154 0.351074 0.639656
Si Si7 0.200836 0.063517 0.970308
Si Si8 0.162346 0.451139 0.419638
O O1 0.433049 0.433049 0.856800
O O2 0.425158 0.318404 0.886120
O O3 0.520169 0.363267 0.796264
O O4 0.500000 0.381231 0.000000
O O5 0.840312 0.419008 0.892527
O O6 0.785997 0.521517 0.864207
O O7 0.739951 0.421770 0.795450
O O8 0.840794 0.467978 0.705691
O O9 0.724434 0.873010 0.450138
O O10 0.667469 0.802363 0.578555
O O11 0.609996 0.871894 0.441801
O O12 0.111371 0.260371 0.242966
O O13 0.362740 0.362740 0.190172
O O14 0.333547 0.413583 0.366654
O O15 0.291252 0.291252 0.673913
O O16 0.302498 0.389852 0.567415
O O17 0.269272 0.054882 0.945534
O O18 0.172256 0.000000 0.000000
O O19 0.134172 0.500000 0.500000
#
# Coordination Sequence:
#
# PCOD8311532 Si02
#       8
#    16  16  16  16  16  16  16  16
#     4  11  23  38  57  81 112 154 201 249 301 352
#     4  10  20  37  59  82 113 155 199 238 282 350
#     4  11  22  36  57  89 117 146 188 239 296 348
#     4  11  22  40  62  83 114 157 203 238 281 359
#     4  10  20  34  55  80 107 146 194 244 293 342
#     4  11  23  37  57  87 122 156 189 240 307 361
#     4   9  17  34  56  78 108 148 195 234 277 350
#     4   9  18  34  57  83 114 149 186 230 282 348
#
# _framework density 20.183700999999999
#
# number of rings (size 3 to 8) (size 9 to 14) (size 15 to 20)
#    0.000    1.750    0.000    7.500    0.000    2.375 
#    0.000    0.625    0.000    1.500    0.000    3.500 
#    0.000    0.000    0.000    0.000    0.000    0.000 
#
# Total GULP energy -793521.680749 kJ/mol
# GULP energy per Si atom -12398.776262 kJ/mol
# Density = 2.013776 g / cm^3
# Si number density = 20.183701 Si / 1000 Ang^3
#
#
#
# Elastic Constant Matrix: (Units=GPa)
#
#
# Indices 1 2 3 4 5 6 
#
# 1 71.7409 41.1916 31.1585 0.0000 0.0000 0.0000
# 2 41.1916 71.7409 31.1585 0.0000 0.0000 0.0000
# 3 31.1585 31.1585 101.9400 0.0000 0.0000 0.0000
# 4 0.0000 0.0000 0.0000 25.8049 0.0000 0.0000
# 5 0.0000 0.0000 0.0000 0.0000 25.8049 0.0000
# 6 0.0000 0.0000 0.0000 0.0000 0.0000 33.3434
#
#
#
# Elastic Compliance Matrix: (Units=1/GPa)
#
#
# Indices 1 2 3 4 5 6 
#
# 1 0.021693 -0.011041 -0.003256 0.000000 0.000000 0.000000
# 2 -0.011041 0.021693 -0.003256 0.000000 0.000000 0.000000
# 3 -0.003256 -0.003256 0.011800 0.000000 0.000000 0.000000
# 4 0.000000 0.000000 0.000000 0.038752 0.000000 0.000000
# 5 0.000000 0.000000 0.000000 0.000000 0.038752 0.000000
# 6 0.000000 0.000000 0.000000 0.000000 0.000000 0.029991
#
#
# Mechanical properties :
#
#
# Convention : Reuss Voigt Hill
#
# Bulk Modulus (GPa) = 49.80075 50.27098 50.03587
# Shear Modulus (GPa) = 24.45234 26.45153 25.45194
#
# Velocity S-wave (km/s) = 3.48442 3.62406 3.55493
# Velocity P-wave (km/s) = 6.39653 6.51710 6.45709
#
# Compressibility (1/GPa) = 0.02008002
#
# Stress axis : x y z
#
# Youngs Moduli (GPa) = 46.09848 46.09848 84.74650
#
# Poissons Ratio (x) = 0.50899 0.27590
# Poissons Ratio (y) = 0.50899 0.27590
# Poissons Ratio (z) = 0.15008 0.15008
#
# Static dielectric constant tensor:
#      x y z
#    x 3.601550 0.000000 0.000000 
#    y 0.000000 3.601550 0.000000 
#    z 0.000000 0.000000 3.923740 
# 
# 
# High freq. dielectric constant tensor:
#      x y z
#    x 1.773650 0.000000 0.000000 
#    y 0.000000 1.773650 0.000000 
#    z 0.000000 0.000000 1.800290 
# 
# From -- ./inp_files/3557.got.cif
#   From: 2010.03.12/outbox.cif.g09.slc.cpg/sg121_2_cif.got.tgz:3557.got - 2010.04.06 16:06:48.
