data_PCOD8311596
_publ_section_title
;
Structure prediction by ZEFSAII (Michael W. Deem and Ramdas Pophale) SiO2 
 PCOD8311596
Probable space group: I -4 2 M
;
_chemical_formula_sum "Si O2"
_cell_formula_units_Z 80
_cell_length_a 13.529605
_cell_length_b 13.529605
_cell_length_c 21.683010
_cell_angle_alpha 90.000000
_cell_angle_beta 90.000000
_cell_angle_gamma 90.000000
_cell_volume 3969.079566
_symmetry_space_group_name_H-M "I -4 2 M"
_symmetry_group_IT_number 121
_symmetry_cell_setting 'tetragonal'
loop_
_space_group_symop_operation_xyz
x,y,z
y,-x,-z
-x,-y,z
-y,x,-z
x,-y,-z
-x,y,-z
-y,-x,z
y,x,z
1/2+x,1/2+y,1/2+z
1/2+y,1/2-x,1/2-z
1/2-x,1/2-y,1/2+z
1/2-y,1/2+x,1/2-z
1/2+x,1/2-y,1/2-z
1/2-x,1/2+y,1/2-z
1/2-y,1/2-x,1/2+z
1/2+y,1/2+x,1/2+z
loop_
_atom_site_type_symbol
_atom_site_label
_atom_site_fract_x
_atom_site_fract_y
_atom_site_fract_z
Si Si1 0.658221 0.504500 0.183299
Si Si2 0.399880 0.948171 0.867057
Si Si3 0.996498 0.718864 0.430335
Si Si4 0.287894 0.130050 0.245739
Si Si5 0.800004 0.643100 0.374456
O O1 0.591518 0.408483 0.172248
O O2 0.595706 0.595706 0.211137
O O3 0.699336 0.537520 0.116711
O O4 0.744131 0.475956 0.231667
O O5 0.433114 0.878296 0.924002
O O6 0.362337 0.882365 0.810560
O O7 0.500000 0.000000 0.842684
O O8 0.313691 0.025546 0.888786
O O9 0.000000 0.757958 0.500000
O O10 0.882446 0.700036 0.413521
O O11 0.199547 0.199547 0.221972
O O12 0.345395 0.180663 0.301883
O O13 0.691979 0.691979 0.390784
#
# Coordination Sequence:
#
# PCOD8311596 Si02
#       5
#    16  16  16  16  16
#     4   9  19  35  54  79 113 155 193 230 288 357
#     4  10  22  33  54  80 106 144 190 232 283 346
#     4  10  21  36  54  79 113 148 187 240 287 341
#     4   9  19  34  49  74 112 139 173 231 287 335
#     4   9  20  35  52  74 105 143 179 229 287 342
#
# _framework density 20.155806999999999
#
# number of rings (size 3 to 8) (size 9 to 14) (size 15 to 20)
#    0.000    2.600    0.000    1.800    8.400    6.800 
#    0.000    1.000    0.000    0.000    0.000    0.000 
#    0.000    0.000    0.000    0.000    0.000    0.000 
#
# Total GULP energy -495737.783343 kJ/mol
# GULP energy per Si atom -12393.444584 kJ/mol
# Density = 2.010993 g / cm^3
# Si number density = 20.155807 Si / 1000 Ang^3
#
#
#
# Elastic Constant Matrix: (Units=GPa)
#
#
# Indices 1 2 3 4 5 6 
#
# 1 65.3194 19.0837 8.9708 0.0000 0.0000 0.0000
# 2 19.0837 65.3195 8.9706 0.0000 0.0000 0.0000
# 3 8.9708 8.9706 64.5155 0.0000 0.0000 0.0000
# 4 0.0000 0.0000 0.0000 16.2605 0.0000 0.0000
# 5 0.0000 0.0000 0.0000 0.0000 16.2604 0.0000
# 6 0.0000 0.0000 0.0000 0.0000 0.0000 34.5553
#
#
#
# Elastic Compliance Matrix: (Units=1/GPa)
#
#
# Indices 1 2 3 4 5 6 
#
# 1 0.016919 -0.004710 -0.001698 0.000000 0.000000 0.000000
# 2 -0.004710 0.016918 -0.001698 0.000000 0.000000 0.000000
# 3 -0.001698 -0.001698 0.015972 0.000000 0.000000 0.000000
# 4 0.000000 0.000000 0.000000 0.061499 0.000000 0.000000
# 5 0.000000 0.000000 0.000000 0.000000 0.061499 0.000000
# 6 0.000000 0.000000 0.000000 0.000000 0.000000 0.028939
#
#
# Mechanical properties :
#
#
# Convention : Reuss Voigt Hill
#
# Bulk Modulus (GPa) = 29.76248 29.91164 29.83706
# Shear Modulus (GPa) = 21.81919 23.95718 22.88818
#
# Velocity S-wave (km/s) = 3.29375 3.45135 3.37347
# Velocity P-wave (km/s) = 5.40955 5.54570 5.47805
#
# Compressibility (1/GPa) = 0.03359935
#
# Stress axis : x y z
#
# Youngs Moduli (GPa) = 59.10679 59.10691 62.60865
#
# Poissons Ratio (x) = 0.27838 0.10629
# Poissons Ratio (y) = 0.27838 0.10628
# Poissons Ratio (z) = 0.10034 0.10034
#
# Static dielectric constant tensor:
#      x y z
#    x 3.769200 0.000000 0.000000 
#    y 0.000000 3.769200 0.000000 
#    z 0.000000 0.000000 3.226770 
# 
# 
# High freq. dielectric constant tensor:
#      x y z
#    x 1.782110 0.000000 0.000000 
#    y 0.000000 1.782110 0.000000 
#    z 0.000000 0.000000 1.747160 
# 
# From -- ./inp_files/6222.got.cif
#   From: 2010.03.12/outbox.cif.g09.slc.cpg/sg121_4_cif.got.tgz:6222.got - 2010.04.06 16:06:48.
