data_PCOD8311702
_publ_section_title
;
Structure prediction by ZEFSAII (Michael W. Deem and Ramdas Pophale) SiO2 
 PCOD8311702
Probable space group: I -4 2 M
;
_chemical_formula_sum "Si O2"
_cell_formula_units_Z 72
_cell_length_a 21.565620
_cell_length_b 21.565620
_cell_length_c 7.830058
_cell_angle_alpha 90.000000
_cell_angle_beta 90.000000
_cell_angle_gamma 90.000000
_cell_volume 3641.571788
_symmetry_space_group_name_H-M "I -4 2 M"
_symmetry_group_IT_number 121
_symmetry_cell_setting 'tetragonal'
loop_
_space_group_symop_operation_xyz
x,y,z
y,-x,-z
-x,-y,z
-y,x,-z
x,-y,-z
-x,y,-z
-y,-x,z
y,x,z
1/2+x,1/2+y,1/2+z
1/2+y,1/2-x,1/2-z
1/2-x,1/2-y,1/2+z
1/2-y,1/2+x,1/2-z
1/2+x,1/2-y,1/2-z
1/2-x,1/2+y,1/2-z
1/2-y,1/2-x,1/2+z
1/2+y,1/2+x,1/2+z
loop_
_atom_site_type_symbol
_atom_site_label
_atom_site_fract_x
_atom_site_fract_y
_atom_site_fract_z
Si Si1 0.540854 0.711671 0.652816
Si Si2 0.239132 0.000000 0.500000
Si Si3 0.728887 0.728887 0.035231
Si Si4 0.339796 0.065524 0.013345
Si Si5 0.387793 0.193343 0.147067
Si Si6 0.181234 0.181234 0.169812
O O1 0.500000 0.682159 0.500000
O O2 0.543965 0.786021 0.642295
O O3 0.609225 0.687051 0.645565
O O4 0.508778 0.695344 0.834250
O O5 0.281457 0.939217 0.481549
O O6 0.672094 0.761595 0.136405
O O7 0.781944 0.781944 0.021161
O O8 0.706619 0.706619 0.850522
O O9 0.306743 0.088515 0.840225
O O10 0.377338 0.121779 0.094956
O O11 0.379358 0.000000 0.000000
#
# Coordination Sequence:
#
# PCOD8311702 Si02
#       6
#    16   8   8  16  16   8
#     4  11  23  42  61  96 128 170 214 256 330 395
#     4  12  22  42  65  84 130 179 208 270 316 380
#     4  12  24  36  62 106 131 161 206 269 342 388
#     4  11  23  40  61  89 125 171 218 256 317 382
#     4  12  23  39  64  91 132 167 212 265 322 380
#     4  12  24  38  64  99 133 163 218 270 332 402
#
# _framework density 19.771682999999999
#
# number of rings (size 3 to 8) (size 9 to 14) (size 15 to 20)
#    0.000    0.444    8.889    2.667    0.000    0.000 
#    0.000    0.556    0.000    0.333    0.000    0.000 
#    0.000    0.444    0.000    0.000    0.000    0.000 
#
# Total GULP energy -446153.994461 kJ/mol
# GULP energy per Si atom -12393.166513 kJ/mol
# Density = 1.972668 g / cm^3
# Si number density = 19.771683 Si / 1000 Ang^3
#
#
#
# Elastic Constant Matrix: (Units=GPa)
#
#
# Indices 1 2 3 4 5 6 
#
# 1 209.9883 -27.8971 40.1562 0.0000 0.0000 0.0000
# 2 -27.8971 209.9883 40.1562 0.0000 0.0000 0.0000
# 3 40.1562 40.1562 128.7586 0.0000 0.0000 0.0000
# 4 0.0000 0.0000 0.0000 44.8833 0.0000 0.0000
# 5 0.0000 0.0000 0.0000 0.0000 44.8833 0.0000
# 6 0.0000 0.0000 0.0000 0.0000 0.0000 17.5883
#
#
#
# Elastic Compliance Matrix: (Units=1/GPa)
#
#
# Indices 1 2 3 4 5 6 
#
# 1 0.005286 0.001082 -0.001986 0.000000 0.000000 0.000000
# 2 0.001082 0.005286 -0.001986 0.000000 0.000000 0.000000
# 3 -0.001986 -0.001986 0.009005 0.000000 0.000000 0.000000
# 4 0.000000 0.000000 0.000000 0.022280 0.000000 0.000000
# 5 0.000000 0.000000 0.000000 0.000000 0.022280 0.000000
# 6 0.000000 0.000000 0.000000 0.000000 0.000000 0.056856
#
#
# Mechanical properties :
#
#
# Convention : Reuss Voigt Hill
#
# Bulk Modulus (GPa) = 72.48012 72.61842 72.54927
# Shear Modulus (GPa) = 38.06011 54.55898 46.30955
#
# Velocity S-wave (km/s) = 4.39222 5.25875 4.84489
# Velocity P-wave (km/s) = 7.90318 8.58375 8.25049
#
# Compressibility (1/GPa) = 0.01379689
#
# Stress axis : x y z
#
# Youngs Moduli (GPa) = 189.19068 189.19068 111.04745
#
# Poissons Ratio (x) = -0.20470 0.22053
# Poissons Ratio (y) = -0.20470 0.22053
# Poissons Ratio (z) = 0.37571 0.37571
#
# Static dielectric constant tensor:
#      x y z
#    x 3.118770 0.000000 0.000000 
#    y 0.000000 3.118770 0.000000 
#    z 0.000000 0.000000 3.842620 
# 
# 
# High freq. dielectric constant tensor:
#      x y z
#    x 1.754940 0.000000 0.000000 
#    y 0.000000 1.754940 0.000000 
#    z 0.000000 0.000000 1.792180 
# 
# From -- ./inp_files/1743.got.cif
#   From: 2010.03.12/outbox.cif.g09.slc.cpg/sg121_1_cif.got.tgz:1743.got - 2010.04.06 16:06:48.
