data_PCOD8311835
_publ_section_title
;
Structure prediction by ZEFSAII (Michael W. Deem and Ramdas Pophale) SiO2 
 PCOD8311835
Probable space group: I -4 2 D
;
_chemical_formula_sum "Si O2"
_cell_formula_units_Z 96
_cell_length_a 15.667760
_cell_length_b 15.667760
_cell_length_c 21.170852
_cell_angle_alpha 90.000000
_cell_angle_beta 90.000000
_cell_angle_gamma 90.000000
_cell_volume 5196.993299
_symmetry_space_group_name_H-M "I -4 2 D"
_symmetry_group_IT_number 122
_symmetry_cell_setting 'tetragonal'
loop_
_space_group_symop_operation_xyz
x,y,z
y,-x,-z
-x,-y,z
-y,x,-z
x,1/2-y,1/4-z
-x,1/2+y,1/4-z
-y,1/2-x,1/4+z
y,1/2+x,1/4+z
1/2+x,1/2+y,1/2+z
1/2+y,1/2-x,1/2-z
1/2-x,1/2-y,1/2+z
1/2-y,1/2+x,1/2-z
1/2+x,-y,3/4-z
1/2-x,y,3/4-z
1/2-y,-x,3/4+z
1/2+y,x,3/4+z
loop_
_atom_site_type_symbol
_atom_site_label
_atom_site_fract_x
_atom_site_fract_y
_atom_site_fract_z
Si Si1 0.875188 0.957684 0.513959
Si Si2 0.781229 0.390023 0.508787
Si Si3 0.445384 0.576931 0.325089
Si Si4 0.456454 0.251932 0.896998
Si Si5 0.315546 0.714582 0.058127
Si Si6 0.955772 0.888596 0.035813
O O1 0.807334 0.904300 0.474765
O O2 0.959550 0.901502 0.528039
O O3 0.830781 0.985574 0.579172
O O4 0.871171 0.404907 0.474976
O O5 0.770897 0.443237 0.573353
O O6 0.767610 0.288908 0.519709
O O7 0.706723 0.420471 0.462990
O O8 0.500000 0.500000 0.294407
O O9 0.500083 0.661735 0.338823
O O10 0.412936 0.539935 0.391330
O O11 0.366217 0.252410 0.934571
O O12 0.345096 0.750000 0.125000
O O13 0.050509 0.894192 0.005915
#
# Coordination Sequence:
#
# PCOD8311835 Si02
#       6
#    16  16  16  16  16  16
#     4   9  17  34  60  82 114 161 197 233 297 359
#     4  11  22  38  62  90 121 152 200 249 297 351
#     4  12  23  40  61  90 121 155 195 250 295 354
#     4  10  20  39  59  86 124 155 201 245 291 359
#     4   9  19  35  59  86 117 159 193 241 293 354
#     4  11  21  41  65  83 115 157 198 238 300 358
#
# _framework density 18.472218999999999
#
# number of rings (size 3 to 8) (size 9 to 14) (size 15 to 20)
#    0.000    1.667    5.000    0.500    0.000    1.333 
#    9.000    3.333    3.667    0.000    0.000    0.000 
#    0.000    0.000    0.000    0.000    0.000    0.000 
#
# Total GULP energy -595025.554073 kJ/mol
# GULP energy per Si atom -12396.365710 kJ/mol
# Density = 1.843017 g / cm^3
# Si number density = 18.472219 Si / 1000 Ang^3
#
#
#
# Elastic Constant Matrix: (Units=GPa)
#
#
# Indices 1 2 3 4 5 6 
#
# 1 105.7749 58.0304 40.3609 0.0000 0.0000 0.0000
# 2 58.0304 105.7749 40.3609 0.0000 0.0000 0.0000
# 3 40.3609 40.3609 61.6315 0.0000 0.0000 0.0000
# 4 0.0000 0.0000 0.0000 23.4951 0.0000 0.0000
# 5 0.0000 0.0000 0.0000 0.0000 23.4951 0.0000
# 6 0.0000 0.0000 0.0000 0.0000 0.0000 28.7226
#
#
#
# Elastic Compliance Matrix: (Units=1/GPa)
#
#
# Indices 1 2 3 4 5 6 
#
# 1 0.014979 -0.005966 -0.005903 0.000000 0.000000 0.000000
# 2 -0.005966 0.014979 -0.005903 0.000000 0.000000 0.000000
# 3 -0.005903 -0.005903 0.023957 0.000000 0.000000 0.000000
# 4 0.000000 0.000000 0.000000 0.042562 0.000000 0.000000
# 5 0.000000 0.000000 0.000000 0.000000 0.042562 0.000000
# 6 0.000000 0.000000 0.000000 0.000000 0.000000 0.034816
#
#
# Mechanical properties :
#
#
# Convention : Reuss Voigt Hill
#
# Bulk Modulus (GPa) = 54.42850 61.18730 57.80790
# Shear Modulus (GPa) = 23.19952 24.10451 23.65201
#
# Velocity S-wave (km/s) = 3.54773 3.61627 3.58216
# Velocity P-wave (km/s) = 6.80521 7.11564 6.96216
#
# Compressibility (1/GPa) = 0.01837273
#
# Stress axis : x y z
#
# Youngs Moduli (GPa) = 66.75904 66.75904 41.74204
#
# Poissons Ratio (x) = 0.39826 0.24640
# Poissons Ratio (y) = 0.39826 0.24640
# Poissons Ratio (z) = 0.39407 0.39407
#
# Static dielectric constant tensor:
#      x y z
#    x 3.564240 0.000000 0.000000 
#    y 0.000000 3.564240 0.000000 
#    z 0.000000 0.000000 3.332930 
# 
# 
# High freq. dielectric constant tensor:
#      x y z
#    x 1.722690 0.000000 0.000000 
#    y 0.000000 1.722690 0.000000 
#    z 0.000000 0.000000 1.707030 
# 
# From -- ./inp_files/7272.got.cif
#   From: 2010.03.12/outbox.cif.g09.slc.cpg/sg122_4_cif.got.tgz:7272.got - 2010.04.06 16:17:16.
