data_PCOD8311878
_publ_section_title
;
Structure prediction by ZEFSAII (Michael W. Deem and Ramdas Pophale) SiO2 
 PCOD8311878
Probable space group: I -4 2 D
;
_chemical_formula_sum "Si O2"
_cell_formula_units_Z 80
_cell_length_a 16.964932
_cell_length_b 16.964932
_cell_length_c 13.616516
_cell_angle_alpha 90.000000
_cell_angle_beta 90.000000
_cell_angle_gamma 90.000000
_cell_volume 3918.954734
_symmetry_space_group_name_H-M "I -4 2 D"
_symmetry_group_IT_number 122
_symmetry_cell_setting 'tetragonal'
loop_
_space_group_symop_operation_xyz
x,y,z
y,-x,-z
-x,-y,z
-y,x,-z
x,1/2-y,1/4-z
-x,1/2+y,1/4-z
-y,1/2-x,1/4+z
y,1/2+x,1/4+z
1/2+x,1/2+y,1/2+z
1/2+y,1/2-x,1/2-z
1/2-x,1/2-y,1/2+z
1/2-y,1/2+x,1/2-z
1/2+x,-y,3/4-z
1/2-x,y,3/4-z
1/2-y,-x,3/4+z
1/2+y,x,3/4+z
loop_
_atom_site_type_symbol
_atom_site_label
_atom_site_fract_x
_atom_site_fract_y
_atom_site_fract_z
Si Si1 0.991474 0.831710 0.080995
Si Si2 0.954064 0.359437 0.381233
Si Si3 0.714246 0.088261 0.268397
Si Si4 0.075305 0.810265 0.416592
Si Si5 0.620317 0.386682 0.715710
O O1 0.959294 0.750000 0.125000
O O2 0.933796 0.899750 0.116109
O O3 0.079405 0.848622 0.120796
O O4 0.995476 0.832638 0.963997
O O5 0.903427 0.282725 0.411392
O O6 0.017568 0.384924 0.463941
O O7 0.750000 0.065799 0.375000
O O8 0.642128 0.148982 0.268021
O O9 0.785986 0.132349 0.211862
O O10 0.681266 0.010624 0.214803
O O11 0.075363 0.852058 0.310328
#
# Coordination Sequence:
#
# PCOD8311878 Si02
#       5
#    16  16  16  16  16
#     4  12  23  39  62  95 128 166 212 260 316 385
#     4  11  23  40  64  95 128 164 210 263 319 380
#     4   9  21  42  65  90 127 164 208 267 317 377
#     4  10  21  44  65  91 126 164 213 263 321 385
#     4  10  21  40  65  88 125 166 208 259 316 376
#
# _framework density 20.413606000000001
#
# number of rings (size 3 to 8) (size 9 to 14) (size 15 to 20)
#    0.000    1.600    4.000    0.600    0.000    2.800 
#   18.000    1.000    0.000    0.000    0.000    0.000 
#    0.000    0.000    0.000    0.000    0.000    0.000 
#
# Total GULP energy -495870.782272 kJ/mol
# GULP energy per Si atom -12396.769557 kJ/mol
# Density = 2.036714 g / cm^3
# Si number density = 20.413606 Si / 1000 Ang^3
#
#
#
# Elastic Constant Matrix: (Units=GPa)
#
#
# Indices 1 2 3 4 5 6 
#
# 1 85.2571 47.4895 24.7189 0.0000 0.0000 0.0000
# 2 47.4895 85.2571 24.7189 0.0000 0.0000 0.0000
# 3 24.7189 24.7189 45.4383 0.0000 0.0000 0.0000
# 4 0.0000 0.0000 0.0000 35.3933 0.0000 0.0000
# 5 0.0000 0.0000 0.0000 0.0000 35.3933 0.0000
# 6 0.0000 0.0000 0.0000 0.0000 0.0000 25.6467
#
#
#
# Elastic Compliance Matrix: (Units=1/GPa)
#
#
# Indices 1 2 3 4 5 6 
#
# 1 0.017962 -0.008515 -0.005139 0.000000 0.000000 0.000000
# 2 -0.008515 0.017962 -0.005139 0.000000 0.000000 0.000000
# 3 -0.005139 -0.005139 0.027600 0.000000 0.000000 0.000000
# 4 0.000000 0.000000 0.000000 0.028254 0.000000 0.000000
# 5 0.000000 0.000000 0.000000 0.000000 0.028254 0.000000
# 6 0.000000 0.000000 0.000000 0.000000 0.000000 0.038991
#
#
# Mechanical properties :
#
#
# Convention : Reuss Voigt Hill
#
# Bulk Modulus (GPa) = 38.55571 45.53412 42.04492
# Shear Modulus (GPa) = 24.35969 27.22167 25.79068
#
# Velocity S-wave (km/s) = 3.45817 3.65568 3.55830
# Velocity P-wave (km/s) = 5.90538 6.33821 6.12562
#
# Compressibility (1/GPa) = 0.02593649
#
# Stress axis : x y z
#
# Youngs Moduli (GPa) = 55.67172 55.67172 36.23246
#
# Poissons Ratio (x) = 0.47406 0.18621
# Poissons Ratio (y) = 0.47406 0.18621
# Poissons Ratio (z) = 0.28612 0.28612
#
# Static dielectric constant tensor:
#      x y z
#    x 3.757240 0.000000 0.000000 
#    y 0.000000 3.757240 0.000000 
#    z 0.000000 0.000000 3.808900 
# 
# 
# High freq. dielectric constant tensor:
#      x y z
#    x 1.800040 0.000000 0.000000 
#    y 0.000000 1.800040 0.000000 
#    z 0.000000 0.000000 1.792650 
# 
# From -- ./inp_files/5296.got.cif
#   From: 2010.03.12/outbox.cif.g09.slc.cpg/sg122_3_cif.got.tgz:5296.got - 2010.04.06 16:17:16.
