data_PCOD8311205
_publ_section_title
;
Structure prediction by ZEFSAII (Michael W. Deem and Ramdas Pophale) SiO2 
 PCOD8311205
Probable space group: I -4 C 2
;
_chemical_formula_sum "Si O2"
_cell_formula_units_Z 100
_cell_length_a 15.071145
_cell_length_b 15.071145
_cell_length_c 23.018199
_cell_angle_alpha 90.000000
_cell_angle_beta 90.000000
_cell_angle_gamma 90.000000
_cell_volume 5228.340177
_symmetry_space_group_name_H-M "I -4 C 2"
_symmetry_group_IT_number 120
_symmetry_cell_setting 'tetragonal'
loop_
_space_group_symop_operation_xyz
x,y,z
y,-x,-z
-x,-y,z
-y,x,-z
y,x,1/2-z
-y,-x,1/2-z
-x,y,1/2+z
x,-y,1/2+z
1/2+x,1/2+y,1/2+z
1/2+y,1/2-x,1/2-z
1/2-x,1/2-y,1/2+z
1/2-y,1/2+x,1/2-z
1/2+y,1/2+x,-z
1/2-y,1/2-x,-z
1/2-x,1/2+y,z
1/2+x,1/2-y,z
loop_
_atom_site_type_symbol
_atom_site_label
_atom_site_fract_x
_atom_site_fract_y
_atom_site_fract_z
Si Si1 0.940675 0.200279 0.325094
Si Si2 0.658203 0.540949 0.366992
Si Si3 0.296100 0.224545 0.691780
Si Si4 0.000000 0.500000 0.250000
Si Si5 0.339898 0.615258 0.114037
Si Si6 0.502908 0.194653 0.212992
Si Si7 0.619848 0.578209 0.492790
O O1 0.904103 0.098893 0.323901
O O2 0.857222 0.259289 0.346563
O O3 0.023327 0.206850 0.368345
O O4 0.966673 0.241739 0.263426
O O5 0.612341 0.444476 0.370242
O O6 0.760246 0.535189 0.345409
O O7 0.667229 0.585768 0.430606
O O8 0.237884 0.237884 0.750000
O O9 0.291109 0.308418 0.649603
O O10 0.392336 0.201366 0.714791
O O11 0.089914 0.475858 0.285910
O O12 0.328835 0.630771 0.044504
O O13 0.616946 0.477838 0.515920
#
# Coordination Sequence:
#
# PCOD8311205 Si02
#       7
#    16  16  16   4  16  16  16
#     4  12  21  36  60  88 122 155 191 248 306 347
#     4  10  21  35  62  94 120 149 190 248 309 366
#     4  11  22  37  54  85 125 150 199 247 291 360
#     4  12  24  44  60  76 118 176 208 232 304 366
#     4  10  21  37  60  88 124 160 190 243 304 370
#     4  11  23  38  59  85 116 161 203 241 296 364
#     4   9  16  33  59  86 119 155 189 227 301 376
#
# _framework density 19.126529000000001
#
# number of rings (size 3 to 8) (size 9 to 14) (size 15 to 20)
#    0.000    1.440    4.800    1.920    0.000    0.000 
#    0.000    4.000    0.000    0.000    0.000    1.120 
#    0.000    0.000    0.000    0.000    0.000    0.000 
#
# Total GULP energy -619551.100328 kJ/mol
# GULP energy per Si atom -12391.022007 kJ/mol
# Density = 1.908300 g / cm^3
# Si number density = 19.126529 Si / 1000 Ang^3
#
#
#
# Elastic Constant Matrix: (Units=GPa)
#
#
# Indices 1 2 3 4 5 6 
#
# 1 100.7367 40.4511 49.3923 0.0000 0.0000 0.0000
# 2 40.4511 100.7367 49.3923 0.0000 0.0000 0.0000
# 3 49.3923 49.3923 112.6465 0.0000 0.0000 0.0000
# 4 0.0000 0.0000 0.0000 11.6816 0.0000 0.0000
# 5 0.0000 0.0000 0.0000 0.0000 11.6816 0.0000
# 6 0.0000 0.0000 0.0000 0.0000 0.0000 24.4006
#
#
#
# Elastic Compliance Matrix: (Units=1/GPa)
#
#
# Indices 1 2 3 4 5 6 
#
# 1 0.013402 -0.003185 -0.004480 0.000000 0.000000 0.000000
# 2 -0.003185 0.013402 -0.004480 0.000000 0.000000 0.000000
# 3 -0.004480 -0.004480 0.012806 0.000000 0.000000 0.000000
# 4 0.000000 0.000000 0.000000 0.085605 0.000000 0.000000
# 5 0.000000 0.000000 0.000000 0.000000 0.085605 0.000000
# 6 0.000000 0.000000 0.000000 0.000000 0.000000 0.040983
#
#
# Mechanical properties :
#
#
# Convention : Reuss Voigt Hill
#
# Bulk Modulus (GPa) = 65.27152 65.84350 65.55751
# Shear Modulus (GPa) = 17.78092 21.21170 19.49631
#
# Velocity S-wave (km/s) = 3.05232 3.33381 3.19616
# Velocity P-wave (km/s) = 6.82806 7.02275 6.92609
#
# Compressibility (1/GPa) = 0.01532062
#
# Stress axis : x y z
#
# Youngs Moduli (GPa) = 74.61301 74.61301 78.08824
#
# Poissons Ratio (x) = 0.23766 0.34983
# Poissons Ratio (y) = 0.23766 0.34983
# Poissons Ratio (z) = 0.33427 0.33427
#
# Static dielectric constant tensor:
#      x y z
#    x 3.595810 0.000000 0.000000 
#    y 0.000000 3.595810 0.000000 
#    z 0.000000 0.000000 3.461990 
# 
# 
# High freq. dielectric constant tensor:
#      x y z
#    x 1.738870 0.000000 0.000000 
#    y 0.000000 1.738870 0.000000 
#    z 0.000000 0.000000 1.728670 
# 
# From -- ./inp_files/5854.got.cif
#   From: 2010.03.12/outbox.cif.g09.slc.cpg/sg120_3_cif.got.tgz:5854.got - 2010.04.06 16:00:44.
