data_PCOD8311871
_publ_section_title
;
Structure prediction by ZEFSAII (Michael W. Deem and Ramdas Pophale) SiO2 
 PCOD8311871
Probable space group: I -4 2 D
;
_chemical_formula_sum "Si O2"
_cell_formula_units_Z 72
_cell_length_a 18.269512
_cell_length_b 18.269512
_cell_length_c 11.283789
_cell_angle_alpha 90.000000
_cell_angle_beta 90.000000
_cell_angle_gamma 90.000000
_cell_volume 3766.247449
_symmetry_space_group_name_H-M "I -4 2 D"
_symmetry_group_IT_number 122
_symmetry_cell_setting 'tetragonal'
loop_
_space_group_symop_operation_xyz
x,y,z
y,-x,-z
-x,-y,z
-y,x,-z
x,1/2-y,1/4-z
-x,1/2+y,1/4-z
-y,1/2-x,1/4+z
y,1/2+x,1/4+z
1/2+x,1/2+y,1/2+z
1/2+y,1/2-x,1/2-z
1/2-x,1/2-y,1/2+z
1/2-y,1/2+x,1/2-z
1/2+x,-y,3/4-z
1/2-x,y,3/4-z
1/2-y,-x,3/4+z
1/2+y,x,3/4+z
loop_
_atom_site_type_symbol
_atom_site_label
_atom_site_fract_x
_atom_site_fract_y
_atom_site_fract_z
Si Si1 0.354989 0.750000 0.625000
Si Si2 0.255258 0.623514 0.512222
Si Si3 0.514318 0.383137 0.008542
Si Si4 0.103711 0.681076 0.549559
Si Si5 0.535504 0.246611 0.417590
O O1 0.305994 0.681026 0.583399
O O2 0.408453 0.777132 0.520300
O O3 0.250000 0.645780 0.375000
O O4 0.171478 0.625732 0.556335
O O5 0.283016 0.539670 0.531202
O O6 0.532060 0.350744 0.137193
O O7 0.437675 0.421522 0.028667
O O8 0.510797 0.322922 0.907449
O O9 0.131507 0.750000 0.625000
O O10 0.079588 0.696712 0.414938
#
# Coordination Sequence:
#
# PCOD8311871 Si02
#       5
#     8  16  16  16  16
#     4  12  26  40  66  96 122 172 212 256 324 370
#     4  12  23  42  64  89 132 166 208 265 303 381
#     4  10  21  38  61  89 123 161 204 257 314 375
#     4  10  21  40  59  89 122 161 206 255 309 364
#     4  11  24  41  61  92 127 163 215 253 317 380
#
# _framework density 19.117173000000001
#
# number of rings (size 3 to 8) (size 9 to 14) (size 15 to 20)
#    0.000    1.111    6.667    0.000    3.111    0.000 
#    0.000    0.000    0.000    3.333    0.000    0.000 
#    0.000    0.000    0.000    0.000    0.000    0.000 
#
# Total GULP energy -446254.487526 kJ/mol
# GULP energy per Si atom -12395.957987 kJ/mol
# Density = 1.907366 g / cm^3
# Si number density = 19.117173 Si / 1000 Ang^3
#
#
#
# Elastic Constant Matrix: (Units=GPa)
#
#
# Indices 1 2 3 4 5 6 
#
# 1 86.7584 28.0955 30.7663 0.0000 0.0000 0.0000
# 2 28.0955 86.7584 30.7663 0.0000 0.0000 0.0000
# 3 30.7663 30.7663 113.8808 0.0000 0.0000 0.0000
# 4 0.0000 0.0000 0.0000 19.2065 0.0000 0.0000
# 5 0.0000 0.0000 0.0000 0.0000 19.2065 0.0000
# 6 0.0000 0.0000 0.0000 0.0000 0.0000 -260.3006
#
#
#
# Elastic Compliance Matrix: (Units=1/GPa)
#
#
# Indices 1 2 3 4 5 6 
#
# 1 0.013613 -0.003433 -0.002750 0.000000 0.000000 0.000000
# 2 -0.003433 0.013613 -0.002750 0.000000 0.000000 0.000000
# 3 -0.002750 -0.002750 0.010267 0.000000 0.000000 0.000000
# 4 0.000000 0.000000 0.000000 0.052066 0.000000 0.000000
# 5 0.000000 0.000000 0.000000 0.000000 0.052066 0.000000
# 6 0.000000 0.000000 0.000000 0.000000 0.000000 -0.003842
#
#
# Mechanical properties :
#
#
# Convention : Reuss Voigt Hill
#
# Bulk Modulus (GPa) = 50.95202 51.85045 51.40123
# Shear Modulus (GPa) = 30.82746 -31.19287 -0.18271
#
# Velocity S-wave (km/s) = 4.02002 -4.04377 -0.30948
# Velocity P-wave (km/s) = 6.94678 2.31917 5.17862
#
# Compressibility (1/GPa) = 0.01962631
#
# Stress axis : x y z
#
# Youngs Moduli (GPa) = 73.45723 73.45723 97.39780
#
# Poissons Ratio (x) = 0.25219 0.26787
# Poissons Ratio (y) = 0.25219 0.26787
# Poissons Ratio (z) = 0.20203 0.20203
#
# Static dielectric constant tensor:
#      x y z
#    x 3.458250 0.000000 0.000000 
#    y 0.000000 3.458250 0.000000 
#    z 0.000000 0.000000 3.727320 
# 
# 
# High freq. dielectric constant tensor:
#      x y z
#    x 1.742690 0.000000 0.000000 
#    y 0.000000 1.742690 0.000000 
#    z 0.000000 0.000000 1.752360 
# 
# From -- ./inp_files/2654.got.cif
#   From: 2010.03.12/outbox.cif.g09.slc.cpg/sg122_2_cif.got.tgz:2654.got - 2010.04.06 16:17:16.
