data_PCOD8311964
_publ_section_title
;
Structure prediction by ZEFSAII (Michael W. Deem and Ramdas Pophale) SiO2 
 PCOD8311964
Probable space group: I -4 2 D
;
_chemical_formula_sum "Si O2"
_cell_formula_units_Z 72
_cell_length_a 11.163330
_cell_length_b 11.163330
_cell_length_c 24.996379
_cell_angle_alpha 90.000000
_cell_angle_beta 90.000000
_cell_angle_gamma 90.000000
_cell_volume 3115.047168
_symmetry_space_group_name_H-M "I -4 2 D"
_symmetry_group_IT_number 122
_symmetry_cell_setting 'tetragonal'
loop_
_space_group_symop_operation_xyz
x,y,z
y,-x,-z
-x,-y,z
-y,x,-z
x,1/2-y,1/4-z
-x,1/2+y,1/4-z
-y,1/2-x,1/4+z
y,1/2+x,1/4+z
1/2+x,1/2+y,1/2+z
1/2+y,1/2-x,1/2-z
1/2-x,1/2-y,1/2+z
1/2-y,1/2+x,1/2-z
1/2+x,-y,3/4-z
1/2-x,y,3/4-z
1/2-y,-x,3/4+z
1/2+y,x,3/4+z
loop_
_atom_site_type_symbol
_atom_site_label
_atom_site_fract_x
_atom_site_fract_y
_atom_site_fract_z
Si Si1 0.574607 0.357913 0.033355
Si Si2 0.926170 0.263008 0.933437
Si Si3 0.151320 0.272218 0.996025
Si Si4 0.500000 0.000000 0.117899
Si Si5 0.934156 0.874003 0.147994
O O1 0.565377 0.404178 0.094001
O O2 0.445776 0.346269 0.004458
O O3 0.638073 0.231010 0.038822
O O4 0.828886 0.235822 0.979006
O O5 0.933305 0.403959 0.920066
O O6 0.888342 0.194805 0.879796
O O7 0.053283 0.215170 0.956286
O O8 0.082961 0.354153 0.039368
O O9 0.996259 0.750000 0.125000
O O10 0.000000 0.000000 0.136727
#
# Coordination Sequence:
#
# PCOD8311964 Si02
#       5
#    16  16  16   8  16
#     4   9  20  42  69 100 142 178 223 292 358 422
#     4  11  27  45  71 102 139 190 236 296 359 437
#     4  11  26  44  73 101 145 186 234 298 360 432
#     4  10  23  46  68 104 136 182 242 289 362 442
#     4  10  24  48  72 104 146 190 244 303 360 436
#
# _framework density 23.113617000000001
#
# number of rings (size 3 to 8) (size 9 to 14) (size 15 to 20)
#    0.000    2.000    0.000    2.667   10.889    2.667 
#    4.000    0.000    0.000    0.000    0.000    0.000 
#    0.000    0.000    0.000    0.000    0.000    0.000 
#
# Total GULP energy -446268.750182 kJ/mol
# GULP energy per Si atom -12396.354172 kJ/mol
# Density = 2.306101 g / cm^3
# Si number density = 23.113617 Si / 1000 Ang^3
#
#
#
# Elastic Constant Matrix: (Units=GPa)
#
#
# Indices 1 2 3 4 5 6 
#
# 1 107.7653 38.4288 22.8301 0.0000 0.0000 0.0000
# 2 38.4288 107.7653 22.8301 0.0000 0.0000 0.0000
# 3 22.8301 22.8301 80.7351 0.0000 0.0000 0.0000
# 4 0.0000 0.0000 0.0000 23.5491 0.0000 0.0000
# 5 0.0000 0.0000 0.0000 0.0000 23.5491 0.0000
# 6 0.0000 0.0000 0.0000 0.0000 0.0000 43.4444
#
#
#
# Elastic Compliance Matrix: (Units=1/GPa)
#
#
# Indices 1 2 3 4 5 6 
#
# 1 0.010963 -0.003460 -0.002122 0.000000 0.000000 0.000000
# 2 -0.003460 0.010963 -0.002122 0.000000 0.000000 0.000000
# 3 -0.002122 -0.002122 0.013586 0.000000 0.000000 0.000000
# 4 0.000000 0.000000 0.000000 0.042464 0.000000 0.000000
# 5 0.000000 0.000000 0.000000 0.000000 0.042464 0.000000
# 6 0.000000 0.000000 0.000000 0.000000 0.000000 0.023018
#
#
# Mechanical properties :
#
#
# Convention : Reuss Voigt Hill
#
# Bulk Modulus (GPa) = 49.73827 51.60487 50.67157
# Shear Modulus (GPa) = 30.19942 32.25364 31.22653
#
# Velocity S-wave (km/s) = 3.61856 3.73961 3.67958
# Velocity P-wave (km/s) = 6.24695 6.40479 6.32636
#
# Compressibility (1/GPa) = 0.02010524
#
# Stress axis : x y z
#
# Youngs Moduli (GPa) = 91.21892 91.21891 73.60468
#
# Poissons Ratio (x) = 0.31560 0.15616
# Poissons Ratio (y) = 0.31560 0.15616
# Poissons Ratio (z) = 0.19353 0.19353
#
# Static dielectric constant tensor:
#      x y z
#    x 4.091030 0.000000 0.000000 
#    y 0.000000 4.091030 0.000000 
#    z 0.000000 0.000000 4.024730 
# 
# 
# High freq. dielectric constant tensor:
#      x y z
#    x 1.907300 0.000000 0.000000 
#    y 0.000000 1.907300 0.000000 
#    z 0.000000 0.000000 1.916100 
# 
# From -- ./inp_files/8631.got.cif
#   From: 2010.03.12/outbox.cif.g09.slc.cpg/sg122_5_cif.got.tgz:8631.got - 2010.04.06 16:17:16.
