data_PCOD8311574
_publ_section_title
;
Structure prediction by ZEFSAII (Michael W. Deem and Ramdas Pophale) SiO2 
 PCOD8311574
Probable space group: I -4 2 M
;
_chemical_formula_sum "Si O2"
_cell_formula_units_Z 64
_cell_length_a 19.004598
_cell_length_b 19.004598
_cell_length_c 8.730697
_cell_angle_alpha 90.000000
_cell_angle_beta 90.000000
_cell_angle_gamma 90.000000
_cell_volume 3153.307264
_symmetry_space_group_name_H-M "I -4 2 M"
_symmetry_group_IT_number 121
_symmetry_cell_setting 'tetragonal'
loop_
_space_group_symop_operation_xyz
x,y,z
y,-x,-z
-x,-y,z
-y,x,-z
x,-y,-z
-x,y,-z
-y,-x,z
y,x,z
1/2+x,1/2+y,1/2+z
1/2+y,1/2-x,1/2-z
1/2-x,1/2-y,1/2+z
1/2-y,1/2+x,1/2-z
1/2+x,1/2-y,1/2-z
1/2-x,1/2+y,1/2-z
1/2-y,1/2-x,1/2+z
1/2+y,1/2+x,1/2+z
loop_
_atom_site_type_symbol
_atom_site_label
_atom_site_fract_x
_atom_site_fract_y
_atom_site_fract_z
Si Si1 0.820627 0.820627 0.733349
Si Si2 0.778249 0.778249 0.071009
Si Si3 0.077629 0.377976 0.497154
Si Si4 0.586108 0.800083 0.684856
Si Si5 0.962588 0.239632 0.345647
O O1 0.781492 0.781492 0.592729
O O2 0.812312 0.904279 0.719900
O O3 0.790164 0.790164 0.891245
O O4 0.849376 0.751667 0.150642
O O5 0.141893 0.427689 0.550725
O O6 0.099963 0.346379 0.335506
O O7 0.073269 0.314238 0.618065
O O8 0.000000 0.415840 0.500000
O O9 0.518550 0.750524 0.708532
O O10 0.000000 0.209618 0.500000
#
# Coordination Sequence:
#
# PCOD8311574 Si02
#       5
#     8   8  16  16  16
#     4  12  24  40  62 102 125 175 218 270 329 385
#     4  12  24  34  68  94 127 165 226 282 323 383
#     4   9  19  36  58  86 121 166 211 257 320 398
#     4  10  20  38  59  92 124 166 209 271 326 378
#     4   9  22  38  63  91 132 163 211 269 322 392
#
# _framework density 20.296150999999998
#
# number of rings (size 3 to 8) (size 9 to 14) (size 15 to 20)
#    0.000    2.500    2.500    1.500    3.500    1.000 
#    4.500    0.000    0.000   44.625    0.000    3.500 
#    0.000    0.000    0.000    0.000    0.000    0.000 
#
# Total GULP energy -396590.678259 kJ/mol
# GULP energy per Si atom -12393.458696 kJ/mol
# Density = 2.024996 g / cm^3
# Si number density = 20.296151 Si / 1000 Ang^3
#
#
#
# Elastic Constant Matrix: (Units=GPa)
#
#
# Indices 1 2 3 4 5 6 
#
# 1 111.6911 73.0411 54.7980 0.0000 0.0000 0.0000
# 2 73.0411 111.6911 54.7980 0.0000 0.0000 0.0000
# 3 54.7980 54.7980 92.5270 0.0000 0.0000 0.0000
# 4 0.0000 0.0000 0.0000 29.1539 0.0000 0.0000
# 5 0.0000 0.0000 0.0000 0.0000 29.1539 0.0000
# 6 0.0000 0.0000 0.0000 0.0000 0.0000 20.9366
#
#
#
# Elastic Compliance Matrix: (Units=1/GPa)
#
#
# Indices 1 2 3 4 5 6 
#
# 1 0.017109 -0.008764 -0.004943 0.000000 0.000000 0.000000
# 2 -0.008764 0.017109 -0.004943 0.000000 0.000000 0.000000
# 3 -0.004943 -0.004943 0.016662 0.000000 0.000000 0.000000
# 4 0.000000 0.000000 0.000000 0.034301 0.000000 0.000000
# 5 0.000000 0.000000 0.000000 0.000000 0.034301 0.000000
# 6 0.000000 0.000000 0.000000 0.000000 0.000000 0.047763
#
#
# Mechanical properties :
#
#
# Convention : Reuss Voigt Hill
#
# Bulk Modulus (GPa) = 73.62221 75.68707 74.65464
# Shear Modulus (GPa) = 23.91537 24.73370 24.32453
#
# Velocity S-wave (km/s) = 3.43639 3.49469 3.46566
# Velocity P-wave (km/s) = 7.21788 7.32503 7.27165
#
# Compressibility (1/GPa) = 0.01358286
#
# Stress axis : x y z
#
# Youngs Moduli (GPa) = 58.44760 58.44760 60.01696
#
# Poissons Ratio (x) = 0.51223 0.29663
# Poissons Ratio (y) = 0.51223 0.29663
# Poissons Ratio (z) = 0.28888 0.28888
#
# Static dielectric constant tensor:
#      x y z
#    x 3.653150 0.000000 0.000000 
#    y 0.000000 3.653150 0.000000 
#    z 0.000000 0.000000 3.757450 
# 
# 
# High freq. dielectric constant tensor:
#      x y z
#    x 1.773300 0.000000 0.000000 
#    y 0.000000 1.773300 0.000000 
#    z 0.000000 0.000000 1.801240 
# 
# From -- ./inp_files/1632.got.cif
#   From: 2010.03.12/outbox.cif.g09.slc.cpg/sg121_1_cif.got.tgz:1632.got - 2010.04.06 16:06:48.
