data_PCOD8311867
_publ_section_title
;
Structure prediction by ZEFSAII (Michael W. Deem and Ramdas Pophale) SiO2 
 PCOD8311867
Probable space group: I -4 2 D
;
_chemical_formula_sum "Si O2"
_cell_formula_units_Z 80
_cell_length_a 17.080884
_cell_length_b 17.080884
_cell_length_c 13.528938
_cell_angle_alpha 90.000000
_cell_angle_beta 90.000000
_cell_angle_gamma 90.000000
_cell_volume 3947.156928
_symmetry_space_group_name_H-M "I -4 2 D"
_symmetry_group_IT_number 122
_symmetry_cell_setting 'tetragonal'
loop_
_space_group_symop_operation_xyz
x,y,z
y,-x,-z
-x,-y,z
-y,x,-z
x,1/2-y,1/4-z
-x,1/2+y,1/4-z
-y,1/2-x,1/4+z
y,1/2+x,1/4+z
1/2+x,1/2+y,1/2+z
1/2+y,1/2-x,1/2-z
1/2-x,1/2-y,1/2+z
1/2-y,1/2+x,1/2-z
1/2+x,-y,3/4-z
1/2-x,y,3/4-z
1/2-y,-x,3/4+z
1/2+y,x,3/4+z
loop_
_atom_site_type_symbol
_atom_site_label
_atom_site_fract_x
_atom_site_fract_y
_atom_site_fract_z
Si Si1 0.026848 0.106836 0.453025
Si Si2 0.033334 0.337801 0.153892
Si Si3 0.318823 0.442644 0.592587
Si Si4 0.577841 0.147500 0.478038
Si Si5 0.044420 0.228136 0.732717
O O1 0.071611 0.189397 0.467667
O O2 0.963243 0.090538 0.542140
O O3 0.978653 0.105813 0.351080
O O4 0.051441 0.250000 0.125000
O O5 0.116017 0.378390 0.139919
O O6 0.009250 0.349687 0.267886
O O7 0.963199 0.368878 0.083549
O O8 0.239027 0.408850 0.545476
O O9 0.305667 0.474561 0.702254
O O10 0.665709 0.114237 0.477771
O O11 0.012290 0.250000 0.625000
#
# Coordination Sequence:
#
# PCOD8311867 Si02
#       5
#    16  16  16  16  16
#     4  10  21  37  58  87 124 162 204 253 306 386
#     4  10  22  42  64  89 122 161 215 265 313 373
#     4  10  23  40  62  94 120 161 216 261 315 382
#     4  10  22  39  62  88 126 162 204 261 318 370
#     4  11  22  38  60  91 125 163 204 254 322 387
#
# _framework density 20.267752999999999
#
# number of rings (size 3 to 8) (size 9 to 14) (size 15 to 20)
#    0.000    1.800    2.000    1.200    2.800    3.600 
#    0.000    0.000    0.000    2.400    0.000    0.000 
#    0.000    0.000    0.000    0.000    0.000    0.000 
#
# Total GULP energy -495813.455911 kJ/mol
# GULP energy per Si atom -12395.336398 kJ/mol
# Density = 2.022162 g / cm^3
# Si number density = 20.267753 Si / 1000 Ang^3
#
#
#
# Elastic Constant Matrix: (Units=GPa)
#
#
# Indices 1 2 3 4 5 6 
#
# 1 97.7714 57.5617 48.2066 0.0000 0.0000 0.0000
# 2 57.5617 97.7714 48.2066 0.0000 0.0000 0.0000
# 3 48.2066 48.2066 123.8329 0.0000 0.0000 0.0000
# 4 0.0000 0.0000 0.0000 24.0332 0.0000 0.0000
# 5 0.0000 0.0000 0.0000 0.0000 24.0332 0.0000
# 6 0.0000 0.0000 0.0000 0.0000 0.0000 30.6784
#
#
#
# Elastic Compliance Matrix: (Units=1/GPa)
#
#
# Indices 1 2 3 4 5 6 
#
# 1 0.016679 -0.008190 -0.003305 0.000000 0.000000 0.000000
# 2 -0.008190 0.016679 -0.003305 0.000000 0.000000 0.000000
# 3 -0.003305 -0.003305 0.010648 0.000000 0.000000 0.000000
# 4 0.000000 0.000000 0.000000 0.041609 0.000000 0.000000
# 5 0.000000 0.000000 0.000000 0.000000 0.041609 0.000000
# 6 0.000000 0.000000 0.000000 0.000000 0.000000 0.032596
#
#
# Mechanical properties :
#
#
# Convention : Reuss Voigt Hill
#
# Bulk Modulus (GPa) = 69.40772 69.70282 69.55527
# Shear Modulus (GPa) = 25.74361 26.77569 26.25965
#
# Velocity S-wave (km/s) = 3.56782 3.63863 3.60340
# Velocity P-wave (km/s) = 7.16186 7.21932 7.19064
#
# Compressibility (1/GPa) = 0.01440762
#
# Stress axis : x y z
#
# Youngs Moduli (GPa) = 59.95474 59.95474 93.91168
#
# Poissons Ratio (x) = 0.49105 0.31034
# Poissons Ratio (y) = 0.49105 0.31034
# Poissons Ratio (z) = 0.19813 0.19813
#
# Static dielectric constant tensor:
#      x y z
#    x 3.638900 0.000000 0.000000 
#    y 0.000000 3.638900 0.000000 
#    z 0.000000 0.000000 4.011630 
# 
# 
# High freq. dielectric constant tensor:
#      x y z
#    x 1.785690 0.000000 0.000000 
#    y 0.000000 1.785690 0.000000 
#    z 0.000000 0.000000 1.804900 
# 
# From -- ./inp_files/5292.got.cif
#   From: 2010.03.12/outbox.cif.g09.slc.cpg/sg122_3_cif.got.tgz:5292.got - 2010.04.06 16:17:16.
