data_PCOD8311538
_publ_section_title
;
Structure prediction by ZEFSAII (Michael W. Deem and Ramdas Pophale) SiO2 
 PCOD8311538
Probable space group: I -4 2 M
;
_chemical_formula_sum "Si O2"
_cell_formula_units_Z 96
_cell_length_a 15.721805
_cell_length_b 15.721805
_cell_length_c 19.693512
_cell_angle_alpha 90.000000
_cell_angle_beta 90.000000
_cell_angle_gamma 90.000000
_cell_volume 4867.746831
_symmetry_space_group_name_H-M "I -4 2 M"
_symmetry_group_IT_number 121
_symmetry_cell_setting 'tetragonal'
loop_
_space_group_symop_operation_xyz
x,y,z
y,-x,-z
-x,-y,z
-y,x,-z
x,-y,-z
-x,y,-z
-y,-x,z
y,x,z
1/2+x,1/2+y,1/2+z
1/2+y,1/2-x,1/2-z
1/2-x,1/2-y,1/2+z
1/2-y,1/2+x,1/2-z
1/2+x,1/2-y,1/2-z
1/2-x,1/2+y,1/2-z
1/2-y,1/2-x,1/2+z
1/2+y,1/2+x,1/2+z
loop_
_atom_site_type_symbol
_atom_site_label
_atom_site_fract_x
_atom_site_fract_y
_atom_site_fract_z
Si Si1 0.403895 0.268334 0.521217
Si Si2 0.689561 0.169746 0.375478
Si Si3 0.740691 0.117548 0.234677
Si Si4 0.322466 0.184741 0.898195
Si Si5 0.504102 0.364321 0.206850
Si Si6 0.999346 0.237791 0.423640
O O1 0.500000 0.282618 0.500000
O O2 0.361314 0.361314 0.525507
O O3 0.392617 0.218967 0.593445
O O4 0.357635 0.211476 0.465796
O O5 0.772980 0.227021 0.387628
O O6 0.678327 0.148379 0.295612
O O7 0.702961 0.082949 0.416293
O O8 0.820072 0.179929 0.228799
O O9 0.688599 0.118890 0.164687
O O10 0.780195 0.022881 0.249739
O O11 0.272537 0.272537 0.882838
O O12 0.421071 0.202513 0.906885
O O13 0.599136 0.400865 0.225001
O O14 0.438415 0.438415 0.222391
O O15 0.498601 0.341924 0.127215
O O16 0.000000 0.201362 0.500000
#
# Coordination Sequence:
#
# PCOD8311538 Si02
#       6
#    16  16  16  16  16  16
#     4  10  21  39  61  84 110 143 188 240 295 353
#     4   9  18  36  57  78 111 154 191 234 294 354
#     4   8  16  33  54  75 108 152 194 235 283 347
#     4  10  20  35  55  80 111 149 195 241 285 344
#     4   9  18  31  49  78 116 154 194 245 303 358
#     4  11  19  30  53  84 114 150 193 237 284 355
#
# _framework density 19.72165
#
# number of rings (size 3 to 8) (size 9 to 14) (size 15 to 20)
#    0.000    2.500    1.667    2.000    0.000    2.167 
#    6.000    3.333    0.000    3.000    0.000    0.000 
#    0.000    0.000    0.000    0.000    0.000    0.000 
#
# Total GULP energy -594892.752725 kJ/mol
# GULP energy per Si atom -12393.599015 kJ/mol
# Density = 1.967676 g / cm^3
# Si number density = 19.721650 Si / 1000 Ang^3
#
#
#
# Elastic Constant Matrix: (Units=GPa)
#
#
# Indices 1 2 3 4 5 6 
#
# 1 88.4368 28.2865 17.4191 0.0000 0.0000 0.0000
# 2 28.2865 88.4377 17.4192 0.0000 0.0000 0.0000
# 3 17.4191 17.4192 85.9849 0.0000 0.0000 0.0000
# 4 0.0000 0.0000 0.0000 21.5424 0.0000 0.0000
# 5 0.0000 0.0000 0.0000 0.0000 21.5420 0.0000
# 6 0.0000 0.0000 0.0000 0.0000 0.0000 18.5699
#
#
#
# Elastic Compliance Matrix: (Units=1/GPa)
#
#
# Indices 1 2 3 4 5 6 
#
# 1 0.012872 -0.003753 -0.001847 0.000000 0.000000 0.000000
# 2 -0.003753 0.012872 -0.001847 0.000000 0.000000 0.000000
# 3 -0.001847 -0.001847 0.012378 0.000000 0.000000 0.000000
# 4 0.000000 0.000000 0.000000 0.046420 0.000000 0.000000
# 5 0.000000 0.000000 0.000000 0.000000 0.046421 0.000000
# 6 0.000000 0.000000 0.000000 0.000000 0.000000 0.053851
#
#
# Mechanical properties :
#
#
# Convention : Reuss Voigt Hill
#
# Bulk Modulus (GPa) = 43.05433 43.23434 43.14433
# Shear Modulus (GPa) = 24.10207 25.64650 24.87429
#
# Velocity S-wave (km/s) = 3.49966 3.61005 3.55529
# Velocity P-wave (km/s) = 6.18131 6.27268 6.22716
#
# Compressibility (1/GPa) = 0.02322647
#
# Stress axis : x y z
#
# Youngs Moduli (GPa) = 77.68919 77.68997 80.78582
#
# Poissons Ratio (x) = 0.29158 0.14923
# Poissons Ratio (y) = 0.29158 0.14923
# Poissons Ratio (z) = 0.14351 0.14351
#
# Static dielectric constant tensor:
#      x y z
#    x 3.534460 0.000000 0.000000 
#    y 0.000000 3.534460 0.000000 
#    z 0.000000 0.000000 3.871570 
# 
# 
# High freq. dielectric constant tensor:
#      x y z
#    x 1.746970 0.000000 0.000000 
#    y 0.000000 1.746970 0.000000 
#    z 0.000000 0.000000 1.774750 
# 
# From -- ./inp_files/6451.got.cif
#   From: 2010.03.12/outbox.cif.g09.slc.cpg/sg121_4_cif.got.tgz:6451.got - 2010.04.06 16:06:48.
