data_PCOD8311669
_publ_section_title
;
Structure prediction by ZEFSAII (Michael W. Deem and Ramdas Pophale) SiO2 
 PCOD8311669
Probable space group: I -4 2 M
;
_chemical_formula_sum "Si O2"
_cell_formula_units_Z 96
_cell_length_a 25.017143
_cell_length_b 25.017143
_cell_length_c 8.598867
_cell_angle_alpha 90.000000
_cell_angle_beta 90.000000
_cell_angle_gamma 90.000000
_cell_volume 5381.664921
_symmetry_space_group_name_H-M "I -4 2 M"
_symmetry_group_IT_number 121
_symmetry_cell_setting 'tetragonal'
loop_
_space_group_symop_operation_xyz
x,y,z
y,-x,-z
-x,-y,z
-y,x,-z
x,-y,-z
-x,y,-z
-y,-x,z
y,x,z
1/2+x,1/2+y,1/2+z
1/2+y,1/2-x,1/2-z
1/2-x,1/2-y,1/2+z
1/2-y,1/2+x,1/2-z
1/2+x,1/2-y,1/2-z
1/2-x,1/2+y,1/2-z
1/2-y,1/2-x,1/2+z
1/2+y,1/2+x,1/2+z
loop_
_atom_site_type_symbol
_atom_site_label
_atom_site_fract_x
_atom_site_fract_y
_atom_site_fract_z
Si Si1 0.944683 0.270218 0.073431
Si Si2 0.056355 0.731543 0.438719
Si Si3 0.789253 0.355234 0.369249
Si Si4 0.668025 0.753343 0.951950
Si Si5 0.141717 0.437520 0.826480
Si Si6 0.965654 0.615836 0.869428
O O1 0.940856 0.259138 0.255242
O O2 0.938924 0.333865 0.043009
O O3 0.891962 0.249975 0.978991
O O4 0.000000 0.247246 0.000000
O O5 0.107227 0.763915 0.506206
O O6 0.062035 0.670120 0.503753
O O7 0.000000 0.755788 0.500000
O O8 0.755507 0.325758 0.235081
O O9 0.819372 0.310967 0.471812
O O10 0.830272 0.394313 0.281710
O O11 0.708777 0.708777 0.016147
O O12 0.078956 0.425300 0.817754
O O13 0.143812 0.498636 0.765578
O O14 0.000000 0.584555 0.000000
#
# Coordination Sequence:
#
# PCOD8311669 Si02
#       6
#    16  16  16  16  16  16
#     4  11  19  36  53  77  98 133 187 234 266 334
#     4  11  21  36  61  79 101 140 182 222 281 337
#     4  11  21  35  57  73 103 143 177 230 283 338
#     4  11  23  37  55  84 111 137 180 229 288 345
#     4  11  23  36  51  74  95 139 184 239 281 339
#     4  11  22  33  49  65  98 127 180 237 289 323
#
# _framework density 17.838346000000001
#
# number of rings (size 3 to 8) (size 9 to 14) (size 15 to 20)
#    0.000    1.000    5.000    5.500    2.333    0.333 
#    0.000    1.667    0.000    0.000    0.000    0.000 
#    0.000    0.333    0.000    0.000    0.000    3.667 
#
# Total GULP energy -594634.244640 kJ/mol
# GULP energy per Si atom -12388.213430 kJ/mol
# Density = 1.779775 g / cm^3
# Si number density = 17.838346 Si / 1000 Ang^3
#
#
#
# Elastic Constant Matrix: (Units=GPa)
#
#
# Indices 1 2 3 4 5 6 
#
# 1 57.2210 34.3958 25.1843 0.0000 0.0000 0.0000
# 2 34.3958 57.2210 25.1843 0.0000 0.0000 0.0000
# 3 25.1843 25.1843 128.7415 0.0000 0.0000 0.0000
# 4 0.0000 0.0000 0.0000 19.3438 0.0000 0.0000
# 5 0.0000 0.0000 0.0000 0.0000 19.3438 0.0000
# 6 0.0000 0.0000 0.0000 0.0000 0.0000 20.0295
#
#
#
# Elastic Compliance Matrix: (Units=1/GPa)
#
#
# Indices 1 2 3 4 5 6 
#
# 1 0.028021 -0.015790 -0.002392 0.000000 0.000000 0.000000
# 2 -0.015790 0.028021 -0.002392 0.000000 0.000000 0.000000
# 3 -0.002392 -0.002392 0.008704 0.000000 0.000000 0.000000
# 4 0.000000 0.000000 0.000000 0.051696 0.000000 0.000000
# 5 0.000000 0.000000 0.000000 0.000000 0.051696 0.000000
# 6 0.000000 0.000000 0.000000 0.000000 0.000000 0.049926
#
#
# Mechanical properties :
#
#
# Convention : Reuss Voigt Hill
#
# Bulk Modulus (GPa) = 42.38314 45.85694 44.12004
# Shear Modulus (GPa) = 18.72100 22.30467 20.51283
#
# Velocity S-wave (km/s) = 3.24308 3.53990 3.39474
# Velocity P-wave (km/s) = 6.15098 6.51695 6.33661
#
# Compressibility (1/GPa) = 0.02359429
#
# Stress axis : x y z
#
# Youngs Moduli (GPa) = 35.68773 35.68773 114.89579
#
# Poissons Ratio (x) = 0.56353 0.27489
# Poissons Ratio (y) = 0.56353 0.27489
# Poissons Ratio (z) = 0.08538 0.08538
#
# Static dielectric constant tensor:
#      x y z
#    x 3.066860 0.000000 0.000000 
#    y 0.000000 3.066860 0.000000 
#    z 0.000000 0.000000 3.646620 
# 
# 
# High freq. dielectric constant tensor:
#      x y z
#    x 1.646790 0.000000 0.000000 
#    y 0.000000 1.646790 0.000000 
#    z 0.000000 0.000000 1.723060 
# 
# From -- ./inp_files/2063.got.cif
#   From: 2010.03.12/outbox.cif.g09.slc.cpg/sg121_2_cif.got.tgz:2063.got - 2010.04.06 16:06:48.
