data_PCOD8311287
_publ_section_title
;
Structure prediction by ZEFSAII (Michael W. Deem and Ramdas Pophale) SiO2 
 PCOD8311287
Probable space group: I -4 C 2
;
_chemical_formula_sum "Si O2"
_cell_formula_units_Z 96
_cell_length_a 13.426540
_cell_length_b 13.426540
_cell_length_c 26.922398
_cell_angle_alpha 90.000000
_cell_angle_beta 90.000000
_cell_angle_gamma 90.000000
_cell_volume 4853.353896
_symmetry_space_group_name_H-M "I -4 C 2"
_symmetry_group_IT_number 120
_symmetry_cell_setting 'tetragonal'
loop_
_space_group_symop_operation_xyz
x,y,z
y,-x,-z
-x,-y,z
-y,x,-z
y,x,1/2-z
-y,-x,1/2-z
-x,y,1/2+z
x,-y,1/2+z
1/2+x,1/2+y,1/2+z
1/2+y,1/2-x,1/2-z
1/2-x,1/2-y,1/2+z
1/2-y,1/2+x,1/2-z
1/2+y,1/2+x,-z
1/2-y,1/2-x,-z
1/2-x,1/2+y,z
1/2+x,1/2-y,z
loop_
_atom_site_type_symbol
_atom_site_label
_atom_site_fract_x
_atom_site_fract_y
_atom_site_fract_z
Si Si1 0.616146 0.616146 0.750000
Si Si2 0.163647 0.973702 0.500000
Si Si3 0.769895 0.885915 0.651789
Si Si4 0.616146 0.616146 0.250000
Si Si5 0.230105 0.885915 0.848211
Si Si6 0.749502 0.912834 0.899487
Si Si7 0.412834 0.249502 0.899487
O O1 0.638840 0.500000 0.750000
O O2 0.652332 0.674209 0.701405
O O3 0.236405 0.963757 0.452835
O O4 0.236405 0.963757 0.547165
O O5 0.081155 0.887350 0.500000
O O6 0.825791 0.847668 0.701405
O O7 0.659250 0.840750 0.652010
O O8 0.834961 0.839582 0.607174
O O9 0.758087 0.003765 0.643833
O O10 0.165039 0.839582 0.892826
O O11 0.241913 0.003765 0.856167
O O12 0.642871 0.857129 0.895981
#
# Coordination Sequence:
#
# PCOD8311287 Si02
#       7
#     8  16  16   8  16  16  16
#     4  11  21  36  64  94 121 157 202 258 310 368
#     4  11  21  36  64  93 122 164 214 267 316 368
#     4  11  23  40  63  89 123 163 206 255 316 376
#     4  11  21  36  64  94 121 157 202 258 310 368
#     4  11  23  40  63  89 123 163 206 255 316 376
#     4  11  23  40  62  90 126 166 208 259 316 375
#     4  11  23  40  62  90 126 166 208 259 316 375
#
# _framework density 19.780137
#
# number of rings (size 3 to 8) (size 9 to 14) (size 15 to 20)
#    0.000    1.000    6.667    1.000    0.000    1.333 
#    0.000    0.833    0.000    2.000    0.000    0.000 
#    0.000    0.000    0.000    0.000    0.000    0.000 
#
# Total GULP energy -595069.116007 kJ/mol
# GULP energy per Si atom -12397.273250 kJ/mol
# Density = 1.973512 g / cm^3
# Si number density = 19.780137 Si / 1000 Ang^3
#
#
#
# Elastic Constant Matrix: (Units=GPa)
#
#
# Indices 1 2 3 4 5 6 
#
# 1 95.3013 52.8002 25.7199 0.0000 0.0000 0.0000
# 2 52.8002 95.3013 25.7199 0.0000 0.0000 0.0000
# 3 25.7199 25.7199 102.1111 0.0000 0.0000 0.0000
# 4 0.0000 0.0000 0.0000 21.8065 0.0000 0.0000
# 5 0.0000 0.0000 0.0000 0.0000 21.8065 0.0000
# 6 0.0000 0.0000 0.0000 0.0000 0.0000 25.4146
#
#
#
# Elastic Compliance Matrix: (Units=1/GPa)
#
#
# Indices 1 2 3 4 5 6 
#
# 1 0.015464 -0.008065 -0.001864 0.000000 0.000000 0.000000
# 2 -0.008065 0.015464 -0.001864 0.000000 0.000000 0.000000
# 3 -0.001864 -0.001864 0.010732 0.000000 0.000000 0.000000
# 4 0.000000 0.000000 0.000000 0.045858 0.000000 0.000000
# 5 0.000000 0.000000 0.000000 0.000000 0.045858 0.000000
# 6 0.000000 0.000000 0.000000 0.000000 0.000000 0.039347
#
#
# Mechanical properties :
#
#
# Convention : Reuss Voigt Hill
#
# Bulk Modulus (GPa) = 55.32214 55.68819 55.50517
# Shear Modulus (GPa) = 24.71166 26.37042 25.54104
#
# Velocity S-wave (km/s) = 3.53840 3.65523 3.59729
# Velocity P-wave (km/s) = 6.68752 6.78447 6.73617
#
# Compressibility (1/GPa) = 0.01807595
#
# Stress axis : x y z
#
# Youngs Moduli (GPa) = 64.66564 64.66564 93.17782
#
# Poissons Ratio (x) = 0.52151 0.17366
# Poissons Ratio (y) = 0.52151 0.17366
# Poissons Ratio (z) = 0.12052 0.12052
#
# Static dielectric constant tensor:
#      x y z
#    x 3.408960 0.000000 0.000000 
#    y 0.000000 3.408960 0.000000 
#    z 0.000000 0.000000 3.663450 
# 
# 
# High freq. dielectric constant tensor:
#      x y z
#    x 1.760410 0.000000 0.000000 
#    y 0.000000 1.760410 0.000000 
#    z 0.000000 0.000000 1.778910 
# 
# From -- ./inp_files/5873.got.cif
#   From: 2010.03.12/outbox.cif.g09.slc.cpg/sg120_3_cif.got.tgz:5873.got - 2010.04.06 16:00:44.
