data_PCOD8311189
_publ_section_title
;
Structure prediction by ZEFSAII (Michael W. Deem and Ramdas Pophale) SiO2 
 PCOD8311189
Probable space group: I -4 C 2
;
_chemical_formula_sum "Si O2"
_cell_formula_units_Z 112
_cell_length_a 15.007444
_cell_length_b 15.007444
_cell_length_c 25.530337
_cell_angle_alpha 90.000000
_cell_angle_beta 90.000000
_cell_angle_gamma 90.000000
_cell_volume 5750.028675
_symmetry_space_group_name_H-M "I -4 C 2"
_symmetry_group_IT_number 120
_symmetry_cell_setting 'tetragonal'
loop_
_space_group_symop_operation_xyz
x,y,z
y,-x,-z
-x,-y,z
-y,x,-z
y,x,1/2-z
-y,-x,1/2-z
-x,y,1/2+z
x,-y,1/2+z
1/2+x,1/2+y,1/2+z
1/2+y,1/2-x,1/2-z
1/2-x,1/2-y,1/2+z
1/2-y,1/2+x,1/2-z
1/2+y,1/2+x,-z
1/2-y,1/2-x,-z
1/2-x,1/2+y,z
1/2+x,1/2-y,z
loop_
_atom_site_type_symbol
_atom_site_label
_atom_site_fract_x
_atom_site_fract_y
_atom_site_fract_z
Si Si1 0.521855 0.283742 0.583858
Si Si2 0.370085 0.292536 0.299467
Si Si3 0.310189 0.172227 0.852940
Si Si4 0.843461 0.144195 0.583953
Si Si5 0.760368 0.401141 0.502876
Si Si6 0.082099 0.613857 0.243514
Si Si7 0.851729 0.056839 0.095941
O O1 0.584302 0.215281 0.614398
O O2 0.425364 0.301821 0.612768
O O3 0.497765 0.242553 0.526424
O O4 0.567861 0.379797 0.578605
O O5 0.360142 0.360142 0.250000
O O6 0.274885 0.282128 0.326830
O O7 0.401642 0.195532 0.282348
O O8 0.438717 0.333263 0.341553
O O9 0.354750 0.248227 0.887896
O O10 0.379240 0.140386 0.809109
O O11 0.835106 0.188526 0.526005
O O12 0.876179 0.042749 0.579732
O O13 0.858756 0.358756 0.500000
O O14 0.735853 0.411460 0.563877
O O15 0.111143 0.522455 0.271792
#
# Coordination Sequence:
#
# PCOD8311189 Si02
#       7
#    16  16  16  16  16  16  16
#     4   9  22  35  58  85 123 153 203 248 306 379
#     4   9  20  36  58  81 116 158 200 250 306 370
#     4  10  20  39  59  85 119 162 202 257 313 365
#     4  10  22  34  61  89 119 158 203 250 318 369
#     4  10  21  35  57  88 116 157 202 245 305 372
#     4  10  21  35  57  86 116 154 208 257 302 369
#     4  11  19  37  59  86 122 155 200 258 312 368
#
# _framework density 19.478165000000001
#
# number of rings (size 3 to 8) (size 9 to 14) (size 15 to 20)
#    0.857    1.286    0.000    3.857    2.000    0.000 
#    2.571    0.000    0.000    7.714    0.000    0.000 
#    0.000    0.000    0.000    0.000    0.000    0.000 
#
# Total GULP energy -693879.648494 kJ/mol
# GULP energy per Si atom -12390.708009 kJ/mol
# Density = 1.943383 g / cm^3
# Si number density = 19.478165 Si / 1000 Ang^3
#
#
#
# Elastic Constant Matrix: (Units=GPa)
#
#
# Indices 1 2 3 4 5 6 
#
# 1 87.3593 28.7965 27.8772 0.0000 0.0000 0.0000
# 2 28.7965 87.3593 27.8772 0.0000 0.0000 0.0000
# 3 27.8772 27.8772 92.5724 0.0000 0.0000 0.0000
# 4 0.0000 0.0000 0.0000 26.4400 0.0000 0.0000
# 5 0.0000 0.0000 0.0000 0.0000 26.4400 0.0000
# 6 0.0000 0.0000 0.0000 0.0000 0.0000 30.4795
#
#
#
# Elastic Compliance Matrix: (Units=1/GPa)
#
#
# Indices 1 2 3 4 5 6 
#
# 1 0.013570 -0.003506 -0.003031 0.000000 0.000000 0.000000
# 2 -0.003506 0.013570 -0.003031 0.000000 0.000000 0.000000
# 3 -0.003031 -0.003031 0.012628 0.000000 0.000000 0.000000
# 4 0.000000 0.000000 0.000000 0.037821 0.000000 0.000000
# 5 0.000000 0.000000 0.000000 0.000000 0.037821 0.000000
# 6 0.000000 0.000000 0.000000 0.000000 0.000000 0.032809
#
#
# Mechanical properties :
#
#
# Convention : Reuss Voigt Hill
#
# Bulk Modulus (GPa) = 48.46652 48.48810 48.47731
# Shear Modulus (GPa) = 28.69756 28.85459 28.77607
#
# Velocity S-wave (km/s) = 3.84255 3.85305 3.84780
# Velocity P-wave (km/s) = 6.68008 6.68896 6.68452
#
# Compressibility (1/GPa) = 0.02063280
#
# Stress axis : x y z
#
# Youngs Moduli (GPa) = 73.69333 73.69333 79.19147
#
# Poissons Ratio (x) = 0.25836 0.24000
# Poissons Ratio (y) = 0.25836 0.24000
# Poissons Ratio (z) = 0.22334 0.22334
#
# Static dielectric constant tensor:
#      x y z
#    x 3.393090 0.000000 0.000000 
#    y 0.000000 3.393090 0.000000 
#    z 0.000000 0.000000 3.511540 
# 
# 
# High freq. dielectric constant tensor:
#      x y z
#    x 1.752460 0.000000 0.000000 
#    y 0.000000 1.752460 0.000000 
#    z 0.000000 0.000000 1.747630 
# 
# From -- ./inp_files/6265.got.cif
#   From: 2010.03.12/outbox.cif.g09.slc.cpg/sg120_4_cif.got.tgz:6265.got - 2010.04.06 16:00:44.
