data_PCOD8311986
_publ_section_title
;
Structure prediction by ZEFSAII (Michael W. Deem and Ramdas Pophale) SiO2 
 PCOD8311986
Probable space group: I -4 2 D
;
_chemical_formula_sum "Si O2"
_cell_formula_units_Z 88
_cell_length_a 11.256222
_cell_length_b 11.256222
_cell_length_c 28.750854
_cell_angle_alpha 90.000000
_cell_angle_beta 90.000000
_cell_angle_gamma 90.000000
_cell_volume 3642.806048
_symmetry_space_group_name_H-M "I -4 2 D"
_symmetry_group_IT_number 122
_symmetry_cell_setting 'tetragonal'
loop_
_space_group_symop_operation_xyz
x,y,z
y,-x,-z
-x,-y,z
-y,x,-z
x,1/2-y,1/4-z
-x,1/2+y,1/4-z
-y,1/2-x,1/4+z
y,1/2+x,1/4+z
1/2+x,1/2+y,1/2+z
1/2+y,1/2-x,1/2-z
1/2-x,1/2-y,1/2+z
1/2-y,1/2+x,1/2-z
1/2+x,-y,3/4-z
1/2-x,y,3/4-z
1/2-y,-x,3/4+z
1/2+y,x,3/4+z
loop_
_atom_site_type_symbol
_atom_site_label
_atom_site_fract_x
_atom_site_fract_y
_atom_site_fract_z
Si Si1 0.723929 0.084420 0.037700
Si Si2 0.000000 0.000000 0.325881
Si Si3 0.363235 0.806899 0.526342
Si Si4 0.825656 0.449243 0.766233
Si Si5 0.630163 0.448556 0.633255
Si Si6 0.821088 0.871062 0.607555
O O1 0.581867 0.093407 0.047331
O O2 0.764498 0.207375 0.015666
O O3 0.808679 0.073803 0.083454
O O4 0.739823 0.981811 0.998940
O O5 0.928386 0.101619 0.351884
O O6 0.309414 0.923911 0.501117
O O7 0.381649 0.835152 0.581657
O O8 0.864029 0.585801 0.763214
O O9 0.840543 0.417766 0.819594
O O10 0.500000 0.500000 0.624089
O O11 0.715414 0.543301 0.659783
O O12 0.759244 0.750000 0.625000
#
# Coordination Sequence:
#
# PCOD8311986 Si02
#       6
#    16   8  16  16  16  16
#     4  11  29  48  77 109 150 202 256 317 391 472
#     4  10  24  46  69 106 144 188 250 313 386 462
#     4  12  28  47  77 110 151 203 255 319 386 473
#     4  11  23  40  68 105 146 188 246 313 385 463
#     4  11  27  51  75 108 151 198 261 314 398 471
#     4  11  24  42  72 107 146 195 244 320 393 465
#
# _framework density 24.157201000000001
#
# number of rings (size 3 to 8) (size 9 to 14) (size 15 to 20)
#    0.000    0.909    1.818    3.818   14.000    1.455 
#    0.000    0.000    0.000    0.000    0.000    0.000 
#    0.000    0.000    0.000    0.000    0.000    0.000 
#
# Total GULP energy -545259.864878 kJ/mol
# GULP energy per Si atom -12392.269656 kJ/mol
# Density = 2.410222 g / cm^3
# Si number density = 24.157201 Si / 1000 Ang^3
#
#
#
# Elastic Constant Matrix: (Units=GPa)
#
#
# Indices 1 2 3 4 5 6 
#
# 1 117.7507 35.0936 28.3444 0.0000 0.0000 0.0000
# 2 35.0936 117.7507 28.3444 0.0000 0.0000 0.0000
# 3 28.3444 28.3444 102.0114 0.0000 0.0000 0.0000
# 4 0.0000 0.0000 0.0000 38.1351 0.0000 0.0000
# 5 0.0000 0.0000 0.0000 0.0000 38.1351 0.0000
# 6 0.0000 0.0000 0.0000 0.0000 0.0000 30.5134
#
#
#
# Elastic Compliance Matrix: (Units=1/GPa)
#
#
# Indices 1 2 3 4 5 6 
#
# 1 0.009696 -0.002402 -0.002027 0.000000 0.000000 0.000000
# 2 -0.002402 0.009696 -0.002027 0.000000 0.000000 0.000000
# 3 -0.002027 -0.002027 0.010929 0.000000 0.000000 0.000000
# 4 0.000000 0.000000 0.000000 0.026223 0.000000 0.000000
# 5 0.000000 0.000000 0.000000 0.000000 0.026223 0.000000
# 6 0.000000 0.000000 0.000000 0.000000 0.000000 0.032773
#
#
# Mechanical properties :
#
#
# Convention : Reuss Voigt Hill
#
# Bulk Modulus (GPa) = 57.43595 57.89752 57.66674
# Shear Modulus (GPa) = 37.24292 37.73875 37.49084
#
# Velocity S-wave (km/s) = 3.93070 3.95677 3.94376
# Velocity P-wave (km/s) = 6.66544 6.70028 6.68288
#
# Compressibility (1/GPa) = 0.01741070
#
# Stress axis : x y z
#
# Youngs Moduli (GPa) = 103.13272 103.13271 91.49873
#
# Poissons Ratio (x) = 0.24772 0.18545
# Poissons Ratio (y) = 0.24772 0.18545
# Poissons Ratio (z) = 0.20903 0.20903
#
# Static dielectric constant tensor:
#      x y z
#    x 4.405640 0.000000 0.000000 
#    y 0.000000 4.405640 0.000000 
#    z 0.000000 0.000000 4.324970 
# 
# 
# High freq. dielectric constant tensor:
#      x y z
#    x 1.965040 0.000000 0.000000 
#    y 0.000000 1.965040 0.000000 
#    z 0.000000 0.000000 1.961730 
# 
# From -- ./inp_files/9489.got.cif
#   From: 2010.03.12/outbox.cif.g09.slc.cpg/sg122_5_cif.got.tgz:9489.got - 2010.04.06 16:17:16.
