data_PCOD8311258
_publ_section_title
;
Structure prediction by ZEFSAII (Michael W. Deem and Ramdas Pophale) SiO2 
 PCOD8311258
Probable space group: I -4 C 2
;
_chemical_formula_sum "Si O2"
_cell_formula_units_Z 80
_cell_length_a 16.719760
_cell_length_b 16.719760
_cell_length_c 13.636832
_cell_angle_alpha 90.000000
_cell_angle_beta 90.000000
_cell_angle_gamma 90.000000
_cell_volume 3812.181492
_symmetry_space_group_name_H-M "I -4 C 2"
_symmetry_group_IT_number 120
_symmetry_cell_setting 'tetragonal'
loop_
_space_group_symop_operation_xyz
x,y,z
y,-x,-z
-x,-y,z
-y,x,-z
y,x,1/2-z
-y,-x,1/2-z
-x,y,1/2+z
x,-y,1/2+z
1/2+x,1/2+y,1/2+z
1/2+y,1/2-x,1/2-z
1/2-x,1/2-y,1/2+z
1/2-y,1/2+x,1/2-z
1/2+y,1/2+x,-z
1/2-y,1/2-x,-z
1/2-x,1/2+y,z
1/2+x,1/2-y,z
loop_
_atom_site_type_symbol
_atom_site_label
_atom_site_fract_x
_atom_site_fract_y
_atom_site_fract_z
Si Si1 0.849066 0.483849 0.372468
Si Si2 0.058407 0.232707 0.961174
Si Si3 0.802445 0.197556 0.750000
Si Si4 0.599440 0.362289 0.433732
Si Si5 0.617836 0.170915 0.773126
Si Si6 0.000000 0.500000 0.500000
Si Si7 0.500000 0.500000 0.000000
O O1 0.784843 0.437757 0.439845
O O2 0.809012 0.559599 0.317814
O O3 0.885448 0.423474 0.292716
O O4 0.921344 0.511077 0.437916
O O5 0.120976 0.159060 0.973924
O O6 0.087684 0.280708 0.867365
O O7 0.964981 0.207852 0.949981
O O8 0.844944 0.156043 0.841697
O O9 0.708036 0.188558 0.744480
O O10 0.551166 0.445801 0.424250
#
# Coordination Sequence:
#
# PCOD8311258 Si02
#       7
#    16  16   8  16  16   4   4
#     4  12  25  45  67  97 139 186 233 283 341 422
#     4  11  24  47  72  99 142 182 232 294 355 419
#     4  12  26  41  70 106 143 176 236 302 350 420
#     4  10  23  44  72 102 135 182 231 293 355 416
#     4  12  26  46  67 103 139 184 235 287 351 421
#     4  12  24  42  68  96 130 196 228 290 330 422
#     4   8  20  46  72 100 136 182 232 284 350 444
#
# _framework density 20.98536
#
# number of rings (size 3 to 8) (size 9 to 14) (size 15 to 20)
#    0.000    0.800    4.000    2.400    5.600    0.400 
#    0.000    0.000    0.000    0.000    0.000    0.000 
#    0.000    0.000    0.000    0.000    0.000    0.000 
#
# Total GULP energy -495799.389274 kJ/mol
# GULP energy per Si atom -12394.984732 kJ/mol
# Density = 2.093760 g / cm^3
# Si number density = 20.985360 Si / 1000 Ang^3
#
#
#
# Elastic Constant Matrix: (Units=GPa)
#
#
# Indices 1 2 3 4 5 6 
#
# 1 118.3873 49.8660 47.1425 0.0000 0.0000 0.0000
# 2 49.8660 118.3874 47.1421 0.0000 0.0000 0.0000
# 3 47.1425 47.1421 98.4623 0.0000 0.0000 0.0000
# 4 0.0000 0.0000 0.0000 39.3801 0.0000 0.0000
# 5 0.0000 0.0000 0.0000 0.0000 39.3804 0.0000
# 6 0.0000 0.0000 0.0000 0.0000 0.0000 36.6318
#
#
#
# Elastic Compliance Matrix: (Units=1/GPa)
#
#
# Indices 1 2 3 4 5 6 
#
# 1 0.011358 -0.003236 -0.003889 0.000000 0.000000 0.000000
# 2 -0.003236 0.011358 -0.003889 0.000000 0.000000 0.000000
# 3 -0.003889 -0.003889 0.013880 0.000000 0.000000 0.000000
# 4 0.000000 0.000000 0.000000 0.025394 0.000000 0.000000
# 5 0.000000 0.000000 0.000000 0.000000 0.025393 0.000000
# 6 0.000000 0.000000 0.000000 0.000000 0.000000 0.027299
#
#
# Mechanical properties :
#
#
# Convention : Reuss Voigt Hill
#
# Bulk Modulus (GPa) = 68.63659 69.28204 68.95931
# Shear Modulus (GPa) = 35.31911 35.81755 35.56833
#
# Velocity S-wave (km/s) = 4.10693 4.13581 4.12140
# Velocity P-wave (km/s) = 7.43418 7.47614 7.45519
#
# Compressibility (1/GPa) = 0.01456949
#
# Stress axis : x y z
#
# Youngs Moduli (GPa) = 88.04062 88.04110 72.04506
#
# Poissons Ratio (x) = 0.28487 0.28019
# Poissons Ratio (y) = 0.28487 0.28018
# Poissons Ratio (z) = 0.34240 0.34239
#
# Static dielectric constant tensor:
#      x y z
#    x 4.051160 0.000000 0.000000 
#    y 0.000000 4.051110 0.000000 
#    z 0.000000 0.000000 3.633460 
# 
# 
# High freq. dielectric constant tensor:
#      x y z
#    x 1.838050 0.000000 0.000000 
#    y 0.000000 1.838050 0.000000 
#    z 0.000000 0.000000 1.811180 
# 
# From -- ./inp_files/3500.got.cif
#   From: 2010.03.12/outbox.cif.g09.slc.cpg/sg120_2_cif.got.tgz:3500.got - 2010.04.06 16:00:44.
