data_PCOD8311359
_publ_section_title
;
Structure prediction by ZEFSAII (Michael W. Deem and Ramdas Pophale) SiO2 
 PCOD8311359
Probable space group: I -4 2 M
;
_chemical_formula_sum "Si O2"
_cell_formula_units_Z 120
_cell_length_a 26.980099
_cell_length_b 26.980099
_cell_length_c 11.916203
_cell_angle_alpha 90.000000
_cell_angle_beta 90.000000
_cell_angle_gamma 90.000000
_cell_volume 8674.110911
_symmetry_space_group_name_H-M "I -4 2 M"
_symmetry_group_IT_number 121
_symmetry_cell_setting 'tetragonal'
loop_
_space_group_symop_operation_xyz
x,y,z
y,-x,-z
-x,-y,z
-y,x,-z
x,-y,-z
-x,y,-z
-y,-x,z
y,x,z
1/2+x,1/2+y,1/2+z
1/2+y,1/2-x,1/2-z
1/2-x,1/2-y,1/2+z
1/2-y,1/2+x,1/2-z
1/2+x,1/2-y,1/2-z
1/2-x,1/2+y,1/2-z
1/2-y,1/2-x,1/2+z
1/2+y,1/2+x,1/2+z
loop_
_atom_site_type_symbol
_atom_site_label
_atom_site_fract_x
_atom_site_fract_y
_atom_site_fract_z
Si Si1 0.190051 0.109658 0.831137
Si Si2 0.746422 0.337634 0.844334
Si Si3 0.349401 0.567706 0.211209
Si Si4 0.806516 0.110351 0.922624
Si Si5 0.000000 0.921464 0.000000
Si Si6 0.386664 0.466073 0.267061
Si Si7 0.134741 0.781825 0.580838
Si Si8 0.822655 0.739702 0.208202
O O1 0.159378 0.159378 0.854489
O O2 0.238110 0.124203 0.758408
O O3 0.158459 0.071921 0.755803
O O4 0.203774 0.087436 0.953809
O O5 0.703882 0.296118 0.847765
O O6 0.800667 0.313842 0.825223
O O7 0.744669 0.368900 0.960172
O O8 0.394065 0.605936 0.208700
O O9 0.321629 0.568078 0.332527
O O10 0.373362 0.513320 0.189467
O O11 0.308981 0.582951 0.115902
O O12 0.851778 0.148223 0.923648
O O13 0.756214 0.138169 0.886227
O O14 0.018184 0.888428 0.102682
O O15 0.044812 0.955189 0.953366
O O16 0.438551 0.438551 0.231651
O O17 0.176755 0.823246 0.581172
O O18 0.149623 0.739571 0.671438
O O19 0.777745 0.777745 0.213740
#
# Coordination Sequence:
#
# PCOD8311359 Si02
#       8
#    16  16  16  16   8  16  16  16
#     4   9  17  25  33  49  71  91 111 141 180 219
#     4   9  16  24  36  51  70  90 109 135 167 214
#     4   9  16  27  40  51  68  92 119 156 195 233
#     4   8  14  24  36  52  72  90 108 134 179 231
#     4   9  16  24  36  54  70  84 110 156 210 254
#     4  10  18  26  36  51  70  93 123 157 198 242
#     4   8  15  26  37  52  69  88 113 137 173 220
#     4   8  14  22  36  54  69  87 107 129 162 217
#
# _framework density 13.834270999999999
#
# number of rings (size 3 to 8) (size 9 to 14) (size 15 to 20)
#    0.000    3.267    0.000    2.800    1.867    2.933 
#    0.000    0.667    0.000    0.000    0.000    0.933 
#    0.000   10.667    0.000    0.267    0.000    0.000 
#
# Total GULP energy -743350.824198 kJ/mol
# GULP energy per Si atom -12389.180403 kJ/mol
# Density = 1.380278 g / cm^3
# Si number density = 13.834271 Si / 1000 Ang^3
#
#
#
# Elastic Constant Matrix: (Units=GPa)
#
#
# Indices 1 2 3 4 5 6 
#
# 1 38.4984 34.7841 14.9993 0.0000 0.0000 0.0000
# 2 34.7841 38.4984 14.9987 0.0000 0.0000 0.0000
# 3 14.9993 14.9987 49.9743 0.0000 0.0000 0.0000
# 4 0.0000 0.0000 0.0000 9.6667 0.0000 0.0000
# 5 0.0000 0.0000 0.0000 0.0000 9.6665 0.0000
# 6 0.0000 0.0000 0.0000 0.0000 0.0000 24.5228
#
#
#
# Elastic Compliance Matrix: (Units=1/GPa)
#
#
# Indices 1 2 3 4 5 6 
#
# 1 0.142394 -0.126836 -0.004671 0.000000 0.000000 0.000000
# 2 -0.126836 0.142392 -0.004667 0.000000 0.000000 0.000000
# 3 -0.004671 -0.004667 0.022813 0.000000 0.000000 0.000000
# 4 0.000000 0.000000 0.000000 0.103448 0.000000 0.000000
# 5 0.000000 0.000000 0.000000 0.000000 0.103450 0.000000
# 6 0.000000 0.000000 0.000000 0.000000 0.000000 0.040778
#
#
# Mechanical properties :
#
#
# Convention : Reuss Voigt Hill
#
# Bulk Modulus (GPa) = 28.36843 28.50393 28.43618
# Shear Modulus (GPa) = 5.95681 12.91714 9.43698
#
# Velocity S-wave (km/s) = 2.07730 3.05898 2.61462
# Velocity P-wave (km/s) = 5.12874 5.75543 5.45110
#
# Compressibility (1/GPa) = 0.03525045
#
# Stress axis : x y z
#
# Youngs Moduli (GPa) = 7.02277 7.02285 43.83448
#
# Poissons Ratio (x) = 0.89075 0.20476
# Poissons Ratio (y) = 0.89074 0.20458
# Poissons Ratio (z) = 0.03281 0.03278
#
# Static dielectric constant tensor:
#      x y z
#    x 2.537910 0.000000 0.000000 
#    y 0.000000 2.537900 0.000000 
#    z 0.000000 0.000000 2.911010 
# 
# 
# High freq. dielectric constant tensor:
#      x y z
#    x 1.483750 0.000000 0.000000 
#    y 0.000000 1.483750 0.000000 
#    z 0.000000 0.000000 1.529270 
# 
# From -- ./inp_files/3568.got.cif
#   From: 2010.03.12/outbox.cif.g09.slc.cpg/sg121_2_cif.got.tgz:3568.got - 2010.04.06 16:06:48.
