data_PCOD8311632
_publ_section_title
;
Structure prediction by ZEFSAII (Michael W. Deem and Ramdas Pophale) SiO2 
 PCOD8311632
Probable space group: I -4 2 M
;
_chemical_formula_sum "Si O2"
_cell_formula_units_Z 64
_cell_length_a 13.785244
_cell_length_b 13.785244
_cell_length_c 19.492261
_cell_angle_alpha 90.000000
_cell_angle_beta 90.000000
_cell_angle_gamma 90.000000
_cell_volume 3704.171902
_symmetry_space_group_name_H-M "I -4 2 M"
_symmetry_group_IT_number 121
_symmetry_cell_setting 'tetragonal'
loop_
_space_group_symop_operation_xyz
x,y,z
y,-x,-z
-x,-y,z
-y,x,-z
x,-y,-z
-x,y,-z
-y,-x,z
y,x,z
1/2+x,1/2+y,1/2+z
1/2+y,1/2-x,1/2-z
1/2-x,1/2-y,1/2+z
1/2-y,1/2+x,1/2-z
1/2+x,1/2-y,1/2-z
1/2-x,1/2+y,1/2-z
1/2-y,1/2-x,1/2+z
1/2+y,1/2+x,1/2+z
loop_
_atom_site_type_symbol
_atom_site_label
_atom_site_fract_x
_atom_site_fract_y
_atom_site_fract_z
Si Si1 0.764174 0.923469 0.060108
Si Si2 0.657465 0.500711 0.700767
Si Si3 0.959801 0.608028 0.569467
Si Si4 0.649146 0.994963 0.721149
O O1 0.831713 0.831713 0.044214
O O2 0.795622 0.979156 0.127776
O O3 0.655638 0.885640 0.068734
O O4 0.773406 0.000000 0.000000
O O5 0.598775 0.401226 0.695554
O O6 0.588751 0.588751 0.724196
O O7 0.740342 0.487677 0.756656
O O8 0.000380 0.655968 0.638747
O O9 0.000000 0.500000 0.569756
O O10 0.000000 0.660362 0.500000
O O11 0.590698 0.900543 0.747137
#
# Coordination Sequence:
#
# PCOD8311632 Si02
#       4
#    16  16  16  16
#     4  11  21  35  55  84 116 149 183 222 279 339
#     4  10  22  38  56  81 114 149 184 228 281 332
#     4  11  20  36  59  79 114 149 184 230 275 323
#     4  11  20  35  57  85 109 143 188 230 275 324
#
# _framework density 17.277816000000001
#
# number of rings (size 3 to 8) (size 9 to 14) (size 15 to 20)
#    0.000    1.250    7.500    0.750    0.000    3.250 
#    0.000    1.250    0.000    0.000    0.000    1.750 
#    0.000    0.000    0.000    0.000    0.000    0.000 
#
# Total GULP energy -396818.101498 kJ/mol
# GULP energy per Si atom -12400.565672 kJ/mol
# Density = 1.723849 g / cm^3
# Si number density = 17.277816 Si / 1000 Ang^3
#
#
#
# Elastic Constant Matrix: (Units=GPa)
#
#
# Indices 1 2 3 4 5 6 
#
# 1 84.3581 13.3353 30.5227 0.0000 0.0000 0.0000
# 2 13.3353 84.3593 30.5234 0.0000 0.0000 0.0000
# 3 30.5227 30.5234 126.8949 0.0000 0.0000 0.0000
# 4 0.0000 0.0000 0.0000 58.5435 0.0000 0.0000
# 5 0.0000 0.0000 0.0000 0.0000 58.6126 0.0000
# 6 0.0000 0.0000 0.0000 0.0000 0.0000 7.4929
#
#
#
# Elastic Compliance Matrix: (Units=1/GPa)
#
#
# Indices 1 2 3 4 5 6 
#
# 1 0.013063 -0.001017 -0.002898 0.000000 0.000000 0.000000
# 2 -0.001017 0.013063 -0.002898 0.000000 0.000000 0.000000
# 3 -0.002898 -0.002898 0.009275 0.000000 0.000000 0.000000
# 4 0.000000 0.000000 0.000000 0.017081 0.000000 0.000000
# 5 0.000000 0.000000 0.000000 0.000000 0.017061 0.000000
# 6 0.000000 0.000000 0.000000 0.000000 0.000000 0.133459
#
#
# Mechanical properties :
#
#
# Convention : Reuss Voigt Hill
#
# Bulk Modulus (GPa) = 45.91955 49.37500 47.64728
# Shear Modulus (GPa) = 22.33284 39.67852 31.00568
#
# Velocity S-wave (km/s) = 3.59914 4.79738 4.24079
# Velocity P-wave (km/s) = 6.62620 7.70231 7.18444
#
# Compressibility (1/GPa) = 0.02177722
#
# Stress axis : x y z
#
# Youngs Moduli (GPa) = 76.54996 76.55075 107.82200
#
# Poissons Ratio (x) = 0.07782 0.31243
# Poissons Ratio (y) = 0.07782 0.31244
# Poissons Ratio (z) = 0.22182 0.22182
#
# Static dielectric constant tensor:
#      x y z
#    x 3.165850 0.000000 0.000000 
#    y 0.000000 3.165690 0.000000 
#    z 0.000000 0.000000 4.002880 
# 
# 
# High freq. dielectric constant tensor:
#      x y z
#    x 1.657820 0.000000 0.000000 
#    y 0.000000 1.657820 0.000000 
#    z 0.000000 0.000000 1.683200 
# 
# From -- ./inp_files/5084.got.cif
#   From: 2010.03.12/outbox.cif.g09.slc.cpg/sg121_3_cif.got.tgz:5084.got - 2010.04.06 16:06:48.
