data_PCOD8311719
_publ_section_title
;
Structure prediction by ZEFSAII (Michael W. Deem and Ramdas Pophale) SiO2 
 PCOD8311719
Probable space group: I -4 2 M
;
_chemical_formula_sum "Si O2"
_cell_formula_units_Z 56
_cell_length_a 20.638697
_cell_length_b 20.638697
_cell_length_c 7.708879
_cell_angle_alpha 90.000000
_cell_angle_beta 90.000000
_cell_angle_gamma 90.000000
_cell_volume 3283.641828
_symmetry_space_group_name_H-M "I -4 2 M"
_symmetry_group_IT_number 121
_symmetry_cell_setting 'tetragonal'
loop_
_space_group_symop_operation_xyz
x,y,z
y,-x,-z
-x,-y,z
-y,x,-z
x,-y,-z
-x,y,-z
-y,-x,z
y,x,z
1/2+x,1/2+y,1/2+z
1/2+y,1/2-x,1/2-z
1/2-x,1/2-y,1/2+z
1/2-y,1/2+x,1/2-z
1/2+x,1/2-y,1/2-z
1/2-x,1/2+y,1/2-z
1/2-y,1/2-x,1/2+z
1/2+y,1/2+x,1/2+z
loop_
_atom_site_type_symbol
_atom_site_label
_atom_site_fract_x
_atom_site_fract_y
_atom_site_fract_z
Si Si1 0.351010 0.241835 0.609404
Si Si2 0.000000 0.103883 0.000000
Si Si3 0.193164 0.914020 0.193241
Si Si4 0.857693 0.251381 0.506818
O O1 0.297537 0.297537 0.610359
O O2 0.406566 0.257126 0.467957
O O3 0.317608 0.173486 0.565280
O O4 0.384853 0.237421 0.798934
O O5 0.022497 0.148428 0.837993
O O6 0.059516 0.059516 0.067765
O O7 0.150060 0.849941 0.196406
O O8 0.230693 0.916642 0.377548
O O9 0.803292 0.196709 0.512760
#
# Coordination Sequence:
#
# PCOD8311719 Si02
#       4
#    16   8  16  16
#     4   9  14  21  36  59  82  97 115 156 217 279
#     4   9  18  32  46  56  74 118 174 205 210 222
#     4   9  16  26  40  56  76 103 136 179 219 245
#     4   9  14  21  36  59  82  97 115 156 217 279
#
# _framework density 17.054236
#
# number of rings (size 3 to 8) (size 9 to 14) (size 15 to 20)
#    0.000    3.000    2.857    0.000    0.000    0.000 
#    0.000    1.429    0.000    5.143    0.000   16.000 
#    0.000    0.000    0.000    0.000    0.000    4.286 
#
# Total GULP energy -346904.012154 kJ/mol
# GULP energy per Si atom -12389.429006 kJ/mol
# Density = 1.701542 g / cm^3
# Si number density = 17.054236 Si / 1000 Ang^3
#
#
#
# Elastic Constant Matrix: (Units=GPa)
#
#
# Indices 1 2 3 4 5 6 
#
# 1 24.3825 20.4950 11.3086 0.0000 0.0000 0.0000
# 2 20.4950 24.3831 11.3091 0.0000 0.0000 0.0000
# 3 11.3086 11.3091 117.8897 0.0000 0.0000 0.0000
# 4 0.0000 0.0000 0.0000 10.4234 0.0000 0.0000
# 5 0.0000 0.0000 0.0000 0.0000 10.4235 0.0000
# 6 0.0000 0.0000 0.0000 0.0000 0.0000 18.6604
#
#
#
# Elastic Compliance Matrix: (Units=1/GPa)
#
#
# Indices 1 2 3 4 5 6 
#
# 1 0.140315 -0.116899 -0.002246 0.000000 0.000000 0.000000
# 2 -0.116899 0.140312 -0.002247 0.000000 0.000000 0.000000
# 3 -0.002246 -0.002247 0.008913 0.000000 0.000000 0.000000
# 4 0.000000 0.000000 0.000000 0.095938 0.000000 0.000000
# 5 0.000000 0.000000 0.000000 0.000000 0.095937 0.000000
# 6 0.000000 0.000000 0.000000 0.000000 0.000000 0.053589
#
#
# Mechanical properties :
#
#
# Convention : Reuss Voigt Hill
#
# Bulk Modulus (GPa) = 21.38649 28.09784 24.74217
# Shear Modulus (GPa) = 6.30221 16.13764 11.21992
#
# Velocity S-wave (km/s) = 1.92443 3.07946 2.56773
# Velocity P-wave (km/s) = 4.18394 5.39958 4.83016
#
# Compressibility (1/GPa) = 0.04675848
#
# Stress axis : x y z
#
# Youngs Moduli (GPa) = 7.12683 7.12698 112.19019
#
# Poissons Ratio (x) = 0.83313 0.25195
# Poissons Ratio (y) = 0.83312 0.25204
# Poissons Ratio (z) = 0.01600 0.01601
#
# Static dielectric constant tensor:
#      x y z
#    x 2.826170 0.000000 0.000000 
#    y 0.000000 2.826170 0.000000 
#    z 0.000000 0.000000 3.597160 
# 
# 
# High freq. dielectric constant tensor:
#      x y z
#    x 1.606400 0.000000 0.000000 
#    y 0.000000 1.606400 0.000000 
#    z 0.000000 0.000000 1.669960 
# 
# From -- ./inp_files/1505.got.cif
#   From: 2010.03.12/outbox.cif.g09.slc.cpg/sg121_1_cif.got.tgz:1505.got - 2010.04.06 16:06:48.
