data_PCOD8311700
_publ_section_title
;
Structure prediction by ZEFSAII (Michael W. Deem and Ramdas Pophale) SiO2 
 PCOD8311700
Probable space group: I -4 2 M
;
_chemical_formula_sum "Si O2"
_cell_formula_units_Z 58
_cell_length_a 10.575878
_cell_length_b 10.575878
_cell_length_c 23.513536
_cell_angle_alpha 90.000000
_cell_angle_beta 90.000000
_cell_angle_gamma 90.000000
_cell_volume 2629.970084
_symmetry_space_group_name_H-M "I -4 2 M"
_symmetry_group_IT_number 121
_symmetry_cell_setting 'tetragonal'
loop_
_space_group_symop_operation_xyz
x,y,z
y,-x,-z
-x,-y,z
-y,x,-z
x,-y,-z
-x,y,-z
-y,-x,z
y,x,z
1/2+x,1/2+y,1/2+z
1/2+y,1/2-x,1/2-z
1/2-x,1/2-y,1/2+z
1/2-y,1/2+x,1/2-z
1/2+x,1/2-y,1/2-z
1/2-x,1/2+y,1/2-z
1/2-y,1/2-x,1/2+z
1/2+y,1/2+x,1/2+z
loop_
_atom_site_type_symbol
_atom_site_label
_atom_site_fract_x
_atom_site_fract_y
_atom_site_fract_z
Si Si1 0.300418 0.300418 0.539163
Si Si2 0.693797 0.032976 0.761011
Si Si3 0.650858 0.974166 0.115864
Si Si4 0.500000 0.500000 0.500000
Si Si5 0.256188 0.256188 0.412887
Si Si6 0.098275 0.098275 0.323564
O O1 0.179677 0.363243 0.570683
O O2 0.408601 0.408601 0.536134
O O3 0.243499 0.243499 0.480939
O O4 0.603676 0.132216 0.729538
O O5 0.712534 0.079395 0.825565
O O6 0.811716 0.022087 0.719533
O O7 0.500000 0.000000 0.119588
O O8 0.726470 0.099830 0.100918
O O9 0.164313 0.164313 0.377204
O O10 0.000000 0.000000 0.350807
#
# Coordination Sequence:
#
# PCOD8311700 Si02
#       6
#     8  16  16   2   8   8
#     4  12  25  44  77 105 137 196 244 296 358 426
#     4  11  22  45  70 103 140 181 226 288 357 427
#     4  12  24  46  74 106 143 187 238 299 365 424
#     4  12  20  48  68 108 140 168 256 312 348 402
#     4  12  24  46  71  98 148 185 231 305 349 415
#     4  12  27  41  71 107 143 190 230 286 364 445
#
# _framework density 22.053483
#
# number of rings (size 3 to 8) (size 9 to 14) (size 15 to 20)
#    0.000    0.276    8.276    0.828    3.862    2.207 
#    9.931    0.000    3.034    0.000    0.000    0.000 
#    0.000    0.000    0.000    0.000    0.000    0.000 
#
# Total GULP energy -359404.330526 kJ/mol
# GULP energy per Si atom -12393.252777 kJ/mol
# Density = 2.200329 g / cm^3
# Si number density = 22.053483 Si / 1000 Ang^3
#
#
#
# Elastic Constant Matrix: (Units=GPa)
#
#
# Indices 1 2 3 4 5 6 
#
# 1 93.9976 45.5184 49.5788 0.0000 0.0000 0.0000
# 2 45.5184 93.9976 49.5788 0.0000 0.0000 0.0000
# 3 49.5788 49.5788 179.9106 0.0000 0.0000 0.0000
# 4 0.0000 0.0000 0.0000 31.4275 0.0000 0.0000
# 5 0.0000 0.0000 0.0000 0.0000 31.4275 0.0000
# 6 0.0000 0.0000 0.0000 0.0000 0.0000 34.8615
#
#
#
# Elastic Compliance Matrix: (Units=1/GPa)
#
#
# Indices 1 2 3 4 5 6 
#
# 1 0.014770 -0.005857 -0.002456 0.000000 0.000000 0.000000
# 2 -0.005857 0.014770 -0.002456 0.000000 0.000000 0.000000
# 3 -0.002456 -0.002456 0.006912 0.000000 0.000000 0.000000
# 4 0.000000 0.000000 0.000000 0.031819 0.000000 0.000000
# 5 0.000000 0.000000 0.000000 0.000000 0.031819 0.000000
# 6 0.000000 0.000000 0.000000 0.000000 0.000000 0.028685
#
#
# Mechanical properties :
#
#
# Convention : Reuss Voigt Hill
#
# Bulk Modulus (GPa) = 67.05253 73.02863 70.04058
# Shear Modulus (GPa) = 32.19848 34.42529 33.31189
#
# Velocity S-wave (km/s) = 3.82516 3.95522 3.89074
# Velocity P-wave (km/s) = 7.06963 7.35150 7.21194
#
# Compressibility (1/GPa) = 0.01491368
#
# Stress axis : x y z
#
# Youngs Moduli (GPa) = 67.70293 67.70293 144.67370
#
# Poissons Ratio (x) = 0.39654 0.35536
# Poissons Ratio (y) = 0.39654 0.35536
# Poissons Ratio (z) = 0.16630 0.16630
#
# Static dielectric constant tensor:
#      x y z
#    x 4.020210 0.000000 0.000000 
#    y 0.000000 4.020210 0.000000 
#    z 0.000000 0.000000 4.222740 
# 
# 
# High freq. dielectric constant tensor:
#      x y z
#    x 1.862310 0.000000 0.000000 
#    y 0.000000 1.862310 0.000000 
#    z 0.000000 0.000000 1.882740 
# 
# From -- ./inp_files/6077.got.cif
#   From: 2010.03.12/outbox.cif.g09.slc.cpg/sg121_4_cif.got.tgz:6077.got - 2010.04.06 16:06:48.
