data_PCOD8311249
_publ_section_title
;
Structure prediction by ZEFSAII (Michael W. Deem and Ramdas Pophale) SiO2 
 PCOD8311249
Probable space group: I -4 C 2
;
_chemical_formula_sum "Si O2"
_cell_formula_units_Z 72
_cell_length_a 20.170346
_cell_length_b 20.170346
_cell_length_c 8.790486
_cell_angle_alpha 90.000000
_cell_angle_beta 90.000000
_cell_angle_gamma 90.000000
_cell_volume 3576.346445
_symmetry_space_group_name_H-M "I -4 C 2"
_symmetry_group_IT_number 120
_symmetry_cell_setting 'tetragonal'
loop_
_space_group_symop_operation_xyz
x,y,z
y,-x,-z
-x,-y,z
-y,x,-z
y,x,1/2-z
-y,-x,1/2-z
-x,y,1/2+z
x,-y,1/2+z
1/2+x,1/2+y,1/2+z
1/2+y,1/2-x,1/2-z
1/2-x,1/2-y,1/2+z
1/2-y,1/2+x,1/2-z
1/2+y,1/2+x,-z
1/2-y,1/2-x,-z
1/2-x,1/2+y,z
1/2+x,1/2-y,z
loop_
_atom_site_type_symbol
_atom_site_label
_atom_site_fract_x
_atom_site_fract_y
_atom_site_fract_z
Si Si1 0.434901 0.768303 0.941482
Si Si2 0.500000 0.000000 0.750000
Si Si3 0.500000 0.500000 0.500000
Si Si4 0.783954 0.057089 0.375566
Si Si5 0.699954 0.700756 0.069532
Si Si6 0.921130 0.421130 0.500000
Si Si7 0.572365 0.572365 0.250000
O O1 0.441097 0.771605 0.757779
O O2 0.368562 0.728962 0.992433
O O3 0.433992 0.842683 0.004495
O O4 0.496115 0.728469 0.013543
O O5 0.453598 0.047240 0.649450
O O6 0.527392 0.558529 0.395971
O O7 0.786720 0.123571 0.479000
O O8 0.852387 0.054774 0.283651
O O9 0.703829 0.703829 0.250000
O O10 0.739096 0.760905 0.000000
#
# Coordination Sequence:
#
# PCOD8311249 Si02
#       7
#    16   4   4  16  16   8   8
#     4  11  22  41  66  93 127 167 211 269 322 390
#     4  10  24  42  64  98 124 162 204 282 324 406
#     4  10  24  34  60  86 120 178 200 258 308 374
#     4  11  23  41  62  92 127 165 213 268 317 385
#     4  10  22  43  63  89 129 165 208 266 323 385
#     4  11  22  44  68  92 128 162 214 263 338 390
#     4  11  20  40  58  86 128 162 216 252 314 369
#
# _framework density 20.132279
#
# number of rings (size 3 to 8) (size 9 to 14) (size 15 to 20)
#    0.000    1.333    4.444    2.667    0.000    1.778 
#   12.000    0.000    0.000    0.000    0.000    0.000 
#    0.000    0.000    0.000    0.000    0.000    0.000 
#
# Total GULP energy -446395.818301 kJ/mol
# GULP energy per Si atom -12399.883842 kJ/mol
# Density = 2.008646 g / cm^3
# Si number density = 20.132279 Si / 1000 Ang^3
#
#
#
# Elastic Constant Matrix: (Units=GPa)
#
#
# Indices 1 2 3 4 5 6 
#
# 1 218.5887 22.9187 52.9098 0.0000 0.0000 0.0000
# 2 22.9187 218.5922 52.8927 0.0000 0.0000 0.0000
# 3 52.9098 52.8927 68.1999 0.0000 0.0000 0.0000
# 4 0.0000 0.0000 0.0000 32.5308 0.0000 0.0000
# 5 0.0000 0.0000 0.0000 0.0000 32.5279 0.0000
# 6 0.0000 0.0000 0.0000 0.0000 0.0000 34.7736
#
#
#
# Elastic Compliance Matrix: (Units=1/GPa)
#
#
# Indices 1 2 3 4 5 6 
#
# 1 0.005692 0.000581 -0.004866 0.000000 0.000000 0.000000
# 2 0.000581 0.005691 -0.004864 0.000000 0.000000 0.000000
# 3 -0.004866 -0.004864 0.022210 0.000000 0.000000 0.000000
# 4 0.000000 0.000000 0.000000 0.030740 0.000000 0.000000
# 5 0.000000 0.000000 0.000000 0.000000 0.030743 0.000000
# 6 0.000000 0.000000 0.000000 0.000000 0.000000 0.028757
#
#
# Mechanical properties :
#
#
# Convention : Reuss Voigt Hill
#
# Bulk Modulus (GPa) = 65.38522 84.75814 75.07168
# Shear Modulus (GPa) = 33.96053 45.07711 39.51882
#
# Velocity S-wave (km/s) = 4.11161 4.73699 4.43533
# Velocity P-wave (km/s) = 7.42218 8.49181 7.97495
#
# Compressibility (1/GPa) = 0.01529398
#
# Stress axis : x y z
#
# Youngs Moduli (GPa) = 175.69288 175.72261 45.02447
#
# Poissons Ratio (x) = -0.10204 0.21909
# Poissons Ratio (y) = -0.10202 0.21900
# Poissons Ratio (z) = 0.85493 0.85471
#
# Static dielectric constant tensor:
#      x y z
#    x 2.929430 0.000000 0.000000 
#    y 0.000000 2.929390 0.000000 
#    z 0.000000 0.000000 3.608070 
# 
# 
# High freq. dielectric constant tensor:
#      x y z
#    x 1.797380 0.000000 0.000000 
#    y 0.000000 1.797380 0.000000 
#    z 0.000000 0.000000 1.777600 
# 
# From -- ./inp_files/1389.got.cif
#   From: 2010.03.12/outbox.cif.g09.slc.cpg/sg120_1_cif.got.tgz:1389.got - 2010.04.06 16:00:44.
