data_PCOD8311513
_publ_section_title
;
Structure prediction by ZEFSAII (Michael W. Deem and Ramdas Pophale) SiO2 
 PCOD8311513
Probable space group: I -4 2 M
;
_chemical_formula_sum "Si O2"
_cell_formula_units_Z 96
_cell_length_a 27.162974
_cell_length_b 27.162974
_cell_length_c 8.825426
_cell_angle_alpha 90.000000
_cell_angle_beta 90.000000
_cell_angle_gamma 90.000000
_cell_volume 6511.638971
_symmetry_space_group_name_H-M "I -4 2 M"
_symmetry_group_IT_number 121
_symmetry_cell_setting 'tetragonal'
loop_
_space_group_symop_operation_xyz
x,y,z
y,-x,-z
-x,-y,z
-y,x,-z
x,-y,-z
-x,y,-z
-y,-x,z
y,x,z
1/2+x,1/2+y,1/2+z
1/2+y,1/2-x,1/2-z
1/2-x,1/2-y,1/2+z
1/2-y,1/2+x,1/2-z
1/2+x,1/2-y,1/2-z
1/2-x,1/2+y,1/2-z
1/2-y,1/2-x,1/2+z
1/2+y,1/2+x,1/2+z
loop_
_atom_site_type_symbol
_atom_site_label
_atom_site_fract_x
_atom_site_fract_y
_atom_site_fract_z
Si Si1 0.601671 0.682057 0.320752
Si Si2 0.177996 0.259535 0.329853
Si Si3 0.393097 0.313314 0.678493
Si Si4 0.078281 0.996985 0.163681
Si Si5 0.328144 0.245425 0.167215
Si Si6 0.170351 0.004725 0.325681
O O1 0.633862 0.633862 0.270881
O O2 0.600163 0.685735 0.500146
O O3 0.625398 0.731436 0.253133
O O4 0.545746 0.681620 0.262397
O O5 0.224683 0.224683 0.347875
O O6 0.137518 0.235015 0.221926
O O7 0.196154 0.310591 0.254648
O O8 0.155770 0.269377 0.496820
O O9 0.362876 0.362876 0.730779
O O10 0.446065 0.305586 0.757541
O O11 0.058441 0.941560 0.190349
O O12 0.112014 0.012720 0.303628
O O13 0.033107 0.033107 0.152608
O O14 0.106603 0.000000 0.000000
O O15 0.284291 0.284291 0.163384
O O16 0.185272 0.000000 0.500000
#
# Coordination Sequence:
#
# PCOD8311513 Si02
#       6
#    16  16  16  16  16  16
#     4  10  20  33  47  61  79 106 139 173 210 251
#     4   9  16  27  44  65  86 105 128 161 201 244
#     4  10  20  33  47  61  79 106 139 173 210 251
#     4   9  18  32  46  56  68  92 128 168 209 251
#     4   9  16  27  44  65  86 105 128 161 201 244
#     4  12  23  31  41  58  80 104 132 169 211 252
#
# _framework density 14.742832
#
# number of rings (size 3 to 8) (size 9 to 14) (size 15 to 20)
#    0.000    2.167    0.000    5.000    0.000   10.667 
#    0.000    0.833    0.000    0.000    0.000    0.000 
#    0.000    0.000    0.000    0.000    0.000    0.833 
#
# Total GULP energy -594785.436351 kJ/mol
# GULP energy per Si atom -12391.363257 kJ/mol
# Density = 1.470928 g / cm^3
# Si number density = 14.742832 Si / 1000 Ang^3
#
#
#
# Elastic Constant Matrix: (Units=GPa)
#
#
# Indices 1 2 3 4 5 6 
#
# 1 58.3027 42.2656 31.1002 0.0000 0.0000 0.0000
# 2 42.2656 58.3033 31.1002 0.0000 0.0000 0.0000
# 3 31.1002 31.1002 87.8987 0.0000 0.0000 0.0000
# 4 0.0000 0.0000 0.0000 22.8351 0.0000 0.0000
# 5 0.0000 0.0000 0.0000 0.0000 22.8351 0.0000
# 6 0.0000 0.0000 0.0000 0.0000 0.0000 14.8623
#
#
#
# Elastic Compliance Matrix: (Units=1/GPa)
#
#
# Indices 1 2 3 4 5 6 
#
# 1 0.037542 -0.024813 -0.004504 0.000000 0.000000 0.000000
# 2 -0.024813 0.037541 -0.004504 0.000000 0.000000 0.000000
# 3 -0.004504 -0.004504 0.014564 0.000000 0.000000 0.000000
# 4 0.000000 0.000000 0.000000 0.043792 0.000000 0.000000
# 5 0.000000 0.000000 0.000000 0.000000 0.043792 0.000000
# 6 0.000000 0.000000 0.000000 0.000000 0.000000 0.067285
#
#
# Mechanical properties :
#
#
# Convention : Reuss Voigt Hill
#
# Bulk Modulus (GPa) = 45.44071 45.93743 45.68907
# Shear Modulus (GPa) = 15.64984 18.77573 17.21279
#
# Velocity S-wave (km/s) = 3.26164 3.57255 3.42063
# Velocity P-wave (km/s) = 6.71368 6.94581 6.83073
#
# Compressibility (1/GPa) = 0.02200670
#
# Stress axis : x y z
#
# Youngs Moduli (GPa) = 26.63692 26.63725 68.66360
#
# Poissons Ratio (x) = 0.66094 0.30925
# Poissons Ratio (y) = 0.66093 0.30924
# Poissons Ratio (z) = 0.11997 0.11997
#
# Static dielectric constant tensor:
#      x y z
#    x 2.758120 0.000000 0.000000 
#    y 0.000000 2.758120 0.000000 
#    z 0.000000 0.000000 3.109970 
# 
# 
# High freq. dielectric constant tensor:
#      x y z
#    x 1.532170 0.000000 0.000000 
#    y 0.000000 1.532170 0.000000 
#    z 0.000000 0.000000 1.579900 
# 
# From -- ./inp_files/2052.got.cif
#   From: 2010.03.12/outbox.cif.g09.slc.cpg/sg121_2_cif.got.tgz:2052.got - 2010.04.06 16:06:48.
