data_PCOD8311517
_publ_section_title
;
Structure prediction by ZEFSAII (Michael W. Deem and Ramdas Pophale) SiO2 
 PCOD8311517
Probable space group: I -4 2 M
;
_chemical_formula_sum "Si O2"
_cell_formula_units_Z 96
_cell_length_a 13.816051
_cell_length_b 13.816051
_cell_length_c 30.750676
_cell_angle_alpha 90.000000
_cell_angle_beta 90.000000
_cell_angle_gamma 90.000000
_cell_volume 5869.789443
_symmetry_space_group_name_H-M "I -4 2 M"
_symmetry_group_IT_number 121
_symmetry_cell_setting 'tetragonal'
loop_
_space_group_symop_operation_xyz
x,y,z
y,-x,-z
-x,-y,z
-y,x,-z
x,-y,-z
-x,y,-z
-y,-x,z
y,x,z
1/2+x,1/2+y,1/2+z
1/2+y,1/2-x,1/2-z
1/2-x,1/2-y,1/2+z
1/2-y,1/2+x,1/2-z
1/2+x,1/2-y,1/2-z
1/2-x,1/2+y,1/2-z
1/2-y,1/2-x,1/2+z
1/2+y,1/2+x,1/2+z
loop_
_atom_site_type_symbol
_atom_site_label
_atom_site_fract_x
_atom_site_fract_y
_atom_site_fract_z
Si Si1 0.733340 0.111393 0.951793
Si Si2 0.733336 0.111396 0.048207
Si Si3 0.612957 0.890865 0.129824
Si Si4 0.114825 0.727295 0.714409
Si Si5 0.114827 0.727291 0.285590
Si Si6 0.387047 0.890861 0.129822
O O1 0.833391 0.166609 0.945307
O O2 0.658230 0.146471 0.915308
O O3 0.759183 0.999998 0.945644
O O4 0.689052 0.131194 0.999999
O O5 0.833386 0.166615 0.054694
O O6 0.658222 0.146473 0.084690
O O7 0.642737 0.818098 0.167992
O O8 0.500002 0.889718 0.122244
O O9 0.647739 0.000003 0.141533
O O10 0.170424 0.829577 0.719808
O O11 0.150056 0.650056 0.749998
O O12 0.142733 0.681909 0.667989
O O13 0.999998 0.745011 0.719417
O O14 0.170427 0.829574 0.280191
#
# Coordination Sequence:
#
# PCOD8311517 Si02
#       6
#    16  16  16  16  16  16
#     4   9  17  28  42  61  86 116 148 182 220 262
#     4   9  17  28  42  61  86 116 148 182 220 262
#     4   9  17  29  46  67  89 114 146 184 224 266
#     4  10  20  33  50  71  94 121 152 186 225 269
#     4  10  20  33  50  71  94 121 152 186 225 269
#     4   9  17  29  46  67  89 114 146 184 224 266
#
# _framework density 16.35493
#
# number of rings (size 3 to 8) (size 9 to 14) (size 15 to 20)
#    0.000    2.667    0.000    2.000    0.000    3.000 
#    0.000    5.000    0.000    0.000    0.000    4.667 
#    0.000    0.000    0.000   31.000    0.000    0.667 
#
# Total GULP energy -595029.032684 kJ/mol
# GULP energy per Si atom -12396.438181 kJ/mol
# Density = 1.631771 g / cm^3
# Si number density = 16.354930 Si / 1000 Ang^3
#
#
#
# Elastic Constant Matrix: (Units=GPa)
#
#
# Indices 1 2 3 4 5 6 
#
# 1 64.8550 41.6318 51.0376 0.0000 0.0000 0.0000
# 2 41.6318 64.8547 51.0375 0.0000 0.0000 0.0000
# 3 51.0376 51.0375 128.6043 0.0000 0.0000 0.0000
# 4 0.0000 0.0000 0.0000 26.0972 0.0000 0.0000
# 5 0.0000 0.0000 0.0000 0.0000 26.0968 0.0000
# 6 0.0000 0.0000 0.0000 0.0000 0.0000 21.6398
#
#
#
# Elastic Compliance Matrix: (Units=1/GPa)
#
#
# Indices 1 2 3 4 5 6 
#
# 1 0.029109 -0.013952 -0.006015 0.000000 0.000000 0.000000
# 2 -0.013952 0.029109 -0.006015 0.000000 0.000000 0.000000
# 3 -0.006015 -0.006015 0.012550 0.000000 0.000000 0.000000
# 4 0.000000 0.000000 0.000000 0.038318 0.000000 0.000000
# 5 0.000000 0.000000 0.000000 0.000000 0.038319 0.000000
# 6 0.000000 0.000000 0.000000 0.000000 0.000000 0.046211
#
#
# Mechanical properties :
#
#
# Convention : Reuss Voigt Hill
#
# Bulk Modulus (GPa) = 53.18235 60.63642 56.90938
# Shear Modulus (GPa) = 19.85327 22.40724 21.13025
#
# Velocity S-wave (km/s) = 3.48789 3.70545 3.59831
# Velocity P-wave (km/s) = 6.98632 7.44734 7.22051
#
# Compressibility (1/GPa) = 0.01880323
#
# Stress axis : x y z
#
# Youngs Moduli (GPa) = 34.35403 34.35387 79.68122
#
# Poissons Ratio (x) = 0.47931 0.47929
# Poissons Ratio (y) = 0.47931 0.47929
# Poissons Ratio (z) = 0.20664 0.20664
#
# Static dielectric constant tensor:
#      x y z
#    x 2.979150 0.000000 0.000000 
#    y 0.000000 2.979150 0.000000 
#    z 0.000000 0.000000 3.379740 
# 
# 
# High freq. dielectric constant tensor:
#      x y z
#    x 1.618000 0.000000 0.000000 
#    y 0.000000 1.618000 0.000000 
#    z 0.000000 0.000000 1.646670 
# 
# From -- ./inp_files/8318.got.cif
#   From: 2010.03.12/outbox.cif.g09.slc.cpg/sg121_5_cif.got.tgz:8318.got - 2010.04.06 16:06:48.
