data_PCOD8311095
_publ_section_title
;
Structure prediction by ZEFSAII (Michael W. Deem and Ramdas Pophale) SiO2 
 PCOD8311095
Probable space group: I -4 M 2
;
_chemical_formula_sum "Si O2"
_cell_formula_units_Z 56
_cell_length_a 13.651697
_cell_length_b 13.651697
_cell_length_c 21.963457
_cell_angle_alpha 90.000000
_cell_angle_beta 90.000000
_cell_angle_gamma 90.000000
_cell_volume 4093.303805
_symmetry_space_group_name_H-M "I -4 M 2"
_symmetry_group_IT_number 119
_symmetry_cell_setting 'tetragonal'
loop_
_space_group_symop_operation_xyz
x,y,z
y,-x,-z
-x,-y,z
-y,x,-z
y,x,-z
-y,-x,-z
-x,y,z
x,-y,z
1/2+x,1/2+y,1/2+z
1/2+y,1/2-x,1/2-z
1/2-x,1/2-y,1/2+z
1/2-y,1/2+x,1/2-z
1/2+y,1/2+x,1/2-z
1/2-y,1/2-x,1/2-z
1/2-x,1/2+y,1/2+z
1/2+x,1/2-y,1/2+z
loop_
_atom_site_type_symbol
_atom_site_label
_atom_site_fract_x
_atom_site_fract_y
_atom_site_fract_z
Si Si1 0.113716 0.203103 0.941484
Si Si2 0.886423 0.613578 0.250000
Si Si3 0.780457 0.384055 0.372194
Si Si4 0.384337 0.892511 0.509697
O O1 0.175623 0.167654 0.883162
O O2 0.145021 0.315022 0.957430
O O3 0.000000 0.195286 0.924296
O O4 0.134672 0.134672 0.000000
O O5 0.868312 0.500000 0.234760
O O6 0.822724 0.648714 0.307311
O O7 0.765501 0.500000 0.375450
O O8 0.854794 0.347349 0.424595
O O9 0.500000 0.901075 0.512669
O O10 0.338341 0.000000 0.496020
#
# Coordination Sequence:
#
# PCOD8311095 Si02
#       4
#    16   8  16  16
#     4   9  16  24  36  56  80 102 122 147 182 226
#     4   9  16  26  40  56  74  97 124 156 192 221
#     4   9  16  24  36  55  77  99 122 149 181 221
#     4   8  13  22  36  54  75  96 118 146 180 216
#
# _framework density 13.68088
#
# number of rings (size 3 to 8) (size 9 to 14) (size 15 to 20)
#    0.000    3.286    0.000    3.429    0.000    5.429 
#    0.000    0.000    0.000    1.714    0.000    0.000 
#    0.000   66.857    0.000    0.000    0.000    0.000 
#
# Total GULP energy -347021.374737 kJ/mol
# GULP energy per Si atom -12393.620526 kJ/mol
# Density = 1.364974 g / cm^3
# Si number density = 13.680880 Si / 1000 Ang^3
#
#
#
# Elastic Constant Matrix: (Units=GPa)
#
#
# Indices 1 2 3 4 5 6 
#
# 1 74.9525 32.0769 41.8458 0.0000 0.0000 0.0000
# 2 32.0769 74.9518 41.8458 0.0000 0.0000 0.0000
# 3 41.8458 41.8458 82.0511 0.0000 0.0000 0.0000
# 4 0.0000 0.0000 0.0000 20.8845 0.0000 0.0000
# 5 0.0000 0.0000 0.0000 0.0000 20.8843 0.0000
# 6 0.0000 0.0000 0.0000 0.0000 0.0000 12.6327
#
#
#
# Elastic Compliance Matrix: (Units=1/GPa)
#
#
# Indices 1 2 3 4 5 6 
#
# 1 0.019432 -0.003891 -0.007926 0.000000 0.000000 0.000000
# 2 -0.003891 0.019432 -0.007926 0.000000 0.000000 0.000000
# 3 -0.007926 -0.007926 0.020272 0.000000 0.000000 0.000000
# 4 0.000000 0.000000 0.000000 0.047882 0.000000 0.000000
# 5 0.000000 0.000000 0.000000 0.000000 0.047883 0.000000
# 6 0.000000 0.000000 0.000000 0.000000 0.000000 0.079160
#
#
# Mechanical properties :
#
#
# Convention : Reuss Voigt Hill
#
# Bulk Modulus (GPa) = 50.88972 51.49915 51.19443
# Shear Modulus (GPa) = 17.85096 18.62608 18.23852
#
# Velocity S-wave (km/s) = 3.61613 3.69381 3.65518
# Velocity P-wave (km/s) = 7.39687 7.47778 7.43744
#
# Compressibility (1/GPa) = 0.01965034
#
# Stress axis : x y z
#
# Youngs Moduli (GPa) = 51.46148 51.46071 49.32970
#
# Poissons Ratio (x) = 0.20025 0.39097
# Poissons Ratio (y) = 0.20025 0.39098
# Poissons Ratio (z) = 0.40787 0.40787
#
# Static dielectric constant tensor:
#      x y z
#    x 2.783790 0.000000 0.000000 
#    y 0.000000 2.783790 0.000000 
#    z 0.000000 0.000000 2.567080 
# 
# 
# High freq. dielectric constant tensor:
#      x y z
#    x 1.506150 0.000000 0.000000 
#    y 0.000000 1.506150 0.000000 
#    z 0.000000 0.000000 1.496820 
# 
# From -- ./inp_files/6139.got.cif
#   From: 2010.03.12/outbox.cif.g09.slc.cpg/sg119_4_cif.got.tgz:6139.got - 2010.04.14 02:25:26.
