data_PCOD8311881
_publ_section_title
;
Structure prediction by ZEFSAII (Michael W. Deem and Ramdas Pophale) SiO2 
 PCOD8311881
Probable space group: I -4 2 D
;
_chemical_formula_sum "Si O2"
_cell_formula_units_Z 80
_cell_length_a 11.945458
_cell_length_b 11.945458
_cell_length_c 25.090327
_cell_angle_alpha 90.000000
_cell_angle_beta 90.000000
_cell_angle_gamma 90.000000
_cell_volume 3580.238289
_symmetry_space_group_name_H-M "I -4 2 D"
_symmetry_group_IT_number 122
_symmetry_cell_setting 'tetragonal'
loop_
_space_group_symop_operation_xyz
x,y,z
y,-x,-z
-x,-y,z
-y,x,-z
x,1/2-y,1/4-z
-x,1/2+y,1/4-z
-y,1/2-x,1/4+z
y,1/2+x,1/4+z
1/2+x,1/2+y,1/2+z
1/2+y,1/2-x,1/2-z
1/2-x,1/2-y,1/2+z
1/2-y,1/2+x,1/2-z
1/2+x,-y,3/4-z
1/2-x,y,3/4-z
1/2-y,-x,3/4+z
1/2+y,x,3/4+z
loop_
_atom_site_type_symbol
_atom_site_label
_atom_site_fract_x
_atom_site_fract_y
_atom_site_fract_z
Si Si1 0.455166 0.743669 0.924939
Si Si2 0.411685 0.738312 0.802871
Si Si3 0.877379 0.725603 0.018971
Si Si4 0.066045 0.227616 0.564087
Si Si5 0.794053 0.682037 0.815006
O O1 0.468340 0.738430 0.860929
O O2 0.389670 0.854417 0.947380
O O3 0.383316 0.638331 0.945239
O O4 0.582198 0.732735 0.946248
O O5 0.498674 0.731817 0.754265
O O6 0.335042 0.851096 0.804905
O O7 0.336094 0.629199 0.791834
O O8 0.792790 0.750019 0.970142
O O9 0.043220 0.250000 0.625000
O O10 0.943307 0.210971 0.539305
O O11 0.750000 0.689599 0.875000
#
# Coordination Sequence:
#
# PCOD8311881 Si02
#       5
#    16  16  16  16  16
#     4  10  21  41  64  96 136 170 226 286 338 419
#     4  10  22  45  65  95 133 181 234 281 342 408
#     4  11  24  40  70  93 135 179 232 281 344 409
#     4   8  18  35  61  88 125 172 213 265 335 404
#     4  11  21  38  60  97 135 174 213 276 348 413
#
# _framework density 22.34488
#
# number of rings (size 3 to 8) (size 9 to 14) (size 15 to 20)
#    0.000    2.000    2.000    2.400    5.600    1.200 
#    0.000    2.000    4.400    0.000    0.000    0.000 
#    0.000    0.000    0.000    0.000    0.000    0.000 
#
# Total GULP energy -495666.161126 kJ/mol
# GULP energy per Si atom -12391.654028 kJ/mol
# Density = 2.229402 g / cm^3
# Si number density = 22.344880 Si / 1000 Ang^3
#
#
#
# Elastic Constant Matrix: (Units=GPa)
#
#
# Indices 1 2 3 4 5 6 
#
# 1 111.8011 34.2193 17.9558 0.0000 0.0000 0.0000
# 2 34.2193 111.8011 17.9558 0.0000 0.0000 0.0000
# 3 17.9558 17.9558 39.4170 0.0000 0.0000 0.0000
# 4 0.0000 0.0000 0.0000 41.3150 0.0000 0.0000
# 5 0.0000 0.0000 0.0000 0.0000 41.3150 0.0000
# 6 0.0000 0.0000 0.0000 0.0000 0.0000 14.3858
#
#
#
# Elastic Compliance Matrix: (Units=1/GPa)
#
#
# Indices 1 2 3 4 5 6 
#
# 1 0.010301 -0.002589 -0.003513 0.000000 0.000000 0.000000
# 2 -0.002589 0.010301 -0.003513 0.000000 0.000000 0.000000
# 3 -0.003513 -0.003513 0.028571 0.000000 0.000000 0.000000
# 4 0.000000 0.000000 0.000000 0.024204 0.000000 0.000000
# 5 0.000000 0.000000 0.000000 0.000000 0.024204 0.000000
# 6 0.000000 0.000000 0.000000 0.000000 0.000000 0.069513
#
#
# Mechanical properties :
#
#
# Convention : Reuss Voigt Hill
#
# Bulk Modulus (GPa) = 33.39755 44.80900 39.10328
# Shear Modulus (GPa) = 25.47058 32.26239 28.86648
#
# Velocity S-wave (km/s) = 3.37988 3.80391 3.59815
# Velocity P-wave (km/s) = 5.49639 6.27613 5.89916
#
# Compressibility (1/GPa) = 0.02994232
#
# Stress axis : x y z
#
# Youngs Moduli (GPa) = 97.07796 97.07796 35.00108
#
# Poissons Ratio (x) = 0.25130 0.12297
# Poissons Ratio (y) = 0.25130 0.12297
# Poissons Ratio (z) = 0.34106 0.34106
#
# Static dielectric constant tensor:
#      x y z
#    x 3.932380 0.000000 0.000000 
#    y 0.000000 3.932380 0.000000 
#    z 0.000000 0.000000 4.389530 
# 
# 
# High freq. dielectric constant tensor:
#      x y z
#    x 1.862150 0.000000 0.000000 
#    y 0.000000 1.862150 0.000000 
#    z 0.000000 0.000000 1.911660 
# 
# From -- ./inp_files/9357.got.cif
#   From: 2010.03.12/outbox.cif.g09.slc.cpg/sg122_5_cif.got.tgz:9357.got - 2010.04.06 16:17:16.
