data_PCOD8311280
_publ_section_title
;
Structure prediction by ZEFSAII (Michael W. Deem and Ramdas Pophale) SiO2 
 PCOD8311280
Probable space group: I -4 C 2
;
_chemical_formula_sum "Si O2"
_cell_formula_units_Z 96
_cell_length_a 14.967369
_cell_length_b 14.967369
_cell_length_c 22.936304
_cell_angle_alpha 90.000000
_cell_angle_beta 90.000000
_cell_angle_gamma 90.000000
_cell_volume 5138.239786
_symmetry_space_group_name_H-M "I -4 C 2"
_symmetry_group_IT_number 120
_symmetry_cell_setting 'tetragonal'
loop_
_space_group_symop_operation_xyz
x,y,z
y,-x,-z
-x,-y,z
-y,x,-z
y,x,1/2-z
-y,-x,1/2-z
-x,y,1/2+z
x,-y,1/2+z
1/2+x,1/2+y,1/2+z
1/2+y,1/2-x,1/2-z
1/2-x,1/2-y,1/2+z
1/2-y,1/2+x,1/2-z
1/2+y,1/2+x,-z
1/2-y,1/2-x,-z
1/2-x,1/2+y,z
1/2+x,1/2-y,z
loop_
_atom_site_type_symbol
_atom_site_label
_atom_site_fract_x
_atom_site_fract_y
_atom_site_fract_z
Si Si1 0.528609 0.239056 0.644550
Si Si2 0.426718 0.926718 0.431583
Si Si3 0.687702 0.337988 0.682707
Si Si4 0.760946 0.471393 0.144550
Si Si5 0.000002 0.366181 0.250000
Si Si6 0.837992 0.812305 0.182707
O O1 0.539478 0.169561 0.591689
O O2 0.603248 0.316209 0.640586
O O3 0.556624 0.189391 0.704152
O O4 0.429283 0.275795 0.654497
O O5 0.415976 0.915976 0.500000
O O6 0.460522 0.830439 0.408311
O O7 0.500000 0.000000 0.414313
O O8 0.654224 0.345777 0.750000
O O9 0.724212 0.429279 0.654498
O O10 0.764177 0.264172 0.676381
O O11 0.810610 0.443373 0.204151
O O12 0.683789 0.396758 0.140586
O O13 0.927960 0.427959 0.284285
O O14 0.845782 0.845782 0.250000
#
# Coordination Sequence:
#
# PCOD8311280 Si02
#       6
#    16  16  16  16  16  16
#     4  12  22  37  58  90 125 165 204 247 312 378
#     4  11  24  44  65  88 120 159 218 279 313 351
#     4  11  21  35  57  92 132 165 199 251 316 380
#     4  12  22  37  58  90 125 165 204 247 312 378
#     4  11  18  28  54  87 116 152 196 249 306 359
#     4  11  21  35  57  92 132 165 199 251 316 380
#
# _framework density 18.683441999999999
#
# number of rings (size 3 to 8) (size 9 to 14) (size 15 to 20)
#    0.000    0.667    6.667    3.000    0.000    0.667 
#    0.000    3.333    0.000    0.000    0.000    2.333 
#    0.000    0.000    0.000    0.000    0.000    0.000 
#
# Total GULP energy -594686.684762 kJ/mol
# GULP energy per Si atom -12389.305933 kJ/mol
# Density = 1.864092 g / cm^3
# Si number density = 18.683442 Si / 1000 Ang^3
#
#
#
# Elastic Constant Matrix: (Units=GPa)
#
#
# Indices 1 2 3 4 5 6 
#
# 1 125.6522 64.2783 39.4274 0.0000 0.0000 0.0000
# 2 64.2783 125.6519 39.4274 0.0000 0.0000 0.0000
# 3 39.4274 39.4274 78.6517 0.0000 0.0000 0.0000
# 4 0.0000 0.0000 0.0000 14.3735 0.0000 0.0000
# 5 0.0000 0.0000 0.0000 0.0000 14.3736 0.0000
# 6 0.0000 0.0000 0.0000 0.0000 0.0000 43.3839
#
#
#
# Elastic Compliance Matrix: (Units=1/GPa)
#
#
# Indices 1 2 3 4 5 6 
#
# 1 0.011471 -0.004822 -0.003333 0.000000 0.000000 0.000000
# 2 -0.004822 0.011471 -0.003333 0.000000 0.000000 0.000000
# 3 -0.003333 -0.003333 0.016056 0.000000 0.000000 0.000000
# 4 0.000000 0.000000 0.000000 0.069572 0.000000 0.000000
# 5 0.000000 0.000000 0.000000 0.000000 0.069572 0.000000
# 6 0.000000 0.000000 0.000000 0.000000 0.000000 0.023050
#
#
# Mechanical properties :
#
#
# Convention : Reuss Voigt Hill
#
# Bulk Modulus (GPa) = 62.41582 68.46912 65.44247
# Shear Modulus (GPa) = 21.78554 26.88104 24.33329
#
# Velocity S-wave (km/s) = 3.41843 3.79722 3.61279
# Velocity P-wave (km/s) = 7.00431 7.48008 7.24611
#
# Compressibility (1/GPa) = 0.01602158
#
# Stress axis : x y z
#
# Youngs Moduli (GPa) = 87.17454 87.17429 62.28229
#
# Poissons Ratio (x) = 0.42039 0.20759
# Poissons Ratio (y) = 0.42039 0.20759
# Poissons Ratio (z) = 0.29055 0.29056
#
# Static dielectric constant tensor:
#      x y z
#    x 3.643840 0.000000 0.000000 
#    y 0.000000 3.643840 0.000000 
#    z 0.000000 0.000000 3.090390 
# 
# 
# High freq. dielectric constant tensor:
#      x y z
#    x 1.739040 0.000000 0.000000 
#    y 0.000000 1.739040 0.000000 
#    z 0.000000 0.000000 1.674000 
# 
# From -- ./inp_files/5330.got.cif
#   From: 2010.03.12/outbox.cif.g09.slc.cpg/sg120_3_cif.got.tgz:5330.got - 2010.04.06 16:00:44.
