data_PCOD8311423
_publ_section_title
;
Structure prediction by ZEFSAII (Michael W. Deem and Ramdas Pophale) SiO2 
 PCOD8311423
Probable space group: I -4 2 M
;
_chemical_formula_sum "Si O2"
_cell_formula_units_Z 90
_cell_length_a 26.501193
_cell_length_b 26.501193
_cell_length_c 9.165329
_cell_angle_alpha 90.000000
_cell_angle_beta 90.000000
_cell_angle_gamma 90.000000
_cell_volume 6436.931818
_symmetry_space_group_name_H-M "I -4 2 M"
_symmetry_group_IT_number 121
_symmetry_cell_setting 'tetragonal'
loop_
_space_group_symop_operation_xyz
x,y,z
y,-x,-z
-x,-y,z
-y,x,-z
x,-y,-z
-x,y,-z
-y,-x,z
y,x,z
1/2+x,1/2+y,1/2+z
1/2+y,1/2-x,1/2-z
1/2-x,1/2-y,1/2+z
1/2-y,1/2+x,1/2-z
1/2+x,1/2-y,1/2-z
1/2-x,1/2+y,1/2-z
1/2-y,1/2-x,1/2+z
1/2+y,1/2+x,1/2+z
loop_
_atom_site_type_symbol
_atom_site_label
_atom_site_fract_x
_atom_site_fract_y
_atom_site_fract_z
Si Si1 0.752701 0.332275 0.372353
Si Si2 0.179672 0.735479 0.198105
Si Si3 0.009620 0.847393 0.334269
Si Si4 0.000000 0.000000 0.000000
Si Si5 0.818159 0.098824 0.707337
Si Si6 0.111548 0.194588 0.631187
Si Si7 0.460645 0.539356 0.775975
O O1 0.711762 0.288239 0.372929
O O2 0.798563 0.316320 0.265683
O O3 0.774104 0.341342 0.535163
O O4 0.726971 0.383328 0.312972
O O5 0.223417 0.776584 0.192303
O O6 0.134861 0.754468 0.303063
O O7 0.058328 0.814892 0.285745
O O8 0.023569 0.905673 0.325240
O O9 0.000000 0.833829 0.500000
O O10 0.958772 0.832179 0.247626
O O11 0.035614 0.964387 0.099518
O O12 0.868436 0.131564 0.732208
O O13 0.798925 0.104843 0.541908
O O14 0.147080 0.147080 0.666480
O O15 0.500000 0.500000 0.848790
#
# Coordination Sequence:
#
# PCOD8311423 Si02
#       7
#    16  16  16   2  16  16   8
#     4   9  16  27  40  60  76  97 122 154 198 248
#     4   9  16  26  42  59  76  98 120 154 198 247
#     4  10  19  29  45  60  73  99 138 179 213 239
#     4   8  24  36  34  52  72 100 132 170 236 256
#     4   9  17  28  40  58  79 100 130 170 207 242
#     4   9  16  28  40  58  78  99 129 166 204 245
#     4  10  20  33  40  53  70 101 139 176 219 254
#
# _framework density 13.981816999999999
#
# number of rings (size 3 to 8) (size 9 to 14) (size 15 to 20)
#    0.267    2.489    0.889    1.600    2.489    4.267 
#    3.200    0.000    0.000    0.000    0.000    0.000 
#    0.000    0.000    0.000    0.000    0.000    0.889 
#
# Total GULP energy -557705.170024 kJ/mol
# GULP energy per Si atom -12393.448223 kJ/mol
# Density = 1.394999 g / cm^3
# Si number density = 13.981817 Si / 1000 Ang^3
#
#
#
# Elastic Constant Matrix: (Units=GPa)
#
#
# Indices 1 2 3 4 5 6 
#
# 1 57.9528 44.7043 21.2784 0.0000 0.0000 0.0000
# 2 44.7043 57.9540 21.2787 0.0000 0.0000 0.0000
# 3 21.2784 21.2787 48.7631 0.0000 0.0000 0.0000
# 4 0.0000 0.0000 0.0000 17.6792 0.0000 0.0000
# 5 0.0000 0.0000 0.0000 0.0000 17.6776 0.0000
# 6 0.0000 0.0000 0.0000 0.0000 0.0000 27.2217
#
#
#
# Elastic Compliance Matrix: (Units=1/GPa)
#
#
# Indices 1 2 3 4 5 6 
#
# 1 0.043685 -0.031792 -0.005189 0.000000 0.000000 0.000000
# 2 -0.031792 0.043684 -0.005190 0.000000 0.000000 0.000000
# 3 -0.005189 -0.005190 0.025036 0.000000 0.000000 0.000000
# 4 0.000000 0.000000 0.000000 0.056564 0.000000 0.000000
# 5 0.000000 0.000000 0.000000 0.000000 0.056569 0.000000
# 6 0.000000 0.000000 0.000000 0.000000 0.000000 0.036735
#
#
# Mechanical properties :
#
#
# Convention : Reuss Voigt Hill
#
# Bulk Modulus (GPa) = 35.63364 37.68806 36.66085
# Shear Modulus (GPa) = 14.04613 17.67628 15.86120
#
# Velocity S-wave (km/s) = 3.17298 3.55946 3.37176
# Velocity P-wave (km/s) = 6.24218 6.62621 6.43706
#
# Compressibility (1/GPa) = 0.02806337
#
# Stress axis : x y z
#
# Youngs Moduli (GPa) = 22.89112 22.89154 39.94197
#
# Poissons Ratio (x) = 0.72777 0.20727
# Poissons Ratio (y) = 0.72776 0.20728
# Poissons Ratio (z) = 0.11879 0.11880
#
# Static dielectric constant tensor:
#      x y z
#    x 2.698320 0.000000 0.000000 
#    y 0.000000 2.698290 0.000000 
#    z 0.000000 0.000000 2.791180 
# 
# 
# High freq. dielectric constant tensor:
#      x y z
#    x 1.502950 0.000000 0.000000 
#    y 0.000000 1.502950 0.000000 
#    z 0.000000 0.000000 1.534250 
# 
# From -- ./inp_files/2095.got.cif
#   From: 2010.03.12/outbox.cif.g09.slc.cpg/sg121_2_cif.got.tgz:2095.got - 2010.04.06 16:06:48.
