data_PCOD8311982
_publ_section_title
;
Structure prediction by ZEFSAII (Michael W. Deem and Ramdas Pophale) SiO2 
 PCOD8311982
Probable space group: I -4 2 D
;
_chemical_formula_sum "Si O2"
_cell_formula_units_Z 72
_cell_length_a 13.752559
_cell_length_b 13.752559
_cell_length_c 18.583525
_cell_angle_alpha 90.000000
_cell_angle_beta 90.000000
_cell_angle_gamma 90.000000
_cell_volume 3514.755586
_symmetry_space_group_name_H-M "I -4 2 D"
_symmetry_group_IT_number 122
_symmetry_cell_setting 'tetragonal'
loop_
_space_group_symop_operation_xyz
x,y,z
y,-x,-z
-x,-y,z
-y,x,-z
x,1/2-y,1/4-z
-x,1/2+y,1/4-z
-y,1/2-x,1/4+z
y,1/2+x,1/4+z
1/2+x,1/2+y,1/2+z
1/2+y,1/2-x,1/2-z
1/2-x,1/2-y,1/2+z
1/2-y,1/2+x,1/2-z
1/2+x,-y,3/4-z
1/2-x,y,3/4-z
1/2-y,-x,3/4+z
1/2+y,x,3/4+z
loop_
_atom_site_type_symbol
_atom_site_label
_atom_site_fract_x
_atom_site_fract_y
_atom_site_fract_z
Si Si1 0.643032 0.750000 0.125000
Si Si2 0.301419 0.921711 0.525628
Si Si3 0.695823 0.534247 0.143924
Si Si4 0.500000 0.000000 0.466104
Si Si5 0.022364 0.851495 0.010958
Si Si6 0.250000 0.138399 0.875000
O O1 0.580946 0.753009 0.198521
O O2 0.703925 0.650642 0.133707
O O3 0.303746 0.814609 0.565009
O O4 0.233010 0.990599 0.570617
O O5 0.407254 0.972985 0.516394
O O6 0.590596 0.488793 0.161585
O O7 0.759027 0.501253 0.211990
O O8 0.070594 0.827651 0.086552
O O9 0.922702 0.904896 0.031883
#
# Coordination Sequence:
#
# PCOD8311982 Si02
#       6
#     8  16  16   8  16   8
#     4  10  24  45  59  98 130 174 230 271 325 406
#     4  11  25  43  70  97 136 177 228 285 342 411
#     4  11  24  43  69  94 134 182 224 277 340 404
#     4  10  24  44  63 101 134 172 228 276 344 397
#     4  11  24  40  67 104 136 170 213 272 351 408
#     4  12  22  43  69 104 136 164 224 273 343 430
#
# _framework density 20.485067000000001
#
# number of rings (size 3 to 8) (size 9 to 14) (size 15 to 20)
#    0.000    1.111    6.667    0.000    3.111    8.000 
#    0.000    2.222    0.000    0.000    0.000    0.000 
#    0.000    0.000    0.000    0.000    0.000    0.000 
#
# Total GULP energy -446058.965218 kJ/mol
# GULP energy per Si atom -12390.526812 kJ/mol
# Density = 2.043844 g / cm^3
# Si number density = 20.485067 Si / 1000 Ang^3
#
#
#
# Elastic Constant Matrix: (Units=GPa)
#
#
# Indices 1 2 3 4 5 6 
#
# 1 99.1317 34.7307 35.1203 0.0000 0.0000 0.0000
# 2 34.7307 99.1317 35.1203 0.0000 0.0000 0.0000
# 3 35.1203 35.1203 128.7071 0.0000 0.0000 0.0000
# 4 0.0000 0.0000 0.0000 29.0269 0.0000 0.0000
# 5 0.0000 0.0000 0.0000 0.0000 29.0269 0.0000
# 6 0.0000 0.0000 0.0000 0.0000 0.0000 17.3818
#
#
#
# Elastic Compliance Matrix: (Units=1/GPa)
#
#
# Indices 1 2 3 4 5 6 
#
# 1 0.012123 -0.003404 -0.002379 0.000000 0.000000 0.000000
# 2 -0.003404 0.012123 -0.002379 0.000000 0.000000 0.000000
# 3 -0.002379 -0.002379 0.009068 0.000000 0.000000 0.000000
# 4 0.000000 0.000000 0.000000 0.034451 0.000000 0.000000
# 5 0.000000 0.000000 0.000000 0.000000 0.034451 0.000000
# 6 0.000000 0.000000 0.000000 0.000000 0.000000 0.057531
#
#
# Mechanical properties :
#
#
# Convention : Reuss Voigt Hill
#
# Bulk Modulus (GPa) = 58.86142 59.65702 59.25922
# Shear Modulus (GPa) = 27.51249 29.88706 28.69978
#
# Velocity S-wave (km/s) = 3.66874 3.82379 3.74707
# Velocity P-wave (km/s) = 6.83684 6.97715 6.90735
#
# Compressibility (1/GPa) = 0.01698906
#
# Stress axis : x y z
#
# Youngs Moduli (GPa) = 82.48642 82.48642 110.27870
#
# Poissons Ratio (x) = 0.28082 0.26236
# Poissons Ratio (y) = 0.28082 0.26236
# Poissons Ratio (z) = 0.19624 0.19624
#
# Static dielectric constant tensor:
#      x y z
#    x 3.880320 0.000000 0.000000 
#    y 0.000000 3.880320 0.000000 
#    z 0.000000 0.000000 3.848290 
# 
# 
# High freq. dielectric constant tensor:
#      x y z
#    x 1.797260 0.000000 0.000000 
#    y 0.000000 1.797260 0.000000 
#    z 0.000000 0.000000 1.813890 
# 
# From -- ./inp_files/6168.got.cif
#   From: 2010.03.12/outbox.cif.g09.slc.cpg/sg122_4_cif.got.tgz:6168.got - 2010.04.06 16:17:16.
