data_PCOD8311495
_publ_section_title
;
Structure prediction by ZEFSAII (Michael W. Deem and Ramdas Pophale) SiO2 
 PCOD8311495
Probable space group: I -4 2 M
;
_chemical_formula_sum "Si O2"
_cell_formula_units_Z 96
_cell_length_a 14.500946
_cell_length_b 14.500946
_cell_length_c 23.335253
_cell_angle_alpha 90.000000
_cell_angle_beta 90.000000
_cell_angle_gamma 90.000000
_cell_volume 4906.877143
_symmetry_space_group_name_H-M "I -4 2 M"
_symmetry_group_IT_number 121
_symmetry_cell_setting 'tetragonal'
loop_
_space_group_symop_operation_xyz
x,y,z
y,-x,-z
-x,-y,z
-y,x,-z
x,-y,-z
-x,y,-z
-y,-x,z
y,x,z
1/2+x,1/2+y,1/2+z
1/2+y,1/2-x,1/2-z
1/2-x,1/2-y,1/2+z
1/2-y,1/2+x,1/2-z
1/2+x,1/2-y,1/2-z
1/2-x,1/2+y,1/2-z
1/2-y,1/2-x,1/2+z
1/2+y,1/2+x,1/2+z
loop_
_atom_site_type_symbol
_atom_site_label
_atom_site_fract_x
_atom_site_fract_y
_atom_site_fract_z
Si Si1 0.077816 0.077816 0.850614
Si Si2 0.777964 0.485346 0.623812
Si Si3 0.917443 0.341056 0.574448
Si Si4 0.441299 0.708616 0.168686
Si Si5 0.606254 0.087787 0.960345
Si Si6 0.922653 0.077348 0.281873
Si Si7 0.142752 0.464373 0.743256
O O1 0.042492 0.170764 0.882083
O O2 0.100521 0.100521 0.784251
O O3 0.000000 0.000000 0.857039
O O4 0.843156 0.398333 0.611131
O O5 0.803950 0.568263 0.579036
O O6 0.795832 0.522361 0.687129
O O7 0.931668 0.240221 0.602481
O O8 0.882168 0.330192 0.508074
O O9 0.016902 0.392177 0.578685
O O10 0.367588 0.632413 0.183964
O O11 0.542476 0.668390 0.184438
O O12 0.418321 0.795652 0.208006
O O13 0.586095 0.000000 0.000000
O O14 0.000000 0.000000 0.284155
O O15 0.105199 0.559794 0.769470
#
# Coordination Sequence:
#
# PCOD8311495 Si02
#       7
#     8  16  16  16  16   8  16
#     4  11  24  40  60  81 126 185 213 243 308 387
#     4  11  20  34  61  87 121 162 210 250 307 375
#     4  10  19  36  65  91 115 154 207 260 317 359
#     4  11  22  38  61  87 122 163 207 247 308 376
#     4   9  19  37  66  92 118 157 198 262 327 367
#     4   9  20  40  58  79 116 168 203 237 298 378
#     4  11  22  33  54  92 129 154 194 257 317 373
#
# _framework density 19.564378000000001
#
# number of rings (size 3 to 8) (size 9 to 14) (size 15 to 20)
#    0.000    1.667    3.333    4.500    3.500    0.000 
#    1.500    0.833   23.833    0.000    0.000    0.000 
#    0.000    0.000    0.000    0.000    0.000    0.000 
#
# Total GULP energy -594872.652333 kJ/mol
# GULP energy per Si atom -12393.180257 kJ/mol
# Density = 1.951985 g / cm^3
# Si number density = 19.564378 Si / 1000 Ang^3
#
#
#
# Elastic Constant Matrix: (Units=GPa)
#
#
# Indices 1 2 3 4 5 6 
#
# 1 90.7487 46.9147 50.3476 0.0000 0.0000 0.0000
# 2 46.9147 90.7505 50.3474 0.0000 0.0000 0.0000
# 3 50.3476 50.3474 91.6122 0.0000 0.0000 0.0000
# 4 0.0000 0.0000 0.0000 24.4834 0.0000 0.0000
# 5 0.0000 0.0000 0.0000 0.0000 24.4817 0.0000
# 6 0.0000 0.0000 0.0000 0.0000 0.0000 18.8028
#
#
#
# Elastic Compliance Matrix: (Units=1/GPa)
#
#
# Indices 1 2 3 4 5 6 
#
# 1 0.017480 -0.005333 -0.006676 0.000000 0.000000 0.000000
# 2 -0.005333 0.017480 -0.006675 0.000000 0.000000 0.000000
# 3 -0.006676 -0.006675 0.018253 0.000000 0.000000 0.000000
# 4 0.000000 0.000000 0.000000 0.040844 0.000000 0.000000
# 5 0.000000 0.000000 0.000000 0.000000 0.040847 0.000000
# 6 0.000000 0.000000 0.000000 0.000000 0.000000 0.053184
#
#
# Mechanical properties :
#
#
# Convention : Reuss Voigt Hill
#
# Bulk Modulus (GPa) = 63.11353 63.14784 63.13069
# Shear Modulus (GPa) = 21.66965 21.92034 21.79500
#
# Velocity S-wave (km/s) = 3.33168 3.35090 3.34131
# Velocity P-wave (km/s) = 6.86510 6.87884 6.87197
#
# Compressibility (1/GPa) = 0.01584446
#
# Stress axis : x y z
#
# Youngs Moduli (GPa) = 57.20758 57.20938 54.78539
#
# Poissons Ratio (x) = 0.30510 0.36574
# Poissons Ratio (y) = 0.30509 0.36572
# Poissons Ratio (z) = 0.38191 0.38190
#
# Static dielectric constant tensor:
#      x y z
#    x 3.536470 0.000000 0.000000 
#    y 0.000000 3.536470 0.000000 
#    z 0.000000 0.000000 4.046960 
# 
# 
# High freq. dielectric constant tensor:
#      x y z
#    x 1.744310 0.000000 0.000000 
#    y 0.000000 1.744310 0.000000 
#    z 0.000000 0.000000 1.764750 
# 
# From -- ./inp_files/7159.got.cif
#   From: 2010.03.12/outbox.cif.g09.slc.cpg/sg121_4_cif.got.tgz:7159.got - 2010.04.06 16:06:48.
