data_PCOD8311589
_publ_section_title
;
Structure prediction by ZEFSAII (Michael W. Deem and Ramdas Pophale) SiO2 
 PCOD8311589
Probable space group: I -4 2 M
;
_chemical_formula_sum "Si O2"
_cell_formula_units_Z 56
_cell_length_a 15.201488
_cell_length_b 15.201488
_cell_length_c 11.129256
_cell_angle_alpha 90.000000
_cell_angle_beta 90.000000
_cell_angle_gamma 90.000000
_cell_volume 2571.806765
_symmetry_space_group_name_H-M "I -4 2 M"
_symmetry_group_IT_number 121
_symmetry_cell_setting 'tetragonal'
loop_
_space_group_symop_operation_xyz
x,y,z
y,-x,-z
-x,-y,z
-y,x,-z
x,-y,-z
-x,y,-z
-y,-x,z
y,x,z
1/2+x,1/2+y,1/2+z
1/2+y,1/2-x,1/2-z
1/2-x,1/2-y,1/2+z
1/2-y,1/2+x,1/2-z
1/2+x,1/2-y,1/2-z
1/2-x,1/2+y,1/2-z
1/2-y,1/2-x,1/2+z
1/2+y,1/2+x,1/2+z
loop_
_atom_site_type_symbol
_atom_site_label
_atom_site_fract_x
_atom_site_fract_y
_atom_site_fract_z
Si Si1 0.208605 0.208605 0.939281
Si Si2 0.708122 0.708122 0.703383
Si Si3 0.000000 0.854058 0.500000
Si Si4 0.955507 0.282284 0.691335
Si Si5 0.665067 0.930969 0.899553
O O1 0.252004 0.252004 0.823693
O O2 0.235998 0.105718 0.930607
O O3 0.242116 0.242116 0.072365
O O4 0.731355 0.605180 0.711480
O O5 0.995196 0.792117 0.615768
O O6 0.912491 0.912491 0.497217
O O7 0.903132 0.349139 0.603178
O O8 0.027301 0.336357 0.766986
O O9 0.633748 0.000000 0.000000
#
# Coordination Sequence:
#
# PCOD8311589 Si02
#       5
#     8   8   8  16  16
#     4  10  22  40  72  96 134 187 236 284 340 423
#     4  10  20  42  69  99 137 178 238 286 344 419
#     4  11  26  48  73 102 136 180 239 302 354 419
#     4  11  25  44  68 101 140 183 232 288 356 424
#     4  11  25  44  68 100 139 183 234 285 354 420
#
# _framework density 21.774574000000001
#
# number of rings (size 3 to 8) (size 9 to 14) (size 15 to 20)
#    0.000    1.286    4.286    0.000    6.000    2.857 
#    0.000    0.000    0.000    2.143    0.000    0.000 
#    0.000    0.000    0.000    0.000    0.000    0.000 
#
# Total GULP energy -346942.737033 kJ/mol
# GULP energy per Si atom -12390.812037 kJ/mol
# Density = 2.172501 g / cm^3
# Si number density = 21.774574 Si / 1000 Ang^3
#
#
#
# Elastic Constant Matrix: (Units=GPa)
#
#
# Indices 1 2 3 4 5 6 
#
# 1 78.1188 25.1976 38.0645 0.0000 0.0000 0.0000
# 2 25.1976 78.1188 38.0645 0.0000 0.0000 0.0000
# 3 38.0645 38.0645 164.1034 0.0000 0.0000 0.0000
# 4 0.0000 0.0000 0.0000 33.0068 0.0000 0.0000
# 5 0.0000 0.0000 0.0000 0.0000 33.0068 0.0000
# 6 0.0000 0.0000 0.0000 0.0000 0.0000 11.1123
#
#
#
# Elastic Compliance Matrix: (Units=1/GPa)
#
#
# Indices 1 2 3 4 5 6 
#
# 1 0.015285 -0.003611 -0.002708 0.000000 0.000000 0.000000
# 2 -0.003611 0.015285 -0.002708 0.000000 0.000000 0.000000
# 3 -0.002708 -0.002708 0.007350 0.000000 0.000000 0.000000
# 4 0.000000 0.000000 0.000000 0.030297 0.000000 0.000000
# 5 0.000000 0.000000 0.000000 0.000000 0.030297 0.000000
# 6 0.000000 0.000000 0.000000 0.000000 0.000000 0.089990
#
#
# Mechanical properties :
#
#
# Convention : Reuss Voigt Hill
#
# Bulk Modulus (GPa) = 50.33482 58.11049 54.22265
# Shear Modulus (GPa) = 23.45437 30.02616 26.74027
#
# Velocity S-wave (km/s) = 3.28555 3.71746 3.50816
# Velocity P-wave (km/s) = 6.12859 6.72095 6.43160
#
# Compressibility (1/GPa) = 0.01986696
#
# Stress axis : x y z
#
# Youngs Moduli (GPa) = 65.42291 65.42291 136.05545
#
# Poissons Ratio (x) = 0.23623 0.36843
# Poissons Ratio (y) = 0.23623 0.36843
# Poissons Ratio (z) = 0.17716 0.17716
#
# Static dielectric constant tensor:
#      x y z
#    x 4.201500 0.000000 0.000000 
#    y 0.000000 4.201500 0.000000 
#    z 0.000000 0.000000 3.912240 
# 
# 
# High freq. dielectric constant tensor:
#      x y z
#    x 1.845980 0.000000 0.000000 
#    y 0.000000 1.845980 0.000000 
#    z 0.000000 0.000000 1.870790 
# 
# From -- ./inp_files/2771.got.cif
#   From: 2010.03.12/outbox.cif.g09.slc.cpg/sg121_2_cif.got.tgz:2771.got - 2010.04.06 16:06:48.
