data_PCOD8311915
_publ_section_title
;
Structure prediction by ZEFSAII (Michael W. Deem and Ramdas Pophale) SiO2 
 PCOD8311915
Probable space group: I -4 2 D
;
_chemical_formula_sum "Si O2"
_cell_formula_units_Z 64
_cell_length_a 11.008521
_cell_length_b 11.008521
_cell_length_c 25.391439
_cell_angle_alpha 90.000000
_cell_angle_beta 90.000000
_cell_angle_gamma 90.000000
_cell_volume 3077.125893
_symmetry_space_group_name_H-M "I -4 2 D"
_symmetry_group_IT_number 122
_symmetry_cell_setting 'tetragonal'
loop_
_space_group_symop_operation_xyz
x,y,z
y,-x,-z
-x,-y,z
-y,x,-z
x,1/2-y,1/4-z
-x,1/2+y,1/4-z
-y,1/2-x,1/4+z
y,1/2+x,1/4+z
1/2+x,1/2+y,1/2+z
1/2+y,1/2-x,1/2-z
1/2-x,1/2-y,1/2+z
1/2-y,1/2+x,1/2-z
1/2+x,-y,3/4-z
1/2-x,y,3/4-z
1/2-y,-x,3/4+z
1/2+y,x,3/4+z
loop_
_atom_site_type_symbol
_atom_site_label
_atom_site_fract_x
_atom_site_fract_y
_atom_site_fract_z
Si Si1 0.423454 0.750000 0.625000
Si Si2 0.899910 0.720485 0.929489
Si Si3 0.571630 0.616885 0.712407
Si Si4 0.288315 0.125341 0.145506
Si Si5 0.481145 0.750000 0.125000
O O1 0.341792 0.671821 0.585068
O O2 0.504005 0.661234 0.660055
O O3 0.820939 0.601207 0.916528
O O4 0.026587 0.717948 0.899904
O O5 0.925432 0.718452 0.991992
O O6 0.500000 0.500000 0.734547
O O7 0.711104 0.582086 0.696366
O O8 0.225036 0.250000 0.125000
O O9 0.430906 0.156217 0.157605
#
# Coordination Sequence:
#
# PCOD8311915 Si02
#       5
#     8  16  16  16   8
#     4  11  25  42  64 104 133 169 228 272 318 407
#     4  11  24  43  67  96 134 172 216 278 327 387
#     4  12  24  41  68  95 133 178 216 269 339 387
#     4  10  22  40  65  93 130 167 220 267 319 397
#     4   9  21  42  68  90 131 169 214 272 326 379
#
# _framework density 20.798629999999999
#
# number of rings (size 3 to 8) (size 9 to 14) (size 15 to 20)
#    0.750    0.500    3.750    2.250    3.500    0.000 
#    0.000    0.000    0.000    0.000    0.000    0.000 
#    0.000    0.000    0.000    0.000    0.000    0.000 
#
# Total GULP energy -396661.151730 kJ/mol
# GULP energy per Si atom -12395.660992 kJ/mol
# Density = 2.075129 g / cm^3
# Si number density = 20.798630 Si / 1000 Ang^3
#
#
#
# Elastic Constant Matrix: (Units=GPa)
#
#
# Indices 1 2 3 4 5 6 
#
# 1 87.8720 8.9618 30.2199 0.0000 0.0000 0.0000
# 2 8.9618 87.8720 30.2199 0.0000 0.0000 0.0000
# 3 30.2199 30.2199 114.6855 0.0000 0.0000 0.0000
# 4 0.0000 0.0000 0.0000 32.2575 0.0000 0.0000
# 5 0.0000 0.0000 0.0000 0.0000 32.2575 0.0000
# 6 0.0000 0.0000 0.0000 0.0000 0.0000 7.1372
#
#
#
# Elastic Compliance Matrix: (Units=1/GPa)
#
#
# Indices 1 2 3 4 5 6 
#
# 1 0.012516 -0.000156 -0.003257 0.000000 0.000000 0.000000
# 2 -0.000156 0.012516 -0.003257 0.000000 0.000000 0.000000
# 3 -0.003257 -0.003257 0.010436 0.000000 0.000000 0.000000
# 4 0.000000 0.000000 0.000000 0.031001 0.000000 0.000000
# 5 0.000000 0.000000 0.000000 0.000000 0.031001 0.000000
# 6 0.000000 0.000000 0.000000 0.000000 0.000000 0.140111
#
#
# Mechanical properties :
#
#
# Convention : Reuss Voigt Hill
#
# Bulk Modulus (GPa) = 45.19147 47.69253 46.44200
# Shear Modulus (GPa) = 19.35761 29.06563 24.21162
#
# Velocity S-wave (km/s) = 3.05407 3.74234 3.41559
# Velocity P-wave (km/s) = 5.84908 6.45398 6.15896
#
# Compressibility (1/GPa) = 0.02212807
#
# Stress axis : x y z
#
# Youngs Moduli (GPa) = 79.89652 79.89651 95.82347
#
# Poissons Ratio (x) = 0.01250 0.31208
# Poissons Ratio (y) = 0.01250 0.31208
# Poissons Ratio (z) = 0.26021 0.26021
#
# Static dielectric constant tensor:
#      x y z
#    x 3.889870 0.000000 0.000000 
#    y 0.000000 3.889870 0.000000 
#    z 0.000000 0.000000 3.453540 
# 
# 
# High freq. dielectric constant tensor:
#      x y z
#    x 1.823340 0.000000 0.000000 
#    y 0.000000 1.823340 0.000000 
#    z 0.000000 0.000000 1.788980 
# 
# From -- ./inp_files/7903.got.cif
#   From: 2010.03.12/outbox.cif.g09.slc.cpg/sg122_4_cif.got.tgz:7903.got - 2010.04.06 16:17:16.
