data_PCOD8311262
_publ_section_title
;
Structure prediction by ZEFSAII (Michael W. Deem and Ramdas Pophale) SiO2 
 PCOD8311262
Probable space group: I -4 C 2
;
_chemical_formula_sum "Si O2"
_cell_formula_units_Z 60
_cell_length_a 19.008039
_cell_length_b 19.008039
_cell_length_c 7.962688
_cell_angle_alpha 90.000000
_cell_angle_beta 90.000000
_cell_angle_gamma 90.000000
_cell_volume 2876.963340
_symmetry_space_group_name_H-M "I -4 C 2"
_symmetry_group_IT_number 120
_symmetry_cell_setting 'tetragonal'
loop_
_space_group_symop_operation_xyz
x,y,z
y,-x,-z
-x,-y,z
-y,x,-z
y,x,1/2-z
-y,-x,1/2-z
-x,y,1/2+z
x,-y,1/2+z
1/2+x,1/2+y,1/2+z
1/2+y,1/2-x,1/2-z
1/2-x,1/2-y,1/2+z
1/2-y,1/2+x,1/2-z
1/2+y,1/2+x,-z
1/2-y,1/2-x,-z
1/2-x,1/2+y,z
1/2+x,1/2-y,z
loop_
_atom_site_type_symbol
_atom_site_label
_atom_site_fract_x
_atom_site_fract_y
_atom_site_fract_z
Si Si1 0.210892 0.681546 0.695004
Si Si2 0.273756 0.549557 0.817809
Si Si3 0.581548 0.418453 0.750000
Si Si4 0.500000 0.500000 0.500000
Si Si5 0.600210 0.713027 0.807681
O O1 0.286924 0.713077 0.750000
O O2 0.194258 0.694258 0.500000
O O3 0.210097 0.598124 0.744053
O O4 0.152997 0.721424 0.805504
O O5 0.338744 0.567546 0.694040
O O6 0.262551 0.465463 0.810088
O O7 0.295680 0.572522 0.004423
O O8 0.526381 0.433186 0.602709
O O9 0.640999 0.640999 0.750000
#
# Coordination Sequence:
#
# PCOD8311262 Si02
#       5
#    16  16   8   4  16
#     4  11  22  41  63  87 120 162 210 259 311 368
#     4  12  24  40  62  90 123 163 212 257 309 368
#     4  11  24  36  56  78 120 166 204 253 298 370
#     4  10  24  38  48  78 120 166 208 246 304 362
#     4  11  26  41  63  91 127 166 211 256 312 368
#
# _framework density 20.855322000000001
#
# number of rings (size 3 to 8) (size 9 to 14) (size 15 to 20)
#    0.000    0.800    1.333    7.200   11.200    0.000 
#    0.000    0.000    0.000    0.800    0.000    5.600 
#    0.000    0.000    0.000    0.000    0.000    0.000 
#
# Total GULP energy -371781.337658 kJ/mol
# GULP energy per Si atom -12392.711255 kJ/mol
# Density = 2.080785 g / cm^3
# Si number density = 20.855322 Si / 1000 Ang^3
#
#
#
# Elastic Constant Matrix: (Units=GPa)
#
#
# Indices 1 2 3 4 5 6 
#
# 1 104.6128 64.7753 30.3432 0.0000 0.0000 0.0000
# 2 64.7753 104.6104 30.3428 0.0000 0.0000 0.0000
# 3 30.3432 30.3428 101.8276 0.0000 0.0000 0.0000
# 4 0.0000 0.0000 0.0000 24.8666 0.0000 0.0000
# 5 0.0000 0.0000 0.0000 0.0000 24.8651 0.0000
# 6 0.0000 0.0000 0.0000 0.0000 0.0000 29.4457
#
#
#
# Elastic Compliance Matrix: (Units=1/GPa)
#
#
# Indices 1 2 3 4 5 6 
#
# 1 0.015856 -0.009247 -0.001969 0.000000 0.000000 0.000000
# 2 -0.009247 0.015856 -0.001969 0.000000 0.000000 0.000000
# 3 -0.001969 -0.001969 0.010994 0.000000 0.000000 0.000000
# 4 0.000000 0.000000 0.000000 0.040215 0.000000 0.000000
# 5 0.000000 0.000000 0.000000 0.000000 0.040217 0.000000
# 6 0.000000 0.000000 0.000000 0.000000 0.000000 0.033961
#
#
# Mechanical properties :
#
#
# Convention : Reuss Voigt Hill
#
# Bulk Modulus (GPa) = 61.21850 62.44149 61.82999
# Shear Modulus (GPa) = 26.46696 28.20813 27.33754
#
# Velocity S-wave (km/s) = 3.56627 3.68171 3.62445
# Velocity P-wave (km/s) = 6.80994 6.93388 6.87219
#
# Compressibility (1/GPa) = 0.01633493
#
# Stress axis : x y z
#
# Youngs Moduli (GPa) = 63.06832 63.06696 90.95671
#
# Poissons Ratio (x) = 0.58317 0.17913
# Poissons Ratio (y) = 0.58318 0.17913
# Poissons Ratio (z) = 0.12421 0.12421
#
# Static dielectric constant tensor:
#      x y z
#    x 3.882720 0.000000 0.000000 
#    y 0.000000 3.882730 0.000000 
#    z 0.000000 0.000000 3.768230 
# 
# 
# High freq. dielectric constant tensor:
#      x y z
#    x 1.803010 0.000000 0.000000 
#    y 0.000000 1.803010 0.000000 
#    z 0.000000 0.000000 1.829390 
# 
# From -- ./inp_files/1107.got.cif
#   From: 2010.03.12/outbox.cif.g09.slc.cpg/sg120_1_cif.got.tgz:1107.got - 2010.04.06 16:00:44.
