data_PCOD8311229
_publ_section_title
;
Structure prediction by ZEFSAII (Michael W. Deem and Ramdas Pophale) SiO2 
 PCOD8311229
Probable space group: I -4 C 2
;
_chemical_formula_sum "Si O2"
_cell_formula_units_Z 72
_cell_length_a 13.592499
_cell_length_b 13.592499
_cell_length_c 18.672861
_cell_angle_alpha 90.000000
_cell_angle_beta 90.000000
_cell_angle_gamma 90.000000
_cell_volume 3449.923650
_symmetry_space_group_name_H-M "I -4 C 2"
_symmetry_group_IT_number 120
_symmetry_cell_setting 'tetragonal'
loop_
_space_group_symop_operation_xyz
x,y,z
y,-x,-z
-x,-y,z
-y,x,-z
y,x,1/2-z
-y,-x,1/2-z
-x,y,1/2+z
x,-y,1/2+z
1/2+x,1/2+y,1/2+z
1/2+y,1/2-x,1/2-z
1/2-x,1/2-y,1/2+z
1/2-y,1/2+x,1/2-z
1/2+y,1/2+x,-z
1/2-y,1/2-x,-z
1/2-x,1/2+y,z
1/2+x,1/2-y,z
loop_
_atom_site_type_symbol
_atom_site_label
_atom_site_fract_x
_atom_site_fract_y
_atom_site_fract_z
Si Si1 0.445591 0.682370 0.337232
Si Si2 0.500000 0.500000 0.750000
Si Si3 0.619457 0.597807 0.978899
Si Si4 0.500000 0.000000 0.250000
Si Si5 0.767276 0.767276 0.250000
Si Si6 0.175151 0.324850 0.000000
Si Si7 0.101704 0.661462 0.349450
O O1 0.506464 0.599072 0.296071
O O2 0.381418 0.626892 0.396306
O O3 0.373301 0.742192 0.286378
O O4 0.515050 0.764376 0.371487
O O5 0.632069 0.480097 0.981880
O O6 0.709928 0.654610 0.015450
O O7 0.570764 0.065074 0.199180
O O8 0.768414 0.679161 0.192663
O O9 0.119718 0.357578 0.073876
#
# Coordination Sequence:
#
# PCOD8311229 Si02
#       7
#    16   4  16   4   8   8  16
#     4  11  22  41  66 101 131 181 235 282 351 413
#     4  10  22  36  66 100 126 170 232 294 336 404
#     4  11  23  44  69  99 142 181 228 291 349 416
#     4  12  28  50  76 100 144 186 232 300 364 422
#     4  11  23  43  72  97 141 185 236 284 352 424
#     4  12  26  45  72 103 142 182 238 290 362 421
#     4  12  25  48  69 105 142 187 233 296 354 434
#
# _framework density 20.870028999999999
#
# number of rings (size 3 to 8) (size 9 to 14) (size 15 to 20)
#    0.000    0.667    6.667    2.000    0.000    0.444 
#    8.000    0.000    0.000    0.000    0.000    0.000 
#    0.000    0.000    0.000    0.000    0.000    0.000 
#
# Total GULP energy -446326.823227 kJ/mol
# GULP energy per Si atom -12397.967312 kJ/mol
# Density = 2.082253 g / cm^3
# Si number density = 20.870029 Si / 1000 Ang^3
#
#
#
# Elastic Constant Matrix: (Units=GPa)
#
#
# Indices 1 2 3 4 5 6 
#
# 1 66.8676 79.2508 33.6843 0.0000 0.0000 0.0000
# 2 79.2508 66.8651 33.6838 0.0000 0.0000 0.0000
# 3 33.6843 33.6838 130.8472 0.0000 0.0000 0.0000
# 4 0.0000 0.0000 0.0000 33.3635 0.0000 0.0000
# 5 0.0000 0.0000 0.0000 0.0000 33.3634 0.0000
# 6 0.0000 0.0000 0.0000 0.0000 0.0000 37.2926
#
#
#
# Elastic Compliance Matrix: (Units=1/GPa)
#
#
# Indices 1 2 3 4 5 6 
#
# 1 -0.036490 0.044256 -0.001999 0.000000 0.000000 0.000000
# 2 0.044256 -0.036491 -0.001999 0.000000 0.000000 0.000000
# 3 -0.001999 -0.001999 0.008672 0.000000 0.000000 0.000000
# 4 0.000000 0.000000 0.000000 0.029973 0.000000 0.000000
# 5 0.000000 0.000000 0.000000 0.000000 0.029973 0.000000
# 6 0.000000 0.000000 0.000000 0.000000 0.000000 0.026815
#
#
# Mechanical properties :
#
#
# Convention : Reuss Voigt Hill
#
# Bulk Modulus (GPa) = 61.70380 61.97974 61.84177
# Shear Modulus (GPa) = -94.94588 28.66795 -33.13896
#
# Velocity S-wave (km/s) = -6.75223 3.71029 -3.98914
# Velocity P-wave (km/s) = 5.58214 6.93667 2.91180
#
# Compressibility (1/GPa) = 0.01620646
#
# Stress axis : x y z
#
# Youngs Moduli (GPa) = -27.40500 -27.40392 115.31694
#
# Poissons Ratio (x) = 1.21279 0.23053
# Poissons Ratio (y) = 1.21283 0.23052
# Poissons Ratio (z) = -0.05479 -0.05478
#
# Static dielectric constant tensor:
#      x y z
#    x 3.666290 0.000000 0.000000 
#    y 0.000000 3.666300 0.000000 
#    z 0.000000 0.000000 3.890930 
# 
# 
# High freq. dielectric constant tensor:
#      x y z
#    x 1.813890 0.000000 0.000000 
#    y 0.000000 1.813890 0.000000 
#    z 0.000000 0.000000 1.829780 
# 
# From -- ./inp_files/4328.got.cif
#   From: 2010.03.12/outbox.cif.g09.slc.cpg/sg120_3_cif.got.tgz:4328.got - 2010.04.06 16:00:44.
