data_PCOD8311803
_publ_section_title
;
Structure prediction by ZEFSAII (Michael W. Deem and Ramdas Pophale) SiO2 
 PCOD8311803
Probable space group: I -4 2 D
;
_chemical_formula_sum "Si O2"
_cell_formula_units_Z 88
_cell_length_a 17.633892
_cell_length_b 17.633892
_cell_length_c 13.092784
_cell_angle_alpha 90.000000
_cell_angle_beta 90.000000
_cell_angle_gamma 90.000000
_cell_volume 4071.255481
_symmetry_space_group_name_H-M "I -4 2 D"
_symmetry_group_IT_number 122
_symmetry_cell_setting 'tetragonal'
loop_
_space_group_symop_operation_xyz
x,y,z
y,-x,-z
-x,-y,z
-y,x,-z
x,1/2-y,1/4-z
-x,1/2+y,1/4-z
-y,1/2-x,1/4+z
y,1/2+x,1/4+z
1/2+x,1/2+y,1/2+z
1/2+y,1/2-x,1/2-z
1/2-x,1/2-y,1/2+z
1/2-y,1/2+x,1/2-z
1/2+x,-y,3/4-z
1/2-x,y,3/4-z
1/2-y,-x,3/4+z
1/2+y,x,3/4+z
loop_
_atom_site_type_symbol
_atom_site_label
_atom_site_fract_x
_atom_site_fract_y
_atom_site_fract_z
Si Si1 0.402569 0.400322 0.372233
Si Si2 0.500000 0.000000 0.250000
Si Si3 0.000000 0.000000 0.000000
Si Si4 0.917544 0.126423 0.362193
Si Si5 0.489795 0.235190 0.921890
Si Si6 0.568854 0.250000 0.125000
Si Si7 0.183600 0.750000 0.125000
Si Si8 0.695842 0.337779 0.016763
O O1 0.427132 0.475727 0.432175
O O2 0.401663 0.416675 0.252240
O O3 0.472547 0.341608 0.390632
O O4 0.320714 0.368878 0.409577
O O5 0.537436 0.066011 0.318383
O O6 0.830219 0.140103 0.401363
O O7 0.953450 0.210439 0.361893
O O8 0.517513 0.213559 0.036090
O O9 0.410057 0.276710 0.923638
O O10 0.618507 0.184229 0.175222
O O11 0.238496 0.773219 0.221304
#
# Coordination Sequence:
#
# PCOD8311803 Si02
#       8
#    16   4   4  16  16   8   8  16
#     4  11  26  45  72  93 136 183 241 287 345 421
#     4  12  22  36  60 110 152 180 218 288 368 446
#     4  12  30  52  72  98 136 188 238 292 340 414
#     4  11  22  37  68 102 141 180 230 287 367 416
#     4  10  20  35  62  95 130 177 213 276 343 408
#     4   9  18  30  56  92 139 164 206 266 337 408
#     4   9  22  44  70  90 133 180 234 280 345 406
#     4   9  18  36  59  98 133 167 216 281 336 409
#
# _framework density 21.614953
#
# number of rings (size 3 to 8) (size 9 to 14) (size 15 to 20)
#    0.000    1.818    1.818    1.636    5.091    3.636 
#    0.000    0.000    8.000    0.000    0.000    0.000 
#    0.000    0.000    0.000    0.000    0.000    0.000 
#
# Total GULP energy -545308.344730 kJ/mol
# GULP energy per Si atom -12393.371471 kJ/mol
# Density = 2.156576 g / cm^3
# Si number density = 21.614953 Si / 1000 Ang^3
#
#
#
# Elastic Constant Matrix: (Units=GPa)
#
#
# Indices 1 2 3 4 5 6 
#
# 1 89.2132 36.1712 35.8818 0.0000 0.0000 0.0000
# 2 36.1712 89.2132 35.8818 0.0000 0.0000 0.0000
# 3 35.8818 35.8818 91.6300 0.0000 0.0000 0.0000
# 4 0.0000 0.0000 0.0000 23.0363 0.0000 0.0000
# 5 0.0000 0.0000 0.0000 0.0000 23.0363 0.0000
# 6 0.0000 0.0000 0.0000 0.0000 0.0000 36.3240
#
#
#
# Elastic Compliance Matrix: (Units=1/GPa)
#
#
# Indices 1 2 3 4 5 6 
#
# 1 0.014566 -0.004287 -0.004025 0.000000 0.000000 0.000000
# 2 -0.004287 0.014566 -0.004025 0.000000 0.000000 0.000000
# 3 -0.004025 -0.004025 0.014066 0.000000 0.000000 0.000000
# 4 0.000000 0.000000 0.000000 0.043410 0.000000 0.000000
# 5 0.000000 0.000000 0.000000 0.000000 0.043410 0.000000
# 6 0.000000 0.000000 0.000000 0.000000 0.000000 0.027530
#
#
# Mechanical properties :
#
#
# Convention : Reuss Voigt Hill
#
# Bulk Modulus (GPa) = 53.98567 53.99176 53.98872
# Shear Modulus (GPa) = 26.53962 27.28741 26.91352
#
# Velocity S-wave (km/s) = 3.50785 3.55693 3.53247
# Velocity P-wave (km/s) = 6.43716 6.47318 6.45519
#
# Compressibility (1/GPa) = 0.01852343
#
# Stress axis : x y z
#
# Youngs Moduli (GPa) = 68.65218 68.65218 71.09310
#
# Poissons Ratio (x) = 0.29430 0.28617
# Poissons Ratio (y) = 0.29430 0.28617
# Poissons Ratio (z) = 0.27635 0.27635
#
# Static dielectric constant tensor:
#      x y z
#    x 4.255240 0.000000 0.000000 
#    y 0.000000 4.255240 0.000000 
#    z 0.000000 0.000000 3.733870 
# 
# 
# High freq. dielectric constant tensor:
#      x y z
#    x 1.858640 0.000000 0.000000 
#    y 0.000000 1.858640 0.000000 
#    z 0.000000 0.000000 1.824700 
# 
# From -- ./inp_files/5447.got.cif
#   From: 2010.03.12/outbox.cif.g09.slc.cpg/sg122_3_cif.got.tgz:5447.got - 2010.04.06 16:17:16.
