data_PCOD8311175
_publ_section_title
;
Structure prediction by ZEFSAII (Michael W. Deem and Ramdas Pophale) SiO2 
 PCOD8311175
Probable space group: I -4 C 2
;
_chemical_formula_sum "Si O2"
_cell_formula_units_Z 88
_cell_length_a 14.935404
_cell_length_b 14.935404
_cell_length_c 19.918739
_cell_angle_alpha 90.000000
_cell_angle_beta 90.000000
_cell_angle_gamma 90.000000
_cell_volume 4443.199263
_symmetry_space_group_name_H-M "I -4 C 2"
_symmetry_group_IT_number 120
_symmetry_cell_setting 'tetragonal'
loop_
_space_group_symop_operation_xyz
x,y,z
y,-x,-z
-x,-y,z
-y,x,-z
y,x,1/2-z
-y,-x,1/2-z
-x,y,1/2+z
x,-y,1/2+z
1/2+x,1/2+y,1/2+z
1/2+y,1/2-x,1/2-z
1/2-x,1/2-y,1/2+z
1/2-y,1/2+x,1/2-z
1/2+y,1/2+x,-z
1/2-y,1/2-x,-z
1/2-x,1/2+y,z
1/2+x,1/2-y,z
loop_
_atom_site_type_symbol
_atom_site_label
_atom_site_fract_x
_atom_site_fract_y
_atom_site_fract_z
Si Si1 0.031083 0.175306 0.304817
Si Si2 0.785778 0.119133 0.829149
Si Si3 0.347170 0.265587 0.313736
Si Si4 0.691971 0.676788 0.459902
Si Si5 0.000000 0.000000 0.878132
Si Si6 0.977248 0.816579 0.044838
O O1 0.047413 0.176737 0.224542
O O2 0.128286 0.186807 0.341802
O O3 0.954735 0.249592 0.321448
O O4 0.983954 0.084104 0.329627
O O5 0.699847 0.170175 0.799776
O O6 0.756782 0.068428 0.896660
O O7 0.329966 0.329966 0.250000
O O8 0.301535 0.304522 0.380897
O O9 0.756558 0.743443 0.500000
O O10 0.587809 0.688428 0.480787
O O11 0.722339 0.574433 0.474861
O O12 0.916786 0.014368 0.927329
#
# Coordination Sequence:
#
# PCOD8311175 Si02
#       6
#    16  16  16  16   8  16
#     4  10  21  35  60  93 125 164 205 260 322 387
#     4  10  22  39  59  95 130 165 212 266 312 391
#     4  12  23  40  62  92 129 175 210 257 332 391
#     4  12  25  40  66  97 129 174 214 264 334 397
#     4  10  20  36  62  98 133 157 202 270 353 389
#     4  11  22  39  59  94 132 161 208 266 320 399
#
# _framework density 19.805548000000002
#
# number of rings (size 3 to 8) (size 9 to 14) (size 15 to 20)
#    0.000    1.091    5.455    2.182    7.636    0.727 
#    0.000    0.000    0.000    1.091    0.000    0.000 
#    0.000    0.000    0.000    0.000    0.000    0.000 
#
# Total GULP energy -545302.554906 kJ/mol
# GULP energy per Si atom -12393.239884 kJ/mol
# Density = 1.976047 g / cm^3
# Si number density = 19.805548 Si / 1000 Ang^3
#
#
#
# Elastic Constant Matrix: (Units=GPa)
#
#
# Indices 1 2 3 4 5 6 
#
# 1 94.0833 56.3014 26.7933 0.0000 0.0000 0.0000
# 2 56.3014 94.0816 26.7925 0.0000 0.0000 0.0000
# 3 26.7933 26.7925 112.2744 0.0000 0.0000 0.0000
# 4 0.0000 0.0000 0.0000 25.1096 0.0000 0.0000
# 5 0.0000 0.0000 0.0000 0.0000 25.1096 0.0000
# 6 0.0000 0.0000 0.0000 0.0000 0.0000 31.3512
#
#
#
# Elastic Compliance Matrix: (Units=1/GPa)
#
#
# Indices 1 2 3 4 5 6 
#
# 1 0.016868 -0.009600 -0.001734 0.000000 0.000000 0.000000
# 2 -0.009600 0.016868 -0.001734 0.000000 0.000000 0.000000
# 3 -0.001734 -0.001734 0.009735 0.000000 0.000000 0.000000
# 4 0.000000 0.000000 0.000000 0.039825 0.000000 0.000000
# 5 0.000000 0.000000 0.000000 0.000000 0.039825 0.000000
# 6 0.000000 0.000000 0.000000 0.000000 0.000000 0.031897
#
#
# Mechanical properties :
#
#
# Convention : Reuss Voigt Hill
#
# Bulk Modulus (GPa) = 57.69521 57.80149 57.74835
# Shear Modulus (GPa) = 26.74747 29.01754 27.88251
#
# Velocity S-wave (km/s) = 3.67891 3.83184 3.75615
# Velocity P-wave (km/s) = 6.87313 6.98750 6.93055
#
# Compressibility (1/GPa) = 0.01733246
#
# Stress axis : x y z
#
# Youngs Moduli (GPa) = 59.28442 59.28353 102.72735
#
# Poissons Ratio (x) = 0.56914 0.17817
# Poissons Ratio (y) = 0.56915 0.17816
# Poissons Ratio (z) = 0.10282 0.10281
#
# Static dielectric constant tensor:
#      x y z
#    x 3.608750 0.000000 0.000000 
#    y 0.000000 3.608750 0.000000 
#    z 0.000000 0.000000 3.767590 
# 
# 
# High freq. dielectric constant tensor:
#      x y z
#    x 1.745690 0.000000 0.000000 
#    y 0.000000 1.745690 0.000000 
#    z 0.000000 0.000000 1.792520 
# 
# From -- ./inp_files/5259.got.cif
#   From: 2010.03.12/outbox.cif.g09.slc.cpg/sg120_3_cif.got.tgz:5259.got - 2010.04.06 16:00:44.
