data_PCOD8311195
_publ_section_title
;
Structure prediction by ZEFSAII (Michael W. Deem and Ramdas Pophale) SiO2 
 PCOD8311195
Probable space group: I -4 C 2
;
_chemical_formula_sum "Si O2"
_cell_formula_units_Z 60
_cell_length_a 18.540301
_cell_length_b 18.540301
_cell_length_c 7.719130
_cell_angle_alpha 90.000000
_cell_angle_beta 90.000000
_cell_angle_gamma 90.000000
_cell_volume 2653.395060
_symmetry_space_group_name_H-M "I -4 C 2"
_symmetry_group_IT_number 120
_symmetry_cell_setting 'tetragonal'
loop_
_space_group_symop_operation_xyz
x,y,z
y,-x,-z
-x,-y,z
-y,x,-z
y,x,1/2-z
-y,-x,1/2-z
-x,y,1/2+z
x,-y,1/2+z
1/2+x,1/2+y,1/2+z
1/2+y,1/2-x,1/2-z
1/2-x,1/2-y,1/2+z
1/2-y,1/2+x,1/2-z
1/2+y,1/2+x,-z
1/2-y,1/2-x,-z
1/2-x,1/2+y,z
1/2+x,1/2-y,z
loop_
_atom_site_type_symbol
_atom_site_label
_atom_site_fract_x
_atom_site_fract_y
_atom_site_fract_z
Si Si1 0.401744 0.812589 0.223476
Si Si2 0.454929 0.851616 0.857063
Si Si3 0.500000 0.000000 0.500000
Si Si4 0.162736 0.162736 0.250000
Si Si5 0.084687 0.078900 0.546664
O O1 0.482396 0.797947 0.296646
O O2 0.364690 0.889305 0.281555
O O3 0.349705 0.747742 0.276347
O O4 0.415280 0.816872 0.019268
O O5 0.496676 0.927444 0.885761
O O6 0.139067 0.122957 0.425774
O O7 0.096837 0.096837 0.750000
O O8 0.004986 0.099668 0.485012
#
# Coordination Sequence:
#
# PCOD8311195 Si02
#       5
#    16  16   4   8  16
#     4  10  23  40  65  97 136 175 227 274 335 410
#     4  10  20  40  67  97 136 177 223 278 336 397
#     4   8  16  34  68 102 120 166 240 270 300 414
#     4  12  26  41  68 100 142 173 224 284 344 424
#     4  11  21  39  66  95 127 175 239 291 330 386
#
# _framework density 22.612539000000002
#
# number of rings (size 3 to 8) (size 9 to 14) (size 15 to 20)
#    0.000    1.867    2.667    4.000    3.733    1.067 
#    0.000    8.000    2.933    0.000    0.000    0.000 
#    0.000    0.000    0.000    0.000    0.000    0.000 
#
# Total GULP energy -371657.698919 kJ/mol
# GULP energy per Si atom -12388.589964 kJ/mol
# Density = 2.256107 g / cm^3
# Si number density = 22.612539 Si / 1000 Ang^3
#
#
#
# Elastic Constant Matrix: (Units=GPa)
#
#
# Indices 1 2 3 4 5 6 
#
# 1 106.9300 80.3105 7.4010 0.0000 0.0000 0.0000
# 2 80.3105 106.9300 7.4010 0.0000 0.0000 0.0000
# 3 7.4010 7.4010 78.1948 0.0000 0.0000 0.0000
# 4 0.0000 0.0000 0.0000 23.1018 0.0000 0.0000
# 5 0.0000 0.0000 0.0000 0.0000 23.1018 0.0000
# 6 0.0000 0.0000 0.0000 0.0000 0.0000 42.7653
#
#
#
# Elastic Compliance Matrix: (Units=1/GPa)
#
#
# Indices 1 2 3 4 5 6 
#
# 1 0.021474 -0.016093 -0.000509 0.000000 0.000000 0.000000
# 2 -0.016093 0.021474 -0.000509 0.000000 0.000000 0.000000
# 3 -0.000509 -0.000509 0.012885 0.000000 0.000000 0.000000
# 4 0.000000 0.000000 0.000000 0.043287 0.000000 0.000000
# 5 0.000000 0.000000 0.000000 0.000000 0.043287 0.000000
# 6 0.000000 0.000000 0.000000 0.000000 0.000000 0.023383
#
#
# Mechanical properties :
#
#
# Convention : Reuss Voigt Hill
#
# Bulk Modulus (GPa) = 46.27539 53.58662 49.93101
# Shear Modulus (GPa) = 24.12954 30.92328 27.52641
#
# Velocity S-wave (km/s) = 3.27017 3.70202 3.49278
# Velocity P-wave (km/s) = 5.89641 6.48248 6.19637
#
# Compressibility (1/GPa) = 0.02160976
#
# Stress axis : x y z
#
# Youngs Moduli (GPa) = 46.56858 46.56858 77.60977
#
# Poissons Ratio (x) = 0.74941 0.03953
# Poissons Ratio (y) = 0.74941 0.03953
# Poissons Ratio (z) = 0.02372 0.02372
#
# Static dielectric constant tensor:
#      x y z
#    x 4.139380 0.000000 0.000000 
#    y 0.000000 4.139380 0.000000 
#    z 0.000000 0.000000 4.141790 
# 
# 
# High freq. dielectric constant tensor:
#      x y z
#    x 1.879270 0.000000 0.000000 
#    y 0.000000 1.879270 0.000000 
#    z 0.000000 0.000000 1.886610 
# 
# From -- ./inp_files/1101.got.cif
#   From: 2010.03.12/outbox.cif.g09.slc.cpg/sg120_1_cif.got.tgz:1101.got - 2010.04.06 16:00:44.
