data_PCOD8311302
_publ_section_title
;
Structure prediction by ZEFSAII (Michael W. Deem and Ramdas Pophale) SiO2 
 PCOD8311302
Probable space group: I -4 C 2
;
_chemical_formula_sum "Si O2"
_cell_formula_units_Z 96
_cell_length_a 15.590093
_cell_length_b 15.590093
_cell_length_c 16.987190
_cell_angle_alpha 90.000000
_cell_angle_beta 90.000000
_cell_angle_gamma 90.000000
_cell_volume 4128.753512
_symmetry_space_group_name_H-M "I -4 C 2"
_symmetry_group_IT_number 120
_symmetry_cell_setting 'tetragonal'
loop_
_space_group_symop_operation_xyz
x,y,z
y,-x,-z
-x,-y,z
-y,x,-z
y,x,1/2-z
-y,-x,1/2-z
-x,y,1/2+z
x,-y,1/2+z
1/2+x,1/2+y,1/2+z
1/2+y,1/2-x,1/2-z
1/2-x,1/2-y,1/2+z
1/2-y,1/2+x,1/2-z
1/2+y,1/2+x,-z
1/2-y,1/2-x,-z
1/2-x,1/2+y,z
1/2+x,1/2-y,z
loop_
_atom_site_type_symbol
_atom_site_label
_atom_site_fract_x
_atom_site_fract_y
_atom_site_fract_z
Si Si1 0.605302 0.687154 0.174061
Si Si2 0.934483 0.576458 0.147837
Si Si3 0.747056 0.305463 0.167098
Si Si4 0.608335 0.559173 0.030301
Si Si5 0.880299 0.269562 0.550845
Si Si6 0.016220 0.703207 0.775242
O O1 0.644384 0.644384 0.250000
O O2 0.666249 0.759991 0.133401
O O3 0.587741 0.612748 0.109867
O O4 0.519565 0.733093 0.207587
O O5 0.937813 0.650114 0.080610
O O6 0.955380 0.615645 0.232908
O O7 0.833549 0.548319 0.157269
O O8 0.000000 0.500000 0.124009
O O9 0.739531 0.260470 0.250000
O O10 0.660326 0.284887 0.121353
O O11 0.753721 0.407524 0.175677
O O12 0.591723 0.456801 0.039186
O O13 0.706547 0.563916 0.002670
O O14 0.800955 0.300955 0.500000
#
# Coordination Sequence:
#
# PCOD8311302 Si02
#       6
#    16  16  16  16  16  16
#     4  11  23  43  70 103 140 194 254 307 373 454
#     4  12  22  41  70 111 149 190 233 313 378 443
#     4  11  22  41  70 106 142 194 245 299 372 451
#     4  11  27  49  69  98 148 200 250 320 377 439
#     4  12  26  45  73 104 150 200 251 302 380 464
#     4  12  21  39  72 108 148 184 247 308 373 446
#
# _framework density 23.251567999999999
#
# number of rings (size 3 to 8) (size 9 to 14) (size 15 to 20)
#    0.000    0.500    6.667    2.000    2.333    0.333 
#    0.000    1.667    0.000    0.000    0.000    0.000 
#    0.000    0.000    0.000    0.000    0.000    0.000 
#
# Total GULP energy -594826.996187 kJ/mol
# GULP energy per Si atom -12392.229087 kJ/mol
# Density = 2.319865 g / cm^3
# Si number density = 23.251568 Si / 1000 Ang^3
#
#
#
# Elastic Constant Matrix: (Units=GPa)
#
#
# Indices 1 2 3 4 5 6 
#
# 1 103.6451 55.9893 34.6070 0.0000 0.0000 0.0000
# 2 55.9893 103.6492 34.6068 0.0000 0.0000 0.0000
# 3 34.6070 34.6068 68.7674 0.0000 0.0000 0.0000
# 4 0.0000 0.0000 0.0000 25.5652 0.0000 0.0000
# 5 0.0000 0.0000 0.0000 0.0000 25.5658 0.0000
# 6 0.0000 0.0000 0.0000 0.0000 0.0000 45.5362
#
#
#
# Elastic Compliance Matrix: (Units=1/GPa)
#
#
# Indices 1 2 3 4 5 6 
#
# 1 0.014498 -0.006485 -0.004032 0.000000 0.000000 0.000000
# 2 -0.006485 0.014497 -0.004032 0.000000 0.000000 0.000000
# 3 -0.004032 -0.004032 0.018600 0.000000 0.000000 0.000000
# 4 0.000000 0.000000 0.000000 0.039116 0.000000 0.000000
# 5 0.000000 0.000000 0.000000 0.000000 0.039115 0.000000
# 6 0.000000 0.000000 0.000000 0.000000 0.000000 0.021961
#
#
# Mechanical properties :
#
#
# Convention : Reuss Voigt Hill
#
# Bulk Modulus (GPa) = 54.06520 58.49643 56.28082
# Shear Modulus (GPa) = 27.31472 29.39067 28.35269
#
# Velocity S-wave (km/s) = 3.43118 3.55918 3.49576
# Velocity P-wave (km/s) = 6.24500 6.48868 6.36801
#
# Compressibility (1/GPa) = 0.01849618
#
# Stress axis : x y z
#
# Youngs Moduli (GPa) = 68.97471 68.97816 53.76282
#
# Poissons Ratio (x) = 0.44734 0.21680
# Poissons Ratio (y) = 0.44731 0.21677
# Poissons Ratio (z) = 0.27814 0.27812
#
# Static dielectric constant tensor:
#      x y z
#    x 4.442070 0.000000 0.000000 
#    y 0.000000 4.442100 0.000000 
#    z 0.000000 0.000000 4.318020 
# 
# 
# High freq. dielectric constant tensor:
#      x y z
#    x 1.926850 0.000000 0.000000 
#    y 0.000000 1.926850 0.000000 
#    z 0.000000 0.000000 1.896760 
# 
# From -- ./inp_files/5342.got.cif
#   From: 2010.03.12/outbox.cif.g09.slc.cpg/sg120_3_cif.got.tgz:5342.got - 2010.04.06 16:00:44.
