data_PCOD8311923
_publ_section_title
;
Structure prediction by ZEFSAII (Michael W. Deem and Ramdas Pophale) SiO2 
 PCOD8311923
Probable space group: I -4 2 D
;
_chemical_formula_sum "Si O2"
_cell_formula_units_Z 80
_cell_length_a 13.837923
_cell_length_b 13.837923
_cell_length_c 18.607619
_cell_angle_alpha 90.000000
_cell_angle_beta 90.000000
_cell_angle_gamma 90.000000
_cell_volume 3563.137849
_symmetry_space_group_name_H-M "I -4 2 D"
_symmetry_group_IT_number 122
_symmetry_cell_setting 'tetragonal'
loop_
_space_group_symop_operation_xyz
x,y,z
y,-x,-z
-x,-y,z
-y,x,-z
x,1/2-y,1/4-z
-x,1/2+y,1/4-z
-y,1/2-x,1/4+z
y,1/2+x,1/4+z
1/2+x,1/2+y,1/2+z
1/2+y,1/2-x,1/2-z
1/2-x,1/2-y,1/2+z
1/2-y,1/2+x,1/2-z
1/2+x,-y,3/4-z
1/2-x,y,3/4-z
1/2-y,-x,3/4+z
1/2+y,x,3/4+z
loop_
_atom_site_type_symbol
_atom_site_label
_atom_site_fract_x
_atom_site_fract_y
_atom_site_fract_z
Si Si1 0.650691 0.634739 0.413380
Si Si2 0.076348 0.760200 0.546661
Si Si3 0.718479 0.063880 0.801760
Si Si4 0.934548 0.795474 0.422464
Si Si5 0.457710 0.104169 0.468151
O O1 0.750000 0.663799 0.375000
O O2 0.640918 0.518880 0.423315
O O3 0.639424 0.677367 0.494345
O O4 0.569752 0.687353 0.363019
O O5 0.025701 0.750000 0.625000
O O6 0.170019 0.827928 0.554303
O O7 0.110573 0.656937 0.518019
O O8 0.999362 0.803257 0.492298
O O9 0.750000 0.120045 0.875000
O O10 0.811165 0.002504 0.770348
O O11 0.980561 0.870099 0.364666
O O12 0.500000 0.000000 0.488729
#
# Coordination Sequence:
#
# PCOD8311923 Si02
#       5
#    16  16  16  16  16
#     4  10  22  44  67  96 139 180 223 293 340 403
#     4  10  23  40  65 102 134 179 228 280 350 418
#     4  10  23  42  67  98 133 180 233 278 350 417
#     4  10  22  41  68  94 142 178 223 290 345 416
#     4  10  23  42  63  99 132 174 233 282 343 419
#
# _framework density 22.452120000000001
#
# number of rings (size 3 to 8) (size 9 to 14) (size 15 to 20)
#    0.000    2.000    0.000    3.000   11.200    3.600 
#    0.000    4.000    0.000    0.000    0.000    0.000 
#    0.000    0.000    0.000    0.000    0.000    0.000 
#
# Total GULP energy -495609.477996 kJ/mol
# GULP energy per Si atom -12390.236950 kJ/mol
# Density = 2.240102 g / cm^3
# Si number density = 22.452120 Si / 1000 Ang^3
#
#
#
# Elastic Constant Matrix: (Units=GPa)
#
#
# Indices 1 2 3 4 5 6 
#
# 1 75.7624 10.5598 35.8163 0.0000 0.0000 0.0000
# 2 10.5598 75.7624 35.8163 0.0000 0.0000 0.0000
# 3 35.8163 35.8163 147.2998 0.0000 0.0000 0.0000
# 4 0.0000 0.0000 0.0000 32.8856 0.0000 0.0000
# 5 0.0000 0.0000 0.0000 0.0000 32.8856 0.0000
# 6 0.0000 0.0000 0.0000 0.0000 0.0000 23.6275
#
#
#
# Elastic Compliance Matrix: (Units=1/GPa)
#
#
# Indices 1 2 3 4 5 6 
#
# 1 0.014925 -0.000412 -0.003529 0.000000 0.000000 0.000000
# 2 -0.000412 0.014925 -0.003529 0.000000 0.000000 0.000000
# 3 -0.003529 -0.003529 0.008505 0.000000 0.000000 0.000000
# 4 0.000000 0.000000 0.000000 0.030408 0.000000 0.000000
# 5 0.000000 0.000000 0.000000 0.000000 0.030408 0.000000
# 6 0.000000 0.000000 0.000000 0.000000 0.000000 0.042324
#
#
# Mechanical properties :
#
#
# Convention : Reuss Voigt Hill
#
# Bulk Modulus (GPa) = 42.70709 51.46770 47.08739
# Shear Modulus (GPa) = 30.44336 32.32190 31.38263
#
# Velocity S-wave (km/s) = 3.68628 3.79831 3.74272
# Velocity P-wave (km/s) = 6.09762 6.49687 6.30041
#
# Compressibility (1/GPa) = 0.02341532
#
# Stress axis : x y z
#
# Youngs Moduli (GPa) = 67.00245 67.00245 117.57838
#
# Poissons Ratio (x) = 0.02760 0.41491
# Poissons Ratio (y) = 0.02760 0.41491
# Poissons Ratio (z) = 0.23644 0.23644
#
# Static dielectric constant tensor:
#      x y z
#    x 3.944950 0.000000 0.000000 
#    y 0.000000 3.944950 0.000000 
#    z 0.000000 0.000000 4.284210 
# 
# 
# High freq. dielectric constant tensor:
#      x y z
#    x 1.864330 0.000000 0.000000 
#    y 0.000000 1.864330 0.000000 
#    z 0.000000 0.000000 1.905220 
# 
# From -- ./inp_files/7064.got.cif
#   From: 2010.03.12/outbox.cif.g09.slc.cpg/sg122_4_cif.got.tgz:7064.got - 2010.04.06 16:17:16.
