data_PCOD8311829
_publ_section_title
;
Structure prediction by ZEFSAII (Michael W. Deem and Ramdas Pophale) SiO2 
 PCOD8311829
Probable space group: I -4 2 D
;
_chemical_formula_sum "Si O2"
_cell_formula_units_Z 56
_cell_length_a 11.385896
_cell_length_b 11.385896
_cell_length_c 21.419595
_cell_angle_alpha 90.000000
_cell_angle_beta 90.000000
_cell_angle_gamma 90.000000
_cell_volume 2776.806902
_symmetry_space_group_name_H-M "I -4 2 D"
_symmetry_group_IT_number 122
_symmetry_cell_setting 'tetragonal'
loop_
_space_group_symop_operation_xyz
x,y,z
y,-x,-z
-x,-y,z
-y,x,-z
x,1/2-y,1/4-z
-x,1/2+y,1/4-z
-y,1/2-x,1/4+z
y,1/2+x,1/4+z
1/2+x,1/2+y,1/2+z
1/2+y,1/2-x,1/2-z
1/2-x,1/2-y,1/2+z
1/2-y,1/2+x,1/2-z
1/2+x,-y,3/4-z
1/2-x,y,3/4-z
1/2-y,-x,3/4+z
1/2+y,x,3/4+z
loop_
_atom_site_type_symbol
_atom_site_label
_atom_site_fract_x
_atom_site_fract_y
_atom_site_fract_z
Si Si1 0.750000 0.768470 0.375000
Si Si2 0.022833 0.361486 0.407142
Si Si3 0.097079 0.090432 0.276771
Si Si4 0.509394 0.321081 0.478382
O O1 0.842765 0.683641 0.409591
O O2 0.818494 0.855969 0.328748
O O3 0.957635 0.311519 0.345236
O O4 0.000000 0.500000 0.406322
O O5 0.963547 0.319875 0.472296
O O6 0.016114 0.192469 0.244985
O O7 0.000000 0.000000 0.304858
O O8 0.385560 0.393502 0.480189
#
# Coordination Sequence:
#
# PCOD8311829 Si02
#       4
#     8  16  16  16
#     4  10  24  48  62  92 142 170 224 286 320 402
#     4  10  21  37  68  96 125 168 217 270 333 390
#     4  10  24  40  63  96 130 174 220 269 328 404
#     4  10  20  38  63 101 131 168 210 275 340 399
#
# _framework density 20.167047
#
# number of rings (size 3 to 8) (size 9 to 14) (size 15 to 20)
#    0.000    2.000    2.857    0.000   16.000    1.143 
#   10.286    0.000    0.000    0.000    0.000    0.000 
#    0.000    0.000    0.000    0.000    0.000    0.000 
#
# Total GULP energy -346879.889741 kJ/mol
# GULP energy per Si atom -12388.567491 kJ/mol
# Density = 2.012115 g / cm^3
# Si number density = 20.167047 Si / 1000 Ang^3
#
#
#
# Elastic Constant Matrix: (Units=GPa)
#
#
# Indices 1 2 3 4 5 6 
#
# 1 127.2378 54.2048 46.1062 0.0000 0.0000 0.0000
# 2 54.2048 127.2378 46.1062 0.0000 0.0000 0.0000
# 3 46.1062 46.1062 108.0371 0.0000 0.0000 0.0000
# 4 0.0000 0.0000 0.0000 24.2510 0.0000 0.0000
# 5 0.0000 0.0000 0.0000 0.0000 24.2510 0.0000
# 6 0.0000 0.0000 0.0000 0.0000 0.0000 39.7094
#
#
#
# Elastic Compliance Matrix: (Units=1/GPa)
#
#
# Indices 1 2 3 4 5 6 
#
# 1 0.010365 -0.003327 -0.003003 0.000000 0.000000 0.000000
# 2 -0.003327 0.010365 -0.003003 0.000000 0.000000 0.000000
# 3 -0.003003 -0.003003 0.011820 0.000000 0.000000 0.000000
# 4 0.000000 0.000000 0.000000 0.041235 0.000000 0.000000
# 5 0.000000 0.000000 0.000000 0.000000 0.041235 0.000000
# 6 0.000000 0.000000 0.000000 0.000000 0.000000 0.025183
#
#
# Mechanical properties :
#
#
# Convention : Reuss Voigt Hill
#
# Bulk Modulus (GPa) = 72.03918 72.81636 72.42777
# Shear Modulus (GPa) = 30.58116 32.04863 31.31489
#
# Velocity S-wave (km/s) = 3.89831 3.99075 3.94480
# Velocity P-wave (km/s) = 7.48741 7.57758 7.53263
#
# Compressibility (1/GPa) = 0.01388134
#
# Stress axis : x y z
#
# Youngs Moduli (GPa) = 96.47743 96.47743 84.60504
#
# Poissons Ratio (x) = 0.32101 0.25411
# Poissons Ratio (y) = 0.32101 0.25411
# Poissons Ratio (z) = 0.28977 0.28977
#
# Static dielectric constant tensor:
#      x y z
#    x 3.659930 0.000000 0.000000 
#    y 0.000000 3.659930 0.000000 
#    z 0.000000 0.000000 4.183370 
# 
# 
# High freq. dielectric constant tensor:
#      x y z
#    x 1.778090 0.000000 0.000000 
#    y 0.000000 1.778090 0.000000 
#    z 0.000000 0.000000 1.792720 
# 
# From -- ./inp_files/6826.got.cif
#   From: 2010.03.12/outbox.cif.g09.slc.cpg/sg122_4_cif.got.tgz:6826.got - 2010.04.06 16:17:16.
