data_PCOD8311611
_publ_section_title
;
Structure prediction by ZEFSAII (Michael W. Deem and Ramdas Pophale) SiO2 
 PCOD8311611
Probable space group: I -4 2 M
;
_chemical_formula_sum "Si O2"
_cell_formula_units_Z 112
_cell_length_a 13.797267
_cell_length_b 13.797267
_cell_length_c 31.775983
_cell_angle_alpha 90.000000
_cell_angle_beta 90.000000
_cell_angle_gamma 90.000000
_cell_volume 6049.021552
_symmetry_space_group_name_H-M "I -4 2 M"
_symmetry_group_IT_number 121
_symmetry_cell_setting 'tetragonal'
loop_
_space_group_symop_operation_xyz
x,y,z
y,-x,-z
-x,-y,z
-y,x,-z
x,-y,-z
-x,y,-z
-y,-x,z
y,x,z
1/2+x,1/2+y,1/2+z
1/2+y,1/2-x,1/2-z
1/2-x,1/2-y,1/2+z
1/2-y,1/2+x,1/2-z
1/2+x,1/2-y,1/2-z
1/2-x,1/2+y,1/2-z
1/2-y,1/2-x,1/2+z
1/2+y,1/2+x,1/2+z
loop_
_atom_site_type_symbol
_atom_site_label
_atom_site_fract_x
_atom_site_fract_y
_atom_site_fract_z
Si Si1 0.740123 0.901705 0.838942
Si Si2 0.896684 0.737622 0.018632
Si Si3 0.596069 0.244096 0.121312
Si Si4 0.234065 0.605911 0.835726
Si Si5 0.758253 0.597429 0.976112
Si Si6 0.741579 0.099125 0.883482
Si Si7 0.649030 0.056311 0.248500
O O1 0.832275 0.832275 0.837515
O O2 0.647590 0.849381 0.859059
O O3 0.715462 0.938377 0.792474
O O4 0.768002 0.992317 0.867867
O O5 0.829091 0.829091 0.009122
O O6 0.903483 0.714493 0.067741
O O7 0.855872 0.642475 0.995528
O O8 0.000000 0.764888 0.000000
O O9 0.660975 0.339026 0.127728
O O10 0.496507 0.263446 0.145025
O O11 0.575601 0.223230 0.072613
O O12 0.324523 0.675478 0.843317
O O13 0.138982 0.647656 0.858885
O O14 0.212252 0.597551 0.786518
O O15 0.669402 0.669402 0.983324
O O16 0.730562 0.500000 0.000000
O O17 0.834309 0.165692 0.874312
O O18 0.554151 0.121456 0.241733
#
# Coordination Sequence:
#
# PCOD8311611 Si02
#       7
#    16  16  16  16  16  16  16
#     4  11  22  39  61  85 118 156 191 238 291 341
#     4  10  21  38  58  84 117 152 192 239 290 344
#     4  10  22  38  59  86 116 151 194 240 287 346
#     4  11  22  39  61  85 118 156 191 238 291 341
#     4  10  21  38  58  84 117 152 192 239 290 344
#     4  10  22  38  59  86 116 151 194 240 287 346
#     4  11  21  38  62  89 118 150 190 241 288 344
#
# _framework density 18.515391000000001
#
# number of rings (size 3 to 8) (size 9 to 14) (size 15 to 20)
#    0.000    1.571    2.857    2.143    0.000    5.143 
#    0.000    6.429    0.000    1.714    0.000    0.000 
#    0.000    0.000    0.000    0.000    0.000    0.000 
#
# Total GULP energy -694768.259263 kJ/mol
# GULP energy per Si atom -12406.576058 kJ/mol
# Density = 1.847325 g / cm^3
# Si number density = 18.515391 Si / 1000 Ang^3
#
#
#
# Elastic Constant Matrix: (Units=GPa)
#
#
# Indices 1 2 3 4 5 6 
#
# 1 88.3360 17.8016 27.2865 0.0000 0.0000 0.0000
# 2 17.8016 88.3353 27.2867 0.0000 0.0000 0.0000
# 3 27.2865 27.2867 86.3668 0.0000 0.0000 0.0000
# 4 0.0000 0.0000 0.0000 30.1241 0.0000 0.0000
# 5 0.0000 0.0000 0.0000 0.0000 30.1231 0.0000
# 6 0.0000 0.0000 0.0000 0.0000 0.0000 14.1162
#
#
#
# Elastic Compliance Matrix: (Units=1/GPa)
#
#
# Indices 1 2 3 4 5 6 
#
# 1 0.012713 -0.001464 -0.003554 0.000000 0.000000 0.000000
# 2 -0.001464 0.012713 -0.003554 0.000000 0.000000 0.000000
# 3 -0.003554 -0.003554 0.013824 0.000000 0.000000 0.000000
# 4 0.000000 0.000000 0.000000 0.033196 0.000000 0.000000
# 5 0.000000 0.000000 0.000000 0.000000 0.033197 0.000000
# 6 0.000000 0.000000 0.000000 0.000000 0.000000 0.070841
#
#
# Mechanical properties :
#
#
# Convention : Reuss Voigt Hill
#
# Bulk Modulus (GPa) = 45.23576 45.30973 45.27274
# Shear Modulus (GPa) = 24.87584 27.58355 26.22969
#
# Velocity S-wave (km/s) = 3.66939 3.86393 3.76791
# Velocity P-wave (km/s) = 6.51437 6.66567 6.59045
#
# Compressibility (1/GPa) = 0.02210640
#
# Stress axis : x y z
#
# Youngs Moduli (GPa) = 78.65779 78.65706 72.33666
#
# Poissons Ratio (x) = 0.11517 0.25709
# Poissons Ratio (y) = 0.11517 0.25709
# Poissons Ratio (z) = 0.27955 0.27955
#
# Static dielectric constant tensor:
#      x y z
#    x 3.390060 0.000000 0.000000 
#    y 0.000000 3.390060 0.000000 
#    z 0.000000 0.000000 3.554630 
# 
# 
# High freq. dielectric constant tensor:
#      x y z
#    x 1.718890 0.000000 0.000000 
#    y 0.000000 1.718890 0.000000 
#    z 0.000000 0.000000 1.737590 
# 
# From -- ./inp_files/7761.got.cif
#   From: 2010.03.12/outbox.cif.g09.slc.cpg/sg121_4_cif.got.tgz:7761.got - 2010.04.06 16:06:48.
