data_PCOD8311031
_publ_section_title
;
Structure prediction by ZEFSAII (Michael W. Deem and Ramdas Pophale) SiO2 
 PCOD8311031
Probable space group: I -4 M 2
;
_chemical_formula_sum "Si O2"
_cell_formula_units_Z 56
_cell_length_a 12.239255
_cell_length_b 12.239255
_cell_length_c 18.641434
_cell_angle_alpha 90.000000
_cell_angle_beta 90.000000
_cell_angle_gamma 90.000000
_cell_volume 2792.474938
_symmetry_space_group_name_H-M "I -4 M 2"
_symmetry_group_IT_number 119
_symmetry_cell_setting 'tetragonal'
loop_
_space_group_symop_operation_xyz
x,y,z
y,-x,-z
-x,-y,z
-y,x,-z
y,x,-z
-y,-x,-z
-x,y,z
x,-y,z
1/2+x,1/2+y,1/2+z
1/2+y,1/2-x,1/2-z
1/2-x,1/2-y,1/2+z
1/2-y,1/2+x,1/2-z
1/2+y,1/2+x,1/2-z
1/2-y,1/2-x,1/2-z
1/2-x,1/2+y,1/2+z
1/2+x,1/2-y,1/2+z
loop_
_atom_site_type_symbol
_atom_site_label
_atom_site_fract_x
_atom_site_fract_y
_atom_site_fract_z
Si Si1 0.742047 0.624192 0.693046
Si Si2 0.623203 0.000000 0.541098
Si Si3 0.121289 0.000000 0.768638
Si Si4 0.872662 0.287007 0.967205
Si Si5 0.346222 0.000000 0.708869
O O1 0.770763 0.500000 0.716288
O O2 0.791449 0.708552 0.750000
O O3 0.610279 0.636969 0.684657
O O4 0.796462 0.652626 0.617159
O O5 0.679423 0.892056 0.507978
O O6 0.620048 0.000000 0.626672
O O7 0.500000 0.000000 0.511674
O O8 0.214835 0.000000 0.708135
O O9 0.000000 0.000000 0.732886
O O10 0.000000 0.275299 0.982431
O O11 0.820430 0.179571 0.000000
O O12 0.393583 0.106418 0.750000
#
# Coordination Sequence:
#
# PCOD8311031 Si02
#       5
#    16   8   8  16   8
#     4  10  23  41  63  90 119 162 205 250 305 365
#     4  10  22  42  60  91 126 156 205 251 307 353
#     4  10  23  39  60  90 127 152 200 252 303 359
#     4  10  24  40  63  90 124 161 200 254 305 364
#     4  11  22  36  67  98 115 159 202 254 303 360
#
# _framework density 20.053895000000001
#
# number of rings (size 3 to 8) (size 9 to 14) (size 15 to 20)
#    0.000    1.857    1.429    0.857   12.000    0.571 
#    0.000    0.000    0.000    0.000    0.000    0.000 
#    0.000    0.000    0.000    0.000    0.000    0.000 
#
# Total GULP energy -347103.927681 kJ/mol
# GULP energy per Si atom -12396.568846 kJ/mol
# Density = 2.000825 g / cm^3
# Si number density = 20.053895 Si / 1000 Ang^3
#
#
#
# Elastic Constant Matrix: (Units=GPa)
#
#
# Indices 1 2 3 4 5 6 
#
# 1 103.3983 57.4442 60.7879 0.0000 0.0000 0.0000
# 2 57.4442 103.4014 60.7835 0.0000 0.0000 0.0000
# 3 60.7879 60.7835 131.6907 0.0000 0.0000 0.0000
# 4 0.0000 0.0000 0.0000 24.6511 0.0000 0.0000
# 5 0.0000 0.0000 0.0000 0.0000 24.6512 0.0000
# 6 0.0000 0.0000 0.0000 0.0000 0.0000 23.3891
#
#
#
# Elastic Compliance Matrix: (Units=1/GPa)
#
#
# Indices 1 2 3 4 5 6 
#
# 1 0.015655 -0.006106 -0.004408 0.000000 0.000000 0.000000
# 2 -0.006106 0.015654 -0.004407 0.000000 0.000000 0.000000
# 3 -0.004408 -0.004407 0.011662 0.000000 0.000000 0.000000
# 4 0.000000 0.000000 0.000000 0.040566 0.000000 0.000000
# 5 0.000000 0.000000 0.000000 0.000000 0.040566 0.000000
# 6 0.000000 0.000000 0.000000 0.000000 0.000000 0.042755
#
#
# Mechanical properties :
#
#
# Convention : Reuss Voigt Hill
#
# Bulk Modulus (GPa) = 76.16336 77.39129 76.77733
# Shear Modulus (GPa) = 24.86625 25.16991 25.01808
#
# Velocity S-wave (km/s) = 3.52514 3.54660 3.53589
# Velocity P-wave (km/s) = 7.39125 7.44625 7.41880
#
# Compressibility (1/GPa) = 0.01312967
#
# Stress axis : x y z
#
# Youngs Moduli (GPa) = 63.87727 63.88330 85.74680
#
# Poissons Ratio (x) = 0.39006 0.37798
# Poissons Ratio (y) = 0.39002 0.37786
# Poissons Ratio (z) = 0.28157 0.28151
#
# Static dielectric constant tensor:
#      x y z
#    x 3.807860 0.000000 0.000000 
#    y 0.000000 3.807870 0.000000 
#    z 0.000000 0.000000 3.439090 
# 
# 
# High freq. dielectric constant tensor:
#      x y z
#    x 1.784250 0.000000 0.000000 
#    y 0.000000 1.784250 0.000000 
#    z 0.000000 0.000000 1.767620 
# 
# From -- ./inp_files/7276.got.cif
#   From: 2010.03.12/outbox.cif.g09.slc.cpg/sg119_4_cif.got.tgz:7276.got - 2010.04.14 02:25:26.
