data_PCOD8311024
_publ_section_title
;
Structure prediction by ZEFSAII (Michael W. Deem and Ramdas Pophale) SiO2 
 PCOD8311024
Probable space group: I -4 M 2
;
_chemical_formula_sum "Si O2"
_cell_formula_units_Z 38
_cell_length_a 10.310741
_cell_length_b 10.310741
_cell_length_c 19.720501
_cell_angle_alpha 90.000000
_cell_angle_beta 90.000000
_cell_angle_gamma 90.000000
_cell_volume 2096.513675
_symmetry_space_group_name_H-M "I -4 M 2"
_symmetry_group_IT_number 119
_symmetry_cell_setting 'tetragonal'
loop_
_space_group_symop_operation_xyz
x,y,z
y,-x,-z
-x,-y,z
-y,x,-z
y,x,-z
-y,-x,-z
-x,y,z
x,-y,z
1/2+x,1/2+y,1/2+z
1/2+y,1/2-x,1/2-z
1/2-x,1/2-y,1/2+z
1/2-y,1/2+x,1/2-z
1/2+y,1/2+x,1/2-z
1/2-y,1/2-x,1/2-z
1/2-x,1/2+y,1/2+z
1/2+x,1/2-y,1/2+z
loop_
_atom_site_type_symbol
_atom_site_label
_atom_site_fract_x
_atom_site_fract_y
_atom_site_fract_z
Si Si1 0.241329 0.845541 0.926579
Si Si2 0.500000 0.500000 0.217173
Si Si3 0.000000 0.500000 0.250000
Si Si4 0.500000 0.769740 0.856772
Si Si5 0.000000 0.143052 0.847142
O O1 0.376279 0.785036 0.904240
O O2 0.131717 0.790761 0.874355
O O3 0.254632 0.000000 0.925413
O O4 0.205842 0.794159 0.000000
O O5 0.625611 0.500000 0.171460
O O6 0.500000 0.629149 0.265281
O O7 0.128560 0.500000 0.204792
O O8 0.000000 0.000000 0.881650
#
# Coordination Sequence:
#
# PCOD8311024 Si02
#       5
#    16   4   2   8   8
#     4  11  20  37  62  88 117 151 202 248 292 348
#     4  10  22  38  54  84 130 154 194 232 310 354
#     4  12  20  40  64  92 124 152 212 250 284 364
#     4  12  24  37  60  93 124 158 192 251 301 353
#     4   8  18  34  58  84 108 153 194 244 281 338
#
# _framework density 18.125330000000002
#
# number of rings (size 3 to 8) (size 9 to 14) (size 15 to 20)
#    0.632    0.842    4.211    2.526    0.000    1.684 
#    0.000    0.000    0.000    0.000    0.000    2.947 
#    0.000    0.000    0.000    0.000    0.000    0.000 
#
# Total GULP energy -235502.530043 kJ/mol
# GULP energy per Si atom -12394.870002 kJ/mol
# Density = 1.808408 g / cm^3
# Si number density = 18.125330 Si / 1000 Ang^3
#
#
#
# Elastic Constant Matrix: (Units=GPa)
#
#
# Indices 1 2 3 4 5 6 
#
# 1 133.9429 37.1028 52.1325 0.0000 0.0000 0.0000
# 2 37.1028 133.9421 52.1318 0.0000 0.0000 0.0000
# 3 52.1325 52.1318 93.9262 0.0000 0.0000 0.0000
# 4 0.0000 0.0000 0.0000 138.6728 0.0000 0.0000
# 5 0.0000 0.0000 0.0000 0.0000 138.6176 0.0000
# 6 0.0000 0.0000 0.0000 0.0000 0.0000 10.8081
#
#
#
# Elastic Compliance Matrix: (Units=1/GPa)
#
#
# Indices 1 2 3 4 5 6 
#
# 1 0.009581 -0.000745 -0.004904 0.000000 0.000000 0.000000
# 2 -0.000745 0.009581 -0.004904 0.000000 0.000000 0.000000
# 3 -0.004904 -0.004904 0.016091 0.000000 0.000000 0.000000
# 4 0.000000 0.000000 0.000000 0.007211 0.000000 0.000000
# 5 0.000000 0.000000 0.000000 0.000000 0.007214 0.000000
# 6 0.000000 0.000000 0.000000 0.000000 0.000000 0.092523
#
#
# Mechanical properties :
#
#
# Convention : Reuss Voigt Hill
#
# Bulk Modulus (GPa) = 70.69345 71.61614 71.15480
# Shear Modulus (GPa) = 29.75770 72.31597 51.03684
#
# Velocity S-wave (km/s) = 4.05628 6.32332 5.31214
# Velocity P-wave (km/s) = 7.81186 9.63898 8.77311
#
# Compressibility (1/GPa) = 0.01414558
#
# Stress axis : x y z
#
# Youngs Moduli (GPa) = 104.37213 104.37208 62.14793
#
# Poissons Ratio (x) = 0.07778 0.30479
# Poissons Ratio (y) = 0.07778 0.30478
# Poissons Ratio (z) = 0.51187 0.51186
#
# Static dielectric constant tensor:
#      x y z
#    x 3.245390 0.000000 0.000000 
#    y 0.000000 3.245330 0.000000 
#    z 0.000000 0.000000 3.295900 
# 
# 
# High freq. dielectric constant tensor:
#      x y z
#    x 1.689390 0.000000 0.000000 
#    y 0.000000 1.689390 0.000000 
#    z 0.000000 0.000000 1.706800 
# 
# From -- ./inp_files/5870.got.cif
#   From: 2010.03.12/outbox.cif.g09.slc.cpg/sg119_3_cif.got.tgz:5870.got - 2010.04.14 02:25:26.
