data_PCOD8311003
_publ_section_title
;
Structure prediction by ZEFSAII (Michael W. Deem and Ramdas Pophale) SiO2 
 PCOD8311003
Probable space group: I -4 M 2
;
_chemical_formula_sum "Si O2"
_cell_formula_units_Z 112
_cell_length_a 14.862241
_cell_length_b 14.862241
_cell_length_c 22.858340
_cell_angle_alpha 90.000000
_cell_angle_beta 90.000000
_cell_angle_gamma 90.000000
_cell_volume 5049.092033
_symmetry_space_group_name_H-M "I -4 M 2"
_symmetry_group_IT_number 119
_symmetry_cell_setting 'tetragonal'
loop_
_space_group_symop_operation_xyz
x,y,z
y,-x,-z
-x,-y,z
-y,x,-z
y,x,-z
-y,-x,-z
-x,y,z
x,-y,z
1/2+x,1/2+y,1/2+z
1/2+y,1/2-x,1/2-z
1/2-x,1/2-y,1/2+z
1/2-y,1/2+x,1/2-z
1/2+y,1/2+x,1/2-z
1/2-y,1/2-x,1/2-z
1/2-x,1/2+y,1/2+z
1/2+x,1/2-y,1/2+z
loop_
_atom_site_type_symbol
_atom_site_label
_atom_site_fract_x
_atom_site_fract_y
_atom_site_fract_z
Si Si1 0.207922 0.827025 0.173266
Si Si2 0.342078 0.099152 0.809296
Si Si3 0.602983 0.604677 0.566912
Si Si4 0.236104 0.396220 0.849992
Si Si5 0.597528 0.898368 0.563981
Si Si6 0.897181 0.244825 0.513670
Si Si7 0.900717 0.101206 0.275736
O O1 0.176457 0.731236 0.197125
O O2 0.171017 0.839428 0.107415
O O3 0.317997 0.831205 0.175291
O O4 0.159607 0.896869 0.216629
O O5 0.400758 0.099243 0.750000
O O6 0.399903 0.120795 0.867113
O O7 0.298390 0.000000 0.815577
O O8 0.627005 0.627005 0.500000
O O9 0.500000 0.632249 0.580796
O O10 0.616566 0.500000 0.579829
O O11 0.212054 0.500000 0.829615
O O12 0.228939 0.389661 0.919054
O O13 0.336975 0.367399 0.829470
O O14 0.500000 0.850874 0.552562
O O15 0.675110 0.851745 0.525081
O O16 0.590564 0.000000 0.541813
O O17 0.847119 0.152882 0.500000
O O18 0.000000 0.228687 0.494921
O O19 0.000000 0.152080 0.273126
O O20 0.926536 0.000000 0.287195
#
# Coordination Sequence:
#
# PCOD8311003 Si02
#       7
#    16  16  16  16  16  16  16
#     4  12  22  35  58  87 119 157 204 255 308 372
#     4  11  22  34  53  84 122 162 203 249 307 377
#     4   9  19  37  61  91 127 163 203 259 326 390
#     4  10  23  41  59  83 119 162 203 248 306 372
#     4   9  19  37  59  81 110 154 204 251 300 359
#     4  10  21  38  60  86 117 154 202 258 313 374
#     4  10  21  39  64  90 116 149 194 253 317 376
#
# _framework density 22.182205
#
# number of rings (size 3 to 8) (size 9 to 14) (size 15 to 20)
#    0.000    1.857    0.000    4.714    0.000    4.286 
#    0.000    6.429    0.000    4.286    0.000    6.000 
#    0.000    1.429    0.000    0.000    0.000    0.000 
#
# Total GULP energy -693787.478907 kJ/mol
# GULP energy per Si atom -12389.062123 kJ/mol
# Density = 2.213172 g / cm^3
# Si number density = 22.182205 Si / 1000 Ang^3
#
#
#
# Elastic Constant Matrix: (Units=GPa)
#
#
# Indices 1 2 3 4 5 6 
#
# 1 92.2943 33.6269 45.4913 0.0000 0.0000 0.0000
# 2 33.6269 92.2967 45.4907 0.0000 0.0000 0.0000
# 3 45.4913 45.4907 140.4753 0.0000 0.0000 0.0000
# 4 0.0000 0.0000 0.0000 11.6531 0.0000 0.0000
# 5 0.0000 0.0000 0.0000 0.0000 11.6499 0.0000
# 6 0.0000 0.0000 0.0000 0.0000 0.0000 22.9059
#
#
#
# Elastic Compliance Matrix: (Units=1/GPa)
#
#
# Indices 1 2 3 4 5 6 
#
# 1 0.013706 -0.003339 -0.003357 0.000000 0.000000 0.000000
# 2 -0.003339 0.013706 -0.003357 0.000000 0.000000 0.000000
# 3 -0.003357 -0.003357 0.009293 0.000000 0.000000 0.000000
# 4 0.000000 0.000000 0.000000 0.085814 0.000000 0.000000
# 5 0.000000 0.000000 0.000000 0.000000 0.085838 0.000000
# 6 0.000000 0.000000 0.000000 0.000000 0.000000 0.043657
#
#
# Mechanical properties :
#
#
# Convention : Reuss Voigt Hill
#
# Bulk Modulus (GPa) = 60.24716 63.80935 62.02826
# Shear Modulus (GPa) = 18.00806 22.60560 20.30683
#
# Velocity S-wave (km/s) = 2.85234 3.19578 3.02893
# Velocity P-wave (km/s) = 6.16984 6.51504 6.34479
#
# Compressibility (1/GPa) = 0.01659829
#
# Stress axis : x y z
#
# Youngs Moduli (GPa) = 72.95942 72.96214 107.60690
#
# Poissons Ratio (x) = 0.24361 0.36128
# Poissons Ratio (y) = 0.24360 0.36125
# Poissons Ratio (z) = 0.24495 0.24494
#
# Static dielectric constant tensor:
#      x y z
#    x 4.165400 0.000000 0.000000 
#    y 0.000000 4.165400 0.000000 
#    z 0.000000 0.000000 4.076380 
# 
# 
# High freq. dielectric constant tensor:
#      x y z
#    x 1.862690 0.000000 0.000000 
#    y 0.000000 1.862690 0.000000 
#    z 0.000000 0.000000 1.878950 
# 
# From -- ./inp_files/8838.got.cif
#   From: 2010.03.12/outbox.cif.g09.slc.cpg/sg119_5_cif.got.tgz:8838.got - 2010.04.14 02:25:26.
