data_PCOD8311557
_publ_section_title
;
Structure prediction by ZEFSAII (Michael W. Deem and Ramdas Pophale) SiO2 
 PCOD8311557
Probable space group: I -4 2 M
;
_chemical_formula_sum "Si O2"
_cell_formula_units_Z 112
_cell_length_a 13.847094
_cell_length_b 13.847094
_cell_length_c 31.266374
_cell_angle_alpha 90.000000
_cell_angle_beta 90.000000
_cell_angle_gamma 90.000000
_cell_volume 5995.077466
_symmetry_space_group_name_H-M "I -4 2 M"
_symmetry_group_IT_number 121
_symmetry_cell_setting 'tetragonal'
loop_
_space_group_symop_operation_xyz
x,y,z
y,-x,-z
-x,-y,z
-y,x,-z
x,-y,-z
-x,y,-z
-y,-x,z
y,x,z
1/2+x,1/2+y,1/2+z
1/2+y,1/2-x,1/2-z
1/2-x,1/2-y,1/2+z
1/2-y,1/2+x,1/2-z
1/2+x,1/2-y,1/2-z
1/2-x,1/2+y,1/2-z
1/2-y,1/2-x,1/2+z
1/2+y,1/2+x,1/2+z
loop_
_atom_site_type_symbol
_atom_site_label
_atom_site_fract_x
_atom_site_fract_y
_atom_site_fract_z
Si Si1 0.341797 0.500326 0.719366
Si Si2 0.044612 0.198130 0.123814
Si Si3 0.887869 0.483900 0.134350
Si Si4 0.497881 0.853241 0.767548
Si Si5 0.885722 0.609652 0.998864
Si Si6 0.308207 0.843322 0.412263
Si Si7 0.136952 0.709230 0.089936
O O1 0.400631 0.599370 0.723690
O O2 0.408950 0.408950 0.729065
O O3 0.297294 0.493912 0.672125
O O4 0.257956 0.500196 0.754436
O O5 0.093220 0.093220 0.113822
O O6 0.123642 0.281318 0.118790
O O7 0.955680 0.219155 0.091945
O O8 0.861519 0.513782 0.181930
O O9 0.818631 0.546204 0.102995
O O10 0.868686 0.371631 0.126510
O O11 0.000000 0.500000 0.122879
O O12 0.405384 0.903633 0.746278
O O13 0.851193 0.662551 0.956389
O O14 0.846570 0.500000 0.000000
O O15 0.842986 0.667801 0.038952
O O16 0.000000 0.610126 0.000000
O O17 0.198636 0.801365 0.408786
O O18 0.232388 0.767613 0.100565
#
# Coordination Sequence:
#
# PCOD8311557 Si02
#       7
#    16  16  16  16  16  16  16
#     4  10  22  40  60  83 116 161 204 240 289 356
#     4  10  20  36  58  86 123 159 196 240 291 354
#     4  12  21  40  63  85 122 154 197 246 298 349
#     4  11  22  37  59  87 120 153 192 250 301 343
#     4  11  20  38  62  87 118 155 191 242 293 344
#     4  11  22  37  62  90 116 153 198 240 291 352
#     4  12  24  37  61  92 119 155 199 243 292 350
#
# _framework density 18.681994
#
# number of rings (size 3 to 8) (size 9 to 14) (size 15 to 20)
#    0.000    1.000    5.714    2.571    0.000    2.571 
#    0.000    0.000    0.000    0.429    0.000    1.000 
#    0.000    0.000    0.000    0.000    0.000    0.000 
#
# Total GULP energy -694565.317542 kJ/mol
# GULP energy per Si atom -12402.952099 kJ/mol
# Density = 1.863947 g / cm^3
# Si number density = 18.681994 Si / 1000 Ang^3
#
#
#
# Elastic Constant Matrix: (Units=GPa)
#
#
# Indices 1 2 3 4 5 6 
#
# 1 96.7724 49.8675 22.2907 0.0000 0.0000 0.0000
# 2 49.8675 96.7709 22.2896 0.0000 0.0000 0.0000
# 3 22.2907 22.2896 69.9333 0.0000 0.0000 0.0000
# 4 0.0000 0.0000 0.0000 4.2133 0.0000 0.0000
# 5 0.0000 0.0000 0.0000 0.0000 4.2082 0.0000
# 6 0.0000 0.0000 0.0000 0.0000 0.0000 21.0268
#
#
#
# Elastic Compliance Matrix: (Units=1/GPa)
#
#
# Indices 1 2 3 4 5 6 
#
# 1 0.014436 -0.006884 -0.002407 0.000000 0.000000 0.000000
# 2 -0.006884 0.014436 -0.002407 0.000000 0.000000 0.000000
# 3 -0.002407 -0.002407 0.015834 0.000000 0.000000 0.000000
# 4 0.000000 0.000000 0.000000 0.237343 0.000000 0.000000
# 5 0.000000 0.000000 0.000000 0.000000 0.237631 0.000000
# 6 0.000000 0.000000 0.000000 0.000000 0.000000 0.047558
#
#
# Mechanical properties :
#
#
# Convention : Reuss Voigt Hill
#
# Bulk Modulus (GPa) = 46.92923 50.26358 48.59641
# Shear Modulus (GPa) = 8.36490 17.15825 12.76158
#
# Velocity S-wave (km/s) = 2.11831 3.03386 2.61644
# Velocity P-wave (km/s) = 5.58190 6.26384 5.93267
#
# Compressibility (1/GPa) = 0.02130868
#
# Stress axis : x y z
#
# Youngs Moduli (GPa) = 69.27341 69.27282 63.15676
#
# Poissons Ratio (x) = 0.47691 0.15202
# Poissons Ratio (y) = 0.47691 0.15200
# Poissons Ratio (z) = 0.16674 0.16672
#
# Static dielectric constant tensor:
#      x y z
#    x 3.483790 0.000000 0.000000 
#    y 0.000000 3.483790 0.000000 
#    z 0.000000 0.000000 3.481010 
# 
# 
# High freq. dielectric constant tensor:
#      x y z
#    x 1.718460 0.000000 0.000000 
#    y 0.000000 1.718460 0.000000 
#    z 0.000000 0.000000 1.729410 
# 
# From -- ./inp_files/7762.got.cif
#   From: 2010.03.12/outbox.cif.g09.slc.cpg/sg121_4_cif.got.tgz:7762.got - 2010.04.06 16:06:48.
