data_PCOD8311525
_publ_section_title
;
Structure prediction by ZEFSAII (Michael W. Deem and Ramdas Pophale) SiO2 
 PCOD8311525
Probable space group: I -4 2 M
;
_chemical_formula_sum "Si O2"
_cell_formula_units_Z 120
_cell_length_a 17.022785
_cell_length_b 17.022785
_cell_length_c 22.634931
_cell_angle_alpha 90.000000
_cell_angle_beta 90.000000
_cell_angle_gamma 90.000000
_cell_volume 6559.041865
_symmetry_space_group_name_H-M "I -4 2 M"
_symmetry_group_IT_number 121
_symmetry_cell_setting 'tetragonal'
loop_
_space_group_symop_operation_xyz
x,y,z
y,-x,-z
-x,-y,z
-y,x,-z
x,-y,-z
-x,y,-z
-y,-x,z
y,x,z
1/2+x,1/2+y,1/2+z
1/2+y,1/2-x,1/2-z
1/2-x,1/2-y,1/2+z
1/2-y,1/2+x,1/2-z
1/2+x,1/2-y,1/2-z
1/2-x,1/2+y,1/2-z
1/2-y,1/2-x,1/2+z
1/2+y,1/2+x,1/2+z
loop_
_atom_site_type_symbol
_atom_site_label
_atom_site_fract_x
_atom_site_fract_y
_atom_site_fract_z
Si Si1 0.000000 0.124184 0.000000
Si Si2 0.624420 0.502232 0.275248
Si Si3 0.085775 0.615511 0.517302
Si Si4 0.532082 0.875539 0.593656
Si Si5 0.549463 0.279289 0.612768
Si Si6 0.824529 0.701873 0.391780
Si Si7 0.098635 0.561720 0.278711
Si Si8 0.386057 0.255451 0.772746
O O1 0.960932 0.176883 0.050696
O O2 0.930805 0.069196 0.973237
O O3 0.566852 0.433149 0.296386
O O4 0.572776 0.572776 0.244704
O O5 0.662075 0.538367 0.333607
O O6 0.689704 0.464360 0.231521
O O7 0.132373 0.597902 0.456868
O O8 0.082458 0.542741 0.563246
O O9 0.126114 0.687798 0.549343
O O10 0.000000 0.641960 0.500000
O O11 0.515139 0.788399 0.616685
O O12 0.559562 0.923542 0.651489
O O13 0.634846 0.240408 0.618626
O O14 0.784033 0.784033 0.403436
O O15 0.882660 0.713655 0.336406
O O16 0.106517 0.472238 0.254405
O O17 0.181557 0.607312 0.271825
O O18 0.307042 0.307042 0.759640
#
# Coordination Sequence:
#
# PCOD8311525 Si02
#       8
#     8  16  16  16  16  16  16  16
#     4  11  22  32  48  78 113 154 200 238 273 326
#     4  10  20  35  55  79 110 150 194 238 284 340
#     4  10  21  34  57  77 109 144 186 230 281 332
#     4  10  20  34  51  84 111 143 184 228 273 342
#     4  11  19  34  53  78 113 149 189 230 280 339
#     4  10  21  37  57  79 105 144 190 234 289 348
#     4  11  23  35  59  87 120 152 196 241 289 351
#     4  10  22  40  57  82 117 152 194 239 290 348
#
# _framework density 18.295356000000002
#
# number of rings (size 3 to 8) (size 9 to 14) (size 15 to 20)
#    0.000    1.667    1.333    5.600    5.600    1.067 
#    0.000    1.333    0.000    0.800    0.000    0.000 
#    0.000    0.000    0.000    0.000    0.000    0.000 
#
# Total GULP energy -743696.188374 kJ/mol
# GULP energy per Si atom -12394.936473 kJ/mol
# Density = 1.825371 g / cm^3
# Si number density = 18.295356 Si / 1000 Ang^3
#
#
#
# Elastic Constant Matrix: (Units=GPa)
#
#
# Indices 1 2 3 4 5 6 
#
# 1 72.4544 35.6820 39.6798 0.0000 0.0000 0.0000
# 2 35.6820 72.4547 39.6799 0.0000 0.0000 0.0000
# 3 39.6798 39.6799 128.9157 0.0000 0.0000 0.0000
# 4 0.0000 0.0000 0.0000 27.0703 0.0000 0.0000
# 5 0.0000 0.0000 0.0000 0.0000 27.0706 0.0000
# 6 0.0000 0.0000 0.0000 0.0000 0.0000 25.8583
#
#
#
# Elastic Compliance Matrix: (Units=1/GPa)
#
#
# Indices 1 2 3 4 5 6 
#
# 1 0.019570 -0.007624 -0.003677 0.000000 0.000000 0.000000
# 2 -0.007624 0.019570 -0.003677 0.000000 0.000000 0.000000
# 3 -0.003677 -0.003677 0.010021 0.000000 0.000000 0.000000
# 4 0.000000 0.000000 0.000000 0.036941 0.000000 0.000000
# 5 0.000000 0.000000 0.000000 0.000000 0.036940 0.000000
# 6 0.000000 0.000000 0.000000 0.000000 0.000000 0.038672
#
#
# Mechanical properties :
#
#
# Convention : Reuss Voigt Hill
#
# Bulk Modulus (GPa) = 52.07040 55.98979 54.03009
# Shear Modulus (GPa) = 25.24338 26.58540 25.91439
#
# Velocity S-wave (km/s) = 3.71855 3.81612 3.76765
# Velocity P-wave (km/s) = 6.85271 7.07720 6.96586
#
# Compressibility (1/GPa) = 0.01920477
#
# Stress axis : x y z
#
# Youngs Moduli (GPa) = 51.09822 51.09847 99.79522
#
# Poissons Ratio (x) = 0.38958 0.36694
# Poissons Ratio (y) = 0.38958 0.36694
# Poissons Ratio (z) = 0.18789 0.18789
#
# Static dielectric constant tensor:
#      x y z
#    x 3.468770 0.000000 0.000000 
#    y 0.000000 3.468770 0.000000 
#    z 0.000000 0.000000 3.466720 
# 
# 
# High freq. dielectric constant tensor:
#      x y z
#    x 1.704700 0.000000 0.000000 
#    y 0.000000 1.704700 0.000000 
#    z 0.000000 0.000000 1.701130 
# 
# From -- ./inp_files/6664.got.cif
#   From: 2010.03.12/outbox.cif.g09.slc.cpg/sg121_4_cif.got.tgz:6664.got - 2010.04.06 16:06:48.
