data_PCOD8311422
_publ_section_title
;
Structure prediction by ZEFSAII (Michael W. Deem and Ramdas Pophale) SiO2 
 PCOD8311422
Probable space group: I -4 2 M
;
_chemical_formula_sum "Si O2"
_cell_formula_units_Z 128
_cell_length_a 23.580768
_cell_length_b 23.580768
_cell_length_c 11.982405
_cell_angle_alpha 90.000000
_cell_angle_beta 90.000000
_cell_angle_gamma 90.000000
_cell_volume 6662.847688
_symmetry_space_group_name_H-M "I -4 2 M"
_symmetry_group_IT_number 121
_symmetry_cell_setting 'tetragonal'
loop_
_space_group_symop_operation_xyz
x,y,z
y,-x,-z
-x,-y,z
-y,x,-z
x,-y,-z
-x,y,-z
-y,-x,z
y,x,z
1/2+x,1/2+y,1/2+z
1/2+y,1/2-x,1/2-z
1/2-x,1/2-y,1/2+z
1/2-y,1/2+x,1/2-z
1/2+x,1/2-y,1/2-z
1/2-x,1/2+y,1/2-z
1/2-y,1/2-x,1/2+z
1/2+y,1/2+x,1/2+z
loop_
_atom_site_type_symbol
_atom_site_label
_atom_site_fract_x
_atom_site_fract_y
_atom_site_fract_z
Si Si1 0.247089 0.413464 0.171762
Si Si2 0.786521 0.462039 0.224770
Si Si3 0.295011 0.200410 0.766428
Si Si4 0.612184 0.194836 0.417968
Si Si5 0.550920 0.357895 0.732644
Si Si6 0.572361 0.338011 0.266977
Si Si7 0.881064 0.313142 0.545227
Si Si8 0.900797 0.811121 0.984118
O O1 0.214640 0.470634 0.211158
O O2 0.228150 0.363611 0.254932
O O3 0.314612 0.422472 0.177297
O O4 0.234537 0.398428 0.043857
O O5 0.813230 0.445595 0.345678
O O6 0.724523 0.431934 0.213443
O O7 0.824903 0.434409 0.126651
O O8 0.243253 0.243253 0.759678
O O9 0.338002 0.214640 0.666148
O O10 0.326511 0.207640 0.884678
O O11 0.629051 0.136046 0.479089
O O12 0.605620 0.243330 0.511428
O O13 0.582637 0.417364 0.735833
O O14 0.485668 0.371283 0.760760
O O15 0.554508 0.326838 0.612252
O O16 0.626215 0.373786 0.219254
O O17 0.575899 0.334308 0.399846
O O18 0.840249 0.840249 0.954833
#
# Coordination Sequence:
#
# PCOD8311422 Si02
#       8
#    16  16  16  16  16  16  16  16
#     4  10  20  34  51  73 106 142 172 205 250 309
#     4   9  19  35  53  74 103 137 172 207 250 312
#     4  10  20  32  48  76 112 144 176 214 260 312
#     4   9  18  31  49  74 103 132 167 206 256 309
#     4  10  19  29  44  67  93 128 176 223 261 295
#     4   9  18  32  47  64  91 131 176 217 259 305
#     4  10  20  33  52  76 102 130 168 210 256 303
#     4   9  16  28  45  65  93 128 161 201 257 315
#
# _framework density 19.211003999999999
#
# number of rings (size 3 to 8) (size 9 to 14) (size 15 to 20)
#    0.000    2.500    0.000    2.250    0.000    7.250 
#    0.000    1.875    0.000    2.250    0.000    0.000 
#    0.000  101.500    0.000    0.000    0.000    0.500 
#
# Total GULP energy -793369.660685 kJ/mol
# GULP energy per Si atom -12396.400948 kJ/mol
# Density = 1.916728 g / cm^3
# Si number density = 19.211004 Si / 1000 Ang^3
#
#
#
# Elastic Constant Matrix: (Units=GPa)
#
#
# Indices 1 2 3 4 5 6 
#
# 1 71.9499 27.0311 13.3853 0.0000 0.0000 0.0000
# 2 27.0311 71.9507 13.3857 0.0000 0.0000 0.0000
# 3 13.3853 13.3857 59.4977 0.0000 0.0000 0.0000
# 4 0.0000 0.0000 0.0000 19.5665 0.0000 0.0000
# 5 0.0000 0.0000 0.0000 0.0000 19.5674 0.0000
# 6 0.0000 0.0000 0.0000 0.0000 0.0000 25.2535
#
#
#
# Elastic Compliance Matrix: (Units=1/GPa)
#
#
# Indices 1 2 3 4 5 6 
#
# 1 0.016510 -0.005752 -0.002420 0.000000 0.000000 0.000000
# 2 -0.005752 0.016510 -0.002420 0.000000 0.000000 0.000000
# 3 -0.002420 -0.002420 0.017896 0.000000 0.000000 0.000000
# 4 0.000000 0.000000 0.000000 0.051108 0.000000 0.000000
# 5 0.000000 0.000000 0.000000 0.000000 0.051106 0.000000
# 6 0.000000 0.000000 0.000000 0.000000 0.000000 0.039598
#
#
# Mechanical properties :
#
#
# Convention : Reuss Voigt Hill
#
# Bulk Modulus (GPa) = 33.63535 34.55584 34.09560
# Shear Modulus (GPa) = 22.33904 22.85054 22.59479
#
# Velocity S-wave (km/s) = 3.41372 3.45258 3.43321
# Velocity P-wave (km/s) = 5.75190 5.82412 5.78812
#
# Compressibility (1/GPa) = 0.02973062
#
# Stress axis : x y z
#
# Youngs Moduli (GPa) = 60.56965 60.57014 55.87740
#
# Poissons Ratio (x) = 0.34842 0.13523
# Poissons Ratio (y) = 0.34842 0.13524
# Poissons Ratio (z) = 0.14658 0.14659
#
# Static dielectric constant tensor:
#      x y z
#    x 3.454640 0.000000 0.000000 
#    y 0.000000 3.454640 0.000000 
#    z 0.000000 0.000000 3.544130 
# 
# 
# High freq. dielectric constant tensor:
#      x y z
#    x 1.728300 0.000000 0.000000 
#    y 0.000000 1.728300 0.000000 
#    z 0.000000 0.000000 1.747770 
# 
# From -- ./inp_files/3538.got.cif
#   From: 2010.03.12/outbox.cif.g09.slc.cpg/sg121_2_cif.got.tgz:3538.got - 2010.04.06 16:06:48.
