data_PCOD8311608
_publ_section_title
;
Structure prediction by ZEFSAII (Michael W. Deem and Ramdas Pophale) SiO2 
 PCOD8311608
Probable space group: I -4 2 M
;
_chemical_formula_sum "Si O2"
_cell_formula_units_Z 80
_cell_length_a 12.293660
_cell_length_b 12.293660
_cell_length_c 26.281798
_cell_angle_alpha 90.000000
_cell_angle_beta 90.000000
_cell_angle_gamma 90.000000
_cell_volume 3972.075261
_symmetry_space_group_name_H-M "I -4 2 M"
_symmetry_group_IT_number 121
_symmetry_cell_setting 'tetragonal'
loop_
_space_group_symop_operation_xyz
x,y,z
y,-x,-z
-x,-y,z
-y,x,-z
x,-y,-z
-x,y,-z
-y,-x,z
y,x,z
1/2+x,1/2+y,1/2+z
1/2+y,1/2-x,1/2-z
1/2-x,1/2-y,1/2+z
1/2-y,1/2+x,1/2-z
1/2+x,1/2-y,1/2-z
1/2-x,1/2+y,1/2-z
1/2-y,1/2-x,1/2+z
1/2+y,1/2+x,1/2+z
loop_
_atom_site_type_symbol
_atom_site_label
_atom_site_fract_x
_atom_site_fract_y
_atom_site_fract_z
Si Si1 0.786526 0.394115 0.866769
Si Si2 0.395905 0.215346 0.807358
Si Si3 0.829926 0.001868 0.895086
Si Si4 0.293592 0.018935 0.198149
Si Si5 0.388932 0.038549 0.057874
O O1 0.678604 0.321397 0.861883
O O2 0.758570 0.519160 0.852972
O O3 0.878884 0.355731 0.827068
O O4 0.833896 0.382046 0.925101
O O5 0.288136 0.288136 0.816049
O O6 0.454338 0.246047 0.754569
O O7 0.368635 0.087817 0.804114
O O8 0.909354 0.909354 0.914879
O O9 0.815791 0.997043 0.834249
O O10 0.715064 0.976392 0.920604
O O11 0.880481 0.119520 0.910512
O O12 0.500000 0.000000 0.085205
O O13 0.394844 0.000000 0.000000
#
# Coordination Sequence:
#
# PCOD8311608 Si02
#       5
#    16  16  16  16  16
#     4  11  23  40  62  91 128 165 203 262 323 374
#     4  12  24  37  60  90 124 174 222 260 307 368
#     4  10  21  37  59  88 123 155 190 254 324 372
#     4  11  21  37  57  84 123 169 218 259 298 357
#     4  10  21  39  63  88 117 155 203 253 306 376
#
# _framework density 20.140605999999998
#
# number of rings (size 3 to 8) (size 9 to 14) (size 15 to 20)
#    0.000    1.200    2.000    7.200    0.000    2.800 
#    0.000    1.000    0.000    2.400    0.000    0.000 
#    0.000    0.000    0.000    0.000    0.000    0.000 
#
# Total GULP energy -495556.622966 kJ/mol
# GULP energy per Si atom -12388.915574 kJ/mol
# Density = 2.009476 g / cm^3
# Si number density = 20.140606 Si / 1000 Ang^3
#
#
#
# Elastic Constant Matrix: (Units=GPa)
#
#
# Indices 1 2 3 4 5 6 
#
# 1 112.6132 45.2427 29.0527 0.0000 0.0000 0.0000
# 2 45.2427 112.6080 29.0519 0.0000 0.0000 0.0000
# 3 29.0527 29.0519 90.1391 0.0000 0.0000 0.0000
# 4 0.0000 0.0000 0.0000 20.0245 0.0000 0.0000
# 5 0.0000 0.0000 0.0000 0.0000 20.0247 0.0000
# 6 0.0000 0.0000 0.0000 0.0000 0.0000 28.7489
#
#
#
# Elastic Compliance Matrix: (Units=1/GPa)
#
#
# Indices 1 2 3 4 5 6 
#
# 1 0.011016 -0.003828 -0.002317 0.000000 0.000000 0.000000
# 2 -0.003828 0.011016 -0.002317 0.000000 0.000000 0.000000
# 3 -0.002317 -0.002317 0.012587 0.000000 0.000000 0.000000
# 4 0.000000 0.000000 0.000000 0.049939 0.000000 0.000000
# 5 0.000000 0.000000 0.000000 0.000000 0.049938 0.000000
# 6 0.000000 0.000000 0.000000 0.000000 0.000000 0.034784
#
#
# Mechanical properties :
#
#
# Convention : Reuss Voigt Hill
#
# Bulk Modulus (GPa) = 56.50933 58.00609 57.25771
# Shear Modulus (GPa) = 26.02793 27.89383 26.96088
#
# Velocity S-wave (km/s) = 3.59877 3.72554 3.66270
# Velocity P-wave (km/s) = 6.73695 6.88253 6.81013
#
# Compressibility (1/GPa) = 0.01769619
#
# Stress axis : x y z
#
# Youngs Moduli (GPa) = 90.78081 90.77675 79.44515
#
# Poissons Ratio (x) = 0.34750 0.18405
# Poissons Ratio (y) = 0.34751 0.18405
# Poissons Ratio (z) = 0.21031 0.21030
#
# Static dielectric constant tensor:
#      x y z
#    x 3.759460 0.000000 0.000000 
#    y 0.000000 3.759460 0.000000 
#    z 0.000000 0.000000 3.684690 
# 
# 
# High freq. dielectric constant tensor:
#      x y z
#    x 1.787760 0.000000 0.000000 
#    y 0.000000 1.787760 0.000000 
#    z 0.000000 0.000000 1.766960 
# 
# From -- ./inp_files/8030.got.cif
#   From: 2010.03.12/outbox.cif.g09.slc.cpg/sg121_5_cif.got.tgz:8030.got - 2010.04.06 16:06:48.
