data_PCOD8311115
_publ_section_title
;
Structure prediction by ZEFSAII (Michael W. Deem and Ramdas Pophale) SiO2 
 PCOD8311115
Probable space group: I -4 C 2
;
_chemical_formula_sum "Si O2"
_cell_formula_units_Z 88
_cell_length_a 13.714124
_cell_length_b 13.714124
_cell_length_c 25.022738
_cell_angle_alpha 90.000000
_cell_angle_beta 90.000000
_cell_angle_gamma 90.000000
_cell_volume 4706.206426
_symmetry_space_group_name_H-M "I -4 C 2"
_symmetry_group_IT_number 120
_symmetry_cell_setting 'tetragonal'
loop_
_space_group_symop_operation_xyz
x,y,z
y,-x,-z
-x,-y,z
-y,x,-z
y,x,1/2-z
-y,-x,1/2-z
-x,y,1/2+z
x,-y,1/2+z
1/2+x,1/2+y,1/2+z
1/2+y,1/2-x,1/2-z
1/2-x,1/2-y,1/2+z
1/2-y,1/2+x,1/2-z
1/2+y,1/2+x,-z
1/2-y,1/2-x,-z
1/2-x,1/2+y,z
1/2+x,1/2-y,z
loop_
_atom_site_type_symbol
_atom_site_label
_atom_site_fract_x
_atom_site_fract_y
_atom_site_fract_z
Si Si1 0.928983 0.180945 0.681416
Si Si2 0.500000 0.500000 0.750000
Si Si3 0.000000 0.000000 0.500000
Si Si4 0.766631 0.876725 0.096316
Si Si5 0.763819 0.263819 0.500000
Si Si6 0.241390 0.241390 0.250000
Si Si7 0.677453 0.581851 0.069719
Si Si8 0.375683 0.745941 0.651869
O O1 0.860953 0.146167 0.632744
O O2 0.864908 0.244836 0.722259
O O3 0.008096 0.255265 0.657105
O O4 0.990489 0.094191 0.710886
O O5 0.048670 0.918022 0.462869
O O6 0.770466 0.831420 0.037319
O O7 0.666154 0.840808 0.122437
O O8 0.761237 0.992028 0.091863
O O9 0.757765 0.361164 0.534804
O O10 0.256877 0.329414 0.289950
O O11 0.646734 0.647632 0.119471
#
# Coordination Sequence:
#
# PCOD8311115 Si02
#       8
#    16   4   4  16   8   8  16  16
#     4  10  19  34  56  84 115 143 196 244 300 354
#     4  10  18  30  56  88 112 138 174 264 308 346
#     4  12  20  34  68  94 116 156 202 264 304 354
#     4  10  21  36  55  86 117 151 198 244 297 363
#     4  10  22  36  56  82 124 158 186 254 308 356
#     4   9  21  37  54  83 115 153 192 240 296 360
#     4  11  21  36  59  92 120 151 200 251 307 361
#     4  10  21  35  59  84 117 159 188 253 298 358
#
# _framework density 18.698713999999999
#
# number of rings (size 3 to 8) (size 9 to 14) (size 15 to 20)
#    0.000    1.818    1.818    2.727    0.000    2.909 
#    0.000    0.000    0.000   25.091    0.000    0.000 
#    0.000    0.000    0.000    0.000    0.000    0.000 
#
# Total GULP energy -545333.881249 kJ/mol
# GULP energy per Si atom -12393.951847 kJ/mol
# Density = 1.865615 g / cm^3
# Si number density = 18.698714 Si / 1000 Ang^3
#
#
#
# Elastic Constant Matrix: (Units=GPa)
#
#
# Indices 1 2 3 4 5 6 
#
# 1 96.0522 67.2142 44.1374 0.0000 0.0000 0.0000
# 2 67.2142 96.0522 44.1374 0.0000 0.0000 0.0000
# 3 44.1374 44.1374 109.8721 0.0000 0.0000 0.0000
# 4 0.0000 0.0000 0.0000 29.3734 0.0000 0.0000
# 5 0.0000 0.0000 0.0000 0.0000 29.3734 0.0000
# 6 0.0000 0.0000 0.0000 0.0000 0.0000 21.3868
#
#
#
# Elastic Compliance Matrix: (Units=1/GPa)
#
#
# Indices 1 2 3 4 5 6 
#
# 1 0.021250 -0.013426 -0.003143 0.000000 0.000000 0.000000
# 2 -0.013426 0.021250 -0.003143 0.000000 0.000000 0.000000
# 3 -0.003143 -0.003143 0.011627 0.000000 0.000000 0.000000
# 4 0.000000 0.000000 0.000000 0.034044 0.000000 0.000000
# 5 0.000000 0.000000 0.000000 0.000000 0.034044 0.000000
# 6 0.000000 0.000000 0.000000 0.000000 0.000000 0.046758
#
#
# Mechanical properties :
#
#
# Convention : Reuss Voigt Hill
#
# Bulk Modulus (GPa) = 68.01384 68.10607 68.05996
# Shear Modulus (GPa) = 23.44115 25.79257 24.61686
#
# Velocity S-wave (km/s) = 3.54450 3.71803 3.63230
# Velocity P-wave (km/s) = 7.29409 7.41172 7.35314
#
# Compressibility (1/GPa) = 0.01470289
#
# Stress axis : x y z
#
# Youngs Moduli (GPa) = 47.05780 47.05780 86.00787
#
# Poissons Ratio (x) = 0.63180 0.27034
# Poissons Ratio (y) = 0.63180 0.27034
# Poissons Ratio (z) = 0.14791 0.14791
#
# Static dielectric constant tensor:
#      x y z
#    x 3.426520 0.000000 0.000000 
#    y 0.000000 3.426520 0.000000 
#    z 0.000000 0.000000 3.815580 
# 
# 
# High freq. dielectric constant tensor:
#      x y z
#    x 1.713950 0.000000 0.000000 
#    y 0.000000 1.713950 0.000000 
#    z 0.000000 0.000000 1.752570 
# 
# From -- ./inp_files/5843.got.cif
#   From: 2010.03.12/outbox.cif.g09.slc.cpg/sg120_3_cif.got.tgz:5843.got - 2010.04.06 16:00:44.
