data_PCOD8311933
_publ_section_title
;
Structure prediction by ZEFSAII (Michael W. Deem and Ramdas Pophale) SiO2 
 PCOD8311933
Probable space group: I -4 2 D
;
_chemical_formula_sum "Si O2"
_cell_formula_units_Z 52
_cell_length_a 18.304692
_cell_length_b 18.304692
_cell_length_c 7.430197
_cell_angle_alpha 90.000000
_cell_angle_beta 90.000000
_cell_angle_gamma 90.000000
_cell_volume 2489.574804
_symmetry_space_group_name_H-M "I -4 2 D"
_symmetry_group_IT_number 122
_symmetry_cell_setting 'tetragonal'
loop_
_space_group_symop_operation_xyz
x,y,z
y,-x,-z
-x,-y,z
-y,x,-z
x,1/2-y,1/4-z
-x,1/2+y,1/4-z
-y,1/2-x,1/4+z
y,1/2+x,1/4+z
1/2+x,1/2+y,1/2+z
1/2+y,1/2-x,1/2-z
1/2-x,1/2-y,1/2+z
1/2-y,1/2+x,1/2-z
1/2+x,-y,3/4-z
1/2-x,y,3/4-z
1/2-y,-x,3/4+z
1/2+y,x,3/4+z
loop_
_atom_site_type_symbol
_atom_site_label
_atom_site_fract_x
_atom_site_fract_y
_atom_site_fract_z
Si Si1 0.500000 0.000000 0.750000
Si Si2 0.196750 0.599510 0.215338
Si Si3 0.250000 0.133724 0.375000
Si Si4 0.318771 0.250000 0.125000
Si Si5 0.053462 0.646315 0.375434
O O1 0.563127 0.976249 0.607727
O O2 0.250000 0.623630 0.375000
O O3 0.120090 0.640891 0.236451
O O4 0.193886 0.511476 0.210439
O O5 0.226157 0.626968 0.028663
O O6 0.269723 0.183722 0.201991
O O7 0.318033 0.081966 0.436566
#
# Coordination Sequence:
#
# PCOD8311933 Si02
#       5
#     4  16   8   8  16
#     4   8  20  44  68  94 132 184 226 272 336 410
#     4  11  23  44  66  97 136 177 226 283 342 410
#     4  12  23  40  68 104 131 176 222 286 346 407
#     4  12  25  42  62 102 139 166 222 286 344 409
#     4  10  22  42  69  96 132 181 226 276 343 406
#
# _framework density 20.887101000000001
#
# number of rings (size 3 to 8) (size 9 to 14) (size 15 to 20)
#    0.000    1.231    3.077    2.769    4.308    0.000 
#    0.000    0.000    0.000    0.000    0.000    0.000 
#    0.000    0.000    0.000    0.000    0.000    0.000 
#
# Total GULP energy -322204.714594 kJ/mol
# GULP energy per Si atom -12392.489023 kJ/mol
# Density = 2.083956 g / cm^3
# Si number density = 20.887101 Si / 1000 Ang^3
#
#
#
# Elastic Constant Matrix: (Units=GPa)
#
#
# Indices 1 2 3 4 5 6 
#
# 1 121.9822 64.2330 62.0687 0.0000 0.0000 0.0000
# 2 64.2330 121.9822 62.0687 0.0000 0.0000 0.0000
# 3 62.0687 62.0687 136.7401 0.0000 0.0000 0.0000
# 4 0.0000 0.0000 0.0000 39.8813 0.0000 0.0000
# 5 0.0000 0.0000 0.0000 0.0000 39.8813 0.0000
# 6 0.0000 0.0000 0.0000 0.0000 0.0000 34.4014
#
#
#
# Elastic Compliance Matrix: (Units=1/GPa)
#
#
# Indices 1 2 3 4 5 6 
#
# 1 0.012508 -0.004808 -0.003495 0.000000 0.000000 0.000000
# 2 -0.004808 0.012508 -0.003495 0.000000 0.000000 0.000000
# 3 -0.003495 -0.003495 0.010486 0.000000 0.000000 0.000000
# 4 0.000000 0.000000 0.000000 0.025074 0.000000 0.000000
# 5 0.000000 0.000000 0.000000 0.000000 0.025074 0.000000
# 6 0.000000 0.000000 0.000000 0.000000 0.000000 0.029069
#
#
# Mechanical properties :
#
#
# Convention : Reuss Voigt Hill
#
# Bulk Modulus (GPa) = 83.99389 84.16059 84.07724
# Shear Modulus (GPa) = 35.14058 35.65508 35.39783
#
# Velocity S-wave (km/s) = 4.10616 4.13611 4.12117
# Velocity P-wave (km/s) = 7.92347 7.94924 7.93637
#
# Compressibility (1/GPa) = 0.01190563
#
# Stress axis : x y z
#
# Youngs Moduli (GPa) = 79.94744 79.94744 95.36302
#
# Poissons Ratio (x) = 0.38439 0.33332
# Poissons Ratio (y) = 0.38439 0.33332
# Poissons Ratio (z) = 0.27944 0.27944
#
# Static dielectric constant tensor:
#      x y z
#    x 3.632930 0.000000 0.000000 
#    y 0.000000 3.632930 0.000000 
#    z 0.000000 0.000000 3.527430 
# 
# 
# High freq. dielectric constant tensor:
#      x y z
#    x 1.835630 0.000000 0.000000 
#    y 0.000000 1.835630 0.000000 
#    z 0.000000 0.000000 1.787890 
# 
# From -- ./inp_files/781.got.cif
#   From: 2010.03.12/outbox.cif.g09.slc.cpg/sg122_1_cif.got.tgz:781.got - 2010.04.06 16:17:16.
