data_PCOD8311558
_publ_section_title
;
Structure prediction by ZEFSAII (Michael W. Deem and Ramdas Pophale) SiO2 
 PCOD8311558
Probable space group: I -4 2 M
;
_chemical_formula_sum "Si O2"
_cell_formula_units_Z 98
_cell_length_a 15.238693
_cell_length_b 15.238693
_cell_length_c 20.786043
_cell_angle_alpha 90.000000
_cell_angle_beta 90.000000
_cell_angle_gamma 90.000000
_cell_volume 4826.888435
_symmetry_space_group_name_H-M "I -4 2 M"
_symmetry_group_IT_number 121
_symmetry_cell_setting 'tetragonal'
loop_
_space_group_symop_operation_xyz
x,y,z
y,-x,-z
-x,-y,z
-y,x,-z
x,-y,-z
-x,y,-z
-y,-x,z
y,x,z
1/2+x,1/2+y,1/2+z
1/2+y,1/2-x,1/2-z
1/2-x,1/2-y,1/2+z
1/2-y,1/2+x,1/2-z
1/2+x,1/2-y,1/2-z
1/2-x,1/2+y,1/2-z
1/2-y,1/2-x,1/2+z
1/2+y,1/2+x,1/2+z
loop_
_atom_site_type_symbol
_atom_site_label
_atom_site_fract_x
_atom_site_fract_y
_atom_site_fract_z
Si Si1 0.884225 0.884225 0.908075
Si Si2 0.573364 0.426637 0.737386
Si Si3 0.904123 0.692504 0.882294
Si Si4 0.561077 0.078084 0.346621
Si Si5 0.025309 0.311513 0.428647
Si Si6 0.000000 0.000000 0.000000
Si Si7 0.687941 0.455942 0.184674
Si Si8 0.684412 0.824740 0.250209
O O1 0.908967 0.908967 0.836142
O O2 0.905987 0.782511 0.921909
O O3 0.939861 0.939861 0.956832
O O4 0.500000 0.500000 0.742725
O O5 0.541098 0.339577 0.774262
O O6 0.844668 0.625476 0.923221
O O7 0.862008 0.713646 0.813098
O O8 0.002763 0.658315 0.871643
O O9 0.637613 0.111008 0.298439
O O10 0.500000 0.000000 0.315452
O O11 0.608784 0.037757 0.408527
O O12 0.011643 0.228179 0.382493
O O13 0.000000 0.281566 0.500000
O O14 0.606340 0.393661 0.168142
O O15 0.758406 0.407894 0.229106
O O16 0.747437 0.747437 0.221004
#
# Coordination Sequence:
#
# PCOD8311558 Si02
#       8
#     8   8  16  16  16   2  16  16
#     4  12  24  46  67  94 125 175 209 264 306 399
#     4  10  20  38  67  92 122 166 211 255 321 374
#     4  10  23  38  66  87 120 173 211 256 324 385
#     4  10  23  36  60  95 126 165 216 273 324 389
#     4  10  23  42  61  90 127 170 211 267 322 391
#     4  12  32  48  64  96 136 160 226 252 324 364
#     4   9  20  38  61  89 125 164 209 261 324 379
#     4  10  20  36  58  93 130 157 202 270 332 388
#
# _framework density 20.302935000000002
#
# number of rings (size 3 to 8) (size 9 to 14) (size 15 to 20)
#    0.000    1.959    1.224    0.980   10.286    4.245 
#    2.939    0.000    0.000    0.000    0.000    0.000 
#    0.000    0.000    0.000    0.000    0.000    0.000 
#
# Total GULP energy -607657.617151 kJ/mol
# GULP energy per Si atom -12401.175860 kJ/mol
# Density = 2.025672 g / cm^3
# Si number density = 20.302935 Si / 1000 Ang^3
#
#
#
# Elastic Constant Matrix: (Units=GPa)
#
#
# Indices 1 2 3 4 5 6 
#
# 1 108.0682 47.5988 52.4816 0.0000 0.0000 0.0000
# 2 47.5988 108.0675 52.4814 0.0000 0.0000 0.0000
# 3 52.4816 52.4814 119.0327 0.0000 0.0000 0.0000
# 4 0.0000 0.0000 0.0000 14.6637 0.0000 0.0000
# 5 0.0000 0.0000 0.0000 0.0000 14.6635 0.0000
# 6 0.0000 0.0000 0.0000 0.0000 0.0000 34.6638
#
#
#
# Elastic Compliance Matrix: (Units=1/GPa)
#
#
# Indices 1 2 3 4 5 6 
#
# 1 0.012840 -0.003698 -0.004031 0.000000 0.000000 0.000000
# 2 -0.003698 0.012840 -0.004031 0.000000 0.000000 0.000000
# 3 -0.004031 -0.004031 0.011955 0.000000 0.000000 0.000000
# 4 0.000000 0.000000 0.000000 0.068195 0.000000 0.000000
# 5 0.000000 0.000000 0.000000 0.000000 0.068196 0.000000
# 6 0.000000 0.000000 0.000000 0.000000 0.000000 0.028849
#
#
# Mechanical properties :
#
#
# Convention : Reuss Voigt Hill
#
# Bulk Modulus (GPa) = 70.83994 71.14357 70.99176
# Shear Modulus (GPa) = 21.63584 24.97200 23.30392
#
# Velocity S-wave (km/s) = 3.26797 3.51090 3.39161
# Velocity P-wave (km/s) = 7.01475 7.17999 7.09785
#
# Compressibility (1/GPa) = 0.01411633
#
# Stress axis : x y z
#
# Youngs Moduli (GPa) = 77.88456 77.88407 83.64549
#
# Poissons Ratio (x) = 0.28800 0.33714
# Poissons Ratio (y) = 0.28800 0.33714
# Poissons Ratio (z) = 0.31392 0.31392
#
# Static dielectric constant tensor:
#      x y z
#    x 3.900430 0.000000 0.000000 
#    y 0.000000 3.900440 0.000000 
#    z 0.000000 0.000000 3.290300 
# 
# 
# High freq. dielectric constant tensor:
#      x y z
#    x 1.804550 0.000000 0.000000 
#    y 0.000000 1.804550 0.000000 
#    z 0.000000 0.000000 1.758700 
# 
# From -- ./inp_files/7167.got.cif
#   From: 2010.03.12/outbox.cif.g09.slc.cpg/sg121_4_cif.got.tgz:7167.got - 2010.04.06 16:06:48.
