data_PCOD8311084
_publ_section_title
;
Structure prediction by ZEFSAII (Michael W. Deem and Ramdas Pophale) SiO2 
 PCOD8311084
Probable space group: I -4 M 2
;
_chemical_formula_sum "Si O2"
_cell_formula_units_Z 52
_cell_length_a 14.673456
_cell_length_b 14.673456
_cell_length_c 11.548472
_cell_angle_alpha 90.000000
_cell_angle_beta 90.000000
_cell_angle_gamma 90.000000
_cell_volume 2486.505098
_symmetry_space_group_name_H-M "I -4 M 2"
_symmetry_group_IT_number 119
_symmetry_cell_setting 'tetragonal'
loop_
_space_group_symop_operation_xyz
x,y,z
y,-x,-z
-x,-y,z
-y,x,-z
y,x,-z
-y,-x,-z
-x,y,z
x,-y,z
1/2+x,1/2+y,1/2+z
1/2+y,1/2-x,1/2-z
1/2-x,1/2-y,1/2+z
1/2-y,1/2+x,1/2-z
1/2+y,1/2+x,1/2-z
1/2-y,1/2-x,1/2-z
1/2-x,1/2+y,1/2+z
1/2+x,1/2-y,1/2+z
loop_
_atom_site_type_symbol
_atom_site_label
_atom_site_fract_x
_atom_site_fract_y
_atom_site_fract_z
Si Si1 0.000000 0.852182 0.699721
Si Si2 0.500000 0.500000 0.000000
Si Si3 0.283024 0.163558 0.572095
Si Si4 0.397024 0.691805 0.699225
Si Si5 0.500000 0.163227 0.075987
Si Si6 0.500000 0.000000 0.250000
O O1 0.912234 0.866206 0.781593
O O2 0.000000 0.751672 0.653586
O O3 0.000000 0.914130 0.585090
O O4 0.194260 0.194260 0.500000
O O5 0.337524 0.255969 0.603107
O O6 0.247823 0.109308 0.682559
O O7 0.344089 0.091853 0.500727
O O8 0.500000 0.692102 0.654568
O O9 0.500000 0.085005 0.167682
#
# Coordination Sequence:
#
# PCOD8311084 Si02
#       6
#     8   2  16  16   8   2
#     4  12  22  38  74 100 138 161 226 297 332 401
#     4  12  20  36  72 112 126 168 216 276 372 396
#     4  11  24  42  70  98 136 180 221 283 342 397
#     4  11  23  42  66 105 135 174 226 278 343 408
#     4  12  26  48  67  99 135 182 236 275 341 398
#     4  12  36  44  68  94 136 196 240 280 316 418
#
# _framework density 20.912886
#
# number of rings (size 3 to 8) (size 9 to 14) (size 15 to 20)
#    0.000    0.615    6.154    1.846    6.462    0.000 
#    2.769    0.000    0.000    0.000    0.000    0.000 
#    0.000    0.000    0.000    0.000    0.000    0.000 
#
# Total GULP energy -322432.531916 kJ/mol
# GULP energy per Si atom -12401.251228 kJ/mol
# Density = 2.086529 g / cm^3
# Si number density = 20.912886 Si / 1000 Ang^3
#
#
#
# Elastic Constant Matrix: (Units=GPa)
#
#
# Indices 1 2 3 4 5 6 
#
# 1 143.0975 59.7715 50.0968 0.0000 0.0000 0.0000
# 2 59.7715 143.0975 50.0968 0.0000 0.0000 0.0000
# 3 50.0968 50.0968 83.4641 0.0000 0.0000 0.0000
# 4 0.0000 0.0000 0.0000 27.5569 0.0000 0.0000
# 5 0.0000 0.0000 0.0000 0.0000 27.5569 0.0000
# 6 0.0000 0.0000 0.0000 0.0000 0.0000 29.2830
#
#
#
# Elastic Compliance Matrix: (Units=1/GPa)
#
#
# Indices 1 2 3 4 5 6 
#
# 1 0.009504 -0.002497 -0.004205 0.000000 0.000000 0.000000
# 2 -0.002497 0.009504 -0.004205 0.000000 0.000000 0.000000
# 3 -0.004205 -0.004205 0.017029 0.000000 0.000000 0.000000
# 4 0.000000 0.000000 0.000000 0.036289 0.000000 0.000000
# 5 0.000000 0.000000 0.000000 0.000000 0.036289 0.000000
# 6 0.000000 0.000000 0.000000 0.000000 0.000000 0.034150
#
#
# Mechanical properties :
#
#
# Convention : Reuss Voigt Hill
#
# Bulk Modulus (GPa) = 70.31993 76.62104 73.47049
# Shear Modulus (GPa) = 29.53000 30.85896 30.19448
#
# Velocity S-wave (km/s) = 3.76180 3.84552 3.80389
# Velocity P-wave (km/s) = 7.25027 7.51233 7.38246
#
# Compressibility (1/GPa) = 0.01422072
#
# Stress axis : x y z
#
# Youngs Moduli (GPa) = 105.22298 105.22298 58.72207
#
# Poissons Ratio (x) = 0.26279 0.24694
# Poissons Ratio (y) = 0.26279 0.24694
# Poissons Ratio (z) = 0.44249 0.44249
#
# Static dielectric constant tensor:
#      x y z
#    x 3.854130 0.000000 0.000000 
#    y 0.000000 3.854130 0.000000 
#    z 0.000000 0.000000 3.740030 
# 
# 
# High freq. dielectric constant tensor:
#      x y z
#    x 1.827380 0.000000 0.000000 
#    y 0.000000 1.827380 0.000000 
#    z 0.000000 0.000000 1.814840 
# 
# From -- ./inp_files/3579.got.cif
#   From: 2010.03.12/outbox.cif.g09.slc.cpg/sg119_2_cif.got.tgz:3579.got - 2010.04.14 02:25:26.
