data_PCOD8311264
_publ_section_title
;
Structure prediction by ZEFSAII (Michael W. Deem and Ramdas Pophale) SiO2 
 PCOD8311264
Probable space group: I -4 C 2
;
_chemical_formula_sum "Si O2"
_cell_formula_units_Z 44
_cell_length_a 14.807971
_cell_length_b 14.807971
_cell_length_c 9.930090
_cell_angle_alpha 90.000000
_cell_angle_beta 90.000000
_cell_angle_gamma 90.000000
_cell_volume 2177.430466
_symmetry_space_group_name_H-M "I -4 C 2"
_symmetry_group_IT_number 120
_symmetry_cell_setting 'tetragonal'
loop_
_space_group_symop_operation_xyz
x,y,z
y,-x,-z
-x,-y,z
-y,x,-z
y,x,1/2-z
-y,-x,1/2-z
-x,y,1/2+z
x,-y,1/2+z
1/2+x,1/2+y,1/2+z
1/2+y,1/2-x,1/2-z
1/2-x,1/2-y,1/2+z
1/2-y,1/2+x,1/2-z
1/2+y,1/2+x,-z
1/2-y,1/2-x,-z
1/2-x,1/2+y,z
1/2+x,1/2-y,z
loop_
_atom_site_type_symbol
_atom_site_label
_atom_site_fract_x
_atom_site_fract_y
_atom_site_fract_z
Si Si1 0.717058 0.921262 0.973914
Si Si2 0.000000 0.500000 0.250000
Si Si3 0.230694 0.269307 0.000000
Si Si4 0.571466 0.183059 0.828988
O O1 0.726421 0.945785 0.816897
O O2 0.614011 0.885990 0.000000
O O3 0.785101 0.839284 0.016148
O O4 0.736655 0.008382 0.065128
O O5 0.924358 0.552581 0.162788
O O6 0.195866 0.323652 0.131004
#
# Coordination Sequence:
#
# PCOD8311264 Si02
#       4
#    16   4   8  16
#     4  10  24  39  56  95 127 172 216 251 332 383
#     4  12  20  34  56 106 120 166 208 250 356 382
#     4  10  24  39  62  91 132 178 214 262 326 396
#     4  12  22  37  63  87 139 162 209 277 310 411
#
# _framework density 20.207305000000002
#
# number of rings (size 3 to 8) (size 9 to 14) (size 15 to 20)
#    1.091    0.000    3.636    3.273    0.000    1.455 
#    0.000    0.000    0.000    1.091    0.000   10.182 
#    0.000    0.000    0.000    0.000    0.000    0.000 
#
# Total GULP energy -272624.606150 kJ/mol
# GULP energy per Si atom -12392.027552 kJ/mol
# Density = 2.016131 g / cm^3
# Si number density = 20.207305 Si / 1000 Ang^3
#
#
#
# Elastic Constant Matrix: (Units=GPa)
#
#
# Indices 1 2 3 4 5 6 
#
# 1 100.7332 49.1057 55.9703 0.0000 0.0000 0.0000
# 2 49.1057 100.7303 55.9702 0.0000 0.0000 0.0000
# 3 55.9703 55.9702 174.8972 0.0000 0.0000 0.0000
# 4 0.0000 0.0000 0.0000 33.4960 0.0000 0.0000
# 5 0.0000 0.0000 0.0000 0.0000 33.4961 0.0000
# 6 0.0000 0.0000 0.0000 0.0000 0.0000 34.2106
#
#
#
# Elastic Compliance Matrix: (Units=1/GPa)
#
#
# Indices 1 2 3 4 5 6 
#
# 1 0.014070 -0.005300 -0.002807 0.000000 0.000000 0.000000
# 2 -0.005300 0.014071 -0.002807 0.000000 0.000000 0.000000
# 3 -0.002807 -0.002807 0.007514 0.000000 0.000000 0.000000
# 4 0.000000 0.000000 0.000000 0.029854 0.000000 0.000000
# 5 0.000000 0.000000 0.000000 0.000000 0.029854 0.000000
# 6 0.000000 0.000000 0.000000 0.000000 0.000000 0.029231
#
#
# Mechanical properties :
#
#
# Convention : Reuss Voigt Hill
#
# Bulk Modulus (GPa) = 72.31461 77.60590 74.96025
# Shear Modulus (GPa) = 33.10594 34.59483 33.85038
#
# Velocity S-wave (km/s) = 4.05200 4.14212 4.09731
# Velocity P-wave (km/s) = 7.59972 7.83354 7.71752
#
# Compressibility (1/GPa) = 0.01382846
#
# Stress axis : x y z
#
# Youngs Moduli (GPa) = 71.07219 71.06971 133.08299
#
# Poissons Ratio (x) = 0.37664 0.37353
# Poissons Ratio (y) = 0.37666 0.37355
# Poissons Ratio (z) = 0.19948 0.19948
#
# Static dielectric constant tensor:
#      x y z
#    x 3.520140 0.000000 0.000000 
#    y 0.000000 3.520160 0.000000 
#    z 0.000000 0.000000 3.618560 
# 
# 
# High freq. dielectric constant tensor:
#      x y z
#    x 1.760720 0.000000 0.000000 
#    y 0.000000 1.760730 0.000000 
#    z 0.000000 0.000000 1.798450 
# 
# From -- ./inp_files/2048.got.cif
#   From: 2010.03.12/outbox.cif.g09.slc.cpg/sg120_2_cif.got.tgz:2048.got - 2010.04.06 16:00:44.
