data_PCOD8311612
_publ_section_title
;
Structure prediction by ZEFSAII (Michael W. Deem and Ramdas Pophale) SiO2 
 PCOD8311612
Probable space group: I -4 2 M
;
_chemical_formula_sum "Si O2"
_cell_formula_units_Z 96
_cell_length_a 24.359302
_cell_length_b 24.359302
_cell_length_c 8.964006
_cell_angle_alpha 90.000000
_cell_angle_beta 90.000000
_cell_angle_gamma 90.000000
_cell_volume 5319.022384
_symmetry_space_group_name_H-M "I -4 2 M"
_symmetry_group_IT_number 121
_symmetry_cell_setting 'tetragonal'
loop_
_space_group_symop_operation_xyz
x,y,z
y,-x,-z
-x,-y,z
-y,x,-z
x,-y,-z
-x,y,-z
-y,-x,z
y,x,z
1/2+x,1/2+y,1/2+z
1/2+y,1/2-x,1/2-z
1/2-x,1/2-y,1/2+z
1/2-y,1/2+x,1/2-z
1/2+x,1/2-y,1/2-z
1/2-x,1/2+y,1/2-z
1/2-y,1/2-x,1/2+z
1/2+y,1/2+x,1/2+z
loop_
_atom_site_type_symbol
_atom_site_label
_atom_site_fract_x
_atom_site_fract_y
_atom_site_fract_z
Si Si1 0.280667 0.941141 0.422576
Si Si2 0.164534 0.746735 0.573678
Si Si3 0.927542 0.540881 0.696265
Si Si4 0.246455 0.336486 0.578494
Si Si5 0.282984 0.060101 0.922392
Si Si6 0.390293 0.099036 0.447090
O O1 0.242110 0.895189 0.500031
O O2 0.265338 0.948217 0.248784
O O3 0.341274 0.915305 0.440638
O O4 0.273386 0.000000 0.500000
O O5 0.197451 0.802550 0.548706
O O6 0.195835 0.695457 0.498811
O O7 0.157427 0.731913 0.747274
O O8 0.928105 0.477007 0.720284
O O9 0.927094 0.555001 0.523137
O O10 0.876969 0.568399 0.789396
O O11 0.302380 0.302380 0.554534
O O12 0.257560 0.397555 0.508813
O O13 0.337926 0.096002 0.928509
O O14 0.287352 0.000000 0.000000
#
# Coordination Sequence:
#
# PCOD8311612 Si02
#       6
#    16  16  16  16  16  16
#     4  12  25  38  57  79 107 144 185 234 283 334
#     4  10  21  38  59  83 110 143 184 231 283 337
#     4  11  22  36  48  60  83 124 178 230 277 322
#     4  10  21  38  59  83 110 143 184 231 283 337
#     4  12  25  38  57  79 107 144 185 234 283 334
#     4  12  24  35  47  68  96 136 176 224 276 321
#
# _framework density 18.048428999999999
#
# number of rings (size 3 to 8) (size 9 to 14) (size 15 to 20)
#    0.000    0.833    3.333    5.000    4.667    3.333 
#    0.000    0.000    0.000    0.000    0.000    0.000 
#    0.000    0.667    0.000    7.000    0.000    3.000 
#
# Total GULP energy -594703.094029 kJ/mol
# GULP energy per Si atom -12389.647792 kJ/mol
# Density = 1.800735 g / cm^3
# Si number density = 18.048429 Si / 1000 Ang^3
#
#
#
# Elastic Constant Matrix: (Units=GPa)
#
#
# Indices 1 2 3 4 5 6 
#
# 1 75.9942 30.7823 39.7061 0.0000 0.0000 0.0000
# 2 30.7823 75.9928 39.7062 0.0000 0.0000 0.0000
# 3 39.7061 39.7062 142.6598 0.0000 0.0000 0.0000
# 4 0.0000 0.0000 0.0000 26.1176 0.0000 0.0000
# 5 0.0000 0.0000 0.0000 0.0000 26.1175 0.0000
# 6 0.0000 0.0000 0.0000 0.0000 0.0000 23.4239
#
#
#
# Elastic Compliance Matrix: (Units=1/GPa)
#
#
# Indices 1 2 3 4 5 6 
#
# 1 0.016964 -0.005154 -0.003287 0.000000 0.000000 0.000000
# 2 -0.005154 0.016964 -0.003287 0.000000 0.000000 0.000000
# 3 -0.003287 -0.003287 0.008839 0.000000 0.000000 0.000000
# 4 0.000000 0.000000 0.000000 0.038288 0.000000 0.000000
# 5 0.000000 0.000000 0.000000 0.000000 0.038289 0.000000
# 6 0.000000 0.000000 0.000000 0.000000 0.000000 0.042691
#
#
# Mechanical properties :
#
#
# Convention : Reuss Voigt Hill
#
# Bulk Modulus (GPa) = 51.78301 57.22624 54.50463
# Shear Modulus (GPa) = 26.05115 27.42860 26.73987
#
# Velocity S-wave (km/s) = 3.80334 3.90259 3.85328
# Velocity P-wave (km/s) = 6.93113 7.21684 7.07543
#
# Compressibility (1/GPa) = 0.01931135
#
# Stress axis : x y z
#
# Youngs Moduli (GPa) = 58.94812 58.94672 113.12913
#
# Poissons Ratio (x) = 0.30382 0.37186
# Poissons Ratio (y) = 0.30383 0.37187
# Poissons Ratio (z) = 0.19376 0.19377
#
# Static dielectric constant tensor:
#      x y z
#    x 3.269750 0.000000 0.000000 
#    y 0.000000 3.269760 0.000000 
#    z 0.000000 0.000000 3.633690 
# 
# 
# High freq. dielectric constant tensor:
#      x y z
#    x 1.668680 0.000000 0.000000 
#    y 0.000000 1.668680 0.000000 
#    z 0.000000 0.000000 1.732470 
# 
# From -- ./inp_files/1930.got.cif
#   From: 2010.03.12/outbox.cif.g09.slc.cpg/sg121_1_cif.got.tgz:1930.got - 2010.04.06 16:06:48.
