data_PCOD8311211
_publ_section_title
;
Structure prediction by ZEFSAII (Michael W. Deem and Ramdas Pophale) SiO2 
 PCOD8311211
Probable space group: I -4 C 2
;
_chemical_formula_sum "Si O2"
_cell_formula_units_Z 112
_cell_length_a 15.112338
_cell_length_b 15.112338
_cell_length_c 25.157595
_cell_angle_alpha 90.000000
_cell_angle_beta 90.000000
_cell_angle_gamma 90.000000
_cell_volume 5745.560977
_symmetry_space_group_name_H-M "I -4 C 2"
_symmetry_group_IT_number 120
_symmetry_cell_setting 'tetragonal'
loop_
_space_group_symop_operation_xyz
x,y,z
y,-x,-z
-x,-y,z
-y,x,-z
y,x,1/2-z
-y,-x,1/2-z
-x,y,1/2+z
x,-y,1/2+z
1/2+x,1/2+y,1/2+z
1/2+y,1/2-x,1/2-z
1/2-x,1/2-y,1/2+z
1/2-y,1/2+x,1/2-z
1/2+y,1/2+x,-z
1/2-y,1/2-x,-z
1/2-x,1/2+y,z
1/2+x,1/2-y,z
loop_
_atom_site_type_symbol
_atom_site_label
_atom_site_fract_x
_atom_site_fract_y
_atom_site_fract_z
Si Si1 0.112132 0.398339 0.200800
Si Si2 0.708862 0.662371 0.809810
Si Si3 0.299968 0.173631 0.100810
Si Si4 0.352768 0.374539 0.436274
Si Si5 0.327239 0.453824 0.548798
Si Si6 0.093680 0.587302 0.182797
Si Si7 0.027357 0.905124 0.634267
O O1 0.149104 0.311360 0.171987
O O2 0.149669 0.493248 0.180752
O O3 0.134131 0.376040 0.262480
O O4 0.010451 0.417958 0.189301
O O5 0.693540 0.693540 0.750000
O O6 0.673801 0.736352 0.848674
O O7 0.654708 0.571565 0.820030
O O8 0.311734 0.266922 0.070602
O O9 0.262919 0.100287 0.060264
O O10 0.390703 0.140533 0.127985
O O11 0.348367 0.437163 0.487466
O O12 0.441065 0.313779 0.440856
O O13 0.356600 0.438302 0.385168
O O14 0.408112 0.418248 0.584009
O O15 0.000000 0.000000 0.658939
#
# Coordination Sequence:
#
# PCOD8311211 Si02
#       7
#    16  16  16  16  16  16  16
#     4   9  18  34  57  72 106 160 199 229 285 353
#     4  11  21  36  53  83 125 157 190 251 306 361
#     4  11  23  34  55  93 118 146 200 254 302 362
#     4  11  20  39  64  84 116 158 202 248 311 377
#     4  10  21  37  61  86 115 154 195 255 306 372
#     4   9  18  35  55  79 105 149 203 242 276 347
#     4   9  20  36  59  86 112 154 205 242 308 376
#
# _framework density 19.493310999999999
#
# number of rings (size 3 to 8) (size 9 to 14) (size 15 to 20)
#    0.000    2.000    2.857    2.143    2.000    0.286 
#    0.000    0.000    0.000    0.000    0.000    4.000 
#    0.000    0.000    0.000    0.000    0.000    0.000 
#
# Total GULP energy -693815.009383 kJ/mol
# GULP energy per Si atom -12389.553739 kJ/mol
# Density = 1.944894 g / cm^3
# Si number density = 19.493311 Si / 1000 Ang^3
#
#
#
# Elastic Constant Matrix: (Units=GPa)
#
#
# Indices 1 2 3 4 5 6 
#
# 1 70.3731 37.4474 23.1071 0.0000 0.0000 0.0000
# 2 37.4474 70.3731 23.1071 0.0000 0.0000 0.0000
# 3 23.1071 23.1071 47.4047 0.0000 0.0000 0.0000
# 4 0.0000 0.0000 0.0000 17.3472 0.0000 0.0000
# 5 0.0000 0.0000 0.0000 0.0000 17.3472 0.0000
# 6 0.0000 0.0000 0.0000 0.0000 0.0000 28.4637
#
#
#
# Elastic Compliance Matrix: (Units=1/GPa)
#
#
# Indices 1 2 3 4 5 6 
#
# 1 0.021048 -0.009324 -0.005715 0.000000 0.000000 0.000000
# 2 -0.009324 0.021048 -0.005715 0.000000 0.000000 0.000000
# 3 -0.005715 -0.005715 0.026666 0.000000 0.000000 0.000000
# 4 0.000000 0.000000 0.000000 0.057646 0.000000 0.000000
# 5 0.000000 0.000000 0.000000 0.000000 0.057646 0.000000
# 6 0.000000 0.000000 0.000000 0.000000 0.000000 0.035133
#
#
# Mechanical properties :
#
#
# Convention : Reuss Voigt Hill
#
# Bulk Modulus (GPa) = 36.69027 39.49712 38.09369
# Shear Modulus (GPa) = 18.53372 19.59757 19.06565
#
# Velocity S-wave (km/s) = 3.08681 3.17416 3.13079
# Velocity P-wave (km/s) = 5.61848 5.80858 5.71432
#
# Compressibility (1/GPa) = 0.02725519
#
# Stress axis : x y z
#
# Youngs Moduli (GPa) = 47.51087 47.51087 37.50051
#
# Poissons Ratio (x) = 0.44297 0.21431
# Poissons Ratio (y) = 0.44297 0.21431
# Poissons Ratio (z) = 0.27152 0.27152
#
# Static dielectric constant tensor:
#      x y z
#    x 5.254060 0.000000 0.000000 
#    y 0.000000 5.254060 0.000000 
#    z 0.000000 0.000000 3.531320 
# 
# 
# High freq. dielectric constant tensor:
#      x y z
#    x 1.754330 0.000000 0.000000 
#    y 0.000000 1.754330 0.000000 
#    z 0.000000 0.000000 1.742410 
# 
# From -- ./inp_files/5948.got.cif
#   From: 2010.03.12/outbox.cif.g09.slc.cpg/sg120_3_cif.got.tgz:5948.got - 2010.04.06 16:00:44.
