data_PCOD8311928
_publ_section_title
;
Structure prediction by ZEFSAII (Michael W. Deem and Ramdas Pophale) SiO2 
 PCOD8311928
Probable space group: I -4 2 D
;
_chemical_formula_sum "Si O2"
_cell_formula_units_Z 96
_cell_length_a 14.459438
_cell_length_b 14.459438
_cell_length_c 22.106727
_cell_angle_alpha 90.000000
_cell_angle_beta 90.000000
_cell_angle_gamma 90.000000
_cell_volume 4621.971625
_symmetry_space_group_name_H-M "I -4 2 D"
_symmetry_group_IT_number 122
_symmetry_cell_setting 'tetragonal'
loop_
_space_group_symop_operation_xyz
x,y,z
y,-x,-z
-x,-y,z
-y,x,-z
x,1/2-y,1/4-z
-x,1/2+y,1/4-z
-y,1/2-x,1/4+z
y,1/2+x,1/4+z
1/2+x,1/2+y,1/2+z
1/2+y,1/2-x,1/2-z
1/2-x,1/2-y,1/2+z
1/2-y,1/2+x,1/2-z
1/2+x,-y,3/4-z
1/2-x,y,3/4-z
1/2-y,-x,3/4+z
1/2+y,x,3/4+z
loop_
_atom_site_type_symbol
_atom_site_label
_atom_site_fract_x
_atom_site_fract_y
_atom_site_fract_z
Si Si1 0.323772 0.678513 0.975240
Si Si2 0.519757 0.235701 0.193547
Si Si3 0.899797 0.005723 0.217866
Si Si4 0.646989 0.338306 0.367148
Si Si5 0.210274 0.344249 0.439011
Si Si6 0.139524 0.440597 0.242727
O O1 0.311264 0.579345 0.945633
O O2 0.345609 0.741850 0.917926
O O3 0.407820 0.670197 0.022329
O O4 0.236354 0.718705 0.011312
O O5 0.552275 0.250000 0.125000
O O6 0.517426 0.333213 0.227238
O O7 0.904234 0.923210 0.168657
O O8 0.876749 0.103428 0.185265
O O9 0.000000 0.000000 0.248109
O O10 0.750000 0.382307 0.375000
O O11 0.599132 0.319328 0.430913
O O12 0.250000 0.307681 0.375000
O O13 0.278602 0.427780 0.458445
O O14 0.116681 0.548814 0.237175
#
# Coordination Sequence:
#
# PCOD8311928 Si02
#       6
#    16  16  16  16  16  16
#     4  10  22  42  65  99 123 175 220 264 335 392
#     4  10  22  43  67  90 134 166 216 278 323 395
#     4  10  25  40  62 100 126 164 223 265 321 394
#     4  11  22  42  66  88 131 172 213 263 325 395
#     4  11  23  41  65  92 135 171 212 273 328 386
#     4  11  26  40  62 100 131 174 223 265 329 397
#
# _framework density 20.770357000000001
#
# number of rings (size 3 to 8) (size 9 to 14) (size 15 to 20)
#    0.000    1.500    1.667    2.000    9.333    0.333 
#    3.000    1.667    0.000    0.000    0.000    0.000 
#    0.000    0.000    0.000    0.000    0.000    0.000 
#
# Total GULP energy -595186.939418 kJ/mol
# GULP energy per Si atom -12399.727905 kJ/mol
# Density = 2.072308 g / cm^3
# Si number density = 20.770357 Si / 1000 Ang^3
#
#
#
# Elastic Constant Matrix: (Units=GPa)
#
#
# Indices 1 2 3 4 5 6 
#
# 1 103.9235 23.1145 34.9987 0.0000 0.0000 0.0000
# 2 23.1145 103.9235 34.9987 0.0000 0.0000 0.0000
# 3 34.9987 34.9987 120.2593 0.0000 0.0000 0.0000
# 4 0.0000 0.0000 0.0000 23.1864 0.0000 0.0000
# 5 0.0000 0.0000 0.0000 0.0000 23.1864 0.0000
# 6 0.0000 0.0000 0.0000 0.0000 0.0000 26.2653
#
#
#
# Elastic Compliance Matrix: (Units=1/GPa)
#
#
# Indices 1 2 3 4 5 6 
#
# 1 0.010875 -0.001500 -0.002728 0.000000 0.000000 0.000000
# 2 -0.001500 0.010875 -0.002728 0.000000 0.000000 0.000000
# 3 -0.002728 -0.002728 0.009903 0.000000 0.000000 0.000000
# 4 0.000000 0.000000 0.000000 0.043129 0.000000 0.000000
# 5 0.000000 0.000000 0.000000 0.000000 0.043129 0.000000
# 6 0.000000 0.000000 0.000000 0.000000 0.000000 0.038073
#
#
# Mechanical properties :
#
#
# Convention : Reuss Voigt Hill
#
# Bulk Modulus (GPa) = 56.37011 57.14779 56.75895
# Shear Modulus (GPa) = 28.43972 30.19392 29.31682
#
# Velocity S-wave (km/s) = 3.70435 3.81688 3.76103
# Velocity P-wave (km/s) = 6.74499 6.85555 6.80050
#
# Compressibility (1/GPa) = 0.01773990
#
# Stress axis : x y z
#
# Youngs Moduli (GPa) = 91.95472 91.95472 100.97516
#
# Poissons Ratio (x) = 0.13793 0.27550
# Poissons Ratio (y) = 0.13793 0.27550
# Poissons Ratio (z) = 0.25089 0.25089
#
# Static dielectric constant tensor:
#      x y z
#    x 3.831210 0.000000 0.000000 
#    y 0.000000 3.831210 0.000000 
#    z 0.000000 0.000000 3.777440 
# 
# 
# High freq. dielectric constant tensor:
#      x y z
#    x 1.815760 0.000000 0.000000 
#    y 0.000000 1.815760 0.000000 
#    z 0.000000 0.000000 1.819630 
# 
# From -- ./inp_files/7282.got.cif
#   From: 2010.03.12/outbox.cif.g09.slc.cpg/sg122_4_cif.got.tgz:7282.got - 2010.04.06 16:17:16.
