data_PCOD8311966
_publ_section_title
;
Structure prediction by ZEFSAII (Michael W. Deem and Ramdas Pophale) SiO2 
 PCOD8311966
Probable space group: I -4 2 D
;
_chemical_formula_sum "Si O2"
_cell_formula_units_Z 64
_cell_length_a 19.651828
_cell_length_b 19.651828
_cell_length_c 7.482984
_cell_angle_alpha 90.000000
_cell_angle_beta 90.000000
_cell_angle_gamma 90.000000
_cell_volume 2889.886095
_symmetry_space_group_name_H-M "I -4 2 D"
_symmetry_group_IT_number 122
_symmetry_cell_setting 'tetragonal'
loop_
_space_group_symop_operation_xyz
x,y,z
y,-x,-z
-x,-y,z
-y,x,-z
x,1/2-y,1/4-z
-x,1/2+y,1/4-z
-y,1/2-x,1/4+z
y,1/2+x,1/4+z
1/2+x,1/2+y,1/2+z
1/2+y,1/2-x,1/2-z
1/2-x,1/2-y,1/2+z
1/2-y,1/2+x,1/2-z
1/2+x,-y,3/4-z
1/2-x,y,3/4-z
1/2-y,-x,3/4+z
1/2+y,x,3/4+z
loop_
_atom_site_type_symbol
_atom_site_label
_atom_site_fract_x
_atom_site_fract_y
_atom_site_fract_z
Si Si1 0.488865 0.153854 0.393163
Si Si2 0.871789 0.099016 0.312023
Si Si3 0.621006 0.827244 0.678447
Si Si4 0.241871 0.105135 0.584979
O O1 0.545333 0.095508 0.432812
O O2 0.428411 0.141322 0.530791
O O3 0.528243 0.226843 0.408629
O O4 0.460099 0.153347 0.192289
O O5 0.848238 0.175078 0.374102
O O6 0.837608 0.084955 0.119514
O O7 0.636090 0.750000 0.625000
O O8 0.691941 0.867791 0.686078
O O9 0.250000 0.106199 0.375000
#
# Coordination Sequence:
#
# PCOD8311966 Si02
#       4
#    16  16  16  16
#     4  10  25  46  73 103 149 197 243 315 380 444
#     4  10  25  45  71 106 150 194 255 306 377 456
#     4  12  26  42  75 113 143 200 250 311 389 445
#     4  10  23  47  71 101 157 184 252 315 366 446
#
# _framework density 22.146201000000001
#
# number of rings (size 3 to 8) (size 9 to 14) (size 15 to 20)
#    1.500    0.000    2.500    0.750    7.000    4.500 
#    0.000    0.000    0.000    0.000    0.000    0.000 
#    0.000    0.000    0.000    0.000    0.000    0.000 
#
# Total GULP energy -396543.891347 kJ/mol
# GULP energy per Si atom -12391.996605 kJ/mol
# Density = 2.209580 g / cm^3
# Si number density = 22.146201 Si / 1000 Ang^3
#
#
#
# Elastic Constant Matrix: (Units=GPa)
#
#
# Indices 1 2 3 4 5 6 
#
# 1 113.6427 41.2700 36.2313 0.0000 0.0000 0.0000
# 2 41.2700 113.6427 36.2313 0.0000 0.0000 0.0000
# 3 36.2313 36.2313 132.1131 0.0000 0.0000 0.0000
# 4 0.0000 0.0000 0.0000 17.9459 0.0000 0.0000
# 5 0.0000 0.0000 0.0000 0.0000 17.9459 0.0000
# 6 0.0000 0.0000 0.0000 0.0000 0.0000 9.1051
#
#
#
# Elastic Compliance Matrix: (Units=1/GPa)
#
#
# Indices 1 2 3 4 5 6 
#
# 1 0.010611 -0.003206 -0.002031 0.000000 0.000000 0.000000
# 2 -0.003206 0.010611 -0.002031 0.000000 0.000000 0.000000
# 3 -0.002031 -0.002031 0.008683 0.000000 0.000000 0.000000
# 4 0.000000 0.000000 0.000000 0.055723 0.000000 0.000000
# 5 0.000000 0.000000 0.000000 0.000000 0.055723 0.000000
# 6 0.000000 0.000000 0.000000 0.000000 0.000000 0.109829
#
#
# Mechanical properties :
#
#
# Convention : Reuss Voigt Hill
#
# Bulk Modulus (GPa) = 65.06087 65.20707 65.13397
# Shear Modulus (GPa) = 18.46111 25.37710 21.91910
#
# Velocity S-wave (km/s) = 2.89035 3.38877 3.14944
# Velocity P-wave (km/s) = 6.37028 6.69474 6.53452
#
# Compressibility (1/GPa) = 0.01537022
#
# Stress axis : x y z
#
# Youngs Moduli (GPa) = 94.23933 94.23933 115.16544
#
# Poissons Ratio (x) = 0.30214 0.23388
# Poissons Ratio (y) = 0.30214 0.23388
# Poissons Ratio (z) = 0.19138 0.19138
#
# Static dielectric constant tensor:
#      x y z
#    x 3.867870 0.000000 0.000000 
#    y 0.000000 3.867870 0.000000 
#    z 0.000000 0.000000 3.876830 
# 
# 
# High freq. dielectric constant tensor:
#      x y z
#    x 1.860410 0.000000 0.000000 
#    y 0.000000 1.860410 0.000000 
#    z 0.000000 0.000000 1.883630 
# 
# From -- ./inp_files/2534.got.cif
#   From: 2010.03.12/outbox.cif.g09.slc.cpg/sg122_2_cif.got.tgz:2534.got - 2010.04.06 16:17:16.
