data_PCOD8311813
_publ_section_title
;
Structure prediction by ZEFSAII (Michael W. Deem and Ramdas Pophale) SiO2 
 PCOD8311813
Probable space group: I -4 2 D
;
_chemical_formula_sum "Si O2"
_cell_formula_units_Z 72
_cell_length_a 18.245652
_cell_length_b 18.245652
_cell_length_c 9.701756
_cell_angle_alpha 90.000000
_cell_angle_beta 90.000000
_cell_angle_gamma 90.000000
_cell_volume 3229.751603
_symmetry_space_group_name_H-M "I -4 2 D"
_symmetry_group_IT_number 122
_symmetry_cell_setting 'tetragonal'
loop_
_space_group_symop_operation_xyz
x,y,z
y,-x,-z
-x,-y,z
-y,x,-z
x,1/2-y,1/4-z
-x,1/2+y,1/4-z
-y,1/2-x,1/4+z
y,1/2+x,1/4+z
1/2+x,1/2+y,1/2+z
1/2+y,1/2-x,1/2-z
1/2-x,1/2-y,1/2+z
1/2-y,1/2+x,1/2-z
1/2+x,-y,3/4-z
1/2-x,y,3/4-z
1/2-y,-x,3/4+z
1/2+y,x,3/4+z
loop_
_atom_site_type_symbol
_atom_site_label
_atom_site_fract_x
_atom_site_fract_y
_atom_site_fract_z
Si Si1 0.399438 0.750000 0.625000
Si Si2 0.307162 0.613276 0.572427
Si Si3 0.391519 0.499611 0.050188
Si Si4 0.145752 0.612721 0.479583
Si Si5 0.533567 0.268400 0.328845
O O1 0.347489 0.679986 0.646311
O O2 0.449756 0.745805 0.490486
O O3 0.222853 0.635382 0.546267
O O4 0.347567 0.592742 0.430325
O O5 0.311166 0.543751 0.674296
O O6 0.388423 0.541330 0.197015
O O7 0.310131 0.474966 0.001792
O O8 0.427648 0.556543 0.939631
O O9 0.094179 0.683731 0.498185
#
# Coordination Sequence:
#
# PCOD8311813 Si02
#       5
#     8  16  16  16  16
#     4  10  20  36  64  94 112 146 196 244 302 362
#     4   9  19  36  60  88 117 148 191 247 296 356
#     4  10  22  37  53  78 115 154 191 234 280 338
#     4   9  19  37  57  82 118 155 192 239 295 346
#     4  10  20  37  62  85 116 153 192 242 300 355
#
# _framework density 22.292736000000001
#
# number of rings (size 3 to 8) (size 9 to 14) (size 15 to 20)
#    0.000    2.444    0.000    2.667    0.000    8.000 
#    0.000    2.222    0.000   11.333    0.000    0.000 
#    0.000    0.000    0.000    0.000    0.000    0.000 
#
# Total GULP energy -446367.521009 kJ/mol
# GULP energy per Si atom -12399.097806 kJ/mol
# Density = 2.224200 g / cm^3
# Si number density = 22.292736 Si / 1000 Ang^3
#
#
#
# Elastic Constant Matrix: (Units=GPa)
#
#
# Indices 1 2 3 4 5 6 
#
# 1 129.9428 67.0551 21.2940 0.0000 0.0000 0.0000
# 2 67.0551 129.9428 21.2940 0.0000 0.0000 0.0000
# 3 21.2940 21.2940 37.9809 0.0000 0.0000 0.0000
# 4 0.0000 0.0000 0.0000 29.9171 0.0000 0.0000
# 5 0.0000 0.0000 0.0000 0.0000 29.9171 0.0000
# 6 0.0000 0.0000 0.0000 0.0000 0.0000 48.8943
#
#
#
# Elastic Compliance Matrix: (Units=1/GPa)
#
#
# Indices 1 2 3 4 5 6 
#
# 1 0.010839 -0.005063 -0.003238 0.000000 0.000000 0.000000
# 2 -0.005063 0.010839 -0.003238 0.000000 0.000000 0.000000
# 3 -0.003238 -0.003238 0.029960 0.000000 0.000000 0.000000
# 4 0.000000 0.000000 0.000000 0.033426 0.000000 0.000000
# 5 0.000000 0.000000 0.000000 0.000000 0.033426 0.000000
# 6 0.000000 0.000000 0.000000 0.000000 0.000000 0.020452
#
#
# Mechanical properties :
#
#
# Convention : Reuss Voigt Hill
#
# Bulk Modulus (GPa) = 35.01520 57.46143 46.23831
# Shear Modulus (GPa) = 29.14765 34.29394 31.72079
#
# Velocity S-wave (km/s) = 3.61985 3.92643 3.77625
# Velocity P-wave (km/s) = 5.76300 6.81085 6.30872
#
# Compressibility (1/GPa) = 0.02855903
#
# Stress axis : x y z
#
# Youngs Moduli (GPa) = 92.26085 92.26085 33.37740
#
# Poissons Ratio (x) = 0.46707 0.10809
# Poissons Ratio (y) = 0.46707 0.10809
# Poissons Ratio (z) = 0.29879 0.29879
#
# Static dielectric constant tensor:
#      x y z
#    x 4.228780 0.000000 0.000000 
#    y 0.000000 4.228780 0.000000 
#    z 0.000000 0.000000 3.693260 
# 
# 
# High freq. dielectric constant tensor:
#      x y z
#    x 1.885530 0.000000 0.000000 
#    y 0.000000 1.885530 0.000000 
#    z 0.000000 0.000000 1.855790 
# 
# From -- ./inp_files/4177.got.cif
#   From: 2010.03.12/outbox.cif.g09.slc.cpg/sg122_3_cif.got.tgz:4177.got - 2010.04.06 16:17:16.
