data_PCOD8311900
_publ_section_title
;
Structure prediction by ZEFSAII (Michael W. Deem and Ramdas Pophale) SiO2 
 PCOD8311900
Probable space group: I -4 2 D
;
_chemical_formula_sum "Si O2"
_cell_formula_units_Z 80
_cell_length_a 15.665942
_cell_length_b 15.665942
_cell_length_c 16.900635
_cell_angle_alpha 90.000000
_cell_angle_beta 90.000000
_cell_angle_gamma 90.000000
_cell_volume 4147.783228
_symmetry_space_group_name_H-M "I -4 2 D"
_symmetry_group_IT_number 122
_symmetry_cell_setting 'tetragonal'
loop_
_space_group_symop_operation_xyz
x,y,z
y,-x,-z
-x,-y,z
-y,x,-z
x,1/2-y,1/4-z
-x,1/2+y,1/4-z
-y,1/2-x,1/4+z
y,1/2+x,1/4+z
1/2+x,1/2+y,1/2+z
1/2+y,1/2-x,1/2-z
1/2-x,1/2-y,1/2+z
1/2-y,1/2+x,1/2-z
1/2+x,-y,3/4-z
1/2-x,y,3/4-z
1/2-y,-x,3/4+z
1/2+y,x,3/4+z
loop_
_atom_site_type_symbol
_atom_site_label
_atom_site_fract_x
_atom_site_fract_y
_atom_site_fract_z
Si Si1 0.743200 0.077941 0.146571
Si Si2 0.412049 0.046222 0.120074
Si Si3 0.692117 0.871007 0.448587
Si Si4 0.092218 0.518008 0.035652
Si Si5 0.164765 0.194782 0.550973
O O1 0.717806 0.145556 0.078278
O O2 0.839868 0.039263 0.144009
O O3 0.749601 0.125453 0.230561
O O4 0.671253 0.006560 0.144610
O O5 0.409712 0.130172 0.173707
O O6 0.500000 0.000000 0.142065
O O7 0.406206 0.072757 0.027273
O O8 0.750000 0.905732 0.375000
O O9 0.749941 0.853289 0.523947
O O10 0.622868 0.940615 0.477033
O O11 0.000000 0.500000 0.076993
O O12 0.194243 0.250000 0.625000
#
# Coordination Sequence:
#
# PCOD8311900 Si02
#       5
#    16  16  16  16  16
#     4  11  22  36  58  84 126 163 202 257 302 378
#     4  11  22  33  53  90 127 160 197 243 310 384
#     4  10  22  38  54  86 126 163 206 255 310 377
#     4  11  21  36  58  88 128 163 208 245 312 379
#     4  11  23  35  56  85 124 166 204 245 315 378
#
# _framework density 19.287410999999999
#
# number of rings (size 3 to 8) (size 9 to 14) (size 15 to 20)
#    0.000    1.200    8.000    0.000    5.600    0.000 
#    0.000    0.000    0.000    6.000    0.000    0.000 
#    0.000    0.000    0.000    0.000    0.000    0.000 
#
# Total GULP energy -495585.137160 kJ/mol
# GULP energy per Si atom -12389.628429 kJ/mol
# Density = 1.924351 g / cm^3
# Si number density = 19.287411 Si / 1000 Ang^3
#
#
#
# Elastic Constant Matrix: (Units=GPa)
#
#
# Indices 1 2 3 4 5 6 
#
# 1 101.6783 31.0383 18.6918 0.0000 0.0000 0.0000
# 2 31.0383 101.6783 18.6918 0.0000 0.0000 0.0000
# 3 18.6918 18.6918 46.3999 0.0000 0.0000 0.0000
# 4 0.0000 0.0000 0.0000 20.9989 0.0000 0.0000
# 5 0.0000 0.0000 0.0000 0.0000 20.9989 0.0000
# 6 0.0000 0.0000 0.0000 0.0000 0.0000 24.2500
#
#
#
# Elastic Compliance Matrix: (Units=1/GPa)
#
#
# Indices 1 2 3 4 5 6 
#
# 1 0.011328 -0.002828 -0.003424 0.000000 0.000000 0.000000
# 2 -0.002828 0.011328 -0.003424 0.000000 0.000000 0.000000
# 3 -0.003424 -0.003424 0.024310 0.000000 0.000000 0.000000
# 4 0.000000 0.000000 0.000000 0.047621 0.000000 0.000000
# 5 0.000000 0.000000 0.000000 0.000000 0.047621 0.000000
# 6 0.000000 0.000000 0.000000 0.000000 0.000000 0.041237
#
#
# Mechanical properties :
#
#
# Convention : Reuss Voigt Hill
#
# Bulk Modulus (GPa) = 36.21423 42.95556 39.58490
# Shear Modulus (GPa) = 23.58460 25.33856 24.46158
#
# Velocity S-wave (km/s) = 3.50065 3.62848 3.56514
# Velocity P-wave (km/s) = 5.92927 6.31460 6.12496
#
# Compressibility (1/GPa) = 0.02761345
#
# Stress axis : x y z
#
# Youngs Moduli (GPa) = 88.27853 88.27854 41.13481
#
# Poissons Ratio (x) = 0.24970 0.14084
# Poissons Ratio (y) = 0.24970 0.14084
# Poissons Ratio (z) = 0.30225 0.30225
#
# Static dielectric constant tensor:
#      x y z
#    x 3.709340 0.000000 0.000000 
#    y 0.000000 3.709340 0.000000 
#    z 0.000000 0.000000 3.245750 
# 
# 
# High freq. dielectric constant tensor:
#      x y z
#    x 1.749950 0.000000 0.000000 
#    y 0.000000 1.749950 0.000000 
#    z 0.000000 0.000000 1.711720 
# 
# From -- ./inp_files/5288.got.cif
#   From: 2010.03.12/outbox.cif.g09.slc.cpg/sg122_3_cif.got.tgz:5288.got - 2010.04.06 16:17:16.
