data_PCOD8311858
_publ_section_title
;
Structure prediction by ZEFSAII (Michael W. Deem and Ramdas Pophale) SiO2 
 PCOD8311858
Probable space group: I -4 2 D
;
_chemical_formula_sum "Si O2"
_cell_formula_units_Z 52
_cell_length_a 19.278579
_cell_length_b 19.278579
_cell_length_c 6.562807
_cell_angle_alpha 90.000000
_cell_angle_beta 90.000000
_cell_angle_gamma 90.000000
_cell_volume 2439.156530
_symmetry_space_group_name_H-M "I -4 2 D"
_symmetry_group_IT_number 122
_symmetry_cell_setting 'tetragonal'
loop_
_space_group_symop_operation_xyz
x,y,z
y,-x,-z
-x,-y,z
-y,x,-z
x,1/2-y,1/4-z
-x,1/2+y,1/4-z
-y,1/2-x,1/4+z
y,1/2+x,1/4+z
1/2+x,1/2+y,1/2+z
1/2+y,1/2-x,1/2-z
1/2-x,1/2-y,1/2+z
1/2-y,1/2+x,1/2-z
1/2+x,-y,3/4-z
1/2-x,y,3/4-z
1/2-y,-x,3/4+z
1/2+y,x,3/4+z
loop_
_atom_site_type_symbol
_atom_site_label
_atom_site_fract_x
_atom_site_fract_y
_atom_site_fract_z
Si Si1 0.648790 0.971778 0.562298
Si Si2 0.095639 0.750000 0.125000
Si Si3 0.817742 0.848871 0.482318
Si Si4 0.500000 0.500000 0.500000
Si Si5 0.079005 0.250000 0.625000
O O1 0.691822 0.949180 0.759784
O O2 0.652551 0.917095 0.378112
O O3 0.568485 0.988523 0.611593
O O4 0.688209 0.039096 0.484045
O O5 0.138897 0.796683 0.282553
O O6 0.750000 0.819875 0.375000
O O7 0.873845 0.788441 0.457927
#
# Coordination Sequence:
#
# PCOD8311858 Si02
#       5
#    16   8  16   4   8
#     4  11  25  47  70 107 142 189 244 296 368 435
#     4  10  20  48  70  94 142 188 240 300 352 444
#     4  10  24  45  68 100 143 185 244 297 354 437
#     4  12  28  44  74 116 148 206 236 312 378 432
#     4  12  24  44  74 104 140 196 228 304 364 436
#
# _framework density 21.318847000000002
#
# number of rings (size 3 to 8) (size 9 to 14) (size 15 to 20)
#    0.000    1.231    4.615    1.846    6.462    2.462 
#    0.000    1.538    0.000    0.000    0.000    0.000 
#    0.000    0.000    0.000    0.000    0.000    0.000 
#
# Total GULP energy -322235.614294 kJ/mol
# GULP energy per Si atom -12393.677473 kJ/mol
# Density = 2.127032 g / cm^3
# Si number density = 21.318847 Si / 1000 Ang^3
#
#
#
# Elastic Constant Matrix: (Units=GPa)
#
#
# Indices 1 2 3 4 5 6 
#
# 1 160.7066 77.9187 55.8212 0.0000 0.0000 0.0000
# 2 77.9187 160.7066 55.8212 0.0000 0.0000 0.0000
# 3 55.8212 55.8212 118.3447 0.0000 0.0000 0.0000
# 4 0.0000 0.0000 0.0000 13.5347 0.0000 0.0000
# 5 0.0000 0.0000 0.0000 0.0000 13.5347 0.0000
# 6 0.0000 0.0000 0.0000 0.0000 0.0000 45.4017
#
#
#
# Elastic Compliance Matrix: (Units=1/GPa)
#
#
# Indices 1 2 3 4 5 6 
#
# 1 0.008728 -0.003351 -0.002536 0.000000 0.000000 0.000000
# 2 -0.003351 0.008728 -0.002536 0.000000 0.000000 0.000000
# 3 -0.002536 -0.002536 0.010843 0.000000 0.000000 0.000000
# 4 0.000000 0.000000 0.000000 0.073884 0.000000 0.000000
# 5 0.000000 0.000000 0.000000 0.000000 0.073884 0.000000
# 6 0.000000 0.000000 0.000000 0.000000 0.000000 0.022026
#
#
# Mechanical properties :
#
#
# Convention : Reuss Voigt Hill
#
# Bulk Modulus (GPa) = 87.32308 90.98667 89.15488
# Shear Modulus (GPa) = 22.85640 31.17404 27.01522
#
# Velocity S-wave (km/s) = 3.27788 3.82812 3.56364
# Velocity P-wave (km/s) = 7.44147 7.89373 7.67093
#
# Compressibility (1/GPa) = 0.01145173
#
# Stress axis : x y z
#
# Youngs Moduli (GPa) = 114.57122 114.57122 92.22844
#
# Poissons Ratio (x) = 0.38391 0.23393
# Poissons Ratio (y) = 0.38391 0.23393
# Poissons Ratio (z) = 0.29060 0.29060
#
# Static dielectric constant tensor:
#      x y z
#    x 4.013200 0.000000 0.000000 
#    y 0.000000 4.013200 0.000000 
#    z 0.000000 0.000000 3.173760 
# 
# 
# High freq. dielectric constant tensor:
#      x y z
#    x 1.849540 0.000000 0.000000 
#    y 0.000000 1.849540 0.000000 
#    z 0.000000 0.000000 1.835080 
# 
# From -- ./inp_files/784.got.cif
#   From: 2010.03.12/outbox.cif.g09.slc.cpg/sg122_1_cif.got.tgz:784.got - 2010.04.06 16:17:16.
