data_PCOD8311416
_publ_section_title
;
Structure prediction by ZEFSAII (Michael W. Deem and Ramdas Pophale) SiO2 
 PCOD8311416
Probable space group: I -4 2 M
;
_chemical_formula_sum "Si O2"
_cell_formula_units_Z 96
_cell_length_a 23.402121
_cell_length_b 23.402121
_cell_length_c 12.164812
_cell_angle_alpha 90.000000
_cell_angle_beta 90.000000
_cell_angle_gamma 90.000000
_cell_volume 6662.172027
_symmetry_space_group_name_H-M "I -4 2 M"
_symmetry_group_IT_number 121
_symmetry_cell_setting 'tetragonal'
loop_
_space_group_symop_operation_xyz
x,y,z
y,-x,-z
-x,-y,z
-y,x,-z
x,-y,-z
-x,y,-z
-y,-x,z
y,x,z
1/2+x,1/2+y,1/2+z
1/2+y,1/2-x,1/2-z
1/2-x,1/2-y,1/2+z
1/2-y,1/2+x,1/2-z
1/2+x,1/2-y,1/2-z
1/2-x,1/2+y,1/2-z
1/2-y,1/2-x,1/2+z
1/2+y,1/2+x,1/2+z
loop_
_atom_site_type_symbol
_atom_site_label
_atom_site_fract_x
_atom_site_fract_y
_atom_site_fract_z
Si Si1 0.861689 0.234756 0.105287
Si Si2 0.700439 0.392964 0.015452
Si Si3 0.551837 0.356170 0.220422
Si Si4 0.778563 0.127192 0.863138
Si Si5 0.671410 0.575521 0.214860
Si Si6 0.176341 0.273102 0.337606
O O1 0.813622 0.186379 0.104373
O O2 0.912213 0.216334 0.187504
O O3 0.834363 0.294488 0.145463
O O4 0.888372 0.244864 0.984131
O O5 0.661519 0.338482 0.992517
O O6 0.670464 0.434924 0.101856
O O7 0.760523 0.369481 0.064533
O O8 0.707706 0.425418 0.899132
O O9 0.581287 0.418714 0.230323
O O10 0.574774 0.315172 0.316512
O O11 0.484151 0.360882 0.234976
O O12 0.817283 0.182718 0.874600
O O13 0.727084 0.143004 0.779338
O O14 0.622531 0.622531 0.211431
O O15 0.222322 0.222322 0.337594
#
# Coordination Sequence:
#
# PCOD8311416 Si02
#       6
#    16  16  16  16  16  16
#     4   9  17  25  37  58  79  97 122 164 208 248
#     4   8  15  27  41  57  75  98 130 169 210 253
#     4   9  17  30  43  52  72 109 145 178 212 241
#     4   8  15  27  40  54  72  99 131 159 196 250
#     4  10  19  27  38  59  80 100 137 185 215 238
#     4   8  14  24  40  57  75  98 120 153 206 258
#
# _framework density 14.409716
#
# number of rings (size 3 to 8) (size 9 to 14) (size 15 to 20)
#    0.000    3.333    0.000    2.500    2.333    1.000 
#    0.000    0.000    0.000    3.000    0.000    4.667 
#    0.000    0.000    0.000    0.000    0.000   13.333 
#
# Total GULP energy -594793.301581 kJ/mol
# GULP energy per Si atom -12391.527116 kJ/mol
# Density = 1.437692 g / cm^3
# Si number density = 14.409716 Si / 1000 Ang^3
#
#
#
# Elastic Constant Matrix: (Units=GPa)
#
#
# Indices 1 2 3 4 5 6 
#
# 1 42.3374 38.9586 38.5114 0.0000 0.0000 0.0000
# 2 38.9586 42.3368 38.5113 0.0000 0.0000 0.0000
# 3 38.5114 38.5113 127.0138 0.0000 0.0000 0.0000
# 4 0.0000 0.0000 0.0000 11.6517 0.0000 0.0000
# 5 0.0000 0.0000 0.0000 0.0000 11.6521 0.0000
# 6 0.0000 0.0000 0.0000 0.0000 0.0000 14.4991
#
#
#
# Elastic Compliance Matrix: (Units=1/GPa)
#
#
# Indices 1 2 3 4 5 6 
#
# 1 0.156621 -0.139364 -0.005233 0.000000 0.000000 0.000000
# 2 -0.139364 0.156624 -0.005233 0.000000 0.000000 0.000000
# 3 -0.005233 -0.005233 0.011046 0.000000 0.000000 0.000000
# 4 0.000000 0.000000 0.000000 0.085825 0.000000 0.000000
# 5 0.000000 0.000000 0.000000 0.000000 0.085822 0.000000
# 6 0.000000 0.000000 0.000000 0.000000 0.000000 0.068970
#
#
# Mechanical properties :
#
#
# Convention : Reuss Voigt Hill
#
# Bulk Modulus (GPa) = 40.59751 49.29452 44.94602
# Shear Modulus (GPa) = 5.72883 13.94101 9.83492
#
# Velocity S-wave (km/s) = 1.99607 3.11380 2.61534
# Velocity P-wave (km/s) = 5.79200 6.87104 6.35446
#
# Compressibility (1/GPa) = 0.02463205
#
# Stress axis : x y z
#
# Youngs Moduli (GPa) = 6.38483 6.38471 90.52672
#
# Poissons Ratio (x) = 0.88980 0.47369
# Poissons Ratio (y) = 0.88982 0.47375
# Poissons Ratio (z) = 0.03341 0.03341
#
# Static dielectric constant tensor:
#      x y z
#    x 2.509500 0.000000 0.000000 
#    y 0.000000 2.509490 0.000000 
#    z 0.000000 0.000000 3.249300 
# 
# 
# High freq. dielectric constant tensor:
#      x y z
#    x 1.506560 0.000000 0.000000 
#    y 0.000000 1.506560 0.000000 
#    z 0.000000 0.000000 1.570120 
# 
# From -- ./inp_files/3331.got.cif
#   From: 2010.03.12/outbox.cif.g09.slc.cpg/sg121_2_cif.got.tgz:3331.got - 2010.04.06 16:06:48.
