data_PCOD8311807
_publ_section_title
;
Structure prediction by ZEFSAII (Michael W. Deem and Ramdas Pophale) SiO2 
 PCOD8311807
Probable space group: I -4 2 D
;
_chemical_formula_sum "Si O2"
_cell_formula_units_Z 56
_cell_length_a 12.562711
_cell_length_b 12.562711
_cell_length_c 18.109418
_cell_angle_alpha 90.000000
_cell_angle_beta 90.000000
_cell_angle_gamma 90.000000
_cell_volume 2858.059274
_symmetry_space_group_name_H-M "I -4 2 D"
_symmetry_group_IT_number 122
_symmetry_cell_setting 'tetragonal'
loop_
_space_group_symop_operation_xyz
x,y,z
y,-x,-z
-x,-y,z
-y,x,-z
x,1/2-y,1/4-z
-x,1/2+y,1/4-z
-y,1/2-x,1/4+z
y,1/2+x,1/4+z
1/2+x,1/2+y,1/2+z
1/2+y,1/2-x,1/2-z
1/2-x,1/2-y,1/2+z
1/2-y,1/2+x,1/2-z
1/2+x,-y,3/4-z
1/2-x,y,3/4-z
1/2-y,-x,3/4+z
1/2+y,x,3/4+z
loop_
_atom_site_type_symbol
_atom_site_label
_atom_site_fract_x
_atom_site_fract_y
_atom_site_fract_z
Si Si1 0.852405 0.156564 0.422768
Si Si2 0.500000 0.500000 0.500000
Si Si3 0.500000 0.000000 0.250000
Si Si4 0.284686 0.232493 0.791386
Si Si5 0.529201 0.277751 0.450712
O O1 0.750000 0.124151 0.375000
O O2 0.820439 0.224371 0.493849
O O3 0.935193 0.227228 0.376306
O O4 0.908410 0.048201 0.448047
O O5 0.530301 0.405655 0.443682
O O6 0.250000 0.245995 0.875000
O O7 0.409696 0.258676 0.779860
O O8 0.249784 0.113648 0.765524
#
# Coordination Sequence:
#
# PCOD8311807 Si02
#       5
#    16   4   4  16  16
#     4  10  23  40  57  81 112 145 184 229 276 328
#     4   8  16  32  60  90 116 144 184 230 272 312
#     4  12  24  40  60  78 108 144 184 230 276 336
#     4  10  20  36  58  84 113 148 185 227 276 324
#     4   9  19  35  57  85 114 146 185 228 271 322
#
# _framework density 19.593717000000002
#
# number of rings (size 3 to 8) (size 9 to 14) (size 15 to 20)
#    0.000    2.286    0.000    1.714    0.000   11.429 
#    0.000    0.000    0.000    3.429    0.000    0.000 
#    0.000    0.000    0.000    0.000    0.000    0.000 
#
# Total GULP energy -347150.648716 kJ/mol
# GULP energy per Si atom -12398.237454 kJ/mol
# Density = 1.954912 g / cm^3
# Si number density = 19.593717 Si / 1000 Ang^3
#
#
#
# Elastic Constant Matrix: (Units=GPa)
#
#
# Indices 1 2 3 4 5 6 
#
# 1 101.1284 61.7228 53.2243 0.0000 0.0000 0.0000
# 2 61.7228 101.1284 53.2243 0.0000 0.0000 0.0000
# 3 53.2243 53.2243 132.3153 0.0000 0.0000 0.0000
# 4 0.0000 0.0000 0.0000 26.2527 0.0000 0.0000
# 5 0.0000 0.0000 0.0000 0.0000 26.2527 0.0000
# 6 0.0000 0.0000 0.0000 0.0000 0.0000 39.6425
#
#
#
# Elastic Compliance Matrix: (Units=1/GPa)
#
#
# Indices 1 2 3 4 5 6 
#
# 1 0.016854 -0.008523 -0.003351 0.000000 0.000000 0.000000
# 2 -0.008523 0.016854 -0.003351 0.000000 0.000000 0.000000
# 3 -0.003351 -0.003351 0.010254 0.000000 0.000000 0.000000
# 4 0.000000 0.000000 0.000000 0.038091 0.000000 0.000000
# 5 0.000000 0.000000 0.000000 0.000000 0.038091 0.000000
# 6 0.000000 0.000000 0.000000 0.000000 0.000000 0.025225
#
#
# Mechanical properties :
#
#
# Convention : Reuss Voigt Hill
#
# Bulk Modulus (GPa) = 74.01300 74.54609 74.27954
# Shear Modulus (GPa) = 27.72779 29.52299 28.62539
#
# Velocity S-wave (km/s) = 3.76591 3.88591 3.82638
# Velocity P-wave (km/s) = 7.53428 7.63297 7.58378
#
# Compressibility (1/GPa) = 0.01351114
#
# Stress axis : x y z
#
# Youngs Moduli (GPa) = 59.33274 59.33274 97.52499
#
# Poissons Ratio (x) = 0.50569 0.32683
# Poissons Ratio (y) = 0.50569 0.32683
# Poissons Ratio (z) = 0.19884 0.19884
#
# Static dielectric constant tensor:
#      x y z
#    x 3.643440 0.000000 0.000000 
#    y 0.000000 3.643440 0.000000 
#    z 0.000000 0.000000 3.448240 
# 
# 
# High freq. dielectric constant tensor:
#      x y z
#    x 1.767660 0.000000 0.000000 
#    y 0.000000 1.767660 0.000000 
#    z 0.000000 0.000000 1.756010 
# 
# From -- ./inp_files/6028.got.cif
#   From: 2010.03.12/outbox.cif.g09.slc.cpg/sg122_4_cif.got.tgz:6028.got - 2010.04.06 16:17:16.
