data_PCOD8311689
_publ_section_title
;
Structure prediction by ZEFSAII (Michael W. Deem and Ramdas Pophale) SiO2 
 PCOD8311689
Probable space group: I -4 2 M
;
_chemical_formula_sum "Si O2"
_cell_formula_units_Z 116
_cell_length_a 17.460976
_cell_length_b 17.460976
_cell_length_c 17.751134
_cell_angle_alpha 90.000000
_cell_angle_beta 90.000000
_cell_angle_gamma 90.000000
_cell_volume 5412.066611
_symmetry_space_group_name_H-M "I -4 2 M"
_symmetry_group_IT_number 121
_symmetry_cell_setting 'tetragonal'
loop_
_space_group_symop_operation_xyz
x,y,z
y,-x,-z
-x,-y,z
-y,x,-z
x,-y,-z
-x,y,-z
-y,-x,z
y,x,z
1/2+x,1/2+y,1/2+z
1/2+y,1/2-x,1/2-z
1/2-x,1/2-y,1/2+z
1/2-y,1/2+x,1/2-z
1/2+x,1/2-y,1/2-z
1/2-x,1/2+y,1/2-z
1/2-y,1/2-x,1/2+z
1/2+y,1/2+x,1/2+z
loop_
_atom_site_type_symbol
_atom_site_label
_atom_site_fract_x
_atom_site_fract_y
_atom_site_fract_z
Si Si1 0.500000 0.500000 0.282215
Si Si2 0.673188 0.490831 0.231232
Si Si3 0.194844 0.382169 0.744438
Si Si4 0.335325 0.076136 0.955446
Si Si5 0.324283 0.552000 0.929069
Si Si6 0.257121 0.622166 0.679037
Si Si7 0.665626 0.880373 0.595394
Si Si8 0.081885 0.526263 0.156746
O O1 0.592289 0.498551 0.271954
O O2 0.717579 0.410536 0.246239
O O3 0.658645 0.497843 0.142086
O O4 0.734139 0.553960 0.260949
O O5 0.182584 0.306839 0.794593
O O6 0.181016 0.361614 0.657330
O O7 0.132822 0.445538 0.772448
O O8 0.261524 0.091545 0.904075
O O9 0.407666 0.064272 0.902487
O O10 0.348590 0.144818 0.013348
O O11 0.316911 0.000000 0.000000
O O12 0.399862 0.600139 0.949259
O O13 0.256824 0.610048 0.906149
O O14 0.300924 0.500000 0.000000
O O15 0.338575 0.661426 0.672108
O O16 0.626667 0.961580 0.611138
O O17 0.000000 0.500000 0.188527
#
# Coordination Sequence:
#
# PCOD8311689 Si02
#       8
#     4  16  16  16  16  16  16  16
#     4  12  28  48  85 100 133 188 264 322 368 424
#     4  12  25  50  73 109 138 190 250 307 368 441
#     4  11  25  41  70 106 144 186 238 297 363 446
#     4  11  23  39  63  97 136 185 231 283 347 428
#     4  12  27  46  71 100 153 197 247 306 373 445
#     4  11  24  47  72  96 140 181 233 302 369 422
#     4  12  24  41  65 105 149 191 236 295 359 444
#     4  11  22  35  62 101 148 194 234 277 344 451
#
# _framework density 21.433585000000001
#
# number of rings (size 3 to 8) (size 9 to 14) (size 15 to 20)
#    0.000    0.552    5.517    2.069    7.724    0.690 
#    0.000    0.000    4.552    0.000    0.000    0.966 
#    0.000    0.000    0.000    0.000    0.000    0.000 
#
# Total GULP energy -718520.482787 kJ/mol
# GULP energy per Si atom -12388.284186 kJ/mol
# Density = 2.138480 g / cm^3
# Si number density = 21.433585 Si / 1000 Ang^3
#
#
#
# Elastic Constant Matrix: (Units=GPa)
#
#
# Indices 1 2 3 4 5 6 
#
# 1 71.6585 55.8835 30.3254 0.0000 0.0000 0.0000
# 2 55.8835 71.6679 30.3254 0.0000 0.0000 0.0000
# 3 30.3254 30.3254 118.5854 0.0000 0.0000 0.0000
# 4 0.0000 0.0000 0.0000 16.8394 0.0000 0.0000
# 5 0.0000 0.0000 0.0000 0.0000 16.8392 0.0000
# 6 0.0000 0.0000 0.0000 0.0000 0.0000 46.6021
#
#
#
# Elastic Compliance Matrix: (Units=1/GPa)
#
#
# Indices 1 2 3 4 5 6 
#
# 1 0.036152 -0.027223 -0.002283 0.000000 0.000000 0.000000
# 2 -0.027223 0.036146 -0.002282 0.000000 0.000000 0.000000
# 3 -0.002283 -0.002282 0.009600 0.000000 0.000000 0.000000
# 4 0.000000 0.000000 0.000000 0.059385 0.000000 0.000000
# 5 0.000000 0.000000 0.000000 0.000000 0.059385 0.000000
# 6 0.000000 0.000000 0.000000 0.000000 0.000000 0.021458
#
#
# Mechanical properties :
#
#
# Convention : Reuss Voigt Hill
#
# Bulk Modulus (GPa) = 54.58115 54.99784 54.78949
# Shear Modulus (GPa) = 17.13439 25.74795 21.44117
#
# Velocity S-wave (km/s) = 2.83047 3.46972 3.16627
# Velocity P-wave (km/s) = 6.01686 6.46276 6.24379
#
# Compressibility (1/GPa) = 0.01832134
#
# Stress axis : x y z
#
# Youngs Moduli (GPa) = 27.66114 27.66525 104.16513
#
# Poissons Ratio (x) = 0.75314 0.23783
# Poissons Ratio (y) = 0.75303 0.23769
# Poissons Ratio (z) = 0.06316 0.06313
#
# Static dielectric constant tensor:
#      x y z
#    x 4.496900 0.000000 0.000000 
#    y 0.000000 4.496890 0.000000 
#    z 0.000000 0.000000 3.952340 
# 
# 
# High freq. dielectric constant tensor:
#      x y z
#    x 1.846410 0.000000 0.000000 
#    y 0.000000 1.846410 0.000000 
#    z 0.000000 0.000000 1.832940 
# 
# From -- ./inp_files/5515.got.cif
#   From: 2010.03.12/outbox.cif.g09.slc.cpg/sg121_3_cif.got.tgz:5515.got - 2010.04.06 16:06:48.
