data_PCOD8311676
_publ_section_title
;
Structure prediction by ZEFSAII (Michael W. Deem and Ramdas Pophale) SiO2 
 PCOD8311676
Probable space group: I -4 2 M
;
_chemical_formula_sum "Si O2"
_cell_formula_units_Z 80
_cell_length_a 13.929125
_cell_length_b 13.929125
_cell_length_c 22.241344
_cell_angle_alpha 90.000000
_cell_angle_beta 90.000000
_cell_angle_gamma 90.000000
_cell_volume 4315.277201
_symmetry_space_group_name_H-M "I -4 2 M"
_symmetry_group_IT_number 121
_symmetry_cell_setting 'tetragonal'
loop_
_space_group_symop_operation_xyz
x,y,z
y,-x,-z
-x,-y,z
-y,x,-z
x,-y,-z
-x,y,-z
-y,-x,z
y,x,z
1/2+x,1/2+y,1/2+z
1/2+y,1/2-x,1/2-z
1/2-x,1/2-y,1/2+z
1/2-y,1/2+x,1/2-z
1/2+x,1/2-y,1/2-z
1/2-x,1/2+y,1/2-z
1/2-y,1/2-x,1/2+z
1/2+y,1/2+x,1/2+z
loop_
_atom_site_type_symbol
_atom_site_label
_atom_site_fract_x
_atom_site_fract_y
_atom_site_fract_z
Si Si1 0.131220 0.282590 0.371323
Si Si2 0.838207 0.314440 0.876445
Si Si3 0.881876 0.599868 0.748176
Si Si4 0.959544 0.195183 0.433299
Si Si5 0.518432 0.892984 0.429879
O O1 0.233218 0.233218 0.380769
O O2 0.120090 0.310157 0.302223
O O3 0.132453 0.372225 0.416311
O O4 0.047358 0.206703 0.387276
O O5 0.792441 0.207560 0.878823
O O6 0.833958 0.353147 0.808191
O O7 0.779716 0.384057 0.920734
O O8 0.948162 0.315072 0.898820
O O9 0.874519 0.488475 0.729258
O O10 0.908347 0.091654 0.424680
O O11 0.000000 0.206728 0.500000
O O12 0.500000 0.890955 0.500000
O O13 0.500000 0.000000 0.403221
#
# Coordination Sequence:
#
# PCOD8311676 Si02
#       5
#    16  16  16  16  16
#     4  12  24  38  61  93 121 156 206 251 298 362
#     4  11  22  38  62  90 118 154 203 249 299 360
#     4  11  20  38  64  87 118 156 195 252 311 352
#     4  11  23  39  59  88 129 169 200 240 303 374
#     4  11  21  38  60  85 122 157 193 242 294 346
#
# _framework density 18.538785000000001
#
# number of rings (size 3 to 8) (size 9 to 14) (size 15 to 20)
#    0.000    0.800    6.000    2.400    0.000    3.800 
#    0.000    0.000    0.000    0.600    0.000    1.400 
#    0.000    0.000    0.000    0.000    0.000    0.000 
#
# Total GULP energy -496092.592153 kJ/mol
# GULP energy per Si atom -12402.314804 kJ/mol
# Density = 1.849659 g / cm^3
# Si number density = 18.538785 Si / 1000 Ang^3
#
#
#
# Elastic Constant Matrix: (Units=GPa)
#
#
# Indices 1 2 3 4 5 6 
#
# 1 108.4446 72.0833 50.2499 0.0000 0.0000 0.0000
# 2 72.0833 108.4466 50.2503 0.0000 0.0000 0.0000
# 3 50.2499 50.2503 101.6778 0.0000 0.0000 0.0000
# 4 0.0000 0.0000 0.0000 17.4675 0.0000 0.0000
# 5 0.0000 0.0000 0.0000 0.0000 17.4665 0.0000
# 6 0.0000 0.0000 0.0000 0.0000 0.0000 34.6233
#
#
#
# Elastic Compliance Matrix: (Units=1/GPa)
#
#
# Indices 1 2 3 4 5 6 
#
# 1 0.017572 -0.009930 -0.003777 0.000000 0.000000 0.000000
# 2 -0.009930 0.017571 -0.003777 0.000000 0.000000 0.000000
# 3 -0.003777 -0.003777 0.013568 0.000000 0.000000 0.000000
# 4 0.000000 0.000000 0.000000 0.057249 0.000000 0.000000
# 5 0.000000 0.000000 0.000000 0.000000 0.057252 0.000000
# 6 0.000000 0.000000 0.000000 0.000000 0.000000 0.028882
#
#
# Mechanical properties :
#
#
# Convention : Reuss Voigt Hill
#
# Bulk Modulus (GPa) = 72.75445 73.74842 73.25144
# Shear Modulus (GPa) = 21.58505 23.64383 22.61444
#
# Velocity S-wave (km/s) = 3.41591 3.57511 3.49642
# Velocity P-wave (km/s) = 7.40862 7.54379 7.47651
#
# Compressibility (1/GPa) = 0.01374486
#
# Stress axis : x y z
#
# Youngs Moduli (GPa) = 56.91025 56.91134 73.70365
#
# Poissons Ratio (x) = 0.56511 0.27835
# Poissons Ratio (y) = 0.56510 0.27835
# Poissons Ratio (z) = 0.21493 0.21493
#
# Static dielectric constant tensor:
#      x y z
#    x 3.443500 0.000000 0.000000 
#    y 0.000000 3.443500 0.000000 
#    z 0.000000 0.000000 3.450130 
# 
# 
# High freq. dielectric constant tensor:
#      x y z
#    x 1.707500 0.000000 0.000000 
#    y 0.000000 1.707500 0.000000 
#    z 0.000000 0.000000 1.735220 
# 
# From -- ./inp_files/6220.got.cif
#   From: 2010.03.12/outbox.cif.g09.slc.cpg/sg121_4_cif.got.tgz:6220.got - 2010.04.06 16:06:48.
