data_PCOD8311912
_publ_section_title
;
Structure prediction by ZEFSAII (Michael W. Deem and Ramdas Pophale) SiO2 
 PCOD8311912
Probable space group: I -4 2 D
;
_chemical_formula_sum "Si O2"
_cell_formula_units_Z 56
_cell_length_a 22.508903
_cell_length_b 22.508903
_cell_length_c 5.243484
_cell_angle_alpha 90.000000
_cell_angle_beta 90.000000
_cell_angle_gamma 90.000000
_cell_volume 2656.614914
_symmetry_space_group_name_H-M "I -4 2 D"
_symmetry_group_IT_number 122
_symmetry_cell_setting 'tetragonal'
loop_
_space_group_symop_operation_xyz
x,y,z
y,-x,-z
-x,-y,z
-y,x,-z
x,1/2-y,1/4-z
-x,1/2+y,1/4-z
-y,1/2-x,1/4+z
y,1/2+x,1/4+z
1/2+x,1/2+y,1/2+z
1/2+y,1/2-x,1/2-z
1/2-x,1/2-y,1/2+z
1/2-y,1/2+x,1/2-z
1/2+x,-y,3/4-z
1/2-x,y,3/4-z
1/2-y,-x,3/4+z
1/2+y,x,3/4+z
loop_
_atom_site_type_symbol
_atom_site_label
_atom_site_fract_x
_atom_site_fract_y
_atom_site_fract_z
Si Si1 0.100846 0.905438 0.697590
Si Si2 0.250000 0.404288 0.375000
Si Si3 0.366146 0.038022 0.965422
Si Si4 0.309343 0.311610 0.729127
O O1 0.062799 0.909151 0.437902
O O2 0.156086 0.862118 0.618160
O O3 0.128619 0.967554 0.779016
O O4 0.060336 0.883840 0.933822
O O5 0.296911 0.445365 0.220154
O O6 0.292627 0.361524 0.529329
O O7 0.335969 0.250000 0.625000
O O8 0.250000 0.293095 0.875000
#
# Coordination Sequence:
#
# PCOD8311912 Si02
#       4
#    16   8  16  16
#     4  11  25  42  67  97 128 175 217 264 323 382
#     4  10  22  40  62  90 136 164 206 272 328 374
#     4  11  24  43  65  95 131 172 216 266 322 383
#     4  11  21  39  65  95 125 167 213 268 324 386
#
# _framework density 21.079454999999999
#
# number of rings (size 3 to 8) (size 9 to 14) (size 15 to 20)
#    0.000    1.143    4.286    1.714    2.000    3.429 
#    0.000    0.000    0.000    0.000    0.000    0.000 
#    0.000    0.000    0.000    0.000    0.000    0.000 
#
# Total GULP energy -346926.577829 kJ/mol
# GULP energy per Si atom -12390.234922 kJ/mol
# Density = 2.103148 g / cm^3
# Si number density = 21.079455 Si / 1000 Ang^3
#
#
#
# Elastic Constant Matrix: (Units=GPa)
#
#
# Indices 1 2 3 4 5 6 
#
# 1 108.0414 46.2673 8.6245 0.0000 0.0000 0.0000
# 2 46.2673 108.0414 8.6245 0.0000 0.0000 0.0000
# 3 8.6245 8.6245 83.7402 0.0000 0.0000 0.0000
# 4 0.0000 0.0000 0.0000 -41.3394 0.0000 0.0000
# 5 0.0000 0.0000 0.0000 0.0000 -41.3394 0.0000
# 6 0.0000 0.0000 0.0000 0.0000 0.0000 19.9682
#
#
#
# Elastic Compliance Matrix: (Units=1/GPa)
#
#
# Indices 1 2 3 4 5 6 
#
# 1 0.011372 -0.004816 -0.000675 0.000000 0.000000 0.000000
# 2 -0.004816 0.011372 -0.000675 0.000000 0.000000 0.000000
# 3 -0.000675 -0.000675 0.012081 0.000000 0.000000 0.000000
# 4 0.000000 0.000000 0.000000 -0.024190 0.000000 0.000000
# 5 0.000000 0.000000 0.000000 0.000000 -0.024190 0.000000
# 6 0.000000 0.000000 0.000000 0.000000 0.000000 0.050080
#
#
# Mechanical properties :
#
#
# Convention : Reuss Voigt Hill
#
# Bulk Modulus (GPa) = 44.46039 47.42840 45.94440
# Shear Modulus (GPa) = 88.72382 3.21167 45.96775
#
# Velocity S-wave (km/s) = 6.49473 1.23568 4.67485
# Velocity P-wave (km/s) = 8.79657 4.95828 7.14018
#
# Compressibility (1/GPa) = 0.02249193
#
# Stress axis : x y z
#
# Youngs Moduli (GPa) = 87.93522 87.93522 82.77610
#
# Poissons Ratio (x) = 0.42350 0.05589
# Poissons Ratio (y) = 0.42350 0.05589
# Poissons Ratio (z) = 0.05937 0.05937
#
# Static dielectric constant tensor:
#      x y z
#    x 4.686500 0.000000 0.000000 
#    y 0.000000 4.686500 0.000000 
#    z 0.000000 0.000000 3.642860 
# 
# 
# High freq. dielectric constant tensor:
#      x y z
#    x 1.833380 0.000000 0.000000 
#    y 0.000000 1.833380 0.000000 
#    z 0.000000 0.000000 1.813570 
# 
# From -- ./inp_files/839.got.cif
#   From: 2010.03.12/outbox.cif.g09.slc.cpg/sg122_1_cif.got.tgz:839.got - 2010.04.06 16:17:16.
