data_PCOD8311622
_publ_section_title
;
Structure prediction by ZEFSAII (Michael W. Deem and Ramdas Pophale) SiO2 
 PCOD8311622
Probable space group: I -4 2 M
;
_chemical_formula_sum "Si O2"
_cell_formula_units_Z 80
_cell_length_a 11.646495
_cell_length_b 11.646495
_cell_length_c 26.697749
_cell_angle_alpha 90.000000
_cell_angle_beta 90.000000
_cell_angle_gamma 90.000000
_cell_volume 3621.305255
_symmetry_space_group_name_H-M "I -4 2 M"
_symmetry_group_IT_number 121
_symmetry_cell_setting 'tetragonal'
loop_
_space_group_symop_operation_xyz
x,y,z
y,-x,-z
-x,-y,z
-y,x,-z
x,-y,-z
-x,y,-z
-y,-x,z
y,x,z
1/2+x,1/2+y,1/2+z
1/2+y,1/2-x,1/2-z
1/2-x,1/2-y,1/2+z
1/2-y,1/2+x,1/2-z
1/2+x,1/2-y,1/2-z
1/2-x,1/2+y,1/2-z
1/2-y,1/2-x,1/2+z
1/2+y,1/2+x,1/2+z
loop_
_atom_site_type_symbol
_atom_site_label
_atom_site_fract_x
_atom_site_fract_y
_atom_site_fract_z
Si Si1 0.387038 0.200911 0.535149
Si Si2 0.485400 0.870098 0.096870
Si Si3 0.263415 0.921854 0.307752
Si Si4 0.743821 0.563530 0.391773
Si Si5 0.447911 0.260624 0.708648
O O1 0.500000 0.199985 0.500000
O O2 0.280708 0.280708 0.515822
O O3 0.346115 0.070127 0.548973
O O4 0.433685 0.256492 0.586912
O O5 0.506153 0.783201 0.141978
O O6 0.349760 0.862169 0.083444
O O7 0.500000 0.000000 0.116673
O O8 0.166628 0.833373 0.323192
O O9 0.377959 0.857587 0.289993
O O10 0.218495 0.002165 0.263555
O O11 0.628083 0.628083 0.407584
O O12 0.750891 0.551504 0.331537
O O13 0.369040 0.369040 0.694414
#
# Coordination Sequence:
#
# PCOD8311622 Si02
#       5
#    16  16  16  16  16
#     4  11  23  41  66  97 129 167 212 269 336 401
#     4  10  21  39  61  85 121 166 213 260 320 390
#     4  11  22  36  56  82 116 162 214 265 320 384
#     4  11  23  39  61  92 129 168 212 269 332 393
#     4  11  23  37  57  87 124 170 223 279 337 394
#
# _framework density 22.091481000000002
#
# number of rings (size 3 to 8) (size 9 to 14) (size 15 to 20)
#    0.000    1.200    4.000    3.600    0.000    9.800 
#    0.000    0.000    0.000    1.800    0.000    0.000 
#    0.000   16.000    0.000    0.000    0.000    0.000 
#
# Total GULP energy -495760.185056 kJ/mol
# GULP energy per Si atom -12394.004626 kJ/mol
# Density = 2.204120 g / cm^3
# Si number density = 22.091481 Si / 1000 Ang^3
#
#
#
# Elastic Constant Matrix: (Units=GPa)
#
#
# Indices 1 2 3 4 5 6 
#
# 1 70.8561 28.1788 15.2476 0.0000 0.0000 0.0000
# 2 28.1788 70.8575 15.2479 0.0000 0.0000 0.0000
# 3 15.2476 15.2479 74.5320 0.0000 0.0000 0.0000
# 4 0.0000 0.0000 0.0000 29.4607 0.0000 0.0000
# 5 0.0000 0.0000 0.0000 0.0000 29.4596 0.0000
# 6 0.0000 0.0000 0.0000 0.0000 0.0000 25.3048
#
#
#
# Elastic Compliance Matrix: (Units=1/GPa)
#
#
# Indices 1 2 3 4 5 6 
#
# 1 0.017104 -0.006328 -0.002205 0.000000 0.000000 0.000000
# 2 -0.006328 0.017104 -0.002205 0.000000 0.000000 0.000000
# 3 -0.002205 -0.002205 0.014319 0.000000 0.000000 0.000000
# 4 0.000000 0.000000 0.000000 0.033944 0.000000 0.000000
# 5 0.000000 0.000000 0.000000 0.000000 0.033945 0.000000
# 6 0.000000 0.000000 0.000000 0.000000 0.000000 0.039518
#
#
# Mechanical properties :
#
#
# Convention : Reuss Voigt Hill
#
# Bulk Modulus (GPa) = 36.96431 37.06606 37.01518
# Shear Modulus (GPa) = 26.82055 27.34978 27.08517
#
# Velocity S-wave (km/s) = 3.48813 3.52237 3.50529
# Velocity P-wave (km/s) = 5.74382 5.77561 5.75974
#
# Compressibility (1/GPa) = 0.02705312
#
# Stress axis : x y z
#
# Youngs Moduli (GPa) = 58.46616 58.46727 69.83686
#
# Poissons Ratio (x) = 0.36995 0.15396
# Poissons Ratio (y) = 0.36995 0.15396
# Poissons Ratio (z) = 0.12889 0.12890
#
# Static dielectric constant tensor:
#      x y z
#    x 3.995070 0.000000 0.000000 
#    y 0.000000 3.995070 0.000000 
#    z 0.000000 0.000000 4.047270 
# 
# 
# High freq. dielectric constant tensor:
#      x y z
#    x 1.854810 0.000000 0.000000 
#    y 0.000000 1.854810 0.000000 
#    z 0.000000 0.000000 1.872170 
# 
# From -- ./inp_files/8081.got.cif
#   From: 2010.03.12/outbox.cif.g09.slc.cpg/sg121_5_cif.got.tgz:8081.got - 2010.04.06 16:06:48.
