data_PCOD8311138
_publ_section_title
;
Structure prediction by ZEFSAII (Michael W. Deem and Ramdas Pophale) SiO2 
 PCOD8311138
Probable space group: I -4 C 2
;
_chemical_formula_sum "Si O2"
_cell_formula_units_Z 80
_cell_length_a 16.614521
_cell_length_b 16.614521
_cell_length_c 13.316053
_cell_angle_alpha 90.000000
_cell_angle_beta 90.000000
_cell_angle_gamma 90.000000
_cell_volume 3675.794004
_symmetry_space_group_name_H-M "I -4 C 2"
_symmetry_group_IT_number 120
_symmetry_cell_setting 'tetragonal'
loop_
_space_group_symop_operation_xyz
x,y,z
y,-x,-z
-x,-y,z
-y,x,-z
y,x,1/2-z
-y,-x,1/2-z
-x,y,1/2+z
x,-y,1/2+z
1/2+x,1/2+y,1/2+z
1/2+y,1/2-x,1/2-z
1/2-x,1/2-y,1/2+z
1/2-y,1/2+x,1/2-z
1/2+y,1/2+x,-z
1/2-y,1/2-x,-z
1/2-x,1/2+y,z
1/2+x,1/2-y,z
loop_
_atom_site_type_symbol
_atom_site_label
_atom_site_fract_x
_atom_site_fract_y
_atom_site_fract_z
Si Si1 0.701213 0.987425 0.158973
Si Si2 0.734420 0.540488 0.965789
Si Si3 0.873741 0.651431 0.179881
Si Si4 0.059406 0.170026 0.695837
Si Si5 0.701343 0.713608 0.417199
O O1 0.669520 0.903789 0.206219
O O2 0.631410 0.055558 0.162474
O O3 0.777892 0.020040 0.218366
O O4 0.732122 0.973968 0.045070
O O5 0.811637 0.561462 0.897156
O O6 0.662042 0.503610 0.896960
O O7 0.700234 0.617089 0.024507
O O8 0.788799 0.694333 0.158691
O O9 0.086281 0.086281 0.750000
O O10 0.136107 0.218613 0.650786
O O11 0.770845 0.729156 0.500000
#
# Coordination Sequence:
#
# PCOD8311138 Si02
#       5
#    16  16  16  16  16
#     4  10  19  34  54  83 118 154 190 234 287 349
#     4   9  19  33  53  82 111 150 184 234 292 342
#     4   9  18  32  53  75 115 158 189 228 284 341
#     4  11  19  33  59  86 108 144 189 239 292 334
#     4   9  18  36  56  82 117 150 186 239 292 341
#
# _framework density 21.764005999999998
#
# number of rings (size 3 to 8) (size 9 to 14) (size 15 to 20)
#    0.000    2.400    4.000    1.800    0.000    2.000 
#    0.000    3.000    0.000   12.600    5.200    0.000 
#    0.000    0.000    0.000    0.000    0.000    0.000 
#
# Total GULP energy -495641.031113 kJ/mol
# GULP energy per Si atom -12391.025778 kJ/mol
# Density = 2.171447 g / cm^3
# Si number density = 21.764006 Si / 1000 Ang^3
#
#
#
# Elastic Constant Matrix: (Units=GPa)
#
#
# Indices 1 2 3 4 5 6 
#
# 1 41.1535 11.9590 13.4971 0.0000 0.0000 0.0000
# 2 11.9590 41.1539 13.4969 0.0000 0.0000 0.0000
# 3 13.4971 13.4969 100.2028 0.0000 0.0000 0.0000
# 4 0.0000 0.0000 0.0000 24.8102 0.0000 0.0000
# 5 0.0000 0.0000 0.0000 0.0000 24.8102 0.0000
# 6 0.0000 0.0000 0.0000 0.0000 0.0000 26.1309
#
#
#
# Elastic Compliance Matrix: (Units=1/GPa)
#
#
# Indices 1 2 3 4 5 6 
#
# 1 0.027232 -0.007021 -0.002722 0.000000 0.000000 0.000000
# 2 -0.007021 0.027232 -0.002722 0.000000 0.000000 0.000000
# 3 -0.002722 -0.002722 0.010713 0.000000 0.000000 0.000000
# 4 0.000000 0.000000 0.000000 0.040306 0.000000 0.000000
# 5 0.000000 0.000000 0.000000 0.000000 0.040306 0.000000
# 6 0.000000 0.000000 0.000000 0.000000 0.000000 0.038269
#
#
# Mechanical properties :
#
#
# Convention : Reuss Voigt Hill
#
# Bulk Modulus (GPa) = 24.84685 28.93513 26.89099
# Shear Modulus (GPa) = 22.48154 24.72076 23.60115
#
# Velocity S-wave (km/s) = 3.21747 3.37390 3.29661
# Velocity P-wave (km/s) = 5.02435 5.33867 5.18389
#
# Compressibility (1/GPa) = 0.04024655
#
# Stress axis : x y z
#
# Youngs Moduli (GPa) = 36.72104 36.72150 93.34309
#
# Poissons Ratio (x) = 0.25781 0.25413
# Poissons Ratio (y) = 0.25780 0.25412
# Poissons Ratio (z) = 0.09997 0.09997
#
# Static dielectric constant tensor:
#      x y z
#    x 3.748600 0.000000 0.000000 
#    y 0.000000 3.748590 0.000000 
#    z 0.000000 0.000000 4.520980 
# 
# 
# High freq. dielectric constant tensor:
#      x y z
#    x 1.820910 0.000000 0.000000 
#    y 0.000000 1.820910 0.000000 
#    z 0.000000 0.000000 1.884270 
# 
# From -- ./inp_files/3427.got.cif
#   From: 2010.03.12/outbox.cif.g09.slc.cpg/sg120_2_cif.got.tgz:3427.got - 2010.04.06 16:00:44.
