data_PCOD8311110
_publ_section_title
;
Structure prediction by ZEFSAII (Michael W. Deem and Ramdas Pophale) SiO2 
 PCOD8311110
Probable space group: I -4 C 2
;
_chemical_formula_sum "Si O2"
_cell_formula_units_Z 104
_cell_length_a 28.308531
_cell_length_b 28.308531
_cell_length_c 7.641547
_cell_angle_alpha 90.000000
_cell_angle_beta 90.000000
_cell_angle_gamma 90.000000
_cell_volume 6123.728889
_symmetry_space_group_name_H-M "I -4 C 2"
_symmetry_group_IT_number 120
_symmetry_cell_setting 'tetragonal'
loop_
_space_group_symop_operation_xyz
x,y,z
y,-x,-z
-x,-y,z
-y,x,-z
y,x,1/2-z
-y,-x,1/2-z
-x,y,1/2+z
x,-y,1/2+z
1/2+x,1/2+y,1/2+z
1/2+y,1/2-x,1/2-z
1/2-x,1/2-y,1/2+z
1/2-y,1/2+x,1/2-z
1/2+y,1/2+x,-z
1/2-y,1/2-x,-z
1/2-x,1/2+y,z
1/2+x,1/2-y,z
loop_
_atom_site_type_symbol
_atom_site_label
_atom_site_fract_x
_atom_site_fract_y
_atom_site_fract_z
Si Si1 0.683082 0.553284 0.255830
Si Si2 0.306669 0.351374 0.090115
Si Si3 0.621743 0.200166 0.991732
Si Si4 0.951327 0.705799 0.704203
Si Si5 0.211714 0.446465 0.691996
Si Si6 0.642150 0.642150 0.750000
Si Si7 0.677350 0.547487 0.646741
O O1 0.669632 0.598315 0.140068
O O2 0.739022 0.547936 0.257121
O O3 0.664609 0.561747 0.450253
O O4 0.659158 0.505743 0.179923
O O5 0.314424 0.314424 0.250000
O O6 0.251414 0.356654 0.049984
O O7 0.334364 0.332601 0.919159
O O8 0.585847 0.182881 0.839201
O O9 0.664919 0.164919 0.000000
O O10 0.595784 0.197842 0.179011
O O11 0.935966 0.693728 0.505355
O O12 0.004752 0.687932 0.740061
O O13 0.267871 0.450465 0.694127
O O14 0.651107 0.586070 0.765506
#
# Coordination Sequence:
#
# PCOD8311110 Si02
#       7
#    16  16  16  16  16   8  16
#     4   9  18  31  50  75 101 124 171 230 281 317
#     4  11  22  38  52  72 105 149 191 225 264 320
#     4  11  23  37  52  80 115 149 189 229 267 320
#     4   9  18  31  57  79 103 138 173 230 290 330
#     4  10  17  33  54  81 104 139 179 223 288 327
#     4  12  20  32  52  76 105 136 180 220 272 332
#     4  10  18  29  50  78 102 127 166 227 281 326
#
# _framework density 16.983117
#
# number of rings (size 3 to 8) (size 9 to 14) (size 15 to 20)
#    0.000    1.846    4.615    0.923    4.308    0.615 
#    1.385    0.000    0.000    0.000    0.000    0.538 
#    0.000    1.846    0.000    0.000    0.000    0.000 
#
# Total GULP energy -644609.535682 kJ/mol
# GULP energy per Si atom -12396.337225 kJ/mol
# Density = 1.694446 g / cm^3
# Si number density = 16.983117 Si / 1000 Ang^3
#
#
#
# Elastic Constant Matrix: (Units=GPa)
#
#
# Indices 1 2 3 4 5 6 
#
# 1 65.3444 40.2669 42.8764 0.0000 0.0000 0.0000
# 2 40.2669 65.3444 42.8764 0.0000 0.0000 0.0000
# 3 42.8764 42.8764 129.1963 0.0000 0.0000 0.0000
# 4 0.0000 0.0000 0.0000 21.0150 0.0000 0.0000
# 5 0.0000 0.0000 0.0000 0.0000 21.0150 0.0000
# 6 0.0000 0.0000 0.0000 0.0000 0.0000 9.7765
#
#
#
# Elastic Compliance Matrix: (Units=1/GPa)
#
#
# Indices 1 2 3 4 5 6 
#
# 1 0.026419 -0.013458 -0.004301 0.000000 0.000000 0.000000
# 2 -0.013458 0.026419 -0.004301 0.000000 0.000000 0.000000
# 3 -0.004301 -0.004301 0.010595 0.000000 0.000000 0.000000
# 4 0.000000 0.000000 0.000000 0.047585 0.000000 0.000000
# 5 0.000000 0.000000 0.000000 0.000000 0.047585 0.000000
# 6 0.000000 0.000000 0.000000 0.000000 0.000000 0.102286
#
#
# Mechanical properties :
#
#
# Convention : Reuss Voigt Hill
#
# Bulk Modulus (GPa) = 51.78134 56.88050 54.33092
# Shear Modulus (GPa) = 16.05406 19.28567 17.66987
#
# Velocity S-wave (km/s) = 3.07790 3.37349 3.22908
# Velocity P-wave (km/s) = 6.57171 6.98133 6.77962
#
# Compressibility (1/GPa) = 0.01931198
#
# Stress axis : x y z
#
# Youngs Moduli (GPa) = 37.85168 37.85168 94.38219
#
# Poissons Ratio (x) = 0.50939 0.40598
# Poissons Ratio (y) = 0.50939 0.40598
# Poissons Ratio (z) = 0.16282 0.16282
#
# Static dielectric constant tensor:
#      x y z
#    x 2.951370 0.000000 0.000000 
#    y 0.000000 2.951370 0.000000 
#    z 0.000000 0.000000 3.487280 
# 
# 
# High freq. dielectric constant tensor:
#      x y z
#    x 1.618520 0.000000 0.000000 
#    y 0.000000 1.618520 0.000000 
#    z 0.000000 0.000000 1.681720 
# 
# From -- ./inp_files/1688.got.cif
#   From: 2010.03.12/outbox.cif.g09.slc.cpg/sg120_1_cif.got.tgz:1688.got - 2010.04.06 16:00:44.
