data_PCOD8311841
_publ_section_title
;
Structure prediction by ZEFSAII (Michael W. Deem and Ramdas Pophale) SiO2 
 PCOD8311841
Probable space group: I -4 2 D
;
_chemical_formula_sum "Si O2"
_cell_formula_units_Z 76
_cell_length_a 26.391775
_cell_length_b 26.391775
_cell_length_c 6.132313
_cell_angle_alpha 90.000000
_cell_angle_beta 90.000000
_cell_angle_gamma 90.000000
_cell_volume 4271.314142
_symmetry_space_group_name_H-M "I -4 2 D"
_symmetry_group_IT_number 122
_symmetry_cell_setting 'tetragonal'
loop_
_space_group_symop_operation_xyz
x,y,z
y,-x,-z
-x,-y,z
-y,x,-z
x,1/2-y,1/4-z
-x,1/2+y,1/4-z
-y,1/2-x,1/4+z
y,1/2+x,1/4+z
1/2+x,1/2+y,1/2+z
1/2+y,1/2-x,1/2-z
1/2-x,1/2-y,1/2+z
1/2-y,1/2+x,1/2-z
1/2+x,-y,3/4-z
1/2-x,y,3/4-z
1/2-y,-x,3/4+z
1/2+y,x,3/4+z
loop_
_atom_site_type_symbol
_atom_site_label
_atom_site_fract_x
_atom_site_fract_y
_atom_site_fract_z
Si Si1 0.601154 0.908913 0.669190
Si Si2 0.750000 0.015760 0.375000
Si Si3 0.961712 0.662400 0.903108
Si Si4 0.500000 0.000000 0.250000
Si Si5 0.019475 0.407654 0.518052
Si Si6 0.699882 0.956939 0.755802
O O1 0.588954 0.867428 0.480324
O O2 0.661204 0.909479 0.725273
O O3 0.586483 0.966158 0.606094
O O4 0.566476 0.890398 0.870090
O O5 0.713349 0.980100 0.520179
O O6 0.716653 0.050940 0.211717
O O7 0.989541 0.629868 0.718826
O O8 0.999935 0.671690 0.103174
O O9 0.536860 0.034570 0.395331
O O10 0.750000 0.936155 0.875000
#
# Coordination Sequence:
#
# PCOD8311841 Si02
#       6
#    16   8  16   4  16  16
#     4  12  21  34  49  80 107 153 187 235 274 344
#     4  10  20  40  54  74 104 162 188 246 274 332
#     4  11  21  35  54  75 108 153 196 233 280 333
#     4  12  20  30  44  68 118 152 188 218 264 316
#     4  12  22  32  48  77 114 152 190 221 268 332
#     4  10  22  37  55  73 106 154 188 228 286 342
#
# _framework density 17.793119999999998
#
# number of rings (size 3 to 8) (size 9 to 14) (size 15 to 20)
#    0.000    0.842    6.316    2.526    0.000    0.000 
#    0.000    0.000    0.000    0.000    0.000    0.000 
#    0.000    0.000  325.684    0.000    0.000    0.000 
#
# Total GULP energy -470881.472046 kJ/mol
# GULP energy per Si atom -12391.617685 kJ/mol
# Density = 1.775262 g / cm^3
# Si number density = 17.793120 Si / 1000 Ang^3
#
#
#
# Elastic Constant Matrix: (Units=GPa)
#
#
# Indices 1 2 3 4 5 6 
#
# 1 90.3864 26.6830 35.5498 0.0000 0.0000 0.0000
# 2 26.6830 90.3864 35.5498 0.0000 0.0000 0.0000
# 3 35.5498 35.5498 96.9999 0.0000 0.0000 0.0000
# 4 0.0000 0.0000 0.0000 33.1530 0.0000 0.0000
# 5 0.0000 0.0000 0.0000 0.0000 33.1530 0.0000
# 6 0.0000 0.0000 0.0000 0.0000 0.0000 15.8984
#
#
#
# Elastic Compliance Matrix: (Units=1/GPa)
#
#
# Indices 1 2 3 4 5 6 
#
# 1 0.013343 -0.002355 -0.004027 0.000000 0.000000 0.000000
# 2 -0.002355 0.013343 -0.004027 0.000000 0.000000 0.000000
# 3 -0.004027 -0.004027 0.013261 0.000000 0.000000 0.000000
# 4 0.000000 0.000000 0.000000 0.030163 0.000000 0.000000
# 5 0.000000 0.000000 0.000000 0.000000 0.030163 0.000000
# 6 0.000000 0.000000 0.000000 0.000000 0.000000 0.062899
#
#
# Mechanical properties :
#
#
# Convention : Reuss Voigt Hill
#
# Bulk Modulus (GPa) = 52.27777 52.59312 52.43545
# Shear Modulus (GPa) = 26.26522 28.44022 27.35272
#
# Velocity S-wave (km/s) = 3.84623 4.00232 3.92505
# Velocity P-wave (km/s) = 7.01208 7.14005 7.07636
#
# Compressibility (1/GPa) = 0.01912859
#
# Stress axis : x y z
#
# Youngs Moduli (GPa) = 74.94755 74.94755 75.40949
#
# Poissons Ratio (x) = 0.17651 0.30366
# Poissons Ratio (y) = 0.17651 0.30366
# Poissons Ratio (z) = 0.30180 0.30180
#
# Static dielectric constant tensor:
#      x y z
#    x 3.260500 0.000000 0.000000 
#    y 0.000000 3.260500 0.000000 
#    z 0.000000 0.000000 3.695170 
# 
# 
# High freq. dielectric constant tensor:
#      x y z
#    x 1.658390 0.000000 0.000000 
#    y 0.000000 1.658390 0.000000 
#    z 0.000000 0.000000 1.717980 
# 
# From -- ./inp_files/1330.got.cif
#   From: 2010.03.12/outbox.cif.g09.slc.cpg/sg122_1_cif.got.tgz:1330.got - 2010.04.06 16:17:16.
