data_PCOD8311544
_publ_section_title
;
Structure prediction by ZEFSAII (Michael W. Deem and Ramdas Pophale) SiO2 
 PCOD8311544
Probable space group: I -4 2 M
;
_chemical_formula_sum "Si O2"
_cell_formula_units_Z 128
_cell_length_a 23.721732
_cell_length_b 23.721732
_cell_length_c 11.905215
_cell_angle_alpha 90.000000
_cell_angle_beta 90.000000
_cell_angle_gamma 90.000000
_cell_volume 6699.309360
_symmetry_space_group_name_H-M "I -4 2 M"
_symmetry_group_IT_number 121
_symmetry_cell_setting 'tetragonal'
loop_
_space_group_symop_operation_xyz
x,y,z
y,-x,-z
-x,-y,z
-y,x,-z
x,-y,-z
-x,y,-z
-y,-x,z
y,x,z
1/2+x,1/2+y,1/2+z
1/2+y,1/2-x,1/2-z
1/2-x,1/2-y,1/2+z
1/2-y,1/2+x,1/2-z
1/2+x,1/2-y,1/2-z
1/2-x,1/2+y,1/2-z
1/2-y,1/2-x,1/2+z
1/2+y,1/2+x,1/2+z
loop_
_atom_site_type_symbol
_atom_site_label
_atom_site_fract_x
_atom_site_fract_y
_atom_site_fract_z
Si Si1 0.639756 0.828725 0.031963
Si Si2 0.751133 0.060548 0.167658
Si Si3 0.212009 0.125822 0.613531
Si Si4 0.943599 0.644150 0.337339
Si Si5 0.768056 0.861731 0.030859
Si Si6 0.855080 0.942396 0.438757
Si Si7 0.766755 0.060258 0.764845
Si Si8 0.637751 0.067809 0.271435
O O1 0.641573 0.761351 0.026458
O O2 0.702460 0.849741 0.008107
O O3 0.622130 0.844387 0.157306
O O4 0.591172 0.854197 0.952650
O O5 0.768851 0.086719 0.285664
O O6 0.682363 0.060986 0.168307
O O7 0.771830 0.996248 0.161071
O O8 0.781562 0.092773 0.065862
O O9 0.183320 0.183320 0.660350
O O10 0.167670 0.092936 0.541188
O O11 0.930919 0.702852 0.275514
O O12 0.923011 0.587090 0.274692
O O13 0.011132 0.635876 0.347969
O O14 0.805917 0.805917 0.015320
O O15 0.781319 0.887316 0.153672
O O16 0.911660 0.911660 0.392008
O O17 0.809579 0.945865 0.338791
O O18 0.871514 0.000000 0.500000
#
# Coordination Sequence:
#
# PCOD8311544 Si02
#       8
#    16  16  16  16  16  16  16  16
#     4  11  21  38  56  89 122 156 194 247 314 369
#     4  10  21  38  61  81 119 163 206 245 295 356
#     4  10  20  35  59  88 116 150 197 246 300 366
#     4  11  21  39  60  84 118 155 204 253 304 355
#     4  12  24  38  59  89 127 161 198 247 305 367
#     4  11  22  39  64  93 122 154 197 248 304 365
#     4  11  22  40  61  87 122 164 202 248 296 362
#     4  10  22  37  61  84 113 157 203 257 299 356
#
# _framework density 19.106446999999999
#
# number of rings (size 3 to 8) (size 9 to 14) (size 15 to 20)
#    0.000    1.250    5.000    1.875    0.000    0.375 
#    0.000    1.875    0.000    1.500    0.000    0.000 
#    0.000    2.000    0.000    0.000    0.000    0.000 
#
# Total GULP energy -793032.522688 kJ/mol
# GULP energy per Si atom -12391.133167 kJ/mol
# Density = 1.906296 g / cm^3
# Si number density = 19.106447 Si / 1000 Ang^3
#
#
#
# Elastic Constant Matrix: (Units=GPa)
#
#
# Indices 1 2 3 4 5 6 
#
# 1 91.7183 53.2526 25.0883 0.0000 0.0000 0.0000
# 2 53.2526 91.7183 25.0883 0.0000 0.0000 0.0000
# 3 25.0883 25.0883 62.8566 0.0000 0.0000 0.0000
# 4 0.0000 0.0000 0.0000 27.1854 0.0000 0.0000
# 5 0.0000 0.0000 0.0000 0.0000 27.1854 0.0000
# 6 0.0000 0.0000 0.0000 0.0000 0.0000 26.3213
#
#
#
# Elastic Compliance Matrix: (Units=1/GPa)
#
#
# Indices 1 2 3 4 5 6 
#
# 1 0.017000 -0.008997 -0.003195 0.000000 0.000000 0.000000
# 2 -0.008997 0.017000 -0.003195 0.000000 0.000000 0.000000
# 3 -0.003195 -0.003195 0.018459 0.000000 0.000000 0.000000
# 4 0.000000 0.000000 0.000000 0.036784 0.000000 0.000000
# 5 0.000000 0.000000 0.000000 0.000000 0.036784 0.000000
# 6 0.000000 0.000000 0.000000 0.000000 0.000000 0.037992
#
#
# Mechanical properties :
#
#
# Convention : Reuss Voigt Hill
#
# Bulk Modulus (GPa) = 46.10751 50.35017 48.22884
# Shear Modulus (GPa) = 24.74974 25.66268 25.20621
#
# Velocity S-wave (km/s) = 3.60302 3.66887 3.63609
# Velocity P-wave (km/s) = 6.44153 6.66011 6.55173
#
# Compressibility (1/GPa) = 0.02168844
#
# Stress axis : x y z
#
# Youngs Moduli (GPa) = 58.82208 58.82208 54.17322
#
# Poissons Ratio (x) = 0.52921 0.17306
# Poissons Ratio (y) = 0.52921 0.17306
# Poissons Ratio (z) = 0.18791 0.18791
#
# Static dielectric constant tensor:
#      x y z
#    x 4.107880 0.000000 0.000000 
#    y 0.000000 4.107880 0.000000 
#    z 0.000000 0.000000 3.305960 
# 
# 
# High freq. dielectric constant tensor:
#      x y z
#    x 1.741490 0.000000 0.000000 
#    y 0.000000 1.741490 0.000000 
#    z 0.000000 0.000000 1.735330 
# 
# From -- ./inp_files/3541.got.cif
#   From: 2010.03.12/outbox.cif.g09.slc.cpg/sg121_2_cif.got.tgz:3541.got - 2010.04.06 16:06:48.
