data_PCOD8311914
_publ_section_title
;
Structure prediction by ZEFSAII (Michael W. Deem and Ramdas Pophale) SiO2 
 PCOD8311914
Probable space group: I -4 2 D
;
_chemical_formula_sum "Si O2"
_cell_formula_units_Z 120
_cell_length_a 19.944286
_cell_length_b 19.944286
_cell_length_c 14.704007
_cell_angle_alpha 90.000000
_cell_angle_beta 90.000000
_cell_angle_gamma 90.000000
_cell_volume 5848.879680
_symmetry_space_group_name_H-M "I -4 2 D"
_symmetry_group_IT_number 122
_symmetry_cell_setting 'tetragonal'
loop_
_space_group_symop_operation_xyz
x,y,z
y,-x,-z
-x,-y,z
-y,x,-z
x,1/2-y,1/4-z
-x,1/2+y,1/4-z
-y,1/2-x,1/4+z
y,1/2+x,1/4+z
1/2+x,1/2+y,1/2+z
1/2+y,1/2-x,1/2-z
1/2-x,1/2-y,1/2+z
1/2-y,1/2+x,1/2-z
1/2+x,-y,3/4-z
1/2-x,y,3/4-z
1/2-y,-x,3/4+z
1/2+y,x,3/4+z
loop_
_atom_site_type_symbol
_atom_site_label
_atom_site_fract_x
_atom_site_fract_y
_atom_site_fract_z
Si Si1 0.901231 0.457035 0.738915
Si Si2 0.117283 0.174077 0.140881
Si Si3 0.127156 0.173844 0.638122
Si Si4 0.136793 0.750000 0.125000
Si Si5 0.400965 0.952408 0.739426
Si Si6 0.240833 0.092606 0.070854
Si Si7 0.182685 0.890818 0.164688
Si Si8 0.196148 0.950881 0.668879
O O1 0.915569 0.530977 0.776882
O O2 0.850654 0.420552 0.807359
O O3 0.869615 0.465955 0.639420
O O4 0.143380 0.250000 0.125000
O O5 0.062968 0.156146 0.063732
O O6 0.179735 0.122318 0.131895
O O7 0.077296 0.169188 0.235464
O O8 0.150579 0.250000 0.625000
O O9 0.192677 0.128524 0.644151
O O10 0.084849 0.170280 0.732088
O O11 0.096832 0.723414 0.213381
O O12 0.179753 0.810670 0.162896
O O13 0.468427 0.913014 0.766251
O O14 0.374989 0.927790 0.642120
O O15 0.252737 0.013705 0.081383
O O16 0.258552 0.896407 0.130669
#
# Coordination Sequence:
#
# PCOD8311914 Si02
#       8
#    16  16  16   8  16  16  16  16
#     4  11  25  48  67  95 135 177 230 290 350 410
#     4  12  25  41  68 106 144 181 233 293 349 428
#     4  11  23  43  72  93 129 176 230 287 341 410
#     4  10  22  40  64  98 136 180 212 276 346 400
#     4  11  25  43  64  99 145 184 223 280 351 430
#     4  11  24  42  70 102 136 182 228 284 354 420
#     4  11  23  40  67  98 132 174 230 275 344 414
#     4  12  25  43  69 100 133 184 230 283 352 419
#
# _framework density 20.516749000000001
#
# number of rings (size 3 to 8) (size 9 to 14) (size 15 to 20)
#    0.000    0.800    5.333    1.200    4.667    3.200 
#    0.000    2.667    0.000    0.000    0.000    0.000 
#    0.000    0.000    0.000    0.000    0.000    0.000 
#
# Total GULP energy -743836.537189 kJ/mol
# GULP energy per Si atom -12397.275620 kJ/mol
# Density = 2.047005 g / cm^3
# Si number density = 20.516749 Si / 1000 Ang^3
#
#
#
# Elastic Constant Matrix: (Units=GPa)
#
#
# Indices 1 2 3 4 5 6 
#
# 1 83.9140 27.5299 38.6978 0.0000 0.0000 0.0000
# 2 27.5299 83.9140 38.6978 0.0000 0.0000 0.0000
# 3 38.6978 38.6978 122.3948 0.0000 0.0000 0.0000
# 4 0.0000 0.0000 0.0000 29.6567 0.0000 0.0000
# 5 0.0000 0.0000 0.0000 0.0000 29.6567 0.0000
# 6 0.0000 0.0000 0.0000 0.0000 0.0000 34.7767
#
#
#
# Elastic Compliance Matrix: (Units=1/GPa)
#
#
# Indices 1 2 3 4 5 6 
#
# 1 0.014617 -0.003119 -0.003635 0.000000 0.000000 0.000000
# 2 -0.003119 0.014617 -0.003635 0.000000 0.000000 0.000000
# 3 -0.003635 -0.003635 0.010469 0.000000 0.000000 0.000000
# 4 0.000000 0.000000 0.000000 0.033719 0.000000 0.000000
# 5 0.000000 0.000000 0.000000 0.000000 0.033719 0.000000
# 6 0.000000 0.000000 0.000000 0.000000 0.000000 0.028755
#
#
# Mechanical properties :
#
#
# Convention : Reuss Voigt Hill
#
# Bulk Modulus (GPa) = 52.84447 55.56374 54.20410
# Shear Modulus (GPa) = 30.67820 31.17117 30.92468
#
# Velocity S-wave (km/s) = 3.87107 3.90205 3.88659
# Velocity P-wave (km/s) = 6.76705 6.88784 6.82771
#
# Compressibility (1/GPa) = 0.01892346
#
# Stress axis : x y z
#
# Youngs Moduli (GPa) = 68.41530 68.41530 95.52000
#
# Poissons Ratio (x) = 0.21338 0.34724
# Poissons Ratio (y) = 0.21338 0.34724
# Poissons Ratio (z) = 0.24871 0.24871
#
# Static dielectric constant tensor:
#      x y z
#    x 3.744150 0.000000 0.000000 
#    y 0.000000 3.744150 0.000000 
#    z 0.000000 0.000000 3.912710 
# 
# 
# High freq. dielectric constant tensor:
#      x y z
#    x 1.809120 0.000000 0.000000 
#    y 0.000000 1.809120 0.000000 
#    z 0.000000 0.000000 1.806690 
# 
# From -- ./inp_files/5571.got.cif
#   From: 2010.03.12/outbox.cif.g09.slc.cpg/sg122_3_cif.got.tgz:5571.got - 2010.04.06 16:17:16.
