data_PCOD8311977
_publ_section_title
;
Structure prediction by ZEFSAII (Michael W. Deem and Ramdas Pophale) SiO2 
 PCOD8311977
Probable space group: I -4 2 D
;
_chemical_formula_sum "Si O2"
_cell_formula_units_Z 96
_cell_length_a 20.803555
_cell_length_b 20.803555
_cell_length_c 10.591635
_cell_angle_alpha 90.000000
_cell_angle_beta 90.000000
_cell_angle_gamma 90.000000
_cell_volume 4583.931476
_symmetry_space_group_name_H-M "I -4 2 D"
_symmetry_group_IT_number 122
_symmetry_cell_setting 'tetragonal'
loop_
_space_group_symop_operation_xyz
x,y,z
y,-x,-z
-x,-y,z
-y,x,-z
x,1/2-y,1/4-z
-x,1/2+y,1/4-z
-y,1/2-x,1/4+z
y,1/2+x,1/4+z
1/2+x,1/2+y,1/2+z
1/2+y,1/2-x,1/2-z
1/2-x,1/2-y,1/2+z
1/2-y,1/2+x,1/2-z
1/2+x,-y,3/4-z
1/2-x,y,3/4-z
1/2-y,-x,3/4+z
1/2+y,x,3/4+z
loop_
_atom_site_type_symbol
_atom_site_label
_atom_site_fract_x
_atom_site_fract_y
_atom_site_fract_z
Si Si1 0.665374 0.672096 0.978155
Si Si2 0.221467 0.369287 0.141699
Si Si3 0.776136 0.019028 0.103649
Si Si4 0.250000 0.928804 0.375000
Si Si5 0.656315 0.405388 0.252734
Si Si6 0.531955 0.596487 0.530665
Si Si7 0.250000 0.280101 0.375000
O O1 0.624353 0.628794 0.878616
O O2 0.687064 0.736046 0.899948
O O3 0.727389 0.635065 0.027441
O O4 0.617442 0.690118 0.091732
O O5 0.220503 0.443671 0.180980
O O6 0.243408 0.325021 0.255077
O O7 0.153998 0.338547 0.100172
O O8 0.768653 0.027596 0.254551
O O9 0.721406 0.055400 0.024530
O O10 0.842153 0.049625 0.054337
O O11 0.607533 0.454888 0.319704
O O12 0.578303 0.542014 0.477742
#
# Coordination Sequence:
#
# PCOD8311977 Si02
#       7
#    16  16  16   8  16  16   8
#     4  11  23  41  68  98 135 173 211 284 350 405
#     4  12  25  42  68 101 139 175 224 281 350 411
#     4  11  27  41  69  96 134 180 227 278 336 406
#     4  10  24  43  58  97 130 176 220 264 332 404
#     4  11  25  42  66  99 132 172 224 278 340 407
#     4  11  25  44  67  94 130 179 224 279 335 397
#     4  12  24  35  64 105 134 166 208 270 352 408
#
# _framework density 20.942720999999999
#
# number of rings (size 3 to 8) (size 9 to 14) (size 15 to 20)
#    0.000    0.833    5.000    0.500   11.667    1.333 
#    0.000    0.000    0.000    0.000    0.000    0.000 
#    0.000    0.000    0.000    0.000    0.000    0.000 
#
# Total GULP energy -595000.711105 kJ/mol
# GULP energy per Si atom -12395.848148 kJ/mol
# Density = 2.089505 g / cm^3
# Si number density = 20.942721 Si / 1000 Ang^3
#
#
#
# Elastic Constant Matrix: (Units=GPa)
#
#
# Indices 1 2 3 4 5 6 
#
# 1 108.4412 39.3631 51.3086 0.0000 0.0000 0.0000
# 2 39.3631 108.4412 51.3086 0.0000 0.0000 0.0000
# 3 51.3086 51.3086 118.0078 0.0000 0.0000 0.0000
# 4 0.0000 0.0000 0.0000 28.1135 0.0000 0.0000
# 5 0.0000 0.0000 0.0000 0.0000 28.1135 0.0000
# 6 0.0000 0.0000 0.0000 0.0000 0.0000 24.9187
#
#
#
# Elastic Compliance Matrix: (Units=1/GPa)
#
#
# Indices 1 2 3 4 5 6 
#
# 1 0.012084 -0.002393 -0.004214 0.000000 0.000000 0.000000
# 2 -0.002393 0.012084 -0.004214 0.000000 0.000000 0.000000
# 3 -0.004214 -0.004214 0.012138 0.000000 0.000000 0.000000
# 4 0.000000 0.000000 0.000000 0.035570 0.000000 0.000000
# 5 0.000000 0.000000 0.000000 0.000000 0.035570 0.000000
# 6 0.000000 0.000000 0.000000 0.000000 0.000000 0.040131
#
#
# Mechanical properties :
#
#
# Convention : Reuss Voigt Hill
#
# Bulk Modulus (GPa) = 68.18536 68.76121 68.47329
# Shear Modulus (GPa) = 28.71836 29.08979 28.90408
#
# Velocity S-wave (km/s) = 3.70710 3.73099 3.71907
# Velocity P-wave (km/s) = 7.13808 7.17389 7.15601
#
# Compressibility (1/GPa) = 0.01466590
#
# Stress axis : x y z
#
# Youngs Moduli (GPa) = 82.75587 82.75587 82.38535
#
# Poissons Ratio (x) = 0.19800 0.34714
# Poissons Ratio (y) = 0.19800 0.34714
# Poissons Ratio (z) = 0.34870 0.34870
#
# Static dielectric constant tensor:
#      x y z
#    x 3.809720 0.000000 0.000000 
#    y 0.000000 3.809720 0.000000 
#    z 0.000000 0.000000 3.987260 
# 
# 
# High freq. dielectric constant tensor:
#      x y z
#    x 1.815250 0.000000 0.000000 
#    y 0.000000 1.815250 0.000000 
#    z 0.000000 0.000000 1.832100 
# 
# From -- ./inp_files/4506.got.cif
#   From: 2010.03.12/outbox.cif.g09.slc.cpg/sg122_3_cif.got.tgz:4506.got - 2010.04.06 16:17:16.
