data_PCOD8311267
_publ_section_title
;
Structure prediction by ZEFSAII (Michael W. Deem and Ramdas Pophale) SiO2 
 PCOD8311267
Probable space group: I -4 C 2
;
_chemical_formula_sum "Si O2"
_cell_formula_units_Z 28
_cell_length_a 12.582231
_cell_length_b 12.582231
_cell_length_c 8.434125
_cell_angle_alpha 90.000000
_cell_angle_beta 90.000000
_cell_angle_gamma 90.000000
_cell_volume 1335.227726
_symmetry_space_group_name_H-M "I -4 C 2"
_symmetry_group_IT_number 120
_symmetry_cell_setting 'tetragonal'
loop_
_space_group_symop_operation_xyz
x,y,z
y,-x,-z
-x,-y,z
-y,x,-z
y,x,1/2-z
-y,-x,1/2-z
-x,y,1/2+z
x,-y,1/2+z
1/2+x,1/2+y,1/2+z
1/2+y,1/2-x,1/2-z
1/2-x,1/2-y,1/2+z
1/2-y,1/2+x,1/2-z
1/2+y,1/2+x,-z
1/2-y,1/2-x,-z
1/2-x,1/2+y,z
1/2+x,1/2-y,z
loop_
_atom_site_type_symbol
_atom_site_label
_atom_site_fract_x
_atom_site_fract_y
_atom_site_fract_z
Si Si1 0.125522 0.874479 0.750000
Si Si2 0.000000 0.000000 0.000000
Si Si3 0.135324 0.571676 0.176031
O O1 0.247527 0.889232 0.710285
O O2 0.094135 0.948319 0.897849
O O3 0.128446 0.444345 0.199272
O O4 0.101421 0.601421 0.000000
#
# Coordination Sequence:
#
# PCOD8311267 Si02
#       3
#     8   4  16
#     4  11  24  44  66  91 130 168 204 263 316 362
#     4  10  24  42  64  98 124 162 220 250 304 394
#     4  11  24  41  65  95 127 165 212 257 310 376
#
# _framework density 20.970205
#
# number of rings (size 3 to 8) (size 9 to 14) (size 15 to 20)
#    0.000    1.143    0.000    6.857    0.000   13.714 
#    0.000    0.000    0.000    0.000    0.000    0.000 
#    0.000    0.000    0.000    0.000    0.000    0.000 
#
# Total GULP energy -173648.393902 kJ/mol
# GULP energy per Si atom -12403.456707 kJ/mol
# Density = 2.092248 g / cm^3
# Si number density = 20.970205 Si / 1000 Ang^3
#
#
#
# Elastic Constant Matrix: (Units=GPa)
#
#
# Indices 1 2 3 4 5 6 
#
# 1 149.2806 44.4415 78.9927 0.0000 0.0000 0.0000
# 2 44.4415 149.2812 78.9923 0.0000 0.0000 0.0000
# 3 78.9927 78.9923 170.6003 0.0000 0.0000 0.0000
# 4 0.0000 0.0000 0.0000 4.4636 0.0000 0.0000
# 5 0.0000 0.0000 0.0000 0.0000 4.5203 0.0000
# 6 0.0000 0.0000 0.0000 0.0000 0.0000 25.2104
#
#
#
# Elastic Compliance Matrix: (Units=1/GPa)
#
#
# Indices 1 2 3 4 5 6 
#
# 1 0.008916 -0.000622 -0.003840 0.000000 0.000000 0.000000
# 2 -0.000622 0.008916 -0.003840 0.000000 0.000000 0.000000
# 3 -0.003840 -0.003840 0.009418 0.000000 0.000000 0.000000
# 4 0.000000 0.000000 0.000000 0.224036 0.000000 0.000000
# 5 0.000000 0.000000 0.000000 0.000000 0.221222 0.000000
# 6 0.000000 0.000000 0.000000 0.000000 0.000000 0.039666
#
#
# Mechanical properties :
#
#
# Convention : Reuss Voigt Hill
#
# Bulk Modulus (GPa) = 93.94469 97.11280 95.52874
# Shear Modulus (GPa) = 9.39271 24.62123 17.00697
#
# Velocity S-wave (km/s) = 2.11868 3.43024 2.85091
# Velocity P-wave (km/s) = 7.13312 7.88030 7.51600
#
# Compressibility (1/GPa) = 0.01064456
#
# Stress axis : x y z
#
# Youngs Moduli (GPa) = 112.15580 112.15668 106.18007
#
# Poissons Ratio (x) = 0.06979 0.40776
# Poissons Ratio (y) = 0.06979 0.40776
# Poissons Ratio (z) = 0.43071 0.43071
#
# Static dielectric constant tensor:
#      x y z
#    x 4.896310 0.000000 0.000000 
#    y 0.000000 4.899240 0.000000 
#    z 0.000000 0.000000 4.128870 
# 
# 
# High freq. dielectric constant tensor:
#      x y z
#    x 1.829480 0.000000 0.000000 
#    y 0.000000 1.829490 0.000000 
#    z 0.000000 0.000000 1.837360 
# 
# From -- ./inp_files/582.got.cif
#   From: 2010.03.12/outbox.cif.g09.slc.cpg/sg120_1_cif.got.tgz:582.got - 2010.04.06 16:00:44.
