data_PCOD8311973
_publ_section_title
;
Structure prediction by ZEFSAII (Michael W. Deem and Ramdas Pophale) SiO2 
 PCOD8311973
Probable space group: I -4 2 D
;
_chemical_formula_sum "Si O2"
_cell_formula_units_Z 76
_cell_length_a 14.244495
_cell_length_b 14.244495
_cell_length_c 18.530201
_cell_angle_alpha 90.000000
_cell_angle_beta 90.000000
_cell_angle_gamma 90.000000
_cell_volume 3759.882253
_symmetry_space_group_name_H-M "I -4 2 D"
_symmetry_group_IT_number 122
_symmetry_cell_setting 'tetragonal'
loop_
_space_group_symop_operation_xyz
x,y,z
y,-x,-z
-x,-y,z
-y,x,-z
x,1/2-y,1/4-z
-x,1/2+y,1/4-z
-y,1/2-x,1/4+z
y,1/2+x,1/4+z
1/2+x,1/2+y,1/2+z
1/2+y,1/2-x,1/2-z
1/2-x,1/2-y,1/2+z
1/2-y,1/2+x,1/2-z
1/2+x,-y,3/4-z
1/2-x,y,3/4-z
1/2-y,-x,3/4+z
1/2+y,x,3/4+z
loop_
_atom_site_type_symbol
_atom_site_label
_atom_site_fract_x
_atom_site_fract_y
_atom_site_fract_z
Si Si1 0.537427 0.600034 0.254304
Si Si2 0.586542 0.431219 0.904968
Si Si3 0.150746 0.401642 0.355975
Si Si4 0.781302 0.932922 0.479347
Si Si5 0.227584 0.750000 0.625000
Si Si6 0.000000 0.000000 0.000000
O O1 0.500000 0.500000 0.278122
O O2 0.593939 0.592759 0.179283
O O3 0.604426 0.628414 0.318635
O O4 0.450304 0.671678 0.245243
O O5 0.500000 0.500000 0.922354
O O6 0.681291 0.480502 0.931838
O O7 0.572350 0.333037 0.944444
O O8 0.250000 0.456799 0.375000
O O9 0.178388 0.295850 0.329502
O O10 0.083406 0.457294 0.300090
O O11 0.799593 0.837917 0.434554
#
# Coordination Sequence:
#
# PCOD8311973 Si02
#       6
#    16  16  16  16   8   4
#     4  11  24  41  65 101 131 183 232 283 351 422
#     4  11  22  36  66 102 138 177 221 274 361 432
#     4  10  26  47  72 102 137 185 244 297 360 414
#     4  12  20  40  68 100 148 181 221 293 353 419
#     4  10  24  42  68 104 140 180 236 298 346 420
#     4  12  24  56  80  96 144 190 244 304 360 452
#
# _framework density 20.213398000000002
#
# number of rings (size 3 to 8) (size 9 to 14) (size 15 to 20)
#    0.632    0.421    5.263    1.263    0.000    3.368 
#    0.000    0.000    0.000    0.000    0.000    0.000 
#    0.000    0.000    0.000    0.000    0.000    0.000 
#
# Total GULP energy -470806.474427 kJ/mol
# GULP energy per Si atom -12389.644064 kJ/mol
# Density = 2.016739 g / cm^3
# Si number density = 20.213398 Si / 1000 Ang^3
#
#
#
# Elastic Constant Matrix: (Units=GPa)
#
#
# Indices 1 2 3 4 5 6 
#
# 1 111.2075 34.8594 36.9259 0.0000 0.0000 0.0000
# 2 34.8594 111.2075 36.9259 0.0000 0.0000 0.0000
# 3 36.9259 36.9259 113.2762 0.0000 0.0000 0.0000
# 4 0.0000 0.0000 0.0000 24.7922 0.0000 0.0000
# 5 0.0000 0.0000 0.0000 0.0000 24.7922 0.0000
# 6 0.0000 0.0000 0.0000 0.0000 0.0000 30.8339
#
#
#
# Elastic Compliance Matrix: (Units=1/GPa)
#
#
# Indices 1 2 3 4 5 6 
#
# 1 0.010648 -0.002450 -0.002672 0.000000 0.000000 0.000000
# 2 -0.002450 0.010648 -0.002672 0.000000 0.000000 0.000000
# 3 -0.002672 -0.002672 0.010570 0.000000 0.000000 0.000000
# 4 0.000000 0.000000 0.000000 0.040335 0.000000 0.000000
# 5 0.000000 0.000000 0.000000 0.000000 0.040335 0.000000
# 6 0.000000 0.000000 0.000000 0.000000 0.000000 0.032432
#
#
# Mechanical properties :
#
#
# Convention : Reuss Voigt Hill
#
# Bulk Modulus (GPa) = 61.44018 61.45707 61.44863
# Shear Modulus (GPa) = 30.12372 31.21566 30.66969
#
# Velocity S-wave (km/s) = 3.86461 3.93403 3.89947
# Velocity P-wave (km/s) = 7.09756 7.14882 7.12323
#
# Compressibility (1/GPa) = 0.01627599
#
# Stress axis : x y z
#
# Youngs Moduli (GPa) = 93.91819 93.91820 94.60632
#
# Poissons Ratio (x) = 0.23013 0.25280
# Poissons Ratio (y) = 0.23013 0.25280
# Poissons Ratio (z) = 0.25096 0.25096
#
# Static dielectric constant tensor:
#      x y z
#    x 3.699700 0.000000 0.000000 
#    y 0.000000 3.699700 0.000000 
#    z 0.000000 0.000000 3.688910 
# 
# 
# High freq. dielectric constant tensor:
#      x y z
#    x 1.784330 0.000000 0.000000 
#    y 0.000000 1.784330 0.000000 
#    z 0.000000 0.000000 1.791910 
# 
# From -- ./inp_files/7127.got.cif
#   From: 2010.03.12/outbox.cif.g09.slc.cpg/sg122_4_cif.got.tgz:7127.got - 2010.04.06 16:17:16.
