data_PCOD8311572
_publ_section_title
;
Structure prediction by ZEFSAII (Michael W. Deem and Ramdas Pophale) SiO2 
 PCOD8311572
Probable space group: I -4 2 M
;
_chemical_formula_sum "Si O2"
_cell_formula_units_Z 56
_cell_length_a 16.650259
_cell_length_b 16.650259
_cell_length_c 7.823034
_cell_angle_alpha 90.000000
_cell_angle_beta 90.000000
_cell_angle_gamma 90.000000
_cell_volume 2168.788515
_symmetry_space_group_name_H-M "I -4 2 M"
_symmetry_group_IT_number 121
_symmetry_cell_setting 'tetragonal'
loop_
_space_group_symop_operation_xyz
x,y,z
y,-x,-z
-x,-y,z
-y,x,-z
x,-y,-z
-x,y,-z
-y,-x,z
y,x,z
1/2+x,1/2+y,1/2+z
1/2+y,1/2-x,1/2-z
1/2-x,1/2-y,1/2+z
1/2-y,1/2+x,1/2-z
1/2+x,1/2-y,1/2-z
1/2-x,1/2+y,1/2-z
1/2-y,1/2-x,1/2+z
1/2+y,1/2+x,1/2+z
loop_
_atom_site_type_symbol
_atom_site_label
_atom_site_fract_x
_atom_site_fract_y
_atom_site_fract_z
Si Si1 0.099660 0.350906 0.192378
Si Si2 0.106687 0.759522 0.120502
Si Si3 0.000000 0.383241 0.500000
Si Si4 0.370224 0.495737 0.808855
O O1 0.190773 0.370225 0.243965
O O2 0.045369 0.329188 0.356647
O O3 0.094640 0.275191 0.068566
O O4 0.064429 0.430719 0.095309
O O5 0.179014 0.820987 0.120264
O O6 0.023106 0.801824 0.175723
O O7 0.443599 0.556402 0.799005
O O8 0.406285 0.406285 0.764184
O O9 0.333883 0.500000 0.000000
#
# Coordination Sequence:
#
# PCOD8311572 Si02
#       4
#    16  16   8  16
#     4  10  23  41  66  97 138 182 237 300 371 442
#     4  10  20  37  66 101 140 190 245 304 367 446
#     4  10  24  43  66  98 130 169 220 294 366 439
#     4   8  15  30  58 101 147 190 241 301 366 438
#
# _framework density 25.820869999999999
#
# number of rings (size 3 to 8) (size 9 to 14) (size 15 to 20)
#    0.000    2.571    0.000    1.714    2.000    6.286 
#    0.000    0.000    0.000   15.429    0.000    6.000 
#    0.000   38.857    0.000    0.000    0.000    0.000 
#
# Total GULP energy -347032.739868 kJ/mol
# GULP energy per Si atom -12394.026424 kJ/mol
# Density = 2.576210 g / cm^3
# Si number density = 25.820870 Si / 1000 Ang^3
#
#
#
# Elastic Constant Matrix: (Units=GPa)
#
#
# Indices 1 2 3 4 5 6 
#
# 1 135.9423 76.1858 86.9703 0.0000 0.0000 0.0000
# 2 76.1858 135.9434 86.9713 0.0000 0.0000 0.0000
# 3 86.9703 86.9713 195.4562 0.0000 0.0000 0.0000
# 4 0.0000 0.0000 0.0000 38.7336 0.0000 0.0000
# 5 0.0000 0.0000 0.0000 0.0000 38.7262 0.0000
# 6 0.0000 0.0000 0.0000 0.0000 0.0000 32.3889
#
#
#
# Elastic Compliance Matrix: (Units=1/GPa)
#
#
# Indices 1 2 3 4 5 6 
#
# 1 0.012078 -0.004656 -0.003303 0.000000 0.000000 0.000000
# 2 -0.004656 0.012078 -0.003303 0.000000 0.000000 0.000000
# 3 -0.003303 -0.003303 0.008055 0.000000 0.000000 0.000000
# 4 0.000000 0.000000 0.000000 0.025817 0.000000 0.000000
# 5 0.000000 0.000000 0.000000 0.000000 0.025822 0.000000
# 6 0.000000 0.000000 0.000000 0.000000 0.000000 0.030875
#
#
# Mechanical properties :
#
#
# Convention : Reuss Voigt Hill
#
# Bulk Modulus (GPa) = 103.20676 107.51073 105.35875
# Shear Modulus (GPa) = 35.59257 36.45072 36.02164
#
# Velocity S-wave (km/s) = 3.71677 3.76130 3.73910
# Velocity P-wave (km/s) = 7.64697 7.78401 7.71579
#
# Compressibility (1/GPa) = 0.00968929
#
# Stress axis : x y z
#
# Youngs Moduli (GPa) = 82.79300 82.79315 124.14179
#
# Poissons Ratio (x) = 0.38549 0.40999
# Poissons Ratio (y) = 0.38549 0.41000
# Poissons Ratio (z) = 0.27343 0.27344
#
# Static dielectric constant tensor:
#      x y z
#    x 4.844980 0.000000 0.000000 
#    y 0.000000 4.845010 0.000000 
#    z 0.000000 0.000000 5.105240 
# 
# 
# High freq. dielectric constant tensor:
#      x y z
#    x 2.030980 0.000000 0.000000 
#    y 0.000000 2.030980 0.000000 
#    z 0.000000 0.000000 2.047480 
# 
# From -- ./inp_files/1347.got.cif
#   From: 2010.03.12/outbox.cif.g09.slc.cpg/sg121_1_cif.got.tgz:1347.got - 2010.04.06 16:06:48.
