data_PCOD8311099
_publ_section_title
;
Structure prediction by ZEFSAII (Michael W. Deem and Ramdas Pophale) SiO2 
 PCOD8311099
Probable space group: I -4 M 2
;
_chemical_formula_sum "Si O2"
_cell_formula_units_Z 96
_cell_length_a 26.936236
_cell_length_b 26.936236
_cell_length_c 10.447480
_cell_angle_alpha 90.000000
_cell_angle_beta 90.000000
_cell_angle_gamma 90.000000
_cell_volume 7580.282050
_symmetry_space_group_name_H-M "I -4 M 2"
_symmetry_group_IT_number 119
_symmetry_cell_setting 'tetragonal'
loop_
_space_group_symop_operation_xyz
x,y,z
y,-x,-z
-x,-y,z
-y,x,-z
y,x,-z
-y,-x,-z
-x,y,z
x,-y,z
1/2+x,1/2+y,1/2+z
1/2+y,1/2-x,1/2-z
1/2-x,1/2-y,1/2+z
1/2-y,1/2+x,1/2-z
1/2+y,1/2+x,1/2-z
1/2-y,1/2-x,1/2-z
1/2-x,1/2+y,1/2+z
1/2+x,1/2-y,1/2+z
loop_
_atom_site_type_symbol
_atom_site_label
_atom_site_fract_x
_atom_site_fract_y
_atom_site_fract_z
Si Si1 0.863651 0.556514 0.400310
Si Si2 0.286865 0.129684 0.990421
Si Si3 0.336307 0.247442 0.249999
Si Si4 0.870316 0.286865 0.490419
Si Si5 0.363651 0.056514 0.599691
Si Si6 0.756808 0.826989 0.750001
O O1 0.872309 0.500000 0.442930
O O2 0.815339 0.577561 0.473012
O O3 0.912894 0.587106 0.438687
O O4 0.853358 0.561465 0.250000
O O5 0.247812 0.138646 0.875795
O O6 0.257719 0.129154 0.124791
O O7 0.326517 0.173483 0.986779
O O8 0.294719 0.205282 0.250000
O O9 0.370846 0.242282 0.124787
O O10 0.310660 0.301317 0.250001
O O11 0.922439 0.315339 0.473011
O O12 0.861354 0.247812 0.375791
O O13 0.372308 0.000000 0.557071
O O14 0.714317 0.785683 0.750000
#
# Coordination Sequence:
#
# PCOD8311099 Si02
#       6
#    16  16  16  16  16  16
#     4   9  16  26  39  52  66  87 116 152 193 228
#     4   9  15  24  35  50  70  89 109 136 171 209
#     4   9  16  22  33  52  71  89 108 129 161 208
#     4   9  15  24  35  50  70  89 109 136 171 209
#     4   9  16  26  39  52  66  87 116 152 193 228
#     4   9  14  22  35  50  69  91 110 129 159 202
#
# _framework density 12.664437
#
# number of rings (size 3 to 8) (size 9 to 14) (size 15 to 20)
#    0.000    3.000    1.667    1.000    0.000    4.333 
#    0.000    2.500    0.000    0.000    0.000    0.000 
#    0.000    6.667    0.000    0.000    0.000    0.000 
#
# Total GULP energy -595034.905926 kJ/mol
# GULP energy per Si atom -12396.560540 kJ/mol
# Density = 1.263561 g / cm^3
# Si number density = 12.664437 Si / 1000 Ang^3
#
#
#
# Elastic Constant Matrix: (Units=GPa)
#
#
# Indices 1 2 3 4 5 6 
#
# 1 54.2561 53.2341 37.4345 0.0000 0.0000 0.0000
# 2 53.2341 54.2561 37.4345 0.0000 0.0000 0.0000
# 3 37.4345 37.4345 94.9569 0.0000 0.0000 0.0000
# 4 0.0000 0.0000 0.0000 9.5095 0.0000 0.0000
# 5 0.0000 0.0000 0.0000 0.0000 9.5093 0.0000
# 6 0.0000 0.0000 0.0000 0.0000 0.0000 14.5773
#
#
#
# Elastic Compliance Matrix: (Units=1/GPa)
#
#
# Indices 1 2 3 4 5 6 
#
# 1 0.495632 -0.482807 -0.005056 0.000000 0.000000 0.000000
# 2 -0.482807 0.495631 -0.005055 0.000000 0.000000 0.000000
# 3 -0.005056 -0.005055 0.014517 0.000000 0.000000 0.000000
# 4 0.000000 0.000000 0.000000 0.105157 0.000000 0.000000
# 5 0.000000 0.000000 0.000000 0.000000 0.105160 0.000000
# 6 0.000000 0.000000 0.000000 0.000000 0.000000 0.068600
#
#
# Mechanical properties :
#
#
# Convention : Reuss Voigt Hill
#
# Bulk Modulus (GPa) = 50.14188 51.07503 50.60846
# Shear Modulus (GPa) = 2.19569 11.74362 6.96966
#
# Velocity S-wave (km/s) = 1.31815 3.04845 2.34846
# Velocity P-wave (km/s) = 6.48038 7.26690 6.88488
#
# Compressibility (1/GPa) = 0.01994341
#
# Stress axis : x y z
#
# Youngs Moduli (GPa) = 2.01763 2.01763 68.88304
#
# Poissons Ratio (x) = 0.97413 0.34828
# Poissons Ratio (y) = 0.97412 0.34824
# Poissons Ratio (z) = 0.01020 0.01020
#
# Static dielectric constant tensor:
#      x y z
#    x 2.371770 0.000000 0.000000 
#    y 0.000000 2.371780 0.000000 
#    z 0.000000 0.000000 2.731530 
# 
# 
# High freq. dielectric constant tensor:
#      x y z
#    x 1.444160 0.000000 0.000000 
#    y 0.000000 1.444160 0.000000 
#    z 0.000000 0.000000 1.485300 
# 
# From -- ./inp_files/2782.got.cif
#   From: 2010.03.12/outbox.cif.g09.slc.cpg/sg119_2_cif.got.tgz:2782.got - 2010.04.14 02:25:26.
