data_PCOD8311484
_publ_section_title
;
Structure prediction by ZEFSAII (Michael W. Deem and Ramdas Pophale) SiO2 
 PCOD8311484
Probable space group: I -4 2 M
;
_chemical_formula_sum "Si O2"
_cell_formula_units_Z 64
_cell_length_a 19.799894
_cell_length_b 19.799894
_cell_length_c 9.096339
_cell_angle_alpha 90.000000
_cell_angle_beta 90.000000
_cell_angle_gamma 90.000000
_cell_volume 3566.090559
_symmetry_space_group_name_H-M "I -4 2 M"
_symmetry_group_IT_number 121
_symmetry_cell_setting 'tetragonal'
loop_
_space_group_symop_operation_xyz
x,y,z
y,-x,-z
-x,-y,z
-y,x,-z
x,-y,-z
-x,y,-z
-y,-x,z
y,x,z
1/2+x,1/2+y,1/2+z
1/2+y,1/2-x,1/2-z
1/2-x,1/2-y,1/2+z
1/2-y,1/2+x,1/2-z
1/2+x,1/2-y,1/2-z
1/2-x,1/2+y,1/2-z
1/2-y,1/2-x,1/2+z
1/2+y,1/2+x,1/2+z
loop_
_atom_site_type_symbol
_atom_site_label
_atom_site_fract_x
_atom_site_fract_y
_atom_site_fract_z
Si Si1 0.336513 0.072437 0.956438
Si Si2 0.922339 0.188075 0.531962
Si Si3 0.186893 0.623956 0.852815
Si Si4 0.262317 0.369866 0.666356
O O1 0.329883 0.074333 0.781440
O O2 0.386982 0.130511 0.018877
O O3 0.262294 0.082227 0.032713
O O4 0.366650 0.000000 0.000000
O O5 0.881739 0.118262 0.520175
O O6 0.892069 0.239340 0.412804
O O7 0.915415 0.220330 0.693212
O O8 0.000000 0.172351 0.500000
O O9 0.182584 0.701397 0.793657
O O10 0.327351 0.327351 0.615268
#
# Coordination Sequence:
#
# PCOD8311484 Si02
#       4
#    16  16  16  16
#     4  10  20  34  55  82 112 144 181 232 283 333
#     4  11  22  37  59  85 116 152 188 233 282 334
#     4  10  19  34  57  82 110 144 189 230 285 327
#     4   9  18  34  54  82 109 142 186 233 279 328
#
# _framework density 17.946826000000001
#
# number of rings (size 3 to 8) (size 9 to 14) (size 15 to 20)
#    1.500    0.500    2.500    2.250    0.000    2.250 
#    0.000    0.000    0.000    6.000    0.000    0.000 
#    0.000    6.000    0.000    0.000    0.000    0.000 
#
# Total GULP energy -396582.177184 kJ/mol
# GULP energy per Si atom -12393.193037 kJ/mol
# Density = 1.790598 g / cm^3
# Si number density = 17.946826 Si / 1000 Ang^3
#
#
#
# Elastic Constant Matrix: (Units=GPa)
#
#
# Indices 1 2 3 4 5 6 
#
# 1 89.9647 35.5487 24.2353 0.0000 0.0000 0.0000
# 2 35.5487 89.9664 24.2371 0.0000 0.0000 0.0000
# 3 24.2353 24.2371 75.2823 0.0000 0.0000 0.0000
# 4 0.0000 0.0000 0.0000 23.2520 0.0000 0.0000
# 5 0.0000 0.0000 0.0000 0.0000 23.2520 0.0000
# 6 0.0000 0.0000 0.0000 0.0000 0.0000 9.7120
#
#
#
# Elastic Compliance Matrix: (Units=1/GPa)
#
#
# Indices 1 2 3 4 5 6 
#
# 1 0.013738 -0.004639 -0.002929 0.000000 0.000000 0.000000
# 2 -0.004639 0.013737 -0.002929 0.000000 0.000000 0.000000
# 3 -0.002929 -0.002929 0.015169 0.000000 0.000000 0.000000
# 4 0.000000 0.000000 0.000000 0.043007 0.000000 0.000000
# 5 0.000000 0.000000 0.000000 0.000000 0.043007 0.000000
# 6 0.000000 0.000000 0.000000 0.000000 0.000000 0.102966
#
#
# Mechanical properties :
#
#
# Convention : Reuss Voigt Hill
#
# Bulk Modulus (GPa) = 46.19008 47.02841 46.60924
# Shear Modulus (GPa) = 19.24295 22.65601 20.94948
#
# Velocity S-wave (km/s) = 3.27803 3.55688 3.42030
# Velocity P-wave (km/s) = 6.33406 6.56732 6.45175
#
# Compressibility (1/GPa) = 0.02164967
#
# Stress axis : x y z
#
# Youngs Moduli (GPa) = 72.79297 72.79346 65.92249
#
# Poissons Ratio (x) = 0.33770 0.19308
# Poissons Ratio (y) = 0.33769 0.19311
# Poissons Ratio (z) = 0.21321 0.21324
#
# Static dielectric constant tensor:
#      x y z
#    x 3.074590 0.000000 0.000000 
#    y 0.000000 3.074590 0.000000 
#    z 0.000000 0.000000 3.232890 
# 
# 
# High freq. dielectric constant tensor:
#      x y z
#    x 1.673930 0.000000 0.000000 
#    y 0.000000 1.673930 0.000000 
#    z 0.000000 0.000000 1.699410 
# 
# From -- ./inp_files/1593.got.cif
#   From: 2010.03.12/outbox.cif.g09.slc.cpg/sg121_1_cif.got.tgz:1593.got - 2010.04.06 16:06:48.
