data_PCOD8311338
_publ_section_title
;
Structure prediction by ZEFSAII (Michael W. Deem and Ramdas Pophale) SiO2 
 PCOD8311338
Probable space group: I -4 2 M
;
_chemical_formula_sum "Si O2"
_cell_formula_units_Z 74
_cell_length_a 21.831448
_cell_length_b 21.831448
_cell_length_c 9.494935
_cell_angle_alpha 90.000000
_cell_angle_beta 90.000000
_cell_angle_gamma 90.000000
_cell_volume 4525.401116
_symmetry_space_group_name_H-M "I -4 2 M"
_symmetry_group_IT_number 121
_symmetry_cell_setting 'tetragonal'
loop_
_space_group_symop_operation_xyz
x,y,z
y,-x,-z
-x,-y,z
-y,x,-z
x,-y,-z
-x,y,-z
-y,-x,z
y,x,z
1/2+x,1/2+y,1/2+z
1/2+y,1/2-x,1/2-z
1/2-x,1/2-y,1/2+z
1/2-y,1/2+x,1/2-z
1/2+x,1/2-y,1/2-z
1/2-x,1/2+y,1/2-z
1/2-y,1/2-x,1/2+z
1/2+y,1/2+x,1/2+z
loop_
_atom_site_type_symbol
_atom_site_label
_atom_site_fract_x
_atom_site_fract_y
_atom_site_fract_z
Si Si1 0.000000 0.000000 0.000000
Si Si2 0.717481 0.180512 0.980985
Si Si3 0.465740 0.680300 0.281788
Si Si4 0.645150 0.251511 0.185500
Si Si5 0.091131 0.809782 0.083742
Si Si6 0.452167 0.452167 0.769457
O O1 0.957636 0.042365 0.901423
O O2 0.767494 0.232507 0.992585
O O3 0.655425 0.208464 0.048690
O O4 0.743716 0.123818 0.072263
O O5 0.708261 0.161422 0.819199
O O6 0.426411 0.729156 0.190680
O O7 0.431485 0.670110 0.429574
O O8 0.535665 0.700853 0.306873
O O9 0.468089 0.617484 0.191549
O O10 0.687260 0.312741 0.186457
O O11 0.137091 0.862910 0.139874
O O12 0.500000 0.500000 0.843006
#
# Coordination Sequence:
#
# PCOD8311338 Si02
#       6
#     2  16  16  16  16   8
#     4   8  16  16  24  40  72 112 136 138 184 228
#     4   8  15  25  39  53  73 101 133 162 200 233
#     4  10  15  21  32  51  80 105 136 161 196 236
#     4   9  15  26  38  55  74 102 131 166 198 235
#     4   9  15  22  32  52  78 108 133 161 195 240
#     4  10  16  18  26  48  78 116 134 152 192 241
#
# _framework density 16.352141
#
# number of rings (size 3 to 8) (size 9 to 14) (size 15 to 20)
#    0.324    2.595    2.162    3.243    0.000    0.000 
#    0.000    0.000    0.000    1.297    0.000    0.000 
#    0.000    0.865    0.000   20.541    0.000    0.432 
#
# Total GULP energy -458376.709537 kJ/mol
# GULP energy per Si atom -12388.559717 kJ/mol
# Density = 1.631492 g / cm^3
# Si number density = 16.352141 Si / 1000 Ang^3
#
#
#
# Elastic Constant Matrix: (Units=GPa)
#
#
# Indices 1 2 3 4 5 6 
#
# 1 43.5814 19.3888 6.1403 0.0000 0.0000 0.0000
# 2 19.3888 43.5802 6.1401 0.0000 0.0000 0.0000
# 3 6.1403 6.1401 18.7116 0.0000 0.0000 0.0000
# 4 0.0000 0.0000 0.0000 13.2621 0.0000 0.0000
# 5 0.0000 0.0000 0.0000 0.0000 13.2625 0.0000
# 6 0.0000 0.0000 0.0000 0.0000 0.0000 30.4987
#
#
#
# Elastic Compliance Matrix: (Units=1/GPa)
#
#
# Indices 1 2 3 4 5 6 
#
# 1 0.029151 -0.012185 -0.005568 0.000000 0.000000 0.000000
# 2 -0.012185 0.029152 -0.005568 0.000000 0.000000 0.000000
# 3 -0.005568 -0.005568 0.057097 0.000000 0.000000 0.000000
# 4 0.000000 0.000000 0.000000 0.075403 0.000000 0.000000
# 5 0.000000 0.000000 0.000000 0.000000 0.075401 0.000000
# 6 0.000000 0.000000 0.000000 0.000000 0.000000 0.032788
#
#
# Mechanical properties :
#
#
# Convention : Reuss Voigt Hill
#
# Bulk Modulus (GPa) = 14.54342 18.80128 16.67235
# Shear Modulus (GPa) = 13.56666 16.35158 14.95912
#
# Velocity S-wave (km/s) = 2.88350 3.16565 3.02787
# Velocity P-wave (km/s) = 4.47206 4.98844 4.73729
#
# Compressibility (1/GPa) = 0.06875960
#
# Stress axis : x y z
#
# Youngs Moduli (GPa) = 34.30431 34.30339 17.51410
#
# Poissons Ratio (x) = 0.41798 0.09751
# Poissons Ratio (y) = 0.41799 0.09751
# Poissons Ratio (z) = 0.19099 0.19098
#
# Static dielectric constant tensor:
#      x y z
#    x 3.090710 0.000000 0.000000 
#    y 0.000000 3.090720 0.000000 
#    z 0.000000 0.000000 2.860840 
# 
# 
# High freq. dielectric constant tensor:
#      x y z
#    x 1.602370 0.000000 0.000000 
#    y 0.000000 1.602370 0.000000 
#    z 0.000000 0.000000 1.592960 
# 
# From -- ./inp_files/3215.got.cif
#   From: 2010.03.12/outbox.cif.g09.slc.cpg/sg121_2_cif.got.tgz:3215.got - 2010.04.06 16:06:48.
