data_PCOD8311011
_publ_section_title
;
Structure prediction by ZEFSAII (Michael W. Deem and Ramdas Pophale) SiO2 
 PCOD8311011
Probable space group: I -4 M 2
;
_chemical_formula_sum "Si O2"
_cell_formula_units_Z 42
_cell_length_a 8.007321
_cell_length_b 8.007321
_cell_length_c 31.273326
_cell_angle_alpha 90.000000
_cell_angle_beta 90.000000
_cell_angle_gamma 90.000000
_cell_volume 2005.157772
_symmetry_space_group_name_H-M "I -4 M 2"
_symmetry_group_IT_number 119
_symmetry_cell_setting 'tetragonal'
loop_
_space_group_symop_operation_xyz
x,y,z
y,-x,-z
-x,-y,z
-y,x,-z
y,x,-z
-y,-x,-z
-x,y,z
x,-y,z
1/2+x,1/2+y,1/2+z
1/2+y,1/2-x,1/2-z
1/2-x,1/2-y,1/2+z
1/2-y,1/2+x,1/2-z
1/2+y,1/2+x,1/2-z
1/2-y,1/2-x,1/2-z
1/2-x,1/2+y,1/2+z
1/2+x,1/2-y,1/2+z
loop_
_atom_site_type_symbol
_atom_site_label
_atom_site_fract_x
_atom_site_fract_y
_atom_site_fract_z
Si Si1 0.685403 0.312780 0.707539
Si Si2 0.000000 0.000000 0.000000
Si Si3 0.700829 0.000000 0.934663
Si Si4 0.815338 0.806402 0.621975
O O1 0.500000 0.283463 0.689189
O O2 0.716509 0.500000 0.723081
O O3 0.703350 0.203350 0.750000
O O4 0.809461 0.274558 0.668794
O O5 0.000000 0.823805 0.025076
O O6 0.754121 0.832714 0.908985
O O7 0.500000 0.000000 0.946334
O O8 0.000000 0.765146 0.602431
O O9 0.791611 0.000000 0.629640
#
# Coordination Sequence:
#
# PCOD8311011 Si02
#       4
#    16   2   8  16
#     4  11  23  36  54  84 125 169 221 274 323 383
#     4  12  28  44  76 104 132 164 236 268 332 432
#     4  10  24  46  68  98 136 170 210 280 336 394
#     4  10  21  39  64  91 124 170 218 263 330 397
#
# _framework density 20.945979999999999
#
# number of rings (size 3 to 8) (size 9 to 14) (size 15 to 20)
#    0.000    1.524    1.905    2.286    2.667    9.143 
#    0.000    0.000    0.000    0.000    0.000    0.000 
#    0.000    0.000    0.000    0.000    0.000    0.000 
#
# Total GULP energy -260284.092345 kJ/mol
# GULP energy per Si atom -12394.480588 kJ/mol
# Density = 2.089831 g / cm^3
# Si number density = 20.945980 Si / 1000 Ang^3
#
#
#
# Elastic Constant Matrix: (Units=GPa)
#
#
# Indices 1 2 3 4 5 6 
#
# 1 105.5888 44.2164 52.1760 0.0000 0.0000 0.0000
# 2 44.2164 105.5888 52.1760 0.0000 0.0000 0.0000
# 3 52.1760 52.1760 115.5440 0.0000 0.0000 0.0000
# 4 0.0000 0.0000 0.0000 33.5557 0.0000 0.0000
# 5 0.0000 0.0000 0.0000 0.0000 33.5556 0.0000
# 6 0.0000 0.0000 0.0000 0.0000 0.0000 21.9695
#
#
#
# Elastic Compliance Matrix: (Units=1/GPa)
#
#
# Indices 1 2 3 4 5 6 
#
# 1 0.013016 -0.003278 -0.004398 0.000000 0.000000 0.000000
# 2 -0.003278 0.013016 -0.004398 0.000000 0.000000 0.000000
# 3 -0.004398 -0.004398 0.012626 0.000000 0.000000 0.000000
# 4 0.000000 0.000000 0.000000 0.029801 0.000000 0.000000
# 5 0.000000 0.000000 0.000000 0.000000 0.029801 0.000000
# 6 0.000000 0.000000 0.000000 0.000000 0.000000 0.045518
#
#
# Mechanical properties :
#
#
# Convention : Reuss Voigt Hill
#
# Bulk Modulus (GPa) = 68.90343 69.31762 69.11053
# Shear Modulus (GPa) = 28.94140 29.69304 29.31722
#
# Velocity S-wave (km/s) = 3.72118 3.76919 3.74526
# Velocity P-wave (km/s) = 7.17148 7.21857 7.19506
#
# Compressibility (1/GPa) = 0.01451307
#
# Stress axis : x y z
#
# Youngs Moduli (GPa) = 76.82657 76.82658 79.19901
#
# Poissons Ratio (x) = 0.25181 0.34829
# Poissons Ratio (y) = 0.25181 0.34829
# Poissons Ratio (z) = 0.33786 0.33786
#
# Static dielectric constant tensor:
#      x y z
#    x 4.000620 0.000000 0.000000 
#    y 0.000000 4.000620 0.000000 
#    z 0.000000 0.000000 3.429890 
# 
# 
# High freq. dielectric constant tensor:
#      x y z
#    x 1.831580 0.000000 0.000000 
#    y 0.000000 1.831580 0.000000 
#    z 0.000000 0.000000 1.793140 
# 
# From -- ./inp_files/9145.got.cif
#   From: 2010.03.12/outbox.cif.g09.slc.cpg/sg119_5_cif.got.tgz:9145.got - 2010.04.14 02:25:26.
