data_PCOD8311565
_publ_section_title
;
Structure prediction by ZEFSAII (Michael W. Deem and Ramdas Pophale) SiO2 
 PCOD8311565
Probable space group: I -4 2 M
;
_chemical_formula_sum "Si O2"
_cell_formula_units_Z 96
_cell_length_a 15.017740
_cell_length_b 15.017740
_cell_length_c 21.864367
_cell_angle_alpha 90.000000
_cell_angle_beta 90.000000
_cell_angle_gamma 90.000000
_cell_volume 4931.125672
_symmetry_space_group_name_H-M "I -4 2 M"
_symmetry_group_IT_number 121
_symmetry_cell_setting 'tetragonal'
loop_
_space_group_symop_operation_xyz
x,y,z
y,-x,-z
-x,-y,z
-y,x,-z
x,-y,-z
-x,y,-z
-y,-x,z
y,x,z
1/2+x,1/2+y,1/2+z
1/2+y,1/2-x,1/2-z
1/2-x,1/2-y,1/2+z
1/2-y,1/2+x,1/2-z
1/2+x,1/2-y,1/2-z
1/2-x,1/2+y,1/2-z
1/2-y,1/2-x,1/2+z
1/2+y,1/2+x,1/2+z
loop_
_atom_site_type_symbol
_atom_site_label
_atom_site_fract_x
_atom_site_fract_y
_atom_site_fract_z
Si Si1 0.033464 0.818743 0.069391
Si Si2 0.343721 0.206721 0.354931
Si Si3 0.124116 0.732969 0.860310
Si Si4 0.759307 0.385016 0.938214
Si Si5 0.722193 0.582794 0.926548
Si Si6 0.410247 0.103100 0.748774
O O1 0.086455 0.913546 0.079297
O O2 0.097582 0.735782 0.086132
O O3 0.948800 0.803576 0.113912
O O4 0.000000 0.812866 0.000000
O O5 0.294326 0.294326 0.329505
O O6 0.272031 0.133737 0.373309
O O7 0.399136 0.166414 0.299797
O O8 0.210467 0.789534 0.842603
O O9 0.149821 0.656133 0.909896
O O10 0.093630 0.683683 0.798942
O O11 0.679739 0.320262 0.921265
O O12 0.728221 0.479235 0.909964
O O13 0.773413 0.395555 0.010455
O O14 0.619804 0.619804 0.930611
O O15 0.506462 0.104379 0.782877
#
# Coordination Sequence:
#
# PCOD8311565 Si02
#       6
#    16  16  16  16  16  16
#     4  11  23  40  63  92 125 159 202 257 320 382
#     4  10  20  37  58  82 114 154 199 247 304 370
#     4  11  22  38  59  84 117 158 202 249 307 370
#     4   9  18  32  51  80 114 148 192 244 299 367
#     4   9  17  31  53  79 112 151 191 240 301 369
#     4  11  22  38  59  83 115 151 201 254 299 353
#
# _framework density 19.468171000000002
#
# number of rings (size 3 to 8) (size 9 to 14) (size 15 to 20)
#    0.000    1.833    1.667    3.000    0.000    4.167 
#    0.000    1.667    0.000    4.000    0.000    2.333 
#    0.000    0.000    0.000    0.000    0.000    0.000 
#
# Total GULP energy -594666.821422 kJ/mol
# GULP energy per Si atom -12388.892113 kJ/mol
# Density = 1.942386 g / cm^3
# Si number density = 19.468171 Si / 1000 Ang^3
#
#
#
# Elastic Constant Matrix: (Units=GPa)
#
#
# Indices 1 2 3 4 5 6 
#
# 1 107.5556 46.8805 42.0921 0.0000 0.0000 0.0000
# 2 46.8805 107.5588 42.0923 0.0000 0.0000 0.0000
# 3 42.0921 42.0923 76.1555 0.0000 0.0000 0.0000
# 4 0.0000 0.0000 0.0000 28.6499 0.0000 0.0000
# 5 0.0000 0.0000 0.0000 0.0000 28.6497 0.0000
# 6 0.0000 0.0000 0.0000 0.0000 0.0000 28.0073
#
#
#
# Elastic Compliance Matrix: (Units=1/GPa)
#
#
# Indices 1 2 3 4 5 6 
#
# 1 0.012874 -0.003607 -0.005122 0.000000 0.000000 0.000000
# 2 -0.003607 0.012874 -0.005122 0.000000 0.000000 0.000000
# 3 -0.005122 -0.005122 0.018793 0.000000 0.000000 0.000000
# 4 0.000000 0.000000 0.000000 0.034904 0.000000 0.000000
# 5 0.000000 0.000000 0.000000 0.000000 0.034904 0.000000
# 6 0.000000 0.000000 0.000000 0.000000 0.000000 0.035705
#
#
# Mechanical properties :
#
#
# Convention : Reuss Voigt Hill
#
# Bulk Modulus (GPa) = 59.38561 61.48886 60.43724
# Shear Modulus (GPa) = 27.26735 27.74173 27.50454
#
# Velocity S-wave (km/s) = 3.74653 3.77898 3.76279
# Velocity P-wave (km/s) = 7.02037 7.11996 7.07034
#
# Compressibility (1/GPa) = 0.01683910
#
# Stress axis : x y z
#
# Youngs Moduli (GPa) = 77.67465 77.67745 53.21094
#
# Poissons Ratio (x) = 0.28017 0.27256
# Poissons Ratio (y) = 0.28016 0.27255
# Poissons Ratio (z) = 0.39787 0.39786
#
# Static dielectric constant tensor:
#      x y z
#    x 3.744220 0.000000 0.000000 
#    y 0.000000 3.744220 0.000000 
#    z 0.000000 0.000000 3.284970 
# 
# 
# High freq. dielectric constant tensor:
#      x y z
#    x 1.763840 0.000000 0.000000 
#    y 0.000000 1.763840 0.000000 
#    z 0.000000 0.000000 1.735300 
# 
# From -- ./inp_files/6422.got.cif
#   From: 2010.03.12/outbox.cif.g09.slc.cpg/sg121_4_cif.got.tgz:6422.got - 2010.04.06 16:06:48.
