data_PCOD8311453
_publ_section_title
;
Structure prediction by ZEFSAII (Michael W. Deem and Ramdas Pophale) SiO2 
 PCOD8311453
Probable space group: I -4 2 M
;
_chemical_formula_sum "Si O2"
_cell_formula_units_Z 80
_cell_length_a 13.344403
_cell_length_b 13.344403
_cell_length_c 25.583391
_cell_angle_alpha 90.000000
_cell_angle_beta 90.000000
_cell_angle_gamma 90.000000
_cell_volume 4555.713525
_symmetry_space_group_name_H-M "I -4 2 M"
_symmetry_group_IT_number 121
_symmetry_cell_setting 'tetragonal'
loop_
_space_group_symop_operation_xyz
x,y,z
y,-x,-z
-x,-y,z
-y,x,-z
x,-y,-z
-x,y,-z
-y,-x,z
y,x,z
1/2+x,1/2+y,1/2+z
1/2+y,1/2-x,1/2-z
1/2-x,1/2-y,1/2+z
1/2-y,1/2+x,1/2-z
1/2+x,1/2-y,1/2-z
1/2-x,1/2+y,1/2-z
1/2-y,1/2-x,1/2+z
1/2+y,1/2+x,1/2+z
loop_
_atom_site_type_symbol
_atom_site_label
_atom_site_fract_x
_atom_site_fract_y
_atom_site_fract_z
Si Si1 0.707158 0.127574 0.871067
Si Si2 0.079687 0.243714 0.703671
Si Si3 0.608730 0.026107 0.439452
Si Si4 0.738777 0.898332 0.367010
Si Si5 0.742569 0.418662 0.675402
O O1 0.796397 0.203604 0.881379
O O2 0.634825 0.161995 0.823641
O O3 0.643155 0.124392 0.925030
O O4 0.756710 0.021545 0.856734
O O5 0.144071 0.144071 0.694824
O O6 0.062700 0.267136 0.764135
O O7 0.971257 0.224737 0.679002
O O8 0.500000 0.000000 0.415223
O O9 0.610176 0.000000 0.500000
O O10 0.698204 0.961073 0.415612
O O11 0.833281 0.833281 0.386125
O O12 0.651483 0.828943 0.345895
O O13 0.634079 0.365922 0.668331
#
# Coordination Sequence:
#
# PCOD8311453 Si02
#       5
#    16  16  16  16  16
#     4  10  20  35  53  79 110 141 178 224 269 316
#     4   9  19  32  50  76 109 147 185 221 261 312
#     4  10  20  37  59  79 100 131 175 222 270 317
#     4  10  20  34  53  78 108 139 175 220 267 316
#     4  10  19  32  50  77 110 148 185 216 260 316
#
# _framework density 17.560365999999998
#
# number of rings (size 3 to 8) (size 9 to 14) (size 15 to 20)
#    0.000    2.200    2.000    1.200    0.000    4.000 
#    0.000    4.000    0.000    0.000    0.000    2.800 
#    0.000    0.000    0.000    0.000    0.000    0.000 
#
# Total GULP energy -495981.424784 kJ/mol
# GULP energy per Si atom -12399.535620 kJ/mol
# Density = 1.752040 g / cm^3
# Si number density = 17.560366 Si / 1000 Ang^3
#
#
#
# Elastic Constant Matrix: (Units=GPa)
#
#
# Indices 1 2 3 4 5 6 
#
# 1 102.0689 53.1948 36.7183 0.0000 0.0000 0.0000
# 2 53.1948 102.0675 36.7181 0.0000 0.0000 0.0000
# 3 36.7183 36.7181 81.9080 0.0000 0.0000 0.0000
# 4 0.0000 0.0000 0.0000 24.5014 0.0000 0.0000
# 5 0.0000 0.0000 0.0000 0.0000 24.5004 0.0000
# 6 0.0000 0.0000 0.0000 0.0000 0.0000 21.2214
#
#
#
# Elastic Compliance Matrix: (Units=1/GPa)
#
#
# Indices 1 2 3 4 5 6 
#
# 1 0.014317 -0.006144 -0.003664 0.000000 0.000000 0.000000
# 2 -0.006144 0.014318 -0.003664 0.000000 0.000000 0.000000
# 3 -0.003664 -0.003664 0.015494 0.000000 0.000000 0.000000
# 4 0.000000 0.000000 0.000000 0.040814 0.000000 0.000000
# 5 0.000000 0.000000 0.000000 0.000000 0.040816 0.000000
# 6 0.000000 0.000000 0.000000 0.000000 0.000000 0.047122
#
#
# Mechanical properties :
#
#
# Convention : Reuss Voigt Hill
#
# Bulk Modulus (GPa) = 58.19084 59.92295 59.05690
# Shear Modulus (GPa) = 24.32463 24.67219 24.49841
#
# Velocity S-wave (km/s) = 3.72587 3.75239 3.73915
# Velocity P-wave (km/s) = 7.19159 7.27818 7.23502
#
# Compressibility (1/GPa) = 0.01718483
#
# Stress axis : x y z
#
# Youngs Moduli (GPa) = 69.84553 69.84452 64.54100
#
# Poissons Ratio (x) = 0.42910 0.23649
# Poissons Ratio (y) = 0.42911 0.23649
# Poissons Ratio (z) = 0.25593 0.25592
#
# Static dielectric constant tensor:
#      x y z
#    x 3.354250 0.000000 0.000000 
#    y 0.000000 3.354260 0.000000 
#    z 0.000000 0.000000 3.269060 
# 
# 
# High freq. dielectric constant tensor:
#      x y z
#    x 1.684580 0.000000 0.000000 
#    y 0.000000 1.684580 0.000000 
#    z 0.000000 0.000000 1.662850 
# 
# From -- ./inp_files/8045.got.cif
#   From: 2010.03.12/outbox.cif.g09.slc.cpg/sg121_5_cif.got.tgz:8045.got - 2010.04.06 16:06:48.
