data_PCOD8311904
_publ_section_title
;
Structure prediction by ZEFSAII (Michael W. Deem and Ramdas Pophale) SiO2 
 PCOD8311904
Probable space group: I -4 2 D
;
_chemical_formula_sum "Si O2"
_cell_formula_units_Z 52
_cell_length_a 17.657468
_cell_length_b 17.657468
_cell_length_c 8.177078
_cell_angle_alpha 90.000000
_cell_angle_beta 90.000000
_cell_angle_gamma 90.000000
_cell_volume 2549.499882
_symmetry_space_group_name_H-M "I -4 2 D"
_symmetry_group_IT_number 122
_symmetry_cell_setting 'tetragonal'
loop_
_space_group_symop_operation_xyz
x,y,z
y,-x,-z
-x,-y,z
-y,x,-z
x,1/2-y,1/4-z
-x,1/2+y,1/4-z
-y,1/2-x,1/4+z
y,1/2+x,1/4+z
1/2+x,1/2+y,1/2+z
1/2+y,1/2-x,1/2-z
1/2-x,1/2-y,1/2+z
1/2-y,1/2+x,1/2-z
1/2+x,-y,3/4-z
1/2-x,y,3/4-z
1/2-y,-x,3/4+z
1/2+y,x,3/4+z
loop_
_atom_site_type_symbol
_atom_site_label
_atom_site_fract_x
_atom_site_fract_y
_atom_site_fract_z
Si Si1 0.250000 0.638330 0.875000
Si Si2 0.295879 0.750000 0.625000
Si Si3 0.559683 0.176889 0.712235
Si Si4 0.000000 0.000000 0.500000
Si Si5 0.616624 0.043302 0.502199
O O1 0.241090 0.692573 0.718080
O O2 0.323740 0.588214 0.856906
O O3 0.352573 0.797887 0.747034
O O4 0.519175 0.250000 0.625000
O O5 0.561249 0.102071 0.596851
O O6 0.514631 0.157873 0.875888
O O7 0.928063 0.994822 0.381170
#
# Coordination Sequence:
#
# PCOD8311904 Si02
#       5
#     8   8  16   4  16
#     4  10  22  38  62  94 124 164 210 266 324 378
#     4   8  20  40  58  94 126 156 214 262 324 370
#     4   9  21  43  63  86 123 173 216 260 317 396
#     4  12  28  38  64 100 136 170 208 284 324 402
#     4  11  23  42  63  94 128 170 219 261 337 382
#
# _framework density 20.396156999999999
#
# number of rings (size 3 to 8) (size 9 to 14) (size 15 to 20)
#    0.923    1.231    0.000    1.846    4.308    2.462 
#   11.077    0.000    0.000    0.000    0.000    0.000 
#    0.000    0.000    0.000    0.000    0.000    0.000 
#
# Total GULP energy -322130.079586 kJ/mol
# GULP energy per Si atom -12389.618446 kJ/mol
# Density = 2.034973 g / cm^3
# Si number density = 20.396157 Si / 1000 Ang^3
#
#
#
# Elastic Constant Matrix: (Units=GPa)
#
#
# Indices 1 2 3 4 5 6 
#
# 1 94.9215 44.7551 77.6469 0.0000 0.0000 0.0000
# 2 44.7551 94.9215 77.6469 0.0000 0.0000 0.0000
# 3 77.6469 77.6469 131.6993 0.0000 0.0000 0.0000
# 4 0.0000 0.0000 0.0000 44.0143 0.0000 0.0000
# 5 0.0000 0.0000 0.0000 0.0000 44.0143 0.0000
# 6 0.0000 0.0000 0.0000 0.0000 0.0000 18.3847
#
#
#
# Elastic Compliance Matrix: (Units=1/GPa)
#
#
# Indices 1 2 3 4 5 6 
#
# 1 0.020358 0.000424 -0.012252 0.000000 0.000000 0.000000
# 2 0.000424 0.020358 -0.012252 0.000000 0.000000 0.000000
# 3 -0.012252 -0.012252 0.022041 0.000000 0.000000 0.000000
# 4 0.000000 0.000000 0.000000 0.022720 0.000000 0.000000
# 5 0.000000 0.000000 0.000000 0.000000 0.022720 0.000000
# 6 0.000000 0.000000 0.000000 0.000000 0.000000 0.054393
#
#
# Mechanical properties :
#
#
# Convention : Reuss Voigt Hill
#
# Bulk Modulus (GPa) = 68.51977 80.18224 74.35101
# Shear Modulus (GPa) = 23.18943 29.38222 26.28582
#
# Velocity S-wave (km/s) = 3.37553 3.79961 3.59383
# Velocity P-wave (km/s) = 6.98997 7.65814 7.33167
#
# Compressibility (1/GPa) = 0.01459433
#
# Stress axis : x y z
#
# Youngs Moduli (GPa) = 49.12134 49.12134 45.37073
#
# Poissons Ratio (x) = -0.02083 0.55590
# Poissons Ratio (y) = -0.02083 0.55590
# Poissons Ratio (z) = 0.60186 0.60186
#
# Static dielectric constant tensor:
#      x y z
#    x 3.747570 0.000000 0.000000 
#    y 0.000000 3.747570 0.000000 
#    z 0.000000 0.000000 3.534830 
# 
# 
# High freq. dielectric constant tensor:
#      x y z
#    x 1.796650 0.000000 0.000000 
#    y 0.000000 1.796650 0.000000 
#    z 0.000000 0.000000 1.780580 
# 
# From -- ./inp_files/2232.got.cif
#   From: 2010.03.12/outbox.cif.g09.slc.cpg/sg122_2_cif.got.tgz:2232.got - 2010.04.06 16:17:16.
