data_PCOD8311585
_publ_section_title
;
Structure prediction by ZEFSAII (Michael W. Deem and Ramdas Pophale) SiO2 
 PCOD8311585
Probable space group: I -4 2 M
;
_chemical_formula_sum "Si O2"
_cell_formula_units_Z 58
_cell_length_a 15.162653
_cell_length_b 15.162653
_cell_length_c 13.401761
_cell_angle_alpha 90.000000
_cell_angle_beta 90.000000
_cell_angle_gamma 90.000000
_cell_volume 3081.145881
_symmetry_space_group_name_H-M "I -4 2 M"
_symmetry_group_IT_number 121
_symmetry_cell_setting 'tetragonal'
loop_
_space_group_symop_operation_xyz
x,y,z
y,-x,-z
-x,-y,z
-y,x,-z
x,-y,-z
-x,y,-z
-y,-x,z
y,x,z
1/2+x,1/2+y,1/2+z
1/2+y,1/2-x,1/2-z
1/2-x,1/2-y,1/2+z
1/2-y,1/2+x,1/2-z
1/2+x,1/2-y,1/2-z
1/2-x,1/2+y,1/2-z
1/2-y,1/2-x,1/2+z
1/2+y,1/2+x,1/2+z
loop_
_atom_site_type_symbol
_atom_site_label
_atom_site_fract_x
_atom_site_fract_y
_atom_site_fract_z
Si Si1 0.931702 0.068299 0.805390
Si Si2 0.765867 0.092682 0.533527
Si Si3 0.844575 0.303119 0.329577
Si Si4 0.966153 0.264569 0.741029
Si Si5 0.000000 0.000000 0.000000
O O1 0.959828 0.162667 0.766493
O O2 0.938751 0.061250 0.927444
O O3 0.000000 0.000000 0.755681
O O4 0.846207 0.153794 0.562392
O O5 0.706136 0.133370 0.446339
O O6 0.710028 0.077047 0.633936
O O7 0.807484 0.000000 0.500000
O O8 0.766279 0.233722 0.299436
O O9 0.816533 0.405426 0.319933
O O10 0.930178 0.288572 0.258981
#
# Coordination Sequence:
#
# PCOD8311585 Si02
#       5
#     8  16  16  16   2
#     4  10  20  40  59  85 121 158 198 247 295 353
#     4   9  18  33  53  83 116 147 199 255 297 355
#     4  10  21  37  58  90 117 156 207 250 302 363
#     4  11  20  39  61  83 120 162 195 249 308 352
#     4   8  24  40  52  92 126 144 216 244 276 388
#
# _framework density 18.824165000000001
#
# number of rings (size 3 to 8) (size 9 to 14) (size 15 to 20)
#    0.414    1.655    2.759    0.828    0.000    1.931 
#    4.966    0.000    0.000    4.966    0.000    0.000 
#    0.000    0.000    0.000    0.000    0.000    0.000 
#
# Total GULP energy -359325.134512 kJ/mol
# GULP energy per Si atom -12390.521880 kJ/mol
# Density = 1.878132 g / cm^3
# Si number density = 18.824165 Si / 1000 Ang^3
#
#
#
# Elastic Constant Matrix: (Units=GPa)
#
#
# Indices 1 2 3 4 5 6 
#
# 1 94.2824 39.0912 22.8317 0.0000 0.0000 0.0000
# 2 39.0912 94.2806 22.8305 0.0000 0.0000 0.0000
# 3 22.8317 22.8305 64.9052 0.0000 0.0000 0.0000
# 4 0.0000 0.0000 0.0000 26.0010 0.0000 0.0000
# 5 0.0000 0.0000 0.0000 0.0000 26.0005 0.0000
# 6 0.0000 0.0000 0.0000 0.0000 0.0000 29.7398
#
#
#
# Elastic Compliance Matrix: (Units=1/GPa)
#
#
# Indices 1 2 3 4 5 6 
#
# 1 0.013322 -0.004797 -0.002999 0.000000 0.000000 0.000000
# 2 -0.004797 0.013322 -0.002998 0.000000 0.000000 0.000000
# 3 -0.002999 -0.002998 0.017517 0.000000 0.000000 0.000000
# 4 0.000000 0.000000 0.000000 0.038460 0.000000 0.000000
# 5 0.000000 0.000000 0.000000 0.000000 0.038461 0.000000
# 6 0.000000 0.000000 0.000000 0.000000 0.000000 0.033625
#
#
# Mechanical properties :
#
#
# Convention : Reuss Voigt Hill
#
# Bulk Modulus (GPa) = 44.30421 46.99723 45.65072
# Shear Modulus (GPa) = 27.20073 27.59592 27.39833
#
# Velocity S-wave (km/s) = 3.80543 3.83297 3.81922
# Velocity P-wave (km/s) = 6.54945 6.67904 6.61456
#
# Compressibility (1/GPa) = 0.02257122
#
# Stress axis : x y z
#
# Youngs Moduli (GPa) = 75.06561 75.06479 57.08857
#
# Poissons Ratio (x) = 0.36011 0.17119
# Poissons Ratio (y) = 0.36012 0.17117
# Poissons Ratio (z) = 0.22510 0.22507
#
# Static dielectric constant tensor:
#      x y z
#    x 3.429650 0.000000 0.000000 
#    y 0.000000 3.429610 0.000000 
#    z 0.000000 0.000000 3.622970 
# 
# 
# High freq. dielectric constant tensor:
#      x y z
#    x 1.724030 0.000000 0.000000 
#    y 0.000000 1.724030 0.000000 
#    z 0.000000 0.000000 1.730880 
# 
# From -- ./inp_files/4088.got.cif
#   From: 2010.03.12/outbox.cif.g09.slc.cpg/sg121_3_cif.got.tgz:4088.got - 2010.04.06 16:06:48.
