data_PCOD8311837
_publ_section_title
;
Structure prediction by ZEFSAII (Michael W. Deem and Ramdas Pophale) SiO2 
 PCOD8311837
Probable space group: I -4 2 D
;
_chemical_formula_sum "Si O2"
_cell_formula_units_Z 68
_cell_length_a 18.893375
_cell_length_b 18.893375
_cell_length_c 10.036436
_cell_angle_alpha 90.000000
_cell_angle_beta 90.000000
_cell_angle_gamma 90.000000
_cell_volume 3582.602370
_symmetry_space_group_name_H-M "I -4 2 D"
_symmetry_group_IT_number 122
_symmetry_cell_setting 'tetragonal'
loop_
_space_group_symop_operation_xyz
x,y,z
y,-x,-z
-x,-y,z
-y,x,-z
x,1/2-y,1/4-z
-x,1/2+y,1/4-z
-y,1/2-x,1/4+z
y,1/2+x,1/4+z
1/2+x,1/2+y,1/2+z
1/2+y,1/2-x,1/2-z
1/2-x,1/2-y,1/2+z
1/2-y,1/2+x,1/2-z
1/2+x,-y,3/4-z
1/2-x,y,3/4-z
1/2-y,-x,3/4+z
1/2+y,x,3/4+z
loop_
_atom_site_type_symbol
_atom_site_label
_atom_site_fract_x
_atom_site_fract_y
_atom_site_fract_z
Si Si1 0.541410 0.789066 0.260771
Si Si2 0.304679 0.570018 0.485281
Si Si3 0.913358 0.168878 0.105431
Si Si4 0.500000 0.000000 0.250000
Si Si5 0.413548 0.882745 0.354126
O O1 0.524683 0.750000 0.125000
O O2 0.563095 0.734716 0.374611
O O3 0.466568 0.823701 0.299901
O O4 0.607540 0.843242 0.237706
O O5 0.250000 0.598084 0.375000
O O6 0.366397 0.628820 0.494516
O O7 0.337446 0.495269 0.437230
O O8 0.890219 0.250000 0.125000
O O9 0.895543 0.130691 0.243373
O O10 0.551105 0.040318 0.350926
#
# Coordination Sequence:
#
# PCOD8311837 Si02
#       5
#    16  16  16   4  16
#     4  11  21  40  66  92 127 167 211 264 321 384
#     4  11  24  43  66  96 132 170 221 269 326 385
#     4  11  23  44  65  91 135 167 214 275 321 384
#     4   8  20  32  64  98 120 152 220 262 320 376
#     4  10  20  39  63  93 128 163 209 270 317 377
#
# _framework density 18.980616000000001
#
# number of rings (size 3 to 8) (size 9 to 14) (size 15 to 20)
#    0.000    1.412    7.059    0.000    0.000    4.235 
#    4.235    0.000    0.000    0.000    0.000    0.000 
#    0.000    0.000    0.000    0.000    0.000    0.000 
#
# Total GULP energy -421468.436393 kJ/mol
# GULP energy per Si atom -12396.130482 kJ/mol
# Density = 1.893742 g / cm^3
# Si number density = 18.980616 Si / 1000 Ang^3
#
#
#
# Elastic Constant Matrix: (Units=GPa)
#
#
# Indices 1 2 3 4 5 6 
#
# 1 77.8118 48.7125 21.0592 0.0000 0.0000 0.0000
# 2 48.7125 77.8118 21.0592 0.0000 0.0000 0.0000
# 3 21.0592 21.0592 96.3237 0.0000 0.0000 0.0000
# 4 0.0000 0.0000 0.0000 35.1364 0.0000 0.0000
# 5 0.0000 0.0000 0.0000 0.0000 35.1364 0.0000
# 6 0.0000 0.0000 0.0000 0.0000 0.0000 36.3813
#
#
#
# Elastic Compliance Matrix: (Units=1/GPa)
#
#
# Indices 1 2 3 4 5 6 
#
# 1 0.021445 -0.012921 -0.001864 0.000000 0.000000 0.000000
# 2 -0.012921 0.021445 -0.001864 0.000000 0.000000 0.000000
# 3 -0.001864 -0.001864 0.011197 0.000000 0.000000 0.000000
# 4 0.000000 0.000000 0.000000 0.028461 0.000000 0.000000
# 5 0.000000 0.000000 0.000000 0.000000 0.028461 0.000000
# 6 0.000000 0.000000 0.000000 0.000000 0.000000 0.027487
#
#
# Mechanical properties :
#
#
# Convention : Reuss Voigt Hill
#
# Bulk Modulus (GPa) = 48.09975 48.17880 48.13927
# Shear Modulus (GPa) = 27.97690 32.07191 30.02441
#
# Velocity S-wave (km/s) = 3.84340 4.11508 3.98156
# Velocity P-wave (km/s) = 6.71507 6.92941 6.82308
#
# Compressibility (1/GPa) = 0.02079013
#
# Stress axis : x y z
#
# Youngs Moduli (GPa) = 46.63191 46.63191 89.31332
#
# Poissons Ratio (x) = 0.60251 0.16644
# Poissons Ratio (y) = 0.60251 0.16644
# Poissons Ratio (z) = 0.08690 0.08690
#
# Static dielectric constant tensor:
#      x y z
#    x 3.684600 0.000000 0.000000 
#    y 0.000000 3.684600 0.000000 
#    z 0.000000 0.000000 3.778340 
# 
# 
# High freq. dielectric constant tensor:
#      x y z
#    x 1.737750 0.000000 0.000000 
#    y 0.000000 1.737750 0.000000 
#    z 0.000000 0.000000 1.744640 
# 
# From -- ./inp_files/4174.got.cif
#   From: 2010.03.12/outbox.cif.g09.slc.cpg/sg122_3_cif.got.tgz:4174.got - 2010.04.06 16:17:16.
