data_PCOD8311462
_publ_section_title
;
Structure prediction by ZEFSAII (Michael W. Deem and Ramdas Pophale) SiO2 
 PCOD8311462
Probable space group: I -4 2 M
;
_chemical_formula_sum "Si O2"
_cell_formula_units_Z 96
_cell_length_a 13.864450
_cell_length_b 13.864450
_cell_length_c 25.009949
_cell_angle_alpha 90.000000
_cell_angle_beta 90.000000
_cell_angle_gamma 90.000000
_cell_volume 4807.486771
_symmetry_space_group_name_H-M "I -4 2 M"
_symmetry_group_IT_number 121
_symmetry_cell_setting 'tetragonal'
loop_
_space_group_symop_operation_xyz
x,y,z
y,-x,-z
-x,-y,z
-y,x,-z
x,-y,-z
-x,y,-z
-y,-x,z
y,x,z
1/2+x,1/2+y,1/2+z
1/2+y,1/2-x,1/2-z
1/2-x,1/2-y,1/2+z
1/2-y,1/2+x,1/2-z
1/2+x,1/2-y,1/2-z
1/2-x,1/2+y,1/2-z
1/2-y,1/2-x,1/2+z
1/2+y,1/2+x,1/2+z
loop_
_atom_site_type_symbol
_atom_site_label
_atom_site_fract_x
_atom_site_fract_y
_atom_site_fract_z
Si Si1 0.414465 0.254873 0.041478
Si Si2 0.619743 0.919311 0.733643
Si Si3 0.246180 0.594721 0.463073
Si Si4 0.244226 0.605328 0.344290
Si Si5 0.494563 0.344441 0.860962
Si Si6 0.314643 0.530527 0.743059
O O1 0.349281 0.349281 0.032146
O O2 0.350994 0.158659 0.033978
O O3 0.467122 0.260461 0.099538
O O4 0.500000 0.253656 0.000000
O O5 0.535431 0.886538 0.774504
O O6 0.609844 0.865522 0.676781
O O7 0.722738 0.896623 0.761441
O O8 0.240964 0.500000 0.500000
O O9 0.340064 0.659937 0.477926
O O10 0.251131 0.555513 0.402217
O O11 0.285314 0.714687 0.349766
O O12 0.311902 0.548536 0.303162
O O13 0.575247 0.424754 0.856980
O O14 0.393959 0.393959 0.880892
O O15 0.479448 0.304432 0.800980
O O16 0.413848 0.586152 0.735426
#
# Coordination Sequence:
#
# PCOD8311462 Si02
#       6
#    16  16  16  16  16  16
#     4  10  20  36  60  88 119 154 190 230 283 350
#     4   9  18  33  52  77 108 148 188 222 264 326
#     4  10  23  43  63  83 108 145 198 253 303 355
#     4  10  20  36  59  81 106 144 186 231 286 343
#     4   9  17  30  52  85 122 154 185 226 276 337
#     4  10  19  32  53  83 118 149 180 223 274 332
#
# _framework density 19.968852999999999
#
# number of rings (size 3 to 8) (size 9 to 14) (size 15 to 20)
#    0.000    2.333    0.000    2.500    0.000    5.667 
#    0.000   16.667    0.000    4.000    0.000    0.000 
#    0.000    0.000    0.000    0.000    0.000    0.000 
#
# Total GULP energy -594714.145072 kJ/mol
# GULP energy per Si atom -12389.878022 kJ/mol
# Density = 1.992340 g / cm^3
# Si number density = 19.968853 Si / 1000 Ang^3
#
#
#
# Elastic Constant Matrix: (Units=GPa)
#
#
# Indices 1 2 3 4 5 6 
#
# 1 102.7393 42.7415 61.7078 0.0000 0.0000 0.0000
# 2 42.7415 102.7409 61.7066 0.0000 0.0000 0.0000
# 3 61.7078 61.7066 150.2807 0.0000 0.0000 0.0000
# 4 0.0000 0.0000 0.0000 32.2456 0.0000 0.0000
# 5 0.0000 0.0000 0.0000 0.0000 32.2456 0.0000
# 6 0.0000 0.0000 0.0000 0.0000 0.0000 22.7818
#
#
#
# Elastic Compliance Matrix: (Units=1/GPa)
#
#
# Indices 1 2 3 4 5 6 
#
# 1 0.013608 -0.003060 -0.004331 0.000000 0.000000 0.000000
# 2 -0.003060 0.013607 -0.004331 0.000000 0.000000 0.000000
# 3 -0.004331 -0.004331 0.010211 0.000000 0.000000 0.000000
# 4 0.000000 0.000000 0.000000 0.031012 0.000000 0.000000
# 5 0.000000 0.000000 0.000000 0.000000 0.031012 0.000000
# 6 0.000000 0.000000 0.000000 0.000000 0.000000 0.043895
#
#
# Mechanical properties :
#
#
# Convention : Reuss Voigt Hill
#
# Bulk Modulus (GPa) = 71.51859 76.45252 73.98555
# Shear Modulus (GPa) = 29.16323 30.09495 29.62909
#
# Velocity S-wave (km/s) = 3.82571 3.88634 3.85615
# Velocity P-wave (km/s) = 7.44363 7.64900 7.54701
#
# Compressibility (1/GPa) = 0.01398238
#
# Stress axis : x y z
#
# Youngs Moduli (GPa) = 73.48786 73.49041 97.93352
#
# Poissons Ratio (x) = 0.22485 0.42417
# Poissons Ratio (y) = 0.22484 0.42414
# Poissons Ratio (z) = 0.31829 0.31828
#
# Static dielectric constant tensor:
#      x y z
#    x 3.717770 0.000000 0.000000 
#    y 0.000000 3.717770 0.000000 
#    z 0.000000 0.000000 3.672010 
# 
# 
# High freq. dielectric constant tensor:
#      x y z
#    x 1.776120 0.000000 0.000000 
#    y 0.000000 1.776120 0.000000 
#    z 0.000000 0.000000 1.766190 
# 
# From -- ./inp_files/6423.got.cif
#   From: 2010.03.12/outbox.cif.g09.slc.cpg/sg121_4_cif.got.tgz:6423.got - 2010.04.06 16:06:48.
