data_PCOD8311459
_publ_section_title
;
Structure prediction by ZEFSAII (Michael W. Deem and Ramdas Pophale) SiO2 
 PCOD8311459
Probable space group: I -4 2 M
;
_chemical_formula_sum "Si O2"
_cell_formula_units_Z 112
_cell_length_a 15.449746
_cell_length_b 15.449746
_cell_length_c 25.249306
_cell_angle_alpha 90.000000
_cell_angle_beta 90.000000
_cell_angle_gamma 90.000000
_cell_volume 6026.874295
_symmetry_space_group_name_H-M "I -4 2 M"
_symmetry_group_IT_number 121
_symmetry_cell_setting 'tetragonal'
loop_
_space_group_symop_operation_xyz
x,y,z
y,-x,-z
-x,-y,z
-y,x,-z
x,-y,-z
-x,y,-z
-y,-x,z
y,x,z
1/2+x,1/2+y,1/2+z
1/2+y,1/2-x,1/2-z
1/2-x,1/2-y,1/2+z
1/2-y,1/2+x,1/2-z
1/2+x,1/2-y,1/2-z
1/2-x,1/2+y,1/2-z
1/2-y,1/2-x,1/2+z
1/2+y,1/2+x,1/2+z
loop_
_atom_site_type_symbol
_atom_site_label
_atom_site_fract_x
_atom_site_fract_y
_atom_site_fract_z
Si Si1 0.317626 0.543862 0.863356
Si Si2 0.184639 0.044921 0.759540
Si Si3 0.177551 0.677433 0.710963
Si Si4 0.251962 0.610077 0.309021
Si Si5 0.398850 0.902262 0.004408
Si Si6 0.730424 0.125527 0.599581
Si Si7 0.183696 0.321226 0.096746
O O1 0.410688 0.589313 0.879184
O O2 0.319943 0.516384 0.801760
O O3 0.293718 0.459600 0.899047
O O4 0.243662 0.614811 0.869564
O O5 0.105726 0.105726 0.774352
O O6 0.275109 0.088092 0.776188
O O7 0.176225 0.963342 0.798971
O O8 0.243258 0.756743 0.711334
O O9 0.107048 0.689345 0.757682
O O10 0.130085 0.677119 0.654427
O O11 0.295751 0.704250 0.312837
O O12 0.201275 0.601736 0.364857
O O13 0.375996 0.845985 0.056261
O O14 0.500000 0.911590 0.000000
O O15 0.366264 0.848011 0.955403
O O16 0.358469 0.000000 0.000000
O O17 0.791072 0.208929 0.589244
O O18 0.235885 0.235885 0.079010
#
# Coordination Sequence:
#
# PCOD8311459 Si02
#       7
#    16  16  16  16  16  16  16
#     4  10  19  33  57  86 117 153 191 230 277 346
#     4  10  19  32  52  81 117 153 187 231 285 344
#     4   9  18  32  50  78 109 142 182 222 272 335
#     4  10  19  32  54  81 108 145 187 230 279 343
#     4  11  24  40  58  82 108 141 189 243 294 338
#     4  11  22  38  58  82 117 154 192 238 291 350
#     4  10  20  38  59  78 107 147 191 234 282 341
#
# _framework density 18.58343
#
# number of rings (size 3 to 8) (size 9 to 14) (size 15 to 20)
#    0.000    1.857    4.286    0.429    2.000    0.571 
#    0.000    1.429    0.000    2.143    0.000    0.000 
#    0.000    2.571    0.000    0.000    0.000    0.000 
#
# Total GULP energy -693902.595616 kJ/mol
# GULP energy per Si atom -12391.117779 kJ/mol
# Density = 1.854113 g / cm^3
# Si number density = 18.583430 Si / 1000 Ang^3
#
#
#
# Elastic Constant Matrix: (Units=GPa)
#
#
# Indices 1 2 3 4 5 6 
#
# 1 73.9769 19.0207 36.4219 0.0000 0.0000 0.0000
# 2 19.0207 73.9753 36.4221 0.0000 0.0000 0.0000
# 3 36.4219 36.4221 107.2143 0.0000 0.0000 0.0000
# 4 0.0000 0.0000 0.0000 29.6362 0.0000 0.0000
# 5 0.0000 0.0000 0.0000 0.0000 29.6362 0.0000
# 6 0.0000 0.0000 0.0000 0.0000 0.0000 18.6656
#
#
#
# Elastic Compliance Matrix: (Units=1/GPa)
#
#
# Indices 1 2 3 4 5 6 
#
# 1 0.016424 -0.001772 -0.004977 0.000000 0.000000 0.000000
# 2 -0.001772 0.016424 -0.004978 0.000000 0.000000 0.000000
# 3 -0.004977 -0.004978 0.012709 0.000000 0.000000 0.000000
# 4 0.000000 0.000000 0.000000 0.033742 0.000000 0.000000
# 5 0.000000 0.000000 0.000000 0.000000 0.033743 0.000000
# 6 0.000000 0.000000 0.000000 0.000000 0.000000 0.053575
#
#
# Mechanical properties :
#
#
# Convention : Reuss Voigt Hill
#
# Bulk Modulus (GPa) = 45.24287 48.76622 47.00454
# Shear Modulus (GPa) = 25.32429 26.47438 25.89933
#
# Velocity S-wave (km/s) = 3.69553 3.77851 3.73725
# Velocity P-wave (km/s) = 6.52747 6.73312 6.63110
#
# Compressibility (1/GPa) = 0.02210293
#
# Stress axis : x y z
#
# Youngs Moduli (GPa) = 60.88664 60.88491 78.68512
#
# Poissons Ratio (x) = 0.10791 0.39164
# Poissons Ratio (y) = 0.10791 0.39166
# Poissons Ratio (z) = 0.30305 0.30306
#
# Static dielectric constant tensor:
#      x y z
#    x 3.390540 0.000000 0.000000 
#    y 0.000000 3.390540 0.000000 
#    z 0.000000 0.000000 3.434230 
# 
# 
# High freq. dielectric constant tensor:
#      x y z
#    x 1.711740 0.000000 0.000000 
#    y 0.000000 1.711740 0.000000 
#    z 0.000000 0.000000 1.717960 
# 
# From -- ./inp_files/7171.got.cif
#   From: 2010.03.12/outbox.cif.g09.slc.cpg/sg121_4_cif.got.tgz:7171.got - 2010.04.06 16:06:48.
