data_PCOD8311455
_publ_section_title
;
Structure prediction by ZEFSAII (Michael W. Deem and Ramdas Pophale) SiO2 
 PCOD8311455
Probable space group: I -4 2 M
;
_chemical_formula_sum "Si O2"
_cell_formula_units_Z 64
_cell_length_a 27.733744
_cell_length_b 27.733744
_cell_length_c 5.014817
_cell_angle_alpha 90.000000
_cell_angle_beta 90.000000
_cell_angle_gamma 90.000000
_cell_volume 3857.199433
_symmetry_space_group_name_H-M "I -4 2 M"
_symmetry_group_IT_number 121
_symmetry_cell_setting 'tetragonal'
loop_
_space_group_symop_operation_xyz
x,y,z
y,-x,-z
-x,-y,z
-y,x,-z
x,-y,-z
-x,y,-z
-y,-x,z
y,x,z
1/2+x,1/2+y,1/2+z
1/2+y,1/2-x,1/2-z
1/2-x,1/2-y,1/2+z
1/2-y,1/2+x,1/2-z
1/2+x,1/2-y,1/2-z
1/2-x,1/2+y,1/2-z
1/2-y,1/2-x,1/2+z
1/2+y,1/2+x,1/2+z
loop_
_atom_site_type_symbol
_atom_site_label
_atom_site_fract_x
_atom_site_fract_y
_atom_site_fract_z
Si Si1 0.697271 0.447809 0.457084
Si Si2 0.654948 0.800516 0.032871
Si Si3 0.261446 0.947056 0.458107
Si Si4 0.193965 0.193965 0.544303
Si Si5 0.351574 0.351574 0.543324
O O1 0.672832 0.500000 0.500000
O O2 0.742370 0.441459 0.657048
O O3 0.657073 0.407793 0.510929
O O4 0.716170 0.442948 0.156458
O O5 0.662554 0.822109 0.324792
O O6 0.597259 0.797418 0.985887
O O7 0.682236 0.749770 0.995428
O O8 0.286413 0.000000 0.500000
O O9 0.162223 0.162223 0.343570
O O10 0.180741 0.180741 0.846763
#
# Coordination Sequence:
#
# PCOD8311455 Si02
#       5
#    16  16  16   8   8
#     4  10  19  32  51  70  92 127 170 215 251 282
#     4  12  22  34  49  74 106 137 165 196 241 296
#     4  10  20  36  52  70  95 130 171 208 239 281
#     4  12  22  33  48  72 106 143 161 194 235 299
#     4  12  18  33  52  69 100 126 177 206 245 296
#
# _framework density 16.592348000000001
#
# number of rings (size 3 to 8) (size 9 to 14) (size 15 to 20)
#    0.000    1.000    5.000    3.750    0.000    0.000 
#    0.000    0.000    0.000    0.375    0.000    0.000 
#    0.000   11.000    0.000    0.000    0.000    1.250 
#
# Total GULP energy -396834.770869 kJ/mol
# GULP energy per Si atom -12401.086590 kJ/mol
# Density = 1.655458 g / cm^3
# Si number density = 16.592348 Si / 1000 Ang^3
#
#
#
# Elastic Constant Matrix: (Units=GPa)
#
#
# Indices 1 2 3 4 5 6 
#
# 1 100.9294 44.6101 8.2596 0.0000 0.0000 0.0000
# 2 44.6101 100.9294 8.2596 0.0000 0.0000 0.0000
# 3 8.2596 8.2596 62.1003 0.0000 0.0000 0.0000
# 4 0.0000 0.0000 0.0000 20.9922 0.0000 0.0000
# 5 0.0000 0.0000 0.0000 0.0000 20.9922 0.0000
# 6 0.0000 0.0000 0.0000 0.0000 0.0000 16.3887
#
#
#
# Elastic Compliance Matrix: (Units=1/GPa)
#
#
# Indices 1 2 3 4 5 6 
#
# 1 0.012366 -0.005390 -0.000928 0.000000 0.000000 0.000000
# 2 -0.005390 0.012366 -0.000928 0.000000 0.000000 0.000000
# 3 -0.000928 -0.000928 0.016350 0.000000 0.000000 0.000000
# 4 0.000000 0.000000 0.000000 0.047637 0.000000 0.000000
# 5 0.000000 0.000000 0.000000 0.000000 0.047637 0.000000
# 6 0.000000 0.000000 0.000000 0.000000 0.000000 0.061018
#
#
# Mechanical properties :
#
#
# Convention : Reuss Voigt Hill
#
# Bulk Modulus (GPa) = 37.60686 42.91309 40.25997
# Shear Modulus (GPa) = 22.65234 25.19661 23.92448
#
# Velocity S-wave (km/s) = 3.69891 3.90111 3.80135
# Velocity P-wave (km/s) = 6.39976 6.79786 6.60181
#
# Compressibility (1/GPa) = 0.02659090
#
# Stress axis : x y z
#
# Youngs Moduli (GPa) = 80.86621 80.86621 61.16276
#
# Poissons Ratio (x) = 0.43585 0.05675
# Poissons Ratio (y) = 0.43585 0.05675
# Poissons Ratio (z) = 0.07503 0.07503
#
# Static dielectric constant tensor:
#      x y z
#    x 3.113840 0.000000 0.000000 
#    y 0.000000 3.113840 0.000000 
#    z 0.000000 0.000000 3.352430 
# 
# 
# High freq. dielectric constant tensor:
#      x y z
#    x 1.613900 0.000000 0.000000 
#    y 0.000000 1.613900 0.000000 
#    z 0.000000 0.000000 1.666650 
# 
# From -- ./inp_files/515.got.cif
#   From: 2010.03.12/outbox.cif.g09.slc.cpg/sg121_1_cif.got.tgz:515.got - 2010.04.06 16:06:48.
