data_PCOD8311981
_publ_section_title
;
Structure prediction by ZEFSAII (Michael W. Deem and Ramdas Pophale) SiO2 
 PCOD8311981
Probable space group: I -4 2 D
;
_chemical_formula_sum "Si O2"
_cell_formula_units_Z 52
_cell_length_a 13.156158
_cell_length_b 13.156158
_cell_length_c 13.252025
_cell_angle_alpha 90.000000
_cell_angle_beta 90.000000
_cell_angle_gamma 90.000000
_cell_volume 2293.720033
_symmetry_space_group_name_H-M "I -4 2 D"
_symmetry_group_IT_number 122
_symmetry_cell_setting 'tetragonal'
loop_
_space_group_symop_operation_xyz
x,y,z
y,-x,-z
-x,-y,z
-y,x,-z
x,1/2-y,1/4-z
-x,1/2+y,1/4-z
-y,1/2-x,1/4+z
y,1/2+x,1/4+z
1/2+x,1/2+y,1/2+z
1/2+y,1/2-x,1/2-z
1/2-x,1/2-y,1/2+z
1/2-y,1/2+x,1/2-z
1/2+x,-y,3/4-z
1/2-x,y,3/4-z
1/2-y,-x,3/4+z
1/2+y,x,3/4+z
loop_
_atom_site_type_symbol
_atom_site_label
_atom_site_fract_x
_atom_site_fract_y
_atom_site_fract_z
Si Si1 0.000000 0.500000 0.250000
Si Si2 0.430522 0.870522 0.115054
Si Si3 0.860357 0.640032 0.671009
Si Si4 0.135968 0.131947 0.148550
O O1 0.071356 0.431056 0.181002
O O2 0.450122 0.750000 0.125000
O O3 0.357582 0.895295 0.210486
O O4 0.545638 0.920032 0.118430
O O5 0.378608 0.906822 0.012139
O O6 0.846749 0.750000 0.625000
O O7 0.751536 0.587401 0.649381
O O8 0.129089 0.250000 0.125000
#
# Coordination Sequence:
#
# PCOD8311981 Si02
#       4
#     4  16  16  16
#     4  12  28  44  64  90 120 168 220 268 328 398
#     4   9  19  37  62  92 124 162 206 252 310 375
#     4   9  19  38  65  94 127 164 207 261 317 379
#     4  10  24  44  62  89 128 167 211 266 325 382
#
# _framework density 22.670597000000001
#
# number of rings (size 3 to 8) (size 9 to 14) (size 15 to 20)
#    0.000    2.462    0.000    0.000    0.000   12.923 
#    0.000    7.692    0.000    0.000    0.000    0.000 
#    0.000    0.000    0.000    0.000    0.000    0.000 
#
# Total GULP energy -322090.893062 kJ/mol
# GULP energy per Si atom -12388.111272 kJ/mol
# Density = 2.261900 g / cm^3
# Si number density = 22.670597 Si / 1000 Ang^3
#
#
#
# Elastic Constant Matrix: (Units=GPa)
#
#
# Indices 1 2 3 4 5 6 
#
# 1 116.7450 38.2773 83.7212 0.0000 0.0000 0.0000
# 2 38.2773 116.7450 83.7212 0.0000 0.0000 0.0000
# 3 83.7212 83.7212 208.1895 0.0000 0.0000 0.0000
# 4 0.0000 0.0000 0.0000 40.8347 0.0000 0.0000
# 5 0.0000 0.0000 0.0000 0.0000 40.8347 0.0000
# 6 0.0000 0.0000 0.0000 0.0000 0.0000 44.2889
#
#
#
# Elastic Compliance Matrix: (Units=1/GPa)
#
#
# Indices 1 2 3 4 5 6 
#
# 1 0.012074 -0.000670 -0.004586 0.000000 0.000000 0.000000
# 2 -0.000670 0.012074 -0.004586 0.000000 0.000000 0.000000
# 3 -0.004586 -0.004586 0.008492 0.000000 0.000000 0.000000
# 4 0.000000 0.000000 0.000000 0.024489 0.000000 0.000000
# 5 0.000000 0.000000 0.000000 0.000000 0.024489 0.000000
# 6 0.000000 0.000000 0.000000 0.000000 0.000000 0.022579
#
#
# Mechanical properties :
#
#
# Convention : Reuss Voigt Hill
#
# Bulk Modulus (GPa) = 77.18503 94.79098 85.98801
# Shear Modulus (GPa) = 39.00161 40.92233 39.96197
#
# Velocity S-wave (km/s) = 4.15222 4.25324 4.20303
# Velocity P-wave (km/s) = 7.55699 8.12546 7.84638
#
# Compressibility (1/GPa) = 0.01295588
#
# Stress axis : x y z
#
# Youngs Moduli (GPa) = 82.82163 82.82162 117.76068
#
# Poissons Ratio (x) = 0.05549 0.54006
# Poissons Ratio (y) = 0.05549 0.54006
# Poissons Ratio (z) = 0.37983 0.37983
#
# Static dielectric constant tensor:
#      x y z
#    x 4.351080 0.000000 0.000000 
#    y 0.000000 4.351080 0.000000 
#    z 0.000000 0.000000 4.243100 
# 
# 
# High freq. dielectric constant tensor:
#      x y z
#    x 1.904120 0.000000 0.000000 
#    y 0.000000 1.904120 0.000000 
#    z 0.000000 0.000000 1.897360 
# 
# From -- ./inp_files/3914.got.cif
#   From: 2010.03.12/outbox.cif.g09.slc.cpg/sg122_2_cif.got.tgz:3914.got - 2010.04.06 16:17:16.
