data_PCOD8311890
_publ_section_title
;
Structure prediction by ZEFSAII (Michael W. Deem and Ramdas Pophale) SiO2 
 PCOD8311890
Probable space group: I -4 2 D
;
_chemical_formula_sum "Si O2"
_cell_formula_units_Z 88
_cell_length_a 13.707900
_cell_length_b 13.707900
_cell_length_c 19.879495
_cell_angle_alpha 90.000000
_cell_angle_beta 90.000000
_cell_angle_gamma 90.000000
_cell_volume 3735.486773
_symmetry_space_group_name_H-M "I -4 2 D"
_symmetry_group_IT_number 122
_symmetry_cell_setting 'tetragonal'
loop_
_space_group_symop_operation_xyz
x,y,z
y,-x,-z
-x,-y,z
-y,x,-z
x,1/2-y,1/4-z
-x,1/2+y,1/4-z
-y,1/2-x,1/4+z
y,1/2+x,1/4+z
1/2+x,1/2+y,1/2+z
1/2+y,1/2-x,1/2-z
1/2-x,1/2-y,1/2+z
1/2-y,1/2+x,1/2-z
1/2+x,-y,3/4-z
1/2-x,y,3/4-z
1/2-y,-x,3/4+z
1/2+y,x,3/4+z
loop_
_atom_site_type_symbol
_atom_site_label
_atom_site_fract_x
_atom_site_fract_y
_atom_site_fract_z
Si Si1 0.721066 0.038494 0.257343
Si Si2 0.544247 0.378300 0.459965
Si Si3 0.000000 0.000000 0.161378
Si Si4 0.085421 0.431730 0.853929
Si Si5 0.755164 0.715617 0.550808
Si Si6 0.620366 0.122231 0.000524
O O1 0.635270 0.040875 0.203584
O O2 0.767855 0.145636 0.260502
O O3 0.675747 0.997022 0.326988
O O4 0.804486 0.967065 0.231429
O O5 0.462295 0.376284 0.518517
O O6 0.493527 0.405735 0.388422
O O7 0.601270 0.275638 0.452977
O O8 0.978498 0.906223 0.210431
O O9 0.114598 0.369203 0.918998
O O10 0.000000 0.500000 0.880782
O O11 0.778039 0.750000 0.625000
O O12 0.664909 0.777095 0.522434
#
# Coordination Sequence:
#
# PCOD8311890 Si02
#       6
#    16  16   8  16  16  16
#     4  12  25  43  67  99 140 184 231 287 343 424
#     4   9  22  45  71  95 136 178 224 283 354 413
#     4  10  21  44  64  99 134 178 226 294 342 419
#     4  12  22  44  68  96 138 188 224 284 355 411
#     4  12  24  43  70 102 136 180 233 288 347 424
#     4  12  25  41  69 104 139 179 241 288 350 425
#
# _framework density 23.557839000000001
#
# number of rings (size 3 to 8) (size 9 to 14) (size 15 to 20)
#    0.000    0.909    6.364    1.636    0.000    4.364 
#    3.273    0.000    0.000    0.000    0.000    0.000 
#    0.000    0.000    0.000    0.000    0.000    0.000 
#
# Total GULP energy -545346.282789 kJ/mol
# GULP energy per Si atom -12394.233700 kJ/mol
# Density = 2.350422 g / cm^3
# Si number density = 23.557839 Si / 1000 Ang^3
#
#
#
# Elastic Constant Matrix: (Units=GPa)
#
#
# Indices 1 2 3 4 5 6 
#
# 1 55.8608 12.5634 13.8458 0.0000 0.0000 0.0000
# 2 12.5634 55.8608 13.8458 0.0000 0.0000 0.0000
# 3 13.8458 13.8458 111.3668 0.0000 0.0000 0.0000
# 4 0.0000 0.0000 0.0000 15.8257 0.0000 0.0000
# 5 0.0000 0.0000 0.0000 0.0000 15.8257 0.0000
# 6 0.0000 0.0000 0.0000 0.0000 0.0000 39.3606
#
#
#
# Elastic Compliance Matrix: (Units=1/GPa)
#
#
# Indices 1 2 3 4 5 6 
#
# 1 0.019243 -0.003854 -0.001913 0.000000 0.000000 0.000000
# 2 -0.003854 0.019243 -0.001913 0.000000 0.000000 0.000000
# 3 -0.001913 -0.001913 0.009455 0.000000 0.000000 0.000000
# 4 0.000000 0.000000 0.000000 0.063188 0.000000 0.000000
# 5 0.000000 0.000000 0.000000 0.000000 0.063188 0.000000
# 6 0.000000 0.000000 0.000000 0.000000 0.000000 0.025406
#
#
# Mechanical properties :
#
#
# Convention : Reuss Voigt Hill
#
# Bulk Modulus (GPa) = 30.69359 33.73315 32.21337
# Shear Modulus (GPa) = 22.12944 26.39128 24.26036
#
# Velocity S-wave (km/s) = 3.06823 3.35068 3.21256
# Velocity P-wave (km/s) = 5.06057 5.41478 5.24067
#
# Compressibility (1/GPa) = 0.03258009
#
# Stress axis : x y z
#
# Youngs Moduli (GPa) = 51.96816 51.96816 105.76331
#
# Poissons Ratio (x) = 0.20026 0.20235
# Poissons Ratio (y) = 0.20026 0.20235
# Poissons Ratio (z) = 0.09943 0.09943
#
# Static dielectric constant tensor:
#      x y z
#    x 4.176260 0.000000 0.000000 
#    y 0.000000 4.176260 0.000000 
#    z 0.000000 0.000000 4.243050 
# 
# 
# High freq. dielectric constant tensor:
#      x y z
#    x 1.923100 0.000000 0.000000 
#    y 0.000000 1.923100 0.000000 
#    z 0.000000 0.000000 1.943280 
# 
# From -- ./inp_files/7181.got.cif
#   From: 2010.03.12/outbox.cif.g09.slc.cpg/sg122_4_cif.got.tgz:7181.got - 2010.04.06 16:17:16.
