data_PCOD8311161
_publ_section_title
;
Structure prediction by ZEFSAII (Michael W. Deem and Ramdas Pophale) SiO2 
 PCOD8311161
Probable space group: I -4 C 2
;
_chemical_formula_sum "Si O2"
_cell_formula_units_Z 104
_cell_length_a 17.490472
_cell_length_b 17.490472
_cell_length_c 18.701776
_cell_angle_alpha 90.000000
_cell_angle_beta 90.000000
_cell_angle_gamma 90.000000
_cell_volume 5721.183930
_symmetry_space_group_name_H-M "I -4 C 2"
_symmetry_group_IT_number 120
_symmetry_cell_setting 'tetragonal'
loop_
_space_group_symop_operation_xyz
x,y,z
y,-x,-z
-x,-y,z
-y,x,-z
y,x,1/2-z
-y,-x,1/2-z
-x,y,1/2+z
x,-y,1/2+z
1/2+x,1/2+y,1/2+z
1/2+y,1/2-x,1/2-z
1/2-x,1/2-y,1/2+z
1/2-y,1/2+x,1/2-z
1/2+y,1/2+x,-z
1/2-y,1/2-x,-z
1/2-x,1/2+y,z
1/2+x,1/2-y,z
loop_
_atom_site_type_symbol
_atom_site_label
_atom_site_fract_x
_atom_site_fract_y
_atom_site_fract_z
Si Si1 0.009670 0.621092 0.755928
Si Si2 0.756260 0.133625 0.996646
Si Si3 0.277418 0.109459 0.338268
Si Si4 0.413554 0.575545 0.530408
Si Si5 0.878127 0.038307 0.187128
Si Si6 0.715339 0.914173 0.646567
Si Si7 0.625306 0.374695 0.250000
O O1 0.076669 0.562750 0.777762
O O2 0.035267 0.683383 0.697226
O O3 0.983856 0.660861 0.829683
O O4 0.736182 0.092558 0.922111
O O5 0.719084 0.219084 0.000000
O O6 0.848003 0.137150 0.009215
O O7 0.721944 0.081515 0.060588
O O8 0.332576 0.182339 0.328535
O O9 0.197900 0.128189 0.301358
O O10 0.495024 0.608043 0.506641
O O11 0.420945 0.559484 0.614343
O O12 0.928173 0.071828 0.250000
O O13 0.795249 0.076823 0.187007
O O14 0.872481 0.947406 0.197615
#
# Coordination Sequence:
#
# PCOD8311161 Si02
#       7
#    16  16  16  16  16  16   8
#     4   9  17  33  57  83 110 139 177 225 275 323
#     4   9  19  37  58  77 109 146 183 220 271 327
#     4  10  20  34  58  81 109 144 184 223 273 325
#     4  10  22  36  56  79 109 147 180 217 270 325
#     4  11  24  36  54  79 114 138 179 226 266 314
#     4   9  19  38  55  83 108 143 177 227 273 326
#     4  12  23  34  56  84 108 145 182 230 260 328
#
# _framework density 18.178055000000001
#
# number of rings (size 3 to 8) (size 9 to 14) (size 15 to 20)
#    0.000    2.154    1.538    1.154    7.538    0.000 
#    0.000    0.769    0.000    4.615    0.000    0.000 
#    0.000    0.000    0.000    0.000    0.000    0.000 
#
# Total GULP energy -644691.081084 kJ/mol
# GULP energy per Si atom -12397.905405 kJ/mol
# Density = 1.813668 g / cm^3
# Si number density = 18.178055 Si / 1000 Ang^3
#
#
#
# Elastic Constant Matrix: (Units=GPa)
#
#
# Indices 1 2 3 4 5 6 
#
# 1 99.8718 47.2789 54.3341 0.0000 0.0000 0.0000
# 2 47.2789 99.8726 54.3351 0.0000 0.0000 0.0000
# 3 54.3341 54.3351 120.1078 0.0000 0.0000 0.0000
# 4 0.0000 0.0000 0.0000 25.0781 0.0000 0.0000
# 5 0.0000 0.0000 0.0000 0.0000 25.0784 0.0000
# 6 0.0000 0.0000 0.0000 0.0000 0.0000 25.7355
#
#
#
# Elastic Compliance Matrix: (Units=1/GPa)
#
#
# Indices 1 2 3 4 5 6 
#
# 1 0.014609 -0.004404 -0.004616 0.000000 0.000000 0.000000
# 2 -0.004404 0.014609 -0.004617 0.000000 0.000000 0.000000
# 3 -0.004616 -0.004617 0.012503 0.000000 0.000000 0.000000
# 4 0.000000 0.000000 0.000000 0.039875 0.000000 0.000000
# 5 0.000000 0.000000 0.000000 0.000000 0.039875 0.000000
# 6 0.000000 0.000000 0.000000 0.000000 0.000000 0.038857
#
#
# Mechanical properties :
#
#
# Convention : Reuss Voigt Hill
#
# Bulk Modulus (GPa) = 69.22080 70.19426 69.70753
# Shear Modulus (GPa) = 25.98491 26.10534 26.04512
#
# Velocity S-wave (km/s) = 3.78493 3.79369 3.78931
# Velocity P-wave (km/s) = 7.56723 7.60842 7.58785
#
# Compressibility (1/GPa) = 0.01444652
#
# Stress axis : x y z
#
# Youngs Moduli (GPa) = 68.44904 68.44895 79.98239
#
# Poissons Ratio (x) = 0.30148 0.36924
# Poissons Ratio (y) = 0.30148 0.36925
# Poissons Ratio (z) = 0.31599 0.31600
#
# Static dielectric constant tensor:
#      x y z
#    x 3.451070 0.000000 0.000000 
#    y 0.000000 3.451070 0.000000 
#    z 0.000000 0.000000 3.467800 
# 
# 
# High freq. dielectric constant tensor:
#      x y z
#    x 1.703100 0.000000 0.000000 
#    y 0.000000 1.703100 0.000000 
#    z 0.000000 0.000000 1.708600 
# 
# From -- ./inp_files/4511.got.cif
#   From: 2010.03.12/outbox.cif.g09.slc.cpg/sg120_3_cif.got.tgz:4511.got - 2010.04.06 16:00:44.
