data_PCOD8311864
_publ_section_title
;
Structure prediction by ZEFSAII (Michael W. Deem and Ramdas Pophale) SiO2 
 PCOD8311864
Probable space group: I -4 2 D
;
_chemical_formula_sum "Si O2"
_cell_formula_units_Z 80
_cell_length_a 10.895742
_cell_length_b 10.895742
_cell_length_c 35.506474
_cell_angle_alpha 90.000000
_cell_angle_beta 90.000000
_cell_angle_gamma 90.000000
_cell_volume 4215.228953
_symmetry_space_group_name_H-M "I -4 2 D"
_symmetry_group_IT_number 122
_symmetry_cell_setting 'tetragonal'
loop_
_space_group_symop_operation_xyz
x,y,z
y,-x,-z
-x,-y,z
-y,x,-z
x,1/2-y,1/4-z
-x,1/2+y,1/4-z
-y,1/2-x,1/4+z
y,1/2+x,1/4+z
1/2+x,1/2+y,1/2+z
1/2+y,1/2-x,1/2-z
1/2-x,1/2-y,1/2+z
1/2-y,1/2+x,1/2-z
1/2+x,-y,3/4-z
1/2-x,y,3/4-z
1/2-y,-x,3/4+z
1/2+y,x,3/4+z
loop_
_atom_site_type_symbol
_atom_site_label
_atom_site_fract_x
_atom_site_fract_y
_atom_site_fract_z
Si Si1 0.923501 0.113710 0.686499
Si Si2 0.570167 0.750000 0.125000
Si Si3 0.750000 0.024150 0.875000
Si Si4 0.120973 0.208588 0.887745
Si Si5 0.441911 0.805531 0.251846
Si Si6 0.104969 0.774464 0.833677
O O1 0.783953 0.074115 0.674506
O O2 0.914617 0.220561 0.716529
O O3 0.989847 0.153836 0.648111
O O4 0.000000 0.000000 0.703809
O O5 0.651174 0.825760 0.154563
O O6 0.812530 0.107157 0.843112
O O7 0.851203 0.936432 0.895827
O O8 0.250000 0.271232 0.875000
O O9 0.024678 0.217973 0.854212
O O10 0.581500 0.849260 0.250965
O O11 0.417357 0.727247 0.289251
#
# Coordination Sequence:
#
# PCOD8311864 Si02
#       6
#    16   8   8  16  16  16
#     4  12  23  39  63  96 130 161 209 267 324 380
#     4  11  21  38  64  90 121 167 208 260 316 381
#     4   9  23  38  64  90 115 169 218 260 300 367
#     4  10  21  36  62  91 117 161 215 259 305 378
#     4  11  25  41  62  96 133 169 205 264 336 389
#     4  11  21  41  64  87 128 167 217 260 314 382
#
# _framework density 18.978804
#
# number of rings (size 3 to 8) (size 9 to 14) (size 15 to 20)
#    0.600    0.600    5.000    1.800    0.000    1.600 
#    0.000    0.000    0.000    0.000    0.000    0.000 
#    0.000    0.000    0.000    0.000    0.000    0.000 
#
# Total GULP energy -495910.210812 kJ/mol
# GULP energy per Si atom -12397.755270 kJ/mol
# Density = 1.893561 g / cm^3
# Si number density = 18.978804 Si / 1000 Ang^3
#
#
#
# Elastic Constant Matrix: (Units=GPa)
#
#
# Indices 1 2 3 4 5 6 
#
# 1 94.3802 24.7540 41.6862 0.0000 0.0000 0.0000
# 2 24.7540 94.3803 41.6862 0.0000 0.0000 0.0000
# 3 41.6862 41.6862 102.8818 0.0000 0.0000 0.0000
# 4 0.0000 0.0000 0.0000 22.8528 0.0000 0.0000
# 5 0.0000 0.0000 0.0000 0.0000 22.8528 0.0000
# 6 0.0000 0.0000 0.0000 0.0000 0.0000 18.3036
#
#
#
# Elastic Compliance Matrix: (Units=1/GPa)
#
#
# Indices 1 2 3 4 5 6 
#
# 1 0.013039 -0.001323 -0.004747 0.000000 0.000000 0.000000
# 2 -0.001323 0.013039 -0.004747 0.000000 0.000000 0.000000
# 3 -0.004747 -0.004747 0.013567 0.000000 0.000000 0.000000
# 4 0.000000 0.000000 0.000000 0.043758 0.000000 0.000000
# 5 0.000000 0.000000 0.000000 0.000000 0.043758 0.000000
# 6 0.000000 0.000000 0.000000 0.000000 0.000000 0.054634
#
#
# Mechanical properties :
#
#
# Convention : Reuss Voigt Hill
#
# Bulk Modulus (GPa) = 55.52386 56.43279 55.97832
# Shear Modulus (GPa) = 23.87380 25.03622 24.45501
#
# Velocity S-wave (km/s) = 3.55056 3.63597 3.59352
# Velocity P-wave (km/s) = 6.79175 6.88667 6.83938
#
# Compressibility (1/GPa) = 0.01801028
#
# Stress axis : x y z
#
# Youngs Moduli (GPa) = 76.69166 76.69167 73.70900
#
# Poissons Ratio (x) = 0.10148 0.34991
# Poissons Ratio (y) = 0.10148 0.34991
# Poissons Ratio (z) = 0.36407 0.36407
#
# Static dielectric constant tensor:
#      x y z
#    x 3.592240 0.000000 0.000000 
#    y 0.000000 3.592240 0.000000 
#    z 0.000000 0.000000 3.196090 
# 
# 
# High freq. dielectric constant tensor:
#      x y z
#    x 1.747380 0.000000 0.000000 
#    y 0.000000 1.747380 0.000000 
#    z 0.000000 0.000000 1.712540 
# 
# From -- ./inp_files/9449.got.cif
#   From: 2010.03.12/outbox.cif.g09.slc.cpg/sg122_5_cif.got.tgz:9449.got - 2010.04.06 16:17:16.
