data_PCOD8311853
_publ_section_title
;
Structure prediction by ZEFSAII (Michael W. Deem and Ramdas Pophale) SiO2 
 PCOD8311853
Probable space group: I -4 2 D
;
_chemical_formula_sum "Si O2"
_cell_formula_units_Z 72
_cell_length_a 20.086806
_cell_length_b 20.086806
_cell_length_c 7.248951
_cell_angle_alpha 90.000000
_cell_angle_beta 90.000000
_cell_angle_gamma 90.000000
_cell_volume 2924.805121
_symmetry_space_group_name_H-M "I -4 2 D"
_symmetry_group_IT_number 122
_symmetry_cell_setting 'tetragonal'
loop_
_space_group_symop_operation_xyz
x,y,z
y,-x,-z
-x,-y,z
-y,x,-z
x,1/2-y,1/4-z
-x,1/2+y,1/4-z
-y,1/2-x,1/4+z
y,1/2+x,1/4+z
1/2+x,1/2+y,1/2+z
1/2+y,1/2-x,1/2-z
1/2-x,1/2-y,1/2+z
1/2-y,1/2+x,1/2-z
1/2+x,-y,3/4-z
1/2-x,y,3/4-z
1/2-y,-x,3/4+z
1/2+y,x,3/4+z
loop_
_atom_site_type_symbol
_atom_site_label
_atom_site_fract_x
_atom_site_fract_y
_atom_site_fract_z
Si Si1 0.801919 0.125332 0.588236
Si Si2 0.043516 0.841691 0.899579
Si Si3 0.098402 0.327758 0.254658
Si Si4 0.904852 0.024389 0.435995
Si Si5 0.120554 0.750000 0.625000
O O1 0.720515 0.121748 0.571166
O O2 0.809671 0.128257 0.808384
O O3 0.837514 0.061881 0.496771
O O4 0.833519 0.194836 0.521239
O O5 0.096609 0.876584 0.039541
O O6 0.074807 0.780785 0.785164
O O7 0.013398 0.895597 0.756932
O O8 0.980930 0.818012 0.019209
O O9 0.966253 0.076257 0.417496
#
# Coordination Sequence:
#
# PCOD8311853 Si02
#       5
#    16  16  16  16   8
#     4  10  22  44  66  93 137 171 231 276 351 402
#     4  11  23  41  68  95 137 171 228 273 351 398
#     4  10  23  40  64  98 133 173 212 291 335 407
#     4  11  22  38  65  96 130 180 225 277 335 418
#     4  10  20  44  66  92 126 186 218 288 322 428
#
# _framework density 24.617024000000001
#
# number of rings (size 3 to 8) (size 9 to 14) (size 15 to 20)
#    0.000    1.556    4.444    1.333    3.111    0.444 
#    0.000   11.111    0.000    0.000    0.000    0.000 
#    0.000    0.000    0.000    0.000    0.000    0.000 
#
# Total GULP energy -446002.230788 kJ/mol
# GULP energy per Si atom -12388.950855 kJ/mol
# Density = 2.456099 g / cm^3
# Si number density = 24.617024 Si / 1000 Ang^3
#
#
#
# Elastic Constant Matrix: (Units=GPa)
#
#
# Indices 1 2 3 4 5 6 
#
# 1 153.8602 66.7449 29.7376 0.0000 0.0000 0.0000
# 2 66.7449 153.8602 29.7376 0.0000 0.0000 0.0000
# 3 29.7376 29.7376 11.0427 0.0000 0.0000 0.0000
# 4 0.0000 0.0000 0.0000 31.3985 0.0000 0.0000
# 5 0.0000 0.0000 0.0000 0.0000 31.3985 0.0000
# 6 0.0000 0.0000 0.0000 0.0000 0.0000 43.5637
#
#
#
# Elastic Compliance Matrix: (Units=1/GPa)
#
#
# Indices 1 2 3 4 5 6 
#
# 1 0.014012 0.002533 -0.044555 0.000000 0.000000 0.000000
# 2 0.002533 0.014012 -0.044555 0.000000 0.000000 0.000000
# 3 -0.044555 -0.044555 0.330529 0.000000 0.000000 0.000000
# 4 0.000000 0.000000 0.000000 0.031849 0.000000 0.000000
# 5 0.000000 0.000000 0.000000 0.000000 0.031849 0.000000
# 6 0.000000 0.000000 0.000000 0.000000 0.000000 0.022955
#
#
# Mechanical properties :
#
#
# Convention : Reuss Voigt Hill
#
# Bulk Modulus (GPa) = 5.39380 63.46702 34.43041
# Shear Modulus (GPa) = 7.35122 34.10836 20.72979
#
# Velocity S-wave (km/s) = 1.72995 3.72635 2.90503
# Velocity P-wave (km/s) = 2.48719 6.65973 5.02683
#
# Compressibility (1/GPa) = 0.18539792
#
# Stress axis : x y z
#
# Youngs Moduli (GPa) = 71.36711 71.36711 3.02546
#
# Poissons Ratio (x) = -0.18077 0.13480
# Poissons Ratio (y) = -0.18077 0.13480
# Poissons Ratio (z) = 3.17978 3.17978
#
# Static dielectric constant tensor:
#      x y z
#    x 5.276400 0.000000 0.000000 
#    y 0.000000 5.276400 0.000000 
#    z 0.000000 0.000000 4.079140 
# 
# 
# High freq. dielectric constant tensor:
#      x y z
#    x 1.991080 0.000000 0.000000 
#    y 0.000000 1.991080 0.000000 
#    z 0.000000 0.000000 1.950390 
# 
# From -- ./inp_files/2666.got.cif
#   From: 2010.03.12/outbox.cif.g09.slc.cpg/sg122_2_cif.got.tgz:2666.got - 2010.04.06 16:17:16.
