data_PCOD8311179
_publ_section_title
;
Structure prediction by ZEFSAII (Michael W. Deem and Ramdas Pophale) SiO2 
 PCOD8311179
Probable space group: I -4 C 2
;
_chemical_formula_sum "Si O2"
_cell_formula_units_Z 80
_cell_length_a 17.417325
_cell_length_b 17.417325
_cell_length_c 14.072121
_cell_angle_alpha 90.000000
_cell_angle_beta 90.000000
_cell_angle_gamma 90.000000
_cell_volume 4268.963800
_symmetry_space_group_name_H-M "I -4 C 2"
_symmetry_group_IT_number 120
_symmetry_cell_setting 'tetragonal'
loop_
_space_group_symop_operation_xyz
x,y,z
y,-x,-z
-x,-y,z
-y,x,-z
y,x,1/2-z
-y,-x,1/2-z
-x,y,1/2+z
x,-y,1/2+z
1/2+x,1/2+y,1/2+z
1/2+y,1/2-x,1/2-z
1/2-x,1/2-y,1/2+z
1/2-y,1/2+x,1/2-z
1/2+y,1/2+x,-z
1/2-y,1/2-x,-z
1/2-x,1/2+y,z
1/2+x,1/2-y,z
loop_
_atom_site_type_symbol
_atom_site_label
_atom_site_fract_x
_atom_site_fract_y
_atom_site_fract_z
Si Si1 0.500000 0.500000 0.500000
Si Si2 0.966023 0.233161 0.478793
Si Si3 0.641794 0.970145 0.371682
Si Si4 0.173610 0.173610 0.750000
Si Si5 0.866778 0.092193 0.437103
Si Si6 0.000000 0.500000 0.500000
Si Si7 0.813657 0.418194 0.706904
O O1 0.531320 0.435622 0.571518
O O2 0.939904 0.293574 0.557363
O O3 0.899224 0.169251 0.485920
O O4 0.969239 0.274980 0.376389
O O5 0.051856 0.200137 0.499837
O O6 0.608488 0.898944 0.314476
O O7 0.574046 0.007072 0.433251
O O8 0.680572 0.031318 0.301588
O O9 0.110762 0.160704 0.668242
O O10 0.158587 0.261378 0.780929
#
# Coordination Sequence:
#
# PCOD8311179 Si02
#       7
#     4  16  16   8  16   4  16
#     4   8  16  30  56  88 116 158 196 236 294 356
#     4  10  20  40  61  89 123 157 194 248 303 354
#     4  12  23  42  61  88 119 156 204 249 303 355
#     4  10  20  37  60  88 122 157 198 246 300 354
#     4   9  18  35  60  87 121 157 195 243 296 360
#     4  12  24  42  64  88 114 160 208 262 302 350
#     4  11  23  40  63  89 120 159 201 250 299 366
#
# _framework density 18.739909000000001
#
# number of rings (size 3 to 8) (size 9 to 14) (size 15 to 20)
#    0.000    1.600    4.000    1.200    0.000    0.400 
#    3.600    0.000    0.000    0.000    0.000    0.000 
#    0.000    0.000    0.000    0.000    0.000    0.000 
#
# Total GULP energy -495857.743209 kJ/mol
# GULP energy per Si atom -12396.443580 kJ/mol
# Density = 1.869726 g / cm^3
# Si number density = 18.739909 Si / 1000 Ang^3
#
#
#
# Elastic Constant Matrix: (Units=GPa)
#
#
# Indices 1 2 3 4 5 6 
#
# 1 81.2526 29.1559 34.5765 0.0000 0.0000 0.0000
# 2 29.1559 81.2526 34.5765 0.0000 0.0000 0.0000
# 3 34.5765 34.5765 98.5048 0.0000 0.0000 0.0000
# 4 0.0000 0.0000 0.0000 22.2070 0.0000 0.0000
# 5 0.0000 0.0000 0.0000 0.0000 22.2070 0.0000
# 6 0.0000 0.0000 0.0000 0.0000 0.0000 26.6731
#
#
#
# Elastic Compliance Matrix: (Units=1/GPa)
#
#
# Indices 1 2 3 4 5 6 
#
# 1 0.015402 -0.003793 -0.004075 0.000000 0.000000 0.000000
# 2 -0.003793 0.015402 -0.004075 0.000000 0.000000 0.000000
# 3 -0.004075 -0.004075 0.013013 0.000000 0.000000 0.000000
# 4 0.000000 0.000000 0.000000 0.045031 0.000000 0.000000
# 5 0.000000 0.000000 0.000000 0.000000 0.045031 0.000000
# 6 0.000000 0.000000 0.000000 0.000000 0.000000 0.037491
#
#
# Mechanical properties :
#
#
# Convention : Reuss Voigt Hill
#
# Bulk Modulus (GPa) = 50.17203 50.84754 50.50979
# Shear Modulus (GPa) = 24.76474 25.06415 24.91444
#
# Velocity S-wave (km/s) = 3.63918 3.66112 3.65017
# Velocity P-wave (km/s) = 6.67002 6.71297 6.69153
#
# Compressibility (1/GPa) = 0.01993142
#
# Stress axis : x y z
#
# Youngs Moduli (GPa) = 64.92499 64.92499 76.84819
#
# Poissons Ratio (x) = 0.24624 0.31317
# Poissons Ratio (y) = 0.24624 0.31317
# Poissons Ratio (z) = 0.26458 0.26458
#
# Static dielectric constant tensor:
#      x y z
#    x 3.522260 0.000000 0.000000 
#    y 0.000000 3.522260 0.000000 
#    z 0.000000 0.000000 3.475160 
# 
# 
# High freq. dielectric constant tensor:
#      x y z
#    x 1.729870 0.000000 0.000000 
#    y 0.000000 1.729870 0.000000 
#    z 0.000000 0.000000 1.729800 
# 
# From -- ./inp_files/3504.got.cif
#   From: 2010.03.12/outbox.cif.g09.slc.cpg/sg120_2_cif.got.tgz:3504.got - 2010.04.06 16:00:44.
