data_PCOD8311905
_publ_section_title
;
Structure prediction by ZEFSAII (Michael W. Deem and Ramdas Pophale) SiO2 
 PCOD8311905
Probable space group: I -4 2 D
;
_chemical_formula_sum "Si O2"
_cell_formula_units_Z 96
_cell_length_a 20.735176
_cell_length_b 20.735176
_cell_length_c 11.149501
_cell_angle_alpha 90.000000
_cell_angle_beta 90.000000
_cell_angle_gamma 90.000000
_cell_volume 4793.700346
_symmetry_space_group_name_H-M "I -4 2 D"
_symmetry_group_IT_number 122
_symmetry_cell_setting 'tetragonal'
loop_
_space_group_symop_operation_xyz
x,y,z
y,-x,-z
-x,-y,z
-y,x,-z
x,1/2-y,1/4-z
-x,1/2+y,1/4-z
-y,1/2-x,1/4+z
y,1/2+x,1/4+z
1/2+x,1/2+y,1/2+z
1/2+y,1/2-x,1/2-z
1/2-x,1/2-y,1/2+z
1/2-y,1/2+x,1/2-z
1/2+x,-y,3/4-z
1/2-x,y,3/4-z
1/2-y,-x,3/4+z
1/2+y,x,3/4+z
loop_
_atom_site_type_symbol
_atom_site_label
_atom_site_fract_x
_atom_site_fract_y
_atom_site_fract_z
Si Si1 0.835714 0.087236 0.456996
Si Si2 0.206772 0.868040 0.212048
Si Si3 0.755356 0.612777 0.505701
Si Si4 0.001322 0.922611 0.162171
Si Si5 0.120412 0.612381 0.249472
Si Si6 0.854488 0.964031 0.600381
O O1 0.820771 0.084529 0.315097
O O2 0.784517 0.132841 0.528166
O O3 0.907785 0.112639 0.477321
O O4 0.830892 0.015651 0.505651
O O5 0.179252 0.796258 0.239259
O O6 0.184745 0.896233 0.082599
O O7 0.750000 0.580245 0.375000
O O8 0.683732 0.624992 0.557892
O O9 0.789758 0.561990 0.589922
O O10 0.006409 0.903976 0.301754
O O11 0.938107 0.888072 0.106794
O O12 0.061743 0.893279 0.093281
O O13 0.000000 0.000000 0.146436
#
# Coordination Sequence:
#
# PCOD8311905 Si02
#       6
#    16  16  16  16  16  16
#     4  10  22  38  63  87 123 168 208 250 305 386
#     4   9  20  41  66  86 115 169 211 248 319 380
#     4   9  18  38  65  87 116 165 204 256 318 376
#     4  12  23  36  59  97 132 161 207 264 323 381
#     4  11  20  38  66  92 123 163 204 269 322 376
#     4  11  24  39  61  92 127 171 209 258 310 381
#
# _framework density 20.026282999999999
#
# number of rings (size 3 to 8) (size 9 to 14) (size 15 to 20)
#    0.000    1.667    6.667    0.000    4.667    0.000 
#    0.000    0.000   51.333    0.000    0.000    0.000 
#    0.000    0.000    0.000    0.000    0.000    0.000 
#
# Total GULP energy -594998.684065 kJ/mol
# GULP energy per Si atom -12395.805918 kJ/mol
# Density = 1.998070 g / cm^3
# Si number density = 20.026283 Si / 1000 Ang^3
#
#
#
# Elastic Constant Matrix: (Units=GPa)
#
#
# Indices 1 2 3 4 5 6 
#
# 1 127.5214 42.0012 50.8256 0.0000 0.0000 0.0000
# 2 42.0012 127.5214 50.8256 0.0000 0.0000 0.0000
# 3 50.8256 50.8256 71.6940 0.0000 0.0000 0.0000
# 4 0.0000 0.0000 0.0000 27.0504 0.0000 0.0000
# 5 0.0000 0.0000 0.0000 0.0000 27.0504 0.0000
# 6 0.0000 0.0000 0.0000 0.0000 0.0000 17.0818
#
#
#
# Elastic Compliance Matrix: (Units=1/GPa)
#
#
# Indices 1 2 3 4 5 6 
#
# 1 0.010977 -0.000716 -0.007274 0.000000 0.000000 0.000000
# 2 -0.000716 0.010977 -0.007274 0.000000 0.000000 0.000000
# 3 -0.007274 -0.007274 0.024262 0.000000 0.000000 0.000000
# 4 0.000000 0.000000 0.000000 0.036968 0.000000 0.000000
# 5 0.000000 0.000000 0.000000 0.000000 0.036968 0.000000
# 6 0.000000 0.000000 0.000000 0.000000 0.000000 0.058542
#
#
# Mechanical properties :
#
#
# Convention : Reuss Voigt Hill
#
# Bulk Modulus (GPa) = 63.74769 68.22686 65.98727
# Shear Modulus (GPa) = 23.31538 26.44216 24.87877
#
# Velocity S-wave (km/s) = 3.41580 3.63764 3.52846
# Velocity P-wave (km/s) = 6.88898 7.19624 7.04428
#
# Compressibility (1/GPa) = 0.01568684
#
# Stress axis : x y z
#
# Youngs Moduli (GPa) = 91.10043 91.10043 41.21734
#
# Poissons Ratio (x) = 0.06525 0.29982
# Poissons Ratio (y) = 0.06525 0.29982
# Poissons Ratio (z) = 0.66267 0.66267
#
# Static dielectric constant tensor:
#      x y z
#    x 3.838350 0.000000 0.000000 
#    y 0.000000 3.838350 0.000000 
#    z 0.000000 0.000000 3.604790 
# 
# 
# High freq. dielectric constant tensor:
#      x y z
#    x 1.779320 0.000000 0.000000 
#    y 0.000000 1.779320 0.000000 
#    z 0.000000 0.000000 1.767650 
# 
# From -- ./inp_files/4481.got.cif
#   From: 2010.03.12/outbox.cif.g09.slc.cpg/sg122_3_cif.got.tgz:4481.got - 2010.04.06 16:17:16.
