data_PCOD8311127
_publ_section_title
;
Structure prediction by ZEFSAII (Michael W. Deem and Ramdas Pophale) SiO2 
 PCOD8311127
Probable space group: I -4 C 2
;
_chemical_formula_sum "Si O2"
_cell_formula_units_Z 112
_cell_length_a 15.524704
_cell_length_b 15.524704
_cell_length_c 24.471308
_cell_angle_alpha 90.000000
_cell_angle_beta 90.000000
_cell_angle_gamma 90.000000
_cell_volume 5897.987397
_symmetry_space_group_name_H-M "I -4 C 2"
_symmetry_group_IT_number 120
_symmetry_cell_setting 'tetragonal'
loop_
_space_group_symop_operation_xyz
x,y,z
y,-x,-z
-x,-y,z
-y,x,-z
y,x,1/2-z
-y,-x,1/2-z
-x,y,1/2+z
x,-y,1/2+z
1/2+x,1/2+y,1/2+z
1/2+y,1/2-x,1/2-z
1/2-x,1/2-y,1/2+z
1/2-y,1/2+x,1/2-z
1/2+y,1/2+x,-z
1/2-y,1/2-x,-z
1/2-x,1/2+y,z
1/2+x,1/2-y,z
loop_
_atom_site_type_symbol
_atom_site_label
_atom_site_fract_x
_atom_site_fract_y
_atom_site_fract_z
Si Si1 0.570552 0.930097 0.390122
Si Si2 0.136004 0.023384 0.132631
Si Si3 0.441696 0.196569 0.063948
Si Si4 0.809932 0.048504 0.749992
Si Si5 0.943251 0.699482 0.437633
Si Si6 0.360384 0.524220 0.862189
Si Si7 0.883832 0.557148 0.770780
O O1 0.531146 0.850465 0.423149
O O2 0.609157 0.902935 0.331529
O O3 0.500000 0.000000 0.375241
O O4 0.642376 0.971009 0.429005
O O5 0.170952 0.003186 0.192912
O O6 0.211198 0.053345 0.093235
O O7 0.070532 0.102834 0.125967
O O8 0.092144 0.932493 0.119066
O O9 0.357755 0.139593 0.079863
O O10 0.448432 0.278598 0.102620
O O11 0.437918 0.223457 0.001102
O O12 0.864576 0.135425 0.750000
O O13 0.711196 0.078459 0.750502
O O14 0.834070 0.980097 0.797926
O O15 0.898340 0.453194 0.769707
#
# Coordination Sequence:
#
# PCOD8311127 Si02
#       7
#    16  16  16  16  16  16  16
#     4  10  18  35  59  84 117 155 191 232 297 356
#     4  10  22  39  62  87 119 155 203 241 293 362
#     4  10  21  39  62  84 119 153 200 245 297 349
#     4  10  21  38  59  85 119 154 196 243 293 357
#     4  10  22  39  59  90 115 153 199 252 292 346
#     4  10  21  41  63  85 116 164 195 240 301 360
#     4  11  20  32  56  90 120 156 188 237 297 357
#
# _framework density 18.989528
#
# number of rings (size 3 to 8) (size 9 to 14) (size 15 to 20)
#    0.000    1.857    2.857    1.714    2.000    4.571 
#    2.571    5.714    0.000    0.000    0.000    0.000 
#    0.000    0.000    0.000    0.000    0.000    0.000 
#
# Total GULP energy -694142.432950 kJ/mol
# GULP energy per Si atom -12395.400588 kJ/mol
# Density = 1.894631 g / cm^3
# Si number density = 18.989528 Si / 1000 Ang^3
#
#
#
# Elastic Constant Matrix: (Units=GPa)
#
#
# Indices 1 2 3 4 5 6 
#
# 1 89.6068 28.3547 60.1879 0.0000 0.0000 0.0000
# 2 28.3547 89.6101 60.1871 0.0000 0.0000 0.0000
# 3 60.1879 60.1871 122.1383 0.0000 0.0000 0.0000
# 4 0.0000 0.0000 0.0000 26.0687 0.0000 0.0000
# 5 0.0000 0.0000 0.0000 0.0000 26.0690 0.0000
# 6 0.0000 0.0000 0.0000 0.0000 0.0000 14.5565
#
#
#
# Elastic Compliance Matrix: (Units=1/GPa)
#
#
# Indices 1 2 3 4 5 6 
#
# 1 0.016689 0.000363 -0.008403 0.000000 0.000000 0.000000
# 2 0.000363 0.016688 -0.008403 0.000000 0.000000 0.000000
# 3 -0.008403 -0.008403 0.016469 0.000000 0.000000 0.000000
# 4 0.000000 0.000000 0.000000 0.038360 0.000000 0.000000
# 5 0.000000 0.000000 0.000000 0.000000 0.038360 0.000000
# 6 0.000000 0.000000 0.000000 0.000000 0.000000 0.068698
#
#
# Mechanical properties :
#
#
# Convention : Reuss Voigt Hill
#
# Bulk Modulus (GPa) = 58.95761 66.53495 62.74628
# Shear Modulus (GPa) = 21.38552 23.51388 22.44970
#
# Velocity S-wave (km/s) = 3.35949 3.52270 3.44207
# Velocity P-wave (km/s) = 6.79434 7.18747 6.99367
#
# Compressibility (1/GPa) = 0.01696134
#
# Stress axis : x y z
#
# Youngs Moduli (GPa) = 59.91872 59.92277 60.72021
#
# Poissons Ratio (x) = -0.02176 0.51024
# Poissons Ratio (y) = -0.02176 0.51020
# Poissons Ratio (z) = 0.50351 0.50350
#
# Static dielectric constant tensor:
#      x y z
#    x 3.504490 0.000000 0.000000 
#    y 0.000000 3.504500 0.000000 
#    z 0.000000 0.000000 3.516190 
# 
# 
# High freq. dielectric constant tensor:
#      x y z
#    x 1.730540 0.000000 0.000000 
#    y 0.000000 1.730540 0.000000 
#    z 0.000000 0.000000 1.744800 
# 
# From -- ./inp_files/5937.got.cif
#   From: 2010.03.12/outbox.cif.g09.slc.cpg/sg120_3_cif.got.tgz:5937.got - 2010.04.06 16:00:44.
