data_PCOD8311007
_publ_section_title
;
Structure prediction by ZEFSAII (Michael W. Deem and Ramdas Pophale) SiO2 
 PCOD8311007
Probable space group: I -4 M 2
;
_chemical_formula_sum "Si O2"
_cell_formula_units_Z 72
_cell_length_a 13.733958
_cell_length_b 13.733958
_cell_length_c 16.106189
_cell_angle_alpha 90.000000
_cell_angle_beta 90.000000
_cell_angle_gamma 90.000000
_cell_volume 3037.975177
_symmetry_space_group_name_H-M "I -4 M 2"
_symmetry_group_IT_number 119
_symmetry_cell_setting 'tetragonal'
loop_
_space_group_symop_operation_xyz
x,y,z
y,-x,-z
-x,-y,z
-y,x,-z
y,x,-z
-y,-x,-z
-x,y,z
x,-y,z
1/2+x,1/2+y,1/2+z
1/2+y,1/2-x,1/2-z
1/2-x,1/2-y,1/2+z
1/2-y,1/2+x,1/2-z
1/2+y,1/2+x,1/2-z
1/2-y,1/2-x,1/2-z
1/2-x,1/2+y,1/2+z
1/2+x,1/2-y,1/2+z
loop_
_atom_site_type_symbol
_atom_site_label
_atom_site_fract_x
_atom_site_fract_y
_atom_site_fract_z
Si Si1 0.388748 0.386042 0.162076
Si Si2 0.706700 0.809291 0.591816
Si Si3 0.391643 0.295506 0.341614
Si Si4 0.607673 0.109938 0.070566
Si Si5 0.391120 0.108881 0.750000
O O1 0.500000 0.375452 0.133131
O O2 0.359648 0.500000 0.168007
O O3 0.324374 0.324777 0.095926
O O4 0.371451 0.334297 0.250427
O O5 0.668509 0.697476 0.600037
O O6 0.672114 0.847083 0.503936
O O7 0.674393 0.872188 0.670359
O O8 0.500000 0.330640 0.372003
O O9 0.385803 0.177098 0.348122
O O10 0.500000 0.148742 0.095074
O O11 0.600372 0.000000 0.037056
O O12 0.500000 0.127250 0.719268
#
# Coordination Sequence:
#
# PCOD8311007 Si02
#       5
#    16  16  16  16   8
#     4  10  21  38  62  93 127 164 209 263 321 379
#     4  12  21  37  62  92 125 161 205 262 320 382
#     4  10  22  40  59  85 124 169 213 255 310 381
#     4  10  22  40  63  91 124 162 206 261 322 381
#     4  11  22  34  56  92 126 155 194 250 314 373
#
# _framework density 23.699997
#
# number of rings (size 3 to 8) (size 9 to 14) (size 15 to 20)
#    0.000    1.444    2.222    3.333    0.000    3.556 
#    0.000    2.222    0.000    2.667    0.000    3.111 
#    0.000    0.000    0.000    0.000    0.000    0.000 
#
# Total GULP energy -446087.029454 kJ/mol
# GULP energy per Si atom -12391.306374 kJ/mol
# Density = 2.364605 g / cm^3
# Si number density = 23.699997 Si / 1000 Ang^3
#
#
#
# Elastic Constant Matrix: (Units=GPa)
#
#
# Indices 1 2 3 4 5 6 
#
# 1 129.4199 21.2814 30.6200 0.0000 0.0000 0.0000
# 2 21.2814 129.4206 30.6205 0.0000 0.0000 0.0000
# 3 30.6200 30.6205 70.7037 0.0000 0.0000 0.0000
# 4 0.0000 0.0000 0.0000 25.9144 0.0000 0.0000
# 5 0.0000 0.0000 0.0000 0.0000 25.9134 0.0000
# 6 0.0000 0.0000 0.0000 0.0000 0.0000 29.9521
#
#
#
# Elastic Compliance Matrix: (Units=1/GPa)
#
#
# Indices 1 2 3 4 5 6 
#
# 1 0.008650 -0.000597 -0.003487 0.000000 0.000000 0.000000
# 2 -0.000597 0.008650 -0.003488 0.000000 0.000000 0.000000
# 3 -0.003487 -0.003488 0.017164 0.000000 0.000000 0.000000
# 4 0.000000 0.000000 0.000000 0.038589 0.000000 0.000000
# 5 0.000000 0.000000 0.000000 0.000000 0.038590 0.000000
# 6 0.000000 0.000000 0.000000 0.000000 0.000000 0.033387
#
#
# Mechanical properties :
#
#
# Convention : Reuss Voigt Hill
#
# Bulk Modulus (GPa) = 51.76008 54.95420 53.35714
# Shear Modulus (GPa) = 30.00943 32.82414 31.41679
#
# Velocity S-wave (km/s) = 3.56226 3.72558 3.64483
# Velocity P-wave (km/s) = 6.22950 6.46098 6.34630
#
# Compressibility (1/GPa) = 0.01931991
#
# Stress axis : x y z
#
# Youngs Moduli (GPa) = 115.60535 115.60564 58.26056
#
# Poissons Ratio (x) = 0.06905 0.20318
# Poissons Ratio (y) = 0.06905 0.20319
# Poissons Ratio (z) = 0.40317 0.40318
#
# Static dielectric constant tensor:
#      x y z
#    x 4.831420 0.000000 0.000000 
#    y 0.000000 4.831470 0.000000 
#    z 0.000000 0.000000 3.970010 
# 
# 
# High freq. dielectric constant tensor:
#      x y z
#    x 1.957120 0.000000 0.000000 
#    y 0.000000 1.957120 0.000000 
#    z 0.000000 0.000000 1.912650 
# 
# From -- ./inp_files/6364.got.cif
#   From: 2010.03.12/outbox.cif.g09.slc.cpg/sg119_4_cif.got.tgz:6364.got - 2010.04.14 02:25:26.
