data_PCOD8311781
_publ_section_title
;
Structure prediction by ZEFSAII (Michael W. Deem and Ramdas Pophale) SiO2 
 PCOD8311781
Probable space group: I -4 2 D
;
_chemical_formula_sum "Si O2"
_cell_formula_units_Z 60
_cell_length_a 11.228700
_cell_length_b 11.228700
_cell_length_c 21.401021
_cell_angle_alpha 90.000000
_cell_angle_beta 90.000000
_cell_angle_gamma 90.000000
_cell_volume 2698.319990
_symmetry_space_group_name_H-M "I -4 2 D"
_symmetry_group_IT_number 122
_symmetry_cell_setting 'tetragonal'
loop_
_space_group_symop_operation_xyz
x,y,z
y,-x,-z
-x,-y,z
-y,x,-z
x,1/2-y,1/4-z
-x,1/2+y,1/4-z
-y,1/2-x,1/4+z
y,1/2+x,1/4+z
1/2+x,1/2+y,1/2+z
1/2+y,1/2-x,1/2-z
1/2-x,1/2-y,1/2+z
1/2-y,1/2+x,1/2-z
1/2+x,-y,3/4-z
1/2-x,y,3/4-z
1/2-y,-x,3/4+z
1/2+y,x,3/4+z
loop_
_atom_site_type_symbol
_atom_site_label
_atom_site_fract_x
_atom_site_fract_y
_atom_site_fract_z
Si Si1 0.858256 0.221582 0.956023
Si Si2 0.900538 0.416665 0.050820
Si Si3 0.000000 0.500000 0.170638
Si Si4 0.790231 0.901403 0.569137
Si Si5 0.000000 0.000000 0.500000
O O1 0.919729 0.091268 0.961801
O O2 0.901932 0.291615 0.894456
O O3 0.714393 0.216624 0.954603
O O4 0.899067 0.288864 0.018398
O O5 0.930874 0.406164 0.125149
O O6 0.773774 0.480986 0.043052
O O7 0.000000 0.500000 0.017871
O O8 0.924812 0.909327 0.543715
#
# Coordination Sequence:
#
# PCOD8311781 Si02
#       5
#    16  16   8  16   4
#     4  10  19  39  64  90 133 178 218 278 333 393
#     4   9  19  38  59  90 128 167 214 278 323 388
#     4   8  20  37  66  93 124 175 227 272 330 398
#     4  10  21  35  63  94 132 173 221 277 336 404
#     4  12  20  34  60 104 128 172 218 268 336 408
#
# _framework density 22.236058
#
# number of rings (size 3 to 8) (size 9 to 14) (size 15 to 20)
#    0.800    1.600    2.667    0.000    1.867    0.000 
#    0.000    2.667    0.000    0.000    0.000    0.000 
#    0.000    0.000    0.000    0.000    0.000    0.000 
#
# Total GULP energy -371757.045513 kJ/mol
# GULP energy per Si atom -12391.901517 kJ/mol
# Density = 2.218545 g / cm^3
# Si number density = 22.236058 Si / 1000 Ang^3
#
#
#
# Elastic Constant Matrix: (Units=GPa)
#
#
# Indices 1 2 3 4 5 6 
#
# 1 122.6185 58.2879 52.2715 0.0000 0.0000 0.0000
# 2 58.2879 122.6185 52.2715 0.0000 0.0000 0.0000
# 3 52.2715 52.2715 72.0090 0.0000 0.0000 0.0000
# 4 0.0000 0.0000 0.0000 36.9194 0.0000 0.0000
# 5 0.0000 0.0000 0.0000 0.0000 36.9194 0.0000
# 6 0.0000 0.0000 0.0000 0.0000 0.0000 43.0128
#
#
#
# Elastic Compliance Matrix: (Units=1/GPa)
#
#
# Indices 1 2 3 4 5 6 
#
# 1 0.012533 -0.003011 -0.006912 0.000000 0.000000 0.000000
# 2 -0.003011 0.012533 -0.006912 0.000000 0.000000 0.000000
# 3 -0.006912 -0.006912 0.023922 0.000000 0.000000 0.000000
# 4 0.000000 0.000000 0.000000 0.027086 0.000000 0.000000
# 5 0.000000 0.000000 0.000000 0.000000 0.027086 0.000000
# 6 0.000000 0.000000 0.000000 0.000000 0.000000 0.023249
#
#
# Mechanical properties :
#
#
# Convention : Reuss Voigt Hill
#
# Bulk Modulus (GPa) = 65.28296 71.43422 68.35859
# Shear Modulus (GPa) = 30.26870 33.66466 31.96668
#
# Velocity S-wave (km/s) = 3.69351 3.89519 3.79569
# Velocity P-wave (km/s) = 6.90015 7.24052 7.07239
#
# Compressibility (1/GPa) = 0.01531793
#
# Stress axis : x y z
#
# Youngs Moduli (GPa) = 79.78668 79.78668 41.80214
#
# Poissons Ratio (x) = 0.24026 0.28894
# Poissons Ratio (y) = 0.24026 0.28894
# Poissons Ratio (z) = 0.55150 0.55150
#
# Static dielectric constant tensor:
#      x y z
#    x 3.824270 0.000000 0.000000 
#    y 0.000000 3.824270 0.000000 
#    z 0.000000 0.000000 3.813550 
# 
# 
# High freq. dielectric constant tensor:
#      x y z
#    x 1.869990 0.000000 0.000000 
#    y 0.000000 1.869990 0.000000 
#    z 0.000000 0.000000 1.868130 
# 
# From -- ./inp_files/8536.got.cif
#   From: 2010.03.12/outbox.cif.g09.slc.cpg/sg122_5_cif.got.tgz:8536.got - 2010.04.06 16:17:16.
