data_PCOD8311430
_publ_section_title
;
Structure prediction by ZEFSAII (Michael W. Deem and Ramdas Pophale) SiO2 
 PCOD8311430
Probable space group: I -4 2 M
;
_chemical_formula_sum "Si O2"
_cell_formula_units_Z 112
_cell_length_a 18.699915
_cell_length_b 18.699915
_cell_length_c 20.406402
_cell_angle_alpha 90.000000
_cell_angle_beta 90.000000
_cell_angle_gamma 90.000000
_cell_volume 7135.849844
_symmetry_space_group_name_H-M "I -4 2 M"
_symmetry_group_IT_number 121
_symmetry_cell_setting 'tetragonal'
loop_
_space_group_symop_operation_xyz
x,y,z
y,-x,-z
-x,-y,z
-y,x,-z
x,-y,-z
-x,y,-z
-y,-x,z
y,x,z
1/2+x,1/2+y,1/2+z
1/2+y,1/2-x,1/2-z
1/2-x,1/2-y,1/2+z
1/2-y,1/2+x,1/2-z
1/2+x,1/2-y,1/2-z
1/2-x,1/2+y,1/2-z
1/2-y,1/2-x,1/2+z
1/2+y,1/2+x,1/2+z
loop_
_atom_site_type_symbol
_atom_site_label
_atom_site_fract_x
_atom_site_fract_y
_atom_site_fract_z
Si Si1 0.253215 0.366103 0.804574
Si Si2 0.938026 0.607201 0.447004
Si Si3 0.511553 0.919124 0.335060
Si Si4 0.012260 0.280097 0.645281
Si Si5 0.821380 0.931663 0.534244
Si Si6 0.117290 0.630096 0.273567
Si Si7 0.666079 0.775528 0.950235
O O1 0.329375 0.329375 0.786600
O O2 0.261876 0.452268 0.811938
O O3 0.197301 0.347007 0.746636
O O4 0.224123 0.332515 0.872014
O O5 0.914935 0.532337 0.412800
O O6 0.865151 0.646888 0.474531
O O7 0.000000 0.594144 0.500000
O O8 0.973417 0.653127 0.388694
O O9 0.438112 0.876525 0.322360
O O10 0.576507 0.888531 0.293088
O O11 0.500000 0.000000 0.312424
O O12 0.048378 0.230970 0.591920
O O13 0.076659 0.305096 0.691576
O O14 0.883500 0.883500 0.564929
O O15 0.780222 0.892545 0.475494
O O16 0.856907 0.000000 0.500000
O O17 0.745600 0.745600 0.974330
#
# Coordination Sequence:
#
# PCOD8311430 Si02
#       7
#    16  16  16  16  16  16  16
#     4  10  19  30  48  68  87 117 160 202 232 279
#     4  11  18  29  44  66  90 115 155 192 235 278
#     4  12  18  28  44  68  89 118 152 191 232 283
#     4  11  19  31  48  66  93 124 154 194 239 282
#     4  11  20  32  48  67  91 122 160 199 240 281
#     4  12  19  31  48  66  92 124 157 190 241 288
#     4   9  16  28  46  63  82 116 157 192 227 270
#
# _framework density 15.695397
#
# number of rings (size 3 to 8) (size 9 to 14) (size 15 to 20)
#    0.000    1.143   11.429    0.000    0.000    1.000 
#    0.000    0.000    0.000    0.000    0.000    0.000 
#    0.000    0.000    0.000    0.000    0.000    0.000 
#
# Total GULP energy -693763.926009 kJ/mol
# GULP energy per Si atom -12388.641536 kJ/mol
# Density = 1.565967 g / cm^3
# Si number density = 15.695397 Si / 1000 Ang^3
#
#
#
# Elastic Constant Matrix: (Units=GPa)
#
#
# Indices 1 2 3 4 5 6 
#
# 1 65.3454 41.0140 38.8408 0.0000 0.0000 0.0000
# 2 41.0140 65.3454 38.8408 0.0000 0.0000 0.0000
# 3 38.8408 38.8408 61.2094 0.0000 0.0000 0.0000
# 4 0.0000 0.0000 0.0000 -0.4606 0.0000 0.0000
# 5 0.0000 0.0000 0.0000 0.0000 -0.4606 0.0000
# 6 0.0000 0.0000 0.0000 0.0000 0.0000 23.2250
#
#
#
# Elastic Compliance Matrix: (Units=1/GPa)
#
#
# Indices 1 2 3 4 5 6 
#
# 1 0.029311 -0.011788 -0.011120 0.000000 0.000000 0.000000
# 2 -0.011788 0.029311 -0.011120 0.000000 0.000000 0.000000
# 3 -0.011120 -0.011120 0.030450 0.000000 0.000000 0.000000
# 4 0.000000 0.000000 0.000000 -2.171063 -0.000023 0.000000
# 5 0.000000 0.000000 0.000000 -0.000023 -2.171049 0.000000
# 6 0.000000 0.000000 0.000000 0.000000 0.000000 0.043057
#
#
# Mechanical properties :
#
#
# Convention : Reuss Voigt Hill
#
# Bulk Modulus (GPa) = 47.57857 47.69907 47.63882
# Shear Modulus (GPa) = -1.20921 9.34105 4.06592
#
# Velocity S-wave (km/s) = -0.87869 2.44221 1.61125
# Velocity P-wave (km/s) = 5.41757 6.19750 5.82061
#
# Compressibility (1/GPa) = 0.02101786
#
# Stress axis : x y z
#
# Youngs Moduli (GPa) = 34.11647 34.11647 32.84121
#
# Poissons Ratio (x) = 0.40216 0.36518
# Poissons Ratio (y) = 0.40216 0.36518
# Poissons Ratio (z) = 0.37937 0.37937
#
# Static dielectric constant tensor:
#      x y z
#    x 3.167700 0.000000 0.000000 
#    y 0.000000 3.167700 0.000000 
#    z 0.000000 0.000000 2.913950 
# 
# 
# High freq. dielectric constant tensor:
#      x y z
#    x 1.581720 0.000000 0.000000 
#    y 0.000000 1.581720 0.000000 
#    z 0.000000 0.000000 1.591930 
# 
# From -- ./inp_files/5615.got.cif
#   From: 2010.03.12/outbox.cif.g09.slc.cpg/sg121_3_cif.got.tgz:5615.got - 2010.04.06 16:06:48.
