data_PCOD8311466
_publ_section_title
;
Structure prediction by ZEFSAII (Michael W. Deem and Ramdas Pophale) SiO2 
 PCOD8311466
Probable space group: I -4 2 M
;
_chemical_formula_sum "Si O2"
_cell_formula_units_Z 96
_cell_length_a 25.455149
_cell_length_b 25.455149
_cell_length_c 9.236808
_cell_angle_alpha 90.000000
_cell_angle_beta 90.000000
_cell_angle_gamma 90.000000
_cell_volume 5985.124699
_symmetry_space_group_name_H-M "I -4 2 M"
_symmetry_group_IT_number 121
_symmetry_cell_setting 'tetragonal'
loop_
_space_group_symop_operation_xyz
x,y,z
y,-x,-z
-x,-y,z
-y,x,-z
x,-y,-z
-x,y,-z
-y,-x,z
y,x,z
1/2+x,1/2+y,1/2+z
1/2+y,1/2-x,1/2-z
1/2-x,1/2-y,1/2+z
1/2-y,1/2+x,1/2-z
1/2+x,1/2-y,1/2-z
1/2-x,1/2+y,1/2-z
1/2-y,1/2-x,1/2+z
1/2+y,1/2+x,1/2+z
loop_
_atom_site_type_symbol
_atom_site_label
_atom_site_fract_x
_atom_site_fract_y
_atom_site_fract_z
Si Si1 0.125452 0.957765 0.879638
Si Si2 0.282734 0.439322 0.004006
Si Si3 0.109890 0.969696 0.375312
Si Si4 0.878199 0.206308 0.786243
Si Si5 0.732463 0.181139 0.005922
Si Si6 0.159299 0.752531 0.328688
O O1 0.067150 0.932851 0.890690
O O2 0.168815 0.912838 0.888898
O O3 0.134334 0.988307 0.731398
O O4 0.135433 0.000000 0.000000
O O5 0.344247 0.439799 0.039412
O O6 0.258581 0.402233 0.130244
O O7 0.260369 0.500000 0.000000
O O8 0.272941 0.410735 0.850959
O O9 0.071950 0.928051 0.294470
O O10 0.077104 0.000000 0.500000
O O11 0.826159 0.173842 0.733379
O O12 0.864491 0.256160 0.887734
O O13 0.784301 0.215700 0.005572
O O14 0.682575 0.214071 0.951855
O O15 0.724534 0.160761 0.170485
O O16 0.192518 0.807483 0.328290
#
# Coordination Sequence:
#
# PCOD8311466 Si02
#       6
#    16  16  16  16  16  16
#     4  11  23  35  46  62  88 123 167 219 270 306
#     4  11  21  33  48  68  95 129 165 203 251 298
#     4  11  21  33  47  63  83 120 171 219 261 300
#     4  10  19  34  49  65  91 121 158 208 256 305
#     4   9  19  32  53  78  97 122 157 206 264 312
#     4  10  19  33  52  76  99 123 161 208 255 307
#
# _framework density 16.039764999999999
#
# number of rings (size 3 to 8) (size 9 to 14) (size 15 to 20)
#    0.000    1.667    3.333    3.500    2.333    4.667 
#    0.000    0.000    0.000    0.000    0.000    0.000 
#    0.000    0.000    0.000    0.000    0.000   54.167 
#
# Total GULP energy -594754.453092 kJ/mol
# GULP energy per Si atom -12390.717773 kJ/mol
# Density = 1.600326 g / cm^3
# Si number density = 16.039765 Si / 1000 Ang^3
#
#
#
# Elastic Constant Matrix: (Units=GPa)
#
#
# Indices 1 2 3 4 5 6 
#
# 1 57.9228 27.9719 25.5259 0.0000 0.0000 0.0000
# 2 27.9719 57.9221 25.5260 0.0000 0.0000 0.0000
# 3 25.5259 25.5260 79.6266 0.0000 0.0000 0.0000
# 4 0.0000 0.0000 0.0000 28.5824 0.0000 0.0000
# 5 0.0000 0.0000 0.0000 0.0000 28.5827 0.0000
# 6 0.0000 0.0000 0.0000 0.0000 0.0000 19.7020
#
#
#
# Elastic Compliance Matrix: (Units=1/GPa)
#
#
# Indices 1 2 3 4 5 6 
#
# 1 0.023885 -0.009503 -0.004611 0.000000 0.000000 0.000000
# 2 -0.009503 0.023886 -0.004611 0.000000 0.000000 0.000000
# 3 -0.004611 -0.004611 0.015515 0.000000 0.000000 0.000000
# 4 0.000000 0.000000 0.000000 0.034987 0.000000 0.000000
# 5 0.000000 0.000000 0.000000 0.000000 0.034986 0.000000
# 6 0.000000 0.000000 0.000000 0.000000 0.000000 0.050756
#
#
# Mechanical properties :
#
#
# Convention : Reuss Voigt Hill
#
# Bulk Modulus (GPa) = 38.70373 39.27990 38.99181
# Shear Modulus (GPa) = 21.73201 23.13661 22.43431
#
# Velocity S-wave (km/s) = 3.68487 3.80208 3.74393
# Velocity P-wave (km/s) = 6.50281 6.61942 6.56137
#
# Compressibility (1/GPa) = 0.02583731
#
# Stress axis : x y z
#
# Youngs Moduli (GPa) = 41.86681 41.86608 64.45514
#
# Poissons Ratio (x) = 0.39785 0.29717
# Poissons Ratio (y) = 0.39786 0.29718
# Poissons Ratio (z) = 0.19303 0.19303
#
# Static dielectric constant tensor:
#      x y z
#    x 2.894080 0.000000 0.000000 
#    y 0.000000 2.894070 0.000000 
#    z 0.000000 0.000000 3.117710 
# 
# 
# High freq. dielectric constant tensor:
#      x y z
#    x 1.583960 0.000000 0.000000 
#    y 0.000000 1.583960 0.000000 
#    z 0.000000 0.000000 1.635600 
# 
# From -- ./inp_files/1923.got.cif
#   From: 2010.03.12/outbox.cif.g09.slc.cpg/sg121_1_cif.got.tgz:1923.got - 2010.04.06 16:06:48.
