data_PCOD8311582
_publ_section_title
;
Structure prediction by ZEFSAII (Michael W. Deem and Ramdas Pophale) SiO2 
 PCOD8311582
Probable space group: I -4 2 M
;
_chemical_formula_sum "Si O2"
_cell_formula_units_Z 96
_cell_length_a 23.242162
_cell_length_b 23.242162
_cell_length_c 8.826071
_cell_angle_alpha 90.000000
_cell_angle_beta 90.000000
_cell_angle_gamma 90.000000
_cell_volume 4767.826736
_symmetry_space_group_name_H-M "I -4 2 M"
_symmetry_group_IT_number 121
_symmetry_cell_setting 'tetragonal'
loop_
_space_group_symop_operation_xyz
x,y,z
y,-x,-z
-x,-y,z
-y,x,-z
x,-y,-z
-x,y,-z
-y,-x,z
y,x,z
1/2+x,1/2+y,1/2+z
1/2+y,1/2-x,1/2-z
1/2-x,1/2-y,1/2+z
1/2-y,1/2+x,1/2-z
1/2+x,1/2-y,1/2-z
1/2-x,1/2+y,1/2-z
1/2-y,1/2-x,1/2+z
1/2+y,1/2+x,1/2+z
loop_
_atom_site_type_symbol
_atom_site_label
_atom_site_fract_x
_atom_site_fract_y
_atom_site_fract_z
Si Si1 0.846874 0.755664 0.029627
Si Si2 0.060652 0.735943 0.551446
Si Si3 0.394776 0.845663 0.300884
Si Si4 0.093871 0.000000 0.000000
Si Si5 0.410420 0.211331 0.266316
Si Si6 0.177987 0.500000 0.500000
Si Si7 0.427351 0.664647 0.283539
O O1 0.784650 0.784650 0.048533
O O2 0.857742 0.740465 0.854914
O O3 0.848438 0.696545 0.121339
O O4 0.897800 0.797183 0.086736
O O5 0.088122 0.683987 0.644082
O O6 0.091785 0.746269 0.390746
O O7 0.055111 0.795634 0.642182
O O8 0.000000 0.711218 0.500000
O O9 0.357944 0.902600 0.262822
O O10 0.449660 0.858157 0.412504
O O11 0.133610 0.016901 0.143646
O O12 0.054408 0.054408 0.951823
O O13 0.469128 0.216960 0.369101
O O14 0.382957 0.617044 0.221433
#
# Coordination Sequence:
#
# PCOD8311582 Si02
#       7
#    16  16  16   8  16   8  16
#     4   9  20  36  57  85 121 159 191 232 286 349
#     4  11  21  34  56  87 114 149 191 243 290 341
#     4  10  21  39  61  85 115 151 195 236 288 351
#     4   9  18  35  62  89 116 161 212 252 296 350
#     4  11  22  37  61  89 114 154 196 234 292 351
#     4  10  20  39  60  82 114 147 186 236 276 350
#     4   9  20  36  55  83 120 156 199 250 293 343
#
# _framework density 20.13496
#
# number of rings (size 3 to 8) (size 9 to 14) (size 15 to 20)
#    0.000    2.083    1.667    2.000    2.333    2.667 
#    0.000    4.167    0.000    1.500    0.000    0.000 
#    0.000    0.000    0.000    0.000    0.000    0.000 
#
# Total GULP energy -594769.941574 kJ/mol
# GULP energy per Si atom -12391.040449 kJ/mol
# Density = 2.008913 g / cm^3
# Si number density = 20.134960 Si / 1000 Ang^3
#
#
#
# Elastic Constant Matrix: (Units=GPa)
#
#
# Indices 1 2 3 4 5 6 
#
# 1 77.5465 32.5213 43.5248 0.0000 0.0000 0.0000
# 2 32.5213 77.5465 43.5247 0.0000 0.0000 0.0000
# 3 43.5248 43.5247 154.9027 0.0000 0.0000 0.0000
# 4 0.0000 0.0000 0.0000 19.4442 0.0000 0.0000
# 5 0.0000 0.0000 0.0000 0.0000 19.4452 0.0000
# 6 0.0000 0.0000 0.0000 0.0000 0.0000 2.2880
#
#
#
# Elastic Compliance Matrix: (Units=1/GPa)
#
#
# Indices 1 2 3 4 5 6 
#
# 1 0.016945 -0.005264 -0.003282 0.000000 0.000000 0.000000
# 2 -0.005264 0.016945 -0.003282 0.000000 0.000000 0.000000
# 3 -0.003282 -0.003282 0.008300 0.000000 0.000000 0.000000
# 4 0.000000 0.000000 0.000000 0.051429 0.000000 0.000000
# 5 0.000000 0.000000 0.000000 0.000000 0.051427 0.000000
# 6 0.000000 0.000000 0.000000 0.000000 0.000000 0.437070
#
#
# Mechanical properties :
#
#
# Convention : Reuss Voigt Hill
#
# Bulk Modulus (GPa) = 53.95601 61.01527 57.48564
# Shear Modulus (GPa) = 8.17058 20.93047 14.55052
#
# Velocity S-wave (km/s) = 2.01661 3.22764 2.69113
# Velocity P-wave (km/s) = 5.68134 6.65275 6.18615
#
# Compressibility (1/GPa) = 0.01853361
#
# Stress axis : x y z
#
# Youngs Moduli (GPa) = 59.01290 59.01300 120.48012
#
# Poissons Ratio (x) = 0.31067 0.39544
# Poissons Ratio (y) = 0.31066 0.39543
# Poissons Ratio (z) = 0.19369 0.19369
#
# Static dielectric constant tensor:
#      x y z
#    x 3.608430 0.000000 0.000000 
#    y 0.000000 3.608430 0.000000 
#    z 0.000000 0.000000 4.378730 
# 
# 
# High freq. dielectric constant tensor:
#      x y z
#    x 1.769410 0.000000 0.000000 
#    y 0.000000 1.769410 0.000000 
#    z 0.000000 0.000000 1.798240 
# 
# From -- ./inp_files/2003.got.cif
#   From: 2010.03.12/outbox.cif.g09.slc.cpg/sg121_2_cif.got.tgz:2003.got - 2010.04.06 16:06:48.
