data_PCOD8311166
_publ_section_title
;
Structure prediction by ZEFSAII (Michael W. Deem and Ramdas Pophale) SiO2 
 PCOD8311166
Probable space group: I -4 C 2
;
_chemical_formula_sum "Si O2"
_cell_formula_units_Z 80
_cell_length_a 17.820893
_cell_length_b 17.820893
_cell_length_c 13.938049
_cell_angle_alpha 90.000000
_cell_angle_beta 90.000000
_cell_angle_gamma 90.000000
_cell_volume 4426.504522
_symmetry_space_group_name_H-M "I -4 C 2"
_symmetry_group_IT_number 120
_symmetry_cell_setting 'tetragonal'
loop_
_space_group_symop_operation_xyz
x,y,z
y,-x,-z
-x,-y,z
-y,x,-z
y,x,1/2-z
-y,-x,1/2-z
-x,y,1/2+z
x,-y,1/2+z
1/2+x,1/2+y,1/2+z
1/2+y,1/2-x,1/2-z
1/2-x,1/2-y,1/2+z
1/2-y,1/2+x,1/2-z
1/2+y,1/2+x,-z
1/2-y,1/2-x,-z
1/2-x,1/2+y,z
1/2+x,1/2-y,z
loop_
_atom_site_type_symbol
_atom_site_label
_atom_site_fract_x
_atom_site_fract_y
_atom_site_fract_z
Si Si1 0.280307 0.999157 0.886785
Si Si2 0.249878 0.873798 0.242495
Si Si3 0.280307 0.000843 0.613214
Si Si4 0.441821 0.941821 0.113806
Si Si5 0.626202 0.749877 0.742495
O O1 0.361150 0.969540 0.851077
O O2 0.229314 0.932497 0.842955
O O3 0.263140 0.080349 0.841499
O O4 0.270063 0.006111 1.000000
O O5 0.176823 0.823178 0.250000
O O6 0.229315 0.932496 0.157044
O O7 0.322595 0.822594 0.219566
O O8 0.361150 0.030459 0.648923
O O9 0.263139 0.919651 0.658500
O O10 0.500000 0.000000 0.158130
O O11 0.442350 0.942350 0.000000
O O12 0.676822 0.676822 0.750000
#
# Coordination Sequence:
#
# PCOD8311166 Si02
#       5
#    16  16  16  16  16
#     4  10  20  35  54  80 111 147 187 228 277 332
#     4  10  21  36  54  81 115 149 186 229 279 332
#     4  10  20  35  54  80 111 147 187 228 277 332
#     4   9  16  28  49  76 107 139 174 214 264 330
#     4  10  21  36  54  81 115 149 186 229 279 332
#
# _framework density 18.072952000000001
#
# number of rings (size 3 to 8) (size 9 to 14) (size 15 to 20)
#    0.000    2.200    2.000    1.200    0.000    4.000 
#    0.000    4.000    0.000    9.600    0.000   11.200 
#    0.000    0.000    0.000    0.000    0.000    0.000 
#
# Total GULP energy -495697.735025 kJ/mol
# GULP energy per Si atom -12392.443376 kJ/mol
# Density = 1.803182 g / cm^3
# Si number density = 18.072952 Si / 1000 Ang^3
#
#
#
# Elastic Constant Matrix: (Units=GPa)
#
#
# Indices 1 2 3 4 5 6 
#
# 1 99.5300 52.2386 35.2798 0.0000 0.0000 0.0000
# 2 52.2386 99.5307 35.2796 0.0000 0.0000 0.0000
# 3 35.2798 35.2796 114.5177 0.0000 0.0000 0.0000
# 4 0.0000 0.0000 0.0000 19.7752 0.0000 0.0000
# 5 0.0000 0.0000 0.0000 0.0000 19.7754 0.0000
# 6 0.0000 0.0000 0.0000 0.0000 0.0000 30.9839
#
#
#
# Elastic Compliance Matrix: (Units=1/GPa)
#
#
# Indices 1 2 3 4 5 6 
#
# 1 0.014418 -0.006727 -0.002369 0.000000 0.000000 0.000000
# 2 -0.006727 0.014418 -0.002369 0.000000 0.000000 0.000000
# 3 -0.002369 -0.002369 0.010192 0.000000 0.000000 0.000000
# 4 0.000000 0.000000 0.000000 0.050568 0.000000 0.000000
# 5 0.000000 0.000000 0.000000 0.000000 0.050568 0.000000
# 6 0.000000 0.000000 0.000000 0.000000 0.000000 0.032275
#
#
# Mechanical properties :
#
#
# Convention : Reuss Voigt Hill
#
# Bulk Modulus (GPa) = 62.12688 62.13048 62.12868
# Shear Modulus (GPa) = 24.90833 26.82558 25.86696
#
# Velocity S-wave (km/s) = 3.71645 3.85683 3.78729
# Velocity P-wave (km/s) = 7.27092 7.36789 7.31956
#
# Compressibility (1/GPa) = 0.01609609
#
# Stress axis : x y z
#
# Youngs Moduli (GPa) = 69.35799 69.35863 98.11566
#
# Poissons Ratio (x) = 0.46661 0.23246
# Poissons Ratio (y) = 0.46660 0.23245
# Poissons Ratio (z) = 0.16433 0.16432
#
# Static dielectric constant tensor:
#      x y z
#    x 3.334080 0.000000 0.000000 
#    y 0.000000 3.334080 0.000000 
#    z 0.000000 0.000000 3.186300 
# 
# 
# High freq. dielectric constant tensor:
#      x y z
#    x 1.690290 0.000000 0.000000 
#    y 0.000000 1.690290 0.000000 
#    z 0.000000 0.000000 1.705620 
# 
# From -- ./inp_files/3433.got.cif
#   From: 2010.03.12/outbox.cif.g09.slc.cpg/sg120_2_cif.got.tgz:3433.got - 2010.04.06 16:00:44.
