data_PCOD8311936
_publ_section_title
;
Structure prediction by ZEFSAII (Michael W. Deem and Ramdas Pophale) SiO2 
 PCOD8311936
Probable space group: I -4 2 D
;
_chemical_formula_sum "Si O2"
_cell_formula_units_Z 56
_cell_length_a 10.906548
_cell_length_b 10.906548
_cell_length_c 22.454105
_cell_angle_alpha 90.000000
_cell_angle_beta 90.000000
_cell_angle_gamma 90.000000
_cell_volume 2670.978420
_symmetry_space_group_name_H-M "I -4 2 D"
_symmetry_group_IT_number 122
_symmetry_cell_setting 'tetragonal'
loop_
_space_group_symop_operation_xyz
x,y,z
y,-x,-z
-x,-y,z
-y,x,-z
x,1/2-y,1/4-z
-x,1/2+y,1/4-z
-y,1/2-x,1/4+z
y,1/2+x,1/4+z
1/2+x,1/2+y,1/2+z
1/2+y,1/2-x,1/2-z
1/2-x,1/2-y,1/2+z
1/2-y,1/2+x,1/2-z
1/2+x,-y,3/4-z
1/2-x,y,3/4-z
1/2-y,-x,3/4+z
1/2+y,x,3/4+z
loop_
_atom_site_type_symbol
_atom_site_label
_atom_site_fract_x
_atom_site_fract_y
_atom_site_fract_z
Si Si1 0.372556 0.068426 0.979545
Si Si2 0.115061 0.800475 0.360163
Si Si3 0.049287 0.339290 0.781751
Si Si4 0.750000 0.065744 0.875000
O O1 0.381604 0.212164 0.968496
O O2 0.500000 0.000000 0.969758
O O3 0.271776 0.016410 0.933612
O O4 0.328041 0.054498 0.046814
O O5 0.250000 0.859424 0.375000
O O6 0.129989 0.652323 0.365502
O O7 0.017680 0.856485 0.405563
O O8 0.149507 0.446572 0.771000
#
# Coordination Sequence:
#
# PCOD8311936 Si02
#       4
#    16  16  16   8
#     4  12  24  43  72  99 138 189 236 297 361 431
#     4  10  22  44  64  97 142 180 238 284 350 433
#     4  11  23  44  67 103 142 178 231 297 358 421
#     4  10  24  46  62 100 144 178 238 296 350 438
#
# _framework density 20.966100000000001
#
# number of rings (size 3 to 8) (size 9 to 14) (size 15 to 20)
#    0.857    0.286    5.714    0.000    4.000    2.286 
#    0.000    0.000    0.000    0.000    0.000    0.000 
#    0.000    0.000    0.000    0.000    0.000    0.000 
#
# Total GULP energy -347005.256825 kJ/mol
# GULP energy per Si atom -12393.044887 kJ/mol
# Density = 2.091838 g / cm^3
# Si number density = 20.966100 Si / 1000 Ang^3
#
#
#
# Elastic Constant Matrix: (Units=GPa)
#
#
# Indices 1 2 3 4 5 6 
#
# 1 56.2143 0.4858 29.7013 0.0000 0.0000 0.0000
# 2 0.4858 56.2143 29.7013 0.0000 0.0000 0.0000
# 3 29.7013 29.7013 180.7598 0.0000 0.0000 0.0000
# 4 0.0000 0.0000 0.0000 35.2657 0.0000 0.0000
# 5 0.0000 0.0000 0.0000 0.0000 35.2657 0.0000
# 6 0.0000 0.0000 0.0000 0.0000 0.0000 33.2406
#
#
#
# Elastic Compliance Matrix: (Units=1/GPa)
#
#
# Indices 1 2 3 4 5 6 
#
# 1 0.019624 0.001680 -0.003501 0.000000 0.000000 0.000000
# 2 0.001680 0.019624 -0.003501 0.000000 0.000000 0.000000
# 3 -0.003501 -0.003501 0.006683 0.000000 0.000000 0.000000
# 4 0.000000 0.000000 0.000000 0.028356 0.000000 0.000000
# 5 0.000000 0.000000 0.000000 0.000000 0.028356 0.000000
# 6 0.000000 0.000000 0.000000 0.000000 0.000000 0.030084
#
#
# Mechanical properties :
#
#
# Convention : Reuss Voigt Hill
#
# Bulk Modulus (GPa) = 28.33787 45.88504 37.11145
# Shear Modulus (GPa) = 32.23064 36.30773 34.26919
#
# Velocity S-wave (km/s) = 3.92506 4.16593 4.04729
# Velocity P-wave (km/s) = 5.83840 6.71363 6.29125
#
# Compressibility (1/GPa) = 0.03528847
#
# Stress axis : x y z
#
# Youngs Moduli (GPa) = 50.95778 50.95778 149.64285
#
# Poissons Ratio (x) = -0.08561 0.52383
# Poissons Ratio (y) = -0.08561 0.52383
# Poissons Ratio (z) = 0.17838 0.17838
#
# Static dielectric constant tensor:
#      x y z
#    x 3.703820 0.000000 0.000000 
#    y 0.000000 3.703820 0.000000 
#    z 0.000000 0.000000 3.994810 
# 
# 
# High freq. dielectric constant tensor:
#      x y z
#    x 1.810180 0.000000 0.000000 
#    y 0.000000 1.810180 0.000000 
#    z 0.000000 0.000000 1.829220 
# 
# From -- ./inp_files/6803.got.cif
#   From: 2010.03.12/outbox.cif.g09.slc.cpg/sg122_4_cif.got.tgz:6803.got - 2010.04.06 16:17:16.
