data_PCOD8311844
_publ_section_title
;
Structure prediction by ZEFSAII (Michael W. Deem and Ramdas Pophale) SiO2 
 PCOD8311844
Probable space group: I -4 2 D
;
_chemical_formula_sum "Si O2"
_cell_formula_units_Z 120
_cell_length_a 19.446644
_cell_length_b 19.446644
_cell_length_c 15.413592
_cell_angle_alpha 90.000000
_cell_angle_beta 90.000000
_cell_angle_gamma 90.000000
_cell_volume 5828.988341
_symmetry_space_group_name_H-M "I -4 2 D"
_symmetry_group_IT_number 122
_symmetry_cell_setting 'tetragonal'
loop_
_space_group_symop_operation_xyz
x,y,z
y,-x,-z
-x,-y,z
-y,x,-z
x,1/2-y,1/4-z
-x,1/2+y,1/4-z
-y,1/2-x,1/4+z
y,1/2+x,1/4+z
1/2+x,1/2+y,1/2+z
1/2+y,1/2-x,1/2-z
1/2-x,1/2-y,1/2+z
1/2-y,1/2+x,1/2-z
1/2+x,-y,3/4-z
1/2-x,y,3/4-z
1/2-y,-x,3/4+z
1/2+y,x,3/4+z
loop_
_atom_site_type_symbol
_atom_site_label
_atom_site_fract_x
_atom_site_fract_y
_atom_site_fract_z
Si Si1 0.470855 0.750000 0.125000
Si Si2 0.540341 0.793380 0.298813
Si Si3 0.249360 0.669686 0.607143
Si Si4 0.574271 0.493038 0.146922
Si Si5 0.036747 0.680062 0.364537
Si Si6 0.856483 0.615585 0.979531
Si Si7 0.592160 0.177493 0.671545
Si Si8 0.941005 0.053844 0.184542
O O1 0.520493 0.777793 0.200435
O O2 0.421332 0.809584 0.092146
O O3 0.621161 0.772928 0.310711
O O4 0.519651 0.872224 0.319549
O O5 0.494087 0.755241 0.370398
O O6 0.236836 0.750000 0.625000
O O7 0.197833 0.644797 0.531510
O O8 0.327239 0.656836 0.576706
O O9 0.500000 0.500000 0.101061
O O10 0.581648 0.431250 0.217185
O O11 0.576406 0.559363 0.212761
O O12 0.104283 0.669621 0.423090
O O13 0.059408 0.674394 0.266239
O O14 0.977487 0.630460 0.401363
O O15 0.582602 0.250000 0.625000
O O16 0.547079 0.123492 0.618572
O O17 0.000000 0.000000 0.160694
#
# Coordination Sequence:
#
# PCOD8311844 Si02
#       8
#     8  16  16  16  16  16  16  16
#     4  10  22  42  64  96 126 174 216 264 338 396
#     4  10  22  42  67  93 134 172 218 277 333 404
#     4  10  21  42  67  91 130 177 218 274 337 405
#     4  10  20  40  63  95 128 166 212 275 330 388
#     4  11  22  39  62  94 128 175 216 276 334 394
#     4  10  20  41  65  90 129 166 221 268 331 395
#     4  11  25  41  62  96 134 173 224 273 337 407
#     4  11  22  38  63  95 129 174 216 272 333 402
#
# _framework density 20.586763000000001
#
# number of rings (size 3 to 8) (size 9 to 14) (size 15 to 20)
#    0.000    1.600    4.667    0.800    1.867    0.533 
#    4.800    2.667    0.000    0.000    0.000    0.000 
#    0.000    0.000    0.000    0.000    0.000    0.000 
#
# Total GULP energy -743467.647249 kJ/mol
# GULP energy per Si atom -12391.127454 kJ/mol
# Density = 2.053991 g / cm^3
# Si number density = 20.586763 Si / 1000 Ang^3
#
#
#
# Elastic Constant Matrix: (Units=GPa)
#
#
# Indices 1 2 3 4 5 6 
#
# 1 91.6373 44.9440 44.9449 0.0000 0.0000 0.0000
# 2 44.9440 91.6373 44.9449 0.0000 0.0000 0.0000
# 3 44.9449 44.9449 126.5792 0.0000 0.0000 0.0000
# 4 0.0000 0.0000 0.0000 23.0115 0.0000 0.0000
# 5 0.0000 0.0000 0.0000 0.0000 23.0115 0.0000
# 6 0.0000 0.0000 0.0000 0.0000 0.0000 34.5554
#
#
#
# Elastic Compliance Matrix: (Units=1/GPa)
#
#
# Indices 1 2 3 4 5 6 
#
# 1 0.015485 -0.005931 -0.003393 0.000000 0.000000 0.000000
# 2 -0.005931 0.015485 -0.003393 0.000000 0.000000 0.000000
# 3 -0.003393 -0.003393 0.010309 0.000000 0.000000 0.000000
# 4 0.000000 0.000000 0.000000 0.043456 0.000000 0.000000
# 5 0.000000 0.000000 0.000000 0.000000 0.043456 0.000000
# 6 0.000000 0.000000 0.000000 0.000000 0.000000 0.028939
#
#
# Mechanical properties :
#
#
# Convention : Reuss Voigt Hill
#
# Bulk Modulus (GPa) = 63.09895 64.39126 63.74510
# Shear Modulus (GPa) = 26.61745 27.78371 27.20058
#
# Velocity S-wave (km/s) = 3.59965 3.67766 3.63886
# Velocity P-wave (km/s) = 6.92773 7.02705 6.97757
#
# Compressibility (1/GPa) = 0.01584813
#
# Stress axis : x y z
#
# Youngs Moduli (GPa) = 64.57709 64.57709 96.99907
#
# Poissons Ratio (x) = 0.38300 0.32907
# Poissons Ratio (y) = 0.38300 0.32907
# Poissons Ratio (z) = 0.21908 0.21908
#
# Static dielectric constant tensor:
#      x y z
#    x 3.924030 0.000000 0.000000 
#    y 0.000000 3.924030 0.000000 
#    z 0.000000 0.000000 3.541830 
# 
# 
# High freq. dielectric constant tensor:
#      x y z
#    x 1.815380 0.000000 0.000000 
#    y 0.000000 1.815380 0.000000 
#    z 0.000000 0.000000 1.788720 
# 
# From -- ./inp_files/5574.got.cif
#   From: 2010.03.12/outbox.cif.g09.slc.cpg/sg122_3_cif.got.tgz:5574.got - 2010.04.06 16:17:16.
