data_PCOD8311653
_publ_section_title
;
Structure prediction by ZEFSAII (Michael W. Deem and Ramdas Pophale) SiO2 
 PCOD8311653
Probable space group: I -4 2 M
;
_chemical_formula_sum "Si O2"
_cell_formula_units_Z 88
_cell_length_a 12.643062
_cell_length_b 12.643062
_cell_length_c 27.048600
_cell_angle_alpha 90.000000
_cell_angle_beta 90.000000
_cell_angle_gamma 90.000000
_cell_volume 4323.638017
_symmetry_space_group_name_H-M "I -4 2 M"
_symmetry_group_IT_number 121
_symmetry_cell_setting 'tetragonal'
loop_
_space_group_symop_operation_xyz
x,y,z
y,-x,-z
-x,-y,z
-y,x,-z
x,-y,-z
-x,y,-z
-y,-x,z
y,x,z
1/2+x,1/2+y,1/2+z
1/2+y,1/2-x,1/2-z
1/2-x,1/2-y,1/2+z
1/2-y,1/2+x,1/2-z
1/2+x,1/2-y,1/2-z
1/2-x,1/2+y,1/2-z
1/2-y,1/2-x,1/2+z
1/2+y,1/2+x,1/2+z
loop_
_atom_site_type_symbol
_atom_site_label
_atom_site_fract_x
_atom_site_fract_y
_atom_site_fract_z
Si Si1 0.839662 0.485888 0.768911
Si Si2 0.186898 0.500000 0.500000
Si Si3 0.582254 0.242539 0.401042
Si Si4 0.998948 0.169701 0.805996
Si Si5 0.126187 0.485754 0.118331
Si Si6 0.099514 0.279707 0.471025
O O1 0.884728 0.587285 0.740117
O O2 0.725883 0.465182 0.744696
O O3 0.830944 0.507374 0.826871
O O4 0.253602 0.493443 0.550780
O O5 0.120736 0.391088 0.498856
O O6 0.660532 0.339469 0.403310
O O7 0.510418 0.248304 0.351674
O O8 0.649339 0.133994 0.399053
O O9 0.887183 0.112818 0.796152
O O10 0.086591 0.086591 0.821954
O O11 0.192305 0.567885 0.085202
O O12 0.000000 0.500000 0.113437
O O13 0.200082 0.200082 0.472031
O O14 0.000000 0.227116 0.500000
#
# Coordination Sequence:
#
# PCOD8311653 Si02
#       6
#    16   8  16  16  16  16
#     4  11  21  37  63  95 125 162 214 267 315 379
#     4  12  23  42  66  95 128 167 222 270 313 396
#     4  11  23  40  64  93 127 169 213 265 330 389
#     4  10  23  42  61  88 129 171 211 263 329 391
#     4  12  21  41  67  97 130 167 219 273 317 386
#     4  12  26  44  70 101 133 174 219 272 333 391
#
# _framework density 20.353231999999998
#
# number of rings (size 3 to 8) (size 9 to 14) (size 15 to 20)
#    0.000    0.727    7.273    0.818    0.000    3.818 
#    0.000    0.000    0.000    2.455    0.000    0.000 
#    0.000    0.000    0.000    0.000    0.000    0.000 
#
# Total GULP energy -545572.821718 kJ/mol
# GULP energy per Si atom -12399.382312 kJ/mol
# Density = 2.030691 g / cm^3
# Si number density = 20.353232 Si / 1000 Ang^3
#
#
#
# Elastic Constant Matrix: (Units=GPa)
#
#
# Indices 1 2 3 4 5 6 
#
# 1 82.1905 33.3892 40.2727 0.0000 0.0000 0.0000
# 2 33.3892 82.1876 40.2727 0.0000 0.0000 0.0000
# 3 40.2727 40.2727 156.1367 0.0000 0.0000 0.0000
# 4 0.0000 0.0000 0.0000 29.0872 0.0000 0.0000
# 5 0.0000 0.0000 0.0000 0.0000 29.0869 0.0000
# 6 0.0000 0.0000 0.0000 0.0000 0.0000 19.3316
#
#
#
# Elastic Compliance Matrix: (Units=1/GPa)
#
#
# Indices 1 2 3 4 5 6 
#
# 1 0.015520 -0.004972 -0.002721 0.000000 0.000000 0.000000
# 2 -0.004972 0.015520 -0.002721 0.000000 0.000000 0.000000
# 3 -0.002721 -0.002721 0.007808 0.000000 0.000000 0.000000
# 4 0.000000 0.000000 0.000000 0.034379 0.000000 0.000000
# 5 0.000000 0.000000 0.000000 0.000000 0.034380 0.000000
# 6 0.000000 0.000000 0.000000 0.000000 0.000000 0.051729
#
#
# Mechanical properties :
#
#
# Convention : Reuss Voigt Hill
#
# Bulk Modulus (GPa) = 55.48872 60.93154 58.21013
# Shear Modulus (GPa) = 26.85716 29.27313 28.06515
#
# Velocity S-wave (km/s) = 3.63651 3.79655 3.71739
# Velocity P-wave (km/s) = 6.70479 7.01572 6.86202
#
# Compressibility (1/GPa) = 0.01802168
#
# Stress axis : x y z
#
# Youngs Moduli (GPa) = 64.43413 64.43157 128.07097
#
# Poissons Ratio (x) = 0.32034 0.34844
# Poissons Ratio (y) = 0.32036 0.34846
# Poissons Ratio (z) = 0.17530 0.17531
#
# Static dielectric constant tensor:
#      x y z
#    x 3.568030 0.000000 0.000000 
#    y 0.000000 3.568030 0.000000 
#    z 0.000000 0.000000 3.964740 
# 
# 
# High freq. dielectric constant tensor:
#      x y z
#    x 1.778500 0.000000 0.000000 
#    y 0.000000 1.778500 0.000000 
#    z 0.000000 0.000000 1.818770 
# 
# From -- ./inp_files/8227.got.cif
#   From: 2010.03.12/outbox.cif.g09.slc.cpg/sg121_5_cif.got.tgz:8227.got - 2010.04.06 16:06:48.
