data_PCOD8311399
_publ_section_title
;
Structure prediction by ZEFSAII (Michael W. Deem and Ramdas Pophale) SiO2 
 PCOD8311399
Probable space group: I -4 2 M
;
_chemical_formula_sum "Si O2"
_cell_formula_units_Z 96
_cell_length_a 23.139866
_cell_length_b 23.139866
_cell_length_c 10.213494
_cell_angle_alpha 90.000000
_cell_angle_beta 90.000000
_cell_angle_gamma 90.000000
_cell_volume 5468.850073
_symmetry_space_group_name_H-M "I -4 2 M"
_symmetry_group_IT_number 121
_symmetry_cell_setting 'tetragonal'
loop_
_space_group_symop_operation_xyz
x,y,z
y,-x,-z
-x,-y,z
-y,x,-z
x,-y,-z
-x,y,-z
-y,-x,z
y,x,z
1/2+x,1/2+y,1/2+z
1/2+y,1/2-x,1/2-z
1/2-x,1/2-y,1/2+z
1/2-y,1/2+x,1/2-z
1/2+x,1/2-y,1/2-z
1/2-x,1/2+y,1/2-z
1/2-y,1/2-x,1/2+z
1/2+y,1/2+x,1/2+z
loop_
_atom_site_type_symbol
_atom_site_label
_atom_site_fract_x
_atom_site_fract_y
_atom_site_fract_z
Si Si1 0.699453 0.792699 0.853560
Si Si2 0.535751 0.788975 0.632962
Si Si3 0.152430 0.347362 0.104609
Si Si4 0.112514 0.798773 0.738847
Si Si5 0.343639 0.436281 0.019326
Si Si6 0.221914 0.543122 0.882025
O O1 0.761392 0.761392 0.862181
O O2 0.695582 0.829893 0.721907
O O3 0.647143 0.747639 0.848323
O O4 0.692345 0.833936 0.978952
O O5 0.500000 0.788229 0.500000
O O6 0.583725 0.840778 0.635499
O O7 0.572624 0.729900 0.649754
O O8 0.489457 0.794827 0.748597
O O9 0.169779 0.413451 0.082749
O O10 0.157184 0.842817 0.809684
O O11 0.074701 0.830288 0.632393
O O12 0.391775 0.391775 0.073968
O O13 0.287464 0.430713 0.116021
O O14 0.369792 0.500000 0.000000
O O15 0.222130 0.500000 0.000000
#
# Coordination Sequence:
#
# PCOD8311399 Si02
#       6
#    16  16  16  16  16  16
#     4  10  19  31  51  81 114 140 173 221 280 343
#     4  11  22  36  54  81 115 144 181 230 287 343
#     4  11  21  35  54  81 107 147 187 228 285 343
#     4   9  17  33  55  78 108 147 180 217 269 327
#     4  10  18  32  57  84 108 139 188 233 268 311
#     4  11  20  38  59  78 106 147 193 230 280 334
#
# _framework density 17.553965000000002
#
# number of rings (size 3 to 8) (size 9 to 14) (size 15 to 20)
#    0.000    1.667    5.000    2.500    0.000    1.500 
#    0.000    0.833    0.000    3.000    0.000    0.000 
#    0.000    0.000    0.000    0.000    0.000    0.000 
#
# Total GULP energy -594793.743642 kJ/mol
# GULP energy per Si atom -12391.536326 kJ/mol
# Density = 1.751401 g / cm^3
# Si number density = 17.553965 Si / 1000 Ang^3
#
#
#
# Elastic Constant Matrix: (Units=GPa)
#
#
# Indices 1 2 3 4 5 6 
#
# 1 59.4294 43.1724 2.7646 0.0000 0.0000 0.0000
# 2 43.1724 59.4288 2.7643 0.0000 0.0000 0.0000
# 3 2.7646 2.7643 71.5376 0.0000 0.0000 0.0000
# 4 0.0000 0.0000 0.0000 22.2229 0.0000 0.0000
# 5 0.0000 0.0000 0.0000 0.0000 22.2232 0.0000
# 6 0.0000 0.0000 0.0000 0.0000 0.0000 36.8504
#
#
#
# Elastic Compliance Matrix: (Units=1/GPa)
#
#
# Indices 1 2 3 4 5 6 
#
# 1 0.035640 -0.025873 -0.000378 0.000000 0.000000 0.000000
# 2 -0.025873 0.035640 -0.000377 0.000000 0.000000 0.000000
# 3 -0.000378 -0.000377 0.014008 0.000000 0.000000 0.000000
# 4 0.000000 0.000000 0.000000 0.044999 0.000000 0.000000
# 5 0.000000 0.000000 0.000000 0.000000 0.044998 0.000000
# 6 0.000000 0.000000 0.000000 0.000000 0.000000 0.027137
#
#
# Mechanical properties :
#
#
# Convention : Reuss Voigt Hill
#
# Bulk Modulus (GPa) = 31.21908 31.97762 31.59835
# Shear Modulus (GPa) = 18.77196 25.70558 22.23877
#
# Velocity S-wave (km/s) = 3.27369 3.83087 3.56319
# Velocity P-wave (km/s) = 5.66680 6.15010 5.91339
#
# Compressibility (1/GPa) = 0.03203170
#
# Stress axis : x y z
#
# Youngs Moduli (GPa) = 28.05848 28.05820 71.38860
#
# Poissons Ratio (x) = 0.72596 0.02695
# Poissons Ratio (y) = 0.72596 0.02694
# Poissons Ratio (z) = 0.01059 0.01059
#
# Static dielectric constant tensor:
#      x y z
#    x 3.382790 0.000000 0.000000 
#    y 0.000000 3.382790 0.000000 
#    z 0.000000 0.000000 3.030190 
# 
# 
# High freq. dielectric constant tensor:
#      x y z
#    x 1.671850 0.000000 0.000000 
#    y 0.000000 1.671850 0.000000 
#    z 0.000000 0.000000 1.670920 
# 
# From -- ./inp_files/1949.got.cif
#   From: 2010.03.12/outbox.cif.g09.slc.cpg/sg121_1_cif.got.tgz:1949.got - 2010.04.06 16:06:48.
