data_PCOD8311816
_publ_section_title
;
Structure prediction by ZEFSAII (Michael W. Deem and Ramdas Pophale) SiO2 
 PCOD8311816
Probable space group: I -4 2 D
;
_chemical_formula_sum "Si O2"
_cell_formula_units_Z 68
_cell_length_a 17.764749
_cell_length_b 17.764749
_cell_length_c 10.373061
_cell_angle_alpha 90.000000
_cell_angle_beta 90.000000
_cell_angle_gamma 90.000000
_cell_volume 3273.596014
_symmetry_space_group_name_H-M "I -4 2 D"
_symmetry_group_IT_number 122
_symmetry_cell_setting 'tetragonal'
loop_
_space_group_symop_operation_xyz
x,y,z
y,-x,-z
-x,-y,z
-y,x,-z
x,1/2-y,1/4-z
-x,1/2+y,1/4-z
-y,1/2-x,1/4+z
y,1/2+x,1/4+z
1/2+x,1/2+y,1/2+z
1/2+y,1/2-x,1/2-z
1/2-x,1/2-y,1/2+z
1/2-y,1/2+x,1/2-z
1/2+x,-y,3/4-z
1/2-x,y,3/4-z
1/2-y,-x,3/4+z
1/2+y,x,3/4+z
loop_
_atom_site_type_symbol
_atom_site_label
_atom_site_fract_x
_atom_site_fract_y
_atom_site_fract_z
Si Si1 0.000000 0.500000 0.750000
Si Si2 0.193507 0.911806 0.763125
Si Si3 0.593226 0.227175 0.986888
Si Si4 0.212325 0.578770 0.009216
Si Si5 0.437971 0.872586 0.426089
O O1 0.943613 0.553048 0.669412
O O2 0.147062 0.839675 0.812958
O O3 0.235648 0.895989 0.627993
O O4 0.138271 0.982919 0.747541
O O5 0.250000 0.934816 0.875000
O O6 0.625839 0.250000 0.125000
O O7 0.509452 0.196264 0.998644
O O8 0.591847 0.298683 0.895289
O O9 0.250000 0.606785 0.875000
O O10 0.128778 0.612531 0.027756
#
# Coordination Sequence:
#
# PCOD8311816 Si02
#       5
#     4  16  16  16  16
#     4  12  20  40  72  98 120 156 212 270 320 368
#     4  11  25  40  57  87 127 166 201 246 308 376
#     4  10  20  37  60  89 119 151 201 252 299 365
#     4  10  21  39  63  91 118 153 206 261 311 364
#     4  11  22  38  63  91 121 160 205 257 313 371
#
# _framework density 20.772264
#
# number of rings (size 3 to 8) (size 9 to 14) (size 15 to 20)
#    0.000    1.412    0.000    8.471    0.000    6.588 
#    0.000    0.000    0.000    5.647    0.000    0.000 
#    0.000    0.000    0.000    0.000    0.000    0.000 
#
# Total GULP energy -421579.116160 kJ/mol
# GULP energy per Si atom -12399.385769 kJ/mol
# Density = 2.072499 g / cm^3
# Si number density = 20.772264 Si / 1000 Ang^3
#
#
#
# Elastic Constant Matrix: (Units=GPa)
#
#
# Indices 1 2 3 4 5 6 
#
# 1 105.9662 51.0603 17.4647 0.0000 0.0000 0.0000
# 2 51.0603 105.9662 17.4647 0.0000 0.0000 0.0000
# 3 17.4647 17.4647 70.9438 0.0000 0.0000 0.0000
# 4 0.0000 0.0000 0.0000 9.4362 0.0000 0.0000
# 5 0.0000 0.0000 0.0000 0.0000 9.4362 0.0000
# 6 0.0000 0.0000 0.0000 0.0000 0.0000 33.9758
#
#
#
# Elastic Compliance Matrix: (Units=1/GPa)
#
#
# Indices 1 2 3 4 5 6 
#
# 1 0.012475 -0.005738 -0.001659 0.000000 0.000000 0.000000
# 2 -0.005738 0.012475 -0.001659 0.000000 0.000000 0.000000
# 3 -0.001659 -0.001659 0.014912 0.000000 0.000000 0.000000
# 4 0.000000 0.000000 0.000000 0.105975 0.000000 0.000000
# 5 0.000000 0.000000 0.000000 0.000000 0.105975 0.000000
# 6 0.000000 0.000000 0.000000 0.000000 0.000000 0.029433
#
#
# Mechanical properties :
#
#
# Convention : Reuss Voigt Hill
#
# Bulk Modulus (GPa) = 45.97156 50.53952 48.25554
# Shear Modulus (GPa) = 16.30753 23.69538 20.00145
#
# Velocity S-wave (km/s) = 2.80494 3.38112 3.10642
# Velocity P-wave (km/s) = 5.71572 6.29490 6.01229
#
# Compressibility (1/GPa) = 0.02175258
#
# Stress axis : x y z
#
# Youngs Moduli (GPa) = 80.15950 80.15950 67.05892
#
# Poissons Ratio (x) = 0.45994 0.11122
# Poissons Ratio (y) = 0.45994 0.11122
# Poissons Ratio (z) = 0.13295 0.13295
#
# Static dielectric constant tensor:
#      x y z
#    x 3.874940 0.000000 0.000000 
#    y 0.000000 3.874940 0.000000 
#    z 0.000000 0.000000 3.594360 
# 
# 
# High freq. dielectric constant tensor:
#      x y z
#    x 1.823770 0.000000 0.000000 
#    y 0.000000 1.823770 0.000000 
#    z 0.000000 0.000000 1.786380 
# 
# From -- ./inp_files/4149.got.cif
#   From: 2010.03.12/outbox.cif.g09.slc.cpg/sg122_3_cif.got.tgz:4149.got - 2010.04.06 16:17:16.
