data_PCOD8311728
_publ_section_title
;
Structure prediction by ZEFSAII (Michael W. Deem and Ramdas Pophale) SiO2 
 PCOD8311728
Probable space group: I -4 2 D
;
_chemical_formula_sum "Si O2"
_cell_formula_units_Z 72
_cell_length_a 19.500180
_cell_length_b 19.500180
_cell_length_c 11.238351
_cell_angle_alpha 90.000000
_cell_angle_beta 90.000000
_cell_angle_gamma 90.000000
_cell_volume 4273.461861
_symmetry_space_group_name_H-M "I -4 2 D"
_symmetry_group_IT_number 122
_symmetry_cell_setting 'tetragonal'
loop_
_space_group_symop_operation_xyz
x,y,z
y,-x,-z
-x,-y,z
-y,x,-z
x,1/2-y,1/4-z
-x,1/2+y,1/4-z
-y,1/2-x,1/4+z
y,1/2+x,1/4+z
1/2+x,1/2+y,1/2+z
1/2+y,1/2-x,1/2-z
1/2-x,1/2-y,1/2+z
1/2-y,1/2+x,1/2-z
1/2+x,-y,3/4-z
1/2-x,y,3/4-z
1/2-y,-x,3/4+z
1/2+y,x,3/4+z
loop_
_atom_site_type_symbol
_atom_site_label
_atom_site_fract_x
_atom_site_fract_y
_atom_site_fract_z
Si Si1 0.342523 0.202146 0.510224
Si Si2 0.206219 0.750000 0.125000
Si Si3 0.691667 0.005226 0.976105
Si Si4 0.106935 0.727788 0.329232
Si Si5 0.597053 0.543074 0.464572
O O1 0.348120 0.250000 0.625000
O O2 0.315550 0.245069 0.397940
O O3 0.418492 0.175708 0.476473
O O4 0.288372 0.140747 0.542058
O O5 0.160256 0.765524 0.240491
O O6 0.750000 0.003713 0.875000
O O7 0.621612 0.975076 0.919611
O O8 0.720995 0.958619 0.085418
O O9 0.089672 0.652871 0.278449
O O10 0.585983 0.473375 0.541065
#
# Coordination Sequence:
#
# PCOD8311728 Si02
#       5
#    16   8  16  16  16
#     4   9  18  29  42  66  91 123 156 188 230 278
#     4  10  18  28  44  62  92 128 156 186 226 280
#     4   9  16  26  42  63  93 119 142 182 233 281
#     4  10  17  27  43  66  93 121 149 187 229 286
#     4  10  17  25  41  67  97 115 139 180 236 292
#
# _framework density 16.848167
#
# number of rings (size 3 to 8) (size 9 to 14) (size 15 to 20)
#    0.000    2.444    5.556    0.000    3.111    0.000 
#    0.000    0.000    0.000    0.000   14.444    0.000 
#    0.000    0.000    0.000    0.000    0.000    0.000 
#
# Total GULP energy -446078.631639 kJ/mol
# GULP energy per Si atom -12391.073101 kJ/mol
# Density = 1.680982 g / cm^3
# Si number density = 16.848167 Si / 1000 Ang^3
#
#
#
# Elastic Constant Matrix: (Units=GPa)
#
#
# Indices 1 2 3 4 5 6 
#
# 1 79.5337 39.1125 30.9990 0.0000 0.0000 0.0000
# 2 39.1125 79.5337 30.9990 0.0000 0.0000 0.0000
# 3 30.9990 30.9990 25.4940 0.0000 0.0000 0.0000
# 4 0.0000 0.0000 0.0000 23.5273 0.0000 0.0000
# 5 0.0000 0.0000 0.0000 0.0000 23.5273 0.0000
# 6 0.0000 0.0000 0.0000 0.0000 0.0000 25.3323
#
#
#
# Elastic Compliance Matrix: (Units=1/GPa)
#
#
# Indices 1 2 3 4 5 6 
#
# 1 0.023928 -0.000812 -0.028107 0.000000 0.000000 0.000000
# 2 -0.000812 0.023928 -0.028107 0.000000 0.000000 0.000000
# 3 -0.028107 -0.028107 0.107578 0.000000 0.000000 0.000000
# 4 0.000000 0.000000 0.000000 0.042504 0.000000 0.000000
# 5 0.000000 0.000000 0.000000 0.000000 0.042504 0.000000
# 6 0.000000 0.000000 0.000000 0.000000 0.000000 0.039475
#
#
# Mechanical properties :
#
#
# Convention : Reuss Voigt Hill
#
# Bulk Modulus (GPa) = 24.16589 42.97582 33.57086
# Shear Modulus (GPa) = 12.26205 20.04076 16.15140
#
# Velocity S-wave (km/s) = 2.70070 3.45264 3.09956
# Velocity P-wave (km/s) = 4.90912 6.43874 5.72525
#
# Compressibility (1/GPa) = 0.04138064
#
# Stress axis : x y z
#
# Youngs Moduli (GPa) = 41.79274 41.79274 9.29558
#
# Poissons Ratio (x) = 0.03393 0.26127
# Poissons Ratio (y) = 0.03393 0.26127
# Poissons Ratio (z) = 1.17468 1.17468
#
# Static dielectric constant tensor:
#      x y z
#    x 3.392060 0.000000 0.000000 
#    y 0.000000 3.392060 0.000000 
#    z 0.000000 0.000000 2.699180 
# 
# 
# High freq. dielectric constant tensor:
#      x y z
#    x 1.653670 0.000000 0.000000 
#    y 0.000000 1.653670 0.000000 
#    z 0.000000 0.000000 1.571790 
# 
# From -- ./inp_files/2661.got.cif
#   From: 2010.03.12/outbox.cif.g09.slc.cpg/sg122_2_cif.got.tgz:2661.got - 2010.04.06 16:17:16.
