data_PCOD8311701
_publ_section_title
;
Structure prediction by ZEFSAII (Michael W. Deem and Ramdas Pophale) SiO2 
 PCOD8311701
Probable space group: I -4 2 M
;
_chemical_formula_sum "Si O2"
_cell_formula_units_Z 80
_cell_length_a 11.165249
_cell_length_b 11.165249
_cell_length_c 31.518911
_cell_angle_alpha 90.000000
_cell_angle_beta 90.000000
_cell_angle_gamma 90.000000
_cell_volume 3929.235233
_symmetry_space_group_name_H-M "I -4 2 M"
_symmetry_group_IT_number 121
_symmetry_cell_setting 'tetragonal'
loop_
_space_group_symop_operation_xyz
x,y,z
y,-x,-z
-x,-y,z
-y,x,-z
x,-y,-z
-x,y,-z
-y,-x,z
y,x,z
1/2+x,1/2+y,1/2+z
1/2+y,1/2-x,1/2-z
1/2-x,1/2-y,1/2+z
1/2-y,1/2+x,1/2-z
1/2+x,1/2-y,1/2-z
1/2-x,1/2+y,1/2-z
1/2-y,1/2-x,1/2+z
1/2+y,1/2+x,1/2+z
loop_
_atom_site_type_symbol
_atom_site_label
_atom_site_fract_x
_atom_site_fract_y
_atom_site_fract_z
Si Si1 0.061842 0.743047 0.196532
Si Si2 0.679767 0.138907 0.006238
Si Si3 0.240225 0.050692 0.284492
Si Si4 0.333882 0.858858 0.346830
Si Si5 0.514144 0.860304 0.067110
O O1 0.144479 0.855522 0.179943
O O2 0.144854 0.635305 0.212132
O O3 0.980716 0.786018 0.235654
O O4 0.970024 0.688358 0.161421
O O5 0.813724 0.186277 0.008228
O O6 0.613837 0.185863 0.049392
O O7 0.614425 0.191729 0.964511
O O8 0.689193 0.000000 0.000000
O O9 0.121849 0.121849 0.301561
O O10 0.268998 0.926786 0.308179
O O11 0.257829 0.742172 0.358694
O O12 0.328368 0.955806 0.384619
O O13 0.500000 0.000000 0.060983
#
# Coordination Sequence:
#
# PCOD8311701 Si02
#       5
#    16  16  16  16  16
#     4  11  23  40  61  85 116 161 215 267 321 383
#     4   9  18  35  61  90 119 153 192 238 298 365
#     4  11  23  39  59  84 115 157 209 261 318 383
#     4  12  24  38  60  89 121 161 207 262 322 378
#     4   9  19  37  59  83 115 158 201 239 289 362
#
# _framework density 20.360195999999998
#
# number of rings (size 3 to 8) (size 9 to 14) (size 15 to 20)
#    0.000    1.600    2.000    4.800    0.000    3.800 
#    0.000    6.000    0.000   14.400    0.000    0.000 
#    0.000    0.000    0.000    0.000    0.000    0.000 
#
# Total GULP energy -495544.882497 kJ/mol
# GULP energy per Si atom -12388.622062 kJ/mol
# Density = 2.031386 g / cm^3
# Si number density = 20.360196 Si / 1000 Ang^3
#
#
#
# Elastic Constant Matrix: (Units=GPa)
#
#
# Indices 1 2 3 4 5 6 
#
# 1 79.4190 58.1701 23.3036 0.0000 0.0000 0.0000
# 2 58.1701 79.4257 23.3047 0.0000 0.0000 0.0000
# 3 23.3036 23.3047 94.4121 0.0000 0.0000 0.0000
# 4 0.0000 0.0000 0.0000 13.7482 0.0000 0.0000
# 5 0.0000 0.0000 0.0000 0.0000 13.7492 0.0000
# 6 0.0000 0.0000 0.0000 0.0000 0.0000 40.9826
#
#
#
# Elastic Compliance Matrix: (Units=1/GPa)
#
#
# Indices 1 2 3 4 5 6 
#
# 1 0.027494 -0.019561 -0.001958 0.000000 0.000000 0.000000
# 2 -0.019561 0.027491 -0.001958 0.000000 0.000000 0.000000
# 3 -0.001958 -0.001958 0.011558 0.000000 0.000000 0.000000
# 4 0.000000 0.000000 0.000000 0.072737 0.000000 0.000000
# 5 0.000000 0.000000 0.000000 0.000000 0.072732 0.000000
# 6 0.000000 0.000000 0.000000 0.000000 0.000000 0.024401
#
#
# Mechanical properties :
#
#
# Convention : Reuss Voigt Hill
#
# Bulk Modulus (GPa) = 51.04726 51.42373 51.23550
# Shear Modulus (GPa) = 17.24758 23.59455 20.42107
#
# Velocity S-wave (km/s) = 2.91369 3.40789 3.17044
# Velocity P-wave (km/s) = 6.03705 6.38724 6.21461
#
# Compressibility (1/GPa) = 0.01958969
#
# Stress axis : x y z
#
# Youngs Moduli (GPa) = 36.37215 36.37518 86.51802
#
# Poissons Ratio (x) = 0.71155 0.16937
# Poissons Ratio (y) = 0.71149 0.16937
# Poissons Ratio (z) = 0.07120 0.07121
#
# Static dielectric constant tensor:
#      x y z
#    x 3.725160 0.000000 0.000000 
#    y 0.000000 3.725160 0.000000 
#    z 0.000000 0.000000 3.773050 
# 
# 
# High freq. dielectric constant tensor:
#      x y z
#    x 1.793980 0.000000 0.000000 
#    y 0.000000 1.793980 0.000000 
#    z 0.000000 0.000000 1.780040 
# 
# From -- ./inp_files/8072.got.cif
#   From: 2010.03.12/outbox.cif.g09.slc.cpg/sg121_5_cif.got.tgz:8072.got - 2010.04.06 16:06:48.
