data_PCOD8311635
_publ_section_title
;
Structure prediction by ZEFSAII (Michael W. Deem and Ramdas Pophale) SiO2 
 PCOD8311635
Probable space group: I -4 2 M
;
_chemical_formula_sum "Si O2"
_cell_formula_units_Z 88
_cell_length_a 16.796322
_cell_length_b 16.796322
_cell_length_c 16.103175
_cell_angle_alpha 90.000000
_cell_angle_beta 90.000000
_cell_angle_gamma 90.000000
_cell_volume 4542.970287
_symmetry_space_group_name_H-M "I -4 2 M"
_symmetry_group_IT_number 121
_symmetry_cell_setting 'tetragonal'
loop_
_space_group_symop_operation_xyz
x,y,z
y,-x,-z
-x,-y,z
-y,x,-z
x,-y,-z
-x,y,-z
-y,-x,z
y,x,z
1/2+x,1/2+y,1/2+z
1/2+y,1/2-x,1/2-z
1/2-x,1/2-y,1/2+z
1/2-y,1/2+x,1/2-z
1/2+x,1/2-y,1/2-z
1/2-x,1/2+y,1/2-z
1/2-y,1/2-x,1/2+z
1/2+y,1/2+x,1/2+z
loop_
_atom_site_type_symbol
_atom_site_label
_atom_site_fract_x
_atom_site_fract_y
_atom_site_fract_z
Si Si1 0.257405 0.387079 0.235214
Si Si2 0.495766 0.787109 0.909233
Si Si3 0.136266 0.264717 0.290560
Si Si4 0.629478 0.500000 0.500000
Si Si5 0.041257 0.424248 0.088155
Si Si6 0.523596 0.254345 0.352012
O O1 0.328479 0.328479 0.221701
O O2 0.262213 0.443116 0.155015
O O3 0.174067 0.341302 0.245331
O O4 0.270087 0.434876 0.320148
O O5 0.583948 0.794722 0.869041
O O6 0.449150 0.868438 0.925383
O O7 0.500000 0.744619 0.000000
O O8 0.204179 0.204179 0.323535
O O9 0.084697 0.220198 0.220219
O O10 0.572854 0.427147 0.530625
O O11 0.687916 0.535789 0.570012
O O12 0.033984 0.340332 0.134302
O O13 0.000000 0.500000 0.136043
O O14 0.000000 0.412725 0.000000
#
# Coordination Sequence:
#
# PCOD8311635 Si02
#       6
#    16  16  16   8  16  16
#     4  10  22  39  58  87 123 159 205 253 304 367
#     4  11  22  38  60  89 118 161 206 251 302 363
#     4  10  22  40  60  86 123 164 206 248 308 372
#     4  11  24  40  61  90 122 164 219 266 312 377
#     4  11  20  34  57  88 126 151 195 242 303 379
#     4  11  21  38  61  89 121 165 203 254 315 370
#
# _framework density 19.370587
#
# number of rings (size 3 to 8) (size 9 to 14) (size 15 to 20)
#    0.000    1.364    4.545    2.182    0.000    0.727 
#    0.000    0.000    0.000    4.909    0.000    5.091 
#    0.000    0.000    0.000    0.000    0.000    0.000 
#
# Total GULP energy -545304.069147 kJ/mol
# GULP energy per Si atom -12393.274299 kJ/mol
# Density = 1.932650 g / cm^3
# Si number density = 19.370587 Si / 1000 Ang^3
#
#
#
# Elastic Constant Matrix: (Units=GPa)
#
#
# Indices 1 2 3 4 5 6 
#
# 1 77.8980 22.6056 31.1409 0.0000 0.0000 0.0000
# 2 22.6056 77.8978 31.1405 0.0000 0.0000 0.0000
# 3 31.1409 31.1405 102.2334 0.0000 0.0000 0.0000
# 4 0.0000 0.0000 0.0000 24.3622 0.0000 0.0000
# 5 0.0000 0.0000 0.0000 0.0000 24.3620 0.0000
# 6 0.0000 0.0000 0.0000 0.0000 0.0000 -20.2030
#
#
#
# Elastic Compliance Matrix: (Units=1/GPa)
#
#
# Indices 1 2 3 4 5 6 
#
# 1 0.015175 -0.002910 -0.003736 0.000000 0.000000 0.000000
# 2 -0.002910 0.015175 -0.003736 0.000000 0.000000 0.000000
# 3 -0.003736 -0.003736 0.012058 0.000000 0.000000 0.000000
# 4 0.000000 0.000000 0.000000 0.041047 0.000000 0.000000
# 5 0.000000 0.000000 0.000000 0.000000 0.041048 0.000000
# 6 0.000000 0.000000 0.000000 0.000000 0.000000 -0.049498
#
#
# Mechanical properties :
#
#
# Convention : Reuss Voigt Hill
#
# Bulk Modulus (GPa) = 46.20278 47.53369 46.86824
# Shear Modulus (GPa) = 48.55094 17.24706 32.89900
#
# Velocity S-wave (km/s) = 5.01185 2.98715 4.12564
# Velocity P-wave (km/s) = 7.57597 6.04068 6.85147
#
# Compressibility (1/GPa) = 0.02164372
#
# Stress axis : x y z
#
# Youngs Moduli (GPa) = 65.89620 65.89623 82.93574
#
# Poissons Ratio (x) = 0.19178 0.30985
# Poissons Ratio (y) = 0.19178 0.30984
# Poissons Ratio (z) = 0.24619 0.24618
#
# Static dielectric constant tensor:
#      x y z
#    x 3.558890 0.000000 0.000000 
#    y 0.000000 3.558890 0.000000 
#    z 0.000000 0.000000 4.978640 
# 
# 
# High freq. dielectric constant tensor:
#      x y z
#    x 1.753190 0.000000 0.000000 
#    y 0.000000 1.753190 0.000000 
#    z 0.000000 0.000000 1.749110 
# 
# From -- ./inp_files/4406.got.cif
#   From: 2010.03.12/outbox.cif.g09.slc.cpg/sg121_3_cif.got.tgz:4406.got - 2010.04.06 16:06:48.
