data_PCOD8311348
_publ_section_title
;
Structure prediction by ZEFSAII (Michael W. Deem and Ramdas Pophale) SiO2 
 PCOD8311348
Probable space group: I -4 2 M
;
_chemical_formula_sum "Si O2"
_cell_formula_units_Z 88
_cell_length_a 13.635952
_cell_length_b 13.635952
_cell_length_c 26.648128
_cell_angle_alpha 90.000000
_cell_angle_beta 90.000000
_cell_angle_gamma 90.000000
_cell_volume 4954.931254
_symmetry_space_group_name_H-M "I -4 2 M"
_symmetry_group_IT_number 121
_symmetry_cell_setting 'tetragonal'
loop_
_space_group_symop_operation_xyz
x,y,z
y,-x,-z
-x,-y,z
-y,x,-z
x,-y,-z
-x,y,-z
-y,-x,z
y,x,z
1/2+x,1/2+y,1/2+z
1/2+y,1/2-x,1/2-z
1/2-x,1/2-y,1/2+z
1/2-y,1/2+x,1/2-z
1/2+x,1/2-y,1/2-z
1/2-x,1/2+y,1/2-z
1/2-y,1/2-x,1/2+z
1/2+y,1/2+x,1/2+z
loop_
_atom_site_type_symbol
_atom_site_label
_atom_site_fract_x
_atom_site_fract_y
_atom_site_fract_z
Si Si1 0.244837 0.916865 0.184849
Si Si2 0.055752 0.398127 0.452857
Si Si3 0.844116 0.001768 0.905993
Si Si4 0.500646 0.340286 0.221298
Si Si5 0.500000 0.769993 0.500000
Si Si6 0.888038 0.271788 0.640547
O O1 0.145736 0.854265 0.185358
O O2 0.240009 0.986391 0.135882
O O3 0.341645 0.850418 0.179635
O O4 0.242315 0.979961 0.236088
O O5 0.165707 0.417668 0.472080
O O6 0.060139 0.324270 0.406339
O O7 0.000000 0.500000 0.438319
O O8 0.000000 0.347832 0.500000
O O9 0.899710 0.899710 0.918879
O O10 0.797285 0.046134 0.956524
O O11 0.919920 0.080081 0.883730
O O12 0.591110 0.408891 0.239036
O O13 0.404869 0.404869 0.209680
O O14 0.527052 0.285173 0.169911
O O15 0.802855 0.197146 0.621907
#
# Coordination Sequence:
#
# PCOD8311348 Si02
#       6
#    16  16  16  16   8  16
#     4   9  17  31  50  74 105 137 169 207 255 308
#     4   9  20  37  54  71 101 141 176 213 266 316
#     4  10  18  26  43  74 109 139 169 206 248 304
#     4   9  18  34  55  77 106 141 173 213 266 312
#     4  10  17  29  46  66  98 140 174 207 247 302
#     4  10  19  35  58  80 103 136 178 219 260 309
#
# _framework density 17.760085
#
# number of rings (size 3 to 8) (size 9 to 14) (size 15 to 20)
#    0.000    2.727    1.818    1.091    0.000    3.636 
#    3.273    0.909    0.000    2.182    0.000    0.000 
#    0.000    0.000    0.000    0.000    0.000    0.000 
#
# Total GULP energy -545375.204510 kJ/mol
# GULP energy per Si atom -12394.891012 kJ/mol
# Density = 1.771966 g / cm^3
# Si number density = 17.760085 Si / 1000 Ang^3
#
#
#
# Elastic Constant Matrix: (Units=GPa)
#
#
# Indices 1 2 3 4 5 6 
#
# 1 68.8037 31.6715 52.8304 0.0000 0.0000 0.0000
# 2 31.6715 68.8036 52.8299 0.0000 0.0000 0.0000
# 3 52.8304 52.8299 129.2062 0.0000 0.0000 0.0000
# 4 0.0000 0.0000 0.0000 32.2142 0.0000 0.0000
# 5 0.0000 0.0000 0.0000 0.0000 32.2143 0.0000
# 6 0.0000 0.0000 0.0000 0.0000 0.0000 18.9238
#
#
#
# Elastic Compliance Matrix: (Units=1/GPa)
#
#
# Indices 1 2 3 4 5 6 
#
# 1 0.022196 -0.004735 -0.007139 0.000000 0.000000 0.000000
# 2 -0.004735 0.022196 -0.007139 0.000000 0.000000 0.000000
# 3 -0.007139 -0.007139 0.013578 0.000000 0.000000 0.000000
# 4 0.000000 0.000000 0.000000 0.031042 0.000000 0.000000
# 5 0.000000 0.000000 0.000000 0.000000 0.031042 0.000000
# 6 0.000000 0.000000 0.000000 0.000000 0.000000 0.052844
#
#
# Mechanical properties :
#
#
# Convention : Reuss Voigt Hill
#
# Bulk Modulus (GPa) = 50.14646 60.16413 55.15529
# Shear Modulus (GPa) = 22.98095 25.30257 24.14176
#
# Velocity S-wave (km/s) = 3.60108 3.77860 3.69090
# Velocity P-wave (km/s) = 6.75182 7.27919 7.02046
#
# Compressibility (1/GPa) = 0.01994159
#
# Stress axis : x y z
#
# Youngs Moduli (GPa) = 45.05377 45.05411 73.64968
#
# Poissons Ratio (x) = 0.21334 0.52581
# Poissons Ratio (y) = 0.21334 0.52580
# Poissons Ratio (z) = 0.32165 0.32165
#
# Static dielectric constant tensor:
#      x y z
#    x 3.150800 0.000000 0.000000 
#    y 0.000000 3.150800 0.000000 
#    z 0.000000 0.000000 3.288160 
# 
# 
# High freq. dielectric constant tensor:
#      x y z
#    x 1.667550 0.000000 0.000000 
#    y 0.000000 1.667550 0.000000 
#    z 0.000000 0.000000 1.688710 
# 
# From -- ./inp_files/7072.got.cif
#   From: 2010.03.12/outbox.cif.g09.slc.cpg/sg121_4_cif.got.tgz:7072.got - 2010.04.06 16:06:48.
