data_PCOD8311098
_publ_section_title
;
Structure prediction by ZEFSAII (Michael W. Deem and Ramdas Pophale) SiO2 
 PCOD8311098
Probable space group: I -4 M 2
;
_chemical_formula_sum "Si O2"
_cell_formula_units_Z 56
_cell_length_a 9.665667
_cell_length_b 9.665667
_cell_length_c 35.658682
_cell_angle_alpha 90.000000
_cell_angle_beta 90.000000
_cell_angle_gamma 90.000000
_cell_volume 3331.416593
_symmetry_space_group_name_H-M "I -4 M 2"
_symmetry_group_IT_number 119
_symmetry_cell_setting 'tetragonal'
loop_
_space_group_symop_operation_xyz
x,y,z
y,-x,-z
-x,-y,z
-y,x,-z
y,x,-z
-y,-x,-z
-x,y,z
x,-y,z
1/2+x,1/2+y,1/2+z
1/2+y,1/2-x,1/2-z
1/2-x,1/2-y,1/2+z
1/2-y,1/2+x,1/2-z
1/2+y,1/2+x,1/2-z
1/2-y,1/2-x,1/2-z
1/2-x,1/2+y,1/2+z
1/2+x,1/2-y,1/2+z
loop_
_atom_site_type_symbol
_atom_site_label
_atom_site_fract_x
_atom_site_fract_y
_atom_site_fract_z
Si Si1 0.347146 0.664199 0.138177
Si Si2 0.660035 0.660035 0.500000
Si Si3 0.840788 0.162426 0.278107
Si Si4 0.660379 0.160443 0.570790
O O1 0.500000 0.723603 0.129219
O O2 0.352665 0.500000 0.137504
O O3 0.299783 0.709815 0.179756
O O4 0.241360 0.719321 0.106895
O O5 0.686904 0.500000 0.509925
O O6 0.751827 0.708283 0.464987
O O7 0.746207 0.246207 0.250000
O O8 0.000000 0.206024 0.272138
O O9 0.822090 0.000000 0.270798
O O10 0.500000 0.183292 0.579421
O O11 0.694540 0.000000 0.562884
#
# Coordination Sequence:
#
# PCOD8311098 Si02
#       4
#    16   8  16  16
#     4   8  15  29  47  66  90 118 147 183 226 267
#     4   9  18  32  46  61  88 122 146 171 218 270
#     4   9  18  32  49  70  96 125 157 193 233 278
#     4   9  17  29  46  67  88 112 146 185 220 258
#
# _framework density 16.809664999999999
#
# number of rings (size 3 to 8) (size 9 to 14) (size 15 to 20)
#    0.000    3.286    0.000    1.714    0.000    2.857 
#    0.000    4.286    0.000    5.143    0.000    0.000 
#    0.000    0.000    0.000    0.000    0.000    0.000 
#
# Total GULP energy -347108.044135 kJ/mol
# GULP energy per Si atom -12396.715862 kJ/mol
# Density = 1.677141 g / cm^3
# Si number density = 16.809665 Si / 1000 Ang^3
#
#
#
# Elastic Constant Matrix: (Units=GPa)
#
#
# Indices 1 2 3 4 5 6 
#
# 1 59.3952 39.5488 74.7851 0.0000 0.0000 0.0000
# 2 39.5488 59.3952 74.7851 0.0000 0.0000 0.0000
# 3 74.7851 74.7851 176.2363 0.0000 0.0000 0.0000
# 4 0.0000 0.0000 0.0000 32.6715 0.0000 0.0000
# 5 0.0000 0.0000 0.0000 0.0000 32.6715 0.0000
# 6 0.0000 0.0000 0.0000 0.0000 0.0000 21.5731
#
#
#
# Elastic Compliance Matrix: (Units=1/GPa)
#
#
# Indices 1 2 3 4 5 6 
#
# 1 0.039288 -0.011099 -0.011962 0.000000 0.000000 0.000000
# 2 -0.011099 0.039288 -0.011962 0.000000 0.000000 0.000000
# 3 -0.011962 -0.011962 0.015826 0.000000 0.000000 0.000000
# 4 0.000000 0.000000 0.000000 0.030608 0.000000 0.000000
# 5 0.000000 0.000000 0.000000 0.000000 0.030608 0.000000
# 6 0.000000 0.000000 0.000000 0.000000 0.000000 0.046354
#
#
# Mechanical properties :
#
#
# Convention : Reuss Voigt Hill
#
# Bulk Modulus (GPa) = 41.05635 74.80720 57.93177
# Shear Modulus (GPa) = 17.84846 24.44374 21.14610
#
# Velocity S-wave (km/s) = 3.26206 3.81747 3.55064
# Velocity P-wave (km/s) = 6.21814 8.00186 7.16572
#
# Compressibility (1/GPa) = 0.02435677
#
# Stress axis : x y z
#
# Youngs Moduli (GPa) = 25.45303 25.45303 63.18628
#
# Poissons Ratio (x) = 0.28250 0.75583
# Poissons Ratio (y) = 0.28250 0.75583
# Poissons Ratio (z) = 0.30447 0.30447
#
# Static dielectric constant tensor:
#      x y z
#    x 3.065890 0.000000 0.000000 
#    y 0.000000 3.065890 0.000000 
#    z 0.000000 0.000000 3.374360 
# 
# 
# High freq. dielectric constant tensor:
#      x y z
#    x 1.631650 0.000000 0.000000 
#    y 0.000000 1.631650 0.000000 
#    z 0.000000 0.000000 1.656240 
# 
# From -- ./inp_files/7247.got.cif
#   From: 2010.03.12/outbox.cif.g09.slc.cpg/sg119_4_cif.got.tgz:7247.got - 2010.04.14 02:25:26.
