data_PCOD8311675
_publ_section_title
;
Structure prediction by ZEFSAII (Michael W. Deem and Ramdas Pophale) SiO2 
 PCOD8311675
Probable space group: I -4 2 M
;
_chemical_formula_sum "Si O2"
_cell_formula_units_Z 88
_cell_length_a 11.735872
_cell_length_b 11.735872
_cell_length_c 29.588803
_cell_angle_alpha 90.000000
_cell_angle_beta 90.000000
_cell_angle_gamma 90.000000
_cell_volume 4075.286301
_symmetry_space_group_name_H-M "I -4 2 M"
_symmetry_group_IT_number 121
_symmetry_cell_setting 'tetragonal'
loop_
_space_group_symop_operation_xyz
x,y,z
y,-x,-z
-x,-y,z
-y,x,-z
x,-y,-z
-x,y,-z
-y,-x,z
y,x,z
1/2+x,1/2+y,1/2+z
1/2+y,1/2-x,1/2-z
1/2-x,1/2-y,1/2+z
1/2-y,1/2+x,1/2-z
1/2+x,1/2-y,1/2-z
1/2-x,1/2+y,1/2-z
1/2-y,1/2-x,1/2+z
1/2+y,1/2+x,1/2+z
loop_
_atom_site_type_symbol
_atom_site_label
_atom_site_fract_x
_atom_site_fract_y
_atom_site_fract_z
Si Si1 0.375203 0.964420 0.822370
Si Si2 0.192317 0.000000 0.000000
Si Si3 0.460814 0.132900 0.577255
Si Si4 0.762349 0.575894 0.241095
Si Si5 0.947119 0.764343 0.545400
Si Si6 0.904014 0.095987 0.604976
Si Si7 0.595957 0.595957 0.795362
O O1 0.315416 0.971260 0.871605
O O2 0.375891 0.839345 0.799670
O O3 0.500000 0.000000 0.834992
O O4 0.330161 0.058678 0.787445
O O5 0.276099 0.980457 0.043336
O O6 0.112354 0.112354 0.005093
O O7 0.326401 0.136767 0.567372
O O8 0.500000 0.000000 0.570384
O O9 0.665195 0.665195 0.251562
O O10 0.707244 0.452657 0.229617
O O11 0.879106 0.879106 0.533133
O O12 0.000000 0.712512 0.500000
O O13 0.049073 0.792110 0.580088
O O14 0.866264 0.133737 0.654731
O O15 0.000000 0.000000 0.607873
O O16 0.500000 0.500000 0.797906
#
# Coordination Sequence:
#
# PCOD8311675 Si02
#       7
#    16   8  16  16  16   8   8
#     4  11  23  43  65  92 130 169 214 268 327 400
#     4  11  25  48  72  96 135 183 230 286 330 379
#     4  11  25  43  67  95 128 173 224 272 329 390
#     4  11  22  39  65  92 129 169 213 272 330 383
#     4  11  20  35  60  92 129 165 202 256 322 392
#     4   9  18  32  54  87 128 162 198 249 320 396
#     4   9  20  36  54  87 122 159 211 262 313 380
#
# _framework density 21.593575999999999
#
# number of rings (size 3 to 8) (size 9 to 14) (size 15 to 20)
#    0.000    1.364    2.727    3.000    1.273    3.636 
#    1.636    0.000    0.000    0.000    0.000    0.000 
#    0.000    0.000    0.000    0.000    0.000    0.000 
#
# Total GULP energy -545406.265592 kJ/mol
# GULP energy per Si atom -12395.596945 kJ/mol
# Density = 2.154443 g / cm^3
# Si number density = 21.593576 Si / 1000 Ang^3
#
#
#
# Elastic Constant Matrix: (Units=GPa)
#
#
# Indices 1 2 3 4 5 6 
#
# 1 72.7248 13.7504 34.6247 0.0000 0.0000 0.0000
# 2 13.7504 72.7249 34.6247 0.0000 0.0000 0.0000
# 3 34.6247 34.6247 177.0462 0.0000 0.0000 0.0000
# 4 0.0000 0.0000 0.0000 23.6836 0.0000 0.0000
# 5 0.0000 0.0000 0.0000 0.0000 23.6834 0.0000
# 6 0.0000 0.0000 0.0000 0.0000 0.0000 33.3103
#
#
#
# Elastic Compliance Matrix: (Units=1/GPa)
#
#
# Indices 1 2 3 4 5 6 
#
# 1 0.015334 -0.001623 -0.002682 0.000000 0.000000 0.000000
# 2 -0.001623 0.015334 -0.002682 0.000000 0.000000 0.000000
# 3 -0.002682 -0.002682 0.006697 0.000000 0.000000 0.000000
# 4 0.000000 0.000000 0.000000 0.042223 0.000000 0.000000
# 5 0.000000 0.000000 0.000000 0.000000 0.042224 0.000000
# 6 0.000000 0.000000 0.000000 0.000000 0.000000 0.030021
#
#
# Mechanical properties :
#
#
# Convention : Reuss Voigt Hill
#
# Bulk Modulus (GPa) = 42.74649 54.27728 48.51188
# Shear Modulus (GPa) = 28.80157 32.10188 30.45172
#
# Velocity S-wave (km/s) = 3.65609 3.85988 3.75937
# Velocity P-wave (km/s) = 6.13690 6.71233 6.43105
#
# Compressibility (1/GPa) = 0.02339374
#
# Stress axis : x y z
#
# Youngs Moduli (GPa) = 65.21482 65.21495 149.31880
#
# Poissons Ratio (x) = 0.10582 0.40040
# Poissons Ratio (y) = 0.10582 0.40040
# Poissons Ratio (z) = 0.17487 0.17487
#
# Static dielectric constant tensor:
#      x y z
#    x 3.840740 0.000000 0.000000 
#    y 0.000000 3.840740 0.000000 
#    z 0.000000 0.000000 4.102160 
# 
# 
# High freq. dielectric constant tensor:
#      x y z
#    x 1.838820 0.000000 0.000000 
#    y 0.000000 1.838820 0.000000 
#    z 0.000000 0.000000 1.858610 
# 
# From -- ./inp_files/8269.got.cif
#   From: 2010.03.12/outbox.cif.g09.slc.cpg/sg121_5_cif.got.tgz:8269.got - 2010.04.06 16:06:48.
