data_PCOD8311388
_publ_section_title
;
Structure prediction by ZEFSAII (Michael W. Deem and Ramdas Pophale) SiO2 
 PCOD8311388
Probable space group: I -4 2 M
;
_chemical_formula_sum "Si O2"
_cell_formula_units_Z 128
_cell_length_a 21.399917
_cell_length_b 21.399917
_cell_length_c 16.295282
_cell_angle_alpha 90.000000
_cell_angle_beta 90.000000
_cell_angle_gamma 90.000000
_cell_volume 7462.529457
_symmetry_space_group_name_H-M "I -4 2 M"
_symmetry_group_IT_number 121
_symmetry_cell_setting 'tetragonal'
loop_
_space_group_symop_operation_xyz
x,y,z
y,-x,-z
-x,-y,z
-y,x,-z
x,-y,-z
-x,y,-z
-y,-x,z
y,x,z
1/2+x,1/2+y,1/2+z
1/2+y,1/2-x,1/2-z
1/2-x,1/2-y,1/2+z
1/2-y,1/2+x,1/2-z
1/2+x,1/2-y,1/2-z
1/2-x,1/2+y,1/2-z
1/2-y,1/2-x,1/2+z
1/2+y,1/2+x,1/2+z
loop_
_atom_site_type_symbol
_atom_site_label
_atom_site_fract_x
_atom_site_fract_y
_atom_site_fract_z
Si Si1 0.093723 0.722584 0.623922
Si Si2 0.658864 0.242171 0.899174
Si Si3 0.717126 0.816197 0.937571
Si Si4 0.521431 0.827129 0.737769
Si Si5 0.187494 0.454598 0.427746
Si Si6 0.432512 0.106160 0.983159
Si Si7 0.368725 0.904077 0.333891
Si Si8 0.073217 0.174330 0.497375
O O1 0.166638 0.702888 0.632374
O O2 0.059582 0.725584 0.712121
O O3 0.059328 0.671528 0.565033
O O4 0.088863 0.791801 0.588069
O O5 0.710536 0.289465 0.862447
O O6 0.637619 0.194861 0.826555
O O7 0.688573 0.205137 0.975784
O O8 0.597926 0.281282 0.928922
O O9 0.783269 0.783269 0.919942
O O10 0.727063 0.890758 0.935567
O O11 0.487207 0.797712 0.659104
O O12 0.572507 0.878336 0.714635
O O13 0.473087 0.858986 0.799768
O O14 0.209929 0.500000 0.500000
O O15 0.112724 0.440710 0.432783
O O16 0.599610 0.117397 0.929989
O O17 0.500000 0.075161 0.000000
O O18 0.108009 0.108009 0.499626
O O19 0.000000 0.161500 0.500000
#
# Coordination Sequence:
#
# PCOD8311388 Si02
#       8
#    16  16  16  16  16  16  16  16
#     4  10  18  34  54  77 100 134 181 219 262 303
#     4   9  17  33  59  80  96 130 179 221 262 314
#     4   9  17  33  58  82 101 131 176 218 265 315
#     4  12  25  34  50  73 107 140 182 223 263 308
#     4  11  21  38  52  73 107 146 179 218 273 316
#     4  11  19  34  54  71 101 145 180 219 262 305
#     4  12  21  37  49  75 107 136 179 225 264 309
#     4  10  18  30  53  81 105 137 171 207 258 324
#
# _framework density 17.152362
#
# number of rings (size 3 to 8) (size 9 to 14) (size 15 to 20)
#    0.000    1.500    6.250    3.750    0.000    0.625 
#    0.000    3.125    0.000    2.250    0.000    0.000 
#    0.000    0.250    0.000    0.000    0.000    0.000 
#
# Total GULP energy -793308.338409 kJ/mol
# GULP energy per Si atom -12395.442788 kJ/mol
# Density = 1.711332 g / cm^3
# Si number density = 17.152362 Si / 1000 Ang^3
#
#
#
# Elastic Constant Matrix: (Units=GPa)
#
#
# Indices 1 2 3 4 5 6 
#
# 1 105.4894 51.9689 28.8532 0.0000 0.0000 0.0000
# 2 51.9689 105.4893 28.8530 0.0000 0.0000 0.0000
# 3 28.8532 28.8530 60.3147 0.0000 0.0000 0.0000
# 4 0.0000 0.0000 0.0000 22.3396 0.0000 0.0000
# 5 0.0000 0.0000 0.0000 0.0000 22.3396 0.0000
# 6 0.0000 0.0000 0.0000 0.0000 0.0000 17.3369
#
#
#
# Elastic Compliance Matrix: (Units=1/GPa)
#
#
# Indices 1 2 3 4 5 6 
#
# 1 0.013193 -0.005492 -0.003684 0.000000 0.000000 0.000000
# 2 -0.005492 0.013193 -0.003684 0.000000 0.000000 0.000000
# 3 -0.003684 -0.003684 0.020104 0.000000 0.000000 0.000000
# 4 0.000000 0.000000 0.000000 0.044764 0.000000 0.000000
# 5 0.000000 0.000000 0.000000 0.000000 0.044764 0.000000
# 6 0.000000 0.000000 0.000000 0.000000 0.000000 0.057680
#
#
# Mechanical properties :
#
#
# Convention : Reuss Voigt Hill
#
# Bulk Modulus (GPa) = 48.14528 54.51595 51.33061
# Shear Modulus (GPa) = 22.09063 23.17777 22.63420
#
# Velocity S-wave (km/s) = 3.59263 3.67997 3.63657
# Velocity P-wave (km/s) = 6.73346 7.06460 6.90102
#
# Compressibility (1/GPa) = 0.02077047
#
# Stress axis : x y z
#
# Youngs Moduli (GPa) = 75.79933 75.79932 49.74047
#
# Poissons Ratio (x) = 0.41627 0.18324
# Poissons Ratio (y) = 0.41627 0.18324
# Poissons Ratio (z) = 0.27924 0.27924
#
# Static dielectric constant tensor:
#      x y z
#    x 3.187800 0.000000 0.000000 
#    y 0.000000 3.187800 0.000000 
#    z 0.000000 0.000000 3.218010 
# 
# 
# High freq. dielectric constant tensor:
#      x y z
#    x 1.645940 0.000000 0.000000 
#    y 0.000000 1.645940 0.000000 
#    z 0.000000 0.000000 1.648340 
# 
# From -- ./inp_files/5665.got.cif
#   From: 2010.03.12/outbox.cif.g09.slc.cpg/sg121_3_cif.got.tgz:5665.got - 2010.04.06 16:06:48.
