data_PCOD8311347
_publ_section_title
;
Structure prediction by ZEFSAII (Michael W. Deem and Ramdas Pophale) SiO2 
 PCOD8311347
Probable space group: I -4 2 M
;
_chemical_formula_sum "Si O2"
_cell_formula_units_Z 112
_cell_length_a 19.023667
_cell_length_b 19.023667
_cell_length_c 18.564671
_cell_angle_alpha 90.000000
_cell_angle_beta 90.000000
_cell_angle_gamma 90.000000
_cell_volume 6718.552692
_symmetry_space_group_name_H-M "I -4 2 M"
_symmetry_group_IT_number 121
_symmetry_cell_setting 'tetragonal'
loop_
_space_group_symop_operation_xyz
x,y,z
y,-x,-z
-x,-y,z
-y,x,-z
x,-y,-z
-x,y,-z
-y,-x,z
y,x,z
1/2+x,1/2+y,1/2+z
1/2+y,1/2-x,1/2-z
1/2-x,1/2-y,1/2+z
1/2-y,1/2+x,1/2-z
1/2+x,1/2-y,1/2-z
1/2-x,1/2+y,1/2-z
1/2-y,1/2-x,1/2+z
1/2+y,1/2+x,1/2+z
loop_
_atom_site_type_symbol
_atom_site_label
_atom_site_fract_x
_atom_site_fract_y
_atom_site_fract_z
Si Si1 0.094238 0.205346 0.705931
Si Si2 0.145214 0.439927 0.164940
Si Si3 0.482359 0.081088 0.576963
Si Si4 0.662776 0.546843 0.431291
Si Si5 0.114215 0.003696 0.214336
Si Si6 0.401111 0.104546 0.820216
Si Si7 0.241371 0.650389 0.642037
O O1 0.151484 0.151484 0.670760
O O2 0.082248 0.273244 0.654941
O O3 0.121787 0.229631 0.782779
O O4 0.019154 0.166773 0.720791
O O5 0.099956 0.409305 0.097952
O O6 0.139668 0.524079 0.166262
O O7 0.110949 0.407242 0.236106
O O8 0.500000 0.117724 0.500000
O O9 0.529849 0.111525 0.640968
O O10 0.500000 0.000000 0.570447
O O11 0.679499 0.500000 0.500000
O O12 0.592740 0.592740 0.444334
O O13 0.653120 0.494751 0.362921
O O14 0.730006 0.597378 0.419122
O O15 0.080034 0.080034 0.230977
O O16 0.054973 0.945028 0.209142
O O17 0.342791 0.156225 0.854914
O O18 0.271671 0.728330 0.627665
#
# Coordination Sequence:
#
# PCOD8311347 Si02
#       7
#    16  16  16  16  16  16  16
#     4   8  15  27  42  62  87 118 156 190 231 287
#     4  10  17  28  48  70  89 116 151 194 236 274
#     4   9  18  29  44  70  97 115 141 188 238 271
#     4   9  15  22  34  55  81 117 169 212 241 282
#     4   8  13  22  36  55  84 119 154 202 252 281
#     4  10  17  28  48  68  88 115 153 193 233 276
#     4   8  16  28  39  56  86 122 156 193 237 283
#
# _framework density 16.670256999999999
#
# number of rings (size 3 to 8) (size 9 to 14) (size 15 to 20)
#    0.000    3.143    1.429    2.143    0.000    1.286 
#    0.000    0.714    0.000    0.857    0.000    0.000 
#    0.000    1.143    0.000    0.000    0.000   10.286 
#
# Total GULP energy -693861.386301 kJ/mol
# GULP energy per Si atom -12390.381898 kJ/mol
# Density = 1.663231 g / cm^3
# Si number density = 16.670257 Si / 1000 Ang^3
#
#
#
# Elastic Constant Matrix: (Units=GPa)
#
#
# Indices 1 2 3 4 5 6 
#
# 1 86.6082 46.3778 32.4033 0.0000 0.0000 0.0000
# 2 46.3778 86.6078 32.4033 0.0000 0.0000 0.0000
# 3 32.4033 32.4033 63.0006 0.0000 0.0000 0.0000
# 4 0.0000 0.0000 0.0000 16.6408 0.0000 0.0000
# 5 0.0000 0.0000 0.0000 0.0000 16.6410 0.0000
# 6 0.0000 0.0000 0.0000 0.0000 0.0000 15.4903
#
#
#
# Elastic Compliance Matrix: (Units=1/GPa)
#
#
# Indices 1 2 3 4 5 6 
#
# 1 0.017446 -0.007411 -0.005161 0.000000 0.000000 0.000000
# 2 -0.007411 0.017446 -0.005161 0.000000 0.000000 0.000000
# 3 -0.005161 -0.005161 0.021182 0.000000 0.000000 0.000000
# 4 0.000000 0.000000 0.000000 0.060093 0.000000 0.000000
# 5 0.000000 0.000000 0.000000 0.000000 0.060092 0.000000
# 6 0.000000 0.000000 0.000000 0.000000 0.000000 0.064557
#
#
# Mechanical properties :
#
#
# Convention : Reuss Voigt Hill
#
# Bulk Modulus (GPa) = 48.52788 50.95394 49.74091
# Shear Modulus (GPa) = 17.65835 18.08989 17.87412
#
# Velocity S-wave (km/s) = 3.25818 3.29775 3.27802
# Velocity P-wave (km/s) = 6.58240 6.71806 6.65058
#
# Compressibility (1/GPa) = 0.02060671
#
# Stress axis : x y z
#
# Youngs Moduli (GPa) = 57.32035 57.32003 47.20979
#
# Poissons Ratio (x) = 0.42480 0.24366
# Poissons Ratio (y) = 0.42481 0.24366
# Poissons Ratio (z) = 0.29584 0.29584
#
# Static dielectric constant tensor:
#      x y z
#    x 3.243650 0.000000 0.000000 
#    y 0.000000 3.243650 0.000000 
#    z 0.000000 0.000000 3.014710 
# 
# 
# High freq. dielectric constant tensor:
#      x y z
#    x 1.627450 0.000000 0.000000 
#    y 0.000000 1.627450 0.000000 
#    z 0.000000 0.000000 1.605230 
# 
# From -- ./inp_files/5613.got.cif
#   From: 2010.03.12/outbox.cif.g09.slc.cpg/sg121_3_cif.got.tgz:5613.got - 2010.04.06 16:06:48.
