data_PCOD8311316
_publ_section_title
;
Structure prediction by ZEFSAII (Michael W. Deem and Ramdas Pophale) SiO2 
 PCOD8311316
Probable space group: I -4 C 2
;
_chemical_formula_sum "Si O2"
_cell_formula_units_Z 56
_cell_length_a 12.917667
_cell_length_b 12.917667
_cell_length_c 14.688588
_cell_angle_alpha 90.000000
_cell_angle_beta 90.000000
_cell_angle_gamma 90.000000
_cell_volume 2451.027698
_symmetry_space_group_name_H-M "I -4 C 2"
_symmetry_group_IT_number 120
_symmetry_cell_setting 'tetragonal'
loop_
_space_group_symop_operation_xyz
x,y,z
y,-x,-z
-x,-y,z
-y,x,-z
y,x,1/2-z
-y,-x,1/2-z
-x,y,1/2+z
x,-y,1/2+z
1/2+x,1/2+y,1/2+z
1/2+y,1/2-x,1/2-z
1/2-x,1/2-y,1/2+z
1/2-y,1/2+x,1/2-z
1/2+y,1/2+x,-z
1/2-y,1/2-x,-z
1/2-x,1/2+y,z
1/2+x,1/2-y,z
loop_
_atom_site_type_symbol
_atom_site_label
_atom_site_fract_x
_atom_site_fract_y
_atom_site_fract_z
Si Si1 0.770780 0.270780 0.500000
Si Si2 0.956276 0.785666 0.277875
Si Si3 0.151817 0.046413 0.530157
Si Si4 0.150406 0.721724 0.179147
O O1 0.892875 0.248447 0.519347
O O2 0.747329 0.190143 0.420676
O O3 0.878136 0.878136 0.250000
O O4 0.898368 0.678940 0.303830
O O5 0.022443 0.824561 0.364543
O O6 0.030484 0.752141 0.194408
O O7 0.054245 0.125610 0.528496
O O8 0.214335 0.785666 0.250000
#
# Coordination Sequence:
#
# PCOD8311316 Si02
#       4
#     8  16  16  16
#     4  12  24  46  68 110 154 186 244 310 382 428
#     4  11  26  46  73 109 147 195 253 307 368 446
#     4  11  25  44  74 111 141 194 250 308 371 449
#     4  11  25  45  70 106 149 196 241 310 368 439
#
# _framework density 22.847556999999998
#
# number of rings (size 3 to 8) (size 9 to 14) (size 15 to 20)
#    0.000    0.857    5.714    0.000    8.000    1.143 
#    0.000    0.000    0.000    2.571    0.000    0.000 
#    0.000    0.000    0.000    0.000    0.000    0.000 
#
# Total GULP energy -346880.079893 kJ/mol
# GULP energy per Si atom -12388.574282 kJ/mol
# Density = 2.279556 g / cm^3
# Si number density = 22.847557 Si / 1000 Ang^3
#
#
#
# Elastic Constant Matrix: (Units=GPa)
#
#
# Indices 1 2 3 4 5 6 
#
# 1 116.9151 70.1969 51.4756 0.0000 0.0000 0.0000
# 2 70.1969 116.9138 51.4761 0.0000 0.0000 0.0000
# 3 51.4756 51.4761 110.0397 0.0000 0.0000 0.0000
# 4 0.0000 0.0000 0.0000 40.7504 0.0000 0.0000
# 5 0.0000 0.0000 0.0000 0.0000 40.7547 0.0000
# 6 0.0000 0.0000 0.0000 0.0000 0.0000 52.0435
#
#
#
# Elastic Compliance Matrix: (Units=1/GPa)
#
#
# Indices 1 2 3 4 5 6 
#
# 1 0.014301 -0.007104 -0.003366 0.000000 0.000000 0.000000
# 2 -0.007104 0.014301 -0.003367 0.000000 0.000000 0.000000
# 3 -0.003366 -0.003367 0.012237 0.000000 0.000000 0.000000
# 4 0.000000 0.000000 0.000000 0.024540 0.000000 0.000000
# 5 0.000000 0.000000 0.000000 0.000000 0.024537 0.000000
# 6 0.000000 0.000000 0.000000 0.000000 0.000000 0.019215
#
#
# Mechanical properties :
#
#
# Convention : Reuss Voigt Hill
#
# Bulk Modulus (GPa) = 75.96182 76.68511 76.32346
# Shear Modulus (GPa) = 35.41231 38.09104 36.75167
#
# Velocity S-wave (km/s) = 3.94120 4.08754 4.01504
# Velocity P-wave (km/s) = 7.35052 7.47757 7.41432
#
# Compressibility (1/GPa) = 0.01316451
#
# Stress axis : x y z
#
# Youngs Moduli (GPa) = 69.92579 69.92452 81.71691
#
# Poissons Ratio (x) = 0.49676 0.27510
# Poissons Ratio (y) = 0.49677 0.27512
# Poissons Ratio (z) = 0.23540 0.23541
#
# Static dielectric constant tensor:
#      x y z
#    x 4.915960 0.000000 0.000000 
#    y 0.000000 4.915990 0.000000 
#    z 0.000000 0.000000 3.954470 
# 
# 
# High freq. dielectric constant tensor:
#      x y z
#    x 1.901590 0.000000 0.000000 
#    y 0.000000 1.901590 0.000000 
#    z 0.000000 0.000000 1.911070 
# 
# From -- ./inp_files/3227.got.cif
#   From: 2010.03.12/outbox.cif.g09.slc.cpg/sg120_2_cif.got.tgz:3227.got - 2010.04.06 16:00:44.
