data_PCOD8311718
_publ_section_title
;
Structure prediction by ZEFSAII (Michael W. Deem and Ramdas Pophale) SiO2 
 PCOD8311718
Probable space group: I -4 2 M
;
_chemical_formula_sum "Si O2"
_cell_formula_units_Z 64
_cell_length_a 14.778778
_cell_length_b 14.778778
_cell_length_c 14.977554
_cell_angle_alpha 90.000000
_cell_angle_beta 90.000000
_cell_angle_gamma 90.000000
_cell_volume 3271.281706
_symmetry_space_group_name_H-M "I -4 2 M"
_symmetry_group_IT_number 121
_symmetry_cell_setting 'tetragonal'
loop_
_space_group_symop_operation_xyz
x,y,z
y,-x,-z
-x,-y,z
-y,x,-z
x,-y,-z
-x,y,-z
-y,-x,z
y,x,z
1/2+x,1/2+y,1/2+z
1/2+y,1/2-x,1/2-z
1/2-x,1/2-y,1/2+z
1/2-y,1/2+x,1/2-z
1/2+x,1/2-y,1/2-z
1/2-x,1/2+y,1/2-z
1/2-y,1/2-x,1/2+z
1/2+y,1/2+x,1/2+z
loop_
_atom_site_type_symbol
_atom_site_label
_atom_site_fract_x
_atom_site_fract_y
_atom_site_fract_z
Si Si1 0.645699 0.505003 0.898715
Si Si2 0.734802 0.410709 0.610238
Si Si3 0.384307 0.762519 0.414860
Si Si4 0.731062 0.880320 0.696487
O O1 0.564273 0.435728 0.885405
O O2 0.605891 0.605891 0.876642
O O3 0.729959 0.478483 0.834498
O O4 0.681489 0.500000 0.000000
O O5 0.634873 0.365128 0.614218
O O6 0.723849 0.518021 0.610125
O O7 0.786615 0.378111 0.520691
O O8 0.791578 0.381653 0.697941
O O9 0.317285 0.682716 0.388106
O O10 0.359243 0.852865 0.358561
O O11 0.807104 0.807104 0.672177
#
# Coordination Sequence:
#
# PCOD8311718 Si02
#       4
#    16  16  16  16
#     4   8  14  26  44  70 106 139 167 209 263 314
#     4   9  18  33  53  76 104 137 176 222 266 314
#     4   9  18  33  52  77 107 140 177 219 266 318
#     4   9  17  31  50  75 106 141 177 214 261 318
#
# _framework density 19.564198000000001
#
# number of rings (size 3 to 8) (size 9 to 14) (size 15 to 20)
#    0.000    3.250    0.000    0.750    0.000    1.500 
#    4.500    5.000    0.000    0.750    0.000    0.000 
#    0.000    0.000    0.000    0.000    0.000    0.000 
#
# Total GULP energy -396498.348728 kJ/mol
# GULP energy per Si atom -12390.573398 kJ/mol
# Density = 1.951967 g / cm^3
# Si number density = 19.564198 Si / 1000 Ang^3
#
#
#
# Elastic Constant Matrix: (Units=GPa)
#
#
# Indices 1 2 3 4 5 6 
#
# 1 63.6728 43.8943 59.1108 0.0000 0.0000 0.0000
# 2 43.8943 63.6724 59.1110 0.0000 0.0000 0.0000
# 3 59.1108 59.1110 154.7727 0.0000 0.0000 0.0000
# 4 0.0000 0.0000 0.0000 23.7873 0.0000 0.0000
# 5 0.0000 0.0000 0.0000 0.0000 23.7877 0.0000
# 6 0.0000 0.0000 0.0000 0.0000 0.0000 27.7098
#
#
#
# Elastic Compliance Matrix: (Units=1/GPa)
#
#
# Indices 1 2 3 4 5 6 
#
# 1 0.033291 -0.017269 -0.006119 0.000000 0.000000 0.000000
# 2 -0.017269 0.033291 -0.006119 0.000000 0.000000 0.000000
# 3 -0.006119 -0.006119 0.011135 0.000000 0.000000 0.000000
# 4 0.000000 0.000000 0.000000 0.042039 0.000000 0.000000
# 5 0.000000 0.000000 0.000000 0.000000 0.042039 0.000000
# 6 0.000000 0.000000 0.000000 0.000000 0.000000 0.036088
#
#
# Mechanical properties :
#
#
# Convention : Reuss Voigt Hill
#
# Bulk Modulus (GPa) = 53.46927 67.37225 60.42076
# Shear Modulus (GPa) = 19.00183 23.05706 21.02945
#
# Velocity S-wave (km/s) = 3.11988 3.43670 3.28211
# Velocity P-wave (km/s) = 6.35356 7.08937 6.73152
#
# Compressibility (1/GPa) = 0.01870233
#
# Stress axis : x y z
#
# Youngs Moduli (GPa) = 30.03824 30.03780 89.80653
#
# Poissons Ratio (x) = 0.51874 0.54952
# Poissons Ratio (y) = 0.51874 0.54954
# Poissons Ratio (z) = 0.18380 0.18381
#
# Static dielectric constant tensor:
#      x y z
#    x 3.423390 0.000000 0.000000 
#    y 0.000000 3.423390 0.000000 
#    z 0.000000 0.000000 3.821140 
# 
# 
# High freq. dielectric constant tensor:
#      x y z
#    x 1.723430 0.000000 0.000000 
#    y 0.000000 1.723430 0.000000 
#    z 0.000000 0.000000 1.777800 
# 
# From -- ./inp_files/4047.got.cif
#   From: 2010.03.12/outbox.cif.g09.slc.cpg/sg121_3_cif.got.tgz:4047.got - 2010.04.06 16:06:48.
