data_PCOD8311196
_publ_section_title
;
Structure prediction by ZEFSAII (Michael W. Deem and Ramdas Pophale) SiO2 
 PCOD8311196
Probable space group: I -4 C 2
;
_chemical_formula_sum "Si O2"
_cell_formula_units_Z 96
_cell_length_a 14.645633
_cell_length_b 14.645633
_cell_length_c 21.779506
_cell_angle_alpha 90.000000
_cell_angle_beta 90.000000
_cell_angle_gamma 90.000000
_cell_volume 4671.585687
_symmetry_space_group_name_H-M "I -4 C 2"
_symmetry_group_IT_number 120
_symmetry_cell_setting 'tetragonal'
loop_
_space_group_symop_operation_xyz
x,y,z
y,-x,-z
-x,-y,z
-y,x,-z
y,x,1/2-z
-y,-x,1/2-z
-x,y,1/2+z
x,-y,1/2+z
1/2+x,1/2+y,1/2+z
1/2+y,1/2-x,1/2-z
1/2-x,1/2-y,1/2+z
1/2-y,1/2+x,1/2-z
1/2+y,1/2+x,-z
1/2-y,1/2-x,-z
1/2-x,1/2+y,z
1/2+x,1/2-y,z
loop_
_atom_site_type_symbol
_atom_site_label
_atom_site_fract_x
_atom_site_fract_y
_atom_site_fract_z
Si Si1 0.688308 0.653082 0.876632
Si Si2 0.000000 0.000000 0.750000
Si Si3 0.287495 0.287495 0.750000
Si Si4 0.970724 0.813900 0.679983
Si Si5 0.922294 0.313787 0.286184
Si Si6 0.000000 0.500000 0.750000
Si Si7 0.903831 0.893525 0.006119
Si Si8 0.150147 0.213422 0.890349
O O1 0.650647 0.688357 0.810077
O O2 0.718941 0.547343 0.868368
O O3 0.613730 0.655274 0.931288
O O4 0.770204 0.714324 0.901221
O O5 0.996988 0.913550 0.704940
O O6 0.309808 0.184739 0.730666
O O7 0.977275 0.741308 0.734978
O O8 0.871357 0.811932 0.649425
O O9 0.931557 0.263070 0.352166
O O10 0.961723 0.416665 0.291633
O O11 0.883367 0.815012 0.957134
O O12 0.009769 0.884336 0.025390
#
# Coordination Sequence:
#
# PCOD8311196 Si02
#       8
#    16   4   8  16  16   4  16  16
#     4  11  23  39  66  97 131 177 223 276 347 407
#     4  12  24  36  68 106 136 176 212 298 352 390
#     4  10  20  40  70  94 132 180 222 272 342 411
#     4  12  22  40  67 102 135 171 233 276 344 420
#     4  11  21  45  63 103 138 181 220 283 339 425
#     4  12  28  36  72 108 150 180 232 292 358 408
#     4  11  25  41  64  98 132 173 230 290 341 414
#     4  11  22  44  66  91 138 182 225 278 343 419
#
# _framework density 20.549766999999999
#
# number of rings (size 3 to 8) (size 9 to 14) (size 15 to 20)
#    0.000    0.833    6.667    3.000    2.333    2.667 
#    0.000    0.000    0.000    0.000    0.000    4.667 
#    0.000    0.000    0.000    0.000    0.000    0.000 
#
# Total GULP energy -594915.097271 kJ/mol
# GULP energy per Si atom -12394.064526 kJ/mol
# Density = 2.050299 g / cm^3
# Si number density = 20.549767 Si / 1000 Ang^3
#
#
#
# Elastic Constant Matrix: (Units=GPa)
#
#
# Indices 1 2 3 4 5 6 
#
# 1 109.6391 42.3930 37.0476 0.0000 0.0000 0.0000
# 2 42.3930 109.6391 37.0476 0.0000 0.0000 0.0000
# 3 37.0476 37.0476 136.4884 0.0000 0.0000 0.0000
# 4 0.0000 0.0000 0.0000 33.4396 0.0000 0.0000
# 5 0.0000 0.0000 0.0000 0.0000 33.4396 0.0000
# 6 0.0000 0.0000 0.0000 0.0000 0.0000 37.0031
#
#
#
# Elastic Compliance Matrix: (Units=1/GPa)
#
#
# Indices 1 2 3 4 5 6 
#
# 1 0.011226 -0.003645 -0.002058 0.000000 0.000000 0.000000
# 2 -0.003645 0.011226 -0.002058 0.000000 0.000000 0.000000
# 3 -0.002058 -0.002058 0.008444 0.000000 0.000000 0.000000
# 4 0.000000 0.000000 0.000000 0.029905 0.000000 0.000000
# 5 0.000000 0.000000 0.000000 0.000000 0.029905 0.000000
# 6 0.000000 0.000000 0.000000 0.000000 0.000000 0.027025
#
#
# Mechanical properties :
#
#
# Convention : Reuss Voigt Hill
#
# Bulk Modulus (GPa) = 65.04467 65.41589 65.23028
# Shear Modulus (GPa) = 36.13391 36.72834 36.43112
#
# Velocity S-wave (km/s) = 4.19783 4.23222 4.21506
# Velocity P-wave (km/s) = 7.43079 7.46889 7.44986
#
# Compressibility (1/GPa) = 0.01537405
#
# Stress axis : x y z
#
# Youngs Moduli (GPa) = 89.08249 89.08249 118.43271
#
# Poissons Ratio (x) = 0.32472 0.24368
# Poissons Ratio (y) = 0.32472 0.24368
# Poissons Ratio (z) = 0.18329 0.18329
#
# Static dielectric constant tensor:
#      x y z
#    x 3.777710 0.000000 0.000000 
#    y 0.000000 3.777710 0.000000 
#    z 0.000000 0.000000 3.817400 
# 
# 
# High freq. dielectric constant tensor:
#      x y z
#    x 1.801040 0.000000 0.000000 
#    y 0.000000 1.801040 0.000000 
#    z 0.000000 0.000000 1.800330 
# 
# From -- ./inp_files/5413.got.cif
#   From: 2010.03.12/outbox.cif.g09.slc.cpg/sg120_3_cif.got.tgz:5413.got - 2010.04.06 16:00:44.
