data_PCOD8311315
_publ_section_title
;
Structure prediction by ZEFSAII (Michael W. Deem and Ramdas Pophale) SiO2 
 PCOD8311315
Probable space group: I -4 C 2
;
_chemical_formula_sum "Si O2"
_cell_formula_units_Z 88
_cell_length_a 12.739403
_cell_length_b 12.739403
_cell_length_c 24.759083
_cell_angle_alpha 90.000000
_cell_angle_beta 90.000000
_cell_angle_gamma 90.000000
_cell_volume 4018.210724
_symmetry_space_group_name_H-M "I -4 C 2"
_symmetry_group_IT_number 120
_symmetry_cell_setting 'tetragonal'
loop_
_space_group_symop_operation_xyz
x,y,z
y,-x,-z
-x,-y,z
-y,x,-z
y,x,1/2-z
-y,-x,1/2-z
-x,y,1/2+z
x,-y,1/2+z
1/2+x,1/2+y,1/2+z
1/2+y,1/2-x,1/2-z
1/2-x,1/2-y,1/2+z
1/2-y,1/2+x,1/2-z
1/2+y,1/2+x,-z
1/2-y,1/2-x,-z
1/2-x,1/2+y,z
1/2+x,1/2-y,z
loop_
_atom_site_type_symbol
_atom_site_label
_atom_site_fract_x
_atom_site_fract_y
_atom_site_fract_z
Si Si1 0.800799 0.372388 0.185308
Si Si2 0.549567 0.285384 0.738014
Si Si3 0.112139 0.464942 0.407066
Si Si4 0.592234 0.294334 0.135730
Si Si5 0.180681 0.680681 0.000000
Si Si6 0.104806 0.898393 0.528820
O O1 0.748942 0.473451 0.213347
O O2 0.862742 0.304797 0.229986
O O3 0.884243 0.410523 0.141358
O O4 0.711894 0.301052 0.156655
O O5 0.605214 0.394787 0.750000
O O6 0.486033 0.312382 0.684606
O O7 0.179005 0.566661 0.388692
O O8 0.174138 0.409074 0.455137
O O9 0.000000 0.500000 0.429590
O O10 0.565595 0.382996 0.090407
O O11 0.294862 0.675933 0.026037
O O12 0.019447 0.865225 0.483312
#
# Coordination Sequence:
#
# PCOD8311315 Si02
#       6
#    16  16  16  16   8  16
#     4  11  26  46  71 106 146 187 243 299 371 427
#     4  11  26  44  72 103 143 193 240 303 354 441
#     4  11  26  45  76 107 142 189 239 299 369 436
#     4  11  24  49  68 103 145 186 244 294 369 436
#     4  12  23  50  68 113 136 186 244 294 363 440
#     4  11  25  45  72 103 144 190 236 301 367 438
#
# _framework density 21.900296000000001
#
# number of rings (size 3 to 8) (size 9 to 14) (size 15 to 20)
#    0.000    0.909    3.636    1.909    7.636    5.818 
#    0.000    0.000    0.000    0.000    0.000    0.000 
#    0.000    0.000    0.000    0.000    0.000    0.000 
#
# Total GULP energy -545648.072179 kJ/mol
# GULP energy per Si atom -12401.092550 kJ/mol
# Density = 2.185045 g / cm^3
# Si number density = 21.900296 Si / 1000 Ang^3
#
#
#
# Elastic Constant Matrix: (Units=GPa)
#
#
# Indices 1 2 3 4 5 6 
#
# 1 111.5372 45.7919 30.9171 0.0000 0.0000 0.0000
# 2 45.7919 111.5367 30.9167 0.0000 0.0000 0.0000
# 3 30.9171 30.9167 101.3785 0.0000 0.0000 0.0000
# 4 0.0000 0.0000 0.0000 34.6583 0.0000 0.0000
# 5 0.0000 0.0000 0.0000 0.0000 34.6582 0.0000
# 6 0.0000 0.0000 0.0000 0.0000 0.0000 28.5250
#
#
#
# Elastic Compliance Matrix: (Units=1/GPa)
#
#
# Indices 1 2 3 4 5 6 
#
# 1 0.011216 -0.003994 -0.002202 0.000000 0.000000 0.000000
# 2 -0.003994 0.011216 -0.002202 0.000000 0.000000 0.000000
# 3 -0.002202 -0.002202 0.011207 0.000000 0.000000 0.000000
# 4 0.000000 0.000000 0.000000 0.028853 0.000000 0.000000
# 5 0.000000 0.000000 0.000000 0.000000 0.028853 0.000000
# 6 0.000000 0.000000 0.000000 0.000000 0.000000 0.035057
#
#
# Mechanical properties :
#
#
# Convention : Reuss Voigt Hill
#
# Bulk Modulus (GPa) = 59.37804 59.96708 59.67256
# Shear Modulus (GPa) = 33.59892 34.02342 33.81117
#
# Velocity S-wave (km/s) = 3.92111 3.94580 3.93347
# Velocity P-wave (km/s) = 6.90448 6.94265 6.92359
#
# Compressibility (1/GPa) = 0.01684124
#
# Stress axis : x y z
#
# Youngs Moduli (GPa) = 89.15859 89.15840 89.22751
#
# Poissons Ratio (x) = 0.35612 0.19651
# Poissons Ratio (y) = 0.35613 0.19651
# Poissons Ratio (z) = 0.19636 0.19636
#
# Static dielectric constant tensor:
#      x y z
#    x 3.973840 0.000000 0.000000 
#    y 0.000000 3.973840 0.000000 
#    z 0.000000 0.000000 4.119430 
# 
# 
# High freq. dielectric constant tensor:
#      x y z
#    x 1.862270 0.000000 0.000000 
#    y 0.000000 1.862270 0.000000 
#    z 0.000000 0.000000 1.873240 
# 
# From -- ./inp_files/6606.got.cif
#   From: 2010.03.12/outbox.cif.g09.slc.cpg/sg120_4_cif.got.tgz:6606.got - 2010.04.06 16:00:44.
