data_PCOD8311991
_publ_section_title
;
Structure prediction by ZEFSAII (Michael W. Deem and Ramdas Pophale) SiO2 
 PCOD8311991
Probable space group: I -4 2 D
;
_chemical_formula_sum "Si O2"
_cell_formula_units_Z 72
_cell_length_a 10.970563
_cell_length_b 10.970563
_cell_length_c 26.395864
_cell_angle_alpha 90.000000
_cell_angle_beta 90.000000
_cell_angle_gamma 90.000000
_cell_volume 3176.828086
_symmetry_space_group_name_H-M "I -4 2 D"
_symmetry_group_IT_number 122
_symmetry_cell_setting 'tetragonal'
loop_
_space_group_symop_operation_xyz
x,y,z
y,-x,-z
-x,-y,z
-y,x,-z
x,1/2-y,1/4-z
-x,1/2+y,1/4-z
-y,1/2-x,1/4+z
y,1/2+x,1/4+z
1/2+x,1/2+y,1/2+z
1/2+y,1/2-x,1/2-z
1/2-x,1/2-y,1/2+z
1/2-y,1/2+x,1/2-z
1/2+x,-y,3/4-z
1/2-x,y,3/4-z
1/2-y,-x,3/4+z
1/2+y,x,3/4+z
loop_
_atom_site_type_symbol
_atom_site_label
_atom_site_fract_x
_atom_site_fract_y
_atom_site_fract_z
Si Si1 0.745727 0.387939 0.185072
Si Si2 0.710576 0.633213 0.243747
Si Si3 0.332589 0.681192 0.917267
Si Si4 0.043586 0.370663 0.412887
Si Si5 0.950401 0.250000 0.625000
O O1 0.717004 0.526796 0.201416
O O2 0.830939 0.338549 0.230193
O O3 0.817384 0.377116 0.132370
O O4 0.625272 0.307691 0.172278
O O5 0.663915 0.756519 0.218397
O O6 0.618686 0.594289 0.287470
O O7 0.250000 0.751507 0.875000
O O8 0.447971 0.765440 0.927970
O O9 0.356792 0.541696 0.897110
O O10 0.000000 0.500000 0.391900
#
# Coordination Sequence:
#
# PCOD8311991 Si02
#       5
#    16  16  16  16   8
#     4  12  26  50  73 113 152 205 254 322 387 482
#     4  12  27  45  78 108 148 198 252 312 399 456
#     4  10  25  45  74 108 143 191 249 321 380 456
#     4  12  27  46  73 110 153 201 254 312 388 475
#     4  10  24  52  74 100 152 196 260 320 392 454
#
# _framework density 22.664117999999998
#
# number of rings (size 3 to 8) (size 9 to 14) (size 15 to 20)
#    0.667    0.000    4.444    1.333    9.333    4.444 
#    0.000    0.000    0.000    0.000    0.000    0.000 
#    0.000    0.000    0.000    0.000    0.000    0.000 
#
# Total GULP energy -445979.465106 kJ/mol
# GULP energy per Si atom -12388.318475 kJ/mol
# Density = 2.261253 g / cm^3
# Si number density = 22.664118 Si / 1000 Ang^3
#
#
#
# Elastic Constant Matrix: (Units=GPa)
#
#
# Indices 1 2 3 4 5 6 
#
# 1 97.7838 51.7189 21.8825 0.0000 0.0000 0.0000
# 2 51.7189 97.7838 21.8825 0.0000 0.0000 0.0000
# 3 21.8825 21.8825 91.7870 0.0000 0.0000 0.0000
# 4 0.0000 0.0000 0.0000 34.5030 0.0000 0.0000
# 5 0.0000 0.0000 0.0000 0.0000 34.5030 0.0000
# 6 0.0000 0.0000 0.0000 0.0000 0.0000 30.0839
#
#
#
# Elastic Compliance Matrix: (Units=1/GPa)
#
#
# Indices 1 2 3 4 5 6 
#
# 1 0.014450 -0.007259 -0.001714 0.000000 0.000000 0.000000
# 2 -0.007259 0.014450 -0.001714 0.000000 0.000000 0.000000
# 3 -0.001714 -0.001714 0.011712 0.000000 0.000000 0.000000
# 4 0.000000 0.000000 0.000000 0.028983 0.000000 0.000000
# 5 0.000000 0.000000 0.000000 0.000000 0.028983 0.000000
# 6 0.000000 0.000000 0.000000 0.000000 0.000000 0.033240
#
#
# Mechanical properties :
#
#
# Convention : Reuss Voigt Hill
#
# Bulk Modulus (GPa) = 51.98487 53.14693 52.56590
# Shear Modulus (GPa) = 31.32738 32.60937 31.96838
#
# Velocity S-wave (km/s) = 3.72189 3.79728 3.75977
# Velocity P-wave (km/s) = 6.43870 6.53655 6.48781
#
# Compressibility (1/GPa) = 0.01923637
#
# Stress axis : x y z
#
# Youngs Moduli (GPa) = 69.20615 69.20614 85.38118
#
# Poissons Ratio (x) = 0.50236 0.14637
# Poissons Ratio (y) = 0.50236 0.14637
# Poissons Ratio (z) = 0.11864 0.11864
#
# Static dielectric constant tensor:
#      x y z
#    x 4.005490 0.000000 0.000000 
#    y 0.000000 4.005490 0.000000 
#    z 0.000000 0.000000 4.180420 
# 
# 
# High freq. dielectric constant tensor:
#      x y z
#    x 1.887350 0.000000 0.000000 
#    y 0.000000 1.887350 0.000000 
#    z 0.000000 0.000000 1.908590 
# 
# From -- ./inp_files/8640.got.cif
#   From: 2010.03.12/outbox.cif.g09.slc.cpg/sg122_5_cif.got.tgz:8640.got - 2010.04.06 16:17:16.
