data_PCOD8311641
_publ_section_title
;
Structure prediction by ZEFSAII (Michael W. Deem and Ramdas Pophale) SiO2 
 PCOD8311641
Probable space group: I -4 2 M
;
_chemical_formula_sum "Si O2"
_cell_formula_units_Z 84
_cell_length_a 15.642894
_cell_length_b 15.642894
_cell_length_c 18.309520
_cell_angle_alpha 90.000000
_cell_angle_beta 90.000000
_cell_angle_gamma 90.000000
_cell_volume 4480.341974
_symmetry_space_group_name_H-M "I -4 2 M"
_symmetry_group_IT_number 121
_symmetry_cell_setting 'tetragonal'
loop_
_space_group_symop_operation_xyz
x,y,z
y,-x,-z
-x,-y,z
-y,x,-z
x,-y,-z
-x,y,-z
-y,-x,z
y,x,z
1/2+x,1/2+y,1/2+z
1/2+y,1/2-x,1/2-z
1/2-x,1/2-y,1/2+z
1/2-y,1/2+x,1/2-z
1/2+x,1/2-y,1/2-z
1/2-x,1/2+y,1/2-z
1/2-y,1/2-x,1/2+z
1/2+y,1/2+x,1/2+z
loop_
_atom_site_type_symbol
_atom_site_label
_atom_site_fract_x
_atom_site_fract_y
_atom_site_fract_z
Si Si1 0.699135 0.557925 0.069110
Si Si2 0.085924 0.775346 0.680850
Si Si3 0.470255 0.822875 0.321923
Si Si4 0.000000 0.500000 0.250000
Si Si5 0.148286 0.715826 0.113410
Si Si6 0.836940 0.303219 0.947913
O O1 0.622488 0.622488 0.081490
O O2 0.706093 0.503972 0.143009
O O3 0.787330 0.607224 0.055065
O O4 0.677002 0.500000 0.000000
O O5 0.136470 0.863531 0.692621
O O6 0.071643 0.732323 0.758560
O O7 0.137813 0.711946 0.628661
O O8 0.565845 0.790235 0.335796
O O9 0.416318 0.807508 0.394229
O O10 0.469566 0.922919 0.301720
O O11 0.194924 0.805077 0.132515
O O12 0.124482 0.711532 0.028251
O O13 0.774080 0.225921 0.925691
#
# Coordination Sequence:
#
# PCOD8311641 Si02
#       6
#    16  16  16   4  16  16
#     4  11  22  38  61  89 122 160 202 246 296 363
#     4  11  23  40  59  86 124 159 198 247 303 358
#     4  12  23  40  61  89 121 162 199 253 302 359
#     4  12  24  36  54  92 128 148 202 244 292 364
#     4  10  22  41  62  85 118 160 203 250 297 355
#     4  10  22  40  63  90 119 157 204 247 303 366
#
# _framework density 18.748569
#
# number of rings (size 3 to 8) (size 9 to 14) (size 15 to 20)
#    0.000    1.143    3.810    2.857    0.000    2.095 
#    0.000    0.952    0.000    1.714    0.000    5.333 
#    0.000    0.000    0.000    0.000    0.000    0.000 
#
# Total GULP energy -521043.428242 kJ/mol
# GULP energy per Si atom -12405.795911 kJ/mol
# Density = 1.870590 g / cm^3
# Si number density = 18.748569 Si / 1000 Ang^3
#
#
#
# Elastic Constant Matrix: (Units=GPa)
#
#
# Indices 1 2 3 4 5 6 
#
# 1 66.4408 17.9534 16.0159 0.0000 0.0000 0.0000
# 2 17.9534 66.4324 16.0142 0.0000 0.0000 0.0000
# 3 16.0159 16.0142 70.9368 0.0000 0.0000 0.0000
# 4 0.0000 0.0000 0.0000 31.8589 0.0000 0.0000
# 5 0.0000 0.0000 0.0000 0.0000 31.8587 0.0000
# 6 0.0000 0.0000 0.0000 0.0000 0.0000 18.7041
#
#
#
# Elastic Compliance Matrix: (Units=1/GPa)
#
#
# Indices 1 2 3 4 5 6 
#
# 1 0.016792 -0.003833 -0.002926 0.000000 0.000000 0.000000
# 2 -0.003833 0.016794 -0.002926 0.000000 0.000000 0.000000
# 3 -0.002926 -0.002926 0.015418 0.000000 0.000000 0.000000
# 4 0.000000 0.000000 0.000000 0.031388 0.000000 0.000000
# 5 0.000000 0.000000 0.000000 0.000000 0.031389 0.000000
# 6 0.000000 0.000000 0.000000 0.000000 0.000000 0.053464
#
#
# Mechanical properties :
#
#
# Convention : Reuss Voigt Hill
#
# Bulk Modulus (GPa) = 33.74399 33.75299 33.74849
# Shear Modulus (GPa) = 25.70787 26.73944 26.22366
#
# Velocity S-wave (km/s) = 3.70698 3.78062 3.74398
# Velocity P-wave (km/s) = 6.02988 6.09094 6.06049
#
# Compressibility (1/GPa) = 0.02963490
#
# Stress axis : x y z
#
# Youngs Moduli (GPa) = 59.55221 59.54500 64.85827
#
# Poissons Ratio (x) = 0.22822 0.18978
# Poissons Ratio (y) = 0.22825 0.18977
# Poissons Ratio (z) = 0.17425 0.17423
#
# Static dielectric constant tensor:
#      x y z
#    x 3.480600 0.000000 0.000000 
#    y 0.000000 3.480610 0.000000 
#    z 0.000000 0.000000 3.437480 
# 
# 
# High freq. dielectric constant tensor:
#      x y z
#    x 1.730350 0.000000 0.000000 
#    y 0.000000 1.730350 0.000000 
#    z 0.000000 0.000000 1.737210 
# 
# From -- ./inp_files/6287.got.cif
#   From: 2010.03.12/outbox.cif.g09.slc.cpg/sg121_4_cif.got.tgz:6287.got - 2010.04.06 16:06:48.
