data_PCOD8311311
_publ_section_title
;
Structure prediction by ZEFSAII (Michael W. Deem and Ramdas Pophale) SiO2 
 PCOD8311311
Probable space group: I -4 C 2
;
_chemical_formula_sum "Si O2"
_cell_formula_units_Z 96
_cell_length_a 15.220739
_cell_length_b 15.220739
_cell_length_c 18.857385
_cell_angle_alpha 90.000000
_cell_angle_beta 90.000000
_cell_angle_gamma 90.000000
_cell_volume 4368.707274
_symmetry_space_group_name_H-M "I -4 C 2"
_symmetry_group_IT_number 120
_symmetry_cell_setting 'tetragonal'
loop_
_space_group_symop_operation_xyz
x,y,z
y,-x,-z
-x,-y,z
-y,x,-z
y,x,1/2-z
-y,-x,1/2-z
-x,y,1/2+z
x,-y,1/2+z
1/2+x,1/2+y,1/2+z
1/2+y,1/2-x,1/2-z
1/2-x,1/2-y,1/2+z
1/2-y,1/2+x,1/2-z
1/2+y,1/2+x,-z
1/2-y,1/2-x,-z
1/2-x,1/2+y,z
1/2+x,1/2-y,z
loop_
_atom_site_type_symbol
_atom_site_label
_atom_site_fract_x
_atom_site_fract_y
_atom_site_fract_z
Si Si1 0.759322 0.924711 0.389865
Si Si2 0.757108 0.705340 0.674479
Si Si3 0.307147 0.571016 0.785855
Si Si4 0.257247 0.006191 0.145323
Si Si5 0.363826 0.523059 0.518391
Si Si6 0.433509 0.929413 0.916326
O O1 0.766606 0.819521 0.379781
O O2 0.784072 0.942570 0.471003
O O3 0.658998 0.953474 0.380573
O O4 0.817852 0.986146 0.337003
O O5 0.710459 0.710459 0.750000
O O6 0.844632 0.766228 0.671891
O O7 0.784591 0.606461 0.657831
O O8 0.400269 0.599732 0.750000
O O9 0.246429 0.543626 0.720025
O O10 0.167606 0.998685 0.098595
O O11 0.331459 0.959855 0.101022
O O12 0.437274 0.598303 0.521073
O O13 0.500000 0.000000 0.883039
O O14 0.434158 0.934158 0.000000
#
# Coordination Sequence:
#
# PCOD8311311 Si02
#       6
#    16  16  16  16  16  16
#     4  12  23  46  70  97 138 185 231 284 360 420
#     4  11  23  45  69 100 137 179 228 290 347 424
#     4  11  25  43  69 100 136 176 230 288 345 422
#     4  12  23  44  67  99 136 178 231 284 353 414
#     4  11  24  42  67 100 137 178 233 290 347 421
#     4  11  24  42  66  95 136 177 225 285 344 420
#
# _framework density 21.974463
#
# number of rings (size 3 to 8) (size 9 to 14) (size 15 to 20)
#    0.000    0.667    5.000    4.000    0.000    0.000 
#    0.000    0.833    0.000    0.000    0.000    0.000 
#    0.000    0.000    0.000    0.000    0.000    0.000 
#
# Total GULP energy -595157.430547 kJ/mol
# GULP energy per Si atom -12399.113136 kJ/mol
# Density = 2.192445 g / cm^3
# Si number density = 21.974463 Si / 1000 Ang^3
#
#
#
# Elastic Constant Matrix: (Units=GPa)
#
#
# Indices 1 2 3 4 5 6 
#
# 1 87.2546 9.9124 4.0215 0.0000 0.0000 0.0000
# 2 9.9124 87.2551 4.0214 0.0000 0.0000 0.0000
# 3 4.0215 4.0214 64.8706 0.0000 0.0000 0.0000
# 4 0.0000 0.0000 0.0000 38.2983 0.0000 0.0000
# 5 0.0000 0.0000 0.0000 0.0000 38.2972 0.0000
# 6 0.0000 0.0000 0.0000 0.0000 0.0000 28.9956
#
#
#
# Elastic Compliance Matrix: (Units=1/GPa)
#
#
# Indices 1 2 3 4 5 6 
#
# 1 0.011637 -0.001292 -0.000641 0.000000 0.000000 0.000000
# 2 -0.001292 0.011637 -0.000641 0.000000 0.000000 0.000000
# 3 -0.000641 -0.000641 0.015495 0.000000 0.000000 0.000000
# 4 0.000000 0.000000 0.000000 0.026111 0.000000 0.000000
# 5 0.000000 0.000000 0.000000 0.000000 0.026112 0.000000
# 6 0.000000 0.000000 0.000000 0.000000 0.000000 0.034488
#
#
# Mechanical properties :
#
#
# Convention : Reuss Voigt Hill
#
# Bulk Modulus (GPa) = 29.74518 30.58790 30.16654
# Shear Modulus (GPa) = 35.25206 35.87988 35.56597
#
# Velocity S-wave (km/s) = 4.00963 4.04517 4.02744
# Velocity P-wave (km/s) = 5.91623 5.98063 5.94852
#
# Compressibility (1/GPa) = 0.03361890
#
# Stress axis : x y z
#
# Youngs Moduli (GPa) = 85.93210 85.93260 64.53774
#
# Poissons Ratio (x) = 0.11106 0.04139
# Poissons Ratio (y) = 0.11106 0.04139
# Poissons Ratio (z) = 0.05511 0.05511
#
# Static dielectric constant tensor:
#      x y z
#    x 3.958940 0.000000 0.000000 
#    y 0.000000 3.958920 0.000000 
#    z 0.000000 0.000000 3.851110 
# 
# 
# High freq. dielectric constant tensor:
#      x y z
#    x 1.867510 0.000000 0.000000 
#    y 0.000000 1.867510 0.000000 
#    z 0.000000 0.000000 1.861730 
# 
# From -- ./inp_files/5329.got.cif
#   From: 2010.03.12/outbox.cif.g09.slc.cpg/sg120_3_cif.got.tgz:5329.got - 2010.04.06 16:00:44.
