data_PCOD8311747
_publ_section_title
;
Structure prediction by ZEFSAII (Michael W. Deem and Ramdas Pophale) SiO2 
 PCOD8311747
Probable space group: I -4 2 D
;
_chemical_formula_sum "Si O2"
_cell_formula_units_Z 80
_cell_length_a 11.344541
_cell_length_b 11.344541
_cell_length_c 30.114982
_cell_angle_alpha 90.000000
_cell_angle_beta 90.000000
_cell_angle_gamma 90.000000
_cell_volume 3875.756339
_symmetry_space_group_name_H-M "I -4 2 D"
_symmetry_group_IT_number 122
_symmetry_cell_setting 'tetragonal'
loop_
_space_group_symop_operation_xyz
x,y,z
y,-x,-z
-x,-y,z
-y,x,-z
x,1/2-y,1/4-z
-x,1/2+y,1/4-z
-y,1/2-x,1/4+z
y,1/2+x,1/4+z
1/2+x,1/2+y,1/2+z
1/2+y,1/2-x,1/2-z
1/2-x,1/2-y,1/2+z
1/2-y,1/2+x,1/2-z
1/2+x,-y,3/4-z
1/2-x,y,3/4-z
1/2-y,-x,3/4+z
1/2+y,x,3/4+z
loop_
_atom_site_type_symbol
_atom_site_label
_atom_site_fract_x
_atom_site_fract_y
_atom_site_fract_z
Si Si1 0.271321 0.250000 0.125000
Si Si2 0.896017 0.377599 0.431717
Si Si3 0.624166 0.371791 0.727209
Si Si4 0.188228 0.827861 0.080364
Si Si5 0.000000 0.000000 0.898072
Si Si6 0.539578 0.370265 0.825913
O O1 0.201522 0.281604 0.078857
O O2 0.345333 0.366307 0.135632
O O3 0.854996 0.500301 0.452126
O O4 0.999340 0.322157 0.463259
O O5 0.948658 0.395296 0.382249
O O6 0.705640 0.263755 0.710516
O O7 0.606335 0.361517 0.779181
O O8 0.189266 0.750000 0.125000
O O9 0.063115 0.896893 0.073602
O O10 0.291742 0.922609 0.078204
O O11 0.500000 0.500000 0.835789
#
# Coordination Sequence:
#
# PCOD8311747 Si02
#       6
#     8  16  16  16   8  16
#     4  12  24  42  70  90 124 178 220 262 320 394
#     4  10  18  40  66  92 125 158 202 265 340 380
#     4  10  22  39  66  92 133 159 202 276 334 384
#     4  12  22  38  66  96 125 170 211 262 324 393
#     4  10  18  34  61 100 126 146 204 258 334 387
#     4  12  28  43  59  95 130 179 221 265 311 387
#
# _framework density 20.641131999999999
#
# number of rings (size 3 to 8) (size 9 to 14) (size 15 to 20)
#    0.000    1.200    8.000    1.200    4.200    0.000 
#    0.000    0.000    0.000    0.000    0.000    0.000 
#    0.000    0.000    0.000    0.000    0.000    0.000 
#
# Total GULP energy -495681.971765 kJ/mol
# GULP energy per Si atom -12392.049294 kJ/mol
# Density = 2.059415 g / cm^3
# Si number density = 20.641132 Si / 1000 Ang^3
#
#
#
# Elastic Constant Matrix: (Units=GPa)
#
#
# Indices 1 2 3 4 5 6 
#
# 1 102.3759 53.9847 22.4157 0.0000 0.0000 0.0000
# 2 53.9847 102.3759 22.4157 0.0000 0.0000 0.0000
# 3 22.4157 22.4157 51.4604 0.0000 0.0000 0.0000
# 4 0.0000 0.0000 0.0000 16.0365 0.0000 0.0000
# 5 0.0000 0.0000 0.0000 0.0000 16.0365 0.0000
# 6 0.0000 0.0000 0.0000 0.0000 0.0000 24.0152
#
#
#
# Elastic Compliance Matrix: (Units=1/GPa)
#
#
# Indices 1 2 3 4 5 6 
#
# 1 0.013987 -0.006678 -0.003183 0.000000 0.000000 0.000000
# 2 -0.006678 0.013987 -0.003183 0.000000 0.000000 0.000000
# 3 -0.003183 -0.003183 0.022206 0.000000 0.000000 0.000000
# 4 0.000000 0.000000 0.000000 0.062358 0.000000 0.000000
# 5 0.000000 0.000000 0.000000 0.000000 0.062358 0.000000
# 6 0.000000 0.000000 0.000000 0.000000 0.000000 0.041640
#
#
# Mechanical properties :
#
#
# Convention : Reuss Voigt Hill
#
# Bulk Modulus (GPa) = 41.51344 50.42716 45.97030
# Shear Modulus (GPa) = 19.94781 21.71074 20.82928
#
# Velocity S-wave (km/s) = 3.11209 3.24669 3.18010
# Velocity P-wave (km/s) = 5.75057 6.20791 5.98361
#
# Compressibility (1/GPa) = 0.02408858
#
# Stress axis : x y z
#
# Youngs Moduli (GPa) = 71.49727 71.49727 45.03344
#
# Poissons Ratio (x) = 0.47748 0.14336
# Poissons Ratio (y) = 0.47748 0.14336
# Poissons Ratio (z) = 0.22760 0.22760
#
# Static dielectric constant tensor:
#      x y z
#    x 3.840250 0.000000 0.000000 
#    y 0.000000 3.840250 0.000000 
#    z 0.000000 0.000000 3.624760 
# 
# 
# High freq. dielectric constant tensor:
#      x y z
#    x 1.800840 0.000000 0.000000 
#    y 0.000000 1.800840 0.000000 
#    z 0.000000 0.000000 1.791540 
# 
# From -- ./inp_files/9455.got.cif
#   From: 2010.03.12/outbox.cif.g09.slc.cpg/sg122_5_cif.got.tgz:9455.got - 2010.04.06 16:17:16.
