data_PCOD8311490
_publ_section_title
;
Structure prediction by ZEFSAII (Michael W. Deem and Ramdas Pophale) SiO2 
 PCOD8311490
Probable space group: I -4 2 M
;
_chemical_formula_sum "Si O2"
_cell_formula_units_Z 112
_cell_length_a 14.732963
_cell_length_b 14.732963
_cell_length_c 25.481749
_cell_angle_alpha 90.000000
_cell_angle_beta 90.000000
_cell_angle_gamma 90.000000
_cell_volume 5531.073503
_symmetry_space_group_name_H-M "I -4 2 M"
_symmetry_group_IT_number 121
_symmetry_cell_setting 'tetragonal'
loop_
_space_group_symop_operation_xyz
x,y,z
y,-x,-z
-x,-y,z
-y,x,-z
x,-y,-z
-x,y,-z
-y,-x,z
y,x,z
1/2+x,1/2+y,1/2+z
1/2+y,1/2-x,1/2-z
1/2-x,1/2-y,1/2+z
1/2-y,1/2+x,1/2-z
1/2+x,1/2-y,1/2-z
1/2-x,1/2+y,1/2-z
1/2-y,1/2-x,1/2+z
1/2+y,1/2+x,1/2+z
loop_
_atom_site_type_symbol
_atom_site_label
_atom_site_fract_x
_atom_site_fract_y
_atom_site_fract_z
Si Si1 0.809042 0.045416 0.659530
Si Si2 0.314346 0.834334 0.193723
Si Si3 0.777774 0.368434 0.805036
Si Si4 0.374314 0.225646 0.607825
Si Si5 0.276813 0.425562 0.397981
Si Si6 0.424678 0.278996 0.960632
Si Si7 0.900078 0.655261 0.994323
O O1 0.905451 0.094550 0.674228
O O2 0.726545 0.097509 0.686662
O O3 0.799224 0.042127 0.597378
O O4 0.798440 0.943472 0.680246
O O5 0.224276 0.775724 0.195860
O O6 0.322876 0.891027 0.248157
O O7 0.302381 0.896057 0.142305
O O8 0.726462 0.273539 0.799365
O O9 0.858011 0.354338 0.848528
O O10 0.295434 0.295434 0.616532
O O11 0.467159 0.283417 0.612783
O O12 0.363306 0.180734 0.551222
O O13 0.373134 0.373134 0.389626
O O14 0.244112 0.407425 0.457357
O O15 0.328546 0.328546 0.971321
O O16 0.414371 0.170962 0.968670
O O17 0.500000 0.318512 0.000000
O O18 0.000000 0.609767 0.000000
#
# Coordination Sequence:
#
# PCOD8311490 Si02
#       7
#    16  16  16  16  16  16  16
#     4  10  21  38  63  87 112 155 205 246 294 362
#     4   9  19  37  59  80 107 147 190 233 289 346
#     4  10  22  39  58  84 119 154 191 243 302 354
#     4  10  21  35  55  85 118 152 183 230 298 350
#     4  10  19  35  59  82 108 148 195 237 280 347
#     4  11  22  37  59  87 121 162 202 246 298 358
#     4  10  20  36  59  84 113 151 194 239 294 356
#
# _framework density 20.249234000000001
#
# number of rings (size 3 to 8) (size 9 to 14) (size 15 to 20)
#    0.000    2.000    1.429    2.143    2.000    2.714 
#    0.000    2.143    0.000    5.143    0.000    0.000 
#    0.000    0.000    0.000    0.000    0.000    0.000 
#
# Total GULP energy -694019.553527 kJ/mol
# GULP energy per Si atom -12393.206313 kJ/mol
# Density = 2.020315 g / cm^3
# Si number density = 20.249234 Si / 1000 Ang^3
#
#
#
# Elastic Constant Matrix: (Units=GPa)
#
#
# Indices 1 2 3 4 5 6 
#
# 1 44.2758 -12.7528 22.1696 0.0000 0.0000 0.0000
# 2 -12.7528 44.2758 22.1696 0.0000 0.0000 0.0000
# 3 22.1696 22.1696 128.8855 0.0000 0.0000 0.0000
# 4 0.0000 0.0000 0.0000 24.0288 0.0000 0.0000
# 5 0.0000 0.0000 0.0000 0.0000 24.0283 0.0000
# 6 0.0000 0.0000 0.0000 0.0000 0.0000 21.9971
#
#
#
# Elastic Compliance Matrix: (Units=1/GPa)
#
#
# Indices 1 2 3 4 5 6 
#
# 1 0.029691 0.012156 -0.007198 0.000000 0.000000 0.000000
# 2 0.012156 0.029691 -0.007198 0.000000 0.000000 0.000000
# 3 -0.007198 -0.007198 0.010235 0.000000 0.000000 0.000000
# 4 0.000000 0.000000 0.000000 0.041617 0.000000 0.000000
# 5 0.000000 0.000000 0.000000 0.000000 0.041618 0.000000
# 6 0.000000 0.000000 0.000000 0.000000 0.000000 0.045461
#
#
# Mechanical properties :
#
#
# Convention : Reuss Voigt Hill
#
# Bulk Modulus (GPa) = 15.35212 31.17889 23.26551
# Shear Modulus (GPa) = 22.27114 26.40086 24.33600
#
# Velocity S-wave (km/s) = 3.32000 3.61473 3.47049
# Velocity P-wave (km/s) = 4.72171 5.73173 5.25106
#
# Compressibility (1/GPa) = 0.06513758
#
# Stress axis : x y z
#
# Youngs Moduli (GPa) = 33.67981 33.67984 97.70241
#
# Poissons Ratio (x) = -0.40942 0.70328
# Poissons Ratio (y) = -0.40942 0.70328
# Poissons Ratio (z) = 0.24243 0.24244
#
# Static dielectric constant tensor:
#      x y z
#    x 3.534810 0.000000 0.000000 
#    y 0.000000 3.534800 0.000000 
#    z 0.000000 0.000000 4.211980 
# 
# 
# High freq. dielectric constant tensor:
#      x y z
#    x 1.772500 0.000000 0.000000 
#    y 0.000000 1.772500 0.000000 
#    z 0.000000 0.000000 1.809490 
# 
# From -- ./inp_files/7198.got.cif
#   From: 2010.03.12/outbox.cif.g09.slc.cpg/sg121_4_cif.got.tgz:7198.got - 2010.04.06 16:06:48.
