data_PCOD8311091
_publ_section_title
;
Structure prediction by ZEFSAII (Michael W. Deem and Ramdas Pophale) SiO2 
 PCOD8311091
Probable space group: I -4 M 2
;
_chemical_formula_sum "Si O2"
_cell_formula_units_Z 54
_cell_length_a 10.418658
_cell_length_b 10.418658
_cell_length_c 22.158271
_cell_angle_alpha 90.000000
_cell_angle_beta 90.000000
_cell_angle_gamma 90.000000
_cell_volume 2405.245629
_symmetry_space_group_name_H-M "I -4 M 2"
_symmetry_group_IT_number 119
_symmetry_cell_setting 'tetragonal'
loop_
_space_group_symop_operation_xyz
x,y,z
y,-x,-z
-x,-y,z
-y,x,-z
y,x,-z
-y,-x,-z
-x,y,z
x,-y,z
1/2+x,1/2+y,1/2+z
1/2+y,1/2-x,1/2-z
1/2-x,1/2-y,1/2+z
1/2-y,1/2+x,1/2-z
1/2+y,1/2+x,1/2-z
1/2-y,1/2-x,1/2-z
1/2-x,1/2+y,1/2+z
1/2+x,1/2-y,1/2+z
loop_
_atom_site_type_symbol
_atom_site_label
_atom_site_fract_x
_atom_site_fract_y
_atom_site_fract_z
Si Si1 0.216101 0.500000 0.846171
Si Si2 0.256370 0.723442 0.376690
Si Si3 0.500000 0.854082 0.814170
Si Si4 0.000000 0.500000 0.750000
Si Si5 0.145812 0.145812 0.000000
Si Si6 0.804250 0.000000 0.795502
Si Si7 0.000000 0.000000 0.307568
O O1 0.180410 0.633999 0.878954
O O2 0.134612 0.500000 0.785151
O O3 0.370062 0.500000 0.845032
O O4 0.256839 0.673837 0.445225
O O5 0.338271 0.624796 0.335048
O O6 0.117466 0.721483 0.345853
O O7 0.500000 0.839339 0.737507
O O8 0.500000 0.000000 0.838139
O O9 0.000000 0.166897 0.977447
O O10 0.877102 0.000000 0.733750
#
# Coordination Sequence:
#
# PCOD8311091 Si02
#       7
#     8  16   8   2   8   8   4
#     4  12  26  45  65 103 149 188 233 287 362 432
#     4  12  26  43  70 103 140 190 236 302 357 425
#     4  12  24  41  73 110 144 185 241 303 361 435
#     4  12  28  44  60 104 148 192 224 276 366 444
#     4  11  26  50  72  99 132 184 256 305 356 426
#     4  12  24  40  69 106 139 185 239 290 364 421
#     4  12  24  40  66  98 142 184 230 278 358 440
#
# _framework density 22.450931000000001
#
# number of rings (size 3 to 8) (size 9 to 14) (size 15 to 20)
#    0.000    0.148    5.926    2.667    6.222    1.185 
#    0.000    1.481    0.000    1.778    0.000    0.000 
#    0.000    0.000    0.000    0.000    0.000    0.000 
#
# Total GULP energy -334534.876054 kJ/mol
# GULP energy per Si atom -12390.180595 kJ/mol
# Density = 2.239983 g / cm^3
# Si number density = 22.450931 Si / 1000 Ang^3
#
#
#
# Elastic Constant Matrix: (Units=GPa)
#
#
# Indices 1 2 3 4 5 6 
#
# 1 124.5090 2.0753 29.3446 0.0000 0.0000 0.0000
# 2 2.0753 124.5090 29.3446 0.0000 0.0000 0.0000
# 3 29.3446 29.3446 135.8130 0.0000 0.0000 0.0000
# 4 0.0000 0.0000 0.0000 0.8011 0.0000 0.0000
# 5 0.0000 0.0000 0.0000 0.0000 0.8011 0.0000
# 6 0.0000 0.0000 0.0000 0.0000 0.0000 -15.3955
#
#
#
# Elastic Compliance Matrix: (Units=1/GPa)
#
#
# Indices 1 2 3 4 5 6 
#
# 1 0.008474 0.000306 -0.001897 0.000000 0.000000 0.000000
# 2 0.000306 0.008474 -0.001897 0.000000 0.000000 0.000000
# 3 -0.001897 -0.001897 0.008183 0.000000 0.000000 0.000000
# 4 0.000000 0.000000 0.000000 1.248310 0.000000 0.000000
# 5 0.000000 0.000000 0.000000 0.000000 1.248310 0.000000
# 6 0.000000 0.000000 0.000000 0.000000 0.000000 -0.064954
#
#
# Mechanical properties :
#
#
# Convention : Reuss Voigt Hill
#
# Bulk Modulus (GPa) = 55.08484 56.26221 55.67353
# Shear Modulus (GPa) = 2.02444 18.84577 10.43510
#
# Velocity S-wave (km/s) = 0.95062 2.90042 2.15825
# Velocity P-wave (km/s) = 5.07876 6.02752 5.57337
#
# Compressibility (1/GPa) = 0.01815382
#
# Stress axis : x y z
#
# Youngs Moduli (GPa) = 118.01471 118.01471 122.20773
#
# Poissons Ratio (x) = -0.03609 0.23182
# Poissons Ratio (y) = -0.03609 0.23182
# Poissons Ratio (z) = 0.22386 0.22386
#
# Static dielectric constant tensor:
#      x y z
#    x 5.943030 0.000000 0.000000 
#    y 0.000000 5.943030 0.000000 
#    z 0.000000 0.000000 3.655670 
# 
# 
# High freq. dielectric constant tensor:
#      x y z
#    x 1.901440 0.000000 0.000000 
#    y 0.000000 1.901440 0.000000 
#    z 0.000000 0.000000 1.854690 
# 
# From -- ./inp_files/7368.got.cif
#   From: 2010.03.12/outbox.cif.g09.slc.cpg/sg119_4_cif.got.tgz:7368.got - 2010.04.14 02:25:26.
