data_PCOD8311812
_publ_section_title
;
Structure prediction by ZEFSAII (Michael W. Deem and Ramdas Pophale) SiO2 
 PCOD8311812
Probable space group: I -4 2 D
;
_chemical_formula_sum "Si O2"
_cell_formula_units_Z 96
_cell_length_a 18.271027
_cell_length_b 18.271027
_cell_length_c 13.843524
_cell_angle_alpha 90.000000
_cell_angle_beta 90.000000
_cell_angle_gamma 90.000000
_cell_volume 4621.389537
_symmetry_space_group_name_H-M "I -4 2 D"
_symmetry_group_IT_number 122
_symmetry_cell_setting 'tetragonal'
loop_
_space_group_symop_operation_xyz
x,y,z
y,-x,-z
-x,-y,z
-y,x,-z
x,1/2-y,1/4-z
-x,1/2+y,1/4-z
-y,1/2-x,1/4+z
y,1/2+x,1/4+z
1/2+x,1/2+y,1/2+z
1/2+y,1/2-x,1/2-z
1/2-x,1/2-y,1/2+z
1/2-y,1/2+x,1/2-z
1/2+x,-y,3/4-z
1/2-x,y,3/4-z
1/2-y,-x,3/4+z
1/2+y,x,3/4+z
loop_
_atom_site_type_symbol
_atom_site_label
_atom_site_fract_x
_atom_site_fract_y
_atom_site_fract_z
Si Si1 0.826970 0.076307 0.552048
Si Si2 0.940014 0.662159 0.474403
Si Si3 0.691403 0.802785 0.450659
Si Si4 0.818451 0.861826 0.931378
Si Si5 0.362172 0.422557 0.106102
Si Si6 0.305658 0.413006 0.632786
O O1 0.748454 0.064360 0.498924
O O2 0.812558 0.110698 0.656763
O O3 0.870053 0.133550 0.485931
O O4 0.878258 0.004985 0.568842
O O5 0.888587 0.641274 0.385926
O O6 0.918869 0.608853 0.563639
O O7 0.023807 0.650771 0.440763
O O8 0.750000 0.837099 0.375000
O O9 0.709932 0.717720 0.466372
O O10 0.691812 0.839785 0.554639
O O11 0.750000 0.899305 0.875000
O O12 0.842840 0.904730 0.027895
O O13 0.279093 0.428473 0.143119
#
# Coordination Sequence:
#
# PCOD8311812 Si02
#       6
#    16  16  16  16  16  16
#     4  10  23  38  60  93 122 163 204 248 318 381
#     4  10  23  40  61  90 123 161 212 257 313 381
#     4  10  20  36  61  94 123 151 210 261 308 381
#     4  10  20  39  63  89 117 161 216 262 315 374
#     4  11  22  39  61  89 126 162 198 255 315 381
#     4  11  22  38  65  90 123 166 203 264 325 368
#
# _framework density 20.772974000000001
#
# number of rings (size 3 to 8) (size 9 to 14) (size 15 to 20)
#    0.000    1.667    3.333    1.000    2.333    1.667 
#    3.000    0.000    0.000    0.000    0.000    0.000 
#    0.000    0.000    0.000    0.000    0.000    0.000 
#
# Total GULP energy -594974.759144 kJ/mol
# GULP energy per Si atom -12395.307482 kJ/mol
# Density = 2.072569 g / cm^3
# Si number density = 20.772974 Si / 1000 Ang^3
#
#
#
# Elastic Constant Matrix: (Units=GPa)
#
#
# Indices 1 2 3 4 5 6 
#
# 1 58.4584 18.9466 21.3943 0.0000 0.0000 0.0000
# 2 18.9466 58.4584 21.3943 0.0000 0.0000 0.0000
# 3 21.3943 21.3943 95.2235 0.0000 0.0000 0.0000
# 4 0.0000 0.0000 0.0000 31.7133 0.0000 0.0000
# 5 0.0000 0.0000 0.0000 0.0000 31.7133 0.0000
# 6 0.0000 0.0000 0.0000 0.0000 0.0000 26.3339
#
#
#
# Elastic Compliance Matrix: (Units=1/GPa)
#
#
# Indices 1 2 3 4 5 6 
#
# 1 0.020030 -0.005279 -0.003314 0.000000 0.000000 0.000000
# 2 -0.005279 0.020030 -0.003314 0.000000 0.000000 0.000000
# 3 -0.003314 -0.003314 0.011991 0.000000 0.000000 0.000000
# 4 0.000000 0.000000 0.000000 0.031532 0.000000 0.000000
# 5 0.000000 0.000000 0.000000 0.000000 0.031532 0.000000
# 6 0.000000 0.000000 0.000000 0.000000 0.000000 0.037974
#
#
# Mechanical properties :
#
#
# Convention : Reuss Voigt Hill
#
# Bulk Modulus (GPa) = 35.41541 37.29005 36.35273
# Shear Modulus (GPa) = 26.83608 27.97913 27.40761
#
# Velocity S-wave (km/s) = 3.59817 3.67400 3.63628
# Velocity P-wave (km/s) = 5.86073 5.99899 5.93026
#
# Compressibility (1/GPa) = 0.02823629
#
# Stress axis : x y z
#
# Youngs Moduli (GPa) = 49.92508 49.92508 83.39696
#
# Poissons Ratio (x) = 0.26355 0.27639
# Poissons Ratio (y) = 0.26355 0.27639
# Poissons Ratio (z) = 0.16546 0.16546
#
# Static dielectric constant tensor:
#      x y z
#    x 3.670060 0.000000 0.000000 
#    y 0.000000 3.670060 0.000000 
#    z 0.000000 0.000000 3.613570 
# 
# 
# High freq. dielectric constant tensor:
#      x y z
#    x 1.797380 0.000000 0.000000 
#    y 0.000000 1.797380 0.000000 
#    z 0.000000 0.000000 1.813990 
# 
# From -- ./inp_files/4473.got.cif
#   From: 2010.03.12/outbox.cif.g09.slc.cpg/sg122_3_cif.got.tgz:4473.got - 2010.04.06 16:17:16.
