data_PCOD8311725
_publ_section_title
;
Structure prediction by ZEFSAII (Michael W. Deem and Ramdas Pophale) SiO2 
 PCOD8311725
Probable space group: I -4 2 D
;
_chemical_formula_sum "Si O2"
_cell_formula_units_Z 64
_cell_length_a 25.079642
_cell_length_b 25.079642
_cell_length_c 5.225563
_cell_angle_alpha 90.000000
_cell_angle_beta 90.000000
_cell_angle_gamma 90.000000
_cell_volume 3286.818734
_symmetry_space_group_name_H-M "I -4 2 D"
_symmetry_group_IT_number 122
_symmetry_cell_setting 'tetragonal'
loop_
_space_group_symop_operation_xyz
x,y,z
y,-x,-z
-x,-y,z
-y,x,-z
x,1/2-y,1/4-z
-x,1/2+y,1/4-z
-y,1/2-x,1/4+z
y,1/2+x,1/4+z
1/2+x,1/2+y,1/2+z
1/2+y,1/2-x,1/2-z
1/2-x,1/2-y,1/2+z
1/2-y,1/2+x,1/2-z
1/2+x,-y,3/4-z
1/2-x,y,3/4-z
1/2-y,-x,3/4+z
1/2+y,x,3/4+z
loop_
_atom_site_type_symbol
_atom_site_label
_atom_site_fract_x
_atom_site_fract_y
_atom_site_fract_z
Si Si1 0.196078 0.692135 0.542594
Si Si2 0.135000 0.181869 0.790923
Si Si3 0.093143 0.693885 0.263936
Si Si4 0.480913 0.215364 0.875433
O O1 0.219493 0.750000 0.625000
O O2 0.215880 0.670737 0.254843
O O3 0.131747 0.697774 0.511698
O O4 0.206304 0.647729 0.762056
O O5 0.072220 0.181176 0.836601
O O6 0.151745 0.119754 0.815745
O O7 0.032837 0.677073 0.341345
O O8 0.089424 0.750000 0.125000
O O9 0.471115 0.250000 0.625000
O O10 0.492481 0.250000 0.125000
#
# Coordination Sequence:
#
# PCOD8311725 Si02
#       4
#    16  16  16  16
#     4  10  16  32  53  78  97 138 183 219 249 316
#     4  10  20  32  54  79 111 137 176 225 273 314
#     4   9  19  33  59  78 103 140 188 218 258 322
#     4  11  23  36  54  84 114 139 173 232 280 312
#
# _framework density 19.471716000000001
#
# number of rings (size 3 to 8) (size 9 to 14) (size 15 to 20)
#    1.500    0.500    2.500    3.000    3.500    0.000 
#    0.000    0.000    0.000   26.250    0.000    0.000 
#    0.000    0.000    0.000    0.000    0.000    0.000 
#
# Total GULP energy -396509.597726 kJ/mol
# GULP energy per Si atom -12390.924929 kJ/mol
# Density = 1.942740 g / cm^3
# Si number density = 19.471716 Si / 1000 Ang^3
#
#
#
# Elastic Constant Matrix: (Units=GPa)
#
#
# Indices 1 2 3 4 5 6 
#
# 1 101.8787 26.6634 49.1303 0.0000 0.0000 0.0000
# 2 26.6634 101.8787 49.1303 0.0000 0.0000 0.0000
# 3 49.1303 49.1303 141.3952 0.0000 0.0000 0.0000
# 4 0.0000 0.0000 0.0000 29.0418 0.0000 0.0000
# 5 0.0000 0.0000 0.0000 0.0000 29.0418 0.0000
# 6 0.0000 0.0000 0.0000 0.0000 0.0000 10.1836
#
#
#
# Elastic Compliance Matrix: (Units=1/GPa)
#
#
# Indices 1 2 3 4 5 6 
#
# 1 0.011944 -0.001351 -0.003681 0.000000 0.000000 0.000000
# 2 -0.001351 0.011944 -0.003681 0.000000 0.000000 0.000000
# 3 -0.003681 -0.003681 0.009630 0.000000 0.000000 0.000000
# 4 0.000000 0.000000 0.000000 0.034433 0.000000 0.000000
# 5 0.000000 0.000000 0.000000 0.000000 0.034433 0.000000
# 6 0.000000 0.000000 0.000000 0.000000 0.000000 0.098197
#
#
# Mechanical properties :
#
#
# Convention : Reuss Voigt Hill
#
# Bulk Modulus (GPa) = 62.13666 66.11115 64.12391
# Shear Modulus (GPa) = 22.38417 28.33534 25.35976
#
# Velocity S-wave (km/s) = 3.39421 3.81885 3.61278
# Velocity P-wave (km/s) = 6.88051 7.31238 7.09973
#
# Compressibility (1/GPa) = 0.01609356
#
# Stress axis : x y z
#
# Youngs Moduli (GPa) = 83.72256 83.72256 103.83891
#
# Poissons Ratio (x) = 0.11311 0.38221
# Poissons Ratio (y) = 0.11311 0.38221
# Poissons Ratio (z) = 0.30817 0.30817
#
# Static dielectric constant tensor:
#      x y z
#    x 3.700780 0.000000 0.000000 
#    y 0.000000 3.700780 0.000000 
#    z 0.000000 0.000000 3.779150 
# 
# 
# High freq. dielectric constant tensor:
#      x y z
#    x 1.738230 0.000000 0.000000 
#    y 0.000000 1.738230 0.000000 
#    z 0.000000 0.000000 1.784900 
# 
# From -- ./inp_files/1185.got.cif
#   From: 2010.03.12/outbox.cif.g09.slc.cpg/sg122_1_cif.got.tgz:1185.got - 2010.04.06 16:17:16.
