data_PCOD8311762
_publ_section_title
;
Structure prediction by ZEFSAII (Michael W. Deem and Ramdas Pophale) SiO2 
 PCOD8311762
Probable space group: I -4 2 D
;
_chemical_formula_sum "Si O2"
_cell_formula_units_Z 96
_cell_length_a 32.479963
_cell_length_b 32.479963
_cell_length_c 5.022476
_cell_angle_alpha 90.000000
_cell_angle_beta 90.000000
_cell_angle_gamma 90.000000
_cell_volume 5298.450994
_symmetry_space_group_name_H-M "I -4 2 D"
_symmetry_group_IT_number 122
_symmetry_cell_setting 'tetragonal'
loop_
_space_group_symop_operation_xyz
x,y,z
y,-x,-z
-x,-y,z
-y,x,-z
x,1/2-y,1/4-z
-x,1/2+y,1/4-z
-y,1/2-x,1/4+z
y,1/2+x,1/4+z
1/2+x,1/2+y,1/2+z
1/2+y,1/2-x,1/2-z
1/2-x,1/2-y,1/2+z
1/2-y,1/2+x,1/2-z
1/2+x,-y,3/4-z
1/2-x,y,3/4-z
1/2-y,-x,3/4+z
1/2+y,x,3/4+z
loop_
_atom_site_type_symbol
_atom_site_label
_atom_site_fract_x
_atom_site_fract_y
_atom_site_fract_z
Si Si1 0.750000 0.881277 0.875000
Si Si2 0.325555 0.750000 0.125000
Si Si3 0.667623 0.777583 0.370544
Si Si4 0.590498 0.538425 0.307059
Si Si5 0.860504 0.371817 0.594102
Si Si6 0.596826 0.161994 0.591578
Si Si7 0.443898 0.418570 0.809521
O O1 0.737472 0.853017 0.626597
O O2 0.789102 0.910157 0.803413
O O3 0.298385 0.789134 0.207913
O O4 0.675247 0.750000 0.625000
O O5 0.632674 0.811491 0.444109
O O6 0.651983 0.750000 0.125000
O O7 0.637468 0.554601 0.283773
O O8 0.573247 0.548526 0.598189
O O9 0.592311 0.490338 0.256342
O O10 0.560291 0.560416 0.097079
O O11 0.886624 0.344824 0.388059
O O12 0.875336 0.419015 0.558025
O O13 0.868866 0.354554 0.888604
#
# Coordination Sequence:
#
# PCOD8311762 Si02
#       7
#     8   8  16  16  16  16  16
#     4  12  18  33  56  74 100 140 182 232 262 304
#     4  12  22  33  50  78 108 134 174 234 276 302
#     4  12  22  34  50  75 106 142 180 219 269 321
#     4  10  21  35  56  86 109 143 171 214 269 326
#     4  10  20  37  52  74 104 144 176 211 260 323
#     4  10  19  34  54  76 102 136 182 214 265 310
#     4  10  21  36  58  82 113 139 174 217 267 324
#
# _framework density 18.118501999999999
#
# number of rings (size 3 to 8) (size 9 to 14) (size 15 to 20)
#    0.000    1.333    3.333    3.500    0.000    2.000 
#    0.000    0.000    1.833    0.000    2.167    0.000 
#    0.000    0.000    0.000    0.000    0.000    0.000 
#
# Total GULP energy -595255.516936 kJ/mol
# GULP energy per Si atom -12401.156603 kJ/mol
# Density = 1.807726 g / cm^3
# Si number density = 18.118502 Si / 1000 Ang^3
#
#
#
# Elastic Constant Matrix: (Units=GPa)
#
#
# Indices 1 2 3 4 5 6 
#
# 1 111.0971 61.6472 13.8505 0.0000 0.0000 0.0000
# 2 61.6472 111.0971 13.8505 0.0000 0.0000 0.0000
# 3 13.8505 13.8505 73.4296 0.0000 0.0000 0.0000
# 4 0.0000 0.0000 0.0000 13.9723 0.0000 0.0000
# 5 0.0000 0.0000 0.0000 0.0000 13.9723 0.0000
# 6 0.0000 0.0000 0.0000 0.0000 0.0000 -68.0116
#
#
#
# Elastic Compliance Matrix: (Units=1/GPa)
#
#
# Indices 1 2 3 4 5 6 
#
# 1 0.013096 -0.007127 -0.001126 0.000000 0.000000 0.000000
# 2 -0.007127 0.013096 -0.001126 0.000000 0.000000 0.000000
# 3 -0.001126 -0.001126 0.014043 0.000000 0.000000 0.000000
# 4 0.000000 0.000000 0.000000 0.071570 0.000000 0.000000
# 5 0.000000 0.000000 0.000000 0.000000 0.071570 0.000000
# 6 0.000000 0.000000 0.000000 0.000000 0.000000 -0.014703
#
#
# Mechanical properties :
#
#
# Convention : Reuss Voigt Hill
#
# Bulk Modulus (GPa) = 46.55866 52.70224 49.63045
# Shear Modulus (GPa) = 25.69518 5.73829 15.71674
#
# Velocity S-wave (km/s) = 3.76995 1.78156 2.94843
# Velocity P-wave (km/s) = 6.68600 5.77777 6.24841
#
# Compressibility (1/GPa) = 0.02147828
#
# Stress axis : x y z
#
# Youngs Moduli (GPa) = 76.35940 76.35940 71.20856
#
# Poissons Ratio (x) = 0.54418 0.08018
# Poissons Ratio (y) = 0.54418 0.08018
# Poissons Ratio (z) = 0.08598 0.08598
#
# Static dielectric constant tensor:
#      x y z
#    x 3.396130 0.000000 0.000000 
#    y 0.000000 3.396130 0.000000 
#    z 0.000000 0.000000 4.376040 
# 
# 
# High freq. dielectric constant tensor:
#      x y z
#    x 1.684700 0.000000 0.000000 
#    y 0.000000 1.684700 0.000000 
#    z 0.000000 0.000000 1.726370 
# 
# From -- ./inp_files/1465.got.cif
#   From: 2010.03.12/outbox.cif.g09.slc.cpg/sg122_1_cif.got.tgz:1465.got - 2010.04.06 16:17:16.
