data_PCOD8311749
_publ_section_title
;
Structure prediction by ZEFSAII (Michael W. Deem and Ramdas Pophale) SiO2 
 PCOD8311749
Probable space group: I -4 2 D
;
_chemical_formula_sum "Si O2"
_cell_formula_units_Z 80
_cell_length_a 22.055724
_cell_length_b 22.055724
_cell_length_c 8.546738
_cell_angle_alpha 90.000000
_cell_angle_beta 90.000000
_cell_angle_gamma 90.000000
_cell_volume 4157.603102
_symmetry_space_group_name_H-M "I -4 2 D"
_symmetry_group_IT_number 122
_symmetry_cell_setting 'tetragonal'
loop_
_space_group_symop_operation_xyz
x,y,z
y,-x,-z
-x,-y,z
-y,x,-z
x,1/2-y,1/4-z
-x,1/2+y,1/4-z
-y,1/2-x,1/4+z
y,1/2+x,1/4+z
1/2+x,1/2+y,1/2+z
1/2+y,1/2-x,1/2-z
1/2-x,1/2-y,1/2+z
1/2-y,1/2+x,1/2-z
1/2+x,-y,3/4-z
1/2-x,y,3/4-z
1/2-y,-x,3/4+z
1/2+y,x,3/4+z
loop_
_atom_site_type_symbol
_atom_site_label
_atom_site_fract_x
_atom_site_fract_y
_atom_site_fract_z
Si Si1 0.189344 0.032612 0.780618
Si Si2 0.140157 0.594095 0.526219
Si Si3 0.299126 0.119619 0.255823
Si Si4 0.546215 0.084350 0.767937
Si Si5 0.337679 0.250000 0.625000
Si Si6 0.250000 0.234099 0.375000
O O1 0.250000 0.015109 0.875000
O O2 0.203266 0.085589 0.658060
O O3 0.139796 0.057300 0.901276
O O4 0.162897 0.974143 0.687047
O O5 0.123478 0.631743 0.681014
O O6 0.077835 0.595826 0.432224
O O7 0.191878 0.623862 0.419921
O O8 0.250000 0.088038 0.375000
O O9 0.278284 0.189910 0.238560
O O10 0.475629 0.075259 0.809453
O O11 0.299488 0.272327 0.471118
#
# Coordination Sequence:
#
# PCOD8311749 Si02
#       6
#    16  16  16  16   8   8
#     4  11  21  34  61  86 107 152 195 237 294 340
#     4  10  20  37  57  80 118 141 188 250 285 339
#     4   9  20  37  52  77 113 148 182 228 285 349
#     4   9  20  37  56  82 110 146 191 234 281 345
#     4  10  18  36  52  80 110 148 182 236 282 336
#     4   8  20  34  56  70 110 148 180 222 276 348
#
# _framework density 19.241854
#
# number of rings (size 3 to 8) (size 9 to 14) (size 15 to 20)
#    0.600    1.800    1.000    1.200    0.000    3.200 
#    0.000    0.000    8.800    0.000    0.000    0.000 
#    0.000    0.000    0.000    0.000    0.000    0.000 
#
# Total GULP energy -495611.487963 kJ/mol
# GULP energy per Si atom -12390.287199 kJ/mol
# Density = 1.919806 g / cm^3
# Si number density = 19.241854 Si / 1000 Ang^3
#
#
#
# Elastic Constant Matrix: (Units=GPa)
#
#
# Indices 1 2 3 4 5 6 
#
# 1 68.8766 11.1106 23.2161 0.0000 0.0000 0.0000
# 2 11.1106 68.8766 23.2161 0.0000 0.0000 0.0000
# 3 23.2161 23.2161 45.9403 0.0000 0.0000 0.0000
# 4 0.0000 0.0000 0.0000 28.5132 0.0000 0.0000
# 5 0.0000 0.0000 0.0000 0.0000 28.5132 0.0000
# 6 0.0000 0.0000 0.0000 0.0000 0.0000 19.0400
#
#
#
# Elastic Compliance Matrix: (Units=1/GPa)
#
#
# Indices 1 2 3 4 5 6 
#
# 1 0.017502 0.000190 -0.008941 0.000000 0.000000 0.000000
# 2 0.000190 0.017502 -0.008941 0.000000 0.000000 0.000000
# 3 -0.008941 -0.008941 0.030804 0.000000 0.000000 0.000000
# 4 0.000000 0.000000 0.000000 0.035071 0.000000 0.000000
# 5 0.000000 0.000000 0.000000 0.000000 0.035071 0.000000
# 6 0.000000 0.000000 0.000000 0.000000 0.000000 0.052521
#
#
# Mechanical properties :
#
#
# Convention : Reuss Voigt Hill
#
# Bulk Modulus (GPa) = 32.86772 33.19769 33.03271
# Shear Modulus (GPa) = 21.36797 23.62332 22.49565
#
# Velocity S-wave (km/s) = 3.33602 3.50766 3.42292
# Velocity P-wave (km/s) = 5.65307 5.80476 5.72942
#
# Compressibility (1/GPa) = 0.03042498
#
# Stress axis : x y z
#
# Youngs Moduli (GPa) = 57.13748 57.13748 32.46341
#
# Poissons Ratio (x) = -0.01088 0.29025
# Poissons Ratio (y) = -0.01088 0.29025
# Poissons Ratio (z) = 0.51085 0.51085
#
# Static dielectric constant tensor:
#      x y z
#    x 3.646820 0.000000 0.000000 
#    y 0.000000 3.646820 0.000000 
#    z 0.000000 0.000000 3.156770 
# 
# 
# High freq. dielectric constant tensor:
#      x y z
#    x 1.754100 0.000000 0.000000 
#    y 0.000000 1.754100 0.000000 
#    z 0.000000 0.000000 1.720470 
# 
# From -- ./inp_files/2844.got.cif
#   From: 2010.03.12/outbox.cif.g09.slc.cpg/sg122_2_cif.got.tgz:2844.got - 2010.04.06 16:17:16.
