data_PCOD8311181
_publ_section_title
;
Structure prediction by ZEFSAII (Michael W. Deem and Ramdas Pophale) SiO2 
 PCOD8311181
Probable space group: I -4 C 2
;
_chemical_formula_sum "Si O2"
_cell_formula_units_Z 104
_cell_length_a 17.779146
_cell_length_b 17.779146
_cell_length_c 16.946568
_cell_angle_alpha 90.000000
_cell_angle_beta 90.000000
_cell_angle_gamma 90.000000
_cell_volume 5356.776802
_symmetry_space_group_name_H-M "I -4 C 2"
_symmetry_group_IT_number 120
_symmetry_cell_setting 'tetragonal'
loop_
_space_group_symop_operation_xyz
x,y,z
y,-x,-z
-x,-y,z
-y,x,-z
y,x,1/2-z
-y,-x,1/2-z
-x,y,1/2+z
x,-y,1/2+z
1/2+x,1/2+y,1/2+z
1/2+y,1/2-x,1/2-z
1/2-x,1/2-y,1/2+z
1/2-y,1/2+x,1/2-z
1/2+y,1/2+x,-z
1/2-y,1/2-x,-z
1/2-x,1/2+y,z
1/2+x,1/2-y,z
loop_
_atom_site_type_symbol
_atom_site_label
_atom_site_fract_x
_atom_site_fract_y
_atom_site_fract_z
Si Si1 0.918166 0.798707 0.231497
Si Si2 0.407286 0.286353 0.258523
Si Si3 0.874062 0.734359 0.929184
Si Si4 0.846171 0.327649 0.839922
Si Si5 0.425824 0.042236 0.908910
Si Si6 0.775735 0.724266 0.500000
Si Si7 0.202188 0.575314 0.415357
O O1 0.878892 0.878892 0.250000
O O2 0.875761 0.737465 0.284273
O O3 0.910710 0.773315 0.140970
O O4 0.006505 0.803735 0.243193
O O5 0.364064 0.364064 0.250000
O O6 0.406492 0.264558 0.349305
O O7 0.369263 0.224744 0.200940
O O8 0.808567 0.786732 0.966424
O O9 0.846296 0.650496 0.913396
O O10 0.939710 0.732160 0.995531
O O11 0.914829 0.385358 0.853573
O O12 0.828757 0.293300 0.925870
O O13 0.500000 0.000000 0.878406
O O14 0.351266 0.993414 0.892102
O O15 0.435214 0.064787 0.000000
#
# Coordination Sequence:
#
# PCOD8311181 Si02
#       7
#    16  16  16  16  16   8  16
#     4  12  26  44  65  94 130 172 222 281 331 393
#     4  12  25  43  67  96 128 167 223 277 328 393
#     4  10  20  37  67  90 126 170 213 267 320 376
#     4  12  23  40  67  95 130 169 218 262 326 395
#     4  11  23  38  59  96 142 168 200 257 325 410
#     4  10  20  38  65  96 123 164 222 274 304 400
#     4  10  21  39  61  93 132 172 212 254 321 398
#
# _framework density 19.414660000000001
#
# number of rings (size 3 to 8) (size 9 to 14) (size 15 to 20)
#    0.000    1.077    5.385    4.154    4.308    0.308 
#    0.000    0.000    0.000    0.000    0.000    2.154 
#    0.000    0.000    0.000    0.000    0.000    0.000 
#
# Total GULP energy -644472.835878 kJ/mol
# GULP energy per Si atom -12393.708382 kJ/mol
# Density = 1.937047 g / cm^3
# Si number density = 19.414660 Si / 1000 Ang^3
#
#
#
# Elastic Constant Matrix: (Units=GPa)
#
#
# Indices 1 2 3 4 5 6 
#
# 1 76.5760 31.6081 22.5701 0.0000 0.0000 0.0000
# 2 31.6081 76.5767 22.5698 0.0000 0.0000 0.0000
# 3 22.5701 22.5698 111.8260 0.0000 0.0000 0.0000
# 4 0.0000 0.0000 0.0000 20.6791 0.0000 0.0000
# 5 0.0000 0.0000 0.0000 0.0000 20.6793 0.0000
# 6 0.0000 0.0000 0.0000 0.0000 0.0000 39.8516
#
#
#
# Elastic Compliance Matrix: (Units=1/GPa)
#
#
# Indices 1 2 3 4 5 6 
#
# 1 0.016166 -0.006072 -0.002037 0.000000 0.000000 0.000000
# 2 -0.006072 0.016166 -0.002037 0.000000 0.000000 0.000000
# 3 -0.002037 -0.002037 0.009765 0.000000 0.000000 0.000000
# 4 0.000000 0.000000 0.000000 0.048358 0.000000 0.000000
# 5 0.000000 0.000000 0.000000 0.000000 0.048357 0.000000
# 6 0.000000 0.000000 0.000000 0.000000 0.000000 0.025093
#
#
# Mechanical properties :
#
#
# Convention : Reuss Voigt Hill
#
# Bulk Modulus (GPa) = 45.86511 46.49716 46.18114
# Shear Modulus (GPa) = 26.11437 28.79073 27.45255
#
# Velocity S-wave (km/s) = 3.67152 3.85507 3.76441
# Velocity P-wave (km/s) = 6.45358 6.61944 6.53703
#
# Compressibility (1/GPa) = 0.02180306
#
# Stress axis : x y z
#
# Youngs Moduli (GPa) = 61.85901 61.85973 102.40870
#
# Poissons Ratio (x) = 0.37563 0.20863
# Poissons Ratio (y) = 0.37562 0.20862
# Poissons Ratio (z) = 0.12602 0.12602
#
# Static dielectric constant tensor:
#      x y z
#    x 3.568370 0.000000 0.000000 
#    y 0.000000 3.568370 0.000000 
#    z 0.000000 0.000000 3.940740 
# 
# 
# High freq. dielectric constant tensor:
#      x y z
#    x 1.744420 0.000000 0.000000 
#    y 0.000000 1.744420 0.000000 
#    z 0.000000 0.000000 1.776590 
# 
# From -- ./inp_files/4517.got.cif
#   From: 2010.03.12/outbox.cif.g09.slc.cpg/sg120_3_cif.got.tgz:4517.got - 2010.04.06 16:00:44.
