data_PCOD8311070
_publ_section_title
;
Structure prediction by ZEFSAII (Michael W. Deem and Ramdas Pophale) SiO2 
 PCOD8311070
Probable space group: I -4 M 2
;
_chemical_formula_sum "Si O2"
_cell_formula_units_Z 68
_cell_length_a 12.023517
_cell_length_b 12.023517
_cell_length_c 24.067813
_cell_angle_alpha 90.000000
_cell_angle_beta 90.000000
_cell_angle_gamma 90.000000
_cell_volume 3479.362449
_symmetry_space_group_name_H-M "I -4 M 2"
_symmetry_group_IT_number 119
_symmetry_cell_setting 'tetragonal'
loop_
_space_group_symop_operation_xyz
x,y,z
y,-x,-z
-x,-y,z
-y,x,-z
y,x,-z
-y,-x,-z
-x,y,z
x,-y,z
1/2+x,1/2+y,1/2+z
1/2+y,1/2-x,1/2-z
1/2-x,1/2-y,1/2+z
1/2-y,1/2+x,1/2-z
1/2+y,1/2+x,1/2-z
1/2-y,1/2-x,1/2-z
1/2-x,1/2+y,1/2+z
1/2+x,1/2-y,1/2+z
loop_
_atom_site_type_symbol
_atom_site_label
_atom_site_fract_x
_atom_site_fract_y
_atom_site_fract_z
Si Si1 0.623495 0.381034 0.642053
Si Si2 0.000000 0.000000 0.429401
Si Si3 0.776659 0.372818 0.538549
Si Si4 0.843420 0.621868 0.313232
Si Si5 0.000000 0.237322 0.387275
Si Si6 0.000000 0.246644 0.518204
O O1 0.500000 0.368090 0.614192
O O2 0.631502 0.500000 0.672566
O O3 0.721633 0.372377 0.598318
O O4 0.641615 0.288353 0.688669
O O5 0.113854 0.000000 0.467792
O O6 0.000000 0.896436 0.386918
O O7 0.689802 0.310199 0.500000
O O8 0.797517 0.500000 0.518011
O O9 0.891307 0.304751 0.543361
O O10 0.874017 0.500000 0.338081
O O11 0.880678 0.619323 0.250000
O O12 0.894486 0.714321 0.354038
O O13 0.000000 0.270419 0.452095
#
# Coordination Sequence:
#
# PCOD8311070 Si02
#       6
#    16   4  16  16   8   8
#     4   9  19  36  58  82 113 151 192 246 309 361
#     4  12  25  44  64  92 132 172 212 268 317 394
#     4  11  22  36  58  88 124 161 208 255 313 381
#     4  11  22  39  59  84 117 153 199 256 314 370
#     4  12  24  38  61  87 120 162 206 249 319 369
#     4  12  24  40  61  91 132 170 214 259 315 393
#
# _framework density 19.543811000000002
#
# number of rings (size 3 to 8) (size 9 to 14) (size 15 to 20)
#    0.000    1.176    1.176    6.706    0.000    4.941 
#    2.118    0.000    0.000    0.000    0.000    0.000 
#    0.000    0.000    0.000    0.000    0.000    0.000 
#
# Total GULP energy -421233.194314 kJ/mol
# GULP energy per Si atom -12389.211597 kJ/mol
# Density = 1.949933 g / cm^3
# Si number density = 19.543811 Si / 1000 Ang^3
#
#
#
# Elastic Constant Matrix: (Units=GPa)
#
#
# Indices 1 2 3 4 5 6 
#
# 1 162.8485 66.7872 40.3785 0.0000 0.0000 0.0000
# 2 66.7872 162.8480 40.3797 0.0000 0.0000 0.0000
# 3 40.3785 40.3797 65.0552 0.0000 0.0000 0.0000
# 4 0.0000 0.0000 0.0000 26.5019 0.0000 0.0000
# 5 0.0000 0.0000 0.0000 0.0000 26.5016 0.0000
# 6 0.0000 0.0000 0.0000 0.0000 0.0000 33.0053
#
#
#
# Elastic Compliance Matrix: (Units=1/GPa)
#
#
# Indices 1 2 3 4 5 6 
#
# 1 0.007990 -0.002420 -0.003458 0.000000 0.000000 0.000000
# 2 -0.002420 0.007990 -0.003458 0.000000 0.000000 0.000000
# 3 -0.003458 -0.003458 0.019664 0.000000 0.000000 0.000000
# 4 0.000000 0.000000 0.000000 0.037733 0.000000 0.000000
# 5 0.000000 0.000000 0.000000 0.000000 0.037734 0.000000
# 6 0.000000 0.000000 0.000000 0.000000 0.000000 0.030298
#
#
# Mechanical properties :
#
#
# Convention : Reuss Voigt Hill
#
# Bulk Modulus (GPa) = 58.91175 76.20473 67.55824
# Shear Modulus (GPa) = 30.16814 33.41552 31.79183
#
# Velocity S-wave (km/s) = 3.93315 4.13943 4.03761
# Velocity P-wave (km/s) = 7.12987 7.86911 7.50859
#
# Compressibility (1/GPa) = 0.01697454
#
# Stress axis : x y z
#
# Youngs Moduli (GPa) = 125.15122 125.14941 50.85469
#
# Poissons Ratio (x) = 0.30282 0.17583
# Poissons Ratio (y) = 0.30282 0.17585
# Poissons Ratio (z) = 0.43272 0.43275
#
# Static dielectric constant tensor:
#      x y z
#    x 3.996030 0.000000 0.000000 
#    y 0.000000 3.996030 0.000000 
#    z 0.000000 0.000000 3.188610 
# 
# 
# High freq. dielectric constant tensor:
#      x y z
#    x 1.781510 0.000000 0.000000 
#    y 0.000000 1.781510 0.000000 
#    z 0.000000 0.000000 1.723050 
# 
# From -- ./inp_files/9381.got.cif
#   From: 2010.03.12/outbox.cif.g09.slc.cpg/sg119_5_cif.got.tgz:9381.got - 2010.04.14 02:25:26.
