data_PCOD8311597
_publ_section_title
;
Structure prediction by ZEFSAII (Michael W. Deem and Ramdas Pophale) SiO2 
 PCOD8311597
Probable space group: I -4 2 M
;
_chemical_formula_sum "Si O2"
_cell_formula_units_Z 80
_cell_length_a 18.213600
_cell_length_b 18.213600
_cell_length_c 13.793136
_cell_angle_alpha 90.000000
_cell_angle_beta 90.000000
_cell_angle_gamma 90.000000
_cell_volume 4575.669074
_symmetry_space_group_name_H-M "I -4 2 M"
_symmetry_group_IT_number 121
_symmetry_cell_setting 'tetragonal'
loop_
_space_group_symop_operation_xyz
x,y,z
y,-x,-z
-x,-y,z
-y,x,-z
x,-y,-z
-x,y,-z
-y,-x,z
y,x,z
1/2+x,1/2+y,1/2+z
1/2+y,1/2-x,1/2-z
1/2-x,1/2-y,1/2+z
1/2-y,1/2+x,1/2-z
1/2+x,1/2-y,1/2-z
1/2-x,1/2+y,1/2-z
1/2-y,1/2-x,1/2+z
1/2+y,1/2+x,1/2+z
loop_
_atom_site_type_symbol
_atom_site_label
_atom_site_fract_x
_atom_site_fract_y
_atom_site_fract_z
Si Si1 0.207347 0.581291 0.015065
Si Si2 0.499888 0.821601 0.729077
Si Si3 0.745790 0.859793 0.275078
Si Si4 0.751101 0.865082 0.685590
Si Si5 0.444897 0.065303 0.890388
O O1 0.238382 0.616345 0.113264
O O2 0.118125 0.572088 0.018120
O O3 0.242550 0.500000 0.000000
O O4 0.226747 0.635152 0.926893
O O5 0.572114 0.773662 0.704060
O O6 0.445726 0.759609 0.771230
O O7 0.518919 0.884369 0.807605
O O8 0.467539 0.865289 0.638271
O O9 0.827853 0.827853 0.256904
O O10 0.687473 0.797681 0.251369
O O11 0.835298 0.835298 0.691306
O O12 0.500000 0.000000 0.918323
#
# Coordination Sequence:
#
# PCOD8311597 Si02
#       5
#    16  16  16  16  16
#     4  11  21  33  52  80 109 143 186 215 272 324
#     4  11  17  34  53  76 105 140 179 219 273 325
#     4  10  21  36  55  74 107 147 185 225 271 323
#     4  11  21  36  53  76 108 149 185 223 267 328
#     4  11  18  30  52  78 113 141 173 219 275 335
#
# _framework density 17.483782000000001
#
# number of rings (size 3 to 8) (size 9 to 14) (size 15 to 20)
#    0.000    1.200   10.000    0.600    0.000    0.400 
#    0.000    0.000    0.000    0.600    0.000    1.400 
#    0.000    0.000    0.000    0.600    0.000    0.000 
#
# Total GULP energy -495630.022915 kJ/mol
# GULP energy per Si atom -12390.750573 kJ/mol
# Density = 1.744399 g / cm^3
# Si number density = 17.483782 Si / 1000 Ang^3
#
#
#
# Elastic Constant Matrix: (Units=GPa)
#
#
# Indices 1 2 3 4 5 6 
#
# 1 84.9617 60.9596 9.8245 0.0000 0.0000 0.0000
# 2 60.9596 84.9617 9.8245 0.0000 0.0000 0.0000
# 3 9.8245 9.8245 41.0738 0.0000 0.0000 0.0000
# 4 0.0000 0.0000 0.0000 18.5528 0.0000 0.0000
# 5 0.0000 0.0000 0.0000 0.0000 18.5528 0.0000
# 6 0.0000 0.0000 0.0000 0.0000 0.0000 50.3963
#
#
#
# Elastic Compliance Matrix: (Units=1/GPa)
#
#
# Indices 1 2 3 4 5 6 
#
# 1 0.024372 -0.017291 -0.001694 0.000000 0.000000 0.000000
# 2 -0.017291 0.024372 -0.001694 0.000000 0.000000 0.000000
# 3 -0.001694 -0.001694 0.025157 0.000000 0.000000 0.000000
# 4 0.000000 0.000000 0.000000 0.053900 0.000000 0.000000
# 5 0.000000 0.000000 0.000000 0.000000 0.053900 0.000000
# 6 0.000000 0.000000 0.000000 0.000000 0.000000 0.019843
#
#
# Mechanical properties :
#
#
# Convention : Reuss Voigt Hill
#
# Bulk Modulus (GPa) = 30.72773 41.35716 36.04244
# Shear Modulus (GPa) = 19.70454 26.19297 22.94875
#
# Velocity S-wave (km/s) = 3.36075 3.87477 3.62688
# Velocity P-wave (km/s) = 5.71600 6.61244 6.18049
#
# Compressibility (1/GPa) = 0.03254390
#
# Stress axis : x y z
#
# Youngs Moduli (GPa) = 41.03062 41.03062 39.75092
#
# Poissons Ratio (x) = 0.70946 0.06733
# Poissons Ratio (y) = 0.70946 0.06733
# Poissons Ratio (z) = 0.06949 0.06949
#
# Static dielectric constant tensor:
#      x y z
#    x 3.564390 0.000000 0.000000 
#    y 0.000000 3.564390 0.000000 
#    z 0.000000 0.000000 3.259130 
# 
# 
# High freq. dielectric constant tensor:
#      x y z
#    x 1.660770 0.000000 0.000000 
#    y 0.000000 1.660770 0.000000 
#    z 0.000000 0.000000 1.669150 
# 
# From -- ./inp_files/4230.got.cif
#   From: 2010.03.12/outbox.cif.g09.slc.cpg/sg121_3_cif.got.tgz:4230.got - 2010.04.06 16:06:48.
