data_PCOD8311507
_publ_section_title
;
Structure prediction by ZEFSAII (Michael W. Deem and Ramdas Pophale) SiO2 
 PCOD8311507
Probable space group: I -4 2 M
;
_chemical_formula_sum "Si O2"
_cell_formula_units_Z 96
_cell_length_a 16.333149
_cell_length_b 16.333149
_cell_length_c 17.918091
_cell_angle_alpha 90.000000
_cell_angle_beta 90.000000
_cell_angle_gamma 90.000000
_cell_volume 4780.040605
_symmetry_space_group_name_H-M "I -4 2 M"
_symmetry_group_IT_number 121
_symmetry_cell_setting 'tetragonal'
loop_
_space_group_symop_operation_xyz
x,y,z
y,-x,-z
-x,-y,z
-y,x,-z
x,-y,-z
-x,y,-z
-y,-x,z
y,x,z
1/2+x,1/2+y,1/2+z
1/2+y,1/2-x,1/2-z
1/2-x,1/2-y,1/2+z
1/2-y,1/2+x,1/2-z
1/2+x,1/2-y,1/2-z
1/2-x,1/2+y,1/2-z
1/2-y,1/2-x,1/2+z
1/2+y,1/2+x,1/2+z
loop_
_atom_site_type_symbol
_atom_site_label
_atom_site_fract_x
_atom_site_fract_y
_atom_site_fract_z
Si Si1 0.384366 0.750271 0.206091
Si Si2 0.930660 0.615111 0.055058
Si Si3 0.476596 0.721992 0.579092
Si Si4 0.592585 0.923804 0.216436
Si Si5 0.368576 0.504790 0.730662
Si Si6 0.313107 0.817234 0.556288
O O1 0.311012 0.688989 0.226046
O O2 0.374322 0.825352 0.263905
O O3 0.473159 0.705572 0.216383
O O4 0.377318 0.784268 0.122455
O O5 0.913904 0.563293 0.129971
O O6 0.961158 0.702247 0.086393
O O7 0.845740 0.624791 0.010135
O O8 0.000000 0.576392 0.000000
O O9 0.500000 0.678593 0.500000
O O10 0.489745 0.658989 0.645071
O O11 0.384012 0.755336 0.582763
O O12 0.519579 0.890433 0.267588
O O13 0.406810 0.593191 0.756072
O O14 0.439465 0.439465 0.734836
O O15 0.236063 0.763938 0.528095
#
# Coordination Sequence:
#
# PCOD8311507 Si02
#       6
#    16  16  16  16  16  16
#     4  10  21  37  55  80 115 157 203 246 293 346
#     4   9  18  33  53  79 112 145 185 227 282 352
#     4   9  17  30  49  78 115 150 191 235 293 363
#     4  11  22  38  59  87 119 150 187 238 295 359
#     4  10  20  32  48  75 115 161 203 246 295 349
#     4   9  18  32  54  79 108 151 193 239 291 340
#
# _framework density 20.083513
#
# number of rings (size 3 to 8) (size 9 to 14) (size 15 to 20)
#    0.000    2.667    1.667    2.500    0.000    4.000 
#    0.000    6.667    0.000    0.000    0.000    1.167 
#    0.000    0.000    0.000    0.000    0.000    0.000 
#
# Total GULP energy -594848.896593 kJ/mol
# GULP energy per Si atom -12392.685346 kJ/mol
# Density = 2.003780 g / cm^3
# Si number density = 20.083513 Si / 1000 Ang^3
#
#
#
# Elastic Constant Matrix: (Units=GPa)
#
#
# Indices 1 2 3 4 5 6 
#
# 1 66.8949 25.5642 47.2225 0.0000 0.0000 0.0000
# 2 25.5642 66.8942 47.2228 0.0000 0.0000 0.0000
# 3 47.2225 47.2228 141.6902 0.0000 0.0000 0.0000
# 4 0.0000 0.0000 0.0000 30.0540 0.0000 0.0000
# 5 0.0000 0.0000 0.0000 0.0000 30.0531 0.0000
# 6 0.0000 0.0000 0.0000 0.0000 0.0000 7.8580
#
#
#
# Elastic Compliance Matrix: (Units=1/GPa)
#
#
# Indices 1 2 3 4 5 6 
#
# 1 0.020297 -0.003898 -0.005465 0.000000 0.000000 0.000000
# 2 -0.003898 0.020297 -0.005465 0.000000 0.000000 0.000000
# 3 -0.005465 -0.005465 0.010701 0.000000 0.000000 0.000000
# 4 0.000000 0.000000 0.000000 0.033273 0.000000 0.000000
# 5 0.000000 0.000000 0.000000 0.000000 0.033274 0.000000
# 6 0.000000 0.000000 0.000000 0.000000 0.000000 0.127260
#
#
# Mechanical properties :
#
#
# Convention : Reuss Voigt Hill
#
# Bulk Modulus (GPa) = 46.21882 57.27759 51.74820
# Shear Modulus (GPa) = 17.73228 23.95766 20.84497
#
# Velocity S-wave (km/s) = 2.97463 3.45759 3.22516
# Velocity P-wave (km/s) = 5.90434 6.67244 6.30011
#
# Compressibility (1/GPa) = 0.02163621
#
# Stress axis : x y z
#
# Youngs Moduli (GPa) = 49.26933 49.26843 93.45289
#
# Poissons Ratio (x) = 0.19207 0.51073
# Poissons Ratio (y) = 0.19208 0.51075
# Poissons Ratio (z) = 0.26926 0.26927
#
# Static dielectric constant tensor:
#      x y z
#    x 3.717750 0.000000 0.000000 
#    y 0.000000 3.717760 0.000000 
#    z 0.000000 0.000000 3.731800 
# 
# 
# High freq. dielectric constant tensor:
#      x y z
#    x 1.772640 0.000000 0.000000 
#    y 0.000000 1.772640 0.000000 
#    z 0.000000 0.000000 1.775740 
# 
# From -- ./inp_files/5413.got.cif
#   From: 2010.03.12/outbox.cif.g09.slc.cpg/sg121_3_cif.got.tgz:5413.got - 2010.04.06 16:06:48.
