data_PCOD8311758
_publ_section_title
;
Structure prediction by ZEFSAII (Michael W. Deem and Ramdas Pophale) SiO2 
 PCOD8311758
Probable space group: I -4 2 D
;
_chemical_formula_sum "Si O2"
_cell_formula_units_Z 112
_cell_length_a 13.550991
_cell_length_b 13.550991
_cell_length_c 32.415755
_cell_angle_alpha 90.000000
_cell_angle_beta 90.000000
_cell_angle_gamma 90.000000
_cell_volume 5952.484250
_symmetry_space_group_name_H-M "I -4 2 D"
_symmetry_group_IT_number 122
_symmetry_cell_setting 'tetragonal'
loop_
_space_group_symop_operation_xyz
x,y,z
y,-x,-z
-x,-y,z
-y,x,-z
x,1/2-y,1/4-z
-x,1/2+y,1/4-z
-y,1/2-x,1/4+z
y,1/2+x,1/4+z
1/2+x,1/2+y,1/2+z
1/2+y,1/2-x,1/2-z
1/2-x,1/2-y,1/2+z
1/2-y,1/2+x,1/2-z
1/2+x,-y,3/4-z
1/2-x,y,3/4-z
1/2-y,-x,3/4+z
1/2+y,x,3/4+z
loop_
_atom_site_type_symbol
_atom_site_label
_atom_site_fract_x
_atom_site_fract_y
_atom_site_fract_z
Si Si1 0.539401 0.657538 0.098543
Si Si2 0.394417 0.255162 0.959404
Si Si3 0.741512 0.932846 0.271542
Si Si4 0.846544 0.495309 0.260859
Si Si5 0.970838 0.641152 0.866688
Si Si6 0.736910 0.871352 0.826678
Si Si7 0.406222 0.202354 0.448809
O O1 0.575926 0.750000 0.125000
O O2 0.507228 0.691810 0.053660
O O3 0.453844 0.598907 0.122083
O O4 0.626714 0.577366 0.095085
O O5 0.331351 0.338497 0.984679
O O6 0.410728 0.285481 0.912167
O O7 0.334032 0.152989 0.951699
O O8 0.500422 0.240130 0.981047
O O9 0.848317 0.894864 0.286077
O O10 0.918921 0.401478 0.265461
O O11 0.816855 0.534097 0.306154
O O12 0.748227 0.464182 0.237036
O O13 0.986186 0.678805 0.913344
O O14 0.750000 0.896776 0.875000
O O15 0.670304 0.774941 0.823197
#
# Coordination Sequence:
#
# PCOD8311758 Si02
#       7
#    16  16  16  16  16  16  16
#     4  10  19  31  48  76 110 156 199 235 274 330
#     4  10  20  33  53  82 115 156 199 231 286 343
#     4  10  20  33  54  78 119 154 194 239 282 338
#     4   9  20  39  62  86 106 137 190 240 302 361
#     4  10  19  32  53  77 109 157 201 232 278 346
#     4  10  19  36  64  85 110 152 193 240 295 357
#     4  10  19  36  60  80 112 153 195 234 293 356
#
# _framework density 18.815673
#
# number of rings (size 3 to 8) (size 9 to 14) (size 15 to 20)
#    0.000    2.143    2.857    0.857    0.000    2.571 
#    0.000    2.857    3.143    0.000    0.000    0.000 
#    0.000    0.000    0.000    0.000    0.000    0.000 
#
# Total GULP energy -694011.861698 kJ/mol
# GULP energy per Si atom -12393.068959 kJ/mol
# Density = 1.877285 g / cm^3
# Si number density = 18.815673 Si / 1000 Ang^3
#
#
#
# Elastic Constant Matrix: (Units=GPa)
#
#
# Indices 1 2 3 4 5 6 
#
# 1 72.4242 33.5085 40.2190 0.0000 0.0000 0.0000
# 2 33.5085 72.4242 40.2190 0.0000 0.0000 0.0000
# 3 40.2190 40.2190 98.3028 0.0000 0.0000 0.0000
# 4 0.0000 0.0000 0.0000 25.2716 0.0000 0.0000
# 5 0.0000 0.0000 0.0000 0.0000 25.2716 0.0000
# 6 0.0000 0.0000 0.0000 0.0000 0.0000 21.9591
#
#
#
# Elastic Compliance Matrix: (Units=1/GPa)
#
#
# Indices 1 2 3 4 5 6 
#
# 1 0.019695 -0.006001 -0.005603 0.000000 0.000000 0.000000
# 2 -0.006001 0.019695 -0.005603 0.000000 0.000000 0.000000
# 3 -0.005603 -0.005603 0.014757 0.000000 0.000000 0.000000
# 4 0.000000 0.000000 0.000000 0.039570 0.000000 0.000000
# 5 0.000000 0.000000 0.000000 0.000000 0.039570 0.000000
# 6 0.000000 0.000000 0.000000 0.000000 0.000000 0.045539
#
#
# Mechanical properties :
#
#
# Convention : Reuss Voigt Hill
#
# Bulk Modulus (GPa) = 50.67224 52.33825 51.50525
# Shear Modulus (GPa) = 22.74594 23.11409 22.93002
#
# Velocity S-wave (km/s) = 3.48067 3.50873 3.49473
# Velocity P-wave (km/s) = 6.56831 6.65519 6.61190
#
# Compressibility (1/GPa) = 0.01973467
#
# Stress axis : x y z
#
# Youngs Moduli (GPa) = 50.77312 50.77312 67.76317
#
# Poissons Ratio (x) = 0.30469 0.37967
# Poissons Ratio (y) = 0.30469 0.37967
# Poissons Ratio (z) = 0.28447 0.28447
#
# Static dielectric constant tensor:
#      x y z
#    x 3.397290 0.000000 0.000000 
#    y 0.000000 3.397290 0.000000 
#    z 0.000000 0.000000 3.210470 
# 
# 
# High freq. dielectric constant tensor:
#      x y z
#    x 1.717170 0.000000 0.000000 
#    y 0.000000 1.717170 0.000000 
#    z 0.000000 0.000000 1.722290 
# 
# From -- ./inp_files/8819.got.cif
#   From: 2010.03.12/outbox.cif.g09.slc.cpg/sg122_5_cif.got.tgz:8819.got - 2010.04.06 16:17:16.
