data_PCOD8311043
_publ_section_title
;
Structure prediction by ZEFSAII (Michael W. Deem and Ramdas Pophale) SiO2 
 PCOD8311043
Probable space group: I -4 M 2
;
_chemical_formula_sum "Si O2"
_cell_formula_units_Z 72
_cell_length_a 11.437435
_cell_length_b 11.437435
_cell_length_c 30.591404
_cell_angle_alpha 90.000000
_cell_angle_beta 90.000000
_cell_angle_gamma 90.000000
_cell_volume 4001.812048
_symmetry_space_group_name_H-M "I -4 M 2"
_symmetry_group_IT_number 119
_symmetry_cell_setting 'tetragonal'
loop_
_space_group_symop_operation_xyz
x,y,z
y,-x,-z
-x,-y,z
-y,x,-z
y,x,-z
-y,-x,-z
-x,y,z
x,-y,z
1/2+x,1/2+y,1/2+z
1/2+y,1/2-x,1/2-z
1/2-x,1/2-y,1/2+z
1/2-y,1/2+x,1/2-z
1/2+y,1/2+x,1/2-z
1/2-y,1/2-x,1/2-z
1/2-x,1/2+y,1/2+z
1/2+x,1/2-y,1/2+z
loop_
_atom_site_type_symbol
_atom_site_label
_atom_site_fract_x
_atom_site_fract_y
_atom_site_fract_z
Si Si1 0.246392 0.710081 0.617854
Si Si2 0.361782 0.132339 0.201419
Si Si3 0.311487 0.500000 0.490726
Si Si4 0.500000 0.640154 0.603842
Si Si5 0.137262 0.500000 0.565675
Si Si6 0.861924 0.867886 0.451085
O O1 0.191565 0.722332 0.666200
O O2 0.382012 0.679897 0.627968
O O3 0.179190 0.610313 0.592182
O O4 0.222389 0.822214 0.587086
O O5 0.500000 0.133304 0.197524
O O6 0.325268 0.174733 0.250000
O O7 0.315809 0.000000 0.192534
O O8 0.383371 0.616630 0.500000
O O9 0.283237 0.500000 0.439930
O O10 0.191995 0.500000 0.517470
O O11 0.500000 0.500000 0.594699
O O12 0.000000 0.500000 0.559779
O O13 0.823895 0.823895 0.500000
O O14 0.000000 0.871608 0.449723
O O15 0.812888 0.000000 0.442565
#
# Coordination Sequence:
#
# PCOD8311043 Si02
#       6
#    16  16   8   8   8  16
#     4  12  21  35  55  80 110 142 182 218 272 324
#     4   9  17  31  53  81 109 133 165 222 286 331
#     4  11  18  36  51  66 103 154 182 203 260 321
#     4  12  22  36  54  75 113 156 176 216 268 326
#     4  12  23  31  52  82 106 133 185 230 263 317
#     4   9  20  38  56  76 108 149 186 226 274 315
#
# _framework density 17.991848000000001
#
# number of rings (size 3 to 8) (size 9 to 14) (size 15 to 20)
#    0.000    1.444    5.556    3.333    3.111    0.000 
#    0.000    0.556    2.444    0.000    0.000    0.000 
#    0.000    0.000    0.000    0.000    0.000    0.000 
#
# Total GULP energy -446159.322921 kJ/mol
# GULP energy per Si atom -12393.314526 kJ/mol
# Density = 1.795090 g / cm^3
# Si number density = 17.991848 Si / 1000 Ang^3
#
#
#
# Elastic Constant Matrix: (Units=GPa)
#
#
# Indices 1 2 3 4 5 6 
#
# 1 71.9780 18.6190 32.5490 0.0000 0.0000 0.0000
# 2 18.6190 71.9780 32.5491 0.0000 0.0000 0.0000
# 3 32.5490 32.5491 137.0826 0.0000 0.0000 0.0000
# 4 0.0000 0.0000 0.0000 32.6247 0.0000 0.0000
# 5 0.0000 0.0000 0.0000 0.0000 32.6197 0.0000
# 6 0.0000 0.0000 0.0000 0.0000 0.0000 14.6353
#
#
#
# Elastic Compliance Matrix: (Units=1/GPa)
#
#
# Indices 1 2 3 4 5 6 
#
# 1 0.016025 -0.002716 -0.003160 0.000000 0.000000 0.000000
# 2 -0.002716 0.016025 -0.003160 0.000000 0.000000 0.000000
# 3 -0.003160 -0.003160 0.008795 0.000000 0.000000 0.000000
# 4 0.000000 0.000000 0.000000 0.030652 0.000000 0.000000
# 5 0.000000 0.000000 0.000000 0.000000 0.030656 0.000000
# 6 0.000000 0.000000 0.000000 0.000000 0.000000 0.068328
#
#
# Mechanical properties :
#
#
# Convention : Reuss Voigt Hill
#
# Bulk Modulus (GPa) = 43.91254 49.83030 46.87142
# Shear Modulus (GPa) = 25.49143 29.13069 27.31106
#
# Velocity S-wave (km/s) = 3.76817 4.02818 3.90034
# Velocity P-wave (km/s) = 6.58726 7.02788 6.81113
#
# Compressibility (1/GPa) = 0.02277254
#
# Stress axis : x y z
#
# Youngs Moduli (GPa) = 62.40355 62.40350 113.69461
#
# Poissons Ratio (x) = 0.16950 0.35927
# Poissons Ratio (y) = 0.16950 0.35927
# Poissons Ratio (z) = 0.19719 0.19719
#
# Static dielectric constant tensor:
#      x y z
#    x 3.050820 0.000000 0.000000 
#    y 0.000000 3.050810 0.000000 
#    z 0.000000 0.000000 3.527680 
# 
# 
# High freq. dielectric constant tensor:
#      x y z
#    x 1.677770 0.000000 0.000000 
#    y 0.000000 1.677770 0.000000 
#    z 0.000000 0.000000 1.689010 
# 
# From -- ./inp_files/10067.got.cif
#   From: 2010.03.12/outbox.cif.g09.slc.cpg/sg119_6_cif.got.tgz:10067.got - 2010.04.14 02:25:26.
