data_PCOD8311709
_publ_section_title
;
Structure prediction by ZEFSAII (Michael W. Deem and Ramdas Pophale) SiO2 
 PCOD8311709
Probable space group: I -4 2 M
;
_chemical_formula_sum "Si O2"
_cell_formula_units_Z 60
_cell_length_a 16.954812
_cell_length_b 16.954812
_cell_length_c 9.312062
_cell_angle_alpha 90.000000
_cell_angle_beta 90.000000
_cell_angle_gamma 90.000000
_cell_volume 2676.897955
_symmetry_space_group_name_H-M "I -4 2 M"
_symmetry_group_IT_number 121
_symmetry_cell_setting 'tetragonal'
loop_
_space_group_symop_operation_xyz
x,y,z
y,-x,-z
-x,-y,z
-y,x,-z
x,-y,-z
-x,y,-z
-y,-x,z
y,x,z
1/2+x,1/2+y,1/2+z
1/2+y,1/2-x,1/2-z
1/2-x,1/2-y,1/2+z
1/2-y,1/2+x,1/2-z
1/2+x,1/2-y,1/2-z
1/2-x,1/2+y,1/2-z
1/2-y,1/2-x,1/2+z
1/2+y,1/2+x,1/2+z
loop_
_atom_site_type_symbol
_atom_site_label
_atom_site_fract_x
_atom_site_fract_y
_atom_site_fract_z
Si Si1 0.248062 0.879020 0.457450
Si Si2 0.267409 0.526005 0.228279
Si Si3 0.625596 0.500000 0.500000
Si Si4 0.369735 0.075706 0.095108
Si Si5 0.000000 0.500000 0.250000
O O1 0.202243 0.797758 0.425095
O O2 0.205061 0.922772 0.590689
O O3 0.340848 0.860439 0.486666
O O4 0.244062 0.934881 0.317072
O O5 0.325423 0.529997 0.363449
O O6 0.187273 0.570872 0.269089
O O7 0.572296 0.427705 0.554578
O O8 0.459592 0.066595 0.150881
O O9 0.346009 0.000000 0.000000
#
# Coordination Sequence:
#
# PCOD8311709 Si02
#       5
#    16  16   8  16   4
#     4  11  26  45  70 104 143 188 236 293 363 431
#     4  11  24  46  68 101 141 181 230 293 357 423
#     4  11  24  44  72  99 130 180 236 293 352 418
#     4  12  24  42  67 101 139 182 231 286 352 427
#     4  12  22  40  72 102 140 186 228 278 348 438
#
# _framework density 22.414003000000001
#
# number of rings (size 3 to 8) (size 9 to 14) (size 15 to 20)
#    0.000    0.667    4.000    3.600    3.733    2.133 
#    0.000    0.000    0.000    6.400    0.000    0.000 
#    0.000    0.000    0.000    0.000    0.000    0.000 
#
# Total GULP energy -371911.563712 kJ/mol
# GULP energy per Si atom -12397.052124 kJ/mol
# Density = 2.236299 g / cm^3
# Si number density = 22.414003 Si / 1000 Ang^3
#
#
#
# Elastic Constant Matrix: (Units=GPa)
#
#
# Indices 1 2 3 4 5 6 
#
# 1 130.2487 61.3416 37.9131 0.0000 0.0000 0.0000
# 2 61.3416 130.2510 37.9129 0.0000 0.0000 0.0000
# 3 37.9131 37.9129 98.2148 0.0000 0.0000 0.0000
# 4 0.0000 0.0000 0.0000 32.9380 0.0000 0.0000
# 5 0.0000 0.0000 0.0000 0.0000 32.9383 0.0000
# 6 0.0000 0.0000 0.0000 0.0000 0.0000 36.1521
#
#
#
# Elastic Compliance Matrix: (Units=1/GPa)
#
#
# Indices 1 2 3 4 5 6 
#
# 1 0.010336 -0.004176 -0.002378 0.000000 0.000000 0.000000
# 2 -0.004176 0.010336 -0.002378 0.000000 0.000000 0.000000
# 3 -0.002378 -0.002378 0.012018 0.000000 0.000000 0.000000
# 4 0.000000 0.000000 0.000000 0.030360 0.000000 0.000000
# 5 0.000000 0.000000 0.000000 0.000000 0.030360 0.000000
# 6 0.000000 0.000000 0.000000 0.000000 0.000000 0.027661
#
#
# Mechanical properties :
#
#
# Convention : Reuss Voigt Hill
#
# Bulk Modulus (GPa) = 67.44676 70.33886 68.89281
# Shear Modulus (GPa) = 34.75181 35.17547 34.96364
#
# Velocity S-wave (km/s) = 3.94185 3.96580 3.95384
# Velocity P-wave (km/s) = 7.13262 7.24016 7.18659
#
# Compressibility (1/GPa) = 0.01482651
#
# Stress axis : x y z
#
# Youngs Moduli (GPa) = 96.74496 96.74701 83.20998
#
# Poissons Ratio (x) = 0.40399 0.19789
# Poissons Ratio (y) = 0.40398 0.19788
# Poissons Ratio (z) = 0.23008 0.23007
#
# Static dielectric constant tensor:
#      x y z
#    x 3.906980 0.000000 0.000000 
#    y 0.000000 3.906970 0.000000 
#    z 0.000000 0.000000 4.046690 
# 
# 
# High freq. dielectric constant tensor:
#      x y z
#    x 1.876980 0.000000 0.000000 
#    y 0.000000 1.876980 0.000000 
#    z 0.000000 0.000000 1.889990 
# 
# From -- ./inp_files/1399.got.cif
#   From: 2010.03.12/outbox.cif.g09.slc.cpg/sg121_1_cif.got.tgz:1399.got - 2010.04.06 16:06:48.
