data_PCOD8311250
_publ_section_title
;
Structure prediction by ZEFSAII (Michael W. Deem and Ramdas Pophale) SiO2 
 PCOD8311250
Probable space group: I -4 C 2
;
_chemical_formula_sum "Si O2"
_cell_formula_units_Z 52
_cell_length_a 13.445669
_cell_length_b 13.445669
_cell_length_c 14.026777
_cell_angle_alpha 90.000000
_cell_angle_beta 90.000000
_cell_angle_gamma 90.000000
_cell_volume 2535.845115
_symmetry_space_group_name_H-M "I -4 C 2"
_symmetry_group_IT_number 120
_symmetry_cell_setting 'tetragonal'
loop_
_space_group_symop_operation_xyz
x,y,z
y,-x,-z
-x,-y,z
-y,x,-z
y,x,1/2-z
-y,-x,1/2-z
-x,y,1/2+z
x,-y,1/2+z
1/2+x,1/2+y,1/2+z
1/2+y,1/2-x,1/2-z
1/2-x,1/2-y,1/2+z
1/2-y,1/2+x,1/2-z
1/2+y,1/2+x,-z
1/2-y,1/2-x,-z
1/2-x,1/2+y,z
1/2+x,1/2-y,z
loop_
_atom_site_type_symbol
_atom_site_label
_atom_site_fract_x
_atom_site_fract_y
_atom_site_fract_z
Si Si1 0.733729 0.395782 0.811388
Si Si2 0.799230 0.561915 0.685161
Si Si3 0.549785 0.653581 0.993265
Si Si4 0.000000 0.500000 0.750000
O O1 0.640070 0.359931 0.750000
O O2 0.753261 0.508964 0.778325
O O3 0.822114 0.316390 0.794575
O O4 0.712882 0.396144 0.923023
O O5 0.728195 0.541013 0.595546
O O6 0.908348 0.511343 0.675488
O O7 0.617731 0.558075 0.969507
#
# Coordination Sequence:
#
# PCOD8311250 Si02
#       4
#    16  16  16   4
#     4  11  23  43  67  93 128 171 215 268 323 383
#     4  10  22  44  66  98 127 170 220 265 323 383
#     4  11  24  42  65  99 132 168 216 266 326 388
#     4   8  20  44  70  92 136 170 216 272 326 372
#
# _framework density 20.505984999999999
#
# number of rings (size 3 to 8) (size 9 to 14) (size 15 to 20)
#    0.000    1.538    3.077    0.923    4.308    0.000 
#    0.000   23.077    0.000    0.000    0.000    0.000 
#    0.000    0.000    0.000    0.000    0.000    0.000 
#
# Total GULP energy -322240.172038 kJ/mol
# GULP energy per Si atom -12393.852771 kJ/mol
# Density = 2.045931 g / cm^3
# Si number density = 20.505985 Si / 1000 Ang^3
#
#
#
# Elastic Constant Matrix: (Units=GPa)
#
#
# Indices 1 2 3 4 5 6 
#
# 1 105.5426 38.0877 32.1787 0.0000 0.0000 0.0000
# 2 38.0877 105.5401 32.1776 0.0000 0.0000 0.0000
# 3 32.1787 32.1776 83.4142 0.0000 0.0000 0.0000
# 4 0.0000 0.0000 0.0000 35.0541 0.0000 0.0000
# 5 0.0000 0.0000 0.0000 0.0000 35.0542 0.0000
# 6 0.0000 0.0000 0.0000 0.0000 0.0000 23.0826
#
#
#
# Elastic Compliance Matrix: (Units=1/GPa)
#
#
# Indices 1 2 3 4 5 6 
#
# 1 0.011621 -0.003204 -0.003247 0.000000 0.000000 0.000000
# 2 -0.003204 0.011621 -0.003247 0.000000 0.000000 0.000000
# 3 -0.003247 -0.003247 0.014494 0.000000 0.000000 0.000000
# 4 0.000000 0.000000 0.000000 0.028527 0.000000 0.000000
# 5 0.000000 0.000000 0.000000 0.000000 0.028527 0.000000
# 6 0.000000 0.000000 0.000000 0.000000 0.000000 0.043323
#
#
# Mechanical properties :
#
#
# Convention : Reuss Voigt Hill
#
# Bulk Modulus (GPa) = 54.52607 55.48720 55.00664
# Shear Modulus (GPa) = 30.55815 31.44170 30.99993
#
# Velocity S-wave (km/s) = 3.86451 3.91998 3.89234
# Velocity P-wave (km/s) = 6.82353 6.89972 6.86173
#
# Compressibility (1/GPa) = 0.01833985
#
# Stress axis : x y z
#
# Youngs Moduli (GPa) = 86.05078 86.04915 68.99605
#
# Poissons Ratio (x) = 0.27569 0.22404
# Poissons Ratio (y) = 0.27569 0.22403
# Poissons Ratio (z) = 0.27942 0.27940
#
# Static dielectric constant tensor:
#      x y z
#    x 3.875810 0.000000 0.000000 
#    y 0.000000 3.875810 0.000000 
#    z 0.000000 0.000000 3.380900 
# 
# 
# High freq. dielectric constant tensor:
#      x y z
#    x 1.813750 0.000000 0.000000 
#    y 0.000000 1.813750 0.000000 
#    z 0.000000 0.000000 1.781710 
# 
# From -- ./inp_files/2186.got.cif
#   From: 2010.03.12/outbox.cif.g09.slc.cpg/sg120_2_cif.got.tgz:2186.got - 2010.04.06 16:00:44.
