data_PCOD8311823
_publ_section_title
;
Structure prediction by ZEFSAII (Michael W. Deem and Ramdas Pophale) SiO2 
 PCOD8311823
Probable space group: I -4 2 D
;
_chemical_formula_sum "Si O2"
_cell_formula_units_Z 116
_cell_length_a 17.337439
_cell_length_b 17.337439
_cell_length_c 17.939119
_cell_angle_alpha 90.000000
_cell_angle_beta 90.000000
_cell_angle_gamma 90.000000
_cell_volume 5392.262215
_symmetry_space_group_name_H-M "I -4 2 D"
_symmetry_group_IT_number 122
_symmetry_cell_setting 'tetragonal'
loop_
_space_group_symop_operation_xyz
x,y,z
y,-x,-z
-x,-y,z
-y,x,-z
x,1/2-y,1/4-z
-x,1/2+y,1/4-z
-y,1/2-x,1/4+z
y,1/2+x,1/4+z
1/2+x,1/2+y,1/2+z
1/2+y,1/2-x,1/2-z
1/2-x,1/2-y,1/2+z
1/2-y,1/2+x,1/2-z
1/2+x,-y,3/4-z
1/2-x,y,3/4-z
1/2-y,-x,3/4+z
1/2+y,x,3/4+z
loop_
_atom_site_type_symbol
_atom_site_label
_atom_site_fract_x
_atom_site_fract_y
_atom_site_fract_z
Si Si1 0.662621 0.883275 0.109718
Si Si2 0.165091 0.333933 0.155817
Si Si3 0.085214 0.582613 0.468305
Si Si4 0.099474 0.914296 0.216534
Si Si5 0.684195 0.058915 0.099737
Si Si6 0.107308 0.930008 0.500398
Si Si7 0.500000 0.000000 0.750000
Si Si8 0.144026 0.587448 0.190149
O O1 0.749692 0.856587 0.118953
O O2 0.611837 0.853589 0.179107
O O3 0.649708 0.974143 0.105431
O O4 0.630892 0.853302 0.030335
O O5 0.147697 0.250000 0.125000
O O6 0.103116 0.385631 0.113680
O O7 0.150077 0.346219 0.244090
O O8 0.084318 0.491552 0.474359
O O9 0.140552 0.610055 0.536430
O O10 0.003228 0.625464 0.474335
O O11 0.120962 0.872940 0.138093
O O12 0.664250 0.093914 0.181140
O O13 0.773340 0.048689 0.076351
O O14 0.021527 0.896736 0.515980
O O15 0.522765 0.922591 0.795909
#
# Coordination Sequence:
#
# PCOD8311823 Si02
#       8
#    16  16  16  16  16  16   4  16
#     4  10  22  38  59  92 123 162 206 263 316 369
#     4  12  25  42  59  83 128 170 205 259 327 382
#     4  10  20  40  63  92 123 158 203 257 322 373
#     4  10  21  37  65  93 119 154 209 266 304 375
#     4  10  20  37  64  92 123 162 211 254 311 388
#     4   9  18  37  65  95 126 162 208 262 318 378
#     4  12  24  40  68  96 128 160 214 272 312 364
#     4  12  23  40  61  92 120 167 209 258 315 382
#
# _framework density 21.512305000000001
#
# number of rings (size 3 to 8) (size 9 to 14) (size 15 to 20)
#    0.000    1.517    1.379    4.966    0.000    4.966 
#    0.000    0.690    0.000    4.966    0.000    0.000 
#    0.000    0.000    0.000    0.000    0.000    0.000 
#
# Total GULP energy -718702.158897 kJ/mol
# GULP energy per Si atom -12391.416533 kJ/mol
# Density = 2.146334 g / cm^3
# Si number density = 21.512305 Si / 1000 Ang^3
#
#
#
# Elastic Constant Matrix: (Units=GPa)
#
#
# Indices 1 2 3 4 5 6 
#
# 1 201.7409 -105.6648 45.1044 0.0000 0.0000 0.0000
# 2 -105.6648 201.7409 45.1044 0.0000 0.0000 0.0000
# 3 45.1044 45.1044 186.9532 0.0000 0.0000 0.0000
# 4 0.0000 0.0000 0.0000 20.8539 0.0000 0.0000
# 5 0.0000 0.0000 0.0000 0.0000 20.8539 0.0000
# 6 0.0000 0.0000 0.0000 0.0000 0.0000 17.3768
#
#
#
# Elastic Compliance Matrix: (Units=1/GPa)
#
#
# Indices 1 2 3 4 5 6 
#
# 1 0.008355 0.005102 -0.003247 0.000000 0.000000 0.000000
# 2 0.005102 0.008355 -0.003247 0.000000 0.000000 0.000000
# 3 -0.003247 -0.003247 0.006915 0.000000 0.000000 0.000000
# 4 0.000000 0.000000 0.000000 0.047953 0.000000 0.000000
# 5 0.000000 0.000000 0.000000 0.000000 0.047953 0.000000
# 6 0.000000 0.000000 0.000000 0.000000 0.000000 0.057548
#
#
# Mechanical properties :
#
#
# Convention : Reuss Voigt Hill
#
# Bulk Modulus (GPa) = 47.97861 62.16921 55.07391
# Shear Modulus (GPa) = 26.76532 52.20964 39.48748
#
# Velocity S-wave (km/s) = 3.53113 4.93177 4.28901
# Velocity P-wave (km/s) = 6.24311 7.83530 7.08408
#
# Compressibility (1/GPa) = 0.02084262
#
# Stress axis : x y z
#
# Youngs Moduli (GPa) = 119.69064 119.69064 144.60342
#
# Poissons Ratio (x) = -0.61064 0.46946
# Poissons Ratio (y) = -0.61064 0.46946
# Poissons Ratio (z) = 0.38858 0.38858
#
# Static dielectric constant tensor:
#      x y z
#    x 3.730220 0.000000 0.000000 
#    y 0.000000 3.730220 0.000000 
#    z 0.000000 0.000000 4.401330 
# 
# 
# High freq. dielectric constant tensor:
#      x y z
#    x 1.825540 0.000000 0.000000 
#    y 0.000000 1.825540 0.000000 
#    z 0.000000 0.000000 1.867060 
# 
# From -- ./inp_files/6465.got.cif
#   From: 2010.03.12/outbox.cif.g09.slc.cpg/sg122_4_cif.got.tgz:6465.got - 2010.04.06 16:17:16.
