data_PCOD8311204
_publ_section_title
;
Structure prediction by ZEFSAII (Michael W. Deem and Ramdas Pophale) SiO2 
 PCOD8311204
Probable space group: I -4 C 2
;
_chemical_formula_sum "Si O2"
_cell_formula_units_Z 80
_cell_length_a 12.652763
_cell_length_b 12.652763
_cell_length_c 26.960929
_cell_angle_alpha 90.000000
_cell_angle_beta 90.000000
_cell_angle_gamma 90.000000
_cell_volume 4316.240141
_symmetry_space_group_name_H-M "I -4 C 2"
_symmetry_group_IT_number 120
_symmetry_cell_setting 'tetragonal'
loop_
_space_group_symop_operation_xyz
x,y,z
y,-x,-z
-x,-y,z
-y,x,-z
y,x,1/2-z
-y,-x,1/2-z
-x,y,1/2+z
x,-y,1/2+z
1/2+x,1/2+y,1/2+z
1/2+y,1/2-x,1/2-z
1/2-x,1/2-y,1/2+z
1/2-y,1/2+x,1/2-z
1/2+y,1/2+x,-z
1/2-y,1/2-x,-z
1/2-x,1/2+y,z
1/2+x,1/2-y,z
loop_
_atom_site_type_symbol
_atom_site_label
_atom_site_fract_x
_atom_site_fract_y
_atom_site_fract_z
Si Si1 0.641731 0.403602 0.943629
Si Si2 0.210606 0.285345 0.369612
Si Si3 0.786571 0.653040 0.216393
Si Si4 0.394932 0.636816 0.446593
Si Si5 0.882333 0.449470 0.198649
O O1 0.696712 0.341350 0.899521
O O2 0.666586 0.527480 0.936789
O O3 0.518284 0.382359 0.940974
O O4 0.681216 0.368074 0.998346
O O5 0.260331 0.208529 0.327503
O O6 0.139249 0.219794 0.406247
O O7 0.135493 0.374680 0.345427
O O8 0.683109 0.683109 0.250000
O O9 0.787505 0.536227 0.191905
O O10 0.893499 0.648012 0.249226
O O11 0.000000 0.500000 0.198460
#
# Coordination Sequence:
#
# PCOD8311204 Si02
#       5
#    16  16  16  16  16
#     4   9  19  37  57  80 115 159 177 231 288 332
#     4  11  22  32  60  90 107 142 204 232 264 343
#     4  10  21  35  56  78 107 150 188 224 284 335
#     4   9  19  37  57  79 119 150 187 227 288 330
#     4  11  21  39  57  77 117 152 178 234 298 330
#
# _framework density 18.534649999999999
#
# number of rings (size 3 to 8) (size 9 to 14) (size 15 to 20)
#    0.000    2.000    2.000    3.000    2.800    0.000 
#    0.000    0.000    0.000    5.400    0.000    0.000 
#    0.000    0.000    0.000    0.000    0.000    0.000 
#
# Total GULP energy -495556.501343 kJ/mol
# GULP energy per Si atom -12388.912534 kJ/mol
# Density = 1.849246 g / cm^3
# Si number density = 18.534650 Si / 1000 Ang^3
#
#
#
# Elastic Constant Matrix: (Units=GPa)
#
#
# Indices 1 2 3 4 5 6 
#
# 1 69.8066 40.3295 48.4623 0.0000 0.0000 0.0000
# 2 40.3295 69.8066 48.4623 0.0000 0.0000 0.0000
# 3 48.4623 48.4623 125.2093 0.0000 0.0000 0.0000
# 4 0.0000 0.0000 0.0000 28.2408 0.0000 0.0000
# 5 0.0000 0.0000 0.0000 0.0000 28.2408 0.0000
# 6 0.0000 0.0000 0.0000 0.0000 0.0000 29.8074
#
#
#
# Elastic Compliance Matrix: (Units=1/GPa)
#
#
# Indices 1 2 3 4 5 6 
#
# 1 0.023847 -0.010077 -0.005330 0.000000 0.000000 0.000000
# 2 -0.010077 0.023847 -0.005330 0.000000 0.000000 0.000000
# 3 -0.005330 -0.005330 0.012112 0.000000 0.000000 0.000000
# 4 0.000000 0.000000 0.000000 0.035410 0.000000 0.000000
# 5 0.000000 0.000000 0.000000 0.000000 0.035410 0.000000
# 6 0.000000 0.000000 0.000000 0.000000 0.000000 0.033549
#
#
# Mechanical properties :
#
#
# Convention : Reuss Voigt Hill
#
# Bulk Modulus (GPa) = 54.54456 59.92565 57.23510
# Shear Modulus (GPa) = 23.61164 25.76236 24.68700
#
# Velocity S-wave (km/s) = 3.57307 3.73226 3.65353
# Velocity P-wave (km/s) = 6.82017 7.13967 6.98175
#
# Compressibility (1/GPa) = 0.01833364
#
# Stress axis : x y z
#
# Youngs Moduli (GPa) = 41.93332 41.93332 82.56022
#
# Poissons Ratio (x) = 0.42258 0.44002
# Poissons Ratio (y) = 0.42258 0.44002
# Poissons Ratio (z) = 0.22349 0.22349
#
# Static dielectric constant tensor:
#      x y z
#    x 3.791060 0.000000 0.000000 
#    y 0.000000 3.791060 0.000000 
#    z 0.000000 0.000000 3.657400 
# 
# 
# High freq. dielectric constant tensor:
#      x y z
#    x 1.709230 0.000000 0.000000 
#    y 0.000000 1.709230 0.000000 
#    z 0.000000 0.000000 1.734950 
# 
# From -- ./inp_files/6492.got.cif
#   From: 2010.03.12/outbox.cif.g09.slc.cpg/sg120_4_cif.got.tgz:6492.got - 2010.04.06 16:00:44.
