data_PCOD8311077
_publ_section_title
;
Structure prediction by ZEFSAII (Michael W. Deem and Ramdas Pophale) SiO2 
 PCOD8311077
Probable space group: I -4 M 2
;
_chemical_formula_sum "Si O2"
_cell_formula_units_Z 46
_cell_length_a 13.312102
_cell_length_b 13.312102
_cell_length_c 13.655234
_cell_angle_alpha 90.000000
_cell_angle_beta 90.000000
_cell_angle_gamma 90.000000
_cell_volume 2419.872142
_symmetry_space_group_name_H-M "I -4 M 2"
_symmetry_group_IT_number 119
_symmetry_cell_setting 'tetragonal'
loop_
_space_group_symop_operation_xyz
x,y,z
y,-x,-z
-x,-y,z
-y,x,-z
y,x,-z
-y,-x,-z
-x,y,z
x,-y,z
1/2+x,1/2+y,1/2+z
1/2+y,1/2-x,1/2-z
1/2-x,1/2-y,1/2+z
1/2-y,1/2+x,1/2-z
1/2+y,1/2+x,1/2-z
1/2-y,1/2-x,1/2-z
1/2-x,1/2+y,1/2+z
1/2+x,1/2-y,1/2+z
loop_
_atom_site_type_symbol
_atom_site_label
_atom_site_fract_x
_atom_site_fract_y
_atom_site_fract_z
Si Si1 0.000000 0.700824 0.620372
Si Si2 0.500000 0.500000 0.500000
Si Si3 0.313973 0.328159 0.192686
Si Si4 0.000000 0.500000 0.250000
Si Si5 0.000000 0.689187 0.396886
Si Si6 0.000000 0.108465 0.184705
Si Si7 0.000000 0.500000 0.750000
O O1 0.095119 0.773118 0.637958
O O2 0.000000 0.602219 0.687604
O O3 0.000000 0.656650 0.510132
O O4 0.500000 0.600121 0.566478
O O5 0.254511 0.245490 0.250000
O O6 0.253347 0.397763 0.116470
O O7 0.339528 0.398904 0.283665
O O8 0.000000 0.596595 0.320779
O O9 0.000000 0.000000 0.236566
#
# Coordination Sequence:
#
# PCOD8311077 Si02
#       7
#     8   2  16   2   8   8   2
#     4  12  23  44  63  96 125 168 212 262 317 391
#     4   8  16  40  56  92 110 152 208 240 304 360
#     4  11  22  42  63  88 127 167 207 259 318 372
#     4  12  22  48  60  90 140 152 214 272 312 386
#     4  11  25  42  67  93 121 171 215 264 316 378
#     4   9  19  38  61  85 120 160 199 260 299 354
#     4  12  26  40  64  90 144 156 202 264 336 370
#
# _framework density 19.009267999999999
#
# number of rings (size 3 to 8) (size 9 to 14) (size 15 to 20)
#    0.522    0.696    5.217    1.565    0.000    0.000 
#    6.261    1.739    0.000    0.000    0.000    0.000 
#    0.000    0.000    0.000    0.000    0.000    0.000 
#
# Total GULP energy -284932.962707 kJ/mol
# GULP energy per Si atom -12388.389683 kJ/mol
# Density = 1.896600 g / cm^3
# Si number density = 19.009268 Si / 1000 Ang^3
#
#
#
# Elastic Constant Matrix: (Units=GPa)
#
#
# Indices 1 2 3 4 5 6 
#
# 1 125.7021 57.0228 57.8020 0.0000 0.0000 0.0000
# 2 57.0228 125.7051 57.8023 0.0000 0.0000 0.0000
# 3 57.8020 57.8023 160.0371 0.0000 0.0000 0.0000
# 4 0.0000 0.0000 0.0000 27.2805 0.0000 0.0000
# 5 0.0000 0.0000 0.0000 0.0000 27.2848 0.0000
# 6 0.0000 0.0000 0.0000 0.0000 0.0000 107.5733
#
#
#
# Elastic Compliance Matrix: (Units=1/GPa)
#
#
# Indices 1 2 3 4 5 6 
#
# 1 0.010827 -0.003733 -0.002562 0.000000 0.000000 0.000000
# 2 -0.003733 0.010827 -0.002562 0.000000 0.000000 0.000000
# 3 -0.002562 -0.002562 0.008099 0.000000 0.000000 0.000000
# 4 0.000000 0.000000 0.000000 0.036656 0.000000 0.000000
# 5 0.000000 0.000000 0.000000 0.000000 0.036650 0.000000
# 6 0.000000 0.000000 0.000000 0.000000 0.000000 0.009296
#
#
# Mechanical properties :
#
#
# Convention : Reuss Voigt Hill
#
# Bulk Modulus (GPa) = 83.06880 84.07759 83.57320
# Shear Modulus (GPa) = 37.29031 48.34887 42.81959
#
# Velocity S-wave (km/s) = 4.43390 5.04872 4.75127
# Velocity P-wave (km/s) = 8.36700 8.84940 8.61158
#
# Compressibility (1/GPa) = 0.01203821
#
# Stress axis : x y z
#
# Youngs Moduli (GPa) = 92.36177 92.36426 123.46777
#
# Poissons Ratio (x) = 0.34482 0.31634
# Poissons Ratio (y) = 0.34481 0.31633
# Poissons Ratio (z) = 0.23664 0.23664
#
# Static dielectric constant tensor:
#      x y z
#    x 3.590330 0.000000 0.000000 
#    y 0.000000 3.590330 0.000000 
#    z 0.000000 0.000000 3.364460 
# 
# 
# High freq. dielectric constant tensor:
#      x y z
#    x 1.750840 0.000000 0.000000 
#    y 0.000000 1.750840 0.000000 
#    z 0.000000 0.000000 1.737590 
# 
# From -- ./inp_files/3426.got.cif
#   From: 2010.03.12/outbox.cif.g09.slc.cpg/sg119_2_cif.got.tgz:3426.got - 2010.04.14 02:25:26.
