data_PCOD8311020
_publ_section_title
;
Structure prediction by ZEFSAII (Michael W. Deem and Ramdas Pophale) SiO2 
 PCOD8311020
Probable space group: I -4 M 2
;
_chemical_formula_sum "Si O2"
_cell_formula_units_Z 80
_cell_length_a 26.850873
_cell_length_b 26.850873
_cell_length_c 5.392831
_cell_angle_alpha 90.000000
_cell_angle_beta 90.000000
_cell_angle_gamma 90.000000
_cell_volume 3888.066027
_symmetry_space_group_name_H-M "I -4 M 2"
_symmetry_group_IT_number 119
_symmetry_cell_setting 'tetragonal'
loop_
_space_group_symop_operation_xyz
x,y,z
y,-x,-z
-x,-y,z
-y,x,-z
y,x,-z
-y,-x,-z
-x,y,z
x,-y,z
1/2+x,1/2+y,1/2+z
1/2+y,1/2-x,1/2-z
1/2-x,1/2-y,1/2+z
1/2-y,1/2+x,1/2-z
1/2+y,1/2+x,1/2-z
1/2-y,1/2-x,1/2-z
1/2-x,1/2+y,1/2+z
1/2+x,1/2-y,1/2+z
loop_
_atom_site_type_symbol
_atom_site_label
_atom_site_fract_x
_atom_site_fract_y
_atom_site_fract_z
Si Si1 0.867617 0.367617 0.750000
Si Si2 0.441366 0.135758 0.632140
Si Si3 0.179118 0.097650 0.500462
Si Si4 0.637249 0.443302 0.501736
Si Si5 0.784452 0.378987 0.125564
Si Si6 0.227083 0.727083 0.250000
O O1 0.862044 0.424791 0.655855
O O2 0.855233 0.328518 0.537248
O O3 0.500000 0.126727 0.662246
O O4 0.410501 0.089500 0.750000
O O5 0.425657 0.190285 0.734319
O O6 0.150592 0.150592 0.500000
O O7 0.171115 0.071891 0.767475
O O8 0.238174 0.102767 0.462600
O O9 0.163590 0.064575 0.266203
O O10 0.585781 0.414220 0.500000
O O11 0.622437 0.500000 0.472792
O O12 0.763786 0.332521 0.288529
O O13 0.246329 0.753671 0.500000
#
# Coordination Sequence:
#
# PCOD8311020 Si02
#       6
#     8  16  16  16  16   8
#     4  10  21  42  64  93 131 164 222 275 324 388
#     4  10  23  43  67  92 129 168 218 282 339 400
#     4  10  23  39  60  90 130 169 210 264 320 383
#     4  10  22  41  62  89 123 162 211 267 321 381
#     4  11  23  41  62  92 132 170 219 265 323 393
#     4  12  25  38  68 100 132 178 223 267 326 386
#
# _framework density 20.575780999999999
#
# number of rings (size 3 to 8) (size 9 to 14) (size 15 to 20)
#    0.000    1.600    3.000    1.800    2.800    7.600 
#    0.000    0.000    0.000    3.600    0.000    0.000 
#    0.000    0.000    0.000    0.000    0.000    0.000 
#
# Total GULP energy -495646.292762 kJ/mol
# GULP energy per Si atom -12391.157319 kJ/mol
# Density = 2.052895 g / cm^3
# Si number density = 20.575781 Si / 1000 Ang^3
#
#
#
# Elastic Constant Matrix: (Units=GPa)
#
#
# Indices 1 2 3 4 5 6 
#
# 1 135.6418 50.8407 33.1889 0.0000 0.0000 0.0000
# 2 50.8407 135.6409 33.1879 0.0000 0.0000 0.0000
# 3 33.1889 33.1879 110.7402 0.0000 0.0000 0.0000
# 4 0.0000 0.0000 0.0000 19.7435 0.0000 0.0000
# 5 0.0000 0.0000 0.0000 0.0000 19.7431 0.0000
# 6 0.0000 0.0000 0.0000 0.0000 0.0000 18.5174
#
#
#
# Elastic Compliance Matrix: (Units=1/GPa)
#
#
# Indices 1 2 3 4 5 6 
#
# 1 0.008898 -0.002895 -0.001799 0.000000 0.000000 0.000000
# 2 -0.002895 0.008898 -0.001799 0.000000 0.000000 0.000000
# 3 -0.001799 -0.001799 0.010108 0.000000 0.000000 0.000000
# 4 0.000000 0.000000 0.000000 0.050649 0.000000 0.000000
# 5 0.000000 0.000000 0.000000 0.000000 0.050651 0.000000
# 6 0.000000 0.000000 0.000000 0.000000 0.000000 0.054003
#
#
# Mechanical properties :
#
#
# Convention : Reuss Voigt Hill
#
# Bulk Modulus (GPa) = 67.03316 68.49533 67.76425
# Shear Modulus (GPa) = 24.85519 29.25450 27.05484
#
# Velocity S-wave (km/s) = 3.47938 3.77476 3.63007
# Velocity P-wave (km/s) = 6.98504 7.23602 7.11164
#
# Compressibility (1/GPa) = 0.01491799
#
# Stress axis : x y z
#
# Youngs Moduli (GPa) = 112.39028 112.39007 98.92703
#
# Poissons Ratio (x) = 0.32535 0.17798
# Poissons Ratio (y) = 0.32535 0.17797
# Poissons Ratio (z) = 0.20220 0.20219
#
# Static dielectric constant tensor:
#      x y z
#    x 3.678460 0.000000 0.000000 
#    y 0.000000 3.678470 0.000000 
#    z 0.000000 0.000000 4.071830 
# 
# 
# High freq. dielectric constant tensor:
#      x y z
#    x 1.798980 0.000000 0.000000 
#    y 0.000000 1.798980 0.000000 
#    z 0.000000 0.000000 1.812850 
# 
# From -- ./inp_files/1043.got.cif
#   From: 2010.03.12/outbox.cif.g09.slc.cpg/sg119_1_cif.got.tgz:1043.got - 2010.04.14 02:25:26.
