data_PCOD8311256
_publ_section_title
;
Structure prediction by ZEFSAII (Michael W. Deem and Ramdas Pophale) SiO2 
 PCOD8311256
Probable space group: I -4 C 2
;
_chemical_formula_sum "Si O2"
_cell_formula_units_Z 116
_cell_length_a 18.712055
_cell_length_b 18.712055
_cell_length_c 15.819798
_cell_angle_alpha 90.000000
_cell_angle_beta 90.000000
_cell_angle_gamma 90.000000
_cell_volume 5539.159928
_symmetry_space_group_name_H-M "I -4 C 2"
_symmetry_group_IT_number 120
_symmetry_cell_setting 'tetragonal'
loop_
_space_group_symop_operation_xyz
x,y,z
y,-x,-z
-x,-y,z
-y,x,-z
y,x,1/2-z
-y,-x,1/2-z
-x,y,1/2+z
x,-y,1/2+z
1/2+x,1/2+y,1/2+z
1/2+y,1/2-x,1/2-z
1/2-x,1/2-y,1/2+z
1/2-y,1/2+x,1/2-z
1/2+y,1/2+x,-z
1/2-y,1/2-x,-z
1/2-x,1/2+y,z
1/2+x,1/2-y,z
loop_
_atom_site_type_symbol
_atom_site_label
_atom_site_fract_x
_atom_site_fract_y
_atom_site_fract_z
Si Si1 0.255588 0.853291 0.558665
Si Si2 0.120259 0.685682 0.755394
Si Si3 0.110956 0.777443 0.595361
Si Si4 0.466896 0.851231 0.798506
Si Si5 0.613857 0.485547 0.650149
Si Si6 0.385833 0.493123 0.837735
Si Si7 0.500000 0.000000 0.750000
Si Si8 0.257328 0.014374 0.546031
O O1 0.299276 0.799276 0.500000
O O2 0.280470 0.854489 0.656433
O O3 0.173031 0.828428 0.558849
O O4 0.266655 0.931801 0.517093
O O5 0.143188 0.734516 0.675438
O O6 0.158517 0.608235 0.750686
O O7 0.033931 0.682320 0.747967
O O8 0.077020 0.728419 0.522251
O O9 0.036389 0.817440 0.615456
O O10 0.461943 0.817616 0.889583
O O11 0.481098 0.935203 0.812422
O O12 0.639180 0.475852 0.746770
O O13 0.560336 0.423696 0.616584
O O14 0.573565 0.560475 0.659707
O O15 0.678821 0.483605 0.586613
#
# Coordination Sequence:
#
# PCOD8311256 Si02
#       8
#    16  16  16  16  16  16   4  16
#     4  11  26  46  66  95 137 179 224 274 339 401
#     4  10  23  43  73  93 127 172 218 280 340 415
#     4  12  25  39  67  94 135 180 223 266 336 406
#     4   9  20  41  69  98 123 158 219 278 338 402
#     4   9  18  35  58  90 126 170 219 271 307 380
#     4   9  18  34  60  86 124 176 226 255 315 375
#     4   8  16  40  72  94 116 164 210 276 350 400
#     4  11  24  40  62  99 138 167 224 276 326 399
#
# _framework density 20.941804000000001
#
# number of rings (size 3 to 8) (size 9 to 14) (size 15 to 20)
#    0.000    1.931    1.379    2.897    7.724    0.000 
#    0.000    1.379    0.000    0.000    0.000    0.000 
#    0.000    0.000    0.000    0.000    0.000    0.000 
#
# Total GULP energy -718552.204005 kJ/mol
# GULP energy per Si atom -12388.831104 kJ/mol
# Density = 2.089414 g / cm^3
# Si number density = 20.941804 Si / 1000 Ang^3
#
#
#
# Elastic Constant Matrix: (Units=GPa)
#
#
# Indices 1 2 3 4 5 6 
#
# 1 69.9396 47.7849 40.4454 0.0000 0.0000 0.0000
# 2 47.7849 69.9396 40.4454 0.0000 0.0000 0.0000
# 3 40.4454 40.4454 92.5442 0.0000 0.0000 0.0000
# 4 0.0000 0.0000 0.0000 30.3415 0.0000 0.0000
# 5 0.0000 0.0000 0.0000 0.0000 30.3415 0.0000
# 6 0.0000 0.0000 0.0000 0.0000 0.0000 18.1693
#
#
#
# Elastic Compliance Matrix: (Units=1/GPa)
#
#
# Indices 1 2 3 4 5 6 
#
# 1 0.028639 -0.016499 -0.005306 0.000000 0.000000 0.000000
# 2 -0.016499 0.028639 -0.005306 0.000000 0.000000 0.000000
# 3 -0.005306 -0.005306 0.015443 0.000000 0.000000 0.000000
# 4 0.000000 0.000000 0.000000 0.032958 0.000000 0.000000
# 5 0.000000 0.000000 0.000000 0.000000 0.032958 0.000000
# 6 0.000000 0.000000 0.000000 0.000000 0.000000 0.055038
#
#
# Mechanical properties :
#
#
# Convention : Reuss Voigt Hill
#
# Bulk Modulus (GPa) = 54.05224 54.41942 54.23583
# Shear Modulus (GPa) = 19.68028 22.68697 21.18363
#
# Velocity S-wave (km/s) = 3.06888 3.29497 3.18393
# Velocity P-wave (km/s) = 6.19872 6.36539 6.28261
#
# Compressibility (1/GPa) = 0.01850062
#
# Stress axis : x y z
#
# Youngs Moduli (GPa) = 34.91787 34.91787 64.75328
#
# Poissons Ratio (x) = 0.57610 0.34356
# Poissons Ratio (y) = 0.57610 0.34356
# Poissons Ratio (z) = 0.18526 0.18526
#
# Static dielectric constant tensor:
#      x y z
#    x 3.839660 0.000000 0.000000 
#    y 0.000000 3.839660 0.000000 
#    z 0.000000 0.000000 3.722170 
# 
# 
# High freq. dielectric constant tensor:
#      x y z
#    x 1.821160 0.000000 0.000000 
#    y 0.000000 1.821160 0.000000 
#    z 0.000000 0.000000 1.804550 
# 
# From -- ./inp_files/4571.got.cif
#   From: 2010.03.12/outbox.cif.g09.slc.cpg/sg120_3_cif.got.tgz:4571.got - 2010.04.06 16:00:44.
