data_PCOD8311480
_publ_section_title
;
Structure prediction by ZEFSAII (Michael W. Deem and Ramdas Pophale) SiO2 
 PCOD8311480
Probable space group: I -4 2 M
;
_chemical_formula_sum "Si O2"
_cell_formula_units_Z 96
_cell_length_a 13.890433
_cell_length_b 13.890433
_cell_length_c 25.943926
_cell_angle_alpha 90.000000
_cell_angle_beta 90.000000
_cell_angle_gamma 90.000000
_cell_volume 5005.728203
_symmetry_space_group_name_H-M "I -4 2 M"
_symmetry_group_IT_number 121
_symmetry_cell_setting 'tetragonal'
loop_
_space_group_symop_operation_xyz
x,y,z
y,-x,-z
-x,-y,z
-y,x,-z
x,-y,-z
-x,y,-z
-y,-x,z
y,x,z
1/2+x,1/2+y,1/2+z
1/2+y,1/2-x,1/2-z
1/2-x,1/2-y,1/2+z
1/2-y,1/2+x,1/2-z
1/2+x,1/2-y,1/2-z
1/2-x,1/2+y,1/2-z
1/2-y,1/2-x,1/2+z
1/2+y,1/2+x,1/2+z
loop_
_atom_site_type_symbol
_atom_site_label
_atom_site_fract_x
_atom_site_fract_y
_atom_site_fract_z
Si Si1 0.818854 0.334057 0.442684
Si Si2 0.286720 0.133580 0.444228
Si Si3 0.040706 0.194249 0.606016
Si Si4 0.500662 0.143577 0.273528
Si Si5 0.610690 0.015314 0.106874
Si Si6 0.999920 0.157569 0.721271
O O1 0.710399 0.289602 0.444620
O O2 0.873367 0.321951 0.496981
O O3 0.880121 0.277863 0.399444
O O4 0.819648 0.446173 0.427167
O O5 0.233312 0.233312 0.434647
O O6 0.374988 0.135728 0.404864
O O7 0.213135 0.045984 0.433550
O O8 0.090164 0.090164 0.594516
O O9 0.999144 0.198944 0.663524
O O10 0.403939 0.094427 0.252255
O O11 0.507748 0.128728 0.334070
O O12 0.499715 0.256389 0.261959
O O13 0.500000 0.000000 0.091306
O O14 0.904485 0.095516 0.730528
O O15 0.094903 0.094903 0.730991
#
# Coordination Sequence:
#
# PCOD8311480 Si02
#       6
#    16  16  16  16  16  16
#     4  10  22  38  58  87 117 149 193 237 281 339
#     4  11  23  37  57  88 119 150 194 236 279 340
#     4  10  19  34  56  84 119 155 187 226 280 339
#     4  11  22  38  57  84 117 144 186 241 287 332
#     4  12  22  38  64  83 113 153 191 236 287 337
#     4  10  22  39  59  83 113 151 193 231 276 341
#
# _framework density 19.178028999999999
#
# number of rings (size 3 to 8) (size 9 to 14) (size 15 to 20)
#    0.000    1.333    3.333    3.500    0.000    3.667 
#    0.000    0.833    0.000    6.500    0.000    2.333 
#    0.000    0.000    0.000    0.000    0.000    0.000 
#
# Total GULP energy -595353.870211 kJ/mol
# GULP energy per Si atom -12403.205629 kJ/mol
# Density = 1.913438 g / cm^3
# Si number density = 19.178029 Si / 1000 Ang^3
#
#
#
# Elastic Constant Matrix: (Units=GPa)
#
#
# Indices 1 2 3 4 5 6 
#
# 1 93.4055 39.2113 30.0133 0.0000 0.0000 0.0000
# 2 39.2113 93.4044 30.0124 0.0000 0.0000 0.0000
# 3 30.0133 30.0124 59.6237 0.0000 0.0000 0.0000
# 4 0.0000 0.0000 0.0000 17.8624 0.0000 0.0000
# 5 0.0000 0.0000 0.0000 0.0000 17.8623 0.0000
# 6 0.0000 0.0000 0.0000 0.0000 0.0000 22.1696
#
#
#
# Elastic Compliance Matrix: (Units=1/GPa)
#
#
# Indices 1 2 3 4 5 6 
#
# 1 0.014109 -0.004343 -0.004916 0.000000 0.000000 0.000000
# 2 -0.004343 0.014109 -0.004916 0.000000 0.000000 0.000000
# 3 -0.004916 -0.004916 0.021721 0.000000 0.000000 0.000000
# 4 0.000000 0.000000 0.000000 0.055984 0.000000 0.000000
# 5 0.000000 0.000000 0.000000 0.000000 0.055984 0.000000
# 6 0.000000 0.000000 0.000000 0.000000 0.000000 0.045107
#
#
# Mechanical properties :
#
#
# Convention : Reuss Voigt Hill
#
# Bulk Modulus (GPa) = 46.31988 49.43416 47.87702
# Shear Modulus (GPa) = 20.61359 21.39198 21.00278
#
# Velocity S-wave (km/s) = 3.28205 3.34345 3.31289
# Velocity P-wave (km/s) = 6.21027 6.38257 6.29701
#
# Compressibility (1/GPa) = 0.02158900
#
# Stress axis : x y z
#
# Youngs Moduli (GPa) = 70.87715 70.87701 46.03908
#
# Poissons Ratio (x) = 0.30785 0.22632
# Poissons Ratio (y) = 0.30785 0.22631
# Poissons Ratio (z) = 0.34842 0.34840
#
# Static dielectric constant tensor:
#      x y z
#    x 3.522840 0.000000 0.000000 
#    y 0.000000 3.522850 0.000000 
#    z 0.000000 0.000000 3.430790 
# 
# 
# High freq. dielectric constant tensor:
#      x y z
#    x 1.740020 0.000000 0.000000 
#    y 0.000000 1.740020 0.000000 
#    z 0.000000 0.000000 1.746600 
# 
# From -- ./inp_files/6440.got.cif
#   From: 2010.03.12/outbox.cif.g09.slc.cpg/sg121_4_cif.got.tgz:6440.got - 2010.04.06 16:06:48.
