data_PCOD8311938
_publ_section_title
;
Structure prediction by ZEFSAII (Michael W. Deem and Ramdas Pophale) SiO2 
 PCOD8311938
Probable space group: I -4 2 D
;
_chemical_formula_sum "Si O2"
_cell_formula_units_Z 64
_cell_length_a 11.812977
_cell_length_b 11.812977
_cell_length_c 22.020578
_cell_angle_alpha 90.000000
_cell_angle_beta 90.000000
_cell_angle_gamma 90.000000
_cell_volume 3072.892950
_symmetry_space_group_name_H-M "I -4 2 D"
_symmetry_group_IT_number 122
_symmetry_cell_setting 'tetragonal'
loop_
_space_group_symop_operation_xyz
x,y,z
y,-x,-z
-x,-y,z
-y,x,-z
x,1/2-y,1/4-z
-x,1/2+y,1/4-z
-y,1/2-x,1/4+z
y,1/2+x,1/4+z
1/2+x,1/2+y,1/2+z
1/2+y,1/2-x,1/2-z
1/2-x,1/2-y,1/2+z
1/2-y,1/2+x,1/2-z
1/2+x,-y,3/4-z
1/2-x,y,3/4-z
1/2-y,-x,3/4+z
1/2+y,x,3/4+z
loop_
_atom_site_type_symbol
_atom_site_label
_atom_site_fract_x
_atom_site_fract_y
_atom_site_fract_z
Si Si1 0.567133 0.605061 0.168608
Si Si2 0.561348 0.182302 0.813842
Si Si3 0.666740 0.550354 0.426257
Si Si4 0.473428 0.158736 0.216436
O O1 0.500000 0.500000 0.198872
O O2 0.699373 0.583256 0.152453
O O3 0.553523 0.707543 0.216887
O O4 0.508571 0.626307 0.103835
O O5 0.442270 0.128229 0.831314
O O6 0.569417 0.215644 0.743135
O O7 0.649505 0.084686 0.832369
O O8 0.750000 0.595539 0.375000
O O9 0.589368 0.129701 0.252317
#
# Coordination Sequence:
#
# PCOD8311938 Si02
#       4
#    16  16  16  16
#     4  11  23  41  66  97 126 175 223 265 334 407
#     4   9  21  39  59  96 129 159 228 264 316 407
#     4   9  19  40  64  87 131 175 202 277 335 370
#     4  10  22  44  66  88 134 175 210 278 336 386
#
# _framework density 20.827279000000001
#
# number of rings (size 3 to 8) (size 9 to 14) (size 15 to 20)
#    0.000    2.250    2.500    1.500    3.500    6.000 
#    9.000    0.000    0.000    0.000    0.000    0.000 
#    0.000    0.000    0.000    0.000    0.000    0.000 
#
# Total GULP energy -396584.660663 kJ/mol
# GULP energy per Si atom -12393.270646 kJ/mol
# Density = 2.077987 g / cm^3
# Si number density = 20.827279 Si / 1000 Ang^3
#
#
#
# Elastic Constant Matrix: (Units=GPa)
#
#
# Indices 1 2 3 4 5 6 
#
# 1 129.2462 40.4239 30.2608 0.0000 0.0000 0.0000
# 2 40.4239 129.2462 30.2608 0.0000 0.0000 0.0000
# 3 30.2608 30.2608 85.4752 0.0000 0.0000 0.0000
# 4 0.0000 0.0000 0.0000 28.1539 0.0000 0.0000
# 5 0.0000 0.0000 0.0000 0.0000 28.1539 0.0000
# 6 0.0000 0.0000 0.0000 0.0000 0.0000 15.1306
#
#
#
# Elastic Compliance Matrix: (Units=1/GPa)
#
#
# Indices 1 2 3 4 5 6 
#
# 1 0.009002 -0.002256 -0.002388 0.000000 0.000000 0.000000
# 2 -0.002256 0.009002 -0.002388 0.000000 0.000000 0.000000
# 3 -0.002388 -0.002388 0.013390 0.000000 0.000000 0.000000
# 4 0.000000 0.000000 0.000000 0.035519 0.000000 0.000000
# 5 0.000000 0.000000 0.000000 0.000000 0.035519 0.000000
# 6 0.000000 0.000000 0.000000 0.000000 0.000000 0.066091
#
#
# Mechanical properties :
#
#
# Convention : Reuss Voigt Hill
#
# Bulk Modulus (GPa) = 57.70705 60.65097 59.17901
# Shear Modulus (GPa) = 26.54416 30.48917 28.51667
#
# Velocity S-wave (km/s) = 3.57387 3.83025 3.70428
# Velocity P-wave (km/s) = 6.69311 6.98178 6.83897
#
# Compressibility (1/GPa) = 0.01732891
#
# Stress axis : x y z
#
# Youngs Moduli (GPa) = 111.08592 111.08592 74.68116
#
# Poissons Ratio (x) = 0.25065 0.17835
# Poissons Ratio (y) = 0.25065 0.17835
# Poissons Ratio (z) = 0.26529 0.26529
#
# Static dielectric constant tensor:
#      x y z
#    x 3.775490 0.000000 0.000000 
#    y 0.000000 3.775490 0.000000 
#    z 0.000000 0.000000 3.445720 
# 
# 
# High freq. dielectric constant tensor:
#      x y z
#    x 1.812850 0.000000 0.000000 
#    y 0.000000 1.812850 0.000000 
#    z 0.000000 0.000000 1.804650 
# 
# From -- ./inp_files/6925.got.cif
#   From: 2010.03.12/outbox.cif.g09.slc.cpg/sg122_4_cif.got.tgz:6925.got - 2010.04.06 16:17:16.
