data_PCOD8311337
_publ_section_title
;
Structure prediction by ZEFSAII (Michael W. Deem and Ramdas Pophale) SiO2 
 PCOD8311337
Probable space group: I -4 C 2
;
_chemical_formula_sum "Si O2"
_cell_formula_units_Z 44
_cell_length_a 9.615911
_cell_length_b 9.615911
_cell_length_c 19.544355
_cell_angle_alpha 90.000000
_cell_angle_beta 90.000000
_cell_angle_gamma 90.000000
_cell_volume 1807.183333
_symmetry_space_group_name_H-M "I -4 C 2"
_symmetry_group_IT_number 120
_symmetry_cell_setting 'tetragonal'
loop_
_space_group_symop_operation_xyz
x,y,z
y,-x,-z
-x,-y,z
-y,x,-z
y,x,1/2-z
-y,-x,1/2-z
-x,y,1/2+z
x,-y,1/2+z
1/2+x,1/2+y,1/2+z
1/2+y,1/2-x,1/2-z
1/2-x,1/2-y,1/2+z
1/2-y,1/2+x,1/2-z
1/2+y,1/2+x,-z
1/2-y,1/2-x,-z
1/2-x,1/2+y,z
1/2+x,1/2-y,z
loop_
_atom_site_type_symbol
_atom_site_label
_atom_site_fract_x
_atom_site_fract_y
_atom_site_fract_z
Si Si1 0.000000 0.000000 0.250000
Si Si2 0.585428 0.237482 0.340096
Si Si3 0.652314 0.268889 0.931845
Si Si4 0.000000 0.500000 0.750000
Si Si5 0.000000 0.000000 0.000000
O O1 0.866516 0.985743 0.200178
O O2 0.489593 0.201091 0.404800
O O3 0.738663 0.257884 0.370622
O O4 0.597536 0.103166 0.292528
O O5 0.619487 0.430712 0.951714
O O6 0.689754 0.189754 0.000000
#
# Coordination Sequence:
#
# PCOD8311337 Si02
#       5
#     4  16  16   4   4
#     4  12  26  52  78 106 152 216 248 318 396 466
#     4  12  27  46  78 107 159 199 269 315 399 480
#     4  12  27  47  80 112 153 207 262 329 411 468
#     4  12  28  44  66 116 148 204 256 322 376 468
#     4  12  26  52  72 122 160 210 260 340 422 468
#
# _framework density 24.347283000000001
#
# number of rings (size 3 to 8) (size 9 to 14) (size 15 to 20)
#    0.000    0.000    3.636    5.455    5.091    0.000 
#    0.000    0.000    0.000    0.000    0.000    0.000 
#    0.000    0.000    0.000    0.000    0.000    0.000 
#
# Total GULP energy -272674.842954 kJ/mol
# GULP energy per Si atom -12394.311043 kJ/mol
# Density = 2.429187 g / cm^3
# Si number density = 24.347283 Si / 1000 Ang^3
#
#
#
# Elastic Constant Matrix: (Units=GPa)
#
#
# Indices 1 2 3 4 5 6 
#
# 1 83.2593 29.0910 35.1045 0.0000 0.0000 0.0000
# 2 29.0910 83.2593 35.1045 0.0000 0.0000 0.0000
# 3 35.1045 35.1045 118.3911 0.0000 0.0000 0.0000
# 4 0.0000 0.0000 0.0000 33.3346 0.0000 0.0000
# 5 0.0000 0.0000 0.0000 0.0000 33.3346 0.0000
# 6 0.0000 0.0000 0.0000 0.0000 0.0000 43.0693
#
#
#
# Elastic Compliance Matrix: (Units=1/GPa)
#
#
# Indices 1 2 3 4 5 6 
#
# 1 0.014693 -0.003768 -0.003239 0.000000 0.000000 0.000000
# 2 -0.003768 0.014693 -0.003239 0.000000 0.000000 0.000000
# 3 -0.003239 -0.003239 0.010368 0.000000 0.000000 0.000000
# 4 0.000000 0.000000 0.000000 0.029999 0.000000 0.000000
# 5 0.000000 0.000000 0.000000 0.000000 0.029999 0.000000
# 6 0.000000 0.000000 0.000000 0.000000 0.000000 0.023218
#
#
# Mechanical properties :
#
#
# Convention : Reuss Voigt Hill
#
# Bulk Modulus (GPa) = 51.92083 53.72332 52.82208
# Shear Modulus (GPa) = 33.35924 34.32168 33.84046
#
# Velocity S-wave (km/s) = 3.70556 3.75863 3.73219
# Velocity P-wave (km/s) = 6.29918 6.39920 6.34938
#
# Compressibility (1/GPa) = 0.01926009
#
# Stress axis : x y z
#
# Youngs Moduli (GPa) = 68.05948 68.05948 96.45390
#
# Poissons Ratio (x) = 0.25644 0.31246
# Poissons Ratio (y) = 0.25644 0.31246
# Poissons Ratio (z) = 0.22047 0.22047
#
# Static dielectric constant tensor:
#      x y z
#    x 4.354450 0.000000 0.000000 
#    y 0.000000 4.354450 0.000000 
#    z 0.000000 0.000000 4.853510 
# 
# 
# High freq. dielectric constant tensor:
#      x y z
#    x 1.965090 0.000000 0.000000 
#    y 0.000000 1.965090 0.000000 
#    z 0.000000 0.000000 1.994820 
# 
# From -- ./inp_files/4028.got.cif
#   From: 2010.03.12/outbox.cif.g09.slc.cpg/sg120_3_cif.got.tgz:4028.got - 2010.04.06 16:00:44.
