data_PCOD8311711
_publ_section_title
;
Structure prediction by ZEFSAII (Michael W. Deem and Ramdas Pophale) SiO2 
 PCOD8311711
Probable space group: I -4 2 M
;
_chemical_formula_sum "Si O2"
_cell_formula_units_Z 48
_cell_length_a 15.521751
_cell_length_b 15.521751
_cell_length_c 7.336197
_cell_angle_alpha 90.000000
_cell_angle_beta 90.000000
_cell_angle_gamma 90.000000
_cell_volume 1767.471458
_symmetry_space_group_name_H-M "I -4 2 M"
_symmetry_group_IT_number 121
_symmetry_cell_setting 'tetragonal'
loop_
_space_group_symop_operation_xyz
x,y,z
y,-x,-z
-x,-y,z
-y,x,-z
x,-y,-z
-x,y,-z
-y,-x,z
y,x,z
1/2+x,1/2+y,1/2+z
1/2+y,1/2-x,1/2-z
1/2-x,1/2-y,1/2+z
1/2-y,1/2+x,1/2-z
1/2+x,1/2-y,1/2-z
1/2-x,1/2+y,1/2-z
1/2-y,1/2-x,1/2+z
1/2+y,1/2+x,1/2+z
loop_
_atom_site_type_symbol
_atom_site_label
_atom_site_fract_x
_atom_site_fract_y
_atom_site_fract_z
Si Si1 0.406701 0.731574 0.963084
Si Si2 0.906701 0.231574 0.036915
Si Si3 0.874617 0.571234 0.750000
O O1 0.334099 0.665902 0.033474
O O2 0.392383 0.753020 0.749999
O O3 0.599333 0.820703 0.927028
O O4 0.500000 0.688154 0.000000
O O5 0.834097 0.165903 0.966524
O O6 0.900668 0.320703 0.927029
O O7 0.000000 0.188153 0.000000
O O8 0.884758 0.468073 0.750002
#
# Coordination Sequence:
#
# PCOD8311711 Si02
#       3
#    16  16  16
#     4  11  25  50  83 118 159 211 273 340 412 492
#     4  11  25  50  83 118 159 211 273 340 412 492
#     4  11  27  52  82 119 167 217 272 337 412 498
#
# _framework density 27.157440000000001
#
# number of rings (size 3 to 8) (size 9 to 14) (size 15 to 20)
#    0.000    1.000    3.333    1.000    0.000    6.000 
#    0.000   20.000    0.000    0.000    0.000    0.000 
#    0.000    0.000    0.000    0.000    0.000    0.000 
#
# Total GULP energy -297500.171774 kJ/mol
# GULP energy per Si atom -12395.840491 kJ/mol
# Density = 2.709563 g / cm^3
# Si number density = 27.157440 Si / 1000 Ang^3
#
#
#
# Elastic Constant Matrix: (Units=GPa)
#
#
# Indices 1 2 3 4 5 6 
#
# 1 204.7988 156.0060 85.8191 0.0000 0.0000 0.0000
# 2 156.0060 204.7994 85.8197 0.0000 0.0000 0.0000
# 3 85.8191 85.8197 190.3310 0.0000 0.0000 0.0000
# 4 0.0000 0.0000 0.0000 56.4086 0.0000 0.0000
# 5 0.0000 0.0000 0.0000 0.0000 56.4084 0.0000
# 6 0.0000 0.0000 0.0000 0.0000 0.0000 81.1592
#
#
#
# Elastic Compliance Matrix: (Units=1/GPa)
#
#
# Indices 1 2 3 4 5 6 
#
# 1 0.012012 -0.008483 -0.001591 0.000000 0.000000 0.000000
# 2 -0.008483 0.012012 -0.001591 0.000000 0.000000 0.000000
# 3 -0.001591 -0.001591 0.006689 0.000000 0.000000 0.000000
# 4 0.000000 0.000000 0.000000 0.017728 0.000000 0.000000
# 5 0.000000 0.000000 0.000000 0.000000 0.017728 0.000000
# 6 0.000000 0.000000 0.000000 0.000000 0.000000 0.012321
#
#
# Mechanical properties :
#
#
# Convention : Reuss Voigt Hill
#
# Bulk Modulus (GPa) = 135.46929 139.46873 137.46901
# Shear Modulus (GPa) = 47.94804 56.94754 52.44779
#
# Velocity S-wave (km/s) = 4.20641 4.58420 4.39937
# Velocity P-wave (km/s) = 8.57806 8.91555 8.74843
#
# Compressibility (1/GPa) = 0.00738175
#
# Stress axis : x y z
#
# Youngs Moduli (GPa) = 83.25320 83.25322 149.50583
#
# Poissons Ratio (x) = 0.70625 0.23785
# Poissons Ratio (y) = 0.70625 0.23786
# Poissons Ratio (z) = 0.13245 0.13245
#
# Static dielectric constant tensor:
#      x y z
#    x 5.464320 0.000000 0.000000 
#    y 0.000000 5.464320 0.000000 
#    z 0.000000 0.000000 5.894460 
# 
# 
# High freq. dielectric constant tensor:
#      x y z
#    x 2.111700 0.000000 0.000000 
#    y 0.000000 2.111700 0.000000 
#    z 0.000000 0.000000 2.126270 
# 
# From -- ./inp_files/2634.got.cif
#   From: 2010.03.12/outbox.cif.g09.slc.cpg/sg121_2_cif.got.tgz:2634.got - 2010.04.06 16:06:48.
