data_PCOD8311100
_publ_section_title
;
Structure prediction by ZEFSAII (Michael W. Deem and Ramdas Pophale) SiO2 
 PCOD8311100
Probable space group: I -4 M 2
;
_chemical_formula_sum "Si O2"
_cell_formula_units_Z 48
_cell_length_a 7.730689
_cell_length_b 7.730689
_cell_length_c 38.362433
_cell_angle_alpha 90.000000
_cell_angle_beta 90.000000
_cell_angle_gamma 90.000000
_cell_volume 2292.675275
_symmetry_space_group_name_H-M "I -4 M 2"
_symmetry_group_IT_number 119
_symmetry_cell_setting 'tetragonal'
loop_
_space_group_symop_operation_xyz
x,y,z
y,-x,-z
-x,-y,z
-y,x,-z
y,x,-z
-y,-x,-z
-x,y,z
x,-y,z
1/2+x,1/2+y,1/2+z
1/2+y,1/2-x,1/2-z
1/2-x,1/2-y,1/2+z
1/2-y,1/2+x,1/2-z
1/2+y,1/2+x,1/2-z
1/2-y,1/2-x,1/2-z
1/2-x,1/2+y,1/2+z
1/2+x,1/2-y,1/2+z
loop_
_atom_site_type_symbol
_atom_site_label
_atom_site_fract_x
_atom_site_fract_y
_atom_site_fract_z
Si Si1 0.297538 0.500000 0.801859
Si Si2 0.200758 0.700758 0.250000
Si Si3 0.204496 0.690095 0.425988
Si Si4 0.792753 0.000000 0.379316
Si Si5 0.798819 0.798819 0.500000
O O1 0.500000 0.500000 0.806659
O O2 0.243103 0.324417 0.781863
O O3 0.213277 0.500000 0.840300
O O4 0.231198 0.500000 0.260768
O O5 0.254240 0.500000 0.411839
O O6 0.280411 0.831282 0.399324
O O7 0.278612 0.710448 0.465211
O O8 0.000000 0.716913 0.428244
O O9 0.000000 0.000000 0.378468
O O10 0.000000 0.760048 0.504172
#
# Coordination Sequence:
#
# PCOD8311100 Si02
#       5
#     8   8  16   8   8
#     4   9  18  31  51  77 110 147 183 228 275 333
#     4   9  18  33  52  80 112 141 182 227 270 324
#     4   9  16  25  41  69 101 136 179 222 270 323
#     4   9  16  28  43  71 109 138 173 225 276 321
#     4   9  14  24  42  63  94 134 176 227 270 311
#
# _framework density 20.936239
#
# number of rings (size 3 to 8) (size 9 to 14) (size 15 to 20)
#    0.000    3.000    1.667    0.000    0.000    1.667 
#    0.000    6.667    0.000    0.500    8.667    0.000 
#    0.000    0.000    0.000    0.000    0.000    0.000 
#
# Total GULP energy -297428.290228 kJ/mol
# GULP energy per Si atom -12392.845426 kJ/mol
# Density = 2.088859 g / cm^3
# Si number density = 20.936239 Si / 1000 Ang^3
#
#
#
# Elastic Constant Matrix: (Units=GPa)
#
#
# Indices 1 2 3 4 5 6 
#
# 1 70.5393 45.0872 63.4121 0.0000 0.0000 0.0000
# 2 45.0872 70.5392 63.4121 0.0000 0.0000 0.0000
# 3 63.4121 63.4121 201.4858 0.0000 0.0000 0.0000
# 4 0.0000 0.0000 0.0000 6.0569 0.0000 0.0000
# 5 0.0000 0.0000 0.0000 0.0000 6.0570 0.0000
# 6 0.0000 0.0000 0.0000 0.0000 0.0000 3.9735
#
#
#
# Elastic Compliance Matrix: (Units=1/GPa)
#
#
# Indices 1 2 3 4 5 6 
#
# 1 0.026249 -0.013041 -0.004157 0.000000 0.000000 0.000000
# 2 -0.013041 0.026249 -0.004157 0.000000 0.000000 0.000000
# 3 -0.004157 -0.004157 0.007580 0.000000 0.000000 0.000000
# 4 0.000000 0.000000 0.000000 0.165100 0.000000 0.000000
# 5 0.000000 0.000000 0.000000 0.000000 0.165099 0.000000
# 6 0.000000 0.000000 0.000000 0.000000 0.000000 0.251664
#
#
# Mechanical properties :
#
#
# Convention : Reuss Voigt Hill
#
# Bulk Modulus (GPa) = 57.57659 76.26521 66.92090
# Shear Modulus (GPa) = 7.24177 14.59436 10.91807
#
# Velocity S-wave (km/s) = 1.86185 2.64310 2.28610
# Velocity P-wave (km/s) = 5.67297 6.76913 6.24515
#
# Compressibility (1/GPa) = 0.01736817
#
# Stress axis : x y z
#
# Youngs Moduli (GPa) = 38.09709 38.09706 131.93272
#
# Poissons Ratio (x) = 0.49682 0.54842
# Poissons Ratio (y) = 0.49682 0.54842
# Poissons Ratio (z) = 0.15836 0.15836
#
# Static dielectric constant tensor:
#      x y z
#    x 3.529900 0.000000 0.000000 
#    y 0.000000 3.529900 0.000000 
#    z 0.000000 0.000000 4.102000 
# 
# 
# High freq. dielectric constant tensor:
#      x y z
#    x 1.796900 0.000000 0.000000 
#    y 0.000000 1.796900 0.000000 
#    z 0.000000 0.000000 1.812940 
# 
# From -- ./inp_files/9911.got.cif
#   From: 2010.03.12/outbox.cif.g09.slc.cpg/sg119_5_cif.got.tgz:9911.got - 2010.04.14 02:25:26.
