data_PCOD8311667
_publ_section_title
;
Structure prediction by ZEFSAII (Michael W. Deem and Ramdas Pophale) SiO2 
 PCOD8311667
Probable space group: I -4 2 M
;
_chemical_formula_sum "Si O2"
_cell_formula_units_Z 72
_cell_length_a 13.827658
_cell_length_b 13.827658
_cell_length_c 18.080056
_cell_angle_alpha 90.000000
_cell_angle_beta 90.000000
_cell_angle_gamma 90.000000
_cell_volume 3456.981301
_symmetry_space_group_name_H-M "I -4 2 M"
_symmetry_group_IT_number 121
_symmetry_cell_setting 'tetragonal'
loop_
_space_group_symop_operation_xyz
x,y,z
y,-x,-z
-x,-y,z
-y,x,-z
x,-y,-z
-x,y,-z
-y,-x,z
y,x,z
1/2+x,1/2+y,1/2+z
1/2+y,1/2-x,1/2-z
1/2-x,1/2-y,1/2+z
1/2-y,1/2+x,1/2-z
1/2+x,1/2-y,1/2-z
1/2-x,1/2+y,1/2-z
1/2-y,1/2-x,1/2+z
1/2+y,1/2+x,1/2+z
loop_
_atom_site_type_symbol
_atom_site_label
_atom_site_fract_x
_atom_site_fract_y
_atom_site_fract_z
Si Si1 0.204315 0.795686 0.595041
Si Si2 0.107957 0.892044 0.295042
Si Si3 0.389055 0.892496 0.910737
Si Si4 0.894773 0.105228 0.471993
Si Si5 0.893039 0.392952 0.085781
Si Si6 0.255234 0.744767 0.324769
Si Si7 0.610593 0.610593 0.774950
O O1 0.181224 0.818777 0.508371
O O2 0.315054 0.817399 0.617471
O O3 0.133823 0.866178 0.640241
O O4 0.109176 0.890825 0.384172
O O5 0.188011 0.811990 0.271296
O O6 0.002587 0.865574 0.262633
O O7 0.498648 0.862900 0.889109
O O8 0.313533 0.819672 0.875762
O O9 0.367277 0.001434 0.881837
O O10 0.381807 0.892983 0.998239
O O11 0.000000 0.135842 0.500000
O O12 0.324117 0.675884 0.277957
#
# Coordination Sequence:
#
# PCOD8311667 Si02
#       7
#     8   8  16   8  16   8   8
#     4  12  20  31  59  94 116 154 192 245 321 379
#     4  11  22  44  61  88 125 160 208 265 310 371
#     4   9  19  37  55  87 117 154 187 247 308 363
#     4  11  19  32  61 100 132 145 186 272 344 371
#     4   9  19  34  59  86 122 143 189 251 310 360
#     4  12  24  39  63  83 117 169 210 238 302 381
#     4  11  25  39  56  84 126 163 198 246 301 374
#
# _framework density 20.827418000000002
#
# number of rings (size 3 to 8) (size 9 to 14) (size 15 to 20)
#    0.000    1.667    2.222    5.333    3.111    1.778 
#    0.000    1.111    0.000    2.667    0.000    3.111 
#    0.000    0.000    0.000    0.000    0.000    0.000 
#
# Total GULP energy -446229.319492 kJ/mol
# GULP energy per Si atom -12395.258875 kJ/mol
# Density = 2.078001 g / cm^3
# Si number density = 20.827418 Si / 1000 Ang^3
#
#
#
# Elastic Constant Matrix: (Units=GPa)
#
#
# Indices 1 2 3 4 5 6 
#
# 1 157.4545 111.0600 31.0948 0.0000 0.0000 0.0000
# 2 111.0600 157.4546 31.0954 0.0000 0.0000 0.0000
# 3 31.0948 31.0954 42.6807 0.0000 0.0000 0.0000
# 4 0.0000 0.0000 0.0000 25.3651 0.0000 0.0000
# 5 0.0000 0.0000 0.0000 0.0000 25.3650 0.0000
# 6 0.0000 0.0000 0.0000 0.0000 0.0000 46.6334
#
#
#
# Elastic Compliance Matrix: (Units=1/GPa)
#
#
# Indices 1 2 3 4 5 6 
#
# 1 0.013017 -0.008537 -0.003264 0.000000 0.000000 0.000000
# 2 -0.008537 0.013017 -0.003264 0.000000 0.000000 0.000000
# 3 -0.003264 -0.003264 0.028186 0.000000 0.000000 0.000000
# 4 0.000000 0.000000 0.000000 0.039424 0.000000 0.000000
# 5 0.000000 0.000000 0.000000 0.000000 0.039424 0.000000
# 6 0.000000 0.000000 0.000000 0.000000 0.000000 0.021444
#
#
# Mechanical properties :
#
#
# Convention : Reuss Voigt Hill
#
# Bulk Modulus (GPa) = 41.51097 78.23226 59.87162
# Shear Modulus (GPa) = 25.95069 31.76199 28.85634
#
# Velocity S-wave (km/s) = 3.53368 3.90937 3.72627
# Velocity P-wave (km/s) = 6.05173 7.61717 6.87912
#
# Compressibility (1/GPa) = 0.02409002
#
# Stress axis : x y z
#
# Youngs Moduli (GPa) = 76.82150 76.82102 35.47881
#
# Poissons Ratio (x) = 0.65583 0.11580
# Poissons Ratio (y) = 0.65583 0.11581
# Poissons Ratio (z) = 0.25073 0.25076
#
# Static dielectric constant tensor:
#      x y z
#    x 4.187000 0.000000 0.000000 
#    y 0.000000 4.186990 0.000000 
#    z 0.000000 0.000000 3.306890 
# 
# 
# High freq. dielectric constant tensor:
#      x y z
#    x 1.824310 0.000000 0.000000 
#    y 0.000000 1.824310 0.000000 
#    z 0.000000 0.000000 1.773810 
# 
# From -- ./inp_files/5254.got.cif
#   From: 2010.03.12/outbox.cif.g09.slc.cpg/sg121_3_cif.got.tgz:5254.got - 2010.04.06 16:06:48.
