data_PCOD8311090
_publ_section_title
;
Structure prediction by ZEFSAII (Michael W. Deem and Ramdas Pophale) SiO2 
 PCOD8311090
Probable space group: I -4 M 2
;
_chemical_formula_sum "Si O2"
_cell_formula_units_Z 40
_cell_length_a 10.963791
_cell_length_b 10.963791
_cell_length_c 15.240902
_cell_angle_alpha 90.000000
_cell_angle_beta 90.000000
_cell_angle_gamma 90.000000
_cell_volume 1832.028252
_symmetry_space_group_name_H-M "I -4 M 2"
_symmetry_group_IT_number 119
_symmetry_cell_setting 'tetragonal'
loop_
_space_group_symop_operation_xyz
x,y,z
y,-x,-z
-x,-y,z
-y,x,-z
y,x,-z
-y,-x,-z
-x,y,z
x,-y,z
1/2+x,1/2+y,1/2+z
1/2+y,1/2-x,1/2-z
1/2-x,1/2-y,1/2+z
1/2-y,1/2+x,1/2-z
1/2+y,1/2+x,1/2-z
1/2-y,1/2-x,1/2-z
1/2-x,1/2+y,1/2+z
1/2+x,1/2-y,1/2+z
loop_
_atom_site_type_symbol
_atom_site_label
_atom_site_fract_x
_atom_site_fract_y
_atom_site_fract_z
Si Si1 0.212130 0.755357 0.897998
Si Si2 0.641394 0.000000 0.338304
Si Si3 0.136836 0.000000 0.198953
Si Si4 0.360163 0.139838 0.750000
O O1 0.162386 0.618927 0.894805
O O2 0.330034 0.774870 0.834921
O O3 0.117479 0.855384 0.862939
O O4 0.231502 0.768499 0.000000
O O5 0.743193 0.000000 0.260862
O O6 0.500000 0.000000 0.305724
O O7 0.000000 0.000000 0.243472
O O8 0.500000 0.163378 0.724496
#
# Coordination Sequence:
#
# PCOD8311090 Si02
#       4
#    16   8   8   8
#     4  12  28  45  72 106 142 187 245 301 369 437
#     4  12  26  50  78 107 146 198 247 310 373 458
#     4  12  26  44  74 103 148 186 243 302 363 430
#     4  11  26  48  71  98 142 190 237 300 374 437
#
# _framework density 21.833725000000001
#
# number of rings (size 3 to 8) (size 9 to 14) (size 15 to 20)
#    0.000    0.200    6.000    1.200   11.200    0.000 
#    0.000    0.000    0.000    0.000    0.000    0.000 
#    0.000    0.000    0.000    0.000    0.000    0.000 
#
# Total GULP energy -247761.116541 kJ/mol
# GULP energy per Si atom -12388.055827 kJ/mol
# Density = 2.178403 g / cm^3
# Si number density = 21.833725 Si / 1000 Ang^3
#
#
#
# Elastic Constant Matrix: (Units=GPa)
#
#
# Indices 1 2 3 4 5 6 
#
# 1 147.3247 48.5096 49.5425 0.0000 0.0000 0.0000
# 2 48.5096 147.3241 49.5418 0.0000 0.0000 0.0000
# 3 49.5425 49.5418 172.8833 0.0000 0.0000 0.0000
# 4 0.0000 0.0000 0.0000 25.7081 0.0000 0.0000
# 5 0.0000 0.0000 0.0000 0.0000 25.7102 0.0000
# 6 0.0000 0.0000 0.0000 0.0000 0.0000 33.2908
#
#
#
# Elastic Compliance Matrix: (Units=1/GPa)
#
#
# Indices 1 2 3 4 5 6 
#
# 1 0.008046 -0.002074 -0.001711 0.000000 0.000000 0.000000
# 2 -0.002074 0.008046 -0.001711 0.000000 0.000000 0.000000
# 3 -0.001711 -0.001711 0.006765 0.000000 0.000000 0.000000
# 4 0.000000 0.000000 0.000000 0.038898 0.000000 0.000000
# 5 0.000000 0.000000 0.000000 0.000000 0.038895 0.000000
# 6 0.000000 0.000000 0.000000 0.000000 0.000000 0.030038
#
#
# Mechanical properties :
#
#
# Convention : Reuss Voigt Hill
#
# Bulk Modulus (GPa) = 84.28913 84.74667 84.51790
# Shear Modulus (GPa) = 34.33190 38.27102 36.30146
#
# Velocity S-wave (km/s) = 3.96968 4.19123 4.08196
# Velocity P-wave (km/s) = 7.72658 7.89435 7.81091
#
# Compressibility (1/GPa) = 0.01186393
#
# Stress axis : x y z
#
# Youngs Moduli (GPa) = 124.28362 124.28348 147.81686
#
# Poissons Ratio (x) = 0.25774 0.25298
# Poissons Ratio (y) = 0.25774 0.25298
# Poissons Ratio (z) = 0.21271 0.21270
#
# Static dielectric constant tensor:
#      x y z
#    x 3.998660 0.000000 0.000000 
#    y 0.000000 3.998690 0.000000 
#    z 0.000000 0.000000 3.637000 
# 
# 
# High freq. dielectric constant tensor:
#      x y z
#    x 1.875280 0.000000 0.000000 
#    y 0.000000 1.875280 0.000000 
#    z 0.000000 0.000000 1.840460 
# 
# From -- ./inp_files/4778.got.cif
#   From: 2010.03.12/outbox.cif.g09.slc.cpg/sg119_3_cif.got.tgz:4778.got - 2010.04.14 02:25:26.
