data_PCOD8311155
_publ_section_title
;
Structure prediction by ZEFSAII (Michael W. Deem and Ramdas Pophale) SiO2 
 PCOD8311155
Probable space group: I -4 C 2
;
_chemical_formula_sum "Si O2"
_cell_formula_units_Z 108
_cell_length_a 13.656731
_cell_length_b 13.656731
_cell_length_c 28.862001
_cell_angle_alpha 90.000000
_cell_angle_beta 90.000000
_cell_angle_gamma 90.000000
_cell_volume 5382.945063
_symmetry_space_group_name_H-M "I -4 C 2"
_symmetry_group_IT_number 120
_symmetry_cell_setting 'tetragonal'
loop_
_space_group_symop_operation_xyz
x,y,z
y,-x,-z
-x,-y,z
-y,x,-z
y,x,1/2-z
-y,-x,1/2-z
-x,y,1/2+z
x,-y,1/2+z
1/2+x,1/2+y,1/2+z
1/2+y,1/2-x,1/2-z
1/2-x,1/2-y,1/2+z
1/2-y,1/2+x,1/2-z
1/2+y,1/2+x,-z
1/2-y,1/2-x,-z
1/2-x,1/2+y,z
1/2+x,1/2-y,z
loop_
_atom_site_type_symbol
_atom_site_label
_atom_site_fract_x
_atom_site_fract_y
_atom_site_fract_z
Si Si1 0.535249 0.859257 0.675911
Si Si2 0.195251 0.153165 0.124231
Si Si3 0.462135 0.602602 0.835388
Si Si4 0.000000 0.500000 0.904947
Si Si5 0.694376 0.750645 0.299985
Si Si6 0.637010 0.147658 0.553331
Si Si7 0.000000 0.500000 0.750000
Si Si8 0.204429 0.980874 0.388038
O O1 0.548044 0.918473 0.627975
O O2 0.641885 0.850874 0.697541
O O3 0.470582 0.910911 0.715774
O O4 0.476373 0.760653 0.662262
O O5 0.254708 0.224765 0.159019
O O6 0.262587 0.135080 0.080468
O O7 0.096988 0.199042 0.102270
O O8 0.170854 0.052789 0.150855
O O9 0.500000 0.500000 0.811229
O O10 0.389883 0.667696 0.803909
O O11 0.401676 0.568519 0.881260
O O12 0.953422 0.420019 0.938751
O O13 0.743805 0.743805 0.250000
O O14 0.662564 0.162564 0.500000
O O15 0.573473 0.240378 0.570472
#
# Coordination Sequence:
#
# PCOD8311155 Si02
#       8
#    16  16  16   8  16  16   4  16
#     4   9  20  34  56  86 119 165 198 258 303 358
#     4  10  22  43  63  89 127 171 204 256 319 378
#     4  10  21  41  66  85 122 173 205 257 317 370
#     4   9  19  37  59  84 122 160 205 249 309 375
#     4  11  23  37  59  90 125 162 211 259 304 368
#     4  11  21  39  65  94 123 159 206 266 318 377
#     4  10  20  32  58  88 118 152 214 244 308 366
#     4   9  20  41  62  85 128 161 208 253 310 377
#
# _framework density 20.063365000000001
#
# number of rings (size 3 to 8) (size 9 to 14) (size 15 to 20)
#    0.000    2.074    1.481    1.111    2.074    2.667 
#    8.000    0.000    0.000    0.000    0.000    0.000 
#    0.000    0.000    0.000    0.000    0.000    0.000 
#
# Total GULP energy -669263.037394 kJ/mol
# GULP energy per Si atom -12393.759952 kJ/mol
# Density = 2.001770 g / cm^3
# Si number density = 20.063365 Si / 1000 Ang^3
#
#
#
# Elastic Constant Matrix: (Units=GPa)
#
#
# Indices 1 2 3 4 5 6 
#
# 1 83.9075 30.9201 29.5284 0.0000 0.0000 0.0000
# 2 30.9201 83.9075 29.5284 0.0000 0.0000 0.0000
# 3 29.5284 29.5284 95.7201 0.0000 0.0000 0.0000
# 4 0.0000 0.0000 0.0000 17.7057 0.0000 0.0000
# 5 0.0000 0.0000 0.0000 0.0000 17.7057 0.0000
# 6 0.0000 0.0000 0.0000 0.0000 0.0000 38.9172
#
#
#
# Elastic Compliance Matrix: (Units=1/GPa)
#
#
# Indices 1 2 3 4 5 6 
#
# 1 0.014612 -0.004261 -0.003193 0.000000 0.000000 0.000000
# 2 -0.004261 0.014612 -0.003193 0.000000 0.000000 0.000000
# 3 -0.003193 -0.003193 0.012417 0.000000 0.000000 0.000000
# 4 0.000000 0.000000 0.000000 0.056479 0.000000 0.000000
# 5 0.000000 0.000000 0.000000 0.000000 0.056479 0.000000
# 6 0.000000 0.000000 0.000000 0.000000 0.000000 0.025696
#
#
# Mechanical properties :
#
#
# Convention : Reuss Voigt Hill
#
# Bulk Modulus (GPa) = 49.14827 49.27653 49.21240
# Shear Modulus (GPa) = 23.99573 26.43628 25.21600
#
# Velocity S-wave (km/s) = 3.46207 3.63387 3.54901
# Velocity P-wave (km/s) = 6.36639 6.49772 6.43239
#
# Compressibility (1/GPa) = 0.02034660
#
# Stress axis : x y z
#
# Youngs Moduli (GPa) = 68.43838 68.43838 80.53347
#
# Poissons Ratio (x) = 0.29160 0.25715
# Poissons Ratio (y) = 0.29160 0.25715
# Poissons Ratio (z) = 0.21853 0.21853
#
# Static dielectric constant tensor:
#      x y z
#    x 3.853200 0.000000 0.000000 
#    y 0.000000 3.853200 0.000000 
#    z 0.000000 0.000000 3.266190 
# 
# 
# High freq. dielectric constant tensor:
#      x y z
#    x 1.795500 0.000000 0.000000 
#    y 0.000000 1.795500 0.000000 
#    z 0.000000 0.000000 1.748760 
# 
# From -- ./inp_files/6310.got.cif
#   From: 2010.03.12/outbox.cif.g09.slc.cpg/sg120_4_cif.got.tgz:6310.got - 2010.04.06 16:00:44.
