data_PCOD8311910
_publ_section_title
;
Structure prediction by ZEFSAII (Michael W. Deem and Ramdas Pophale) SiO2 
 PCOD8311910
Probable space group: I -4 2 D
;
_chemical_formula_sum "Si O2"
_cell_formula_units_Z 88
_cell_length_a 12.238087
_cell_length_b 12.238087
_cell_length_c 27.951779
_cell_angle_alpha 90.000000
_cell_angle_beta 90.000000
_cell_angle_gamma 90.000000
_cell_volume 4186.359559
_symmetry_space_group_name_H-M "I -4 2 D"
_symmetry_group_IT_number 122
_symmetry_cell_setting 'tetragonal'
loop_
_space_group_symop_operation_xyz
x,y,z
y,-x,-z
-x,-y,z
-y,x,-z
x,1/2-y,1/4-z
-x,1/2+y,1/4-z
-y,1/2-x,1/4+z
y,1/2+x,1/4+z
1/2+x,1/2+y,1/2+z
1/2+y,1/2-x,1/2-z
1/2-x,1/2-y,1/2+z
1/2-y,1/2+x,1/2-z
1/2+x,-y,3/4-z
1/2-x,y,3/4-z
1/2-y,-x,3/4+z
1/2+y,x,3/4+z
loop_
_atom_site_type_symbol
_atom_site_label
_atom_site_fract_x
_atom_site_fract_y
_atom_site_fract_z
Si Si1 0.409520 0.902231 0.814261
Si Si2 0.449370 0.705712 0.338195
Si Si3 0.098359 0.851175 0.493824
Si Si4 0.262696 0.456597 0.270373
Si Si5 0.757559 0.309144 0.672573
Si Si6 0.500000 0.000000 0.974188
O O1 0.397228 0.827464 0.861332
O O2 0.445143 0.821745 0.772355
O O3 0.500000 0.000000 0.819506
O O4 0.287437 0.946059 0.803027
O O5 0.377646 0.792404 0.307170
O O6 0.566547 0.760440 0.344796
O O7 0.463897 0.597810 0.308372
O O8 0.155655 0.783029 0.535810
O O9 0.971218 0.850562 0.507605
O O10 0.266636 0.357450 0.307651
O O11 0.385825 0.474057 0.247841
O O12 0.794892 0.250000 0.625000
#
# Coordination Sequence:
#
# PCOD8311910 Si02
#       6
#    16  16  16  16  16   8
#     4  12  22  40  66 100 134 176 225 276 347 413
#     4  10  22  39  62  94 125 165 222 270 337 404
#     4   9  20  43  67  91 126 170 222 275 333 402
#     4  11  24  40  61  96 133 176 221 277 336 413
#     4  10  22  39  64  91 127 171 216 268 341 401
#     4  10  24  40  58  87 132 174 215 276 336 386
#
# _framework density 21.020648999999999
#
# number of rings (size 3 to 8) (size 9 to 14) (size 15 to 20)
#    0.000    1.636    2.727    1.091    5.091    0.000 
#    0.000    9.091    0.000    0.000    0.000    0.000 
#    0.000    0.000    0.000    0.000    0.000    0.000 
#
# Total GULP energy -545184.163889 kJ/mol
# GULP energy per Si atom -12390.549179 kJ/mol
# Density = 2.097280 g / cm^3
# Si number density = 21.020649 Si / 1000 Ang^3
#
#
#
# Elastic Constant Matrix: (Units=GPa)
#
#
# Indices 1 2 3 4 5 6 
#
# 1 83.4842 41.3430 64.2456 0.0000 0.0000 0.0000
# 2 41.3430 83.4842 64.2456 0.0000 0.0000 0.0000
# 3 64.2456 64.2456 152.3557 0.0000 0.0000 0.0000
# 4 0.0000 0.0000 0.0000 37.1924 0.0000 0.0000
# 5 0.0000 0.0000 0.0000 0.0000 37.1924 0.0000
# 6 0.0000 0.0000 0.0000 0.0000 0.0000 26.7122
#
#
#
# Elastic Compliance Matrix: (Units=1/GPa)
#
#
# Indices 1 2 3 4 5 6 
#
# 1 0.018943 -0.004787 -0.005969 0.000000 0.000000 0.000000
# 2 -0.004787 0.018943 -0.005969 0.000000 0.000000 0.000000
# 3 -0.005969 -0.005969 0.011598 0.000000 0.000000 0.000000
# 4 0.000000 0.000000 0.000000 0.026887 0.000000 0.000000
# 5 0.000000 0.000000 0.000000 0.000000 0.026887 0.000000
# 6 0.000000 0.000000 0.000000 0.000000 0.000000 0.037436
#
#
# Mechanical properties :
#
#
# Convention : Reuss Voigt Hill
#
# Bulk Modulus (GPa) = 62.37470 73.22141 67.79805
# Shear Modulus (GPa) = 27.85702 30.18539 29.02121
#
# Velocity S-wave (km/s) = 3.64431 3.79355 3.71968
# Velocity P-wave (km/s) = 6.88807 7.35505 7.12539
#
# Compressibility (1/GPa) = 0.01603214
#
# Stress axis : x y z
#
# Youngs Moduli (GPa) = 52.79118 52.79119 86.22426
#
# Poissons Ratio (x) = 0.25272 0.51468
# Poissons Ratio (y) = 0.25272 0.51468
# Poissons Ratio (z) = 0.31511 0.31511
#
# Static dielectric constant tensor:
#      x y z
#    x 4.124540 0.000000 0.000000 
#    y 0.000000 4.124540 0.000000 
#    z 0.000000 0.000000 3.802270 
# 
# 
# High freq. dielectric constant tensor:
#      x y z
#    x 1.826910 0.000000 0.000000 
#    y 0.000000 1.826910 0.000000 
#    z 0.000000 0.000000 1.810780 
# 
# From -- ./inp_files/9486.got.cif
#   From: 2010.03.12/outbox.cif.g09.slc.cpg/sg122_5_cif.got.tgz:9486.got - 2010.04.06 16:17:16.
