data_PCOD8311528
_publ_section_title
;
Structure prediction by ZEFSAII (Michael W. Deem and Ramdas Pophale) SiO2 
 PCOD8311528
Probable space group: I -4 2 M
;
_chemical_formula_sum "Si O2"
_cell_formula_units_Z 112
_cell_length_a 15.228584
_cell_length_b 15.228584
_cell_length_c 25.848054
_cell_angle_alpha 90.000000
_cell_angle_beta 90.000000
_cell_angle_gamma 90.000000
_cell_volume 5994.416275
_symmetry_space_group_name_H-M "I -4 2 M"
_symmetry_group_IT_number 121
_symmetry_cell_setting 'tetragonal'
loop_
_space_group_symop_operation_xyz
x,y,z
y,-x,-z
-x,-y,z
-y,x,-z
x,-y,-z
-x,y,-z
-y,-x,z
y,x,z
1/2+x,1/2+y,1/2+z
1/2+y,1/2-x,1/2-z
1/2-x,1/2-y,1/2+z
1/2-y,1/2+x,1/2-z
1/2+x,1/2-y,1/2-z
1/2-x,1/2+y,1/2-z
1/2-y,1/2-x,1/2+z
1/2+y,1/2+x,1/2+z
loop_
_atom_site_type_symbol
_atom_site_label
_atom_site_fract_x
_atom_site_fract_y
_atom_site_fract_z
Si Si1 0.458884 0.136624 0.243703
Si Si2 0.143364 0.003253 0.441941
Si Si3 0.650532 0.208818 0.667311
Si Si4 0.207039 0.522760 0.139865
Si Si5 0.096496 0.463714 0.051320
Si Si6 0.617380 0.757818 0.541460
Si Si7 0.932388 0.206991 0.069816
O O1 0.553558 0.104897 0.263944
O O2 0.419819 0.198683 0.287456
O O3 0.463751 0.193943 0.191168
O O4 0.096699 0.096699 0.434379
O O5 0.211513 0.991593 0.395202
O O6 0.185442 0.000000 0.500000
O O7 0.074583 0.925418 0.436601
O O8 0.713927 0.286074 0.685021
O O9 0.711077 0.123905 0.656892
O O10 0.596146 0.232466 0.616756
O O11 0.123057 0.510603 0.104021
O O12 0.112200 0.359211 0.058501
O O13 0.000000 0.500000 0.043924
O O14 0.148058 0.500000 0.000000
O O15 0.709451 0.709451 0.557233
O O16 0.537989 0.702178 0.567514
O O17 0.606369 0.756435 0.479966
O O18 0.891355 0.108646 0.073893
#
# Coordination Sequence:
#
# PCOD8311528 Si02
#       7
#    16  16  16  16  16  16  16
#     4   9  21  36  54  79 107 145 185 232 288 334
#     4   9  19  36  56  80 113 147 181 225 278 339
#     4  10  20  36  58  80 106 142 191 239 276 329
#     4  11  21  33  57  80 107 144 185 229 275 341
#     4  11  22  34  53  82 115 151 182 224 282 346
#     4  10  20  34  52  82 119 149 188 236 284 342
#     4   9  18  33  55  78 107 150 193 232 278 332
#
# _framework density 18.684052999999999
#
# number of rings (size 3 to 8) (size 9 to 14) (size 15 to 20)
#    0.000    2.143    0.000    4.714    6.000    1.429 
#    0.000    5.000    0.000    0.857    0.000    0.000 
#    0.000    0.000    0.000    0.000    0.000    0.000 
#
# Total GULP energy -693993.359171 kJ/mol
# GULP energy per Si atom -12392.738557 kJ/mol
# Density = 1.864153 g / cm^3
# Si number density = 18.684053 Si / 1000 Ang^3
#
#
#
# Elastic Constant Matrix: (Units=GPa)
#
#
# Indices 1 2 3 4 5 6 
#
# 1 90.3795 35.3241 39.0832 0.0000 0.0000 0.0000
# 2 35.3241 90.3770 39.0815 0.0000 0.0000 0.0000
# 3 39.0832 39.0815 115.1630 0.0000 0.0000 0.0000
# 4 0.0000 0.0000 0.0000 17.7050 0.0000 0.0000
# 5 0.0000 0.0000 0.0000 0.0000 17.6999 0.0000
# 6 0.0000 0.0000 0.0000 0.0000 0.0000 18.7361
#
#
#
# Elastic Compliance Matrix: (Units=1/GPa)
#
#
# Indices 1 2 3 4 5 6 
#
# 1 0.014123 -0.004040 -0.003422 0.000000 0.000000 0.000000
# 2 -0.004040 0.014124 -0.003422 0.000000 0.000000 0.000000
# 3 -0.003422 -0.003422 0.011006 0.000000 0.000000 0.000000
# 4 0.000000 0.000000 0.000000 0.056481 0.000000 0.000000
# 5 0.000000 0.000000 0.000000 0.000000 0.056497 0.000000
# 6 0.000000 0.000000 0.000000 0.000000 0.000000 0.053373
#
#
# Mechanical properties :
#
#
# Convention : Reuss Voigt Hill
#
# Bulk Modulus (GPa) = 57.19311 58.09970 57.64640
# Shear Modulus (GPa) = 21.44075 22.99026 22.21550
#
# Velocity S-wave (km/s) = 3.39122 3.51162 3.45194
# Velocity P-wave (km/s) = 6.78313 6.89966 6.84165
#
# Compressibility (1/GPa) = 0.01748462
#
# Stress axis : x y z
#
# Youngs Moduli (GPa) = 70.80455 70.80331 90.86061
#
# Poissons Ratio (x) = 0.28607 0.31092
# Poissons Ratio (y) = 0.28608 0.31090
# Poissons Ratio (z) = 0.24229 0.24227
#
# Static dielectric constant tensor:
#      x y z
#    x 3.502720 0.000000 0.000000 
#    y 0.000000 3.502750 0.000000 
#    z 0.000000 0.000000 3.508120 
# 
# 
# High freq. dielectric constant tensor:
#      x y z
#    x 1.719930 0.000000 0.000000 
#    y 0.000000 1.719930 0.000000 
#    z 0.000000 0.000000 1.722890 
# 
# From -- ./inp_files/7196.got.cif
#   From: 2010.03.12/outbox.cif.g09.slc.cpg/sg121_4_cif.got.tgz:7196.got - 2010.04.06 16:06:48.
