data_PCOD8311021
_publ_section_title
;
Structure prediction by ZEFSAII (Michael W. Deem and Ramdas Pophale) SiO2 
 PCOD8311021
Probable space group: I -4 M 2
;
_chemical_formula_sum "Si O2"
_cell_formula_units_Z 120
_cell_length_a 26.102087
_cell_length_b 26.102087
_cell_length_c 9.323607
_cell_angle_alpha 90.000000
_cell_angle_beta 90.000000
_cell_angle_gamma 90.000000
_cell_volume 6352.350092
_symmetry_space_group_name_H-M "I -4 M 2"
_symmetry_group_IT_number 119
_symmetry_cell_setting 'tetragonal'
loop_
_space_group_symop_operation_xyz
x,y,z
y,-x,-z
-x,-y,z
-y,x,-z
y,x,-z
-y,-x,-z
-x,y,z
x,-y,z
1/2+x,1/2+y,1/2+z
1/2+y,1/2-x,1/2-z
1/2-x,1/2-y,1/2+z
1/2-y,1/2+x,1/2-z
1/2+y,1/2+x,1/2-z
1/2-y,1/2-x,1/2-z
1/2-x,1/2+y,1/2+z
1/2+x,1/2-y,1/2+z
loop_
_atom_site_type_symbol
_atom_site_label
_atom_site_fract_x
_atom_site_fract_y
_atom_site_fract_z
Si Si1 0.557828 0.750648 0.756391
Si Si2 0.441219 0.941219 0.750000
Si Si3 0.845874 0.198382 0.376135
Si Si4 0.588674 0.152269 0.932729
Si Si5 0.710213 0.657029 0.608558
Si Si6 0.057152 0.358516 0.739992
Si Si7 0.238808 0.557894 0.578790
Si Si8 0.193880 0.303286 0.420088
O O1 0.500000 0.731746 0.787942
O O2 0.597200 0.707279 0.812457
O O3 0.567951 0.805857 0.822822
O O4 0.567227 0.760315 0.589820
O O5 0.500000 0.932596 0.700660
O O6 0.427960 0.904576 0.883967
O O7 0.845920 0.154081 0.500000
O O8 0.804201 0.186457 0.253090
O O9 0.828234 0.248340 0.466967
O O10 0.650388 0.153546 0.943531
O O11 0.563221 0.166641 0.083885
O O12 0.661878 0.661878 0.500000
O O13 0.720825 0.597815 0.647330
O O14 0.758080 0.682387 0.520371
O O15 0.093221 0.406780 0.750000
O O16 0.071217 0.317084 0.860599
O O17 0.000000 0.378542 0.763783
O O18 0.254921 0.500000 0.620775
O O19 0.203840 0.296161 0.250000
#
# Coordination Sequence:
#
# PCOD8311021 Si02
#       8
#    16   8  16  16  16  16  16  16
#     4  10  21  42  66  84 112 157 199 239 285 349
#     4  11  24  38  58  84 106 140 198 270 330 372
#     4  11  25  37  54  91 124 155 191 236 287 352
#     4  11  23  41  58  80 109 144 197 247 302 362
#     4  12  21  38  57  84 120 152 188 237 287 351
#     4  11  25  41  57  81 109 147 198 254 314 359
#     4  10  23  42  61  84 114 155 200 240 290 353
#     4  11  21  36  57  83 114 153 192 229 290 353
#
# _framework density 18.890647000000001
#
# number of rings (size 3 to 8) (size 9 to 14) (size 15 to 20)
#    0.000    1.133    3.333    3.200    5.600    0.667 
#    2.400    0.000    0.000    0.000    0.000    0.000 
#    0.000    3.200    0.000    0.000    0.000    0.000 
#
# Total GULP energy -743688.286011 kJ/mol
# GULP energy per Si atom -12394.804767 kJ/mol
# Density = 1.884765 g / cm^3
# Si number density = 18.890647 Si / 1000 Ang^3
#
#
#
# Elastic Constant Matrix: (Units=GPa)
#
#
# Indices 1 2 3 4 5 6 
#
# 1 104.4243 84.0525 45.2761 0.0000 0.0000 0.0000
# 2 84.0525 104.4250 45.2743 0.0000 0.0000 0.0000
# 3 45.2761 45.2743 88.5421 0.0000 0.0000 0.0000
# 4 0.0000 0.0000 0.0000 19.2612 0.0000 0.0000
# 5 0.0000 0.0000 0.0000 0.0000 19.2604 0.0000
# 6 0.0000 0.0000 0.0000 0.0000 0.0000 31.7380
#
#
#
# Elastic Compliance Matrix: (Units=1/GPa)
#
#
# Indices 1 2 3 4 5 6 
#
# 1 0.028061 -0.021026 -0.003597 0.000000 0.000000 0.000000
# 2 -0.021026 0.028060 -0.003596 0.000000 0.000000 0.000000
# 3 -0.003597 -0.003596 0.014972 0.000000 0.000000 0.000000
# 4 0.000000 0.000000 0.000000 0.051918 0.000000 0.000000
# 5 0.000000 0.000000 0.000000 0.000000 0.051920 0.000000
# 6 0.000000 0.000000 0.000000 0.000000 0.000000 0.031508
#
#
# Mechanical properties :
#
#
# Convention : Reuss Voigt Hill
#
# Bulk Modulus (GPa) = 68.24480 71.84412 70.04446
# Shear Modulus (GPa) = 18.67331 22.23783 20.45557
#
# Velocity S-wave (km/s) = 3.14745 3.43474 3.29423
# Velocity P-wave (km/s) = 7.02945 7.33785 7.18531
#
# Compressibility (1/GPa) = 0.01465313
#
# Stress axis : x y z
#
# Youngs Moduli (GPa) = 35.63726 35.63840 66.79054
#
# Poissons Ratio (x) = 0.74935 0.24026
# Poissons Ratio (y) = 0.74933 0.24017
# Poissons Ratio (z) = 0.12820 0.12815
#
# Static dielectric constant tensor:
#      x y z
#    x 3.601420 0.000000 0.000000 
#    y 0.000000 3.601410 0.000000 
#    z 0.000000 0.000000 3.671120 
# 
# 
# High freq. dielectric constant tensor:
#      x y z
#    x 1.716720 0.000000 0.000000 
#    y 0.000000 1.716720 0.000000 
#    z 0.000000 0.000000 1.748320 
# 
# From -- ./inp_files/2897.got.cif
#   From: 2010.03.12/outbox.cif.g09.slc.cpg/sg119_2_cif.got.tgz:2897.got - 2010.04.14 02:25:26.
