data_PCOD8311952
_publ_section_title
;
Structure prediction by ZEFSAII (Michael W. Deem and Ramdas Pophale) SiO2 
 PCOD8311952
Probable space group: I -4 2 D
;
_chemical_formula_sum "Si O2"
_cell_formula_units_Z 128
_cell_length_a 22.806436
_cell_length_b 22.806436
_cell_length_c 11.991374
_cell_angle_alpha 90.000000
_cell_angle_beta 90.000000
_cell_angle_gamma 90.000000
_cell_volume 6237.115604
_symmetry_space_group_name_H-M "I -4 2 D"
_symmetry_group_IT_number 122
_symmetry_cell_setting 'tetragonal'
loop_
_space_group_symop_operation_xyz
x,y,z
y,-x,-z
-x,-y,z
-y,x,-z
x,1/2-y,1/4-z
-x,1/2+y,1/4-z
-y,1/2-x,1/4+z
y,1/2+x,1/4+z
1/2+x,1/2+y,1/2+z
1/2+y,1/2-x,1/2-z
1/2-x,1/2-y,1/2+z
1/2-y,1/2+x,1/2-z
1/2+x,-y,3/4-z
1/2-x,y,3/4-z
1/2-y,-x,3/4+z
1/2+y,x,3/4+z
loop_
_atom_site_type_symbol
_atom_site_label
_atom_site_fract_x
_atom_site_fract_y
_atom_site_fract_z
Si Si1 0.819156 0.163404 0.897987
Si Si2 0.917148 0.679875 0.527439
Si Si3 0.410315 0.806481 0.198015
Si Si4 0.006836 0.430425 0.121376
Si Si5 0.796704 0.680626 0.615618
Si Si6 0.585088 0.884385 0.817763
Si Si7 0.307701 0.961161 0.242922
Si Si8 0.406706 0.119530 0.451470
O O1 0.750000 0.157181 0.875000
O O2 0.839355 0.230896 0.914135
O O3 0.848290 0.133554 0.791616
O O4 0.842784 0.134224 0.011990
O O5 0.847033 0.664596 0.525462
O O6 0.946154 0.650606 0.418545
O O7 0.947127 0.656094 0.642388
O O8 0.925812 0.748578 0.512661
O O9 0.397950 0.750000 0.125000
O O10 0.352077 0.816186 0.271121
O O11 0.469137 0.797410 0.270176
O O12 0.420831 0.863590 0.121210
O O13 0.038337 0.402408 0.226768
O O14 0.000000 0.500000 0.135206
O O15 0.945143 0.394845 0.122140
O O16 0.043133 0.419402 0.008725
O O17 0.797526 0.750000 0.625000
O O18 0.335470 0.939574 0.128897
#
# Coordination Sequence:
#
# PCOD8311952 Si02
#       8
#    16  16  16  16  16  16  16  16
#     4  10  23  40  66 101 128 172 220 278 334 398
#     4  11  22  40  68  92 132 180 215 270 336 397
#     4  12  23  40  65 101 129 179 224 275 337 408
#     4  11  24  44  67  91 121 179 228 272 339 397
#     4  11  22  42  67  96 138 172 224 273 340 409
#     4  11  23  41  67  90 130 169 227 271 331 402
#     4  11  24  42  63  98 136 174 222 265 346 397
#     4  11  24  42  66  93 134 171 221 283 331 399
#
# _framework density 20.522307999999999
#
# number of rings (size 3 to 8) (size 9 to 14) (size 15 to 20)
#    0.000    1.000    6.250    0.750    3.500    1.500 
#    0.000    0.000    2.750    0.000    0.000    0.000 
#    0.000    0.000    0.000    0.000    0.000    0.000 
#
# Total GULP energy -793045.573940 kJ/mol
# GULP energy per Si atom -12391.337093 kJ/mol
# Density = 2.047560 g / cm^3
# Si number density = 20.522308 Si / 1000 Ang^3
#
#
#
# Elastic Constant Matrix: (Units=GPa)
#
#
# Indices 1 2 3 4 5 6 
#
# 1 103.5420 31.7495 46.0622 0.0000 0.0000 0.0000
# 2 31.7495 103.5420 46.0622 0.0000 0.0000 0.0000
# 3 46.0622 46.0622 101.3999 0.0000 0.0000 0.0000
# 4 0.0000 0.0000 0.0000 25.6537 0.0000 0.0000
# 5 0.0000 0.0000 0.0000 0.0000 25.6537 0.0000
# 6 0.0000 0.0000 0.0000 0.0000 0.0000 24.4813
#
#
#
# Elastic Compliance Matrix: (Units=1/GPa)
#
#
# Indices 1 2 3 4 5 6 
#
# 1 0.012315 -0.001614 -0.004861 0.000000 0.000000 0.000000
# 2 -0.001614 0.012315 -0.004861 0.000000 0.000000 0.000000
# 3 -0.004861 -0.004861 0.014279 0.000000 0.000000 0.000000
# 4 0.000000 0.000000 0.000000 0.038981 0.000000 0.000000
# 5 0.000000 0.000000 0.000000 0.000000 0.038981 0.000000
# 6 0.000000 0.000000 0.000000 0.000000 0.000000 0.040847
#
#
# Mechanical properties :
#
#
# Convention : Reuss Voigt Hill
#
# Bulk Modulus (GPa) = 61.58957 61.80353 61.69655
# Shear Modulus (GPa) = 26.91018 27.46509 27.18764
#
# Velocity S-wave (km/s) = 3.62507 3.66225 3.64371
# Velocity P-wave (km/s) = 6.89911 6.93278 6.91596
#
# Compressibility (1/GPa) = 0.01623651
#
# Stress axis : x y z
#
# Youngs Moduli (GPa) = 81.19924 81.19924 70.03457
#
# Poissons Ratio (x) = 0.13103 0.34047
# Poissons Ratio (y) = 0.13103 0.34047
# Poissons Ratio (z) = 0.39474 0.39474
#
# Static dielectric constant tensor:
#      x y z
#    x 3.918420 0.000000 0.000000 
#    y 0.000000 3.918420 0.000000 
#    z 0.000000 0.000000 3.985430 
# 
# 
# High freq. dielectric constant tensor:
#      x y z
#    x 1.803050 0.000000 0.000000 
#    y 0.000000 1.803050 0.000000 
#    z 0.000000 0.000000 1.807550 
# 
# From -- ./inp_files/4636.got.cif
#   From: 2010.03.12/outbox.cif.g09.slc.cpg/sg122_3_cif.got.tgz:4636.got - 2010.04.06 16:17:16.
