data_PCOD8311907
_publ_section_title
;
Structure prediction by ZEFSAII (Michael W. Deem and Ramdas Pophale) SiO2 
 PCOD8311907
Probable space group: I -4 2 D
;
_chemical_formula_sum "Si O2"
_cell_formula_units_Z 96
_cell_length_a 15.521685
_cell_length_b 15.521685
_cell_length_c 17.664762
_cell_angle_alpha 90.000000
_cell_angle_beta 90.000000
_cell_angle_gamma 90.000000
_cell_volume 4255.842248
_symmetry_space_group_name_H-M "I -4 2 D"
_symmetry_group_IT_number 122
_symmetry_cell_setting 'tetragonal'
loop_
_space_group_symop_operation_xyz
x,y,z
y,-x,-z
-x,-y,z
-y,x,-z
x,1/2-y,1/4-z
-x,1/2+y,1/4-z
-y,1/2-x,1/4+z
y,1/2+x,1/4+z
1/2+x,1/2+y,1/2+z
1/2+y,1/2-x,1/2-z
1/2-x,1/2-y,1/2+z
1/2-y,1/2+x,1/2-z
1/2+x,-y,3/4-z
1/2-x,y,3/4-z
1/2-y,-x,3/4+z
1/2+y,x,3/4+z
loop_
_atom_site_type_symbol
_atom_site_label
_atom_site_fract_x
_atom_site_fract_y
_atom_site_fract_z
Si Si1 0.048593 0.234931 0.040931
Si Si2 0.847266 0.721182 0.780620
Si Si3 0.190620 0.521126 0.936253
Si Si4 0.398519 0.672383 0.893348
Si Si5 0.423293 0.366436 0.834867
Si Si6 0.788915 0.634097 0.240031
O O1 0.082146 0.250000 0.125000
O O2 0.113504 0.166155 0.005636
O O3 0.052012 0.321874 0.992987
O O4 0.949989 0.204857 0.042504
O O5 0.945306 0.757967 0.761220
O O6 0.817493 0.638707 0.728627
O O7 0.851854 0.685871 0.866561
O O8 0.775894 0.795686 0.775945
O O9 0.250000 0.471612 0.875000
O O10 0.167008 0.611381 0.899357
O O11 0.109210 0.458754 0.947188
O O12 0.492886 0.627635 0.889789
O O13 0.393413 0.762050 0.846119
#
# Coordination Sequence:
#
# PCOD8311907 Si02
#       6
#    16  16  16  16  16  16
#     4  11  26  44  69  92 129 172 230 290 335 401
#     4  10  22  38  68  97 139 172 218 278 341 422
#     4   9  20  38  57  93 140 176 212 262 324 400
#     4   9  20  41  61  95 136 176 210 265 337 413
#     4  11  24  36  65 102 128 181 222 265 343 414
#     4  10  23  45  68  91 126 176 226 281 351 395
#
# _framework density 22.557227000000001
#
# number of rings (size 3 to 8) (size 9 to 14) (size 15 to 20)
#    0.000    2.000    0.000    3.000    9.333    3.000 
#    0.000    0.000   11.000    0.000    0.000    0.000 
#    0.000    0.000    0.000    0.000    0.000    0.000 
#
# Total GULP energy -594868.022435 kJ/mol
# GULP energy per Si atom -12393.083801 kJ/mol
# Density = 2.250589 g / cm^3
# Si number density = 22.557227 Si / 1000 Ang^3
#
#
#
# Elastic Constant Matrix: (Units=GPa)
#
#
# Indices 1 2 3 4 5 6 
#
# 1 102.9453 36.6068 9.8453 0.0000 0.0000 0.0000
# 2 36.6068 102.9454 9.8453 0.0000 0.0000 0.0000
# 3 9.8453 9.8453 73.3131 0.0000 0.0000 0.0000
# 4 0.0000 0.0000 0.0000 21.1246 0.0000 0.0000
# 5 0.0000 0.0000 0.0000 0.0000 21.1246 0.0000
# 6 0.0000 0.0000 0.0000 0.0000 0.0000 31.3479
#
#
#
# Elastic Compliance Matrix: (Units=1/GPa)
#
#
# Indices 1 2 3 4 5 6 
#
# 1 0.011189 -0.003885 -0.000981 0.000000 0.000000 0.000000
# 2 -0.003885 0.011189 -0.000981 0.000000 0.000000 0.000000
# 3 -0.000981 -0.000981 0.013904 0.000000 0.000000 0.000000
# 4 0.000000 0.000000 0.000000 0.047338 0.000000 0.000000
# 5 0.000000 0.000000 0.000000 0.000000 0.047338 0.000000
# 6 0.000000 0.000000 0.000000 0.000000 0.000000 0.031900
#
#
# Mechanical properties :
#
#
# Convention : Reuss Voigt Hill
#
# Bulk Modulus (GPa) = 40.66960 43.53318 42.10139
# Shear Modulus (GPa) = 27.36007 29.57985 28.46996
#
# Velocity S-wave (km/s) = 3.48648 3.62515 3.55649
# Velocity P-wave (km/s) = 5.85457 6.07151 5.96403
#
# Compressibility (1/GPa) = 0.02458839
#
# Stress axis : x y z
#
# Youngs Moduli (GPa) = 89.37197 89.37200 71.92394
#
# Poissons Ratio (x) = 0.34721 0.07055
# Poissons Ratio (y) = 0.34721 0.07055
# Poissons Ratio (z) = 0.08766 0.08766
#
# Static dielectric constant tensor:
#      x y z
#    x 4.067470 0.000000 0.000000 
#    y 0.000000 4.067470 0.000000 
#    z 0.000000 0.000000 3.980170 
# 
# 
# High freq. dielectric constant tensor:
#      x y z
#    x 1.888810 0.000000 0.000000 
#    y 0.000000 1.888810 0.000000 
#    z 0.000000 0.000000 1.875020 
# 
# From -- ./inp_files/7310.got.cif
#   From: 2010.03.12/outbox.cif.g09.slc.cpg/sg122_4_cif.got.tgz:7310.got - 2010.04.06 16:17:16.
