data_PCOD8311536
_publ_section_title
;
Structure prediction by ZEFSAII (Michael W. Deem and Ramdas Pophale) SiO2 
 PCOD8311536
Probable space group: I -4 2 M
;
_chemical_formula_sum "Si O2"
_cell_formula_units_Z 96
_cell_length_a 19.224085
_cell_length_b 19.224085
_cell_length_c 15.089116
_cell_angle_alpha 90.000000
_cell_angle_beta 90.000000
_cell_angle_gamma 90.000000
_cell_volume 5576.415855
_symmetry_space_group_name_H-M "I -4 2 M"
_symmetry_group_IT_number 121
_symmetry_cell_setting 'tetragonal'
loop_
_space_group_symop_operation_xyz
x,y,z
y,-x,-z
-x,-y,z
-y,x,-z
x,-y,-z
-x,y,-z
-y,-x,z
y,x,z
1/2+x,1/2+y,1/2+z
1/2+y,1/2-x,1/2-z
1/2-x,1/2-y,1/2+z
1/2-y,1/2+x,1/2-z
1/2+x,1/2-y,1/2-z
1/2-x,1/2+y,1/2-z
1/2-y,1/2-x,1/2+z
1/2+y,1/2+x,1/2+z
loop_
_atom_site_type_symbol
_atom_site_label
_atom_site_fract_x
_atom_site_fract_y
_atom_site_fract_z
Si Si1 0.188838 0.925052 0.256753
Si Si2 0.644605 0.238851 0.121274
Si Si3 0.179100 0.937354 0.060105
Si Si4 0.818162 0.700641 0.707629
Si Si5 0.663485 0.219314 0.478054
Si Si6 0.966872 0.149521 0.596865
O O1 0.141563 0.858438 0.241571
O O2 0.195232 0.962805 0.160856
O O3 0.264018 0.894937 0.287239
O O4 0.151490 0.973740 0.328797
O O5 0.704919 0.295082 0.123606
O O6 0.647244 0.194375 0.211626
O O7 0.571580 0.276855 0.106482
O O8 0.655562 0.186677 0.039970
O O9 0.119713 0.880288 0.059655
O O10 0.249537 0.908075 0.015511
O O11 0.151803 0.000000 0.000000
O O12 0.760207 0.760207 0.706824
O O13 0.812204 0.653752 0.619705
O O14 0.721503 0.278498 0.478499
O O15 0.915586 0.084415 0.614700
O O16 0.000000 0.141414 0.500000
#
# Coordination Sequence:
#
# PCOD8311536 Si02
#       6
#    16  16  16  16  16  16
#     4  10  20  35  51  71 103 141 174 209 250 299
#     4   9  17  31  49  72  96 125 165 212 262 302
#     4  10  21  34  48  68  99 136 173 210 250 299
#     4   9  16  29  51  72  92 122 163 213 268 306
#     4   9  16  29  50  71  92 121 158 207 264 306
#     4  11  23  35  50  74 107 144 180 212 247 303
#
# _framework density 17.215357999999998
#
# number of rings (size 3 to 8) (size 9 to 14) (size 15 to 20)
#    0.000    2.333    1.667    1.500    2.333    4.667 
#    0.000    1.667    0.000    0.000    0.000    0.000 
#    0.000   12.000    0.000    0.000    0.000    0.000 
#
# Total GULP energy -594979.681654 kJ/mol
# GULP energy per Si atom -12395.410034 kJ/mol
# Density = 1.717618 g / cm^3
# Si number density = 17.215358 Si / 1000 Ang^3
#
#
#
# Elastic Constant Matrix: (Units=GPa)
#
#
# Indices 1 2 3 4 5 6 
#
# 1 35.6217 33.1847 32.6628 0.0000 0.0000 0.0000
# 2 33.1847 35.6203 32.6638 0.0000 0.0000 0.0000
# 3 32.6628 32.6638 152.3493 0.0000 0.0000 0.0000
# 4 0.0000 0.0000 0.0000 25.0593 0.0000 0.0000
# 5 0.0000 0.0000 0.0000 0.0000 25.0589 0.0000
# 6 0.0000 0.0000 0.0000 0.0000 0.0000 19.7093
#
#
#
# Elastic Compliance Matrix: (Units=1/GPa)
#
#
# Indices 1 2 3 4 5 6 
#
# 1 0.214347 -0.196105 -0.003910 0.000000 0.000000 0.000000
# 2 -0.196105 0.214360 -0.003915 0.000000 0.000000 0.000000
# 3 -0.003910 -0.003915 0.008241 0.000000 0.000000 0.000000
# 4 0.000000 0.000000 0.000000 0.039905 0.000000 0.000000
# 5 0.000000 0.000000 0.000000 0.000000 0.039906 0.000000
# 6 0.000000 0.000000 0.000000 0.000000 0.000000 0.050737
#
#
# Mechanical properties :
#
#
# Convention : Reuss Voigt Hill
#
# Bulk Modulus (GPa) = 34.37795 46.73489 40.55642
# Shear Modulus (GPa) = 5.07587 22.30418 13.69002
#
# Velocity S-wave (km/s) = 1.71897 3.60335 2.82303
# Velocity P-wave (km/s) = 4.89413 6.67220 5.85110
#
# Compressibility (1/GPa) = 0.02908841
#
# Stress axis : x y z
#
# Youngs Moduli (GPa) = 4.66534 4.66504 121.33766
#
# Poissons Ratio (x) = 0.91484 0.47437
# Poissons Ratio (y) = 0.91490 0.47506
# Poissons Ratio (z) = 0.01824 0.01826
#
# Static dielectric constant tensor:
#      x y z
#    x 3.004420 0.000000 0.000000 
#    y 0.000000 3.004420 0.000000 
#    z 0.000000 0.000000 3.549840 
# 
# 
# High freq. dielectric constant tensor:
#      x y z
#    x 1.630400 0.000000 0.000000 
#    y 0.000000 1.630400 0.000000 
#    z 0.000000 0.000000 1.689550 
# 
# From -- ./inp_files/4515.got.cif
#   From: 2010.03.12/outbox.cif.g09.slc.cpg/sg121_3_cif.got.tgz:4515.got - 2010.04.06 16:06:48.
