data_PCOD8311724
_publ_section_title
;
Structure prediction by ZEFSAII (Michael W. Deem and Ramdas Pophale) SiO2 
 PCOD8311724
Probable space group: I -4 2 D
;
_chemical_formula_sum "Si O2"
_cell_formula_units_Z 72
_cell_length_a 17.689588
_cell_length_b 17.689588
_cell_length_c 16.376025
_cell_angle_alpha 90.000000
_cell_angle_beta 90.000000
_cell_angle_gamma 90.000000
_cell_volume 5124.410694
_symmetry_space_group_name_H-M "I -4 2 D"
_symmetry_group_IT_number 122
_symmetry_cell_setting 'tetragonal'
loop_
_space_group_symop_operation_xyz
x,y,z
y,-x,-z
-x,-y,z
-y,x,-z
x,1/2-y,1/4-z
-x,1/2+y,1/4-z
-y,1/2-x,1/4+z
y,1/2+x,1/4+z
1/2+x,1/2+y,1/2+z
1/2+y,1/2-x,1/2-z
1/2-x,1/2-y,1/2+z
1/2-y,1/2+x,1/2-z
1/2+x,-y,3/4-z
1/2-x,y,3/4-z
1/2-y,-x,3/4+z
1/2+y,x,3/4+z
loop_
_atom_site_type_symbol
_atom_site_label
_atom_site_fract_x
_atom_site_fract_y
_atom_site_fract_z
Si Si1 0.510605 0.839020 0.820636
Si Si2 0.351006 0.264641 0.491412
Si Si3 0.750000 0.848784 0.875000
Si Si4 0.366522 0.873194 0.899458
Si Si5 0.375983 0.460581 0.392851
O O1 0.577254 0.776005 0.820532
O O2 0.443468 0.824369 0.886750
O O3 0.543132 0.921414 0.844396
O O4 0.472744 0.840407 0.732063
O O5 0.274426 0.292694 0.448528
O O6 0.344164 0.177038 0.519447
O O7 0.365749 0.314886 0.570296
O O8 0.680615 0.902436 0.903491
O O9 0.384607 0.962664 0.908763
#
# Coordination Sequence:
#
# PCOD8311724 Si02
#       5
#    16  16   8  16  16
#     4  10  15  24  37  58  84 111 132 156 197 246
#     4   9  19  25  38  56  80 118 139 164 198 241
#     4  10  16  28  36  52  80 116 144 164 194 242
#     4  10  17  25  36  58  86 107 142 160 197 244
#     4  10  16  22  39  57  85 113 127 157 198 254
#
# _framework density 14.050395999999999
#
# number of rings (size 3 to 8) (size 9 to 14) (size 15 to 20)
#    0.000    2.222    6.667    3.333    0.000    0.000 
#    0.000    0.000    0.000    0.000    0.000   12.444 
#    0.000    0.000    0.000    0.000    0.000    0.000 
#
# Total GULP energy -445969.749164 kJ/mol
# GULP energy per Si atom -12388.048588 kJ/mol
# Density = 1.401842 g / cm^3
# Si number density = 14.050396 Si / 1000 Ang^3
#
#
#
# Elastic Constant Matrix: (Units=GPa)
#
#
# Indices 1 2 3 4 5 6 
#
# 1 57.6580 29.1550 30.1840 0.0000 0.0000 0.0000
# 2 29.1550 57.6580 30.1840 0.0000 0.0000 0.0000
# 3 30.1840 30.1840 32.6734 0.0000 0.0000 0.0000
# 4 0.0000 0.0000 0.0000 23.0832 0.0000 0.0000
# 5 0.0000 0.0000 0.0000 0.0000 23.0832 0.0000
# 6 0.0000 0.0000 0.0000 0.0000 0.0000 20.1335
#
#
#
# Elastic Compliance Matrix: (Units=1/GPa)
#
#
# Indices 1 2 3 4 5 6 
#
# 1 0.033648 -0.001436 -0.029758 0.000000 0.000000 0.000000
# 2 -0.001436 0.033648 -0.029758 0.000000 0.000000 0.000000
# 3 -0.029758 -0.029758 0.085587 0.000000 0.000000 0.000000
# 4 0.000000 0.000000 0.000000 0.043322 0.000000 0.000000
# 5 0.000000 0.000000 0.000000 0.000000 0.043322 0.000000
# 6 0.000000 0.000000 0.000000 0.000000 0.000000 0.049668
#
#
# Mechanical properties :
#
#
# Convention : Reuss Voigt Hill
#
# Bulk Modulus (GPa) = 32.27899 36.33727 34.30813
# Shear Modulus (GPa) = 11.86456 17.15773 14.51114
#
# Velocity S-wave (km/s) = 2.90906 3.49830 3.21720
# Velocity P-wave (km/s) = 5.85723 6.49890 6.18639
#
# Compressibility (1/GPa) = 0.03097990
#
# Stress axis : x y z
#
# Youngs Moduli (GPa) = 29.71949 29.71949 11.68409
#
# Poissons Ratio (x) = 0.04268 0.34769
# Poissons Ratio (y) = 0.04268 0.34769
# Poissons Ratio (z) = 0.88438 0.88438
#
# Static dielectric constant tensor:
#      x y z
#    x 2.895720 0.000000 0.000000 
#    y 0.000000 2.895720 0.000000 
#    z 0.000000 0.000000 2.508300 
# 
# 
# High freq. dielectric constant tensor:
#      x y z
#    x 1.528560 0.000000 0.000000 
#    y 0.000000 1.528560 0.000000 
#    z 0.000000 0.000000 1.475320 
# 
# From -- ./inp_files/4324.got.cif
#   From: 2010.03.12/outbox.cif.g09.slc.cpg/sg122_3_cif.got.tgz:4324.got - 2010.04.06 16:17:16.
