data_PCOD8311445
_publ_section_title
;
Structure prediction by ZEFSAII (Michael W. Deem and Ramdas Pophale) SiO2 
 PCOD8311445
Probable space group: I -4 2 M
;
_chemical_formula_sum "Si O2"
_cell_formula_units_Z 58
_cell_length_a 18.707600
_cell_length_b 18.707600
_cell_length_c 10.213318
_cell_angle_alpha 90.000000
_cell_angle_beta 90.000000
_cell_angle_gamma 90.000000
_cell_volume 3574.398795
_symmetry_space_group_name_H-M "I -4 2 M"
_symmetry_group_IT_number 121
_symmetry_cell_setting 'tetragonal'
loop_
_space_group_symop_operation_xyz
x,y,z
y,-x,-z
-x,-y,z
-y,x,-z
x,-y,-z
-x,y,-z
-y,-x,z
y,x,z
1/2+x,1/2+y,1/2+z
1/2+y,1/2-x,1/2-z
1/2-x,1/2-y,1/2+z
1/2-y,1/2+x,1/2-z
1/2+x,1/2-y,1/2-z
1/2-x,1/2+y,1/2-z
1/2-y,1/2-x,1/2+z
1/2+y,1/2+x,1/2+z
loop_
_atom_site_type_symbol
_atom_site_label
_atom_site_fract_x
_atom_site_fract_y
_atom_site_fract_z
Si Si1 0.000000 0.000000 0.500000
Si Si2 0.224948 0.342065 0.601260
Si Si3 0.140161 0.742839 0.194051
Si Si4 0.013825 0.793773 0.852429
Si Si5 0.443832 0.443832 0.755534
O O1 0.050482 0.949519 0.587594
O O2 0.297330 0.297330 0.625797
O O3 0.160768 0.309115 0.686366
O O4 0.205705 0.342362 0.446328
O O5 0.236184 0.422514 0.652204
O O6 0.182495 0.817506 0.204705
O O7 0.056386 0.758615 0.210452
O O8 0.036627 0.863514 0.776084
O O9 0.000000 0.818556 0.000000
O O10 0.500000 0.500000 0.688749
#
# Coordination Sequence:
#
# PCOD8311445 Si02
#       5
#     2  16  16  16   8
#     4   8  24  36  34  64 120 136 160 198 240 320
#     4   9  17  33  48  72 100 129 166 212 252 298
#     4   9  18  32  49  74  99 129 168 210 253 299
#     4  10  19  31  54  75  96 128 177 214 247 296
#     4  10  20  33  44  68 106 138 162 195 252 306
#
# _framework density 16.226503999999998
#
# number of rings (size 3 to 8) (size 9 to 14) (size 15 to 20)
#    0.414    2.207    1.379    0.828    3.862    0.000 
#    4.966    0.000    0.000    0.828    0.000    5.793 
#    0.000    0.000    0.000    0.000    0.000    0.000 
#
# Total GULP energy -359499.197120 kJ/mol
# GULP energy per Si atom -12396.524039 kJ/mol
# Density = 1.618957 g / cm^3
# Si number density = 16.226504 Si / 1000 Ang^3
#
#
#
# Elastic Constant Matrix: (Units=GPa)
#
#
# Indices 1 2 3 4 5 6 
#
# 1 85.9751 37.7573 46.4367 0.0000 0.0000 0.0000
# 2 37.7573 85.9745 46.4367 0.0000 0.0000 0.0000
# 3 46.4367 46.4367 81.3088 0.0000 0.0000 0.0000
# 4 0.0000 0.0000 0.0000 17.7840 0.0000 0.0000
# 5 0.0000 0.0000 0.0000 0.0000 17.7841 0.0000
# 6 0.0000 0.0000 0.0000 0.0000 0.0000 19.8784
#
#
#
# Elastic Compliance Matrix: (Units=1/GPa)
#
#
# Indices 1 2 3 4 5 6 
#
# 1 0.017443 -0.003297 -0.008079 0.000000 0.000000 0.000000
# 2 -0.003297 0.017443 -0.008079 0.000000 0.000000 0.000000
# 3 -0.008079 -0.008079 0.021527 0.000000 0.000000 0.000000
# 4 0.000000 0.000000 0.000000 0.056230 0.000000 0.000000
# 5 0.000000 0.000000 0.000000 0.000000 0.056230 0.000000
# 6 0.000000 0.000000 0.000000 0.000000 0.000000 0.050306
#
#
# Mechanical properties :
#
#
# Convention : Reuss Voigt Hill
#
# Bulk Modulus (GPa) = 57.13328 57.16886 57.15107
# Shear Modulus (GPa) = 18.94496 19.26448 19.10472
#
# Velocity S-wave (km/s) = 3.42062 3.44935 3.43502
# Velocity P-wave (km/s) = 7.13352 7.15348 7.14351
#
# Compressibility (1/GPa) = 0.01750293
#
# Stress axis : x y z
#
# Youngs Moduli (GPa) = 57.33066 57.33013 46.45336
#
# Poissons Ratio (x) = 0.18899 0.37530
# Poissons Ratio (y) = 0.18900 0.37530
# Poissons Ratio (z) = 0.46318 0.46318
#
# Static dielectric constant tensor:
#      x y z
#    x 2.981990 0.000000 0.000000 
#    y 0.000000 2.981990 0.000000 
#    z 0.000000 0.000000 3.082490 
# 
# 
# High freq. dielectric constant tensor:
#      x y z
#    x 1.609730 0.000000 0.000000 
#    y 0.000000 1.609730 0.000000 
#    z 0.000000 0.000000 1.622880 
# 
# From -- ./inp_files/1391.got.cif
#   From: 2010.03.12/outbox.cif.g09.slc.cpg/sg121_1_cif.got.tgz:1391.got - 2010.04.06 16:06:48.
