data_PCOD8311619
_publ_section_title
;
Structure prediction by ZEFSAII (Michael W. Deem and Ramdas Pophale) SiO2 
 PCOD8311619
Probable space group: I -4 2 M
;
_chemical_formula_sum "Si O2"
_cell_formula_units_Z 112
_cell_length_a 14.792197
_cell_length_b 14.792197
_cell_length_c 27.448546
_cell_angle_alpha 90.000000
_cell_angle_beta 90.000000
_cell_angle_gamma 90.000000
_cell_volume 6005.991429
_symmetry_space_group_name_H-M "I -4 2 M"
_symmetry_group_IT_number 121
_symmetry_cell_setting 'tetragonal'
loop_
_space_group_symop_operation_xyz
x,y,z
y,-x,-z
-x,-y,z
-y,x,-z
x,-y,-z
-x,y,-z
-y,-x,z
y,x,z
1/2+x,1/2+y,1/2+z
1/2+y,1/2-x,1/2-z
1/2-x,1/2-y,1/2+z
1/2-y,1/2+x,1/2-z
1/2+x,1/2-y,1/2-z
1/2-x,1/2+y,1/2-z
1/2-y,1/2-x,1/2+z
1/2+y,1/2+x,1/2+z
loop_
_atom_site_type_symbol
_atom_site_label
_atom_site_fract_x
_atom_site_fract_y
_atom_site_fract_z
Si Si1 0.401889 0.894097 0.507465
Si Si2 0.075712 0.924289 0.800596
Si Si3 0.426776 0.573225 0.194111
Si Si4 0.469441 0.857078 0.761585
Si Si5 0.212577 0.937465 0.180877
Si Si6 0.251580 0.981948 0.644956
Si Si7 0.188368 0.333507 0.396179
Si Si8 0.077587 0.229408 0.541400
O O1 0.500000 0.846345 0.500000
O O2 0.372982 0.872958 0.561781
O O3 0.319945 0.863738 0.471617
O O4 0.413919 0.000000 0.500000
O O5 0.108137 0.891864 0.746741
O O6 0.033351 0.837907 0.828298
O O7 0.000000 0.000000 0.797197
O O8 0.500000 0.500000 0.206290
O O9 0.348902 0.521990 0.165188
O O10 0.565592 0.894048 0.742799
O O11 0.441450 0.773725 0.728420
O O12 0.471838 0.822294 0.817591
O O13 0.143048 0.856953 0.191297
O O14 0.269118 0.918020 0.132338
O O15 0.279815 0.877747 0.639458
O O16 0.247069 0.035145 0.594140
O O17 0.266393 0.266393 0.415914
O O18 0.142237 0.142237 0.541843
O O19 0.000000 0.214516 0.500000
#
# Coordination Sequence:
#
# PCOD8311619 Si02
#       8
#    16   8   8  16  16  16  16  16
#     4  10  21  39  63  86 113 160 204 252 307 367
#     4   9  18  36  60  86 117 154 201 255 308 362
#     4  11  22  34  60  88 125 171 211 253 304 373
#     4  11  24  40  58  88 125 166 204 257 313 365
#     4  10  21  38  63  89 119 158 203 257 308 367
#     4  12  22  37  59  90 127 168 213 249 306 380
#     4  11  21  38  64  91 118 158 205 253 308 377
#     4  11  24  40  60  93 133 168 210 265 316 381
#
# _framework density 18.648046000000001
#
# number of rings (size 3 to 8) (size 9 to 14) (size 15 to 20)
#    0.000    1.286    6.429    0.857    1.000    1.857 
#    1.286    0.000    6.286    0.000    0.000    0.000 
#    0.000    0.000    0.000    0.000    0.000    0.000 
#
# Total GULP energy -694053.588518 kJ/mol
# GULP energy per Si atom -12393.814081 kJ/mol
# Density = 1.860560 g / cm^3
# Si number density = 18.648046 Si / 1000 Ang^3
#
#
#
# Elastic Constant Matrix: (Units=GPa)
#
#
# Indices 1 2 3 4 5 6 
#
# 1 92.6372 40.8298 55.6603 0.0000 0.0000 0.0000
# 2 40.8298 92.6368 55.6603 0.0000 0.0000 0.0000
# 3 55.6603 55.6603 125.4126 0.0000 0.0000 0.0000
# 4 0.0000 0.0000 0.0000 24.2554 0.0000 0.0000
# 5 0.0000 0.0000 0.0000 0.0000 24.2559 0.0000
# 6 0.0000 0.0000 0.0000 0.0000 0.0000 22.6837
#
#
#
# Elastic Compliance Matrix: (Units=1/GPa)
#
#
# Indices 1 2 3 4 5 6 
#
# 1 0.015599 -0.003703 -0.005280 0.000000 0.000000 0.000000
# 2 -0.003703 0.015599 -0.005280 0.000000 0.000000 0.000000
# 3 -0.005280 -0.005280 0.012660 0.000000 0.000000 0.000000
# 4 0.000000 0.000000 0.000000 0.041228 0.000000 0.000000
# 5 0.000000 0.000000 0.000000 0.000000 0.041227 0.000000
# 6 0.000000 0.000000 0.000000 0.000000 0.000000 0.044085
#
#
# Mechanical properties :
#
#
# Convention : Reuss Voigt Hill
#
# Bulk Modulus (GPa) = 65.21638 68.33192 66.77415
# Shear Modulus (GPa) = 24.50569 24.80810 24.65689
#
# Velocity S-wave (km/s) = 3.62901 3.65133 3.64018
# Velocity P-wave (km/s) = 7.25312 7.38233 7.31801
#
# Compressibility (1/GPa) = 0.01533357
#
# Stress axis : x y z
#
# Youngs Moduli (GPa) = 64.10587 64.10555 78.98802
#
# Poissons Ratio (x) = 0.23739 0.41703
# Poissons Ratio (y) = 0.23739 0.41704
# Poissons Ratio (z) = 0.33846 0.33846
#
# Static dielectric constant tensor:
#      x y z
#    x 3.712940 0.000000 0.000000 
#    y 0.000000 3.712930 0.000000 
#    z 0.000000 0.000000 3.377620 
# 
# 
# High freq. dielectric constant tensor:
#      x y z
#    x 1.723770 0.000000 0.000000 
#    y 0.000000 1.723770 0.000000 
#    z 0.000000 0.000000 1.719880 
# 
# From -- ./inp_files/7771.got.cif
#   From: 2010.03.12/outbox.cif.g09.slc.cpg/sg121_4_cif.got.tgz:7771.got - 2010.04.06 16:06:48.
