data_PCOD8311896
_publ_section_title
;
Structure prediction by ZEFSAII (Michael W. Deem and Ramdas Pophale) SiO2 
 PCOD8311896
Probable space group: I -4 2 D
;
_chemical_formula_sum "Si O2"
_cell_formula_units_Z 84
_cell_length_a 21.062356
_cell_length_b 21.062356
_cell_length_c 10.038155
_cell_angle_alpha 90.000000
_cell_angle_beta 90.000000
_cell_angle_gamma 90.000000
_cell_volume 4453.154832
_symmetry_space_group_name_H-M "I -4 2 D"
_symmetry_group_IT_number 122
_symmetry_cell_setting 'tetragonal'
loop_
_space_group_symop_operation_xyz
x,y,z
y,-x,-z
-x,-y,z
-y,x,-z
x,1/2-y,1/4-z
-x,1/2+y,1/4-z
-y,1/2-x,1/4+z
y,1/2+x,1/4+z
1/2+x,1/2+y,1/2+z
1/2+y,1/2-x,1/2-z
1/2-x,1/2-y,1/2+z
1/2-y,1/2+x,1/2-z
1/2+x,-y,3/4-z
1/2-x,y,3/4-z
1/2-y,-x,3/4+z
1/2+y,x,3/4+z
loop_
_atom_site_type_symbol
_atom_site_label
_atom_site_fract_x
_atom_site_fract_y
_atom_site_fract_z
Si Si1 0.326078 0.478561 0.380360
Si Si2 0.494195 0.870018 0.342708
Si Si3 0.605283 0.135401 0.128326
Si Si4 0.622436 0.383700 0.416209
Si Si5 0.697232 0.250000 0.125000
Si Si6 0.250000 0.692699 0.375000
Si Si7 0.000000 0.500000 0.750000
O O1 0.250000 0.484725 0.375000
O O2 0.341041 0.465476 0.226105
O O3 0.353061 0.419576 0.466154
O O4 0.362057 0.541457 0.435799
O O5 0.457390 0.844879 0.211621
O O6 0.569871 0.860070 0.326750
O O7 0.479262 0.944856 0.350382
O O8 0.655528 0.189204 0.156944
O O9 0.585590 0.128743 0.973055
O O10 0.690108 0.350504 0.407070
O O11 0.741439 0.261237 0.250777
#
# Coordination Sequence:
#
# PCOD8311896 Si02
#       7
#    16  16  16  16   8   8   4
#     4  11  24  39  62  92 121 164 203 254 312 375
#     4   9  19  36  61  86 116 147 200 247 307 355
#     4   9  20  38  58  85 115 157 190 259 297 365
#     4  10  23  42  63  86 129 155 201 257 316 362
#     4  10  22  36  58  80 118 162 206 230 312 362
#     4  10  22  42  56  84 120 164 196 260 292 374
#     4   8  16  36  60  82 116 148 184 254 300 348
#
# _framework density 18.863030999999999
#
# number of rings (size 3 to 8) (size 9 to 14) (size 15 to 20)
#    0.000    2.286    0.952    0.000    6.667    6.476 
#    0.000    0.952    0.000    0.000    0.000    0.000 
#    0.000    0.000    0.000    0.000    0.000    0.000 
#
# Total GULP energy -520442.218555 kJ/mol
# GULP energy per Si atom -12391.481394 kJ/mol
# Density = 1.882010 g / cm^3
# Si number density = 18.863031 Si / 1000 Ang^3
#
#
#
# Elastic Constant Matrix: (Units=GPa)
#
#
# Indices 1 2 3 4 5 6 
#
# 1 102.5001 36.5289 74.5507 0.0000 0.0000 0.0000
# 2 36.5289 102.5001 74.5507 0.0000 0.0000 0.0000
# 3 74.5507 74.5507 131.7092 0.0000 0.0000 0.0000
# 4 0.0000 0.0000 0.0000 35.3131 0.0000 0.0000
# 5 0.0000 0.0000 0.0000 0.0000 35.3131 0.0000
# 6 0.0000 0.0000 0.0000 0.0000 0.0000 4.4871
#
#
#
# Elastic Compliance Matrix: (Units=1/GPa)
#
#
# Indices 1 2 3 4 5 6 
#
# 1 0.016731 0.001573 -0.010360 0.000000 0.000000 0.000000
# 2 0.001573 0.016731 -0.010360 0.000000 0.000000 0.000000
# 3 -0.010360 -0.010360 0.019321 0.000000 0.000000 0.000000
# 4 0.000000 0.000000 0.000000 0.028318 0.000000 0.000000
# 5 0.000000 0.000000 0.000000 0.000000 0.028318 0.000000
# 6 0.000000 0.000000 0.000000 0.000000 0.000000 0.222862
#
#
# Mechanical properties :
#
#
# Convention : Reuss Voigt Hill
#
# Bulk Modulus (GPa) = 69.02790 78.66331 73.84561
# Shear Modulus (GPa) = 13.31892 25.09462 19.20677
#
# Velocity S-wave (km/s) = 2.66011 3.65137 3.19442
# Velocity P-wave (km/s) = 6.79033 7.71813 7.26905
#
# Compressibility (1/GPa) = 0.01448689
#
# Stress axis : x y z
#
# Youngs Moduli (GPa) = 59.76974 59.76974 51.75750
#
# Poissons Ratio (x) = -0.09400 0.53622
# Poissons Ratio (y) = -0.09400 0.53622
# Poissons Ratio (z) = 0.61923 0.61923
#
# Static dielectric constant tensor:
#      x y z
#    x 3.581900 0.000000 0.000000 
#    y 0.000000 3.581900 0.000000 
#    z 0.000000 0.000000 3.768810 
# 
# 
# High freq. dielectric constant tensor:
#      x y z
#    x 1.735520 0.000000 0.000000 
#    y 0.000000 1.735520 0.000000 
#    z 0.000000 0.000000 1.734620 
# 
# From -- ./inp_files/4424.got.cif
#   From: 2010.03.12/outbox.cif.g09.slc.cpg/sg122_3_cif.got.tgz:4424.got - 2010.04.06 16:17:16.
