data_PCOD8311932
_publ_section_title
;
Structure prediction by ZEFSAII (Michael W. Deem and Ramdas Pophale) SiO2 
 PCOD8311932
Probable space group: I -4 2 D
;
_chemical_formula_sum "Si O2"
_cell_formula_units_Z 72
_cell_length_a 19.098153
_cell_length_b 19.098153
_cell_length_c 9.295895
_cell_angle_alpha 90.000000
_cell_angle_beta 90.000000
_cell_angle_gamma 90.000000
_cell_volume 3390.579611
_symmetry_space_group_name_H-M "I -4 2 D"
_symmetry_group_IT_number 122
_symmetry_cell_setting 'tetragonal'
loop_
_space_group_symop_operation_xyz
x,y,z
y,-x,-z
-x,-y,z
-y,x,-z
x,1/2-y,1/4-z
-x,1/2+y,1/4-z
-y,1/2-x,1/4+z
y,1/2+x,1/4+z
1/2+x,1/2+y,1/2+z
1/2+y,1/2-x,1/2-z
1/2-x,1/2-y,1/2+z
1/2-y,1/2+x,1/2-z
1/2+x,-y,3/4-z
1/2-x,y,3/4-z
1/2-y,-x,3/4+z
1/2+y,x,3/4+z
loop_
_atom_site_type_symbol
_atom_site_label
_atom_site_fract_x
_atom_site_fract_y
_atom_site_fract_z
Si Si1 0.250000 0.127509 0.375000
Si Si2 0.582793 0.044665 0.175131
Si Si3 0.217067 0.625668 0.722042
Si Si4 0.067423 0.190169 0.011538
Si Si5 0.936208 0.361433 0.419579
O O1 0.300833 0.177277 0.283662
O O2 0.292124 0.078887 0.486125
O O3 0.539504 0.076152 0.313127
O O4 0.663648 0.062973 0.188551
O O5 0.547760 0.074281 0.028449
O O6 0.277718 0.620086 0.604959
O O7 0.250000 0.613410 0.875000
O O8 0.999766 0.154096 0.938548
O O9 0.043066 0.250000 0.125000
O O10 0.116307 0.132489 0.083687
#
# Coordination Sequence:
#
# PCOD8311932 Si02
#       5
#     8  16  16  16  16
#     4  10  24  44  68 100 142 190 230 292 364 436
#     4  10  22  42  67  97 136 181 236 287 355 430
#     4  11  25  41  71  99 139 182 240 286 362 436
#     4  12  26  49  70 109 146 189 246 306 370 432
#     4  11  27  44  74 103 151 187 244 306 367 442
#
# _framework density 21.235308
#
# number of rings (size 3 to 8) (size 9 to 14) (size 15 to 20)
#    0.000    1.111    4.444    1.333   10.889    7.556 
#    0.000    0.000    0.000    0.000    0.000    0.000 
#    0.000    0.000    0.000    0.000    0.000    0.000 
#
# Total GULP energy -446303.233547 kJ/mol
# GULP energy per Si atom -12397.312043 kJ/mol
# Density = 2.118698 g / cm^3
# Si number density = 21.235308 Si / 1000 Ang^3
#
#
#
# Elastic Constant Matrix: (Units=GPa)
#
#
# Indices 1 2 3 4 5 6 
#
# 1 73.9863 2.5930 29.4966 0.0000 0.0000 0.0000
# 2 2.5930 73.9863 29.4966 0.0000 0.0000 0.0000
# 3 29.4966 29.4966 124.7916 0.0000 0.0000 0.0000
# 4 0.0000 0.0000 0.0000 26.7656 0.0000 0.0000
# 5 0.0000 0.0000 0.0000 0.0000 26.7656 0.0000
# 6 0.0000 0.0000 0.0000 0.0000 0.0000 10.2177
#
#
#
# Elastic Compliance Matrix: (Units=1/GPa)
#
#
# Indices 1 2 3 4 5 6 
#
# 1 0.014986 0.000979 -0.003774 0.000000 0.000000 0.000000
# 2 0.000979 0.014986 -0.003774 0.000000 0.000000 0.000000
# 3 -0.003774 -0.003774 0.009797 0.000000 0.000000 0.000000
# 4 0.000000 0.000000 0.000000 0.037361 0.000000 0.000000
# 5 0.000000 0.000000 0.000000 0.000000 0.037361 0.000000
# 6 0.000000 0.000000 0.000000 0.000000 0.000000 0.097870
#
#
# Mechanical properties :
#
#
# Convention : Reuss Voigt Hill
#
# Bulk Modulus (GPa) = 37.54686 43.99299 40.76993
# Shear Modulus (GPa) = 21.33322 26.82832 24.08077
#
# Velocity S-wave (km/s) = 3.17300 3.55827 3.37114
# Velocity P-wave (km/s) = 5.58065 6.13543 5.86460
#
# Compressibility (1/GPa) = 0.02663338
#
# Stress axis : x y z
#
# Youngs Moduli (GPa) = 66.72815 66.72815 102.06875
#
# Poissons Ratio (x) = -0.06534 0.38518
# Poissons Ratio (y) = -0.06534 0.38518
# Poissons Ratio (z) = 0.25181 0.25181
#
# Static dielectric constant tensor:
#      x y z
#    x 3.909210 0.000000 0.000000 
#    y 0.000000 3.909210 0.000000 
#    z 0.000000 0.000000 4.128500 
# 
# 
# High freq. dielectric constant tensor:
#      x y z
#    x 1.838190 0.000000 0.000000 
#    y 0.000000 1.838190 0.000000 
#    z 0.000000 0.000000 1.838840 
# 
# From -- ./inp_files/2665.got.cif
#   From: 2010.03.12/outbox.cif.g09.slc.cpg/sg122_2_cif.got.tgz:2665.got - 2010.04.06 16:17:16.
