data_PCOD8311193
_publ_section_title
;
Structure prediction by ZEFSAII (Michael W. Deem and Ramdas Pophale) SiO2 
 PCOD8311193
Probable space group: I -4 C 2
;
_chemical_formula_sum "Si O2"
_cell_formula_units_Z 72
_cell_length_a 21.333285
_cell_length_b 21.333285
_cell_length_c 7.680284
_cell_angle_alpha 90.000000
_cell_angle_beta 90.000000
_cell_angle_gamma 90.000000
_cell_volume 3495.366746
_symmetry_space_group_name_H-M "I -4 C 2"
_symmetry_group_IT_number 120
_symmetry_cell_setting 'tetragonal'
loop_
_space_group_symop_operation_xyz
x,y,z
y,-x,-z
-x,-y,z
-y,x,-z
y,x,1/2-z
-y,-x,1/2-z
-x,y,1/2+z
x,-y,1/2+z
1/2+x,1/2+y,1/2+z
1/2+y,1/2-x,1/2-z
1/2-x,1/2-y,1/2+z
1/2-y,1/2+x,1/2-z
1/2+y,1/2+x,-z
1/2-y,1/2-x,-z
1/2-x,1/2+y,z
1/2+x,1/2-y,z
loop_
_atom_site_type_symbol
_atom_site_label
_atom_site_fract_x
_atom_site_fract_y
_atom_site_fract_z
Si Si1 0.564312 0.075742 0.701201
Si Si2 0.315547 0.148068 0.810236
Si Si3 0.788603 0.211398 0.750000
Si Si4 0.374163 0.685395 0.582940
Si Si5 0.417509 0.453990 0.559940
O O1 0.490232 0.086755 0.721882
O O2 0.577115 0.077115 0.500000
O O3 0.605567 0.131988 0.789359
O O4 0.300617 0.214351 0.715223
O O5 0.252981 0.106969 0.840579
O O6 0.339829 0.160172 0.000000
O O7 0.811328 0.176780 0.574302
O O8 0.350934 0.649067 0.750000
O O9 0.435865 0.650943 0.510425
O O10 0.423894 0.529081 0.564987
O O11 0.425988 0.425988 0.750000
#
# Coordination Sequence:
#
# PCOD8311193 Si02
#       5
#    16  16   8  16  16
#     4  10  20  40  60  87 121 158 203 257 306 367
#     4   9  20  38  62  86 122 162 205 252 315 365
#     4  10  20  42  62  85 128 165 204 258 308 376
#     4  11  21  39  61  93 125 163 210 253 307 370
#     4  11  22  41  64  90 126 166 208 253 310 366
#
# _framework density 20.598696
#
# number of rings (size 3 to 8) (size 9 to 14) (size 15 to 20)
#    0.000    1.778    2.222    4.000    0.000    0.000 
#   12.000    2.222    0.000    0.000    0.000    0.000 
#    0.000    0.000    0.000    0.000    0.000    0.000 
#
# Total GULP energy -446056.714809 kJ/mol
# GULP energy per Si atom -12390.464300 kJ/mol
# Density = 2.055181 g / cm^3
# Si number density = 20.598696 Si / 1000 Ang^3
#
#
#
# Elastic Constant Matrix: (Units=GPa)
#
#
# Indices 1 2 3 4 5 6 
#
# 1 114.7470 80.4610 4.9646 0.0000 0.0000 0.0000
# 2 80.4610 114.7480 4.9634 0.0000 0.0000 0.0000
# 3 4.9646 4.9634 60.3040 0.0000 0.0000 0.0000
# 4 0.0000 0.0000 0.0000 32.1484 0.0000 0.0000
# 5 0.0000 0.0000 0.0000 0.0000 32.1457 0.0000
# 6 0.0000 0.0000 0.0000 0.0000 0.0000 46.1335
#
#
#
# Elastic Compliance Matrix: (Units=1/GPa)
#
#
# Indices 1 2 3 4 5 6 
#
# 1 0.017155 -0.012011 -0.000424 0.000000 0.000000 0.000000
# 2 -0.012011 0.017155 -0.000423 0.000000 0.000000 0.000000
# 3 -0.000424 -0.000423 0.016652 0.000000 0.000000 0.000000
# 4 0.000000 0.000000 0.000000 0.031106 0.000000 0.000000
# 5 0.000000 0.000000 0.000000 0.000000 0.031108 0.000000
# 6 0.000000 0.000000 0.000000 0.000000 0.000000 0.021676
#
#
# Mechanical properties :
#
#
# Convention : Reuss Voigt Hill
#
# Bulk Modulus (GPa) = 39.60857 52.28633 45.94745
# Shear Modulus (GPa) = 29.58858 35.37953 32.48406
#
# Velocity S-wave (km/s) = 3.79414 4.14884 3.97545
# Velocity P-wave (km/s) = 6.20197 6.95622 6.58989
#
# Compressibility (1/GPa) = 0.02524706
#
# Stress axis : x y z
#
# Youngs Moduli (GPa) = 58.29133 58.29194 60.05159
#
# Poissons Ratio (x) = 0.70014 0.02545
# Poissons Ratio (y) = 0.70013 0.02541
# Poissons Ratio (z) = 0.02470 0.02467
#
# Static dielectric constant tensor:
#      x y z
#    x 3.621930 0.000000 0.000000 
#    y 0.000000 3.621830 0.000000 
#    z 0.000000 0.000000 3.703870 
# 
# 
# High freq. dielectric constant tensor:
#      x y z
#    x 1.799490 0.000000 0.000000 
#    y 0.000000 1.799490 0.000000 
#    z 0.000000 0.000000 1.809410 
# 
# From -- ./inp_files/1352.got.cif
#   From: 2010.03.12/outbox.cif.g09.slc.cpg/sg120_1_cif.got.tgz:1352.got - 2010.04.06 16:00:44.
