data_PCOD8311314
_publ_section_title
;
Structure prediction by ZEFSAII (Michael W. Deem and Ramdas Pophale) SiO2 
 PCOD8311314
Probable space group: I -4 C 2
;
_chemical_formula_sum "Si O2"
_cell_formula_units_Z 64
_cell_length_a 13.240637
_cell_length_b 13.240637
_cell_length_c 16.344467
_cell_angle_alpha 90.000000
_cell_angle_beta 90.000000
_cell_angle_gamma 90.000000
_cell_volume 2865.421540
_symmetry_space_group_name_H-M "I -4 C 2"
_symmetry_group_IT_number 120
_symmetry_cell_setting 'tetragonal'
loop_
_space_group_symop_operation_xyz
x,y,z
y,-x,-z
-x,-y,z
-y,x,-z
y,x,1/2-z
-y,-x,1/2-z
-x,y,1/2+z
x,-y,1/2+z
1/2+x,1/2+y,1/2+z
1/2+y,1/2-x,1/2-z
1/2-x,1/2-y,1/2+z
1/2-y,1/2+x,1/2-z
1/2+y,1/2+x,-z
1/2-y,1/2-x,-z
1/2-x,1/2+y,z
1/2+x,1/2-y,z
loop_
_atom_site_type_symbol
_atom_site_label
_atom_site_fract_x
_atom_site_fract_y
_atom_site_fract_z
Si Si1 0.000000 0.000000 0.500000
Si Si2 0.000000 0.500000 0.750000
Si Si3 0.785926 0.214075 0.750000
Si Si4 0.621044 0.878957 0.500000
Si Si5 0.603423 0.103423 0.500000
Si Si6 0.184116 0.919393 0.893729
Si Si7 0.084810 0.688293 0.168042
O O1 0.914803 0.941459 0.447837
O O2 0.988552 0.595995 0.690686
O O3 0.839886 0.167958 0.829361
O O4 0.666063 0.198427 0.740205
O O5 0.508276 0.876174 0.461314
O O6 0.717502 0.876045 0.440807
O O7 0.675661 0.129815 0.423790
O O8 0.210703 0.017850 0.839358
#
# Coordination Sequence:
#
# PCOD8311314 Si02
#       7
#     4   4   8   8   8  16  16
#     4  12  32  50  72 100 156 206 240 288 364 454
#     4  12  20  46  72 112 144 162 240 312 376 394
#     4  12  28  41  74 109 144 190 236 302 368 431
#     4   9  20  41  75 105 125 177 236 294 342 420
#     4   9  20  39  73 103 139 167 230 301 358 415
#     4  11  27  49  70 105 144 196 240 297 359 441
#     4  11  24  44  72 107 137 183 233 306 357 428
#
# _framework density 22.335280999999998
#
# number of rings (size 3 to 8) (size 9 to 14) (size 15 to 20)
#    0.000    1.250    2.500    3.000   10.500    2.500 
#    0.000    0.000    0.000    0.000    0.000    0.000 
#    0.000    0.000    0.000    0.000    0.000    0.000 
#
# Total GULP energy -396422.594294 kJ/mol
# GULP energy per Si atom -12388.206072 kJ/mol
# Density = 2.228444 g / cm^3
# Si number density = 22.335281 Si / 1000 Ang^3
#
#
#
# Elastic Constant Matrix: (Units=GPa)
#
#
# Indices 1 2 3 4 5 6 
#
# 1 80.8207 43.0268 37.7202 0.0000 0.0000 0.0000
# 2 43.0268 80.8229 37.7202 0.0000 0.0000 0.0000
# 3 37.7202 37.7202 80.1170 0.0000 0.0000 0.0000
# 4 0.0000 0.0000 0.0000 34.3680 0.0000 0.0000
# 5 0.0000 0.0000 0.0000 0.0000 34.3683 0.0000
# 6 0.0000 0.0000 0.0000 0.0000 0.0000 28.6326
#
#
#
# Elastic Compliance Matrix: (Units=1/GPa)
#
#
# Indices 1 2 3 4 5 6 
#
# 1 0.018890 -0.007569 -0.005330 0.000000 0.000000 0.000000
# 2 -0.007569 0.018889 -0.005330 0.000000 0.000000 0.000000
# 3 -0.005330 -0.005330 0.017501 0.000000 0.000000 0.000000
# 4 0.000000 0.000000 0.000000 0.029097 0.000000 0.000000
# 5 0.000000 0.000000 0.000000 0.000000 0.029097 0.000000
# 6 0.000000 0.000000 0.000000 0.000000 0.000000 0.034925
#
#
# Mechanical properties :
#
#
# Convention : Reuss Voigt Hill
#
# Bulk Modulus (GPa) = 53.12805 53.18834 53.15819
# Shear Modulus (GPa) = 26.16005 27.69336 26.92670
#
# Velocity S-wave (km/s) = 3.42606 3.52503 3.47590
# Velocity P-wave (km/s) = 6.28401 6.35870 6.32146
#
# Compressibility (1/GPa) = 0.01882245
#
# Stress axis : x y z
#
# Youngs Moduli (GPa) = 52.93766 52.93951 57.14035
#
# Poissons Ratio (x) = 0.40068 0.30458
# Poissons Ratio (y) = 0.40067 0.30456
# Poissons Ratio (z) = 0.28217 0.28217
#
# Static dielectric constant tensor:
#      x y z
#    x 3.993510 0.000000 0.000000 
#    y 0.000000 3.993480 0.000000 
#    z 0.000000 0.000000 3.974280 
# 
# 
# High freq. dielectric constant tensor:
#      x y z
#    x 1.875630 0.000000 0.000000 
#    y 0.000000 1.875630 0.000000 
#    z 0.000000 0.000000 1.874470 
# 
# From -- ./inp_files/4237.got.cif
#   From: 2010.03.12/outbox.cif.g09.slc.cpg/sg120_3_cif.got.tgz:4237.got - 2010.04.06 16:00:44.
