data_PCOD8311989
_publ_section_title
;
Structure prediction by ZEFSAII (Michael W. Deem and Ramdas Pophale) SiO2 
 PCOD8311989
Probable space group: I -4 2 D
;
_chemical_formula_sum "Si O2"
_cell_formula_units_Z 64
_cell_length_a 13.343801
_cell_length_b 13.343801
_cell_length_c 16.147929
_cell_angle_alpha 90.000000
_cell_angle_beta 90.000000
_cell_angle_gamma 90.000000
_cell_volume 2875.252200
_symmetry_space_group_name_H-M "I -4 2 D"
_symmetry_group_IT_number 122
_symmetry_cell_setting 'tetragonal'
loop_
_space_group_symop_operation_xyz
x,y,z
y,-x,-z
-x,-y,z
-y,x,-z
x,1/2-y,1/4-z
-x,1/2+y,1/4-z
-y,1/2-x,1/4+z
y,1/2+x,1/4+z
1/2+x,1/2+y,1/2+z
1/2+y,1/2-x,1/2-z
1/2-x,1/2-y,1/2+z
1/2-y,1/2+x,1/2-z
1/2+x,-y,3/4-z
1/2-x,y,3/4-z
1/2-y,-x,3/4+z
1/2+y,x,3/4+z
loop_
_atom_site_type_symbol
_atom_site_label
_atom_site_fract_x
_atom_site_fract_y
_atom_site_fract_z
Si Si1 0.551131 0.717044 0.748435
Si Si2 0.750061 0.450820 0.674926
Si Si3 0.241819 0.149474 0.471063
Si Si4 0.535994 0.395801 0.606971
O O1 0.516586 0.688792 0.842077
O O2 0.673011 0.729011 0.749521
O O3 0.525897 0.623140 0.690800
O O4 0.492180 0.813811 0.712920
O O5 0.736428 0.548008 0.729584
O O6 0.803990 0.368730 0.734056
O O7 0.652241 0.399051 0.632601
O O8 0.250000 0.122859 0.375000
O O9 0.500000 0.500000 0.569131
#
# Coordination Sequence:
#
# PCOD8311989 Si02
#       4
#    16  16  16  16
#     4  10  25  42  66 102 141 176 235 292 359 435
#     4  11  25  44  71  99 139 193 236 294 361 430
#     4  10  24  48  66 100 140 181 242 293 352 434
#     4  11  24  42  69 105 140 181 231 299 364 431
#
# _framework density 22.258915999999999
#
# number of rings (size 3 to 8) (size 9 to 14) (size 15 to 20)
#    0.000    1.500    2.500    0.000   14.000    2.500 
#    4.500    0.000    0.000    0.000    0.000    0.000 
#    0.000    0.000    0.000    0.000    0.000    0.000 
#
# Total GULP energy -396466.589661 kJ/mol
# GULP energy per Si atom -12389.580927 kJ/mol
# Density = 2.220825 g / cm^3
# Si number density = 22.258916 Si / 1000 Ang^3
#
#
#
# Elastic Constant Matrix: (Units=GPa)
#
#
# Indices 1 2 3 4 5 6 
#
# 1 114.3315 54.9355 37.0698 0.0000 0.0000 0.0000
# 2 54.9355 114.3315 37.0698 0.0000 0.0000 0.0000
# 3 37.0698 37.0698 90.5513 0.0000 0.0000 0.0000
# 4 0.0000 0.0000 0.0000 36.3771 0.0000 0.0000
# 5 0.0000 0.0000 0.0000 0.0000 36.3771 0.0000
# 6 0.0000 0.0000 0.0000 0.0000 0.0000 33.9840
#
#
#
# Elastic Compliance Matrix: (Units=1/GPa)
#
#
# Indices 1 2 3 4 5 6 
#
# 1 0.012017 -0.004819 -0.002947 0.000000 0.000000 0.000000
# 2 -0.004819 0.012017 -0.002947 0.000000 0.000000 0.000000
# 3 -0.002947 -0.002947 0.013456 0.000000 0.000000 0.000000
# 4 0.000000 0.000000 0.000000 0.027490 0.000000 0.000000
# 5 0.000000 0.000000 0.000000 0.000000 0.027490 0.000000
# 6 0.000000 0.000000 0.000000 0.000000 0.000000 0.029426
#
#
# Mechanical properties :
#
#
# Convention : Reuss Voigt Hill
#
# Bulk Modulus (GPa) = 62.24445 64.15162 63.19803
# Shear Modulus (GPa) = 33.62997 34.02359 33.82678
#
# Velocity S-wave (km/s) = 3.89119 3.91389 3.90256
# Velocity P-wave (km/s) = 6.94356 7.02196 6.98287
#
# Compressibility (1/GPa) = 0.01606569
#
# Stress axis : x y z
#
# Youngs Moduli (GPa) = 83.21280 83.21281 74.31456
#
# Poissons Ratio (x) = 0.40098 0.21900
# Poissons Ratio (y) = 0.40098 0.21900
# Poissons Ratio (z) = 0.24522 0.24522
#
# Static dielectric constant tensor:
#      x y z
#    x 4.111930 0.000000 0.000000 
#    y 0.000000 4.111930 0.000000 
#    z 0.000000 0.000000 4.371790 
# 
# 
# High freq. dielectric constant tensor:
#      x y z
#    x 1.872170 0.000000 0.000000 
#    y 0.000000 1.872170 0.000000 
#    z 0.000000 0.000000 1.891930 
# 
# From -- ./inp_files/5142.got.cif
#   From: 2010.03.12/outbox.cif.g09.slc.cpg/sg122_3_cif.got.tgz:5142.got - 2010.04.06 16:17:16.
