data_PCOD8311779
_publ_section_title
;
Structure prediction by ZEFSAII (Michael W. Deem and Ramdas Pophale) SiO2 
 PCOD8311779
Probable space group: I -4 2 D
;
_chemical_formula_sum "Si O2"
_cell_formula_units_Z 112
_cell_length_a 14.256082
_cell_length_b 14.256082
_cell_length_c 26.977992
_cell_angle_alpha 90.000000
_cell_angle_beta 90.000000
_cell_angle_gamma 90.000000
_cell_volume 5482.895783
_symmetry_space_group_name_H-M "I -4 2 D"
_symmetry_group_IT_number 122
_symmetry_cell_setting 'tetragonal'
loop_
_space_group_symop_operation_xyz
x,y,z
y,-x,-z
-x,-y,z
-y,x,-z
x,1/2-y,1/4-z
-x,1/2+y,1/4-z
-y,1/2-x,1/4+z
y,1/2+x,1/4+z
1/2+x,1/2+y,1/2+z
1/2+y,1/2-x,1/2-z
1/2-x,1/2-y,1/2+z
1/2-y,1/2+x,1/2-z
1/2+x,-y,3/4-z
1/2-x,y,3/4-z
1/2-y,-x,3/4+z
1/2+y,x,3/4+z
loop_
_atom_site_type_symbol
_atom_site_label
_atom_site_fract_x
_atom_site_fract_y
_atom_site_fract_z
Si Si1 0.750023 0.580638 0.713504
Si Si2 0.092559 0.622928 0.257593
Si Si3 0.145176 0.780441 0.889216
Si Si4 0.621634 0.773932 0.257787
Si Si5 0.221566 0.780708 0.073344
Si Si6 0.107944 0.391938 0.949110
Si Si7 0.393944 0.900778 0.440696
O O1 0.703133 0.579292 0.658779
O O2 0.801996 0.483255 0.726351
O O3 0.833778 0.657349 0.716379
O O4 0.664347 0.607662 0.749391
O O5 0.129557 0.516954 0.254938
O O6 0.110467 0.661764 0.312930
O O7 0.146350 0.683764 0.216497
O O8 0.250000 0.811327 0.875000
O O9 0.138697 0.668824 0.897738
O O10 0.688569 0.776229 0.305108
O O11 0.618097 0.667832 0.238898
O O12 0.172257 0.750000 0.125000
O O13 0.303651 0.857507 0.083572
O O14 0.120750 0.492228 0.921242
O O15 0.998306 0.378376 0.959674
#
# Coordination Sequence:
#
# PCOD8311779 Si02
#       7
#    16  16  16  16  16  16  16
#     4  10  22  40  63  93 128 170 219 274 326 402
#     4  11  26  47  66  96 137 169 212 277 332 385
#     4  12  22  40  70  95 123 176 225 263 330 400
#     4  10  21  41  59  91 128 165 214 271 324 383
#     4  11  23  40  63  92 124 169 209 264 325 388
#     4   9  21  40  61  88 130 165 206 271 325 386
#     4  10  19  39  63  89 123 168 210 265 325 378
#
# _framework density 20.427161999999999
#
# number of rings (size 3 to 8) (size 9 to 14) (size 15 to 20)
#    0.000    1.571    2.857    1.714    4.000    1.429 
#    5.143    1.429    0.000    0.000    0.000    0.000 
#    0.000    0.000    0.000    0.000    0.000    0.000 
#
# Total GULP energy -694118.531462 kJ/mol
# GULP energy per Si atom -12394.973776 kJ/mol
# Density = 2.038067 g / cm^3
# Si number density = 20.427162 Si / 1000 Ang^3
#
#
#
# Elastic Constant Matrix: (Units=GPa)
#
#
# Indices 1 2 3 4 5 6 
#
# 1 111.1412 42.6705 43.8484 0.0000 0.0000 0.0000
# 2 42.6705 111.1412 43.8484 0.0000 0.0000 0.0000
# 3 43.8484 43.8484 130.0108 0.0000 0.0000 0.0000
# 4 0.0000 0.0000 0.0000 22.4668 0.0000 0.0000
# 5 0.0000 0.0000 0.0000 0.0000 22.4668 0.0000
# 6 0.0000 0.0000 0.0000 0.0000 0.0000 30.3666
#
#
#
# Elastic Compliance Matrix: (Units=1/GPa)
#
#
# Indices 1 2 3 4 5 6 
#
# 1 0.011327 -0.003278 -0.002715 0.000000 0.000000 0.000000
# 2 -0.003278 0.011327 -0.002715 0.000000 0.000000 0.000000
# 3 -0.002715 -0.002715 0.009523 0.000000 0.000000 0.000000
# 4 0.000000 0.000000 0.000000 0.044510 0.000000 0.000000
# 5 0.000000 0.000000 0.000000 0.000000 0.044510 0.000000
# 6 0.000000 0.000000 0.000000 0.000000 0.000000 0.032931
#
#
# Mechanical properties :
#
#
# Convention : Reuss Voigt Hill
#
# Bulk Modulus (GPa) = 67.73961 68.11418 67.92690
# Shear Modulus (GPa) = 28.33448 29.85510 29.09479
#
# Velocity S-wave (km/s) = 3.72842 3.82716 3.77811
# Velocity P-wave (km/s) = 7.19502 7.27645 7.23585
#
# Compressibility (1/GPa) = 0.01476241
#
# Stress axis : x y z
#
# Youngs Moduli (GPa) = 88.28432 88.28432 105.01036
#
# Poissons Ratio (x) = 0.28937 0.28508
# Poissons Ratio (y) = 0.28937 0.28508
# Poissons Ratio (z) = 0.23967 0.23967
#
# Static dielectric constant tensor:
#      x y z
#    x 3.903290 0.000000 0.000000 
#    y 0.000000 3.903290 0.000000 
#    z 0.000000 0.000000 3.522510 
# 
# 
# High freq. dielectric constant tensor:
#      x y z
#    x 1.805170 0.000000 0.000000 
#    y 0.000000 1.805170 0.000000 
#    z 0.000000 0.000000 1.783220 
# 
# From -- ./inp_files/8112.got.cif
#   From: 2010.03.12/outbox.cif.g09.slc.cpg/sg122_5_cif.got.tgz:8112.got - 2010.04.06 16:17:16.
