data_PCOD8311605
_publ_section_title
;
Structure prediction by ZEFSAII (Michael W. Deem and Ramdas Pophale) SiO2 
 PCOD8311605
Probable space group: I -4 2 M
;
_chemical_formula_sum "Si O2"
_cell_formula_units_Z 120
_cell_length_a 27.319590
_cell_length_b 27.319590
_cell_length_c 8.381751
_cell_angle_alpha 90.000000
_cell_angle_beta 90.000000
_cell_angle_gamma 90.000000
_cell_volume 6255.803658
_symmetry_space_group_name_H-M "I -4 2 M"
_symmetry_group_IT_number 121
_symmetry_cell_setting 'tetragonal'
loop_
_space_group_symop_operation_xyz
x,y,z
y,-x,-z
-x,-y,z
-y,x,-z
x,-y,-z
-x,y,-z
-y,-x,z
y,x,z
1/2+x,1/2+y,1/2+z
1/2+y,1/2-x,1/2-z
1/2-x,1/2-y,1/2+z
1/2-y,1/2+x,1/2-z
1/2+x,1/2-y,1/2-z
1/2-x,1/2+y,1/2-z
1/2-y,1/2-x,1/2+z
1/2+y,1/2+x,1/2+z
loop_
_atom_site_type_symbol
_atom_site_label
_atom_site_fract_x
_atom_site_fract_y
_atom_site_fract_z
Si Si1 0.356552 0.894627 0.744463
Si Si2 0.424667 0.500000 0.500000
Si Si3 0.147915 0.072392 0.861021
Si Si4 0.929356 0.742147 0.369925
Si Si5 0.208995 0.870263 0.895105
Si Si6 0.039394 0.244621 0.718969
Si Si7 0.530602 0.058618 0.164785
Si Si8 0.892137 0.695015 0.928550
O O1 0.312754 0.911188 0.634436
O O2 0.400907 0.928472 0.689711
O O3 0.365676 0.836656 0.709620
O O4 0.343265 0.903503 0.929605
O O5 0.459710 0.540291 0.412010
O O6 0.390619 0.471487 0.377154
O O7 0.119592 0.119592 0.786678
O O8 0.188277 0.050286 0.748624
O O9 0.173018 0.089599 0.026488
O O10 0.891038 0.777388 0.279457
O O11 0.931460 0.750872 0.555772
O O12 0.981964 0.746586 0.287099
O O13 0.181979 0.818022 0.876859
O O14 0.258438 0.861590 0.001607
O O15 0.058660 0.282071 0.853120
O O16 0.493473 0.059000 0.318362
O O17 0.500000 0.065399 0.000000
#
# Coordination Sequence:
#
# PCOD8311605 Si02
#       8
#    16   8  16  16  16  16  16  16
#     4  11  23  38  60  83 113 150 194 235 296 348
#     4   9  16  26  46  80 118 152 188 228 273 330
#     4   9  17  31  54  81 112 150 192 235 284 340
#     4  10  22  36  57  85 114 151 192 240 290 353
#     4   9  19  37  58  83 113 148 192 243 295 349
#     4  10  21  37  56  83 119 148 193 243 292 344
#     4  11  24  40  56  82 116 152 193 234 282 349
#     4  10  22  39  60  86 113 148 193 241 291 356
#
# _framework density 19.182186999999999
#
# number of rings (size 3 to 8) (size 9 to 14) (size 15 to 20)
#    0.000    2.067    0.000    3.200    3.733    4.800 
#    0.000    2.667    0.000    4.000    0.000    0.000 
#    0.000    4.267    0.000    0.000    0.000    0.000 
#
# Total GULP energy -743342.063565 kJ/mol
# GULP energy per Si atom -12389.034393 kJ/mol
# Density = 1.913853 g / cm^3
# Si number density = 19.182187 Si / 1000 Ang^3
#
#
#
# Elastic Constant Matrix: (Units=GPa)
#
#
# Indices 1 2 3 4 5 6 
#
# 1 103.7017 64.9966 33.1874 0.0000 0.0000 0.0000
# 2 64.9966 103.7025 33.1877 0.0000 0.0000 0.0000
# 3 33.1874 33.1877 84.3494 0.0000 0.0000 0.0000
# 4 0.0000 0.0000 0.0000 23.1176 0.0000 0.0000
# 5 0.0000 0.0000 0.0000 0.0000 23.1168 0.0000
# 6 0.0000 0.0000 0.0000 0.0000 0.0000 31.4184
#
#
#
# Elastic Compliance Matrix: (Units=1/GPa)
#
#
# Indices 1 2 3 4 5 6 
#
# 1 0.016425 -0.009411 -0.002759 0.000000 0.000000 0.000000
# 2 -0.009411 0.016425 -0.002759 0.000000 0.000000 0.000000
# 3 -0.002759 -0.002759 0.014027 0.000000 0.000000 0.000000
# 4 0.000000 0.000000 0.000000 0.043257 0.000000 0.000000
# 5 0.000000 0.000000 0.000000 0.000000 0.043259 0.000000
# 6 0.000000 0.000000 0.000000 0.000000 0.000000 0.031829
#
#
# Mechanical properties :
#
#
# Convention : Reuss Voigt Hill
#
# Bulk Modulus (GPa) = 58.76848 61.61079 60.18963
# Shear Modulus (GPa) = 24.90620 26.22267 25.56444
#
# Velocity S-wave (km/s) = 3.60724 3.70135 3.65460
# Velocity P-wave (km/s) = 6.93204 7.10318 7.01813
#
# Compressibility (1/GPa) = 0.01701593
#
# Stress axis : x y z
#
# Youngs Moduli (GPa) = 60.88341 60.88383 71.29161
#
# Poissons Ratio (x) = 0.57300 0.19673
# Poissons Ratio (y) = 0.57299 0.19673
# Poissons Ratio (z) = 0.16800 0.16801
#
# Static dielectric constant tensor:
#      x y z
#    x 3.732020 0.000000 0.000000 
#    y 0.000000 3.732010 0.000000 
#    z 0.000000 0.000000 3.474540 
# 
# 
# High freq. dielectric constant tensor:
#      x y z
#    x 1.752650 0.000000 0.000000 
#    y 0.000000 1.752640 0.000000 
#    z 0.000000 0.000000 1.732180 
# 
# From -- ./inp_files/2194.got.cif
#   From: 2010.03.12/outbox.cif.g09.slc.cpg/sg121_2_cif.got.tgz:2194.got - 2010.04.06 16:06:48.
