data_PCOD8311130
_publ_section_title
;
Structure prediction by ZEFSAII (Michael W. Deem and Ramdas Pophale) SiO2 
 PCOD8311130
Probable space group: I -4 C 2
;
_chemical_formula_sum "Si O2"
_cell_formula_units_Z 120
_cell_length_a 28.329840
_cell_length_b 28.329840
_cell_length_c 7.868083
_cell_angle_alpha 90.000000
_cell_angle_beta 90.000000
_cell_angle_gamma 90.000000
_cell_volume 6314.764751
_symmetry_space_group_name_H-M "I -4 C 2"
_symmetry_group_IT_number 120
_symmetry_cell_setting 'tetragonal'
loop_
_space_group_symop_operation_xyz
x,y,z
y,-x,-z
-x,-y,z
-y,x,-z
y,x,1/2-z
-y,-x,1/2-z
-x,y,1/2+z
x,-y,1/2+z
1/2+x,1/2+y,1/2+z
1/2+y,1/2-x,1/2-z
1/2-x,1/2-y,1/2+z
1/2-y,1/2+x,1/2-z
1/2+y,1/2+x,-z
1/2-y,1/2-x,-z
1/2-x,1/2+y,z
1/2+x,1/2-y,z
loop_
_atom_site_type_symbol
_atom_site_label
_atom_site_fract_x
_atom_site_fract_y
_atom_site_fract_z
Si Si1 0.794003 0.545301 0.003270
Si Si2 0.644767 0.358781 0.443741
Si Si3 0.954242 0.812074 0.045973
Si Si4 0.185064 0.362051 0.144917
Si Si5 0.800368 0.228475 0.432485
Si Si6 0.055271 0.805345 0.943724
Si Si7 0.354222 0.145779 0.000000
Si Si8 0.055489 0.302395 0.395246
O O1 0.738522 0.543214 0.044547
O O2 0.802049 0.560795 0.808675
O O3 0.813147 0.581361 0.145898
O O4 0.819357 0.496193 0.047392
O O5 0.631766 0.368235 0.250000
O O6 0.657655 0.409842 0.530874
O O7 0.687201 0.320550 0.448564
O O8 0.598352 0.334966 0.528473
O O9 0.944233 0.808514 0.242835
O O10 0.007567 0.830785 0.014440
O O11 0.233254 0.341294 0.072811
O O12 0.174122 0.339010 0.329555
O O13 0.146522 0.353479 0.000000
O O14 0.793401 0.206600 0.250000
O O15 0.751246 0.251246 0.500000
O O16 0.063453 0.749379 0.982314
O O17 0.408862 0.157994 0.967319
#
# Coordination Sequence:
#
# PCOD8311130 Si02
#       8
#    16  16  16  16  16  16   8  16
#     4  10  18  39  57  83 114 157 189 251 288 339
#     4  10  20  37  57  79 110 146 188 235 290 348
#     4   9  18  35  56  79 109 142 192 235 291 339
#     4  11  23  39  58  80 121 155 199 245 287 338
#     4  11  25  37  52  78 112 159 192 235 279 343
#     4   9  20  33  56  80 108 149 183 240 288 343
#     4  12  24  36  58  90 115 158 196 242 294 358
#     4  10  21  34  59  84 119 148 197 239 297 347
#
# _framework density 19.003081999999999
#
# number of rings (size 3 to 8) (size 9 to 14) (size 15 to 20)
#    0.000    1.867    2.667    1.200    2.800    2.133 
#    0.000    0.000    0.000    0.400    0.000    3.267 
#    0.000    0.000    0.000    0.000    0.000    0.000 
#
# Total GULP energy -743370.530618 kJ/mol
# GULP energy per Si atom -12389.508844 kJ/mol
# Density = 1.895983 g / cm^3
# Si number density = 19.003082 Si / 1000 Ang^3
#
#
#
# Elastic Constant Matrix: (Units=GPa)
#
#
# Indices 1 2 3 4 5 6 
#
# 1 115.6432 63.9949 14.3588 0.0000 0.0000 0.0000
# 2 63.9949 115.6370 14.3587 0.0000 0.0000 0.0000
# 3 14.3588 14.3587 55.2256 0.0000 0.0000 0.0000
# 4 0.0000 0.0000 0.0000 21.9232 0.0000 0.0000
# 5 0.0000 0.0000 0.0000 0.0000 21.9239 0.0000
# 6 0.0000 0.0000 0.0000 0.0000 0.0000 28.4203
#
#
#
# Elastic Compliance Matrix: (Units=1/GPa)
#
#
# Indices 1 2 3 4 5 6 
#
# 1 0.012585 -0.006777 -0.001510 0.000000 0.000000 0.000000
# 2 -0.006777 0.012586 -0.001510 0.000000 0.000000 0.000000
# 3 -0.001510 -0.001510 0.018893 0.000000 0.000000 0.000000
# 4 0.000000 0.000000 0.000000 0.045614 0.000000 0.000000
# 5 0.000000 0.000000 0.000000 0.000000 0.045612 0.000000
# 6 0.000000 0.000000 0.000000 0.000000 0.000000 0.035186
#
#
# Mechanical properties :
#
#
# Convention : Reuss Voigt Hill
#
# Bulk Modulus (GPa) = 40.86850 52.43673 46.65261
# Shear Modulus (GPa) = 25.22353 27.37305 26.29829
#
# Velocity S-wave (km/s) = 3.64722 3.79945 3.72411
# Velocity P-wave (km/s) = 6.26811 6.84846 6.56470
#
# Compressibility (1/GPa) = 0.02446872
#
# Stress axis : x y z
#
# Youngs Moduli (GPa) = 79.45817 79.45383 52.93017
#
# Poissons Ratio (x) = 0.53848 0.07993
# Poissons Ratio (y) = 0.53851 0.07994
# Poissons Ratio (z) = 0.11999 0.11999
#
# Static dielectric constant tensor:
#      x y z
#    x 3.733910 0.000000 0.000000 
#    y 0.000000 3.733940 0.000000 
#    z 0.000000 0.000000 3.392090 
# 
# 
# High freq. dielectric constant tensor:
#      x y z
#    x 1.722310 0.000000 0.000000 
#    y 0.000000 1.722310 0.000000 
#    z 0.000000 0.000000 1.740590 
# 
# From -- ./inp_files/1722.got.cif
#   From: 2010.03.12/outbox.cif.g09.slc.cpg/sg120_1_cif.got.tgz:1722.got - 2010.04.06 16:00:44.
