data_PCOD8311443
_publ_section_title
;
Structure prediction by ZEFSAII (Michael W. Deem and Ramdas Pophale) SiO2 
 PCOD8311443
Probable space group: I -4 2 M
;
_chemical_formula_sum "Si O2"
_cell_formula_units_Z 84
_cell_length_a 19.608202
_cell_length_b 19.608202
_cell_length_c 12.887452
_cell_angle_alpha 90.000000
_cell_angle_beta 90.000000
_cell_angle_gamma 90.000000
_cell_volume 4954.987980
_symmetry_space_group_name_H-M "I -4 2 M"
_symmetry_group_IT_number 121
_symmetry_cell_setting 'tetragonal'
loop_
_space_group_symop_operation_xyz
x,y,z
y,-x,-z
-x,-y,z
-y,x,-z
x,-y,-z
-x,y,-z
-y,-x,z
y,x,z
1/2+x,1/2+y,1/2+z
1/2+y,1/2-x,1/2-z
1/2-x,1/2-y,1/2+z
1/2-y,1/2+x,1/2-z
1/2+x,1/2-y,1/2-z
1/2-x,1/2+y,1/2-z
1/2-y,1/2-x,1/2+z
1/2+y,1/2+x,1/2+z
loop_
_atom_site_type_symbol
_atom_site_label
_atom_site_fract_x
_atom_site_fract_y
_atom_site_fract_z
Si Si1 0.106771 0.106771 0.663783
Si Si2 0.129863 0.380852 0.753492
Si Si3 0.897142 0.897142 0.418016
Si Si4 0.500000 0.500000 0.832914
Si Si5 0.253058 0.076762 0.391197
Si Si6 0.420646 0.757064 0.872086
Si Si7 0.079476 0.496800 0.378427
O O1 0.103352 0.103352 0.540489
O O2 0.185321 0.088631 0.688807
O O3 0.053800 0.053800 0.722943
O O4 0.203275 0.378885 0.810162
O O5 0.122990 0.310470 0.692844
O O6 0.122039 0.442108 0.672049
O O7 0.073983 0.388126 0.843116
O O8 0.826768 0.919708 0.363983
O O9 0.953195 0.953195 0.401110
O O10 0.259195 0.105618 0.508764
O O11 0.279048 0.999564 0.377533
O O12 0.088798 0.500000 0.500000
O O13 0.000000 0.500000 0.346341
#
# Coordination Sequence:
#
# PCOD8311443 Si02
#       7
#     8  16   8   4  16  16  16
#     4  10  19  31  51  79 103 130 161 202 257 313
#     4  12  19  33  48  68 100 140 172 208 250 296
#     4  10  19  31  51  79 103 130 161 202 257 313
#     4  12  17  28  56  80 100 124 161 202 249 312
#     4  10  20  33  50  74 105 134 167 210 256 302
#     4  10  20  33  50  74 105 134 167 210 256 302
#     4  11  20  31  47  69  93 129 182 221 243 279
#
# _framework density 16.952612999999999
#
# number of rings (size 3 to 8) (size 9 to 14) (size 15 to 20)
#    0.000    1.333    5.714    2.000    0.000    3.810 
#    0.000    0.000    0.000    0.000    0.000    0.000 
#    0.000    0.000    0.000   11.619    0.000    0.952 
#
# Total GULP energy -520550.189208 kJ/mol
# GULP energy per Si atom -12394.052124 kJ/mol
# Density = 1.691403 g / cm^3
# Si number density = 16.952613 Si / 1000 Ang^3
#
#
#
# Elastic Constant Matrix: (Units=GPa)
#
#
# Indices 1 2 3 4 5 6 
#
# 1 104.3508 32.3430 33.4258 0.0000 0.0000 0.0000
# 2 32.3430 104.3508 33.4258 0.0000 0.0000 0.0000
# 3 33.4258 33.4258 69.6207 0.0000 0.0000 0.0000
# 4 0.0000 0.0000 0.0000 2.6786 0.0000 0.0000
# 5 0.0000 0.0000 0.0000 0.0000 2.6786 0.0000
# 6 0.0000 0.0000 0.0000 0.0000 0.0000 26.8881
#
#
#
# Elastic Compliance Matrix: (Units=1/GPa)
#
#
# Indices 1 2 3 4 5 6 
#
# 1 0.011724 -0.002163 -0.004590 0.000000 0.000000 0.000000
# 2 -0.002163 0.011724 -0.004590 0.000000 0.000000 0.000000
# 3 -0.004590 -0.004590 0.018771 0.000000 0.000000 0.000000
# 4 0.000000 0.000000 0.000000 0.373331 0.000000 0.000000
# 5 0.000000 0.000000 0.000000 0.000000 0.373331 0.000000
# 6 0.000000 0.000000 0.000000 0.000000 0.000000 0.037191
#
#
# Mechanical properties :
#
#
# Convention : Reuss Voigt Hill
#
# Bulk Modulus (GPa) = 51.19911 52.96795 52.08353
# Shear Modulus (GPa) = 5.84610 18.39090 12.11850
#
# Velocity S-wave (km/s) = 1.85903 3.29727 2.67656
# Velocity P-wave (km/s) = 5.90549 6.76820 6.35151
#
# Compressibility (1/GPa) = 0.01953159
#
# Stress axis : x y z
#
# Youngs Moduli (GPa) = 85.29565 85.29565 53.27346
#
# Poissons Ratio (x) = 0.18453 0.24453
# Poissons Ratio (y) = 0.18453 0.24453
# Poissons Ratio (z) = 0.39152 0.39152
#
# Static dielectric constant tensor:
#      x y z
#    x 3.336990 0.000000 0.000000 
#    y 0.000000 3.336990 0.000000 
#    z 0.000000 0.000000 2.895200 
# 
# 
# High freq. dielectric constant tensor:
#      x y z
#    x 1.654600 0.000000 0.000000 
#    y 0.000000 1.654600 0.000000 
#    z 0.000000 0.000000 1.617740 
# 
# From -- ./inp_files/3271.got.cif
#   From: 2010.03.12/outbox.cif.g09.slc.cpg/sg121_2_cif.got.tgz:3271.got - 2010.04.06 16:06:48.
