data_PCOD8311274
_publ_section_title
;
Structure prediction by ZEFSAII (Michael W. Deem and Ramdas Pophale) SiO2 
 PCOD8311274
Probable space group: I -4 C 2
;
_chemical_formula_sum "Si O2"
_cell_formula_units_Z 68
_cell_length_a 17.412080
_cell_length_b 17.412080
_cell_length_c 9.378252
_cell_angle_alpha 90.000000
_cell_angle_beta 90.000000
_cell_angle_gamma 90.000000
_cell_volume 2843.303411
_symmetry_space_group_name_H-M "I -4 C 2"
_symmetry_group_IT_number 120
_symmetry_cell_setting 'tetragonal'
loop_
_space_group_symop_operation_xyz
x,y,z
y,-x,-z
-x,-y,z
-y,x,-z
y,x,1/2-z
-y,-x,1/2-z
-x,y,1/2+z
x,-y,1/2+z
1/2+x,1/2+y,1/2+z
1/2+y,1/2-x,1/2-z
1/2-x,1/2-y,1/2+z
1/2-y,1/2+x,1/2-z
1/2+y,1/2+x,-z
1/2-y,1/2-x,-z
1/2-x,1/2+y,z
1/2+x,1/2-y,z
loop_
_atom_site_type_symbol
_atom_site_label
_atom_site_fract_x
_atom_site_fract_y
_atom_site_fract_z
Si Si1 0.500000 0.000000 0.750000
Si Si2 0.130744 0.129750 0.424861
Si Si3 0.917926 0.417926 0.000000
Si Si4 0.238484 0.602889 0.858971
Si Si5 0.228492 0.228492 0.250000
Si Si6 0.855030 0.030812 0.173257
O O1 0.530270 0.934210 0.859006
O O2 0.105222 0.186128 0.548664
O O3 0.211783 0.162792 0.368221
O O4 0.141360 0.047193 0.500953
O O5 0.061038 0.133307 0.305984
O O6 0.934187 0.330945 0.051686
O O7 0.212752 0.687283 0.808981
O O8 0.268521 0.553639 0.723647
O O9 0.924359 0.075642 0.250000
#
# Coordination Sequence:
#
# PCOD8311274 Si02
#       6
#     4  16   8  16   8  16
#     4  10  28  50  76 110 156 186 240 302 388 442
#     4  11  24  43  69 102 140 189 243 290 373 434
#     4  11  24  50  72 108 148 196 234 305 370 442
#     4  11  23  44  71 101 143 183 245 299 355 433
#     4  12  22  42  69 100 139 190 240 310 352 434
#     4  10  25  46  66 104 146 186 245 298 366 447
#
# _framework density 23.915844
#
# number of rings (size 3 to 8) (size 9 to 14) (size 15 to 20)
#    0.000    1.176    5.882    0.000    9.882    0.471 
#    0.000    0.000    0.000    0.000    0.000    0.000 
#    0.000    0.000    0.000    0.000    0.000    0.000 
#
# Total GULP energy -421301.163450 kJ/mol
# GULP energy per Si atom -12391.210690 kJ/mol
# Density = 2.386141 g / cm^3
# Si number density = 23.915844 Si / 1000 Ang^3
#
#
#
# Elastic Constant Matrix: (Units=GPa)
#
#
# Indices 1 2 3 4 5 6 
#
# 1 81.9687 102.6762 45.7510 0.0000 0.0000 0.0000
# 2 102.6762 81.9674 45.7499 0.0000 0.0000 0.0000
# 3 45.7510 45.7499 103.0156 0.0000 0.0000 0.0000
# 4 0.0000 0.0000 0.0000 -69.2984 0.0000 0.0000
# 5 0.0000 0.0000 0.0000 0.0000 -69.3168 0.0000
# 6 0.0000 0.0000 0.0000 0.0000 0.0000 30.0647
#
#
#
# Elastic Compliance Matrix: (Units=1/GPa)
#
#
# Indices 1 2 3 4 5 6 
#
# 1 -0.020673 0.027617 -0.003084 0.000000 0.000000 0.000000
# 2 0.027617 -0.020673 -0.003084 0.000000 0.000000 0.000000
# 3 -0.003084 -0.003084 0.012446 0.000000 0.000000 0.000000
# 4 0.000000 0.000000 0.000000 -0.014430 0.000000 0.000000
# 5 0.000000 0.000000 0.000000 0.000000 -0.014427 0.000000
# 6 0.000000 0.000000 0.000000 0.000000 0.000000 0.033262
#
#
# Mechanical properties :
#
#
# Convention : Reuss Voigt Hill
#
# Bulk Modulus (GPa) = 71.43434 72.81176 72.12305
# Shear Modulus (GPa) = -79.71061 -16.85845 -48.28453
#
# Velocity S-wave (km/s) = -5.77944 -2.65789 -4.49813
# Velocity P-wave (km/s) = 3.82127 4.59259 1.80136
#
# Compressibility (1/GPa) = 0.01399887
#
# Stress axis : x y z
#
# Youngs Moduli (GPa) = -48.37240 -48.37208 80.34393
#
# Poissons Ratio (x) = 1.33590 0.24776
# Poissons Ratio (y) = 1.33590 0.24779
# Poissons Ratio (z) = -0.14917 -0.14919
#
# Static dielectric constant tensor:
#      x y z
#    x 4.960730 0.000000 0.000000 
#    y 0.000000 4.960590 0.000000 
#    z 0.000000 0.000000 5.079970 
# 
# 
# High freq. dielectric constant tensor:
#      x y z
#    x 1.939890 0.000000 0.000000 
#    y 0.000000 1.939890 0.000000 
#    z 0.000000 0.000000 1.980560 
# 
# From -- ./inp_files/2507.got.cif
#   From: 2010.03.12/outbox.cif.g09.slc.cpg/sg120_2_cif.got.tgz:2507.got - 2010.04.06 16:00:44.
