data_PCOD8311052
_publ_section_title
;
Structure prediction by ZEFSAII (Michael W. Deem and Ramdas Pophale) SiO2 
 PCOD8311052
Probable space group: I -4 M 2
;
_chemical_formula_sum "Si O2"
_cell_formula_units_Z 120
_cell_length_a 17.320179
_cell_length_b 17.320179
_cell_length_c 21.626226
_cell_angle_alpha 90.000000
_cell_angle_beta 90.000000
_cell_angle_gamma 90.000000
_cell_volume 6487.621274
_symmetry_space_group_name_H-M "I -4 M 2"
_symmetry_group_IT_number 119
_symmetry_cell_setting 'tetragonal'
loop_
_space_group_symop_operation_xyz
x,y,z
y,-x,-z
-x,-y,z
-y,x,-z
y,x,-z
-y,-x,-z
-x,y,z
x,-y,z
1/2+x,1/2+y,1/2+z
1/2+y,1/2-x,1/2-z
1/2-x,1/2-y,1/2+z
1/2-y,1/2+x,1/2-z
1/2+y,1/2+x,1/2-z
1/2-y,1/2-x,1/2-z
1/2-x,1/2+y,1/2+z
1/2+x,1/2-y,1/2+z
loop_
_atom_site_type_symbol
_atom_site_label
_atom_site_fract_x
_atom_site_fract_y
_atom_site_fract_z
Si Si1 0.802764 0.189685 0.220596
Si Si2 0.912291 0.661348 0.808046
Si Si3 0.910649 0.828171 0.663119
Si Si4 0.802713 0.687346 0.027875
Si Si5 0.088422 0.088422 0.000000
Si Si6 0.091082 0.212392 0.103978
Si Si7 0.411321 0.336401 0.940732
Si Si8 0.672608 0.911112 0.410421
O O1 0.769341 0.269341 0.250000
O O2 0.734667 0.143421 0.186544
O O3 0.837714 0.137464 0.274685
O O4 0.869923 0.204178 0.171092
O O5 0.891454 0.608547 0.750000
O O6 0.901398 0.609330 0.868891
O O7 0.000000 0.689577 0.802232
O O8 0.890022 0.899989 0.619099
O O9 0.888175 0.749479 0.627552
O O10 0.000000 0.829532 0.681062
O O11 0.873477 0.711533 0.071669
O O12 0.741533 0.638019 0.067692
O O13 0.763764 0.763764 0.000000
O O14 0.835487 0.635896 0.972951
O O15 0.109339 0.138893 0.060297
O O16 0.000000 0.103025 0.980196
O O17 0.000000 0.224170 0.113590
O O18 0.500000 0.314293 0.949298
O O19 0.383249 0.383249 0.000000
O O20 0.673609 0.000000 0.428630
#
# Coordination Sequence:
#
# PCOD8311052 Si02
#       8
#    16  16  16  16   8  16  16  16
#     4  11  22  39  60  84 115 162 203 249 296 354
#     4  11  22  35  56  85 120 161 201 240 290 359
#     4  11  21  36  56  85 124 161 199 243 292 354
#     4  11  20  37  61  86 115 154 194 243 296 357
#     4   9  20  38  60  88 122 154 187 240 308 364
#     4  11  24  41  62  89 117 151 203 258 303 357
#     4  11  22  36  60  90 123 159 195 242 301 366
#     4  11  21  36  55  84 122 158 194 239 294 355
#
# _framework density 18.496763999999999
#
# number of rings (size 3 to 8) (size 9 to 14) (size 15 to 20)
#    0.000    1.133    6.000    3.200    0.000    4.000 
#    0.000    0.000    0.000    1.200    0.000    0.000 
#    0.000    0.000    0.000    0.000    0.000    0.000 
#
# Total GULP energy -744156.300827 kJ/mol
# GULP energy per Si atom -12402.605014 kJ/mol
# Density = 1.845466 g / cm^3
# Si number density = 18.496764 Si / 1000 Ang^3
#
#
#
# Elastic Constant Matrix: (Units=GPa)
#
#
# Indices 1 2 3 4 5 6 
#
# 1 692.7411 -539.0504 60.0921 0.0001 0.0001 0.0000
# 2 -539.0504 692.7759 60.0579 -0.0001 -0.0001 0.0000
# 3 60.0921 60.0579 139.1836 0.0000 0.0000 0.0000
# 4 0.0001 -0.0001 0.0000 14.9309 0.0000 0.0000
# 5 0.0001 -0.0001 0.0000 0.0000 14.9314 0.0000
# 6 0.0000 0.0000 0.0000 0.0000 0.0000 15.3850
#
#
#
# Elastic Compliance Matrix: (Units=1/GPa)
#
#
# Indices 1 2 3 4 5 6 
#
# 1 0.005315 0.004503 -0.004238 0.000000 0.000000 0.000000
# 2 0.004503 0.005315 -0.004238 0.000000 0.000000 0.000000
# 3 -0.004238 -0.004238 0.010843 0.000000 0.000000 0.000000
# 4 0.000000 0.000000 0.000000 0.066975 0.000000 0.000000
# 5 0.000000 0.000000 0.000000 0.000000 0.066973 0.000000
# 6 0.000000 0.000000 0.000000 0.000000 0.000000 0.064999
#
#
# Mechanical properties :
#
#
# Convention : Reuss Voigt Hill
#
# Bulk Modulus (GPa) = 73.91793 76.32218 75.12006
# Shear Modulus (GPa) = 21.47080 138.62287 80.04684
#
# Velocity S-wave (km/s) = 3.41073 8.66643 6.58560
# Velocity P-wave (km/s) = 7.45387 11.89516 9.92610
#
# Compressibility (1/GPa) = 0.01352852
#
# Stress axis : x y z
#
# Youngs Moduli (GPa) = 188.13207 188.15022 92.22447
#
# Poissons Ratio (x) = -0.84731 0.39086
# Poissons Ratio (y) = -0.84722 0.39082
# Poissons Ratio (z) = 0.79732 0.79732
#
# Static dielectric constant tensor:
#      x y z
#    x 3.357000 0.000000 0.000000 
#    y 0.000000 3.357000 0.000000 
#    z 0.000000 0.000000 3.397630 
# 
# 
# High freq. dielectric constant tensor:
#      x y z
#    x 1.707840 0.000000 0.000000 
#    y 0.000000 1.707840 0.000000 
#    z 0.000000 0.000000 1.717760 
# 
# From -- ./inp_files/8092.got.cif
#   From: 2010.03.12/outbox.cif.g09.slc.cpg/sg119_5_cif.got.tgz:8092.got - 2010.04.14 02:25:26.
