data_PCOD8311080
_publ_section_title
;
Structure prediction by ZEFSAII (Michael W. Deem and Ramdas Pophale) SiO2 
 PCOD8311080
Probable space group: I -4 M 2
;
_chemical_formula_sum "Si O2"
_cell_formula_units_Z 58
_cell_length_a 11.484269
_cell_length_b 11.484269
_cell_length_c 25.191959
_cell_angle_alpha 90.000000
_cell_angle_beta 90.000000
_cell_angle_gamma 90.000000
_cell_volume 3322.528034
_symmetry_space_group_name_H-M "I -4 M 2"
_symmetry_group_IT_number 119
_symmetry_cell_setting 'tetragonal'
loop_
_space_group_symop_operation_xyz
x,y,z
y,-x,-z
-x,-y,z
-y,x,-z
y,x,-z
-y,-x,-z
-x,y,z
x,-y,z
1/2+x,1/2+y,1/2+z
1/2+y,1/2-x,1/2-z
1/2-x,1/2-y,1/2+z
1/2-y,1/2+x,1/2-z
1/2+y,1/2+x,1/2-z
1/2-y,1/2-x,1/2-z
1/2-x,1/2+y,1/2+z
1/2+x,1/2-y,1/2+z
loop_
_atom_site_type_symbol
_atom_site_label
_atom_site_fract_x
_atom_site_fract_y
_atom_site_fract_z
Si Si1 0.865741 0.634259 0.750000
Si Si2 0.362727 0.368201 0.059483
Si Si3 0.733739 0.000000 0.815156
Si Si4 0.637371 0.500000 0.212310
Si Si5 0.274254 0.255467 0.840761
Si Si6 0.000000 0.500000 0.250000
O O1 0.839344 0.500000 0.761130
O O2 0.831467 0.703292 0.803444
O O3 0.500000 0.367493 0.065971
O O4 0.317045 0.500000 0.071281
O O5 0.309025 0.274617 0.100197
O O6 0.328757 0.328757 0.000000
O O7 0.844246 0.000000 0.775464
O O8 0.735976 0.116878 0.850198
O O9 0.614064 0.000000 0.784444
O O10 0.500000 0.500000 0.198249
O O11 0.702717 0.389436 0.188978
#
# Coordination Sequence:
#
# PCOD8311080 Si02
#       6
#     8  16   8   8  16   2
#     4  11  23  36  53  81 114 150 182 225 273 320
#     4   9  18  33  54  79 103 134 182 235 278 320
#     4  12  22  32  50  80 116 146 174 215 279 326
#     4  12  20  32  54  80 110 144 184 211 265 326
#     4  12  21  34  54  80 111 143 177 227 269 334
#     4  12  16  36  40  68 124 152 156 212 264 318
#
# _framework density 17.456586999999999
#
# number of rings (size 3 to 8) (size 9 to 14) (size 15 to 20)
#    0.000    0.966    6.897    3.310    0.000    0.000 
#    0.000    0.000    3.034    0.000    0.000    0.000 
#    0.000    0.000    0.000    0.000    0.000    0.000 
#
# Total GULP energy -359502.102564 kJ/mol
# GULP energy per Si atom -12396.624226 kJ/mol
# Density = 1.741685 g / cm^3
# Si number density = 17.456587 Si / 1000 Ang^3
#
#
#
# Elastic Constant Matrix: (Units=GPa)
#
#
# Indices 1 2 3 4 5 6 
#
# 1 84.2934 23.9484 32.0712 0.0000 0.0000 0.0000
# 2 23.9484 84.2934 32.0712 0.0000 0.0000 0.0000
# 3 32.0712 32.0712 124.7188 0.0000 0.0000 0.0000
# 4 0.0000 0.0000 0.0000 20.2912 0.0000 0.0000
# 5 0.0000 0.0000 0.0000 0.0000 20.2912 0.0000
# 6 0.0000 0.0000 0.0000 0.0000 0.0000 13.8678
#
#
#
# Elastic Compliance Matrix: (Units=1/GPa)
#
#
# Indices 1 2 3 4 5 6 
#
# 1 0.013735 -0.002836 -0.002803 0.000000 0.000000 0.000000
# 2 -0.002836 0.013735 -0.002803 0.000000 0.000000 0.000000
# 3 -0.002803 -0.002803 0.009459 0.000000 0.000000 0.000000
# 4 0.000000 0.000000 0.000000 0.049282 0.000000 0.000000
# 5 0.000000 0.000000 0.000000 0.000000 0.049282 0.000000
# 6 0.000000 0.000000 0.000000 0.000000 0.000000 0.072109
#
#
# Mechanical properties :
#
#
# Convention : Reuss Voigt Hill
#
# Bulk Modulus (GPa) = 49.88202 52.16526 51.02364
# Shear Modulus (GPa) = 21.62912 24.57104 23.10008
#
# Velocity S-wave (km/s) = 3.52380 3.75580 3.64165
# Velocity P-wave (km/s) = 6.72258 6.98254 6.85379
#
# Compressibility (1/GPa) = 0.02004730
#
# Stress axis : x y z
#
# Youngs Moduli (GPa) = 72.80443 72.80443 105.71384
#
# Poissons Ratio (x) = 0.20647 0.29629
# Poissons Ratio (y) = 0.20647 0.29629
# Poissons Ratio (z) = 0.20405 0.20405
#
# Static dielectric constant tensor:
#      x y z
#    x 3.342030 0.000000 0.000000 
#    y 0.000000 3.342030 0.000000 
#    z 0.000000 0.000000 3.335630 
# 
# 
# High freq. dielectric constant tensor:
#      x y z
#    x 1.666430 0.000000 0.000000 
#    y 0.000000 1.666430 0.000000 
#    z 0.000000 0.000000 1.657350 
# 
# From -- ./inp_files/8439.got.cif
#   From: 2010.03.12/outbox.cif.g09.slc.cpg/sg119_5_cif.got.tgz:8439.got - 2010.04.14 02:25:26.
