data_PCOD8311808
_publ_section_title
;
Structure prediction by ZEFSAII (Michael W. Deem and Ramdas Pophale) SiO2 
 PCOD8311808
Probable space group: I -4 2 D
;
_chemical_formula_sum "Si O2"
_cell_formula_units_Z 56
_cell_length_a 12.531450
_cell_length_b 12.531450
_cell_length_c 18.706704
_cell_angle_alpha 90.000000
_cell_angle_beta 90.000000
_cell_angle_gamma 90.000000
_cell_volume 2937.649149
_symmetry_space_group_name_H-M "I -4 2 D"
_symmetry_group_IT_number 122
_symmetry_cell_setting 'tetragonal'
loop_
_space_group_symop_operation_xyz
x,y,z
y,-x,-z
-x,-y,z
-y,x,-z
x,1/2-y,1/4-z
-x,1/2+y,1/4-z
-y,1/2-x,1/4+z
y,1/2+x,1/4+z
1/2+x,1/2+y,1/2+z
1/2+y,1/2-x,1/2-z
1/2-x,1/2-y,1/2+z
1/2-y,1/2+x,1/2-z
1/2+x,-y,3/4-z
1/2-x,y,3/4-z
1/2-y,-x,3/4+z
1/2+y,x,3/4+z
loop_
_atom_site_type_symbol
_atom_site_label
_atom_site_fract_x
_atom_site_fract_y
_atom_site_fract_z
Si Si1 0.823039 0.351426 0.583743
Si Si2 0.725900 0.692826 0.049893
Si Si3 0.000000 0.000000 0.723606
Si Si4 0.549108 0.785903 0.957039
O O1 0.877233 0.250000 0.625000
O O2 0.772872 0.316760 0.507583
O O3 0.911168 0.444446 0.576214
O O4 0.724934 0.390773 0.631797
O O5 0.750292 0.750000 0.125000
O O6 0.732867 0.565665 0.054184
O O7 0.608961 0.724668 0.021566
O O8 0.950169 0.910767 0.775044
#
# Coordination Sequence:
#
# PCOD8311808 Si02
#       4
#    16  16   8  16
#     4   9  20  37  57  83 113 147 183 225 277 326
#     4  10  21  37  57  83 113 145 184 230 277 324
#     4  10  20  36  58  84 114 142 184 232 274 326
#     4  10  21  36  57  83 111 146 184 228 277 326
#
# _framework density 19.062863
#
# number of rings (size 3 to 8) (size 9 to 14) (size 15 to 20)
#    0.000    2.286    0.000    1.714    0.000   16.571 
#    0.000   22.857    0.000    1.714    0.000    0.000 
#    0.000    0.000    0.000    0.000    0.000    0.000 
#
# Total GULP energy -347016.038635 kJ/mol
# GULP energy per Si atom -12393.429951 kJ/mol
# Density = 1.901947 g / cm^3
# Si number density = 19.062863 Si / 1000 Ang^3
#
#
#
# Elastic Constant Matrix: (Units=GPa)
#
#
# Indices 1 2 3 4 5 6 
#
# 1 112.2695 74.6647 63.9104 0.0000 0.0000 0.0000
# 2 74.6647 112.2695 63.9104 0.0000 0.0000 0.0000
# 3 63.9104 63.9104 162.1215 0.0000 0.0000 0.0000
# 4 0.0000 0.0000 0.0000 30.8351 0.0000 0.0000
# 5 0.0000 0.0000 0.0000 0.0000 30.8351 0.0000
# 6 0.0000 0.0000 0.0000 0.0000 0.0000 30.7516
#
#
#
# Elastic Compliance Matrix: (Units=1/GPa)
#
#
# Indices 1 2 3 4 5 6 
#
# 1 0.016958 -0.009634 -0.002887 0.000000 0.000000 0.000000
# 2 -0.009634 0.016958 -0.002887 0.000000 0.000000 0.000000
# 3 -0.002887 -0.002887 0.008444 0.000000 0.000000 0.000000
# 4 0.000000 0.000000 0.000000 0.032431 0.000000 0.000000
# 5 0.000000 0.000000 0.000000 0.000000 0.032431 0.000000
# 6 0.000000 0.000000 0.000000 0.000000 0.000000 0.032519
#
#
# Mechanical properties :
#
#
# Convention : Reuss Voigt Hill
#
# Bulk Modulus (GPa) = 86.62972 87.95907 87.29440
# Shear Modulus (GPa) = 28.66893 30.76269 29.71581
#
# Velocity S-wave (km/s) = 3.88224 4.02151 3.95249
# Velocity P-wave (km/s) = 8.10177 8.23439 8.16835
#
# Compressibility (1/GPa) = 0.01154338
#
# Stress axis : x y z
#
# Youngs Moduli (GPa) = 58.96945 58.96944 118.42115
#
# Poissons Ratio (x) = 0.56813 0.34189
# Poissons Ratio (y) = 0.56813 0.34189
# Poissons Ratio (z) = 0.17025 0.17025
#
# Static dielectric constant tensor:
#      x y z
#    x 3.483790 0.000000 0.000000 
#    y 0.000000 3.483790 0.000000 
#    z 0.000000 0.000000 3.731490 
# 
# 
# High freq. dielectric constant tensor:
#      x y z
#    x 1.734620 0.000000 0.000000 
#    y 0.000000 1.734620 0.000000 
#    z 0.000000 0.000000 1.752340 
# 
# From -- ./inp_files/6793.got.cif
#   From: 2010.03.12/outbox.cif.g09.slc.cpg/sg122_4_cif.got.tgz:6793.got - 2010.04.06 16:17:16.
