data_PCOD8311054
_publ_section_title
;
Structure prediction by ZEFSAII (Michael W. Deem and Ramdas Pophale) SiO2 
 PCOD8311054
Probable space group: I -4 M 2
;
_chemical_formula_sum "Si O2"
_cell_formula_units_Z 48
_cell_length_a 15.495857
_cell_length_b 15.495857
_cell_length_c 9.316871
_cell_angle_alpha 90.000000
_cell_angle_beta 90.000000
_cell_angle_gamma 90.000000
_cell_volume 2237.181824
_symmetry_space_group_name_H-M "I -4 M 2"
_symmetry_group_IT_number 119
_symmetry_cell_setting 'tetragonal'
loop_
_space_group_symop_operation_xyz
x,y,z
y,-x,-z
-x,-y,z
-y,x,-z
y,x,-z
-y,-x,-z
-x,y,z
x,-y,z
1/2+x,1/2+y,1/2+z
1/2+y,1/2-x,1/2-z
1/2-x,1/2-y,1/2+z
1/2-y,1/2+x,1/2-z
1/2+y,1/2+x,1/2-z
1/2-y,1/2-x,1/2-z
1/2-x,1/2+y,1/2+z
1/2+x,1/2-y,1/2+z
loop_
_atom_site_type_symbol
_atom_site_label
_atom_site_fract_x
_atom_site_fract_y
_atom_site_fract_z
Si Si1 0.628896 0.500000 0.786413
Si Si2 0.317722 0.813500 0.078889
Si Si3 0.500000 0.243486 0.446780
Si Si4 0.644212 0.500000 0.289487
Si Si5 0.745578 0.500000 0.021457
O O1 0.723615 0.500000 0.716389
O O2 0.583706 0.412414 0.740279
O O3 0.647574 0.500000 0.956492
O O4 0.304260 0.804260 0.250000
O O5 0.309344 0.912554 0.026553
O O6 0.414339 0.793252 0.030152
O O7 0.248311 0.751690 0.000000
O O8 0.500000 0.328529 0.546050
O O9 0.731037 0.500000 0.192852
#
# Coordination Sequence:
#
# PCOD8311054 Si02
#       5
#     8  16   8   8   8
#     4  11  20  42  64 101 134 180 224 295 358 413
#     4  12  26  47  73 102 142 189 235 290 351 417
#     4  12  26  42  69 102 139 185 235 285 343 421
#     4  11  24  38  68  99 142 174 228 297 362 413
#     4  12  26  42  69 102 139 185 235 285 343 421
#
# _framework density 21.455566999999999
#
# number of rings (size 3 to 8) (size 9 to 14) (size 15 to 20)
#    0.000    0.333    3.333    6.000    4.667    3.333 
#    0.000    1.667    0.000    2.000    0.000    0.000 
#    0.000    0.000    0.000    0.000    0.000    0.000 
#
# Total GULP energy -297564.504919 kJ/mol
# GULP energy per Si atom -12398.521038 kJ/mol
# Density = 2.140673 g / cm^3
# Si number density = 21.455567 Si / 1000 Ang^3
#
#
#
# Elastic Constant Matrix: (Units=GPa)
#
#
# Indices 1 2 3 4 5 6 
#
# 1 154.8147 70.0171 33.8252 0.0000 0.0000 0.0000
# 2 70.0171 154.8137 33.8256 0.0000 0.0000 0.0000
# 3 33.8252 33.8256 80.2329 0.0000 0.0000 0.0000
# 4 0.0000 0.0000 0.0000 29.5865 0.0000 0.0000
# 5 0.0000 0.0000 0.0000 0.0000 29.5863 0.0000
# 6 0.0000 0.0000 0.0000 0.0000 0.0000 174.3908
#
#
#
# Elastic Compliance Matrix: (Units=1/GPa)
#
#
# Indices 1 2 3 4 5 6 
#
# 1 0.008443 -0.003349 -0.002148 0.000000 0.000000 0.000000
# 2 -0.003349 0.008443 -0.002148 0.000000 0.000000 0.000000
# 3 -0.002148 -0.002148 0.014274 0.000000 0.000000 0.000000
# 4 0.000000 0.000000 0.000000 0.033799 0.000000 0.000000
# 5 0.000000 0.000000 0.000000 0.000000 0.033799 0.000000
# 6 0.000000 0.000000 0.000000 0.000000 0.000000 0.005734
#
#
# Mechanical properties :
#
#
# Convention : Reuss Voigt Hill
#
# Bulk Modulus (GPa) = 63.00335 73.91079 68.45707
# Shear Modulus (GPa) = 39.97631 63.52562 51.75096
#
# Velocity S-wave (km/s) = 4.32118 5.44723 4.91655
# Velocity P-wave (km/s) = 7.37056 8.60733 8.01284
#
# Compressibility (1/GPa) = 0.01587217
#
# Stress axis : x y z
#
# Youngs Moduli (GPa) = 118.43600 118.43491 70.05500
#
# Poissons Ratio (x) = 0.39669 0.15045
# Poissons Ratio (y) = 0.39669 0.15045
# Poissons Ratio (z) = 0.25434 0.25435
#
# Static dielectric constant tensor:
#      x y z
#    x 3.930830 0.000000 0.000000 
#    y 0.000000 3.930830 0.000000 
#    z 0.000000 0.000000 4.088510 
# 
# 
# High freq. dielectric constant tensor:
#      x y z
#    x 1.843760 0.000000 0.000000 
#    y 0.000000 1.843760 0.000000 
#    z 0.000000 0.000000 1.860610 
# 
# From -- ./inp_files/3487.got.cif
#   From: 2010.03.12/outbox.cif.g09.slc.cpg/sg119_2_cif.got.tgz:3487.got - 2010.04.14 02:25:26.
