data_PCOD8311765
_publ_section_title
;
Structure prediction by ZEFSAII (Michael W. Deem and Ramdas Pophale) SiO2 
 PCOD8311765
Probable space group: I -4 2 D
;
_chemical_formula_sum "Si O2"
_cell_formula_units_Z 72
_cell_length_a 27.315923
_cell_length_b 27.315923
_cell_length_c 4.902988
_cell_angle_alpha 90.000000
_cell_angle_beta 90.000000
_cell_angle_gamma 90.000000
_cell_volume 3658.411807
_symmetry_space_group_name_H-M "I -4 2 D"
_symmetry_group_IT_number 122
_symmetry_cell_setting 'tetragonal'
loop_
_space_group_symop_operation_xyz
x,y,z
y,-x,-z
-x,-y,z
-y,x,-z
x,1/2-y,1/4-z
-x,1/2+y,1/4-z
-y,1/2-x,1/4+z
y,1/2+x,1/4+z
1/2+x,1/2+y,1/2+z
1/2+y,1/2-x,1/2-z
1/2-x,1/2-y,1/2+z
1/2-y,1/2+x,1/2-z
1/2+x,-y,3/4-z
1/2-x,y,3/4-z
1/2-y,-x,3/4+z
1/2+y,x,3/4+z
loop_
_atom_site_type_symbol
_atom_site_label
_atom_site_fract_x
_atom_site_fract_y
_atom_site_fract_z
Si Si1 0.283752 0.250000 0.625000
Si Si2 0.909982 0.422997 0.561593
Si Si3 0.466293 0.889547 0.549387
Si Si4 0.168063 0.150675 0.247603
Si Si5 0.905342 0.199660 0.258555
O O1 0.250000 0.269794 0.375000
O O2 0.318852 0.292010 0.749223
O O3 0.893620 0.475794 0.463840
O O4 0.949490 0.399830 0.356095
O O5 0.861936 0.387851 0.588014
O O6 0.937815 0.427200 0.850640
O O7 0.453106 0.834237 0.458581
O O8 0.205367 0.121815 0.450107
O O9 0.173765 0.133498 0.938417
O O10 0.922991 0.250000 0.125000
#
# Coordination Sequence:
#
# PCOD8311765 Si02
#       5
#     8  16  16  16  16
#     4  12  22  34  56  84 108 146 184 212 276 330
#     4  10  21  37  54  80 110 139 182 223 276 312
#     4  10  21  35  56  79 108 142 177 227 268 323
#     4  10  21  35  53  78 112 138 172 232 263 311
#     4  10  19  35  55  77 104 142 182 217 260 314
#
# _framework density 19.680672000000001
#
# number of rings (size 3 to 8) (size 9 to 14) (size 15 to 20)
#    0.000    1.778    0.000    5.333    0.000    2.667 
#    2.000    0.000    0.000    0.000    0.000    0.000 
#    0.000    0.000    0.000    0.000    0.000    0.000 
#
# Total GULP energy -446349.303383 kJ/mol
# GULP energy per Si atom -12398.591761 kJ/mol
# Density = 1.963588 g / cm^3
# Si number density = 19.680672 Si / 1000 Ang^3
#
#
#
# Elastic Constant Matrix: (Units=GPa)
#
#
# Indices 1 2 3 4 5 6 
#
# 1 108.5203 57.9452 13.9973 0.0000 0.0000 0.0000
# 2 57.9452 108.5203 13.9973 0.0000 0.0000 0.0000
# 3 13.9973 13.9973 76.1815 0.0000 0.0000 0.0000
# 4 0.0000 0.0000 0.0000 26.0010 0.0000 0.0000
# 5 0.0000 0.0000 0.0000 0.0000 26.0010 0.0000
# 6 0.0000 0.0000 0.0000 0.0000 0.0000 15.9058
#
#
#
# Elastic Compliance Matrix: (Units=1/GPa)
#
#
# Indices 1 2 3 4 5 6 
#
# 1 0.012986 -0.006787 -0.001139 0.000000 0.000000 0.000000
# 2 -0.006787 0.012986 -0.001139 0.000000 0.000000 0.000000
# 3 -0.001139 -0.001139 0.013545 0.000000 0.000000 0.000000
# 4 0.000000 0.000000 0.000000 0.038460 0.000000 0.000000
# 5 0.000000 0.000000 0.000000 0.000000 0.038460 0.000000
# 6 0.000000 0.000000 0.000000 0.000000 0.000000 0.062870
#
#
# Mechanical properties :
#
#
# Convention : Reuss Voigt Hill
#
# Bulk Modulus (GPa) = 46.75762 51.67796 49.21779
# Shear Modulus (GPa) = 24.44210 27.40040 25.92125
#
# Velocity S-wave (km/s) = 3.52793 3.73533 3.63311
# Velocity P-wave (km/s) = 6.35648 6.70215 6.53160
#
# Compressibility (1/GPa) = 0.02138689
#
# Stress axis : x y z
#
# Youngs Moduli (GPa) = 77.00797 77.00797 73.82756
#
# Poissons Ratio (x) = 0.52264 0.08409
# Poissons Ratio (y) = 0.52264 0.08409
# Poissons Ratio (z) = 0.08771 0.08771
#
# Static dielectric constant tensor:
#      x y z
#    x 3.445230 0.000000 0.000000 
#    y 0.000000 3.445230 0.000000 
#    z 0.000000 0.000000 3.864040 
# 
# 
# High freq. dielectric constant tensor:
#      x y z
#    x 1.749200 0.000000 0.000000 
#    y 0.000000 1.749200 0.000000 
#    z 0.000000 0.000000 1.791860 
# 
# From -- ./inp_files/1227.got.cif
#   From: 2010.03.12/outbox.cif.g09.slc.cpg/sg122_1_cif.got.tgz:1227.got - 2010.04.06 16:17:16.
