data_PCOD8311222
_publ_section_title
;
Structure prediction by ZEFSAII (Michael W. Deem and Ramdas Pophale) SiO2 
 PCOD8311222
Probable space group: I -4 C 2
;
_chemical_formula_sum "Si O2"
_cell_formula_units_Z 100
_cell_length_a 14.754125
_cell_length_b 14.754125
_cell_length_c 22.233032
_cell_angle_alpha 90.000000
_cell_angle_beta 90.000000
_cell_angle_gamma 90.000000
_cell_volume 4839.779885
_symmetry_space_group_name_H-M "I -4 C 2"
_symmetry_group_IT_number 120
_symmetry_cell_setting 'tetragonal'
loop_
_space_group_symop_operation_xyz
x,y,z
y,-x,-z
-x,-y,z
-y,x,-z
y,x,1/2-z
-y,-x,1/2-z
-x,y,1/2+z
x,-y,1/2+z
1/2+x,1/2+y,1/2+z
1/2+y,1/2-x,1/2-z
1/2-x,1/2-y,1/2+z
1/2-y,1/2+x,1/2-z
1/2+y,1/2+x,-z
1/2-y,1/2-x,-z
1/2-x,1/2+y,z
1/2+x,1/2-y,z
loop_
_atom_site_type_symbol
_atom_site_label
_atom_site_fract_x
_atom_site_fract_y
_atom_site_fract_z
Si Si1 0.312572 0.964819 0.675909
Si Si2 0.500000 0.000000 0.500000
Si Si3 0.251633 0.328274 0.444123
Si Si4 0.883632 0.086691 0.985545
Si Si5 0.152836 0.614388 0.302735
Si Si6 0.674110 0.325324 0.366905
Si Si7 0.539081 0.874681 0.102477
O O1 0.354052 0.915213 0.733958
O O2 0.214430 0.919624 0.660972
O O3 0.378572 0.942014 0.620273
O O4 0.308085 0.074565 0.685965
O O5 0.494222 0.088977 0.541523
O O6 0.182570 0.317431 0.500000
O O7 0.354155 0.323730 0.468410
O O8 0.238619 0.248386 0.397366
O O9 0.226201 0.422748 0.411241
O O10 0.851963 0.098097 0.916230
O O11 0.985102 0.125018 0.991964
O O12 0.257922 0.639781 0.315148
O O13 0.126626 0.530937 0.344073
#
# Coordination Sequence:
#
# PCOD8311222 Si02
#       7
#    16   4  16  16  16  16  16
#     4  11  23  40  64  89 129 163 218 268 327 393
#     4  12  20  32  54  96 132 160 204 254 348 392
#     4   9  19  37  54  84 127 157 197 256 313 380
#     4  10  21  39  63  87 126 172 213 262 312 384
#     4  12  22  40  64  92 124 170 214 269 331 389
#     4  10  24  39  60  94 122 167 219 263 320 389
#     4  11  21  35  58  91 124 162 201 265 325 399
#
# _framework density 20.662098
#
# number of rings (size 3 to 8) (size 9 to 14) (size 15 to 20)
#    0.000    1.440    4.000    1.440    2.240    0.000 
#    4.320    0.000    0.000    0.000    0.000    4.480 
#    0.000    0.000    0.000    0.000    0.000    0.000 
#
# Total GULP energy -619713.196665 kJ/mol
# GULP energy per Si atom -12394.263933 kJ/mol
# Density = 2.061507 g / cm^3
# Si number density = 20.662098 Si / 1000 Ang^3
#
#
#
# Elastic Constant Matrix: (Units=GPa)
#
#
# Indices 1 2 3 4 5 6 
#
# 1 61.2300 17.0929 11.5697 0.0000 0.0000 0.0000
# 2 17.0929 61.2293 11.5699 0.0000 0.0000 0.0000
# 3 11.5697 11.5699 84.0027 0.0000 0.0000 0.0000
# 4 0.0000 0.0000 0.0000 29.6571 0.0000 0.0000
# 5 0.0000 0.0000 0.0000 0.0000 29.6571 0.0000
# 6 0.0000 0.0000 0.0000 0.0000 0.0000 21.9754
#
#
#
# Elastic Compliance Matrix: (Units=1/GPa)
#
#
# Indices 1 2 3 4 5 6 
#
# 1 0.017983 -0.004674 -0.001833 0.000000 0.000000 0.000000
# 2 -0.004674 0.017983 -0.001833 0.000000 0.000000 0.000000
# 3 -0.001833 -0.001833 0.012409 0.000000 0.000000 0.000000
# 4 0.000000 0.000000 0.000000 0.033719 0.000000 0.000000
# 5 0.000000 0.000000 0.000000 0.000000 0.033719 0.000000
# 6 0.000000 0.000000 0.000000 0.000000 0.000000 0.045506
#
#
# Mechanical properties :
#
#
# Convention : Reuss Voigt Hill
#
# Bulk Modulus (GPa) = 31.55024 31.88078 31.71551
# Shear Modulus (GPa) = 26.51625 27.33988 26.92806
#
# Velocity S-wave (km/s) = 3.58624 3.64151 3.61398
# Velocity P-wave (km/s) = 5.69657 5.75708 5.72690
#
# Compressibility (1/GPa) = 0.03169548
#
# Stress axis : x y z
#
# Youngs Moduli (GPa) = 55.60813 55.60750 80.58454
#
# Poissons Ratio (x) = 0.25990 0.14772
# Poissons Ratio (y) = 0.25990 0.14772
# Poissons Ratio (z) = 0.10193 0.10194
#
# Static dielectric constant tensor:
#      x y z
#    x 3.665940 0.000000 0.000000 
#    y 0.000000 3.665930 0.000000 
#    z 0.000000 0.000000 3.842610 
# 
# 
# High freq. dielectric constant tensor:
#      x y z
#    x 1.793620 0.000000 0.000000 
#    y 0.000000 1.793620 0.000000 
#    z 0.000000 0.000000 1.816900 
# 
# From -- ./inp_files/5875.got.cif
#   From: 2010.03.12/outbox.cif.g09.slc.cpg/sg120_3_cif.got.tgz:5875.got - 2010.04.06 16:00:44.
