data_PCOD8311266
_publ_section_title
;
Structure prediction by ZEFSAII (Michael W. Deem and Ramdas Pophale) SiO2 
 PCOD8311266
Probable space group: I -4 C 2
;
_chemical_formula_sum "Si O2"
_cell_formula_units_Z 40
_cell_length_a 10.092507
_cell_length_b 10.092507
_cell_length_c 20.678157
_cell_angle_alpha 90.000000
_cell_angle_beta 90.000000
_cell_angle_gamma 90.000000
_cell_volume 2106.250140
_symmetry_space_group_name_H-M "I -4 C 2"
_symmetry_group_IT_number 120
_symmetry_cell_setting 'tetragonal'
loop_
_space_group_symop_operation_xyz
x,y,z
y,-x,-z
-x,-y,z
-y,x,-z
y,x,1/2-z
-y,-x,1/2-z
-x,y,1/2+z
x,-y,1/2+z
1/2+x,1/2+y,1/2+z
1/2+y,1/2-x,1/2-z
1/2-x,1/2-y,1/2+z
1/2-y,1/2+x,1/2-z
1/2+y,1/2+x,-z
1/2-y,1/2-x,-z
1/2-x,1/2+y,z
1/2+x,1/2-y,z
loop_
_atom_site_type_symbol
_atom_site_label
_atom_site_fract_x
_atom_site_fract_y
_atom_site_fract_z
Si Si1 0.542049 0.639552 0.375844
Si Si2 0.804332 0.318784 0.188545
Si Si3 0.000000 0.500000 0.750000
Si Si4 0.000000 0.000000 0.500000
O O1 0.500000 0.500000 0.342958
O O2 0.434303 0.746749 0.355906
O O3 0.686986 0.681175 0.353309
O O4 0.541998 0.623756 0.454145
O O5 0.711815 0.288186 0.250000
O O6 0.949362 0.372438 0.209529
#
# Coordination Sequence:
#
# PCOD8311266 Si02
#       4
#    16  16   4   4
#     4  10  24  42  62  95 132 180 220 279 325 419
#     4  12  23  39  67  97 138 167 224 282 358 401
#     4  12  24  36  60 110 124 176 216 276 370 420
#     4   8  24  44  62  92 128 192 228 254 348 392
#
# _framework density 18.991097
#
# number of rings (size 3 to 8) (size 9 to 14) (size 15 to 20)
#    1.200    0.000    4.000    2.400    0.000    1.600 
#    0.000    0.000    0.000    2.400    0.000    0.000 
#    0.000    0.000    0.000    0.000    0.000    0.000 
#
# Total GULP energy -247877.546078 kJ/mol
# GULP energy per Si atom -12393.877304 kJ/mol
# Density = 1.894787 g / cm^3
# Si number density = 18.991097 Si / 1000 Ang^3
#
#
#
# Elastic Constant Matrix: (Units=GPa)
#
#
# Indices 1 2 3 4 5 6 
#
# 1 133.3711 55.1710 59.0518 0.0000 0.0000 0.0000
# 2 55.1710 133.3709 59.0516 0.0000 0.0000 0.0000
# 3 59.0518 59.0516 139.1183 0.0000 0.0000 0.0000
# 4 0.0000 0.0000 0.0000 24.0763 0.0000 0.0000
# 5 0.0000 0.0000 0.0000 0.0000 24.0770 0.0000
# 6 0.0000 0.0000 0.0000 0.0000 0.0000 46.8617
#
#
#
# Elastic Compliance Matrix: (Units=1/GPa)
#
#
# Indices 1 2 3 4 5 6 
#
# 1 0.010006 -0.002781 -0.003067 0.000000 0.000000 0.000000
# 2 -0.002781 0.010006 -0.003067 0.000000 0.000000 0.000000
# 3 -0.003067 -0.003067 0.009792 0.000000 0.000000 0.000000
# 4 0.000000 0.000000 0.000000 0.041535 0.000000 0.000000
# 5 0.000000 0.000000 0.000000 0.000000 0.041533 0.000000
# 6 0.000000 0.000000 0.000000 0.000000 0.000000 0.021339
#
#
# Mechanical properties :
#
#
# Convention : Reuss Voigt Hill
#
# Bulk Modulus (GPa) = 83.51167 83.60101 83.55634
# Shear Modulus (GPa) = 32.04450 34.50871 33.27661
#
# Velocity S-wave (km/s) = 4.11218 4.26737 4.19050
# Velocity P-wave (km/s) = 8.16188 8.27027 8.21625
#
# Compressibility (1/GPa) = 0.01197437
#
# Stress axis : x y z
#
# Youngs Moduli (GPa) = 99.93699 99.93690 102.12809
#
# Poissons Ratio (x) = 0.27797 0.31320
# Poissons Ratio (y) = 0.27797 0.31320
# Poissons Ratio (z) = 0.30648 0.30648
#
# Static dielectric constant tensor:
#      x y z
#    x 3.443960 0.000000 0.000000 
#    y 0.000000 3.443960 0.000000 
#    z 0.000000 0.000000 3.328550 
# 
# 
# High freq. dielectric constant tensor:
#      x y z
#    x 1.744110 0.000000 0.000000 
#    y 0.000000 1.744110 0.000000 
#    z 0.000000 0.000000 1.720960 
# 
# From -- ./inp_files/3824.got.cif
#   From: 2010.03.12/outbox.cif.g09.slc.cpg/sg120_2_cif.got.tgz:3824.got - 2010.04.06 16:00:44.
