data_PCOD8311406
_publ_section_title
;
Structure prediction by ZEFSAII (Michael W. Deem and Ramdas Pophale) SiO2 
 PCOD8311406
Probable space group: I -4 2 M
;
_chemical_formula_sum "Si O2"
_cell_formula_units_Z 80
_cell_length_a 13.514566
_cell_length_b 13.514566
_cell_length_c 25.472222
_cell_angle_alpha 90.000000
_cell_angle_beta 90.000000
_cell_angle_gamma 90.000000
_cell_volume 4652.335630
_symmetry_space_group_name_H-M "I -4 2 M"
_symmetry_group_IT_number 121
_symmetry_cell_setting 'tetragonal'
loop_
_space_group_symop_operation_xyz
x,y,z
y,-x,-z
-x,-y,z
-y,x,-z
x,-y,-z
-x,y,-z
-y,-x,z
y,x,z
1/2+x,1/2+y,1/2+z
1/2+y,1/2-x,1/2-z
1/2-x,1/2-y,1/2+z
1/2-y,1/2+x,1/2-z
1/2+x,1/2-y,1/2-z
1/2-x,1/2+y,1/2-z
1/2-y,1/2-x,1/2+z
1/2+y,1/2+x,1/2+z
loop_
_atom_site_type_symbol
_atom_site_label
_atom_site_fract_x
_atom_site_fract_y
_atom_site_fract_z
Si Si1 0.104891 0.733116 0.355760
Si Si2 0.450239 0.895508 0.948228
Si Si3 0.934533 0.227475 0.952722
Si Si4 0.501653 0.337954 0.235279
Si Si5 0.926829 0.766627 0.162362
O O1 0.175364 0.824636 0.373199
O O2 0.041775 0.688677 0.403867
O O3 0.171613 0.644084 0.333430
O O4 0.024363 0.767876 0.313553
O O5 0.338629 0.909979 0.967218
O O6 0.500000 0.000000 0.930432
O O7 0.500000 0.851528 0.000000
O O8 0.832962 0.167039 0.948237
O O9 0.984544 0.229485 0.894101
O O10 0.000000 0.181238 0.000000
O O11 0.606023 0.393978 0.224133
O O12 0.416161 0.416161 0.244979
O O13 0.501945 0.267436 0.287018
O O14 0.867805 0.867805 0.167407
#
# Coordination Sequence:
#
# PCOD8311406 Si02
#       5
#    16  16  16  16  16
#     4   9  18  34  53  73 102 136 167 207 257 302
#     4  10  18  34  55  73  99 135 174 209 257 306
#     4  10  19  33  52  77 106 139 173 211 258 315
#     4   9  17  32  53  74 100 135 171 205 249 303
#     4   8  16  31  49  69  99 134 166 201 251 302
#
# _framework density 17.195664000000001
#
# number of rings (size 3 to 8) (size 9 to 14) (size 15 to 20)
#    0.000    2.800    2.000    1.800    0.000    1.000 
#    7.200    4.000    0.000    0.000    0.000    0.000 
#    0.000    0.000    0.000    0.000    0.000    0.000 
#
# Total GULP energy -495574.118284 kJ/mol
# GULP energy per Si atom -12389.352957 kJ/mol
# Density = 1.715653 g / cm^3
# Si number density = 17.195664 Si / 1000 Ang^3
#
#
#
# Elastic Constant Matrix: (Units=GPa)
#
#
# Indices 1 2 3 4 5 6 
#
# 1 66.4515 23.1924 65.0570 0.0000 0.0000 0.0000
# 2 23.1924 66.4510 65.0567 0.0000 0.0000 0.0000
# 3 65.0570 65.0567 180.5360 0.0000 0.0000 0.0000
# 4 0.0000 0.0000 0.0000 34.3291 0.0000 0.0000
# 5 0.0000 0.0000 0.0000 0.0000 34.3292 0.0000
# 6 0.0000 0.0000 0.0000 0.0000 0.0000 16.9452
#
#
#
# Elastic Compliance Matrix: (Units=1/GPa)
#
#
# Indices 1 2 3 4 5 6 
#
# 1 0.023252 0.000136 -0.008428 0.000000 0.000000 0.000000
# 2 0.000136 0.023252 -0.008428 0.000000 0.000000 0.000000
# 3 -0.008428 -0.008428 0.011613 0.000000 0.000000 0.000000
# 4 0.000000 0.000000 0.000000 0.029130 0.000000 0.000000
# 5 0.000000 0.000000 0.000000 0.000000 0.029130 0.000000
# 6 0.000000 0.000000 0.000000 0.000000 0.000000 0.059014
#
#
# Mechanical properties :
#
#
# Convention : Reuss Voigt Hill
#
# Bulk Modulus (GPa) = 40.52286 68.89452 54.70869
# Shear Modulus (GPa) = 23.03536 27.79619 25.41578
#
# Velocity S-wave (km/s) = 3.66403 4.02489 3.84869
# Velocity P-wave (km/s) = 6.44337 7.85822 7.18571
#
# Compressibility (1/GPa) = 0.02467743
#
# Stress axis : x y z
#
# Youngs Moduli (GPa) = 43.00650 43.00616 86.10906
#
# Poissons Ratio (x) = -0.00584 0.72573
# Poissons Ratio (y) = -0.00584 0.72573
# Poissons Ratio (z) = 0.36246 0.36246
#
# Static dielectric constant tensor:
#      x y z
#    x 3.145220 0.000000 0.000000 
#    y 0.000000 3.145220 0.000000 
#    z 0.000000 0.000000 3.534450 
# 
# 
# High freq. dielectric constant tensor:
#      x y z
#    x 1.645690 0.000000 0.000000 
#    y 0.000000 1.645690 0.000000 
#    z 0.000000 0.000000 1.675240 
# 
# From -- ./inp_files/7016.got.cif
#   From: 2010.03.12/outbox.cif.g09.slc.cpg/sg121_4_cif.got.tgz:7016.got - 2010.04.06 16:06:48.
