data_PCOD8311849
_publ_section_title
;
Structure prediction by ZEFSAII (Michael W. Deem and Ramdas Pophale) SiO2 
 PCOD8311849
Probable space group: I -4 2 D
;
_chemical_formula_sum "Si O2"
_cell_formula_units_Z 80
_cell_length_a 16.555974
_cell_length_b 16.555974
_cell_length_c 14.585036
_cell_angle_alpha 90.000000
_cell_angle_beta 90.000000
_cell_angle_gamma 90.000000
_cell_volume 3997.762380
_symmetry_space_group_name_H-M "I -4 2 D"
_symmetry_group_IT_number 122
_symmetry_cell_setting 'tetragonal'
loop_
_space_group_symop_operation_xyz
x,y,z
y,-x,-z
-x,-y,z
-y,x,-z
x,1/2-y,1/4-z
-x,1/2+y,1/4-z
-y,1/2-x,1/4+z
y,1/2+x,1/4+z
1/2+x,1/2+y,1/2+z
1/2+y,1/2-x,1/2-z
1/2-x,1/2-y,1/2+z
1/2-y,1/2+x,1/2-z
1/2+x,-y,3/4-z
1/2-x,y,3/4-z
1/2-y,-x,3/4+z
1/2+y,x,3/4+z
loop_
_atom_site_type_symbol
_atom_site_label
_atom_site_fract_x
_atom_site_fract_y
_atom_site_fract_z
Si Si1 0.061720 0.094638 0.949968
Si Si2 0.894366 0.280561 0.522695
Si Si3 0.915389 0.469997 0.994320
Si Si4 0.679325 0.841798 0.109888
Si Si5 0.212827 0.697658 0.215537
O O1 0.059617 0.064424 0.846074
O O2 0.108488 0.178462 0.953637
O O3 0.972913 0.108577 0.990950
O O4 0.911596 0.250000 0.625000
O O5 0.892012 0.204951 0.451341
O O6 0.805952 0.319565 0.512369
O O7 0.961125 0.346994 0.498956
O O8 0.000000 0.500000 0.950651
O O9 0.888315 0.395195 0.933282
O O10 0.648971 0.750000 0.125000
O O11 0.757471 0.836465 0.045034
O O12 0.202990 0.750000 0.125000
#
# Coordination Sequence:
#
# PCOD8311849 Si02
#       5
#    16  16  16  16  16
#     4  11  22  39  61  93 139 168 204 266 324 386
#     4  10  24  45  67  92 127 171 221 279 327 385
#     4  12  24  42  63  99 134 170 217 271 329 391
#     4  10  22  43  69  93 128 174 223 268 330 399
#     4  10  20  41  68  96 123 170 219 261 330 399
#
# _framework density 20.011194
#
# number of rings (size 3 to 8) (size 9 to 14) (size 15 to 20)
#    0.000    1.400    4.000    1.800    0.000    3.200 
#    3.600    0.000    0.000    0.000    0.000    0.000 
#    0.000    0.000    0.000    0.000    0.000    0.000 
#
# Total GULP energy -495947.234846 kJ/mol
# GULP energy per Si atom -12398.680871 kJ/mol
# Density = 1.996565 g / cm^3
# Si number density = 20.011194 Si / 1000 Ang^3
#
#
#
# Elastic Constant Matrix: (Units=GPa)
#
#
# Indices 1 2 3 4 5 6 
#
# 1 87.8906 56.5205 35.4101 0.0000 0.0000 0.0000
# 2 56.5205 87.8906 35.4101 0.0000 0.0000 0.0000
# 3 35.4101 35.4101 125.4881 0.0000 0.0000 0.0000
# 4 0.0000 0.0000 0.0000 62.9916 0.0000 0.0000
# 5 0.0000 0.0000 0.0000 0.0000 62.9916 0.0000
# 6 0.0000 0.0000 0.0000 0.0000 0.0000 34.4876
#
#
#
# Elastic Compliance Matrix: (Units=1/GPa)
#
#
# Indices 1 2 3 4 5 6 
#
# 1 0.019957 -0.011920 -0.002268 0.000000 0.000000 0.000000
# 2 -0.011920 0.019957 -0.002268 0.000000 0.000000 0.000000
# 3 -0.002268 -0.002268 0.009249 0.000000 0.000000 0.000000
# 4 0.000000 0.000000 0.000000 0.015875 0.000000 0.000000
# 5 0.000000 0.000000 0.000000 0.000000 0.015875 0.000000
# 6 0.000000 0.000000 0.000000 0.000000 0.000000 0.028996
#
#
# Mechanical properties :
#
#
# Convention : Reuss Voigt Hill
#
# Bulk Modulus (GPa) = 61.53422 61.77227 61.65324
# Shear Modulus (GPa) = 33.72950 43.68941 38.70945
#
# Velocity S-wave (km/s) = 4.10998 4.67759 4.40294
# Velocity P-wave (km/s) = 7.30337 7.75300 7.53154
#
# Compressibility (1/GPa) = 0.01625112
#
# Stress axis : x y z
#
# Youngs Moduli (GPa) = 50.10738 50.10738 108.12276
#
# Poissons Ratio (x) = 0.59730 0.24520
# Poissons Ratio (y) = 0.59730 0.24520
# Poissons Ratio (z) = 0.11363 0.11363
#
# Static dielectric constant tensor:
#      x y z
#    x 3.447710 0.000000 0.000000 
#    y 0.000000 3.447710 0.000000 
#    z 0.000000 0.000000 3.893440 
# 
# 
# High freq. dielectric constant tensor:
#      x y z
#    x 1.777770 0.000000 0.000000 
#    y 0.000000 1.777770 0.000000 
#    z 0.000000 0.000000 1.795450 
# 
# From -- ./inp_files/5319.got.cif
#   From: 2010.03.12/outbox.cif.g09.slc.cpg/sg122_3_cif.got.tgz:5319.got - 2010.04.06 16:17:16.
