data_PCOD8311470
_publ_section_title
;
Structure prediction by ZEFSAII (Michael W. Deem and Ramdas Pophale) SiO2 
 PCOD8311470
Probable space group: I -4 2 M
;
_chemical_formula_sum "Si O2"
_cell_formula_units_Z 56
_cell_length_a 19.532433
_cell_length_b 19.532433
_cell_length_c 7.909254
_cell_angle_alpha 90.000000
_cell_angle_beta 90.000000
_cell_angle_gamma 90.000000
_cell_volume 3017.506466
_symmetry_space_group_name_H-M "I -4 2 M"
_symmetry_group_IT_number 121
_symmetry_cell_setting 'tetragonal'
loop_
_space_group_symop_operation_xyz
x,y,z
y,-x,-z
-x,-y,z
-y,x,-z
x,-y,-z
-x,y,-z
-y,-x,z
y,x,z
1/2+x,1/2+y,1/2+z
1/2+y,1/2-x,1/2-z
1/2-x,1/2-y,1/2+z
1/2-y,1/2+x,1/2-z
1/2+x,1/2-y,1/2-z
1/2-x,1/2+y,1/2-z
1/2-y,1/2-x,1/2+z
1/2+y,1/2+x,1/2+z
loop_
_atom_site_type_symbol
_atom_site_label
_atom_site_fract_x
_atom_site_fract_y
_atom_site_fract_z
Si Si1 0.860441 0.745535 0.611964
Si Si2 0.755468 0.358196 0.499576
Si Si3 0.500000 0.705447 0.000000
Si Si4 0.044706 0.842675 0.842427
O O1 0.809273 0.809273 0.572843
O O2 0.827490 0.672692 0.561362
O O3 0.881644 0.741912 0.806928
O O4 0.929575 0.751387 0.501623
O O5 0.700782 0.299219 0.473643
O O6 0.732115 0.423272 0.388042
O O7 0.499617 0.660601 0.828258
O O8 0.103881 0.896120 0.807002
O O9 0.000000 0.868965 0.000000
#
# Coordination Sequence:
#
# PCOD8311470 Si02
#       4
#    16  16   8  16
#     4  10  19  33  55  82 112 145 184 236 292 340
#     4   9  18  35  57  80 108 143 188 243 290 328
#     4  12  22  34  56  85 117 148 188 232 292 346
#     4  11  23  39  57  80 115 155 196 238 278 334
#
# _framework density 18.558368999999999
#
# number of rings (size 3 to 8) (size 9 to 14) (size 15 to 20)
#    0.000    1.714    2.857    2.571    0.000    6.000 
#    0.000    0.000    0.000    3.857    0.000    1.000 
#    0.000    0.000    0.000    0.000    0.000    0.000 
#
# Total GULP energy -347132.015192 kJ/mol
# GULP energy per Si atom -12397.571971 kJ/mol
# Density = 1.851613 g / cm^3
# Si number density = 18.558369 Si / 1000 Ang^3
#
#
#
# Elastic Constant Matrix: (Units=GPa)
#
#
# Indices 1 2 3 4 5 6 
#
# 1 54.1548 25.1422 23.1544 0.0000 0.0000 0.0000
# 2 25.1422 54.1552 23.1514 0.0000 0.0000 0.0000
# 3 23.1544 23.1514 111.9379 0.0000 0.0000 0.0000
# 4 0.0000 0.0000 0.0000 28.7196 0.0000 0.0000
# 5 0.0000 0.0000 0.0000 0.0000 28.7183 0.0000
# 6 0.0000 0.0000 0.0000 0.0000 0.0000 13.5300
#
#
#
# Elastic Compliance Matrix: (Units=1/GPa)
#
#
# Indices 1 2 3 4 5 6 
#
# 1 0.024406 -0.010062 -0.002967 0.000000 0.000000 0.000000
# 2 -0.010062 0.024405 -0.002966 0.000000 0.000000 0.000000
# 3 -0.002967 -0.002966 0.010161 0.000000 0.000000 0.000000
# 4 0.000000 0.000000 0.000000 0.034819 0.000000 0.000000
# 5 0.000000 0.000000 0.000000 0.000000 0.034821 0.000000
# 6 0.000000 0.000000 0.000000 0.000000 0.000000 0.073910
#
#
# Mechanical properties :
#
#
# Convention : Reuss Voigt Hill
#
# Bulk Modulus (GPa) = 37.06400 40.34932 38.70666
# Shear Modulus (GPa) = 20.53336 24.11358 22.32347
#
# Velocity S-wave (km/s) = 3.32990 3.60854 3.47202
# Velocity P-wave (km/s) = 5.89909 6.25709 6.08072
#
# Compressibility (1/GPa) = 0.02698036
#
# Stress axis : x y z
#
# Youngs Moduli (GPa) = 40.97396 40.97525 98.41766
#
# Poissons Ratio (x) = 0.41230 0.29203
# Poissons Ratio (y) = 0.41229 0.29192
# Poissons Ratio (z) = 0.12158 0.12154
#
# Static dielectric constant tensor:
#      x y z
#    x 3.324120 0.000000 0.000000 
#    y 0.000000 3.324120 0.000000 
#    z 0.000000 0.000000 3.607380 
# 
# 
# High freq. dielectric constant tensor:
#      x y z
#    x 1.692820 0.000000 0.000000 
#    y 0.000000 1.692820 0.000000 
#    z 0.000000 0.000000 1.744300 
# 
# From -- ./inp_files/1314.got.cif
#   From: 2010.03.12/outbox.cif.g09.slc.cpg/sg121_1_cif.got.tgz:1314.got - 2010.04.06 16:06:48.
