data_PCOD8311033
_publ_section_title
;
Structure prediction by ZEFSAII (Michael W. Deem and Ramdas Pophale) SiO2 
 PCOD8311033
Probable space group: I -4 M 2
;
_chemical_formula_sum "Si O2"
_cell_formula_units_Z 46
_cell_length_a 9.888084
_cell_length_b 9.888084
_cell_length_c 25.667856
_cell_angle_alpha 90.000000
_cell_angle_beta 90.000000
_cell_angle_gamma 90.000000
_cell_volume 2509.654219
_symmetry_space_group_name_H-M "I -4 M 2"
_symmetry_group_IT_number 119
_symmetry_cell_setting 'tetragonal'
loop_
_space_group_symop_operation_xyz
x,y,z
y,-x,-z
-x,-y,z
-y,x,-z
y,x,-z
-y,-x,-z
-x,y,z
x,-y,z
1/2+x,1/2+y,1/2+z
1/2+y,1/2-x,1/2-z
1/2-x,1/2-y,1/2+z
1/2-y,1/2+x,1/2-z
1/2+y,1/2+x,1/2-z
1/2-y,1/2-x,1/2-z
1/2-x,1/2+y,1/2+z
1/2+x,1/2-y,1/2+z
loop_
_atom_site_type_symbol
_atom_site_label
_atom_site_fract_x
_atom_site_fract_y
_atom_site_fract_z
Si Si1 0.652555 0.652555 0.000000
Si Si2 0.762711 0.000000 0.321088
Si Si3 0.346265 0.500000 0.356421
Si Si4 0.000000 0.500000 0.750000
Si Si5 0.160399 0.744962 0.388600
Si Si6 0.000000 0.000000 0.758343
O O1 0.685407 0.744988 0.950523
O O2 0.674505 0.500000 0.980705
O O3 0.783038 0.127417 0.358030
O O4 0.868734 0.000000 0.275552
O O5 0.622225 0.000000 0.290751
O O6 0.500000 0.500000 0.381750
O O7 0.256189 0.625813 0.371474
O O8 0.364806 0.500000 0.293939
O O9 0.000000 0.722543 0.376848
#
# Coordination Sequence:
#
# PCOD8311033 Si02
#       6
#     8   8   8   2  16   4
#     4   9  18  36  65  96 118 152 209 262 299 364
#     4  12  22  42  65  95 117 169 211 257 311 365
#     4  10  25  43  58  87 137 159 202 260 309 375
#     4  12  28  36  64  88 144 160 208 260 316 378
#     4  11  21  41  67  93 123 163 208 259 314 368
#     4  10  22  44  62  86 124 164 210 256 296 366
#
# _framework density 18.329218999999998
#
# number of rings (size 3 to 8) (size 9 to 14) (size 15 to 20)
#    0.522    0.870    3.478    2.609    2.435    0.000 
#    3.130    0.000    3.826    0.000    0.000    0.000 
#    0.000    0.000    0.000    0.000    0.000    0.000 
#
# Total GULP energy -284990.281250 kJ/mol
# GULP energy per Si atom -12390.881793 kJ/mol
# Density = 1.828750 g / cm^3
# Si number density = 18.329219 Si / 1000 Ang^3
#
#
#
# Elastic Constant Matrix: (Units=GPa)
#
#
# Indices 1 2 3 4 5 6 
#
# 1 145.3763 83.7880 64.1642 0.0000 0.0000 0.0000
# 2 83.7880 145.3763 64.1642 0.0000 0.0000 0.0000
# 3 64.1642 64.1642 119.8531 0.0000 0.0000 0.0000
# 4 0.0000 0.0000 0.0000 -1.9349 0.0000 0.0000
# 5 0.0000 0.0000 0.0000 0.0000 -1.9349 0.0000
# 6 0.0000 0.0000 0.0000 0.0000 0.0000 41.0410
#
#
#
# Elastic Compliance Matrix: (Units=1/GPa)
#
#
# Indices 1 2 3 4 5 6 
#
# 1 0.011234 -0.005002 -0.003336 0.000000 0.000000 0.000000
# 2 -0.005002 0.011234 -0.003336 0.000000 0.000000 0.000000
# 3 -0.003336 -0.003336 0.011916 0.000000 0.000000 0.000000
# 4 0.000000 0.000000 0.000000 -0.516825 0.000000 0.000000
# 5 0.000000 0.000000 0.000000 0.000000 -0.516825 0.000000
# 6 0.000000 0.000000 0.000000 0.000000 0.000000 0.024366
#
#
# Mechanical properties :
#
#
# Convention : Reuss Voigt Hill
#
# Bulk Modulus (GPa) = 90.62543 92.75982 91.69262
# Shear Modulus (GPa) = -5.27498 20.66687 7.69595
#
# Velocity S-wave (km/s) = -1.69828 3.36152 2.05130
# Velocity P-wave (km/s) = 6.76054 8.11073 7.46622
#
# Compressibility (1/GPa) = 0.01103443
#
# Stress axis : x y z
#
# Youngs Moduli (GPa) = 89.01232 89.01232 83.92221
#
# Poissons Ratio (x) = 0.44528 0.27999
# Poissons Ratio (y) = 0.44528 0.27999
# Poissons Ratio (z) = 0.29697 0.29697
#
# Static dielectric constant tensor:
#      x y z
#    x 3.288750 0.000000 0.000000 
#    y 0.000000 3.288750 0.000000 
#    z 0.000000 0.000000 3.705390 
# 
# 
# High freq. dielectric constant tensor:
#      x y z
#    x 1.713480 0.000000 0.000000 
#    y 0.000000 1.713480 0.000000 
#    z 0.000000 0.000000 1.724060 
# 
# From -- ./inp_files/9840.got.cif
#   From: 2010.03.12/outbox.cif.g09.slc.cpg/sg119_5_cif.got.tgz:9840.got - 2010.04.14 02:25:26.
