data_PCOD8311296
_publ_section_title
;
Structure prediction by ZEFSAII (Michael W. Deem and Ramdas Pophale) SiO2 
 PCOD8311296
Probable space group: I -4 C 2
;
_chemical_formula_sum "Si O2"
_cell_formula_units_Z 96
_cell_length_a 26.844131
_cell_length_b 26.844131
_cell_length_c 8.972736
_cell_angle_alpha 90.000000
_cell_angle_beta 90.000000
_cell_angle_gamma 90.000000
_cell_volume 6465.819683
_symmetry_space_group_name_H-M "I -4 C 2"
_symmetry_group_IT_number 120
_symmetry_cell_setting 'tetragonal'
loop_
_space_group_symop_operation_xyz
x,y,z
y,-x,-z
-x,-y,z
-y,x,-z
y,x,1/2-z
-y,-x,1/2-z
-x,y,1/2+z
x,-y,1/2+z
1/2+x,1/2+y,1/2+z
1/2+y,1/2-x,1/2-z
1/2-x,1/2-y,1/2+z
1/2-y,1/2+x,1/2-z
1/2+y,1/2+x,-z
1/2-y,1/2-x,-z
1/2-x,1/2+y,z
1/2+x,1/2-y,z
loop_
_atom_site_type_symbol
_atom_site_label
_atom_site_fract_x
_atom_site_fract_y
_atom_site_fract_z
Si Si1 0.852907 0.996031 0.211277
Si Si2 0.750041 0.325658 0.175293
Si Si3 0.326375 0.250847 0.174084
Si Si4 0.921633 0.989080 0.961191
Si Si5 0.817961 0.105976 0.825022
Si Si6 0.181229 0.895058 0.175842
O O1 0.906664 0.004937 0.289816
O O2 0.821260 0.046472 0.210504
O O3 0.869279 0.979085 0.045946
O O4 0.822029 0.952544 0.290816
O O5 0.714485 0.285516 0.250000
O O6 0.807315 0.306450 0.199298
O O7 0.736105 0.377348 0.257731
O O8 0.737720 0.330238 0.000946
O O9 0.286744 0.286744 0.250000
O O10 0.378339 0.265125 0.254140
O O11 0.959061 0.943795 0.979852
O O12 0.863197 0.136804 0.750000
O O13 0.819672 0.115383 0.000507
O O14 0.135185 0.864816 0.250000
#
# Coordination Sequence:
#
# PCOD8311296 Si02
#       6
#    16  16  16  16  16  16
#     4  12  24  33  46  64  82 110 146 187 230 272
#     4   9  17  29  47  68  87 106 131 167 212 264
#     4   9  17  29  47  68  87 106 131 167 212 264
#     4  11  22  36  48  58  76 106 148 194 234 267
#     4  11  22  33  48  64  84 112 141 181 225 266
#     4  11  22  33  48  64  84 112 141 181 225 266
#
# _framework density 14.847306
#
# number of rings (size 3 to 8) (size 9 to 14) (size 15 to 20)
#    0.000    1.500    1.667    7.000    4.667    3.333 
#    0.000    0.000    0.000    0.000    0.000    0.000 
#    0.000    0.000    0.000    0.000    0.000    0.833 
#
# Total GULP energy -594766.630097 kJ/mol
# GULP energy per Si atom -12390.971460 kJ/mol
# Density = 1.481351 g / cm^3
# Si number density = 14.847306 Si / 1000 Ang^3
#
#
#
# Elastic Constant Matrix: (Units=GPa)
#
#
# Indices 1 2 3 4 5 6 
#
# 1 56.6330 39.2871 39.6198 0.0000 0.0000 0.0000
# 2 39.2871 56.6336 39.6188 0.0000 0.0000 0.0000
# 3 39.6198 39.6188 103.0825 0.0000 0.0000 0.0000
# 4 0.0000 0.0000 0.0000 21.0486 0.0000 0.0000
# 5 0.0000 0.0000 0.0000 0.0000 21.0486 0.0000
# 6 0.0000 0.0000 0.0000 0.0000 0.0000 22.9345
#
#
#
# Elastic Compliance Matrix: (Units=1/GPa)
#
#
# Indices 1 2 3 4 5 6 
#
# 1 0.036463 -0.021187 -0.005871 0.000000 0.000000 0.000000
# 2 -0.021187 0.036462 -0.005870 0.000000 0.000000 0.000000
# 3 -0.005871 -0.005870 0.014214 0.000000 0.000000 0.000000
# 4 0.000000 0.000000 0.000000 0.047509 0.000000 0.000000
# 5 0.000000 0.000000 0.000000 0.000000 0.047509 0.000000
# 6 0.000000 0.000000 0.000000 0.000000 0.000000 0.043602
#
#
# Mechanical properties :
#
#
# Convention : Reuss Voigt Hill
#
# Bulk Modulus (GPa) = 46.99128 50.37781 48.68455
# Shear Modulus (GPa) = 16.73861 19.52792 18.13327
#
# Velocity S-wave (km/s) = 3.36130 3.63057 3.49853
# Velocity P-wave (km/s) = 6.83980 7.18185 7.01291
#
# Compressibility (1/GPa) = 0.02128054
#
# Stress axis : x y z
#
# Youngs Moduli (GPa) = 27.42514 27.42599 70.35359
#
# Poissons Ratio (x) = 0.58108 0.41308
# Poissons Ratio (y) = 0.58106 0.41301
# Poissons Ratio (z) = 0.16103 0.16100
#
# Static dielectric constant tensor:
#      x y z
#    x 3.054790 0.000000 0.000000 
#    y 0.000000 3.054800 0.000000 
#    z 0.000000 0.000000 3.166090 
# 
# 
# High freq. dielectric constant tensor:
#      x y z
#    x 1.532300 0.000000 0.000000 
#    y 0.000000 1.532300 0.000000 
#    z 0.000000 0.000000 1.599900 
# 
# From -- ./inp_files/1639.got.cif
#   From: 2010.03.12/outbox.cif.g09.slc.cpg/sg120_1_cif.got.tgz:1639.got - 2010.04.06 16:00:44.
