data_PCOD8311921
_publ_section_title
;
Structure prediction by ZEFSAII (Michael W. Deem and Ramdas Pophale) SiO2 
 PCOD8311921
Probable space group: I -4 2 D
;
_chemical_formula_sum "Si O2"
_cell_formula_units_Z 72
_cell_length_a 17.043737
_cell_length_b 17.043737
_cell_length_c 11.852022
_cell_angle_alpha 90.000000
_cell_angle_beta 90.000000
_cell_angle_gamma 90.000000
_cell_volume 3442.881674
_symmetry_space_group_name_H-M "I -4 2 D"
_symmetry_group_IT_number 122
_symmetry_cell_setting 'tetragonal'
loop_
_space_group_symop_operation_xyz
x,y,z
y,-x,-z
-x,-y,z
-y,x,-z
x,1/2-y,1/4-z
-x,1/2+y,1/4-z
-y,1/2-x,1/4+z
y,1/2+x,1/4+z
1/2+x,1/2+y,1/2+z
1/2+y,1/2-x,1/2-z
1/2-x,1/2-y,1/2+z
1/2-y,1/2+x,1/2-z
1/2+x,-y,3/4-z
1/2-x,y,3/4-z
1/2-y,-x,3/4+z
1/2+y,x,3/4+z
loop_
_atom_site_type_symbol
_atom_site_label
_atom_site_fract_x
_atom_site_fract_y
_atom_site_fract_z
Si Si1 0.687826 0.621440 0.972817
Si Si2 0.605743 0.672192 0.483246
Si Si3 0.682075 0.471606 0.116170
Si Si4 0.661637 0.528722 0.351694
Si Si5 0.260780 0.250000 0.625000
O O1 0.750000 0.636140 0.875000
O O2 0.599126 0.628598 0.928153
O O3 0.698125 0.533467 0.017668
O O4 0.704127 0.685711 0.069348
O O5 0.561349 0.735670 0.408935
O O6 0.609592 0.597215 0.403039
O O7 0.555329 0.646147 0.591058
O O8 0.687630 0.706458 0.529377
O O9 0.640405 0.517165 0.220133
O O10 0.750000 0.555747 0.375000
#
# Coordination Sequence:
#
# PCOD8311921 Si02
#       5
#    16  16  16  16   8
#     4  12  27  45  70 100 139 185 236 289 350 431
#     4  11  21  42  70 103 135 174 227 291 355 418
#     4  11  26  44  65 103 139 182 235 286 347 426
#     4  10  22  41  67 102 135 172 228 292 349 419
#     4  12  22  42  76 102 130 180 236 290 352 422
#
# _framework density 20.912714999999999
#
# number of rings (size 3 to 8) (size 9 to 14) (size 15 to 20)
#    0.000    0.889    5.556    2.667    7.778    0.889 
#    0.000    2.222    0.000    0.000    0.000    0.000 
#    0.000    0.000    0.000    0.000    0.000    0.000 
#
# Total GULP energy -446521.130617 kJ/mol
# GULP energy per Si atom -12403.364739 kJ/mol
# Density = 2.086512 g / cm^3
# Si number density = 20.912715 Si / 1000 Ang^3
#
#
#
# Elastic Constant Matrix: (Units=GPa)
#
#
# Indices 1 2 3 4 5 6 
#
# 1 75.8955 7.7470 35.3243 0.0000 0.0000 0.0000
# 2 7.7470 75.8955 35.3243 0.0000 0.0000 0.0000
# 3 35.3243 35.3243 86.5675 0.0000 0.0000 0.0000
# 4 0.0000 0.0000 0.0000 41.1575 0.0000 0.0000
# 5 0.0000 0.0000 0.0000 0.0000 41.1575 0.0000
# 6 0.0000 0.0000 0.0000 0.0000 0.0000 12.5727
#
#
#
# Elastic Compliance Matrix: (Units=1/GPa)
#
#
# Indices 1 2 3 4 5 6 
#
# 1 0.016459 0.001785 -0.007444 0.000000 0.000000 0.000000
# 2 0.001785 0.016459 -0.007444 0.000000 0.000000 0.000000
# 3 -0.007444 -0.007444 0.017627 0.000000 0.000000 0.000000
# 4 0.000000 0.000000 0.000000 0.024297 0.000000 0.000000
# 5 0.000000 0.000000 0.000000 0.000000 0.024297 0.000000
# 6 0.000000 0.000000 0.000000 0.000000 0.000000 0.079537
#
#
# Mechanical properties :
#
#
# Convention : Reuss Voigt Hill
#
# Bulk Modulus (GPa) = 41.09020 43.90550 42.49785
# Shear Modulus (GPa) = 23.47465 29.64172 26.55819
#
# Velocity S-wave (km/s) = 3.35402 3.76892 3.56751
# Velocity P-wave (km/s) = 5.88985 6.32297 6.11025
#
# Compressibility (1/GPa) = 0.02433671
#
# Stress axis : x y z
#
# Youngs Moduli (GPa) = 60.75825 60.75825 56.73091
#
# Poissons Ratio (x) = -0.10844 0.42232
# Poissons Ratio (y) = -0.10844 0.42232
# Poissons Ratio (z) = 0.45231 0.45231
#
# Static dielectric constant tensor:
#      x y z
#    x 3.741510 0.000000 0.000000 
#    y 0.000000 3.741510 0.000000 
#    z 0.000000 0.000000 4.036470 
# 
# 
# High freq. dielectric constant tensor:
#      x y z
#    x 1.814710 0.000000 0.000000 
#    y 0.000000 1.814710 0.000000 
#    z 0.000000 0.000000 1.830340 
# 
# From -- ./inp_files/4204.got.cif
#   From: 2010.03.12/outbox.cif.g09.slc.cpg/sg122_3_cif.got.tgz:4204.got - 2010.04.06 16:17:16.
