data_PCOD8311745
_publ_section_title
;
Structure prediction by ZEFSAII (Michael W. Deem and Ramdas Pophale) SiO2 
 PCOD8311745
Probable space group: I -4 2 D
;
_chemical_formula_sum "Si O2"
_cell_formula_units_Z 56
_cell_length_a 19.066513
_cell_length_b 19.066513
_cell_length_c 8.455660
_cell_angle_alpha 90.000000
_cell_angle_beta 90.000000
_cell_angle_gamma 90.000000
_cell_volume 3073.902298
_symmetry_space_group_name_H-M "I -4 2 D"
_symmetry_group_IT_number 122
_symmetry_cell_setting 'tetragonal'
loop_
_space_group_symop_operation_xyz
x,y,z
y,-x,-z
-x,-y,z
-y,x,-z
x,1/2-y,1/4-z
-x,1/2+y,1/4-z
-y,1/2-x,1/4+z
y,1/2+x,1/4+z
1/2+x,1/2+y,1/2+z
1/2+y,1/2-x,1/2-z
1/2-x,1/2-y,1/2+z
1/2-y,1/2+x,1/2-z
1/2+x,-y,3/4-z
1/2-x,y,3/4-z
1/2-y,-x,3/4+z
1/2+y,x,3/4+z
loop_
_atom_site_type_symbol
_atom_site_label
_atom_site_fract_x
_atom_site_fract_y
_atom_site_fract_z
Si Si1 0.389908 0.750000 0.625000
Si Si2 0.900713 0.452762 0.739354
Si Si3 0.125955 0.188212 0.733204
Si Si4 0.266036 0.975426 0.045374
O O1 0.339900 0.682497 0.640799
O O2 0.441072 0.747288 0.470078
O O3 0.917598 0.527451 0.823042
O O4 0.873775 0.400226 0.872727
O O5 0.847072 0.462571 0.593321
O O6 0.159493 0.250000 0.625000
O O7 0.057629 0.216684 0.822753
O O8 0.250000 0.939265 0.875000
#
# Coordination Sequence:
#
# PCOD8311745 Si02
#       4
#     8  16  16  16
#     4  10  20  40  56  82 118 150 184 244 278 336
#     4  10  18  34  58  84 112 148 192 235 281 336
#     4  10  21  37  59  85 115 152 193 232 285 346
#     4   9  20  36  55  83 116 145 189 235 279 342
#
# _framework density 18.217887000000001
#
# number of rings (size 3 to 8) (size 9 to 14) (size 15 to 20)
#    0.857    1.429    2.857    0.000    0.000    3.429 
#    0.000    2.857    0.000    0.000    0.000    0.000 
#    0.000    0.000    0.000    0.000    0.000    0.000 
#
# Total GULP energy -346930.236552 kJ/mol
# GULP energy per Si atom -12390.365591 kJ/mol
# Density = 1.817642 g / cm^3
# Si number density = 18.217887 Si / 1000 Ang^3
#
#
#
# Elastic Constant Matrix: (Units=GPa)
#
#
# Indices 1 2 3 4 5 6 
#
# 1 104.5126 53.1641 31.0102 0.0000 0.0000 0.0000
# 2 53.1641 104.5126 31.0102 0.0000 0.0000 0.0000
# 3 31.0102 31.0102 62.7976 0.0000 0.0000 0.0000
# 4 0.0000 0.0000 0.0000 31.6500 0.0000 0.0000
# 5 0.0000 0.0000 0.0000 0.0000 31.6500 0.0000
# 6 0.0000 0.0000 0.0000 0.0000 0.0000 24.1656
#
#
#
# Elastic Compliance Matrix: (Units=1/GPa)
#
#
# Indices 1 2 3 4 5 6 
#
# 1 0.013673 -0.005802 -0.003887 0.000000 0.000000 0.000000
# 2 -0.005802 0.013673 -0.003887 0.000000 0.000000 0.000000
# 3 -0.003887 -0.003887 0.019763 0.000000 0.000000 0.000000
# 4 0.000000 0.000000 0.000000 0.031596 0.000000 0.000000
# 5 0.000000 0.000000 0.000000 0.000000 0.031596 0.000000
# 6 0.000000 0.000000 0.000000 0.000000 0.000000 0.041381
#
#
# Mechanical properties :
#
#
# Convention : Reuss Voigt Hill
#
# Bulk Modulus (GPa) = 50.10616 55.79911 52.95263
# Shear Modulus (GPa) = 26.95647 27.93566 27.44607
#
# Velocity S-wave (km/s) = 3.85082 3.92014 3.88563
# Velocity P-wave (km/s) = 6.88007 7.15438 7.01857
#
# Compressibility (1/GPa) = 0.01995763
#
# Stress axis : x y z
#
# Youngs Moduli (GPa) = 73.13763 73.13763 50.60010
#
# Poissons Ratio (x) = 0.42434 0.19667
# Poissons Ratio (y) = 0.42434 0.19667
# Poissons Ratio (z) = 0.28427 0.28427
#
# Static dielectric constant tensor:
#      x y z
#    x 3.330730 0.000000 0.000000 
#    y 0.000000 3.330730 0.000000 
#    z 0.000000 0.000000 3.133740 
# 
# 
# High freq. dielectric constant tensor:
#      x y z
#    x 1.709020 0.000000 0.000000 
#    y 0.000000 1.709020 0.000000 
#    z 0.000000 0.000000 1.681140 
# 
# From -- ./inp_files/2295.got.cif
#   From: 2010.03.12/outbox.cif.g09.slc.cpg/sg122_2_cif.got.tgz:2295.got - 2010.04.06 16:17:16.
