data_PCOD8311073
_publ_section_title
;
Structure prediction by ZEFSAII (Michael W. Deem and Ramdas Pophale) SiO2 
 PCOD8311073
Probable space group: I -4 M 2
;
_chemical_formula_sum "Si O2"
_cell_formula_units_Z 96
_cell_length_a 15.239358
_cell_length_b 15.239358
_cell_length_c 19.675315
_cell_angle_alpha 90.000000
_cell_angle_beta 90.000000
_cell_angle_gamma 90.000000
_cell_volume 4569.356440
_symmetry_space_group_name_H-M "I -4 M 2"
_symmetry_group_IT_number 119
_symmetry_cell_setting 'tetragonal'
loop_
_space_group_symop_operation_xyz
x,y,z
y,-x,-z
-x,-y,z
-y,x,-z
y,x,-z
-y,-x,-z
-x,y,z
x,-y,z
1/2+x,1/2+y,1/2+z
1/2+y,1/2-x,1/2-z
1/2-x,1/2-y,1/2+z
1/2-y,1/2+x,1/2-z
1/2+y,1/2+x,1/2-z
1/2-y,1/2-x,1/2-z
1/2-x,1/2+y,1/2+z
1/2+x,1/2-y,1/2+z
loop_
_atom_site_type_symbol
_atom_site_label
_atom_site_fract_x
_atom_site_fract_y
_atom_site_fract_z
Si Si1 0.402766 0.761447 0.433072
Si Si2 0.600575 0.349291 0.198157
Si Si3 0.265649 0.903458 0.777719
Si Si4 0.351793 0.901529 0.323775
Si Si5 0.342569 0.227291 0.578116
Si Si6 0.901104 0.816910 0.433794
O O1 0.500000 0.719127 0.426006
O O2 0.397115 0.838674 0.378085
O O3 0.327782 0.690010 0.422579
O O4 0.392362 0.799874 0.509301
O O5 0.500000 0.361186 0.222947
O O6 0.665280 0.381060 0.257807
O O7 0.624263 0.249303 0.182243
O O8 0.614973 0.403418 0.128778
O O9 0.331637 0.831637 0.750000
O O10 0.277043 0.907941 0.858711
O O11 0.289099 0.000000 0.748712
O O12 0.395563 0.895563 0.250000
O O13 0.363262 0.000000 0.351396
O O14 0.263522 0.159342 0.588944
O O15 0.862662 0.862662 0.500000
O O16 0.000000 0.785071 0.449212
#
# Coordination Sequence:
#
# PCOD8311073 Si02
#       6
#    16  16  16  16  16  16
#     4  11  22  40  66  92 124 171 216 263 326 391
#     4  11  23  41  66  97 133 171 214 269 333 399
#     4  12  25  43  67  94 128 172 223 276 326 378
#     4  11  22  38  62  96 135 173 214 264 326 400
#     4  11  23  44  65  92 127 168 221 270 323 384
#     4  12  23  40  66  95 130 169 209 263 331 403
#
# _framework density 21.009523000000002
#
# number of rings (size 3 to 8) (size 9 to 14) (size 15 to 20)
#    0.000    0.667    5.000    3.500    0.000    7.500 
#    0.000    0.000    0.000   11.000    0.000    0.000 
#    0.000    0.000    0.000    0.000    0.000    0.000 
#
# Total GULP energy -595218.281100 kJ/mol
# GULP energy per Si atom -12400.380856 kJ/mol
# Density = 2.096170 g / cm^3
# Si number density = 21.009523 Si / 1000 Ang^3
#
#
#
# Elastic Constant Matrix: (Units=GPa)
#
#
# Indices 1 2 3 4 5 6 
#
# 1 113.0104 54.6760 25.3749 0.0000 0.0000 0.0000
# 2 54.6760 113.0104 25.3749 0.0000 0.0000 0.0000
# 3 25.3749 25.3749 132.6991 0.0000 0.0000 0.0000
# 4 0.0000 0.0000 0.0000 15.1710 0.0000 0.0000
# 5 0.0000 0.0000 0.0000 0.0000 15.1710 0.0000
# 6 0.0000 0.0000 0.0000 0.0000 0.0000 11.3168
#
#
#
# Elastic Compliance Matrix: (Units=1/GPa)
#
#
# Indices 1 2 3 4 5 6 
#
# 1 0.011736 -0.005406 -0.001210 0.000000 0.000000 0.000000
# 2 -0.005406 0.011736 -0.001210 0.000000 0.000000 0.000000
# 3 -0.001210 -0.001210 0.007999 0.000000 0.000000 0.000000
# 4 0.000000 0.000000 0.000000 0.065915 0.000000 0.000000
# 5 0.000000 0.000000 0.000000 0.000000 0.065915 0.000000
# 6 0.000000 0.000000 0.000000 0.000000 0.000000 0.088364
#
#
# Mechanical properties :
#
#
# Convention : Reuss Voigt Hill
#
# Bulk Modulus (GPa) = 63.22377 63.28569 63.25473
# Shear Modulus (GPa) = 18.34241 25.21803 21.78022
#
# Velocity S-wave (km/s) = 2.95795 3.46831 3.22325
# Velocity P-wave (km/s) = 6.46716 6.79902 6.63517
#
# Compressibility (1/GPa) = 0.01581684
#
# Stress axis : x y z
#
# Youngs Moduli (GPa) = 85.20649 85.20649 125.01947
#
# Poissons Ratio (x) = 0.46066 0.15132
# Poissons Ratio (y) = 0.46066 0.15132
# Poissons Ratio (z) = 0.10313 0.10313
#
# Static dielectric constant tensor:
#      x y z
#    x 3.781140 0.000000 0.000000 
#    y 0.000000 3.781140 0.000000 
#    z 0.000000 0.000000 4.114800 
# 
# 
# High freq. dielectric constant tensor:
#      x y z
#    x 1.816950 0.000000 0.000000 
#    y 0.000000 1.816950 0.000000 
#    z 0.000000 0.000000 1.837820 
# 
# From -- ./inp_files/7755.got.cif
#   From: 2010.03.12/outbox.cif.g09.slc.cpg/sg119_4_cif.got.tgz:7755.got - 2010.04.14 02:25:26.
