data_PCOD8311289
_publ_section_title
;
Structure prediction by ZEFSAII (Michael W. Deem and Ramdas Pophale) SiO2 
 PCOD8311289
Probable space group: I -4 C 2
;
_chemical_formula_sum "Si O2"
_cell_formula_units_Z 96
_cell_length_a 15.926027
_cell_length_b 15.926027
_cell_length_c 18.452179
_cell_angle_alpha 90.000000
_cell_angle_beta 90.000000
_cell_angle_gamma 90.000000
_cell_volume 4680.179977
_symmetry_space_group_name_H-M "I -4 C 2"
_symmetry_group_IT_number 120
_symmetry_cell_setting 'tetragonal'
loop_
_space_group_symop_operation_xyz
x,y,z
y,-x,-z
-x,-y,z
-y,x,-z
y,x,1/2-z
-y,-x,1/2-z
-x,y,1/2+z
x,-y,1/2+z
1/2+x,1/2+y,1/2+z
1/2+y,1/2-x,1/2-z
1/2-x,1/2-y,1/2+z
1/2-y,1/2+x,1/2-z
1/2+y,1/2+x,-z
1/2-y,1/2-x,-z
1/2-x,1/2+y,z
1/2+x,1/2-y,z
loop_
_atom_site_type_symbol
_atom_site_label
_atom_site_fract_x
_atom_site_fract_y
_atom_site_fract_z
Si Si1 0.435778 0.610574 0.407250
Si Si2 0.048550 0.378803 0.225671
Si Si3 0.595085 0.028015 0.932119
Si Si4 0.137396 0.702584 0.071710
Si Si5 0.244145 0.140993 0.196416
Si Si6 0.075514 0.880026 0.073948
O O1 0.393144 0.663180 0.344440
O O2 0.397123 0.518335 0.398574
O O3 0.415758 0.637909 0.488462
O O4 0.536340 0.622709 0.399200
O O5 0.102690 0.449496 0.267301
O O6 0.074477 0.375861 0.140882
O O7 0.067594 0.286878 0.256440
O O8 0.500000 0.000000 0.919263
O O9 0.654496 0.948782 0.948338
O O10 0.594013 0.094013 0.000000
O O11 0.186269 0.664572 0.138527
O O12 0.116592 0.795230 0.103576
O O13 0.196715 0.696715 0.000000
O O14 0.216641 0.216641 0.250000
#
# Coordination Sequence:
#
# PCOD8311289 Si02
#       6
#    16  16  16  16  16  16
#     4   9  20  43  66  95 120 174 223 270 338 405
#     4  11  22  41  64  91 131 178 216 271 348 425
#     4  11  21  38  65  99 129 178 228 263 342 435
#     4  12  22  40  67 103 138 165 219 295 343 403
#     4  12  27  41  61  94 141 176 217 286 354 407
#     4   9  20  40  73  91 123 169 226 278 329 398
#
# _framework density 20.512031
#
# number of rings (size 3 to 8) (size 9 to 14) (size 15 to 20)
#    0.000    1.333    6.667    1.000    2.333    1.333 
#    0.000    4.167    0.000    1.000    0.000    0.000 
#    0.000    0.000    0.000    0.000    0.000    0.000 
#
# Total GULP energy -594805.269011 kJ/mol
# GULP energy per Si atom -12391.776438 kJ/mol
# Density = 2.046534 g / cm^3
# Si number density = 20.512031 Si / 1000 Ang^3
#
#
#
# Elastic Constant Matrix: (Units=GPa)
#
#
# Indices 1 2 3 4 5 6 
#
# 1 64.9757 24.2854 26.8862 0.0000 0.0000 0.0000
# 2 24.2854 64.9757 26.8862 0.0000 0.0000 0.0000
# 3 26.8862 26.8862 131.0906 0.0000 0.0000 0.0000
# 4 0.0000 0.0000 0.0000 26.1431 0.0000 0.0000
# 5 0.0000 0.0000 0.0000 0.0000 26.1431 0.0000
# 6 0.0000 0.0000 0.0000 0.0000 0.0000 26.2502
#
#
#
# Elastic Compliance Matrix: (Units=1/GPa)
#
#
# Indices 1 2 3 4 5 6 
#
# 1 0.018679 -0.005897 -0.002622 0.000000 0.000000 0.000000
# 2 -0.005897 0.018679 -0.002622 0.000000 0.000000 0.000000
# 3 -0.002622 -0.002622 0.008704 0.000000 0.000000 0.000000
# 4 0.000000 0.000000 0.000000 0.038251 0.000000 0.000000
# 5 0.000000 0.000000 0.000000 0.000000 0.038251 0.000000
# 6 0.000000 0.000000 0.000000 0.000000 0.000000 0.038095
#
#
# Mechanical properties :
#
#
# Convention : Reuss Voigt Hill
#
# Bulk Modulus (GPa) = 42.04864 46.35085 44.19975
# Shear Modulus (GPa) = 26.19634 27.90621 27.05127
#
# Velocity S-wave (km/s) = 3.57756 3.69247 3.63547
# Velocity P-wave (km/s) = 6.13264 6.38945 6.26236
#
# Compressibility (1/GPa) = 0.02378198
#
# Stress axis : x y z
#
# Youngs Moduli (GPa) = 53.53562 53.53561 114.89387
#
# Poissons Ratio (x) = 0.31569 0.30121
# Poissons Ratio (y) = 0.31569 0.30121
# Poissons Ratio (z) = 0.14035 0.14035
#
# Static dielectric constant tensor:
#      x y z
#    x 3.706560 0.000000 0.000000 
#    y 0.000000 3.706560 0.000000 
#    z 0.000000 0.000000 3.948130 
# 
# 
# High freq. dielectric constant tensor:
#      x y z
#    x 1.789870 0.000000 0.000000 
#    y 0.000000 1.789870 0.000000 
#    z 0.000000 0.000000 1.809510 
# 
# From -- ./inp_files/5337.got.cif
#   From: 2010.03.12/outbox.cif.g09.slc.cpg/sg120_3_cif.got.tgz:5337.got - 2010.04.06 16:00:44.
