data_PCOD8311593
_publ_section_title
;
Structure prediction by ZEFSAII (Michael W. Deem and Ramdas Pophale) SiO2 
 PCOD8311593
Probable space group: I -4 2 M
;
_chemical_formula_sum "Si O2"
_cell_formula_units_Z 64
_cell_length_a 16.677191
_cell_length_b 16.677191
_cell_length_c 13.002477
_cell_angle_alpha 90.000000
_cell_angle_beta 90.000000
_cell_angle_gamma 90.000000
_cell_volume 3616.362020
_symmetry_space_group_name_H-M "I -4 2 M"
_symmetry_group_IT_number 121
_symmetry_cell_setting 'tetragonal'
loop_
_space_group_symop_operation_xyz
x,y,z
y,-x,-z
-x,-y,z
-y,x,-z
x,-y,-z
-x,y,-z
-y,-x,z
y,x,z
1/2+x,1/2+y,1/2+z
1/2+y,1/2-x,1/2-z
1/2-x,1/2-y,1/2+z
1/2-y,1/2+x,1/2-z
1/2+x,1/2-y,1/2-z
1/2-x,1/2+y,1/2-z
1/2-y,1/2-x,1/2+z
1/2+y,1/2+x,1/2+z
loop_
_atom_site_type_symbol
_atom_site_label
_atom_site_fract_x
_atom_site_fract_y
_atom_site_fract_z
Si Si1 0.556643 0.687641 0.910818
Si Si2 0.911887 0.779463 0.961926
Si Si3 0.217297 0.913678 0.275464
Si Si4 0.205882 0.338734 0.039615
O O1 0.624707 0.624707 0.880330
O O2 0.505903 0.704430 0.808111
O O3 0.500000 0.650652 0.000000
O O4 0.593795 0.770771 0.955248
O O5 0.856501 0.856501 0.984563
O O6 0.881854 0.699087 0.020828
O O7 0.910850 0.756540 0.842045
O O8 0.000000 0.801976 0.000000
O O9 0.134891 0.865110 0.294833
O O10 0.287848 0.874616 0.345185
O O11 0.267459 0.267459 0.022744
#
# Coordination Sequence:
#
# PCOD8311593 Si02
#       4
#    16  16  16  16
#     4   9  16  27  47  74 100 127 160 201 246 285
#     4  10  21  35  50  71  99 129 161 197 240 292
#     4   9  18  31  48  73 102 129 160 199 239 284
#     4   8  16  32  51  70  94 126 167 209 240 273
#
# _framework density 17.697343
#
# number of rings (size 3 to 8) (size 9 to 14) (size 15 to 20)
#    0.000    3.000    0.000    2.250    0.000    5.000 
#    0.000    7.500    0.000    6.750    0.000   10.500 
#    0.000    0.000    0.000    0.000    0.000    0.000 
#
# Total GULP energy -396650.387327 kJ/mol
# GULP energy per Si atom -12395.324604 kJ/mol
# Density = 1.765706 g / cm^3
# Si number density = 17.697343 Si / 1000 Ang^3
#
#
#
# Elastic Constant Matrix: (Units=GPa)
#
#
# Indices 1 2 3 4 5 6 
#
# 1 77.1221 58.7442 48.7118 0.0000 0.0000 0.0000
# 2 58.7442 77.1219 48.7121 0.0000 0.0000 0.0000
# 3 48.7118 48.7121 96.5502 0.0000 0.0000 0.0000
# 4 0.0000 0.0000 0.0000 23.6770 0.0000 0.0000
# 5 0.0000 0.0000 0.0000 0.0000 23.6774 0.0000
# 6 0.0000 0.0000 0.0000 0.0000 0.0000 19.5979
#
#
#
# Elastic Compliance Matrix: (Units=1/GPa)
#
#
# Indices 1 2 3 4 5 6 
#
# 1 0.032973 -0.021441 -0.005818 0.000000 0.000000 0.000000
# 2 -0.021441 0.032973 -0.005818 0.000000 0.000000 0.000000
# 3 -0.005818 -0.005818 0.016228 0.000000 0.000000 0.000000
# 4 0.000000 0.000000 0.000000 0.042235 0.000000 0.000000
# 5 0.000000 0.000000 0.000000 0.000000 0.042234 0.000000
# 6 0.000000 0.000000 0.000000 0.000000 0.000000 0.051026
#
#
# Mechanical properties :
#
#
# Convention : Reuss Voigt Hill
#
# Bulk Modulus (GPa) = 62.42376 62.57004 62.49690
# Shear Modulus (GPa) = 17.29124 19.69885 18.49505
#
# Velocity S-wave (km/s) = 3.12918 3.33993 3.23627
# Velocity P-wave (km/s) = 6.95738 7.09266 7.02535
#
# Compressibility (1/GPa) = 0.01601954
#
# Stress axis : x y z
#
# Youngs Moduli (GPa) = 30.32814 30.32783 61.62092
#
# Poissons Ratio (x) = 0.65025 0.35852
# Poissons Ratio (y) = 0.65025 0.35854
# Poissons Ratio (z) = 0.17645 0.17646
#
# Static dielectric constant tensor:
#      x y z
#    x 3.297050 0.000000 0.000000 
#    y 0.000000 3.297050 0.000000 
#    z 0.000000 0.000000 3.260240 
# 
# 
# High freq. dielectric constant tensor:
#      x y z
#    x 1.664750 0.000000 0.000000 
#    y 0.000000 1.664750 0.000000 
#    z 0.000000 0.000000 1.682130 
# 
# From -- ./inp_files/2889.got.cif
#   From: 2010.03.12/outbox.cif.g09.slc.cpg/sg121_2_cif.got.tgz:2889.got - 2010.04.06 16:06:48.
