data_PCOD8311450
_publ_section_title
;
Structure prediction by ZEFSAII (Michael W. Deem and Ramdas Pophale) SiO2 
 PCOD8311450
Probable space group: I -4 2 M
;
_chemical_formula_sum "Si O2"
_cell_formula_units_Z 96
_cell_length_a 15.849574
_cell_length_b 15.849574
_cell_length_c 21.815535
_cell_angle_alpha 90.000000
_cell_angle_beta 90.000000
_cell_angle_gamma 90.000000
_cell_volume 5480.258644
_symmetry_space_group_name_H-M "I -4 2 M"
_symmetry_group_IT_number 121
_symmetry_cell_setting 'tetragonal'
loop_
_space_group_symop_operation_xyz
x,y,z
y,-x,-z
-x,-y,z
-y,x,-z
x,-y,-z
-x,y,-z
-y,-x,z
y,x,z
1/2+x,1/2+y,1/2+z
1/2+y,1/2-x,1/2-z
1/2-x,1/2-y,1/2+z
1/2-y,1/2+x,1/2-z
1/2+x,1/2-y,1/2-z
1/2-x,1/2+y,1/2-z
1/2-y,1/2-x,1/2+z
1/2+y,1/2+x,1/2+z
loop_
_atom_site_type_symbol
_atom_site_label
_atom_site_fract_x
_atom_site_fract_y
_atom_site_fract_z
Si Si1 0.252500 0.611471 0.162586
Si Si2 0.563764 0.305950 0.809176
Si Si3 0.091713 0.772679 0.526916
Si Si4 0.416648 0.951600 0.847341
Si Si5 0.845497 0.586423 0.269449
Si Si6 0.205845 0.338800 0.091455
O O1 0.300553 0.699448 0.165224
O O2 0.311993 0.537021 0.188147
O O3 0.224899 0.590071 0.092598
O O4 0.174397 0.616592 0.208266
O O5 0.600103 0.399898 0.801151
O O6 0.596617 0.250977 0.751515
O O7 0.596505 0.265517 0.872469
O O8 0.136518 0.863483 0.535412
O O9 0.144455 0.713728 0.480876
O O10 0.000000 0.789543 0.500000
O O11 0.449524 0.897367 0.789257
O O12 0.360678 0.891563 0.891927
O O13 0.500000 0.000000 0.875752
O O14 0.349871 0.021080 0.825236
O O15 0.242548 0.242548 0.105114
#
# Coordination Sequence:
#
# PCOD8311450 Si02
#       6
#    16  16  16  16  16  16
#     4  11  22  34  52  74 100 136 176 212 256 316
#     4  10  19  32  50  71  99 131 168 211 250 302
#     4  10  20  34  50  69  99 135 174 215 253 303
#     4  11  18  30  54  76 102 132 169 214 262 314
#     4  11  18  34  49  75 102 131 167 209 266 310
#     4   9  19  34  51  72 102 138 171 208 260 310
#
# _framework density 17.517420999999999
#
# number of rings (size 3 to 8) (size 9 to 14) (size 15 to 20)
#    0.000    1.667    5.000    1.500    0.000    1.167 
#    0.000    2.500    0.000    0.000    0.000    0.000 
#    0.000    0.000    0.000    0.000    0.000   11.333 
#
# Total GULP energy -594800.929462 kJ/mol
# GULP energy per Si atom -12391.686030 kJ/mol
# Density = 1.747755 g / cm^3
# Si number density = 17.517421 Si / 1000 Ang^3
#
#
#
# Elastic Constant Matrix: (Units=GPa)
#
#
# Indices 1 2 3 4 5 6 
#
# 1 68.8208 34.1141 29.7562 0.0000 0.0000 0.0000
# 2 34.1141 68.8161 29.7552 0.0000 0.0000 0.0000
# 3 29.7562 29.7552 65.4905 0.0000 0.0000 0.0000
# 4 0.0000 0.0000 0.0000 19.9031 0.0000 0.0000
# 5 0.0000 0.0000 0.0000 0.0000 19.9038 0.0000
# 6 0.0000 0.0000 0.0000 0.0000 0.0000 28.7442
#
#
#
# Elastic Compliance Matrix: (Units=1/GPa)
#
#
# Indices 1 2 3 4 5 6 
#
# 1 0.020995 -0.007819 -0.005987 0.000000 0.000000 0.000000
# 2 -0.007819 0.020996 -0.005987 0.000000 0.000000 0.000000
# 3 -0.005987 -0.005987 0.020710 0.000000 0.000000 0.000000
# 4 0.000000 0.000000 0.000000 0.050243 0.000000 0.000000
# 5 0.000000 0.000000 0.000000 0.000000 0.050242 0.000000
# 6 0.000000 0.000000 0.000000 0.000000 0.000000 0.034790
#
#
# Mechanical properties :
#
#
# Convention : Reuss Voigt Hill
#
# Bulk Modulus (GPa) = 43.26108 43.37536 43.31822
# Shear Modulus (GPa) = 20.38603 21.01034 20.69818
#
# Velocity S-wave (km/s) = 3.41509 3.46699 3.44114
# Velocity P-wave (km/s) = 6.34824 6.39075 6.36953
#
# Compressibility (1/GPa) = 0.02311546
#
# Stress axis : x y z
#
# Youngs Moduli (GPa) = 47.63063 47.62739 48.28696
#
# Poissons Ratio (x) = 0.37241 0.28907
# Poissons Ratio (y) = 0.37244 0.28908
# Poissons Ratio (z) = 0.28515 0.28514
#
# Static dielectric constant tensor:
#      x y z
#    x 3.213900 0.000000 0.000000 
#    y 0.000000 3.213910 0.000000 
#    z 0.000000 0.000000 3.253750 
# 
# 
# High freq. dielectric constant tensor:
#      x y z
#    x 1.663350 0.000000 0.000000 
#    y 0.000000 1.663350 0.000000 
#    z 0.000000 0.000000 1.661250 
# 
# From -- ./inp_files/6456.got.cif
#   From: 2010.03.12/outbox.cif.g09.slc.cpg/sg121_4_cif.got.tgz:6456.got - 2010.04.06 16:06:48.
