data_PCOD8311708
_publ_section_title
;
Structure prediction by ZEFSAII (Michael W. Deem and Ramdas Pophale) SiO2 
 PCOD8311708
Probable space group: I -4 2 M
;
_chemical_formula_sum "Si O2"
_cell_formula_units_Z 52
_cell_length_a 15.168812
_cell_length_b 15.168812
_cell_length_c 9.288401
_cell_angle_alpha 90.000000
_cell_angle_beta 90.000000
_cell_angle_gamma 90.000000
_cell_volume 2137.194728
_symmetry_space_group_name_H-M "I -4 2 M"
_symmetry_group_IT_number 121
_symmetry_cell_setting 'tetragonal'
loop_
_space_group_symop_operation_xyz
x,y,z
y,-x,-z
-x,-y,z
-y,x,-z
x,-y,-z
-x,y,-z
-y,-x,z
y,x,z
1/2+x,1/2+y,1/2+z
1/2+y,1/2-x,1/2-z
1/2-x,1/2-y,1/2+z
1/2-y,1/2+x,1/2-z
1/2+x,1/2-y,1/2-z
1/2-x,1/2+y,1/2-z
1/2-y,1/2-x,1/2+z
1/2+y,1/2+x,1/2+z
loop_
_atom_site_type_symbol
_atom_site_label
_atom_site_fract_x
_atom_site_fract_y
_atom_site_fract_z
Si Si1 0.260627 0.115805 0.686770
Si Si2 0.142109 0.005375 0.159057
Si Si3 0.000000 0.500000 0.750000
Si Si4 0.120847 0.403300 0.441914
O O1 0.193514 0.193514 0.644845
O O2 0.209608 0.022389 0.713969
O O3 0.333833 0.103012 0.566539
O O4 0.305255 0.139103 0.839495
O O5 0.062287 0.937714 0.155455
O O6 0.103615 0.103615 0.191948
O O7 0.187212 0.000000 0.000000
O O8 0.969092 0.418115 0.650762
O O9 0.149243 0.500000 0.500000
#
# Coordination Sequence:
#
# PCOD8311708 Si02
#       4
#    16  16   4  16
#     4  11  24  42  70 110 149 185 238 304 370 440
#     4   8  15  33  64 103 148 195 238 283 350 438
#     4  12  26  48  78 100 134 180 258 304 354 428
#     4  12  25  44  74 104 138 190 245 301 363 429
#
# _framework density 24.330959
#
# number of rings (size 3 to 8) (size 9 to 14) (size 15 to 20)
#    0.000    1.538    3.077    3.231    0.000    0.000 
#    0.000    1.538    0.000    3.692    0.000    0.000 
#    0.000   12.308    0.000    0.000    0.000    0.000 
#
# Total GULP energy -322199.693529 kJ/mol
# GULP energy per Si atom -12392.295905 kJ/mol
# Density = 2.427558 g / cm^3
# Si number density = 24.330959 Si / 1000 Ang^3
#
#
#
# Elastic Constant Matrix: (Units=GPa)
#
#
# Indices 1 2 3 4 5 6 
#
# 1 131.8741 61.2160 77.1077 0.0000 0.0000 0.0000
# 2 61.2160 131.8739 77.1075 0.0000 0.0000 0.0000
# 3 77.1077 77.1075 156.5700 0.0000 0.0000 0.0000
# 4 0.0000 0.0000 0.0000 41.4684 0.0000 0.0000
# 5 0.0000 0.0000 0.0000 0.0000 41.4695 0.0000
# 6 0.0000 0.0000 0.0000 0.0000 0.0000 27.6337
#
#
#
# Elastic Compliance Matrix: (Units=1/GPa)
#
#
# Indices 1 2 3 4 5 6 
#
# 1 0.011345 -0.002808 -0.004204 0.000000 0.000000 0.000000
# 2 -0.002808 0.011345 -0.004204 0.000000 0.000000 0.000000
# 3 -0.004204 -0.004204 0.010528 0.000000 0.000000 0.000000
# 4 0.000000 0.000000 0.000000 0.024115 0.000000 0.000000
# 5 0.000000 0.000000 0.000000 0.000000 0.024114 0.000000
# 6 0.000000 0.000000 0.000000 0.000000 0.000000 0.036188
#
#
# Mechanical properties :
#
#
# Convention : Reuss Voigt Hill
#
# Bulk Modulus (GPa) = 92.72485 94.57560 93.65022
# Shear Modulus (GPa) = 34.80411 35.77342 35.28877
#
# Velocity S-wave (km/s) = 3.78623 3.83859 3.81250
# Velocity P-wave (km/s) = 7.57011 7.65514 7.61275
#
# Compressibility (1/GPa) = 0.01078460
#
# Stress axis : x y z
#
# Youngs Moduli (GPa) = 88.14717 88.14722 94.98655
#
# Poissons Ratio (x) = 0.24752 0.39934
# Poissons Ratio (y) = 0.24752 0.39933
# Poissons Ratio (z) = 0.37058 0.37058
#
# Static dielectric constant tensor:
#      x y z
#    x 4.589820 0.000000 0.000000 
#    y 0.000000 4.589820 0.000000 
#    z 0.000000 0.000000 4.647730 
# 
# 
# High freq. dielectric constant tensor:
#      x y z
#    x 1.965180 0.000000 0.000000 
#    y 0.000000 1.965180 0.000000 
#    z 0.000000 0.000000 1.961900 
# 
# From -- ./inp_files/1250.got.cif
#   From: 2010.03.12/outbox.cif.g09.slc.cpg/sg121_1_cif.got.tgz:1250.got - 2010.04.06 16:06:48.
