data_PCOD8311554
_publ_section_title
;
Structure prediction by ZEFSAII (Michael W. Deem and Ramdas Pophale) SiO2 
 PCOD8311554
Probable space group: I -4 2 M
;
_chemical_formula_sum "Si O2"
_cell_formula_units_Z 120
_cell_length_a 21.218920
_cell_length_b 21.218920
_cell_length_c 14.510557
_cell_angle_alpha 90.000000
_cell_angle_beta 90.000000
_cell_angle_gamma 90.000000
_cell_volume 6533.270417
_symmetry_space_group_name_H-M "I -4 2 M"
_symmetry_group_IT_number 121
_symmetry_cell_setting 'tetragonal'
loop_
_space_group_symop_operation_xyz
x,y,z
y,-x,-z
-x,-y,z
-y,x,-z
x,-y,-z
-x,y,-z
-y,-x,z
y,x,z
1/2+x,1/2+y,1/2+z
1/2+y,1/2-x,1/2-z
1/2-x,1/2-y,1/2+z
1/2-y,1/2+x,1/2-z
1/2+x,1/2-y,1/2-z
1/2-x,1/2+y,1/2-z
1/2-y,1/2-x,1/2+z
1/2+y,1/2+x,1/2+z
loop_
_atom_site_type_symbol
_atom_site_label
_atom_site_fract_x
_atom_site_fract_y
_atom_site_fract_z
Si Si1 0.011105 0.802112 0.321680
Si Si2 0.500000 0.393632 0.000000
Si Si3 0.929282 0.174833 0.000126
Si Si4 0.329093 0.022504 0.400264
Si Si5 0.358834 0.836918 0.206770
Si Si6 0.453431 0.076475 0.214420
Si Si7 0.708200 0.395206 0.300784
Si Si8 0.117810 0.220787 0.819558
O O1 0.010585 0.848528 0.410737
O O2 0.002232 0.728465 0.340274
O O3 0.077625 0.802942 0.268406
O O4 0.954016 0.821721 0.254768
O O5 0.438087 0.438087 0.987130
O O6 0.886589 0.113412 0.009819
O O7 0.912321 0.213560 0.908234
O O8 0.923397 0.222379 0.087017
O O9 0.000000 0.149168 0.000000
O O10 0.395708 0.990946 0.372769
O O11 0.311301 0.000000 0.500000
O O12 0.334083 0.098455 0.386732
O O13 0.375880 0.898238 0.264710
O O14 0.373299 0.776586 0.268490
O O15 0.285789 0.844254 0.187263
O O16 0.505294 0.073155 0.299091
O O17 0.662658 0.337342 0.282185
O O18 0.170915 0.170915 0.836161
#
# Coordination Sequence:
#
# PCOD8311554 Si02
#       8
#    16   8  16  16  16  16  16  16
#     4  11  20  38  63  83 115 159 199 248 304 363
#     4  11  24  40  58  88 124 157 204 258 310 373
#     4  10  21  38  60  87 119 153 199 250 298 359
#     4  10  20  36  58  84 112 149 199 242 289 353
#     4  10  21  36  59  83 118 157 190 242 296 352
#     4   9  18  34  54  78 110 147 188 234 287 339
#     4  10  21  38  61  87 118 156 199 246 300 361
#     4  11  22  38  59  87 121 157 199 247 303 359
#
# _framework density 18.367524
#
# number of rings (size 3 to 8) (size 9 to 14) (size 15 to 20)
#    0.000    1.800    3.333    1.200    0.000    1.200 
#    0.000    5.333    0.000    0.000    0.000    0.000 
#    0.000    0.000    0.000    0.000    0.000    0.000 
#
# Total GULP energy -743414.984740 kJ/mol
# GULP energy per Si atom -12390.249746 kJ/mol
# Density = 1.832572 g / cm^3
# Si number density = 18.367524 Si / 1000 Ang^3
#
#
#
# Elastic Constant Matrix: (Units=GPa)
#
#
# Indices 1 2 3 4 5 6 
#
# 1 85.2366 25.2000 41.4394 0.0000 0.0000 0.0000
# 2 25.2000 85.2388 41.4380 0.0000 0.0000 0.0000
# 3 41.4394 41.4380 101.4947 0.0000 0.0000 0.0000
# 4 0.0000 0.0000 0.0000 24.6890 0.0000 0.0000
# 5 0.0000 0.0000 0.0000 0.0000 24.6885 0.0000
# 6 0.0000 0.0000 0.0000 0.0000 0.0000 22.1121
#
#
#
# Elastic Compliance Matrix: (Units=1/GPa)
#
#
# Indices 1 2 3 4 5 6 
#
# 1 0.014856 -0.001801 -0.005330 0.000000 0.000000 0.000000
# 2 -0.001801 0.014855 -0.005330 0.000000 0.000000 0.000000
# 3 -0.005330 -0.005330 0.014205 0.000000 0.000000 0.000000
# 4 0.000000 0.000000 0.000000 0.040504 0.000000 0.000000
# 5 0.000000 0.000000 0.000000 0.000000 0.040505 0.000000
# 6 0.000000 0.000000 0.000000 0.000000 0.000000 0.045224
#
#
# Mechanical properties :
#
#
# Convention : Reuss Voigt Hill
#
# Bulk Modulus (GPa) = 52.64704 54.23609 53.44157
# Shear Modulus (GPa) = 24.82598 25.22410 25.02504
#
# Velocity S-wave (km/s) = 3.68043 3.70983 3.69516
# Velocity P-wave (km/s) = 6.84004 6.92407 6.88218
#
# Compressibility (1/GPa) = 0.01899442
#
# Stress axis : x y z
#
# Youngs Moduli (GPa) = 67.31351 67.31684 70.39729
#
# Poissons Ratio (x) = 0.12122 0.37524
# Poissons Ratio (y) = 0.12121 0.37520
# Poissons Ratio (z) = 0.35880 0.35879
#
# Static dielectric constant tensor:
#      x y z
#    x 3.507320 0.000000 0.000000 
#    y 0.000000 3.507310 0.000000 
#    z 0.000000 0.000000 3.475670 
# 
# 
# High freq. dielectric constant tensor:
#      x y z
#    x 1.723510 0.000000 0.000000 
#    y 0.000000 1.723510 0.000000 
#    z 0.000000 0.000000 1.697730 
# 
# From -- ./inp_files/4614.got.cif
#   From: 2010.03.12/outbox.cif.g09.slc.cpg/sg121_3_cif.got.tgz:4614.got - 2010.04.06 16:06:48.
