data_PCOD8311960
_publ_section_title
;
Structure prediction by ZEFSAII (Michael W. Deem and Ramdas Pophale) SiO2 
 PCOD8311960
Probable space group: I -4 2 D
;
_chemical_formula_sum "Si O2"
_cell_formula_units_Z 40
_cell_length_a 13.816793
_cell_length_b 13.816793
_cell_length_c 7.918097
_cell_angle_alpha 90.000000
_cell_angle_beta 90.000000
_cell_angle_gamma 90.000000
_cell_volume 1511.594559
_symmetry_space_group_name_H-M "I -4 2 D"
_symmetry_group_IT_number 122
_symmetry_cell_setting 'tetragonal'
loop_
_space_group_symop_operation_xyz
x,y,z
y,-x,-z
-x,-y,z
-y,x,-z
x,1/2-y,1/4-z
-x,1/2+y,1/4-z
-y,1/2-x,1/4+z
y,1/2+x,1/4+z
1/2+x,1/2+y,1/2+z
1/2+y,1/2-x,1/2-z
1/2-x,1/2-y,1/2+z
1/2-y,1/2+x,1/2-z
1/2+x,-y,3/4-z
1/2-x,y,3/4-z
1/2-y,-x,3/4+z
1/2+y,x,3/4+z
loop_
_atom_site_type_symbol
_atom_site_label
_atom_site_fract_x
_atom_site_fract_y
_atom_site_fract_z
Si Si1 0.644673 0.354050 0.178312
Si Si2 0.500000 0.500000 0.225189
Si Si3 0.637495 0.144024 0.672211
O O1 0.603312 0.250000 0.125000
O O2 0.573638 0.437932 0.106489
O O3 0.639767 0.368266 0.378466
O O4 0.752451 0.365916 0.102795
O O5 0.439906 0.426005 0.342354
O O6 0.595349 0.250000 0.625000
#
# Coordination Sequence:
#
# PCOD8311960 Si02
#       3
#    16   8  16
#     4  10  23  45  67 103 137 176 234 293 339 404
#     4  12  25  44  77 100 137 196 235 272 357 428
#     4  10  23  44  72  97 137 183 232 283 344 420
#
# _framework density 26.462125
#
# number of rings (size 3 to 8) (size 9 to 14) (size 15 to 20)
#    0.000    1.600    0.000    3.600   11.200    0.000 
#   14.400    2.000    0.000    0.000    0.000    0.000 
#    0.000    0.000    0.000    0.000    0.000    0.000 
#
# Total GULP energy -248011.470466 kJ/mol
# GULP energy per Si atom -12400.573523 kJ/mol
# Density = 2.640190 g / cm^3
# Si number density = 26.462125 Si / 1000 Ang^3
#
#
#
# Elastic Constant Matrix: (Units=GPa)
#
#
# Indices 1 2 3 4 5 6 
#
# 1 181.3370 102.1127 13.1774 0.0000 0.0000 0.0000
# 2 102.1127 181.3370 13.1774 0.0000 0.0000 0.0000
# 3 13.1774 13.1774 26.2234 0.0000 0.0000 0.0000
# 4 0.0000 0.0000 0.0000 30.8916 0.0000 0.0000
# 5 0.0000 0.0000 0.0000 0.0000 30.8916 0.0000
# 6 0.0000 0.0000 0.0000 0.0000 0.0000 67.5135
#
#
#
# Elastic Compliance Matrix: (Units=1/GPa)
#
#
# Indices 1 2 3 4 5 6 
#
# 1 0.008162 -0.004461 -0.001860 0.000000 0.000000 0.000000
# 2 -0.004461 0.008162 -0.001860 0.000000 0.000000 0.000000
# 3 -0.001860 -0.001860 0.040003 0.000000 0.000000 0.000000
# 4 0.000000 0.000000 0.000000 0.032371 0.000000 0.000000
# 5 0.000000 0.000000 0.000000 0.000000 0.032371 0.000000
# 6 0.000000 0.000000 0.000000 0.000000 0.000000 0.014812
#
#
# Mechanical properties :
#
#
# Convention : Reuss Voigt Hill
#
# Bulk Modulus (GPa) = 25.02140 71.75915 48.39028
# Shear Modulus (GPa) = 30.20005 43.22136 36.71070
#
# Velocity S-wave (km/s) = 3.38191 4.04583 3.72868
# Velocity P-wave (km/s) = 4.97251 7.00011 6.07155
#
# Compressibility (1/GPa) = 0.03996578
#
# Stress axis : x y z
#
# Youngs Moduli (GPa) = 122.52459 122.52459 24.99822
#
# Poissons Ratio (x) = 0.54655 0.04649
# Poissons Ratio (y) = 0.54655 0.04649
# Poissons Ratio (z) = 0.22786 0.22786
#
# Static dielectric constant tensor:
#      x y z
#    x 5.593420 0.000000 0.000000 
#    y 0.000000 5.593420 0.000000 
#    z 0.000000 0.000000 4.300360 
# 
# 
# High freq. dielectric constant tensor:
#      x y z
#    x 2.085650 0.000000 0.000000 
#    y 0.000000 2.085650 0.000000 
#    z 0.000000 0.000000 2.038390 
# 
# From -- ./inp_files/1841.got.cif
#   From: 2010.03.12/outbox.cif.g09.slc.cpg/sg122_1_cif.got.tgz:1841.got - 2010.04.06 16:17:16.
