data_PCOD8311727
_publ_section_title
;
Structure prediction by ZEFSAII (Michael W. Deem and Ramdas Pophale) SiO2 
 PCOD8311727
Probable space group: I -4 2 D
;
_chemical_formula_sum "Si O2"
_cell_formula_units_Z 44
_cell_length_a 8.381091
_cell_length_b 8.381091
_cell_length_c 31.656350
_cell_angle_alpha 90.000000
_cell_angle_beta 90.000000
_cell_angle_gamma 90.000000
_cell_volume 2223.627064
_symmetry_space_group_name_H-M "I -4 2 D"
_symmetry_group_IT_number 122
_symmetry_cell_setting 'tetragonal'
loop_
_space_group_symop_operation_xyz
x,y,z
y,-x,-z
-x,-y,z
-y,x,-z
x,1/2-y,1/4-z
-x,1/2+y,1/4-z
-y,1/2-x,1/4+z
y,1/2+x,1/4+z
1/2+x,1/2+y,1/2+z
1/2+y,1/2-x,1/2-z
1/2-x,1/2-y,1/2+z
1/2-y,1/2+x,1/2-z
1/2+x,-y,3/4-z
1/2-x,y,3/4-z
1/2-y,-x,3/4+z
1/2+y,x,3/4+z
loop_
_atom_site_type_symbol
_atom_site_label
_atom_site_fract_x
_atom_site_fract_y
_atom_site_fract_z
Si Si1 0.000000 0.500000 0.250000
Si Si2 0.025391 0.183275 0.400715
Si Si3 0.170670 0.837580 0.071578
Si Si4 0.885127 0.750000 0.125000
O O1 0.853942 0.420818 0.223592
O O2 0.075592 0.198422 0.351226
O O3 0.154393 0.267420 0.431837
O O4 0.859320 0.276464 0.405329
O O5 0.000000 0.000000 0.413347
O O6 0.996840 0.851148 0.093717
#
# Coordination Sequence:
#
# PCOD8311727 Si02
#       4
#     4  16  16   8
#     4  12  20  40  60  92 128 160 216 260 320 384
#     4  10  19  35  62  92 116 154 212 263 303 374
#     4  10  20  35  60  90 115 163 205 249 317 372
#     4  10  16  36  60  86 114 156 208 248 292 392
#
# _framework density 19.787490999999999
#
# number of rings (size 3 to 8) (size 9 to 14) (size 15 to 20)
#    0.000    2.182    3.636    5.455    0.000    0.000 
#    0.000    3.636    0.000    0.000    0.000    0.000 
#    0.000    0.000    0.000    0.000    0.000    0.000 
#
# Total GULP energy -272659.283841 kJ/mol
# GULP energy per Si atom -12393.603811 kJ/mol
# Density = 1.974245 g / cm^3
# Si number density = 19.787491 Si / 1000 Ang^3
#
#
#
# Elastic Constant Matrix: (Units=GPa)
#
#
# Indices 1 2 3 4 5 6 
#
# 1 108.2867 34.7114 18.1715 0.0000 0.0000 0.0000
# 2 34.7114 108.2866 18.1714 0.0000 0.0000 0.0000
# 3 18.1715 18.1714 73.7216 0.0000 0.0000 0.0000
# 4 0.0000 0.0000 0.0000 21.7014 0.0000 0.0000
# 5 0.0000 0.0000 0.0000 0.0000 21.7014 0.0000
# 6 0.0000 0.0000 0.0000 0.0000 0.0000 31.0705
#
#
#
# Elastic Compliance Matrix: (Units=1/GPa)
#
#
# Indices 1 2 3 4 5 6 
#
# 1 0.010526 -0.003066 -0.001839 0.000000 0.000000 0.000000
# 2 -0.003066 0.010526 -0.001839 0.000000 0.000000 0.000000
# 3 -0.001839 -0.001839 0.014471 0.000000 0.000000 0.000000
# 4 0.000000 0.000000 0.000000 0.046080 0.000000 0.000000
# 5 0.000000 0.000000 0.000000 0.000000 0.046080 0.000000
# 6 0.000000 0.000000 0.000000 0.000000 0.000000 0.032185
#
#
# Mechanical properties :
#
#
# Convention : Reuss Voigt Hill
#
# Bulk Modulus (GPa) = 45.37954 48.04483 46.71218
# Shear Modulus (GPa) = 27.67015 29.51069 28.59042
#
# Velocity S-wave (km/s) = 3.74353 3.86603 3.80527
# Velocity P-wave (km/s) = 6.45512 6.65292 6.55477
#
# Compressibility (1/GPa) = 0.02203636
#
# Stress axis : x y z
#
# Youngs Moduli (GPa) = 95.00291 95.00288 69.10336
#
# Poissons Ratio (x) = 0.29123 0.12707
# Poissons Ratio (y) = 0.29123 0.12707
# Poissons Ratio (z) = 0.17470 0.17470
#
# Static dielectric constant tensor:
#      x y z
#    x 3.650640 0.000000 0.000000 
#    y 0.000000 3.650640 0.000000 
#    z 0.000000 0.000000 3.203630 
# 
# 
# High freq. dielectric constant tensor:
#      x y z
#    x 1.780130 0.000000 0.000000 
#    y 0.000000 1.780130 0.000000 
#    z 0.000000 0.000000 1.709050 
# 
# From -- ./inp_files/9037.got.cif
#   From: 2010.03.12/outbox.cif.g09.slc.cpg/sg122_5_cif.got.tgz:9037.got - 2010.04.06 16:17:16.
