data_PCOD8311032
_publ_section_title
;
Structure prediction by ZEFSAII (Michael W. Deem and Ramdas Pophale) SiO2 
 PCOD8311032
Probable space group: I -4 M 2
;
_chemical_formula_sum "Si O2"
_cell_formula_units_Z 72
_cell_length_a 11.677462
_cell_length_b 11.677462
_cell_length_c 26.798168
_cell_angle_alpha 90.000000
_cell_angle_beta 90.000000
_cell_angle_gamma 90.000000
_cell_volume 3654.281766
_symmetry_space_group_name_H-M "I -4 M 2"
_symmetry_group_IT_number 119
_symmetry_cell_setting 'tetragonal'
loop_
_space_group_symop_operation_xyz
x,y,z
y,-x,-z
-x,-y,z
-y,x,-z
y,x,-z
-y,-x,-z
-x,y,z
x,-y,z
1/2+x,1/2+y,1/2+z
1/2+y,1/2-x,1/2-z
1/2-x,1/2-y,1/2+z
1/2-y,1/2+x,1/2-z
1/2+y,1/2+x,1/2-z
1/2-y,1/2-x,1/2-z
1/2-x,1/2+y,1/2+z
1/2+x,1/2-y,1/2+z
loop_
_atom_site_type_symbol
_atom_site_label
_atom_site_fract_x
_atom_site_fract_y
_atom_site_fract_z
Si Si1 0.626449 0.748827 0.630870
Si Si2 0.000000 0.313404 0.388485
Si Si3 0.366419 0.302463 0.267593
Si Si4 0.000000 0.129924 0.309097
Si Si5 0.634248 0.243507 0.456050
Si Si6 0.500000 0.133634 0.999738
O O1 0.500000 0.703994 0.615223
O O2 0.653945 0.704717 0.685578
O O3 0.722956 0.701212 0.593827
O O4 0.620418 0.886523 0.629308
O O5 0.000000 0.190876 0.362211
O O6 0.000000 0.295762 0.448251
O O7 0.500000 0.295824 0.281187
O O8 0.322174 0.177827 0.250000
O O9 0.339416 0.388224 0.222640
O O10 0.000000 0.000000 0.324632
O O11 0.672665 0.327336 0.500000
O O12 0.500000 0.258884 0.447015
O O13 0.665523 0.111998 0.468358
O O14 0.500000 0.000000 0.985017
#
# Coordination Sequence:
#
# PCOD8311032 Si02
#       6
#    16   8  16   8  16   8
#     4  12  24  40  66  97 127 168 213 269 329 386
#     4  12  22  40  66  92 126 171 216 262 331 390
#     4  11  23  42  65  94 131 168 211 265 324 389
#     4  10  22  42  66  92 130 170 207 266 323 386
#     4  11  23  40  63  91 125 165 213 261 324 385
#     4  10  22  44  64  88 128 172 208 273 325 373
#
# _framework density 19.702914
#
# number of rings (size 3 to 8) (size 9 to 14) (size 15 to 20)
#    0.000    0.889    5.556    2.333    0.000    2.667 
#    4.000    0.000    2.444    0.000    0.000    0.000 
#    0.000    0.000    0.000    0.000    0.000    0.000 
#
# Total GULP energy -446475.183204 kJ/mol
# GULP energy per Si atom -12402.088422 kJ/mol
# Density = 1.965807 g / cm^3
# Si number density = 19.702914 Si / 1000 Ang^3
#
#
#
# Elastic Constant Matrix: (Units=GPa)
#
#
# Indices 1 2 3 4 5 6 
#
# 1 127.1999 54.8898 61.2203 0.0000 0.0000 0.0000
# 2 54.8898 127.1998 61.2204 0.0000 0.0000 0.0000
# 3 61.2203 61.2204 112.5528 0.0000 0.0000 0.0000
# 4 0.0000 0.0000 0.0000 38.6419 0.0000 0.0000
# 5 0.0000 0.0000 0.0000 0.0000 38.6413 0.0000
# 6 0.0000 0.0000 0.0000 0.0000 0.0000 27.9765
#
#
#
# Elastic Compliance Matrix: (Units=1/GPa)
#
#
# Indices 1 2 3 4 5 6 
#
# 1 0.011244 -0.002585 -0.004710 0.000000 0.000000 0.000000
# 2 -0.002585 0.011244 -0.004710 0.000000 0.000000 0.000000
# 3 -0.004710 -0.004710 0.014008 0.000000 0.000000 0.000000
# 4 0.000000 0.000000 0.000000 0.025879 0.000000 0.000000
# 5 0.000000 0.000000 0.000000 0.000000 0.025879 0.000000
# 6 0.000000 0.000000 0.000000 0.000000 0.000000 0.035744
#
#
# Mechanical properties :
#
#
# Convention : Reuss Voigt Hill
#
# Bulk Modulus (GPa) = 80.08457 80.17926 80.13191
# Shear Modulus (GPa) = 32.85802 33.69340 33.27571
#
# Velocity S-wave (km/s) = 4.08815 4.13979 4.11405
# Velocity P-wave (km/s) = 7.93840 7.97702 7.95774
#
# Compressibility (1/GPa) = 0.01248680
#
# Stress axis : x y z
#
# Youngs Moduli (GPa) = 88.93635 88.93611 71.38704
#
# Poissons Ratio (x) = 0.22993 0.33621
# Poissons Ratio (y) = 0.22993 0.33621
# Poissons Ratio (z) = 0.41886 0.41886
#
# Static dielectric constant tensor:
#      x y z
#    x 3.666760 0.000000 0.000000 
#    y 0.000000 3.666770 0.000000 
#    z 0.000000 0.000000 3.550850 
# 
# 
# High freq. dielectric constant tensor:
#      x y z
#    x 1.772670 0.000000 0.000000 
#    y 0.000000 1.772670 0.000000 
#    z 0.000000 0.000000 1.770530 
# 
# From -- ./inp_files/9416.got.cif
#   From: 2010.03.12/outbox.cif.g09.slc.cpg/sg119_5_cif.got.tgz:9416.got - 2010.04.14 02:25:26.
