data_PCOD8311493
_publ_section_title
;
Structure prediction by ZEFSAII (Michael W. Deem and Ramdas Pophale) SiO2 
 PCOD8311493
Probable space group: I -4 2 M
;
_chemical_formula_sum "Si O2"
_cell_formula_units_Z 76
_cell_length_a 15.686995
_cell_length_b 15.686995
_cell_length_c 16.820051
_cell_angle_alpha 90.000000
_cell_angle_beta 90.000000
_cell_angle_gamma 90.000000
_cell_volume 4139.108630
_symmetry_space_group_name_H-M "I -4 2 M"
_symmetry_group_IT_number 121
_symmetry_cell_setting 'tetragonal'
loop_
_space_group_symop_operation_xyz
x,y,z
y,-x,-z
-x,-y,z
-y,x,-z
x,-y,-z
-x,y,-z
-y,-x,z
y,x,z
1/2+x,1/2+y,1/2+z
1/2+y,1/2-x,1/2-z
1/2-x,1/2-y,1/2+z
1/2-y,1/2+x,1/2-z
1/2+x,1/2-y,1/2-z
1/2-x,1/2+y,1/2-z
1/2-y,1/2-x,1/2+z
1/2+y,1/2+x,1/2+z
loop_
_atom_site_type_symbol
_atom_site_label
_atom_site_fract_x
_atom_site_fract_y
_atom_site_fract_z
Si Si1 0.591266 0.793156 0.699872
Si Si2 0.284056 0.715944 0.417970
Si Si3 0.599629 0.804571 0.314218
Si Si4 0.000000 0.000000 0.280939
Si Si5 0.377041 0.377041 0.301488
Si Si6 0.132180 0.132180 0.301770
Si Si7 0.739309 0.739309 0.915061
Si Si8 0.597399 0.402602 0.515545
O O1 0.664053 0.785837 0.632813
O O2 0.499633 0.818429 0.660975
O O3 0.618283 0.869765 0.758634
O O4 0.586785 0.704437 0.748361
O O5 0.235721 0.764280 0.489613
O O6 0.351243 0.648758 0.450345
O O7 0.600125 0.715479 0.265629
O O8 0.665776 0.790076 0.387046
O O9 0.945644 0.054357 0.220365
O O10 0.062127 0.062127 0.331112
O O11 0.373586 0.373586 0.397583
O O12 0.171702 0.171702 0.381315
O O13 0.500000 0.380669 0.500000
#
# Coordination Sequence:
#
# PCOD8311493 Si02
#       8
#    16   8  16   4   8   8   8   8
#     4  10  21  33  55  78 111 144 193 221 271 327
#     4  11  20  32  54  83 108 152 177 213 282 355
#     4  10  19  36  50  79 111 147 184 234 266 321
#     4  12  18  28  59  82 107 146 190 232 276 322
#     4  11  19  31  48  79 112 147 173 230 284 322
#     4   9  19  33  49  82 107 144 178 235 274 320
#     4   9  20  34  52  77 122 143 172 227 289 331
#     4  11  21  26  40  76 122 148 171 214 275 344
#
# _framework density 18.361442
#
# number of rings (size 3 to 8) (size 9 to 14) (size 15 to 20)
#    0.000    1.789    4.211    3.789    2.947    0.421 
#    0.000    0.000    0.000    5.053    0.000   10.316 
#    0.000    0.000    0.000    0.000    0.000    0.000 
#
# Total GULP energy -470839.866181 kJ/mol
# GULP energy per Si atom -12390.522794 kJ/mol
# Density = 1.831965 g / cm^3
# Si number density = 18.361442 Si / 1000 Ang^3
#
#
#
# Elastic Constant Matrix: (Units=GPa)
#
#
# Indices 1 2 3 4 5 6 
#
# 1 72.2348 38.5806 29.2264 0.0000 0.0000 0.0000
# 2 38.5806 72.2354 29.2265 0.0000 0.0000 0.0000
# 3 29.2264 29.2265 74.7917 0.0000 0.0000 0.0000
# 4 0.0000 0.0000 0.0000 17.8357 0.0000 0.0000
# 5 0.0000 0.0000 0.0000 0.0000 17.8354 0.0000
# 6 0.0000 0.0000 0.0000 0.0000 0.0000 36.6043
#
#
#
# Elastic Compliance Matrix: (Units=1/GPa)
#
#
# Indices 1 2 3 4 5 6 
#
# 1 0.020540 -0.009173 -0.004442 0.000000 0.000000 0.000000
# 2 -0.009173 0.020540 -0.004442 0.000000 0.000000 0.000000
# 3 -0.004442 -0.004442 0.016842 0.000000 0.000000 0.000000
# 4 0.000000 0.000000 0.000000 0.056067 0.000000 0.000000
# 5 0.000000 0.000000 0.000000 0.000000 0.056068 0.000000
# 6 0.000000 0.000000 0.000000 0.000000 0.000000 0.027319
#
#
# Mechanical properties :
#
#
# Convention : Reuss Voigt Hill
#
# Bulk Modulus (GPa) = 45.85388 45.92544 45.88966
# Shear Modulus (GPa) = 20.76744 22.60362 21.68553
#
# Velocity S-wave (km/s) = 3.36674 3.51242 3.44035
# Velocity P-wave (km/s) = 6.33564 6.44326 6.38968
#
# Compressibility (1/GPa) = 0.02180841
#
# Stress axis : x y z
#
# Youngs Moduli (GPa) = 48.68440 48.68489 59.37538
#
# Poissons Ratio (x) = 0.44660 0.26374
# Poissons Ratio (y) = 0.44660 0.26374
# Poissons Ratio (z) = 0.21625 0.21625
#
# Static dielectric constant tensor:
#      x y z
#    x 3.436700 0.000000 0.000000 
#    y 0.000000 3.436690 0.000000 
#    z 0.000000 0.000000 3.052570 
# 
# 
# High freq. dielectric constant tensor:
#      x y z
#    x 1.710800 0.000000 0.000000 
#    y 0.000000 1.710800 0.000000 
#    z 0.000000 0.000000 1.667880 
# 
# From -- ./inp_files/4343.got.cif
#   From: 2010.03.12/outbox.cif.g09.slc.cpg/sg121_3_cif.got.tgz:4343.got - 2010.04.06 16:06:48.
