data_PCOD8311013
_publ_section_title
;
Structure prediction by ZEFSAII (Michael W. Deem and Ramdas Pophale) SiO2 
 PCOD8311013
Probable space group: I -4 M 2
;
_chemical_formula_sum "Si O2"
_cell_formula_units_Z 112
_cell_length_a 13.997727
_cell_length_b 13.997727
_cell_length_c 26.520342
_cell_angle_alpha 90.000000
_cell_angle_beta 90.000000
_cell_angle_gamma 90.000000
_cell_volume 5196.299308
_symmetry_space_group_name_H-M "I -4 M 2"
_symmetry_group_IT_number 119
_symmetry_cell_setting 'tetragonal'
loop_
_space_group_symop_operation_xyz
x,y,z
y,-x,-z
-x,-y,z
-y,x,-z
y,x,-z
-y,-x,-z
-x,y,z
x,-y,z
1/2+x,1/2+y,1/2+z
1/2+y,1/2-x,1/2-z
1/2-x,1/2-y,1/2+z
1/2-y,1/2+x,1/2-z
1/2+y,1/2+x,1/2-z
1/2-y,1/2-x,1/2-z
1/2-x,1/2+y,1/2+z
1/2+x,1/2-y,1/2+z
loop_
_atom_site_type_symbol
_atom_site_label
_atom_site_fract_x
_atom_site_fract_y
_atom_site_fract_z
Si Si1 0.296414 0.395275 0.062887
Si Si2 0.887225 0.893841 0.055549
Si Si3 0.892207 0.108519 0.764830
Si Si4 0.793202 0.797865 0.146422
Si Si5 0.713291 0.890588 0.416187
Si Si6 0.388450 0.103909 0.986632
Si Si7 0.396554 0.749997 0.825141
O O1 0.317309 0.500000 0.037650
O O2 0.372289 0.311090 0.050228
O O3 0.306748 0.407203 0.122810
O O4 0.190066 0.355029 0.049769
O O5 0.851564 0.818070 0.095958
O O6 0.000000 0.900352 0.056951
O O7 0.845007 0.000000 0.066236
O O8 0.855769 0.855769 0.000000
O O9 0.874267 0.181745 0.810773
O O10 0.824459 0.131118 0.718173
O O11 0.000000 0.124014 0.746200
O O12 0.876947 0.000000 0.784511
O O13 0.680001 0.797157 0.131959
O O14 0.822808 0.692921 0.168934
O O15 0.627113 0.868313 0.454589
O O16 0.711432 0.000000 0.397147
O O17 0.500000 0.093409 0.977699
O O18 0.339737 0.000000 0.974107
O O19 0.500000 0.800401 0.813348
#
# Coordination Sequence:
#
# PCOD8311013 Si02
#       7
#    16  16  16  16  16  16  16
#     4   9  18  35  60  86 111 146 198 254 300 345
#     4   9  19  37  62  94 129 159 192 243 304 359
#     4  10  21  39  65  92 114 142 190 254 317 368
#     4  11  21  35  59  89 118 155 198 244 296 354
#     4  10  22  37  53  82 124 164 201 240 289 353
#     4   9  18  34  55  79 113 157 198 234 278 343
#     4   9  20  37  54  77 111 148 190 241 292 343
#
# _framework density 21.553799999999999
#
# number of rings (size 3 to 8) (size 9 to 14) (size 15 to 20)
#    0.000    2.429    0.000    2.143    0.000    7.143 
#    0.000   11.429    0.000    6.857    0.000    6.000 
#    0.000    1.143    0.000    0.000    0.000    0.000 
#
# Total GULP energy -693764.800237 kJ/mol
# GULP energy per Si atom -12388.657147 kJ/mol
# Density = 2.150474 g / cm^3
# Si number density = 21.553800 Si / 1000 Ang^3
#
#
#
# Elastic Constant Matrix: (Units=GPa)
#
#
# Indices 1 2 3 4 5 6 
#
# 1 84.6226 39.2349 53.4546 0.0000 0.0000 0.0000
# 2 39.2349 84.6226 53.4546 0.0000 0.0000 0.0000
# 3 53.4546 53.4546 101.7077 0.0000 0.0000 0.0000
# 4 0.0000 0.0000 0.0000 30.3165 0.0000 0.0000
# 5 0.0000 0.0000 0.0000 0.0000 30.3165 0.0000
# 6 0.0000 0.0000 0.0000 0.0000 0.0000 28.9307
#
#
#
# Elastic Compliance Matrix: (Units=1/GPa)
#
#
# Indices 1 2 3 4 5 6 
#
# 1 0.018405 -0.003627 -0.007767 0.000000 0.000000 0.000000
# 2 -0.003627 0.018405 -0.007767 0.000000 0.000000 0.000000
# 3 -0.007767 -0.007767 0.017996 0.000000 0.000000 0.000000
# 4 0.000000 0.000000 0.000000 0.032985 0.000000 0.000000
# 5 0.000000 0.000000 0.000000 0.000000 0.032985 0.000000
# 6 0.000000 0.000000 0.000000 0.000000 0.000000 0.034565
#
#
# Mechanical properties :
#
#
# Convention : Reuss Voigt Hill
#
# Bulk Modulus (GPa) = 60.66284 62.58233 61.62259
# Shear Modulus (GPa) = 25.10560 26.23333 25.66947
#
# Velocity S-wave (km/s) = 3.41660 3.49249 3.45476
# Velocity P-wave (km/s) = 6.61590 6.73512 6.67578
#
# Compressibility (1/GPa) = 0.01648456
#
# Stress axis : x y z
#
# Youngs Moduli (GPa) = 54.33281 54.33281 55.56769
#
# Poissons Ratio (x) = 0.19708 0.43158
# Poissons Ratio (y) = 0.19708 0.43158
# Poissons Ratio (z) = 0.42199 0.42199
#
# Static dielectric constant tensor:
#      x y z
#    x 4.183650 0.000000 0.000000 
#    y 0.000000 4.183650 0.000000 
#    z 0.000000 0.000000 3.804570 
# 
# 
# High freq. dielectric constant tensor:
#      x y z
#    x 1.838920 0.000000 0.000000 
#    y 0.000000 1.838920 0.000000 
#    z 0.000000 0.000000 1.837470 
# 
# From -- ./inp_files/8809.got.cif
#   From: 2010.03.12/outbox.cif.g09.slc.cpg/sg119_5_cif.got.tgz:8809.got - 2010.04.14 02:25:26.
