data_PCOD8311919
_publ_section_title
;
Structure prediction by ZEFSAII (Michael W. Deem and Ramdas Pophale) SiO2 
 PCOD8311919
Probable space group: I -4 2 D
;
_chemical_formula_sum "Si O2"
_cell_formula_units_Z 64
_cell_length_a 11.027245
_cell_length_b 11.027245
_cell_length_c 21.875595
_cell_angle_alpha 90.000000
_cell_angle_beta 90.000000
_cell_angle_gamma 90.000000
_cell_volume 2660.075246
_symmetry_space_group_name_H-M "I -4 2 D"
_symmetry_group_IT_number 122
_symmetry_cell_setting 'tetragonal'
loop_
_space_group_symop_operation_xyz
x,y,z
y,-x,-z
-x,-y,z
-y,x,-z
x,1/2-y,1/4-z
-x,1/2+y,1/4-z
-y,1/2-x,1/4+z
y,1/2+x,1/4+z
1/2+x,1/2+y,1/2+z
1/2+y,1/2-x,1/2-z
1/2-x,1/2-y,1/2+z
1/2-y,1/2+x,1/2-z
1/2+x,-y,3/4-z
1/2-x,y,3/4-z
1/2-y,-x,3/4+z
1/2+y,x,3/4+z
loop_
_atom_site_type_symbol
_atom_site_label
_atom_site_fract_x
_atom_site_fract_y
_atom_site_fract_z
Si Si1 0.000000 0.000000 0.500000
Si Si2 0.150482 0.624305 0.150918
Si Si3 0.835465 0.634495 0.978487
Si Si4 0.000000 0.000000 0.807413
Si Si5 0.500000 0.500000 0.500000
Si Si6 0.381167 0.285377 0.056113
O O1 0.081501 0.074846 0.547797
O O2 0.102267 0.750000 0.125000
O O3 0.294941 0.628311 0.165974
O O4 0.119677 0.526222 0.098565
O O5 0.076902 0.595334 0.211653
O O6 0.737128 0.723391 0.011929
O O7 0.958217 0.616716 0.017835
O O8 0.794418 0.496581 0.964335
O O9 0.343480 0.250000 0.125000
#
# Coordination Sequence:
#
# PCOD8311919 Si02
#       6
#     4  16  16   8   4  16
#     4   8  20  42  60  94 132 162 228 280 340 418
#     4  11  23  43  65  93 133 175 222 285 342 407
#     4  11  24  43  66  99 132 173 233 281 342 421
#     4  11  26  42  66  96 132 180 224 277 346 416
#     4  10  24  40  64  94 128 176 228 278 348 430
#     4  10  22  40  67  95 129 175 220 286 347 405
#
# _framework density 24.059470000000001
#
# number of rings (size 3 to 8) (size 9 to 14) (size 15 to 20)
#    0.000    1.500    0.000    3.750    0.000   12.000 
#    0.000    0.000    0.000    0.000    0.000    0.000 
#    0.000    0.000    0.000    0.000    0.000    0.000 
#
# Total GULP energy -396553.700124 kJ/mol
# GULP energy per Si atom -12392.303129 kJ/mol
# Density = 2.400471 g / cm^3
# Si number density = 24.059470 Si / 1000 Ang^3
#
#
#
# Elastic Constant Matrix: (Units=GPa)
#
#
# Indices 1 2 3 4 5 6 
#
# 1 103.7884 37.0692 35.8544 0.0000 0.0000 0.0000
# 2 37.0692 103.7884 35.8544 0.0000 0.0000 0.0000
# 3 35.8544 35.8544 79.6729 0.0000 0.0000 0.0000
# 4 0.0000 0.0000 0.0000 29.4358 0.0000 0.0000
# 5 0.0000 0.0000 0.0000 0.0000 29.4358 0.0000
# 6 0.0000 0.0000 0.0000 0.0000 0.0000 40.0869
#
#
#
# Elastic Compliance Matrix: (Units=1/GPa)
#
#
# Indices 1 2 3 4 5 6 
#
# 1 0.012099 -0.002890 -0.004144 0.000000 0.000000 0.000000
# 2 -0.002890 0.012099 -0.004144 0.000000 0.000000 0.000000
# 3 -0.004144 -0.004144 0.016281 0.000000 0.000000 0.000000
# 4 0.000000 0.000000 0.000000 0.033972 0.000000 0.000000
# 5 0.000000 0.000000 0.000000 0.000000 0.033972 0.000000
# 6 0.000000 0.000000 0.000000 0.000000 0.000000 0.024946
#
#
# Mechanical properties :
#
#
# Convention : Reuss Voigt Hill
#
# Bulk Modulus (GPa) = 55.18011 56.08953 55.63482
# Shear Modulus (GPa) = 30.90883 31.68983 31.29933
#
# Velocity S-wave (km/s) = 3.58814 3.63319 3.61073
# Velocity P-wave (km/s) = 6.33648 6.40028 6.36846
#
# Compressibility (1/GPa) = 0.01812247
#
# Stress axis : x y z
#
# Youngs Moduli (GPa) = 82.65359 82.65359 61.41988
#
# Poissons Ratio (x) = 0.23883 0.25454
# Poissons Ratio (y) = 0.23883 0.25454
# Poissons Ratio (z) = 0.34254 0.34254
#
# Static dielectric constant tensor:
#      x y z
#    x 4.265550 0.000000 0.000000 
#    y 0.000000 4.265550 0.000000 
#    z 0.000000 0.000000 4.377930 
# 
# 
# High freq. dielectric constant tensor:
#      x y z
#    x 1.951340 0.000000 0.000000 
#    y 0.000000 1.951340 0.000000 
#    z 0.000000 0.000000 1.956470 
# 
# From -- ./inp_files/7928.got.cif
#   From: 2010.03.12/outbox.cif.g09.slc.cpg/sg122_4_cif.got.tgz:7928.got - 2010.04.06 16:17:16.
