data_PCOD8311790
_publ_section_title
;
Structure prediction by ZEFSAII (Michael W. Deem and Ramdas Pophale) SiO2 
 PCOD8311790
Probable space group: I -4 2 D
;
_chemical_formula_sum "Si O2"
_cell_formula_units_Z 80
_cell_length_a 31.156494
_cell_length_b 31.156494
_cell_length_c 5.154823
_cell_angle_alpha 90.000000
_cell_angle_beta 90.000000
_cell_angle_gamma 90.000000
_cell_volume 5003.926477
_symmetry_space_group_name_H-M "I -4 2 D"
_symmetry_group_IT_number 122
_symmetry_cell_setting 'tetragonal'
loop_
_space_group_symop_operation_xyz
x,y,z
y,-x,-z
-x,-y,z
-y,x,-z
x,1/2-y,1/4-z
-x,1/2+y,1/4-z
-y,1/2-x,1/4+z
y,1/2+x,1/4+z
1/2+x,1/2+y,1/2+z
1/2+y,1/2-x,1/2-z
1/2-x,1/2-y,1/2+z
1/2-y,1/2+x,1/2-z
1/2+x,-y,3/4-z
1/2-x,y,3/4-z
1/2-y,-x,3/4+z
1/2+y,x,3/4+z
loop_
_atom_site_type_symbol
_atom_site_label
_atom_site_fract_x
_atom_site_fract_y
_atom_site_fract_z
Si Si1 0.087447 0.300900 0.131708
Si Si2 0.222544 0.146455 0.608662
Si Si3 0.800990 0.138293 0.375987
Si Si4 0.009592 0.698629 0.147659
Si Si5 0.798198 0.553726 0.844478
O O1 0.086096 0.250000 0.125000
O O2 0.111645 0.318074 0.382896
O O3 0.039091 0.318367 0.159219
O O4 0.113080 0.317839 0.879783
O O5 0.250000 0.167420 0.375000
O O6 0.185317 0.179899 0.663880
O O7 0.202151 0.103752 0.480367
O O8 0.250000 0.137426 0.875000
O O9 0.750000 0.143079 0.375000
O O10 0.012278 0.750000 0.125000
O O11 0.039544 0.680263 0.382434
O O12 0.028844 0.677951 0.886414
O O13 0.750000 0.536236 0.875000
#
# Coordination Sequence:
#
# PCOD8311790 Si02
#       5
#    16  16  16  16  16
#     4   9  17  29  44  62  80 102 135 178 223 265
#     4  11  21  32  44  59  83 116 154 190 217 244
#     4  10  20  32  44  59  82 113 153 191 218 246
#     4   9  15  25  43  62  80  98 124 167 219 270
#     4   9  16  26  40  60  80 101 131 169 212 260
#
# _framework density 15.987444
#
# number of rings (size 3 to 8) (size 9 to 14) (size 15 to 20)
#    0.000    2.400    0.000    5.400    0.000    5.600 
#    0.000    0.000    0.000    0.000    0.000    0.000 
#    0.000    0.000    0.000    0.000    0.000   70.000 
#
# Total GULP energy -495539.427764 kJ/mol
# GULP energy per Si atom -12388.485694 kJ/mol
# Density = 1.595106 g / cm^3
# Si number density = 15.987444 Si / 1000 Ang^3
#
#
#
# Elastic Constant Matrix: (Units=GPa)
#
#
# Indices 1 2 3 4 5 6 
#
# 1 45.4261 22.5635 34.2505 0.0000 0.0000 0.0000
# 2 22.5635 45.4261 34.2505 0.0000 0.0000 0.0000
# 3 34.2505 34.2505 148.1019 0.0000 0.0000 0.0000
# 4 0.0000 0.0000 0.0000 19.9815 0.0000 0.0000
# 5 0.0000 0.0000 0.0000 0.0000 19.9815 0.0000
# 6 0.0000 0.0000 0.0000 0.0000 0.0000 -0.0473
#
#
#
# Elastic Compliance Matrix: (Units=1/GPa)
#
#
# Indices 1 2 3 4 5 6 
#
# 1 0.031458 -0.012282 -0.004435 0.000000 0.000000 0.000000
# 2 -0.012282 0.031458 -0.004435 0.000000 0.000000 0.000000
# 3 -0.004435 -0.004435 0.008803 0.000000 0.000000 0.000000
# 4 0.000000 0.000000 0.000000 0.050046 0.000000 0.000000
# 5 0.000000 0.000000 0.000000 0.000000 0.050046 0.000000
# 6 0.000000 0.000000 0.000000 0.000000 0.000000-21.134315
#
#
# Mechanical properties :
#
#
# Convention : Reuss Voigt Hill
#
# Bulk Modulus (GPa) = 33.99423 46.78702 40.39062
# Shear Modulus (GPa) = -0.23912 17.84246 8.80167
#
# Velocity S-wave (km/s) = -0.38716 3.34433 2.34890
# Velocity P-wave (km/s) = 4.59450 6.65140 5.71623
#
# Compressibility (1/GPa) = 0.02941676
#
# Stress axis : x y z
#
# Youngs Moduli (GPa) = 31.78858 31.78858 113.59374
#
# Poissons Ratio (x) = 0.39041 0.50376
# Poissons Ratio (y) = 0.39041 0.50376
# Poissons Ratio (z) = 0.14097 0.14097
#
# Static dielectric constant tensor:
#      x y z
#    x 2.709460 0.000000 0.000000 
#    y 0.000000 2.709460 0.000000 
#    z 0.000000 0.000000 3.601460 
# 
# 
# High freq. dielectric constant tensor:
#      x y z
#    x 1.568500 0.000000 0.000000 
#    y 0.000000 1.568500 0.000000 
#    z 0.000000 0.000000 1.648880 
# 
# From -- ./inp_files/1393.got.cif
#   From: 2010.03.12/outbox.cif.g09.slc.cpg/sg122_1_cif.got.tgz:1393.got - 2010.04.06 16:17:16.
