data_PCOD8311852
_publ_section_title
;
Structure prediction by ZEFSAII (Michael W. Deem and Ramdas Pophale) SiO2 
 PCOD8311852
Probable space group: I -4 2 D
;
_chemical_formula_sum "Si O2"
_cell_formula_units_Z 64
_cell_length_a 19.083015
_cell_length_b 19.083015
_cell_length_c 8.431745
_cell_angle_alpha 90.000000
_cell_angle_beta 90.000000
_cell_angle_gamma 90.000000
_cell_volume 3070.516582
_symmetry_space_group_name_H-M "I -4 2 D"
_symmetry_group_IT_number 122
_symmetry_cell_setting 'tetragonal'
loop_
_space_group_symop_operation_xyz
x,y,z
y,-x,-z
-x,-y,z
-y,x,-z
x,1/2-y,1/4-z
-x,1/2+y,1/4-z
-y,1/2-x,1/4+z
y,1/2+x,1/4+z
1/2+x,1/2+y,1/2+z
1/2+y,1/2-x,1/2-z
1/2-x,1/2-y,1/2+z
1/2-y,1/2+x,1/2-z
1/2+x,-y,3/4-z
1/2-x,y,3/4-z
1/2-y,-x,3/4+z
1/2+y,x,3/4+z
loop_
_atom_site_type_symbol
_atom_site_label
_atom_site_fract_x
_atom_site_fract_y
_atom_site_fract_z
Si Si1 0.750000 0.721292 0.375000
Si Si2 0.791232 0.888618 0.625803
Si Si3 0.152300 0.838783 0.706199
Si Si4 0.509179 0.882525 0.501449
Si Si5 0.000000 0.500000 0.750000
Si Si6 0.500000 0.000000 0.750000
O O1 0.792576 0.675334 0.501066
O O2 0.806454 0.769734 0.283942
O O3 0.842092 0.871598 0.477887
O O4 0.712079 0.899613 0.558258
O O5 0.818498 0.956364 0.720283
O O6 0.151388 0.915008 0.784513
O O7 0.516134 0.931315 0.349583
O O8 0.484640 0.930307 0.648273
#
# Coordination Sequence:
#
# PCOD8311852 Si02
#       6
#     8  16  16  16   4   4
#     4  10  22  44  62 100 138 158 234 284 328 396
#     4  10  22  42  66  95 132 173 221 275 338 395
#     4  10  21  43  68  97 126 177 223 281 332 402
#     4  11  22  45  66  96 132 178 216 282 335 416
#     4  10  20  42  68  90 132 162 224 278 328 402
#     4  10  28  42  64  98 144 170 228 270 352 394
#
# _framework density 20.843399000000002
#
# number of rings (size 3 to 8) (size 9 to 14) (size 15 to 20)
#    0.000    2.000    2.500    3.000    3.500    0.000 
#   22.500    0.000    0.000    0.000    0.000    0.000 
#    0.000    0.000    0.000    0.000    0.000    0.000 
#
# Total GULP energy -396718.140584 kJ/mol
# GULP energy per Si atom -12397.441893 kJ/mol
# Density = 2.079596 g / cm^3
# Si number density = 20.843399 Si / 1000 Ang^3
#
#
#
# Elastic Constant Matrix: (Units=GPa)
#
#
# Indices 1 2 3 4 5 6 
#
# 1 139.6048 63.8188 42.2912 0.0000 0.0000 0.0000
# 2 63.8188 139.6048 42.2912 0.0000 0.0000 0.0000
# 3 42.2912 42.2912 96.6600 0.0000 0.0000 0.0000
# 4 0.0000 0.0000 0.0000 26.7912 0.0000 0.0000
# 5 0.0000 0.0000 0.0000 0.0000 26.7912 0.0000
# 6 0.0000 0.0000 0.0000 0.0000 0.0000 34.6786
#
#
#
# Elastic Compliance Matrix: (Units=1/GPa)
#
#
# Indices 1 2 3 4 5 6 
#
# 1 0.009602 -0.003593 -0.002629 0.000000 0.000000 0.000000
# 2 -0.003593 0.009602 -0.002629 0.000000 0.000000 0.000000
# 3 -0.002629 -0.002629 0.012646 0.000000 0.000000 0.000000
# 4 0.000000 0.000000 0.000000 0.037326 0.000000 0.000000
# 5 0.000000 0.000000 0.000000 0.000000 0.037326 0.000000
# 6 0.000000 0.000000 0.000000 0.000000 0.000000 0.028836
#
#
# Mechanical properties :
#
#
# Convention : Reuss Voigt Hill
#
# Bulk Modulus (GPa) = 70.68247 74.74132 72.71189
# Shear Modulus (GPa) = 31.69449 32.81676 32.25563
#
# Velocity S-wave (km/s) = 3.90372 3.97223 3.93812
# Velocity P-wave (km/s) = 7.36909 7.54815 7.45916
#
# Compressibility (1/GPa) = 0.01414778
#
# Stress axis : x y z
#
# Youngs Moduli (GPa) = 104.14463 104.14463 79.07557
#
# Poissons Ratio (x) = 0.37419 0.20790
# Poissons Ratio (y) = 0.37419 0.20790
# Poissons Ratio (z) = 0.27381 0.27381
#
# Static dielectric constant tensor:
#      x y z
#    x 3.680260 0.000000 0.000000 
#    y 0.000000 3.680260 0.000000 
#    z 0.000000 0.000000 3.927680 
# 
# 
# High freq. dielectric constant tensor:
#      x y z
#    x 1.804040 0.000000 0.000000 
#    y 0.000000 1.804040 0.000000 
#    z 0.000000 0.000000 1.829630 
# 
# From -- ./inp_files/2617.got.cif
#   From: 2010.03.12/outbox.cif.g09.slc.cpg/sg122_2_cif.got.tgz:2617.got - 2010.04.06 16:17:16.
