data_PCOD8311380
_publ_section_title
;
Structure prediction by ZEFSAII (Michael W. Deem and Ramdas Pophale) SiO2 
 PCOD8311380
Probable space group: I -4 2 M
;
_chemical_formula_sum "Si O2"
_cell_formula_units_Z 88
_cell_length_a 16.495814
_cell_length_b 16.495814
_cell_length_c 22.670510
_cell_angle_alpha 90.000000
_cell_angle_beta 90.000000
_cell_angle_gamma 90.000000
_cell_volume 6168.915086
_symmetry_space_group_name_H-M "I -4 2 M"
_symmetry_group_IT_number 121
_symmetry_cell_setting 'tetragonal'
loop_
_space_group_symop_operation_xyz
x,y,z
y,-x,-z
-x,-y,z
-y,x,-z
x,-y,-z
-x,y,-z
-y,-x,z
y,x,z
1/2+x,1/2+y,1/2+z
1/2+y,1/2-x,1/2-z
1/2-x,1/2-y,1/2+z
1/2-y,1/2+x,1/2-z
1/2+x,1/2-y,1/2-z
1/2-x,1/2+y,1/2-z
1/2-y,1/2-x,1/2+z
1/2+y,1/2+x,1/2+z
loop_
_atom_site_type_symbol
_atom_site_label
_atom_site_fract_x
_atom_site_fract_y
_atom_site_fract_z
Si Si1 0.094925 0.663556 0.627241
Si Si2 0.301397 0.698604 0.933135
Si Si3 0.592507 0.592507 1.000000
Si Si4 0.595854 1.000000 0.934535
Si Si5 0.336444 0.905073 0.372760
Si Si6 0.408522 0.091477 0.250000
Si Si7 0.301397 0.301397 0.933132
O O1 0.125280 0.580366 0.598270
O O2 0.106559 0.655376 0.697617
O O3 0.157262 0.729959 0.603587
O O4 0.999999 0.682739 0.611915
O O5 0.369940 0.630061 0.940594
O O6 0.229958 0.657264 0.896415
O O7 0.273602 0.726399 0.000001
O O8 0.613998 0.500000 0.000000
O O9 0.630060 0.630060 0.940593
O O10 0.500000 0.000000 0.936692
O O11 0.625281 0.080365 0.901730
O O12 0.633249 0.000000 0.000000
O O13 0.344624 0.893439 0.302384
O O14 0.500000 0.101438 0.274962
#
# Coordination Sequence:
#
# PCOD8311380 Si02
#       7
#    16   8   8  16  16  16   8
#     4  10  18  30  46  67  92 125 158 192 233 279
#     4  10  21  29  43  66  95 122 155 199 226 272
#     4   9  18  32  46  58  84 128 164 189 216 260
#     4   9  16  26  44  66  88 117 153 193 234 282
#     4  10  18  30  46  67  92 125 158 192 233 279
#     4   9  16  29  48  68  92 121 159 190 228 286
#     4  10  21  29  43  66  95 122 155 199 226 272
#
# _framework density 14.265067999999999
#
# number of rings (size 3 to 8) (size 9 to 14) (size 15 to 20)
#    0.545    1.909    1.818    2.182    0.000    2.182 
#    0.000    0.000    0.000    0.000    0.000    0.000 
#    0.000    0.727    0.000    3.636    0.000    0.000 
#
# Total GULP energy -545157.691470 kJ/mol
# GULP energy per Si atom -12389.947533 kJ/mol
# Density = 1.423260 g / cm^3
# Si number density = 14.265068 Si / 1000 Ang^3
#
#
#
# Elastic Constant Matrix: (Units=GPa)
#
#
# Indices 1 2 3 4 5 6 
#
# 1 92.0792 50.7304 45.0467 0.0000 0.0000 0.0000
# 2 50.7304 92.0783 45.0469 0.0000 0.0000 0.0000
# 3 45.0467 45.0469 89.0381 0.0000 0.0000 0.0000
# 4 0.0000 0.0000 0.0000 22.1166 0.0000 0.0000
# 5 0.0000 0.0000 0.0000 0.0000 22.1163 0.0000
# 6 0.0000 0.0000 0.0000 0.0000 0.0000 26.9704
#
#
#
# Elastic Compliance Matrix: (Units=1/GPa)
#
#
# Indices 1 2 3 4 5 6 
#
# 1 0.017235 -0.006950 -0.005203 0.000000 0.000000 0.000000
# 2 -0.006950 0.017235 -0.005204 0.000000 0.000000 0.000000
# 3 -0.005203 -0.005204 0.016496 0.000000 0.000000 0.000000
# 4 0.000000 0.000000 0.000000 0.045215 0.000000 0.000000
# 5 0.000000 0.000000 0.000000 0.000000 0.045216 0.000000
# 6 0.000000 0.000000 0.000000 0.000000 0.000000 0.037078
#
#
# Mechanical properties :
#
#
# Convention : Reuss Voigt Hill
#
# Bulk Modulus (GPa) = 61.52908 61.64930 61.58919
# Shear Modulus (GPa) = 22.87227 23.06544 22.96886
#
# Velocity S-wave (km/s) = 4.00856 4.02545 4.01702
# Velocity P-wave (km/s) = 8.04059 8.05708 8.04884
#
# Compressibility (1/GPa) = 0.01625248
#
# Stress axis : x y z
#
# Youngs Moduli (GPa) = 58.02221 58.02132 60.61955
#
# Poissons Ratio (x) = 0.40324 0.31543
# Poissons Ratio (y) = 0.40325 0.31544
# Poissons Ratio (z) = 0.30191 0.30192
#
# Static dielectric constant tensor:
#      x y z
#    x 2.614440 0.000000 0.000000 
#    y 0.000000 2.614440 0.000000 
#    z 0.000000 0.000000 2.878130 
# 
# 
# High freq. dielectric constant tensor:
#      x y z
#    x 1.522140 0.000000 0.000000 
#    y 0.000000 1.522130 0.000000 
#    z 0.000000 0.000000 1.553700 
# 
# From -- ./inp_files/7678.got.cif
#   From: 2010.03.12/outbox.cif.g09.slc.cpg/sg121_4_cif.got.tgz:7678.got - 2010.04.06 16:06:48.
