data_PCOD8311299
_publ_section_title
;
Structure prediction by ZEFSAII (Michael W. Deem and Ramdas Pophale) SiO2 
 PCOD8311299
Probable space group: I -4 C 2
;
_chemical_formula_sum "Si O2"
_cell_formula_units_Z 48
_cell_length_a 15.223461
_cell_length_b 15.223461
_cell_length_c 9.459285
_cell_angle_alpha 90.000000
_cell_angle_beta 90.000000
_cell_angle_gamma 90.000000
_cell_volume 2192.224911
_symmetry_space_group_name_H-M "I -4 C 2"
_symmetry_group_IT_number 120
_symmetry_cell_setting 'tetragonal'
loop_
_space_group_symop_operation_xyz
x,y,z
y,-x,-z
-x,-y,z
-y,x,-z
y,x,1/2-z
-y,-x,1/2-z
-x,y,1/2+z
x,-y,1/2+z
1/2+x,1/2+y,1/2+z
1/2+y,1/2-x,1/2-z
1/2-x,1/2-y,1/2+z
1/2-y,1/2+x,1/2-z
1/2+y,1/2+x,-z
1/2-y,1/2-x,-z
1/2-x,1/2+y,z
1/2+x,1/2-y,z
loop_
_atom_site_type_symbol
_atom_site_label
_atom_site_fract_x
_atom_site_fract_y
_atom_site_fract_z
Si Si1 0.510883 0.249170 0.461913
Si Si2 0.812219 0.181561 0.083803
Si Si3 0.863686 0.522282 0.787353
O O1 0.587490 0.301649 0.539992
O O2 0.420901 0.302688 0.452125
O O3 0.545833 0.221746 0.306670
O O4 0.491952 0.160482 0.550339
O O5 0.799560 0.200441 0.250000
O O6 0.742423 0.242423 0.000000
O O7 0.899614 0.432517 0.720132
#
# Coordination Sequence:
#
# PCOD8311299 Si02
#       3
#    16  16  16
#     4  12  26  44  70 106 144 188 244 295 356 435
#     4  12  28  49  76 107 147 198 242 300 365 429
#     4  11  22  40  68 103 142 182 232 303 374 429
#
# _framework density 21.895562999999999
#
# number of rings (size 3 to 8) (size 9 to 14) (size 15 to 20)
#    0.000    0.333    3.333    6.000    4.667    3.333 
#    0.000    1.667    0.000    0.000    0.000    0.000 
#    0.000    0.000    0.000    0.000    0.000    0.000 
#
# Total GULP energy -297647.951728 kJ/mol
# GULP energy per Si atom -12401.997989 kJ/mol
# Density = 2.184573 g / cm^3
# Si number density = 21.895563 Si / 1000 Ang^3
#
#
#
# Elastic Constant Matrix: (Units=GPa)
#
#
# Indices 1 2 3 4 5 6 
#
# 1 93.9026 48.0476 43.1281 0.0000 0.0000 0.0000
# 2 48.0476 93.9006 43.1277 0.0000 0.0000 0.0000
# 3 43.1281 43.1277 107.4262 0.0000 0.0000 0.0000
# 4 0.0000 0.0000 0.0000 38.0438 0.0000 0.0000
# 5 0.0000 0.0000 0.0000 0.0000 38.0440 0.0000
# 6 0.0000 0.0000 0.0000 0.0000 0.0000 3.8304
#
#
#
# Elastic Compliance Matrix: (Units=1/GPa)
#
#
# Indices 1 2 3 4 5 6 
#
# 1 0.015563 -0.006245 -0.003741 0.000000 0.000000 0.000000
# 2 -0.006245 0.015563 -0.003741 0.000000 0.000000 0.000000
# 3 -0.003741 -0.003741 0.012312 0.000000 0.000000 0.000000
# 4 0.000000 0.000000 0.000000 0.026285 0.000000 0.000000
# 5 0.000000 0.000000 0.000000 0.000000 0.026285 0.000000
# 6 0.000000 0.000000 0.000000 0.000000 0.000000 0.261068
#
#
# Mechanical properties :
#
#
# Convention : Reuss Voigt Hill
#
# Bulk Modulus (GPa) = 62.55917 62.64845 62.60381
# Shear Modulus (GPa) = 12.82513 26.71205 19.76859
#
# Velocity S-wave (km/s) = 2.42283 3.49660 3.00802
# Velocity P-wave (km/s) = 6.03825 6.70643 6.38109
#
# Compressibility (1/GPa) = 0.01598487
#
# Stress axis : x y z
#
# Youngs Moduli (GPa) = 64.25525 64.25380 81.21951
#
# Poissons Ratio (x) = 0.40128 0.30382
# Poissons Ratio (y) = 0.40129 0.30383
# Poissons Ratio (z) = 0.24036 0.24036
#
# Static dielectric constant tensor:
#      x y z
#    x 3.915510 0.000000 0.000000 
#    y 0.000000 3.915500 0.000000 
#    z 0.000000 0.000000 4.209700 
# 
# 
# High freq. dielectric constant tensor:
#      x y z
#    x 1.857740 0.000000 0.000000 
#    y 0.000000 1.857740 0.000000 
#    z 0.000000 0.000000 1.886220 
# 
# From -- ./inp_files/887.got.cif
#   From: 2010.03.12/outbox.cif.g09.slc.cpg/sg120_1_cif.got.tgz:887.got - 2010.04.06 16:00:44.
