data_PCOD8311112
_publ_section_title
;
Structure prediction by ZEFSAII (Michael W. Deem and Ramdas Pophale) SiO2 
 PCOD8311112
Probable space group: I -4 C 2
;
_chemical_formula_sum "Si O2"
_cell_formula_units_Z 92
_cell_length_a 18.920775
_cell_length_b 18.920775
_cell_length_c 15.614037
_cell_angle_alpha 90.000000
_cell_angle_beta 90.000000
_cell_angle_gamma 90.000000
_cell_volume 5589.758521
_symmetry_space_group_name_H-M "I -4 C 2"
_symmetry_group_IT_number 120
_symmetry_cell_setting 'tetragonal'
loop_
_space_group_symop_operation_xyz
x,y,z
y,-x,-z
-x,-y,z
-y,x,-z
y,x,1/2-z
-y,-x,1/2-z
-x,y,1/2+z
x,-y,1/2+z
1/2+x,1/2+y,1/2+z
1/2+y,1/2-x,1/2-z
1/2-x,1/2-y,1/2+z
1/2-y,1/2+x,1/2-z
1/2+y,1/2+x,-z
1/2-y,1/2-x,-z
1/2-x,1/2+y,z
1/2+x,1/2-y,z
loop_
_atom_site_type_symbol
_atom_site_label
_atom_site_fract_x
_atom_site_fract_y
_atom_site_fract_z
Si Si1 0.000000 0.000000 0.000000
Si Si2 0.875431 0.075698 0.429721
Si Si3 0.892024 0.492644 0.776020
Si Si4 0.348156 0.908805 0.918211
Si Si5 0.646251 0.646251 0.250000
Si Si6 0.709127 0.549492 0.004371
Si Si7 0.412684 0.217762 0.327623
O O1 0.024669 0.942011 0.067281
O O2 0.865655 0.093713 0.329979
O O3 0.893860 0.144818 0.487425
O O4 0.811592 0.029404 0.471227
O O5 0.926874 0.554038 0.716971
O O6 0.876767 0.521514 0.870783
O O7 0.818167 0.470248 0.733866
O O8 0.355926 0.839320 0.860230
O O9 0.398548 0.898548 0.000000
O O10 0.265549 0.916737 0.939409
O O11 0.635291 0.726660 0.277327
O O12 0.745007 0.541782 0.097547
#
# Coordination Sequence:
#
# PCOD8311112 Si02
#       7
#     4  16  16  16   8  16  16
#     4   8  16  30  44  68  96 114 144 188 232 266
#     4   9  17  29  48  68  91 120 152 192 228 273
#     4   9  17  31  49  70  94 119 152 195 234 270
#     4   9  17  31  50  68  93 124 152 187 233 282
#     4  10  18  29  48  68  90 124 156 183 228 284
#     4   9  17  31  47  67  92 122 156 189 232 276
#     4   9  18  31  47  68  93 122 154 190 231 278
#
# _framework density 16.458670999999999
#
# number of rings (size 3 to 8) (size 9 to 14) (size 15 to 20)
#    0.000    2.957    0.000    1.043    0.000    0.348 
#    0.000   18.261    0.000    8.348    0.000    0.000 
#    0.000    0.000    0.000    0.000    0.000    0.000 
#
# Total GULP energy -570039.580381 kJ/mol
# GULP energy per Si atom -12392.164791 kJ/mol
# Density = 1.642121 g / cm^3
# Si number density = 16.458671 Si / 1000 Ang^3
#
#
#
# Elastic Constant Matrix: (Units=GPa)
#
#
# Indices 1 2 3 4 5 6 
#
# 1 96.7574 50.6229 59.3128 0.0000 0.0000 0.0000
# 2 50.6229 96.7574 59.3128 0.0000 0.0000 0.0000
# 3 59.3128 59.3128 104.2326 0.0000 0.0000 0.0000
# 4 0.0000 0.0000 0.0000 25.4583 0.0000 0.0000
# 5 0.0000 0.0000 0.0000 0.0000 25.4583 0.0000
# 6 0.0000 0.0000 0.0000 0.0000 0.0000 26.7169
#
#
#
# Elastic Compliance Matrix: (Units=1/GPa)
#
#
# Indices 1 2 3 4 5 6 
#
# 1 0.017097 -0.004578 -0.007124 0.000000 0.000000 0.000000
# 2 -0.004578 0.017097 -0.007124 0.000000 0.000000 0.000000
# 3 -0.007124 -0.007124 0.017702 0.000000 0.000000 0.000000
# 4 0.000000 0.000000 0.000000 0.039280 0.000000 0.000000
# 5 0.000000 0.000000 0.000000 0.000000 0.039280 0.000000
# 6 0.000000 0.000000 0.000000 0.000000 0.000000 0.037429
#
#
# Mechanical properties :
#
#
# Convention : Reuss Voigt Hill
#
# Bulk Modulus (GPa) = 70.20421 70.69386 70.44903
# Shear Modulus (GPa) = 23.77711 24.09331 23.93521
#
# Velocity S-wave (km/s) = 3.80499 3.83020 3.81762
# Velocity P-wave (km/s) = 7.87727 7.91241 7.89486
#
# Compressibility (1/GPa) = 0.01424416
#
# Stress axis : x y z
#
# Youngs Moduli (GPa) = 58.48815 58.48815 56.49202
#
# Poissons Ratio (x) = 0.26777 0.40245
# Poissons Ratio (y) = 0.26777 0.40245
# Poissons Ratio (z) = 0.41667 0.41667
#
# Static dielectric constant tensor:
#      x y z
#    x 3.179030 0.000000 0.000000 
#    y 0.000000 3.179030 0.000000 
#    z 0.000000 0.000000 3.109900 
# 
# 
# High freq. dielectric constant tensor:
#      x y z
#    x 1.632220 0.000000 0.000000 
#    y 0.000000 1.632220 0.000000 
#    z 0.000000 0.000000 1.629780 
# 
# From -- ./inp_files/3637.got.cif
#   From: 2010.03.12/outbox.cif.g09.slc.cpg/sg120_2_cif.got.tgz:3637.got - 2010.04.06 16:00:44.
