data_PCOD8311883
_publ_section_title
;
Structure prediction by ZEFSAII (Michael W. Deem and Ramdas Pophale) SiO2 
 PCOD8311883
Probable space group: I -4 2 D
;
_chemical_formula_sum "Si O2"
_cell_formula_units_Z 120
_cell_length_a 13.870653
_cell_length_b 13.870653
_cell_length_c 31.540473
_cell_angle_alpha 90.000000
_cell_angle_beta 90.000000
_cell_angle_gamma 90.000000
_cell_volume 6068.229765
_symmetry_space_group_name_H-M "I -4 2 D"
_symmetry_group_IT_number 122
_symmetry_cell_setting 'tetragonal'
loop_
_space_group_symop_operation_xyz
x,y,z
y,-x,-z
-x,-y,z
-y,x,-z
x,1/2-y,1/4-z
-x,1/2+y,1/4-z
-y,1/2-x,1/4+z
y,1/2+x,1/4+z
1/2+x,1/2+y,1/2+z
1/2+y,1/2-x,1/2-z
1/2-x,1/2-y,1/2+z
1/2-y,1/2+x,1/2-z
1/2+x,-y,3/4-z
1/2-x,y,3/4-z
1/2-y,-x,3/4+z
1/2+y,x,3/4+z
loop_
_atom_site_type_symbol
_atom_site_label
_atom_site_fract_x
_atom_site_fract_y
_atom_site_fract_z
Si Si1 0.363258 0.250000 0.625000
Si Si2 0.889739 0.854959 0.824482
Si Si3 0.831641 0.235110 0.577868
Si Si4 0.643100 0.564906 0.996851
Si Si5 0.612909 0.520201 0.406796
Si Si6 0.738999 0.379089 0.237629
Si Si7 0.691333 0.892592 0.556248
Si Si8 0.082621 0.769830 0.015188
O O1 0.424794 0.321840 0.595420
O O2 0.299082 0.179844 0.595844
O O3 0.846886 0.749256 0.831463
O O4 0.864433 0.919274 0.864814
O O5 0.838042 0.902140 0.783461
O O6 0.004683 0.853309 0.819131
O O7 0.874256 0.250000 0.625000
O O8 0.916406 0.197697 0.547345
O O9 0.790442 0.335534 0.558341
O O10 0.702573 0.597788 0.037528
O O11 0.627007 0.452531 0.001028
O O12 0.500000 0.500000 0.412048
O O13 0.650158 0.576842 0.447624
O O14 0.650353 0.379421 0.270460
O O15 0.821728 0.309393 0.258554
O O16 0.771790 0.490913 0.233589
#
# Coordination Sequence:
#
# PCOD8311883 Si02
#       8
#     8  16  16  16  16  16  16  16
#     4  12  22  38  56  94 128 162 218 258 314 392
#     4  11  20  37  63  86 120 161 216 256 310 373
#     4  10  21  41  65  93 119 162 218 266 312 389
#     4  10  21  42  71  95 122 166 216 266 339 395
#     4  12  22  34  58  86 123 167 209 252 306 381
#     4  10  23  37  58  85 127 164 214 259 321 379
#     4  11  22  40  62  94 124 168 210 272 325 378
#     4  11  23  38  54  86 123 165 211 256 312 384
#
# _framework density 19.775124999999999
#
# number of rings (size 3 to 8) (size 9 to 14) (size 15 to 20)
#    0.000    1.200    5.333    1.600    1.867    0.000 
#    3.600    0.000    0.000    6.400    0.000    0.000 
#    0.000    0.000    0.000    0.000    0.000    0.000 
#
# Total GULP energy -743913.078521 kJ/mol
# GULP energy per Si atom -12398.551309 kJ/mol
# Density = 1.973012 g / cm^3
# Si number density = 19.775125 Si / 1000 Ang^3
#
#
#
# Elastic Constant Matrix: (Units=GPa)
#
#
# Indices 1 2 3 4 5 6 
#
# 1 119.4412 10.7743 40.8008 0.0000 0.0000 0.0000
# 2 10.7743 119.4412 40.8008 0.0000 0.0000 0.0000
# 3 40.8008 40.8008 91.1270 0.0000 0.0000 0.0000
# 4 0.0000 0.0000 0.0000 27.0568 0.0000 0.0000
# 5 0.0000 0.0000 0.0000 0.0000 27.0568 0.0000
# 6 0.0000 0.0000 0.0000 0.0000 0.0000 35.1791
#
#
#
# Elastic Compliance Matrix: (Units=1/GPa)
#
#
# Indices 1 2 3 4 5 6 
#
# 1 0.009939 0.000736 -0.004779 0.000000 0.000000 0.000000
# 2 0.000736 0.009939 -0.004779 0.000000 0.000000 0.000000
# 3 -0.004779 -0.004779 0.015254 0.000000 0.000000 0.000000
# 4 0.000000 0.000000 0.000000 0.036959 0.000000 0.000000
# 5 0.000000 0.000000 0.000000 0.000000 0.036959 0.000000
# 6 0.000000 0.000000 0.000000 0.000000 0.000000 0.028426
#
#
# Mechanical properties :
#
#
# Convention : Reuss Voigt Hill
#
# Bulk Modulus (GPa) = 57.19134 57.19570 57.19352
# Shear Modulus (GPa) = 31.06572 33.70077 32.38325
#
# Velocity S-wave (km/s) = 3.96782 4.13267 4.05109
# Velocity P-wave (km/s) = 7.06931 7.19429 7.13207
#
# Compressibility (1/GPa) = 0.01748517
#
# Stress axis : x y z
#
# Youngs Moduli (GPa) = 100.61827 100.61827 65.55862
#
# Poissons Ratio (x) = -0.07407 0.31333
# Poissons Ratio (y) = -0.07407 0.31333
# Poissons Ratio (z) = 0.48090 0.48090
#
# Static dielectric constant tensor:
#      x y z
#    x 3.683000 0.000000 0.000000 
#    y 0.000000 3.683000 0.000000 
#    z 0.000000 0.000000 3.519240 
# 
# 
# High freq. dielectric constant tensor:
#      x y z
#    x 1.772730 0.000000 0.000000 
#    y 0.000000 1.772730 0.000000 
#    z 0.000000 0.000000 1.757900 
# 
# From -- ./inp_files/9737.got.cif
#   From: 2010.03.12/outbox.cif.g09.slc.cpg/sg122_5_cif.got.tgz:9737.got - 2010.04.06 16:17:16.
