data_PCOD8311625
_publ_section_title
;
Structure prediction by ZEFSAII (Michael W. Deem and Ramdas Pophale) SiO2 
 PCOD8311625
Probable space group: I -4 2 M
;
_chemical_formula_sum "Si O2"
_cell_formula_units_Z 116
_cell_length_a 17.331003
_cell_length_b 17.331003
_cell_length_c 17.575644
_cell_angle_alpha 90.000000
_cell_angle_beta 90.000000
_cell_angle_gamma 90.000000
_cell_volume 5279.084846
_symmetry_space_group_name_H-M "I -4 2 M"
_symmetry_group_IT_number 121
_symmetry_cell_setting 'tetragonal'
loop_
_space_group_symop_operation_xyz
x,y,z
y,-x,-z
-x,-y,z
-y,x,-z
x,-y,-z
-x,y,-z
-y,-x,z
y,x,z
1/2+x,1/2+y,1/2+z
1/2+y,1/2-x,1/2-z
1/2-x,1/2-y,1/2+z
1/2-y,1/2+x,1/2-z
1/2+x,1/2-y,1/2-z
1/2-x,1/2+y,1/2-z
1/2-y,1/2-x,1/2+z
1/2+y,1/2+x,1/2+z
loop_
_atom_site_type_symbol
_atom_site_label
_atom_site_fract_x
_atom_site_fract_y
_atom_site_fract_z
Si Si1 0.373337 0.496799 0.267722
Si Si2 0.673920 0.798422 0.253589
Si Si3 0.858374 0.461882 0.655030
Si Si4 0.623259 0.810767 0.597184
Si Si5 0.784976 0.090845 0.654498
Si Si6 0.000000 0.500000 0.750000
Si Si7 0.579189 0.842744 0.962335
Si Si8 0.953122 0.834352 0.073756
O O1 0.432012 0.567989 0.269158
O O2 0.416351 0.416351 0.249687
O O3 0.311173 0.513946 0.200660
O O4 0.332756 0.493037 0.350515
O O5 0.713506 0.713506 0.259764
O O6 0.589998 0.797913 0.294948
O O7 0.662595 0.822873 0.166308
O O8 0.728920 0.861948 0.290498
O O9 0.819409 0.530219 0.607964
O O10 0.920623 0.507119 0.704978
O O11 0.904770 0.406114 0.600332
O O12 0.657786 0.853123 0.523994
O O13 0.623540 0.719220 0.583622
O O14 0.858717 0.141284 0.630613
O O15 0.740991 0.069031 0.576860
O O16 0.500000 0.868118 0.000000
O O17 0.920736 0.920736 0.060386
O O18 0.000000 0.807323 0.000000
#
# Coordination Sequence:
#
# PCOD8311625 Si02
#       8
#    16  16  16  16  16   4  16  16
#     4   9  17  33  60  90 123 169 220 269 324 387
#     4  10  21  40  66  92 126 170 215 267 332 403
#     4  11  23  39  64  94 127 165 216 270 331 400
#     4  12  23  41  63  91 126 169 216 265 332 405
#     4   9  19  39  63  89 123 170 221 269 325 399
#     4  12  20  36  66 100 120 160 214 284 328 380
#     4  11  25  41  61  89 127 167 212 274 334 405
#     4  11  22  37  61  94 135 172 211 264 324 393
#
# _framework density 21.973506
#
# number of rings (size 3 to 8) (size 9 to 14) (size 15 to 20)
#    0.000    1.517    2.759    2.897    0.000    2.345 
#    0.000    4.828    0.000    0.000    0.000    0.000 
#    0.000    0.000    0.000    0.000    0.000    0.000 
#
# Total GULP energy -719086.870500 kJ/mol
# GULP energy per Si atom -12398.049491 kJ/mol
# Density = 2.192349 g / cm^3
# Si number density = 21.973506 Si / 1000 Ang^3
#
#
#
# Elastic Constant Matrix: (Units=GPa)
#
#
# Indices 1 2 3 4 5 6 
#
# 1 80.2304 24.8213 45.6903 0.0000 0.0000 0.0000
# 2 24.8213 80.2302 45.6904 0.0000 0.0000 0.0000
# 3 45.6903 45.6904 129.8946 0.0000 0.0000 0.0000
# 4 0.0000 0.0000 0.0000 32.7843 0.0000 0.0000
# 5 0.0000 0.0000 0.0000 0.0000 32.7843 0.0000
# 6 0.0000 0.0000 0.0000 0.0000 0.0000 29.0169
#
#
#
# Elastic Compliance Matrix: (Units=1/GPa)
#
#
# Indices 1 2 3 4 5 6 
#
# 1 0.015882 -0.002166 -0.004825 0.000000 0.000000 0.000000
# 2 -0.002166 0.015882 -0.004825 0.000000 0.000000 0.000000
# 3 -0.004825 -0.004825 0.011093 0.000000 0.000000 0.000000
# 4 0.000000 0.000000 0.000000 0.030502 0.000000 0.000000
# 5 0.000000 0.000000 0.000000 0.000000 0.030502 0.000000
# 6 0.000000 0.000000 0.000000 0.000000 0.000000 0.034463
#
#
# Mechanical properties :
#
#
# Convention : Reuss Voigt Hill
#
# Bulk Modulus (GPa) = 52.01259 58.08437 55.04848
# Shear Modulus (GPa) = 29.69790 30.52732 30.11261
#
# Velocity S-wave (km/s) = 3.68031 3.73135 3.70591
# Velocity P-wave (km/s) = 6.46386 6.71231 6.58926
#
# Compressibility (1/GPa) = 0.01922611
#
# Stress axis : x y z
#
# Youngs Moduli (GPa) = 62.96562 62.96538 90.15022
#
# Poissons Ratio (x) = 0.13638 0.43493
# Poissons Ratio (y) = 0.13638 0.43493
# Poissons Ratio (z) = 0.30378 0.30378
#
# Static dielectric constant tensor:
#      x y z
#    x 3.913810 0.000000 0.000000 
#    y 0.000000 3.913820 0.000000 
#    z 0.000000 0.000000 4.039430 
# 
# 
# High freq. dielectric constant tensor:
#      x y z
#    x 1.861920 0.000000 0.000000 
#    y 0.000000 1.861920 0.000000 
#    z 0.000000 0.000000 1.861590 
# 
# From -- ./inp_files/5525.got.cif
#   From: 2010.03.12/outbox.cif.g09.slc.cpg/sg121_3_cif.got.tgz:5525.got - 2010.04.06 16:06:48.
