data_PCOD8311342
_publ_section_title
;
Structure prediction by ZEFSAII (Michael W. Deem and Ramdas Pophale) SiO2 
 PCOD8311342
Probable space group: I -4 2 M
;
_chemical_formula_sum "Si O2"
_cell_formula_units_Z 64
_cell_length_a 11.572656
_cell_length_b 11.572656
_cell_length_c 22.925370
_cell_angle_alpha 90.000000
_cell_angle_beta 90.000000
_cell_angle_gamma 90.000000
_cell_volume 3070.311514
_symmetry_space_group_name_H-M "I -4 2 M"
_symmetry_group_IT_number 121
_symmetry_cell_setting 'tetragonal'
loop_
_space_group_symop_operation_xyz
x,y,z
y,-x,-z
-x,-y,z
-y,x,-z
x,-y,-z
-x,y,-z
-y,-x,z
y,x,z
1/2+x,1/2+y,1/2+z
1/2+y,1/2-x,1/2-z
1/2-x,1/2-y,1/2+z
1/2-y,1/2+x,1/2-z
1/2+x,1/2-y,1/2-z
1/2-x,1/2+y,1/2-z
1/2-y,1/2-x,1/2+z
1/2+y,1/2+x,1/2+z
loop_
_atom_site_type_symbol
_atom_site_label
_atom_site_fract_x
_atom_site_fract_y
_atom_site_fract_z
Si Si1 0.097815 0.902186 0.743062
Si Si2 0.500000 0.000000 0.601042
Si Si3 0.000000 0.669681 0.000000
Si Si4 0.733171 0.733171 0.522786
Si Si5 0.220592 0.220592 0.159417
Si Si6 0.092294 0.907707 0.432617
Si Si7 0.519311 0.771717 0.159930
O O1 0.133212 0.866789 0.808534
O O2 0.051483 0.786577 0.712018
O O3 0.000000 0.000000 0.744088
O O4 0.537783 0.897654 0.558278
O O5 0.608495 0.040310 0.640382
O O6 0.882637 0.737451 0.986991
O O7 0.705516 0.705516 0.590257
O O8 0.833951 0.833951 0.518717
O O9 0.351419 0.194445 0.179549
O O10 0.182483 0.978880 0.393767
O O11 0.000000 0.000000 0.459565
#
# Coordination Sequence:
#
# PCOD8311342 Si02
#       7
#     8   8   8   8   8   8  16
#     4  12  22  41  72  92 128 176 221 268 345 399
#     4  11  22  38  67  92 132 167 218 277 344 390
#     4  11  22  41  66  88 128 183 218 277 322 400
#     4  10  22  44  62  93 136 171 226 267 332 392
#     4  10  22  41  58  92 136 161 210 282 318 398
#     4  10  16  38  70  89 126 160 205 277 335 373
#     4  10  20  40  63  93 128 166 206 278 333 395
#
# _framework density 20.844792000000002
#
# number of rings (size 3 to 8) (size 9 to 14) (size 15 to 20)
#    0.000    1.750    8.750    0.000    0.000    3.250 
#    2.250    0.000    5.500    0.000    0.000    0.000 
#    0.000    0.000    0.000    0.000    0.000    0.000 
#
# Total GULP energy -396564.269655 kJ/mol
# GULP energy per Si atom -12392.633427 kJ/mol
# Density = 2.079735 g / cm^3
# Si number density = 20.844792 Si / 1000 Ang^3
#
#
#
# Elastic Constant Matrix: (Units=GPa)
#
#
# Indices 1 2 3 4 5 6 
#
# 1 103.2377 50.1851 27.3402 0.0000 0.0000 0.0000
# 2 50.1851 103.2371 27.3401 0.0000 0.0000 0.0000
# 3 27.3402 27.3401 68.3066 0.0000 0.0000 0.0000
# 4 0.0000 0.0000 0.0000 18.5906 0.0000 0.0000
# 5 0.0000 0.0000 0.0000 0.0000 18.5909 0.0000
# 6 0.0000 0.0000 0.0000 0.0000 0.0000 32.7783
#
#
#
# Elastic Compliance Matrix: (Units=1/GPa)
#
#
# Indices 1 2 3 4 5 6 
#
# 1 0.013226 -0.005623 -0.003043 0.000000 0.000000 0.000000
# 2 -0.005623 0.013226 -0.003043 0.000000 0.000000 0.000000
# 3 -0.003043 -0.003043 0.017076 0.000000 0.000000 0.000000
# 4 0.000000 0.000000 0.000000 0.053791 0.000000 0.000000
# 5 0.000000 0.000000 0.000000 0.000000 0.053790 0.000000
# 6 0.000000 0.000000 0.000000 0.000000 0.000000 0.030508
#
#
# Mechanical properties :
#
#
# Convention : Reuss Voigt Hill
#
# Bulk Modulus (GPa) = 49.72906 53.83470 51.78188
# Shear Modulus (GPa) = 23.61414 25.31969 24.46692
#
# Velocity S-wave (km/s) = 3.36944 3.48900 3.42974
# Velocity P-wave (km/s) = 6.24869 6.48948 6.37022
#
# Compressibility (1/GPa) = 0.02010897
#
# Stress axis : x y z
#
# Youngs Moduli (GPa) = 75.60946 75.60898 58.56242
#
# Poissons Ratio (x) = 0.42518 0.17820
# Poissons Ratio (y) = 0.42519 0.17820
# Poissons Ratio (z) = 0.23007 0.23007
#
# Static dielectric constant tensor:
#      x y z
#    x 3.736870 0.000000 0.000000 
#    y 0.000000 3.736870 0.000000 
#    z 0.000000 0.000000 3.381660 
# 
# 
# High freq. dielectric constant tensor:
#      x y z
#    x 1.813980 0.000000 0.000000 
#    y 0.000000 1.813980 0.000000 
#    z 0.000000 0.000000 1.791090 
# 
# From -- ./inp_files/7520.got.cif
#   From: 2010.03.12/outbox.cif.g09.slc.cpg/sg121_4_cif.got.tgz:7520.got - 2010.04.06 16:06:48.
