data_PCOD8311814
_publ_section_title
;
Structure prediction by ZEFSAII (Michael W. Deem and Ramdas Pophale) SiO2 
 PCOD8311814
Probable space group: I -4 2 D
;
_chemical_formula_sum "Si O2"
_cell_formula_units_Z 72
_cell_length_a 14.054269
_cell_length_b 14.054269
_cell_length_c 19.143322
_cell_angle_alpha 90.000000
_cell_angle_beta 90.000000
_cell_angle_gamma 90.000000
_cell_volume 3781.236382
_symmetry_space_group_name_H-M "I -4 2 D"
_symmetry_group_IT_number 122
_symmetry_cell_setting 'tetragonal'
loop_
_space_group_symop_operation_xyz
x,y,z
y,-x,-z
-x,-y,z
-y,x,-z
x,1/2-y,1/4-z
-x,1/2+y,1/4-z
-y,1/2-x,1/4+z
y,1/2+x,1/4+z
1/2+x,1/2+y,1/2+z
1/2+y,1/2-x,1/2-z
1/2-x,1/2-y,1/2+z
1/2-y,1/2+x,1/2-z
1/2+x,-y,3/4-z
1/2-x,y,3/4-z
1/2-y,-x,3/4+z
1/2+y,x,3/4+z
loop_
_atom_site_type_symbol
_atom_site_label
_atom_site_fract_x
_atom_site_fract_y
_atom_site_fract_z
Si Si1 0.060882 0.309777 0.696099
Si Si2 0.091556 0.755878 0.797719
Si Si3 0.095985 0.242743 0.206624
Si Si4 0.500000 0.500000 0.500000
Si Si5 0.189929 0.065118 0.047883
Si Si6 0.500000 0.000000 0.250000
O O1 0.051709 0.250000 0.625000
O O2 0.170221 0.332818 0.715017
O O3 0.006331 0.411370 0.696194
O O4 0.007646 0.249366 0.756120
O O5 0.143733 0.852816 0.774807
O O6 0.064860 0.755799 0.879030
O O7 0.074735 0.250000 0.125000
O O8 0.168051 0.327985 0.228916
O O9 0.993697 0.244133 0.244356
O O10 0.588662 0.511052 0.552518
#
# Coordination Sequence:
#
# PCOD8311814 Si02
#       6
#    16  16  16   4  16   4
#     4  10  20  37  54  72 103 140 178 223 260 297
#     4  10  21  36  54  77 105 141 182 219 260 309
#     4   9  18  34  56  82 110 137 169 211 265 325
#     4   8  16  32  54  84 116 136 160 210 272 336
#     4   9  17  34  56  79 111 141 167 213 269 323
#     4   8  20  36  54  76 100 132 172 214 264 312
#
# _framework density 19.041391000000001
#
# number of rings (size 3 to 8) (size 9 to 14) (size 15 to 20)
#    0.000    2.667    0.000    2.000    0.000    5.333 
#    0.000   20.000    0.000    0.000    0.000    0.000 
#    0.000    0.000    0.000    0.000    0.000    0.000 
#
# Total GULP energy -446032.232378 kJ/mol
# GULP energy per Si atom -12389.784233 kJ/mol
# Density = 1.899805 g / cm^3
# Si number density = 19.041391 Si / 1000 Ang^3
#
#
#
# Elastic Constant Matrix: (Units=GPa)
#
#
# Indices 1 2 3 4 5 6 
#
# 1 77.1764 27.5427 39.9246 0.0000 0.0000 0.0000
# 2 27.5427 77.1764 39.9246 0.0000 0.0000 0.0000
# 3 39.9246 39.9246 65.9759 0.0000 0.0000 0.0000
# 4 0.0000 0.0000 0.0000 33.4590 0.0000 0.0000
# 5 0.0000 0.0000 0.0000 0.0000 33.4590 0.0000
# 6 0.0000 0.0000 0.0000 0.0000 0.0000 23.6590
#
#
#
# Elastic Compliance Matrix: (Units=1/GPa)
#
#
# Indices 1 2 3 4 5 6 
#
# 1 0.018939 -0.001208 -0.010730 0.000000 0.000000 0.000000
# 2 -0.001208 0.018939 -0.010730 0.000000 0.000000 0.000000
# 3 -0.010730 -0.010730 0.028143 0.000000 0.000000 0.000000
# 4 0.000000 0.000000 0.000000 0.029887 0.000000 0.000000
# 5 0.000000 0.000000 0.000000 0.000000 0.029887 0.000000
# 6 0.000000 0.000000 0.000000 0.000000 0.000000 0.042267
#
#
# Mechanical properties :
#
#
# Convention : Reuss Voigt Hill
#
# Bulk Modulus (GPa) = 48.34181 48.34584 48.34383
# Shear Modulus (GPa) = 22.69698 25.64453 24.17075
#
# Velocity S-wave (km/s) = 3.45625 3.67383 3.56670
# Velocity P-wave (km/s) = 6.43199 6.59098 6.51197
#
# Compressibility (1/GPa) = 0.02068603
#
# Stress axis : x y z
#
# Youngs Moduli (GPa) = 52.80056 52.80056 35.53296
#
# Poissons Ratio (x) = 0.06380 0.38125
# Poissons Ratio (y) = 0.06380 0.38125
# Poissons Ratio (z) = 0.56653 0.56653
#
# Static dielectric constant tensor:
#      x y z
#    x 3.661200 0.000000 0.000000 
#    y 0.000000 3.661200 0.000000 
#    z 0.000000 0.000000 3.260690 
# 
# 
# High freq. dielectric constant tensor:
#      x y z
#    x 1.744890 0.000000 0.000000 
#    y 0.000000 1.744890 0.000000 
#    z 0.000000 0.000000 1.713150 
# 
# From -- ./inp_files/6177.got.cif
#   From: 2010.03.12/outbox.cif.g09.slc.cpg/sg122_4_cif.got.tgz:6177.got - 2010.04.06 16:17:16.
