data_PCOD8311590
_publ_section_title
;
Structure prediction by ZEFSAII (Michael W. Deem and Ramdas Pophale) SiO2 
 PCOD8311590
Probable space group: I -4 2 M
;
_chemical_formula_sum "Si O2"
_cell_formula_units_Z 72
_cell_length_a 21.345698
_cell_length_b 21.345698
_cell_length_c 9.484069
_cell_angle_alpha 90.000000
_cell_angle_beta 90.000000
_cell_angle_gamma 90.000000
_cell_volume 4321.310037
_symmetry_space_group_name_H-M "I -4 2 M"
_symmetry_group_IT_number 121
_symmetry_cell_setting 'tetragonal'
loop_
_space_group_symop_operation_xyz
x,y,z
y,-x,-z
-x,-y,z
-y,x,-z
x,-y,-z
-x,y,-z
-y,-x,z
y,x,z
1/2+x,1/2+y,1/2+z
1/2+y,1/2-x,1/2-z
1/2-x,1/2-y,1/2+z
1/2-y,1/2+x,1/2-z
1/2+x,1/2-y,1/2-z
1/2-x,1/2+y,1/2-z
1/2-y,1/2-x,1/2+z
1/2+y,1/2+x,1/2+z
loop_
_atom_site_type_symbol
_atom_site_label
_atom_site_fract_x
_atom_site_fract_y
_atom_site_fract_z
Si Si1 0.916958 0.185996 0.668250
Si Si2 0.234911 0.659134 0.976072
Si Si3 0.929221 0.175297 0.978766
Si Si4 0.899448 0.000000 0.500000
Si Si5 0.758348 0.346730 0.658561
O O1 0.855618 0.144383 0.660692
O O2 0.903539 0.242345 0.558772
O O3 0.978030 0.144974 0.627429
O O4 0.924425 0.210273 0.827502
O O5 0.288194 0.711807 0.970338
O O6 0.173582 0.684634 0.056995
O O7 0.216876 0.639393 0.816445
O O8 0.886715 0.113285 0.982274
O O9 0.908858 0.225361 0.096953
O O10 0.000000 0.152998 0.000000
O O11 0.942744 0.942744 0.555921
O O12 0.708978 0.291022 0.661560
#
# Coordination Sequence:
#
# PCOD8311590 Si02
#       5
#    16  16  16   8  16
#     4   9  18  30  44  62  85 116 156 199 236 271
#     4   9  16  28  48  68  85 107 144 194 243 290
#     4  10  21  33  44  62  91 126 164 200 234 273
#     4   9  18  30  44  62  88 126 169 202 224 256
#     4   9  17  29  46  66  86 110 145 190 240 289
#
# _framework density 16.661614
#
# number of rings (size 3 to 8) (size 9 to 14) (size 15 to 20)
#    0.000    2.778    0.000    1.333    3.111    6.444 
#    0.000    2.222    0.000    0.000    0.000    0.000 
#    0.000    0.000    0.000    1.000    4.000    0.667 
#
# Total GULP energy -446186.878957 kJ/mol
# GULP energy per Si atom -12394.079971 kJ/mol
# Density = 1.662369 g / cm^3
# Si number density = 16.661614 Si / 1000 Ang^3
#
#
#
# Elastic Constant Matrix: (Units=GPa)
#
#
# Indices 1 2 3 4 5 6 
#
# 1 52.2100 43.0911 44.0255 0.0000 0.0000 0.0000
# 2 43.0911 52.2097 44.0258 0.0000 0.0000 0.0000
# 3 44.0255 44.0258 153.1352 0.0000 0.0000 0.0000
# 4 0.0000 0.0000 0.0000 20.6472 0.0000 0.0000
# 5 0.0000 0.0000 0.0000 0.0000 20.6473 0.0000
# 6 0.0000 0.0000 0.0000 0.0000 0.0000 16.6796
#
#
#
# Elastic Compliance Matrix: (Units=1/GPa)
#
#
# Indices 1 2 3 4 5 6 
#
# 1 0.061976 -0.047688 -0.004108 0.000000 0.000000 0.000000
# 2 -0.047688 0.061977 -0.004108 0.000000 0.000000 0.000000
# 3 -0.004108 -0.004108 0.008892 0.000000 0.000000 0.000000
# 4 0.000000 0.000000 0.000000 0.048433 0.000000 0.000000
# 5 0.000000 0.000000 0.000000 0.000000 0.048433 0.000000
# 6 0.000000 0.000000 0.000000 0.000000 0.000000 0.059953
#
#
# Mechanical properties :
#
#
# Convention : Reuss Voigt Hill
#
# Bulk Modulus (GPa) = 47.53392 57.75997 52.64695
# Shear Modulus (GPa) = 12.24039 20.02233 16.13136
#
# Velocity S-wave (km/s) = 2.71338 3.47032 3.11493
# Velocity P-wave (km/s) = 6.19738 7.12736 6.67858
#
# Compressibility (1/GPa) = 0.02103761
#
# Stress axis : x y z
#
# Youngs Moduli (GPa) = 16.13527 16.13504 112.45865
#
# Poissons Ratio (x) = 0.76945 0.46194
# Poissons Ratio (y) = 0.76946 0.46199
# Poissons Ratio (z) = 0.06628 0.06628
#
# Static dielectric constant tensor:
#      x y z
#    x 2.871150 0.000000 0.000000 
#    y 0.000000 2.871160 0.000000 
#    z 0.000000 0.000000 3.524660 
# 
# 
# High freq. dielectric constant tensor:
#      x y z
#    x 1.598180 0.000000 0.000000 
#    y 0.000000 1.598180 0.000000 
#    z 0.000000 0.000000 1.661730 
# 
# From -- ./inp_files/1682.got.cif
#   From: 2010.03.12/outbox.cif.g09.slc.cpg/sg121_1_cif.got.tgz:1682.got - 2010.04.06 16:06:48.
