data_PCOD8311566
_publ_section_title
;
Structure prediction by ZEFSAII (Michael W. Deem and Ramdas Pophale) SiO2 
 PCOD8311566
Probable space group: I -4 2 M
;
_chemical_formula_sum "Si O2"
_cell_formula_units_Z 96
_cell_length_a 14.206271
_cell_length_b 14.206271
_cell_length_c 23.191187
_cell_angle_alpha 90.000000
_cell_angle_beta 90.000000
_cell_angle_gamma 90.000000
_cell_volume 4680.402126
_symmetry_space_group_name_H-M "I -4 2 M"
_symmetry_group_IT_number 121
_symmetry_cell_setting 'tetragonal'
loop_
_space_group_symop_operation_xyz
x,y,z
y,-x,-z
-x,-y,z
-y,x,-z
x,-y,-z
-x,y,-z
-y,-x,z
y,x,z
1/2+x,1/2+y,1/2+z
1/2+y,1/2-x,1/2-z
1/2-x,1/2-y,1/2+z
1/2-y,1/2+x,1/2-z
1/2+x,1/2-y,1/2-z
1/2-x,1/2+y,1/2-z
1/2-y,1/2-x,1/2+z
1/2+y,1/2+x,1/2+z
loop_
_atom_site_type_symbol
_atom_site_label
_atom_site_fract_x
_atom_site_fract_y
_atom_site_fract_z
Si Si1 0.000000 0.500000 0.365178
Si Si2 0.682629 0.053041 0.584077
Si Si3 0.042338 0.804942 0.913617
Si Si4 0.794879 0.645238 0.795620
Si Si5 0.195493 0.494933 0.302431
Si Si6 0.500000 0.341885 0.000000
Si Si7 0.729397 0.871698 0.979010
O O1 0.017565 0.596820 0.400914
O O2 0.909816 0.510915 0.325771
O O3 0.718703 0.110474 0.639110
O O4 0.628144 0.122140 0.539963
O O5 0.773180 0.002385 0.555766
O O6 0.090415 0.909586 0.914264
O O7 0.038371 0.768423 0.848194
O O8 0.938945 0.799828 0.941911
O O9 0.103829 0.734240 0.953189
O O10 0.703999 0.703999 0.777095
O O11 0.800675 0.554058 0.755485
O O12 0.885015 0.715148 0.788469
O O13 0.406816 0.406816 0.003777
O O14 0.766198 0.766198 0.969039
#
# Coordination Sequence:
#
# PCOD8311566 Si02
#       7
#     8  16  16  16  16   8  16
#     4  10  22  40  64  96 122 155 211 268 320 372
#     4  11  23  40  66  91 122 164 212 263 319 379
#     4  10  21  35  57  89 124 157 192 247 306 370
#     4  11  22  40  65  89 123 166 211 260 314 377
#     4  11  22  40  59  89 124 159 207 262 314 367
#     4  11  26  45  64  92 132 173 214 265 324 388
#     4  10  20  37  58  86 121 157 198 244 302 370
#
# _framework density 20.511057000000001
#
# number of rings (size 3 to 8) (size 9 to 14) (size 15 to 20)
#    0.000    1.417    3.333    4.000    2.333    1.333 
#    0.000    5.000    0.000    2.500    0.000    0.000 
#    0.000    0.000    0.000    0.000    0.000    0.000 
#
# Total GULP energy -594836.815794 kJ/mol
# GULP energy per Si atom -12392.433662 kJ/mol
# Density = 2.046437 g / cm^3
# Si number density = 20.511057 Si / 1000 Ang^3
#
#
#
# Elastic Constant Matrix: (Units=GPa)
#
#
# Indices 1 2 3 4 5 6 
#
# 1 81.7161 31.7113 24.7071 0.0000 0.0000 0.0000
# 2 31.7113 81.7158 24.7066 0.0000 0.0000 0.0000
# 3 24.7071 24.7066 92.7772 0.0000 0.0000 0.0000
# 4 0.0000 0.0000 0.0000 24.0885 0.0000 0.0000
# 5 0.0000 0.0000 0.0000 0.0000 24.0888 0.0000
# 6 0.0000 0.0000 0.0000 0.0000 0.0000 36.8130
#
#
#
# Elastic Compliance Matrix: (Units=1/GPa)
#
#
# Indices 1 2 3 4 5 6 
#
# 1 0.014986 -0.005012 -0.002656 0.000000 0.000000 0.000000
# 2 -0.005012 0.014986 -0.002656 0.000000 0.000000 0.000000
# 3 -0.002656 -0.002656 0.012193 0.000000 0.000000 0.000000
# 4 0.000000 0.000000 0.000000 0.041514 0.000000 0.000000
# 5 0.000000 0.000000 0.000000 0.000000 0.041513 0.000000
# 6 0.000000 0.000000 0.000000 0.000000 0.000000 0.027164
#
#
# Mechanical properties :
#
#
# Convention : Reuss Voigt Hill
#
# Bulk Modulus (GPa) = 46.47716 46.49543 46.48630
# Shear Modulus (GPa) = 27.75066 28.67035 28.21050
#
# Velocity S-wave (km/s) = 3.68225 3.74277 3.71264
# Velocity P-wave (km/s) = 6.38650 6.43393 6.41026
#
# Compressibility (1/GPa) = 0.02151594
#
# Stress axis : x y z
#
# Youngs Moduli (GPa) = 66.73041 66.73034 82.01392
#
# Poissons Ratio (x) = 0.33448 0.21783
# Poissons Ratio (y) = 0.33448 0.21782
# Poissons Ratio (z) = 0.17723 0.17723
#
# Static dielectric constant tensor:
#      x y z
#    x 3.817150 0.000000 0.000000 
#    y 0.000000 3.817150 0.000000 
#    z 0.000000 0.000000 3.738170 
# 
# 
# High freq. dielectric constant tensor:
#      x y z
#    x 1.796590 0.000000 0.000000 
#    y 0.000000 1.796590 0.000000 
#    z 0.000000 0.000000 1.802640 
# 
# From -- ./inp_files/6461.got.cif
#   From: 2010.03.12/outbox.cif.g09.slc.cpg/sg121_4_cif.got.tgz:6461.got - 2010.04.06 16:06:48.
