data_PCOD8311185
_publ_section_title
;
Structure prediction by ZEFSAII (Michael W. Deem and Ramdas Pophale) SiO2 
 PCOD8311185
Probable space group: I -4 C 2
;
_chemical_formula_sum "Si O2"
_cell_formula_units_Z 120
_cell_length_a 20.413613
_cell_length_b 20.413613
_cell_length_c 14.000084
_cell_angle_alpha 90.000000
_cell_angle_beta 90.000000
_cell_angle_gamma 90.000000
_cell_volume 5834.053344
_symmetry_space_group_name_H-M "I -4 C 2"
_symmetry_group_IT_number 120
_symmetry_cell_setting 'tetragonal'
loop_
_space_group_symop_operation_xyz
x,y,z
y,-x,-z
-x,-y,z
-y,x,-z
y,x,1/2-z
-y,-x,1/2-z
-x,y,1/2+z
x,-y,1/2+z
1/2+x,1/2+y,1/2+z
1/2+y,1/2-x,1/2-z
1/2-x,1/2-y,1/2+z
1/2-y,1/2+x,1/2-z
1/2+y,1/2+x,-z
1/2-y,1/2-x,-z
1/2-x,1/2+y,z
1/2+x,1/2-y,z
loop_
_atom_site_type_symbol
_atom_site_label
_atom_site_fract_x
_atom_site_fract_y
_atom_site_fract_z
Si Si1 0.904774 0.453363 0.750434
Si Si2 0.564128 0.257324 0.254361
Si Si3 0.759696 0.021776 0.957508
Si Si4 0.592488 0.407513 0.250000
Si Si5 0.411356 0.479159 0.950247
Si Si6 0.711629 0.931067 0.644510
Si Si7 0.321717 0.101314 0.924174
Si Si8 0.807710 0.702843 0.728329
O O1 0.913446 0.529962 0.758013
O O2 0.866595 0.439399 0.652286
O O3 0.860456 0.433380 0.839045
O O4 0.551684 0.244335 0.143911
O O5 0.583021 0.331896 0.278623
O O6 0.496289 0.244135 0.309374
O O7 0.624770 0.208406 0.276478
O O8 0.836121 0.018504 0.975850
O O9 0.728663 0.949449 0.972163
O O10 0.730531 0.072762 0.034078
O O11 0.547327 0.425380 0.157683
O O12 0.437451 0.553364 0.965076
O O13 0.728322 0.862033 0.695645
O O14 0.281902 0.162421 0.877186
O O15 0.374392 0.125609 0.000000
O O16 0.741329 0.741329 0.750000
#
# Coordination Sequence:
#
# PCOD8311185 Si02
#       8
#    16  16  16   8  16  16  16  16
#     4  10  20  38  62  89 127 170 218 275 330 381
#     4  11  21  44  66  95 133 181 228 272 349 410
#     4  11  23  40  66  97 131 182 223 272 348 406
#     4  10  22  41  72  92 130 188 208 283 350 410
#     4  10  23  42  65  98 131 165 225 276 336 414
#     4  11  22  40  65  91 133 174 218 278 330 399
#     4  11  23  41  66  95 131 179 229 274 340 409
#     4  11  24  43  66  99 135 175 227 287 343 407
#
# _framework density 20.56889
#
# number of rings (size 3 to 8) (size 9 to 14) (size 15 to 20)
#    0.000    1.333    3.333    4.000    0.000    2.667 
#    2.400    4.000    0.000    0.000    0.000    0.000 
#    0.000    0.000    0.000    0.000    0.000    0.000 
#
# Total GULP energy -743537.668040 kJ/mol
# GULP energy per Si atom -12392.294467 kJ/mol
# Density = 2.052207 g / cm^3
# Si number density = 20.568890 Si / 1000 Ang^3
#
#
#
# Elastic Constant Matrix: (Units=GPa)
#
#
# Indices 1 2 3 4 5 6 
#
# 1 86.8572 10.4077 21.0096 0.0000 0.0000 0.0000
# 2 10.4077 86.8562 21.0089 0.0000 0.0000 0.0000
# 3 21.0096 21.0089 89.5602 0.0000 0.0000 0.0000
# 4 0.0000 0.0000 0.0000 27.8725 0.0000 0.0000
# 5 0.0000 0.0000 0.0000 0.0000 27.8711 0.0000
# 6 0.0000 0.0000 0.0000 0.0000 0.0000 42.0228
#
#
#
# Elastic Compliance Matrix: (Units=1/GPa)
#
#
# Indices 1 2 3 4 5 6 
#
# 1 0.012261 -0.000820 -0.002684 0.000000 0.000000 0.000000
# 2 -0.000820 0.012261 -0.002684 0.000000 0.000000 0.000000
# 3 -0.002684 -0.002684 0.012425 0.000000 0.000000 0.000000
# 4 0.000000 0.000000 0.000000 0.035878 0.000000 0.000000
# 5 0.000000 0.000000 0.000000 0.000000 0.035879 0.000000
# 6 0.000000 0.000000 0.000000 0.000000 0.000000 0.023797
#
#
# Mechanical properties :
#
#
# Convention : Reuss Voigt Hill
#
# Bulk Modulus (GPa) = 40.69838 40.90290 40.80064
# Shear Modulus (GPa) = 32.66581 33.60977 33.13779
#
# Velocity S-wave (km/s) = 3.98944 4.04667 4.01816
# Velocity P-wave (km/s) = 6.40704 6.46244 6.43480
#
# Compressibility (1/GPa) = 0.02457100
#
# Stress axis : x y z
#
# Youngs Moduli (GPa) = 81.56214 81.56152 80.48412
#
# Poissons Ratio (x) = 0.06688 0.21600
# Poissons Ratio (y) = 0.06688 0.21600
# Poissons Ratio (z) = 0.21890 0.21889
#
# Static dielectric constant tensor:
#      x y z
#    x 3.966360 0.000000 0.000000 
#    y 0.000000 3.966370 0.000000 
#    z 0.000000 0.000000 3.903290 
# 
# 
# High freq. dielectric constant tensor:
#      x y z
#    x 1.813120 0.000000 0.000000 
#    y 0.000000 1.813120 0.000000 
#    z 0.000000 0.000000 1.800470 
# 
# From -- ./inp_files/3721.got.cif
#   From: 2010.03.12/outbox.cif.g09.slc.cpg/sg120_2_cif.got.tgz:3721.got - 2010.04.06 16:00:44.
