data_PCOD8311974
_publ_section_title
;
Structure prediction by ZEFSAII (Michael W. Deem and Ramdas Pophale) SiO2 
 PCOD8311974
Probable space group: I -4 2 D
;
_chemical_formula_sum "Si O2"
_cell_formula_units_Z 84
_cell_length_a 14.120258
_cell_length_b 14.120258
_cell_length_c 19.970051
_cell_angle_alpha 90.000000
_cell_angle_beta 90.000000
_cell_angle_gamma 90.000000
_cell_volume 3981.662438
_symmetry_space_group_name_H-M "I -4 2 D"
_symmetry_group_IT_number 122
_symmetry_cell_setting 'tetragonal'
loop_
_space_group_symop_operation_xyz
x,y,z
y,-x,-z
-x,-y,z
-y,x,-z
x,1/2-y,1/4-z
-x,1/2+y,1/4-z
-y,1/2-x,1/4+z
y,1/2+x,1/4+z
1/2+x,1/2+y,1/2+z
1/2+y,1/2-x,1/2-z
1/2-x,1/2-y,1/2+z
1/2-y,1/2+x,1/2-z
1/2+x,-y,3/4-z
1/2-x,y,3/4-z
1/2-y,-x,3/4+z
1/2+y,x,3/4+z
loop_
_atom_site_type_symbol
_atom_site_label
_atom_site_fract_x
_atom_site_fract_y
_atom_site_fract_z
Si Si1 0.228258 0.250000 0.625000
Si Si2 0.113347 0.175308 0.050734
Si Si3 0.648810 0.952689 0.140143
Si Si4 0.000000 0.000000 0.277691
Si Si5 0.511723 0.362422 0.340949
Si Si6 0.000000 0.500000 0.750000
Si Si7 0.910485 0.166197 0.086266
O O1 0.301575 0.249890 0.561662
O O2 0.162826 0.341011 0.628662
O O3 0.007860 0.216007 0.060392
O O4 0.120958 0.094864 0.106702
O O5 0.121883 0.143295 0.975481
O O6 0.593943 0.989109 0.074028
O O7 0.586981 0.965646 0.205761
O O8 0.748479 0.006182 0.156142
O O9 0.094006 0.026179 0.233597
O O10 0.420598 0.423246 0.363440
O O11 0.854116 0.250000 0.125000
#
# Coordination Sequence:
#
# PCOD8311974 Si02
#       7
#     8  16  16   8  16   4  16
#     4  10  24  42  68  96 130 174 218 292 334 408
#     4  11  22  40  60  93 134 176 220 270 344 404
#     4  10  26  45  71 100 132 179 232 278 349 402
#     4  11  24  45  71 100 139 176 226 294 339 406
#     4  11  24  39  66  96 135 179 221 278 343 402
#     4  10  24  52  72  96 134 176 238 288 334 404
#     4  12  24  37  62  95 138 176 224 275 337 413
#
# _framework density 21.096716000000001
#
# number of rings (size 3 to 8) (size 9 to 14) (size 15 to 20)
#    0.000    1.143    4.762    0.000    8.000    3.048 
#    0.000    0.000    0.000    0.000    0.000    0.000 
#    0.000    0.000    0.000    0.000    0.000    0.000 
#
# Total GULP energy -520358.488458 kJ/mol
# GULP energy per Si atom -12389.487820 kJ/mol
# Density = 2.104870 g / cm^3
# Si number density = 21.096716 Si / 1000 Ang^3
#
#
#
# Elastic Constant Matrix: (Units=GPa)
#
#
# Indices 1 2 3 4 5 6 
#
# 1 98.1985 21.1663 49.5731 0.0000 0.0000 0.0000
# 2 21.1663 98.1985 49.5731 0.0000 0.0000 0.0000
# 3 49.5731 49.5731 130.6222 0.0000 0.0000 0.0000
# 4 0.0000 0.0000 0.0000 15.7390 0.0000 0.0000
# 5 0.0000 0.0000 0.0000 0.0000 15.7390 0.0000
# 6 0.0000 0.0000 0.0000 0.0000 0.0000 33.8772
#
#
#
# Elastic Compliance Matrix: (Units=1/GPa)
#
#
# Indices 1 2 3 4 5 6 
#
# 1 0.012608 -0.000374 -0.004643 0.000000 0.000000 0.000000
# 2 -0.000374 0.012608 -0.004643 0.000000 0.000000 0.000000
# 3 -0.004643 -0.004643 0.011180 0.000000 0.000000 0.000000
# 4 0.000000 0.000000 0.000000 0.063537 0.000000 0.000000
# 5 0.000000 0.000000 0.000000 0.000000 0.063537 0.000000
# 6 0.000000 0.000000 0.000000 0.000000 0.000000 0.029518
#
#
# Mechanical properties :
#
#
# Convention : Reuss Voigt Hill
#
# Bulk Modulus (GPa) = 58.56132 63.07160 60.81646
# Shear Modulus (GPa) = 22.93586 26.85146 24.89366
#
# Velocity S-wave (km/s) = 3.30081 3.57147 3.43881
# Velocity P-wave (km/s) = 6.50737 6.85336 6.68261
#
# Compressibility (1/GPa) = 0.01707612
#
# Stress axis : x y z
#
# Youngs Moduli (GPa) = 79.31504 79.31504 89.44603
#
# Poissons Ratio (x) = 0.02964 0.41531
# Poissons Ratio (y) = 0.02964 0.41531
# Poissons Ratio (z) = 0.36827 0.36827
#
# Static dielectric constant tensor:
#      x y z
#    x 4.502330 0.000000 0.000000 
#    y 0.000000 4.502330 0.000000 
#    z 0.000000 0.000000 3.903550 
# 
# 
# High freq. dielectric constant tensor:
#      x y z
#    x 1.825350 0.000000 0.000000 
#    y 0.000000 1.825350 0.000000 
#    z 0.000000 0.000000 1.834040 
# 
# From -- ./inp_files/7231.got.cif
#   From: 2010.03.12/outbox.cif.g09.slc.cpg/sg122_4_cif.got.tgz:7231.got - 2010.04.06 16:17:16.
