data_PCOD8311225
_publ_section_title
;
Structure prediction by ZEFSAII (Michael W. Deem and Ramdas Pophale) SiO2 
 PCOD8311225
Probable space group: I -4 C 2
;
_chemical_formula_sum "Si O2"
_cell_formula_units_Z 96
_cell_length_a 16.682764
_cell_length_b 16.682764
_cell_length_c 16.319605
_cell_angle_alpha 90.000000
_cell_angle_beta 90.000000
_cell_angle_gamma 90.000000
_cell_volume 4541.984577
_symmetry_space_group_name_H-M "I -4 C 2"
_symmetry_group_IT_number 120
_symmetry_cell_setting 'tetragonal'
loop_
_space_group_symop_operation_xyz
x,y,z
y,-x,-z
-x,-y,z
-y,x,-z
y,x,1/2-z
-y,-x,1/2-z
-x,y,1/2+z
x,-y,1/2+z
1/2+x,1/2+y,1/2+z
1/2+y,1/2-x,1/2-z
1/2-x,1/2-y,1/2+z
1/2-y,1/2+x,1/2-z
1/2+y,1/2+x,-z
1/2-y,1/2-x,-z
1/2-x,1/2+y,z
1/2+x,1/2-y,z
loop_
_atom_site_type_symbol
_atom_site_label
_atom_site_fract_x
_atom_site_fract_y
_atom_site_fract_z
Si Si1 0.325368 0.356574 0.656255
Si Si2 0.212164 0.457492 0.007188
Si Si3 0.603478 0.922366 0.765208
Si Si4 0.884522 0.023966 0.526670
Si Si5 0.338826 0.891107 0.581638
Si Si6 0.840392 0.673995 0.119311
O O1 0.355350 0.355350 0.750000
O O2 0.384238 0.416294 0.605670
O O3 0.237005 0.390845 0.642528
O O4 0.316854 0.266897 0.621828
O O5 0.173608 0.429246 0.921356
O O6 0.295430 0.505480 0.994064
O O7 0.149337 0.518110 0.048963
O O8 0.222128 0.377628 0.064071
O O9 0.512985 0.889214 0.762607
O O10 0.632760 0.913140 0.859677
O O11 0.658220 0.866032 0.708363
O O12 0.938090 0.070885 0.457281
O O13 0.334686 0.834686 0.500000
#
# Coordination Sequence:
#
# PCOD8311225 Si02
#       6
#    16  16  16  16  16  16
#     4  11  23  40  67  96 131 173 221 281 345 405
#     4  10  22  38  64  93 124 171 220 272 336 407
#     4  11  22  39  59  87 130 173 213 268 329 392
#     4  10  21  41  67  94 128 171 224 278 339 403
#     4  11  23  39  59  94 128 169 220 269 328 405
#     4  11  21  39  62  93 125 170 218 274 334 407
#
# _framework density 21.136134999999999
#
# number of rings (size 3 to 8) (size 9 to 14) (size 15 to 20)
#    0.000    1.333    5.000    1.000    2.333    0.000 
#    0.000    1.667    0.000    0.000    0.000    0.000 
#    0.000    0.000    0.000    0.000    0.000    0.000 
#
# Total GULP energy -594629.602150 kJ/mol
# GULP energy per Si atom -12388.116711 kJ/mol
# Density = 2.108803 g / cm^3
# Si number density = 21.136135 Si / 1000 Ang^3
#
#
#
# Elastic Constant Matrix: (Units=GPa)
#
#
# Indices 1 2 3 4 5 6 
#
# 1 71.4375 3.7993 14.2078 0.0000 0.0000 0.0000
# 2 3.7993 71.4375 14.2078 0.0000 0.0000 0.0000
# 3 14.2078 14.2078 105.5307 0.0000 0.0000 0.0000
# 4 0.0000 0.0000 0.0000 31.2809 0.0000 0.0000
# 5 0.0000 0.0000 0.0000 0.0000 31.2809 0.0000
# 6 0.0000 0.0000 0.0000 0.0000 0.0000 32.4858
#
#
#
# Elastic Compliance Matrix: (Units=1/GPa)
#
#
# Indices 1 2 3 4 5 6 
#
# 1 0.014394 -0.000391 -0.001885 0.000000 0.000000 0.000000
# 2 -0.000391 0.014394 -0.001885 0.000000 0.000000 0.000000
# 3 -0.001885 -0.001885 0.009984 0.000000 0.000000 0.000000
# 4 0.000000 0.000000 0.000000 0.031968 0.000000 0.000000
# 5 0.000000 0.000000 0.000000 0.000000 0.031968 0.000000
# 6 0.000000 0.000000 0.000000 0.000000 0.000000 0.030783
#
#
# Mechanical properties :
#
#
# Convention : Reuss Voigt Hill
#
# Bulk Modulus (GPa) = 32.84162 34.75950 33.80056
# Shear Modulus (GPa) = 32.90271 33.42222 33.16246
#
# Velocity S-wave (km/s) = 3.94979 3.98085 3.96535
# Velocity P-wave (km/s) = 6.03100 6.13276 6.08210
#
# Compressibility (1/GPa) = 0.03044917
#
# Stress axis : x y z
#
# Youngs Moduli (GPa) = 69.47348 69.47348 100.16465
#
# Poissons Ratio (x) = 0.02713 0.18884
# Poissons Ratio (y) = 0.02713 0.18884
# Poissons Ratio (z) = 0.13098 0.13098
#
# Static dielectric constant tensor:
#      x y z
#    x 3.777460 0.000000 0.000000 
#    y 0.000000 3.777460 0.000000 
#    z 0.000000 0.000000 3.864130 
# 
# 
# High freq. dielectric constant tensor:
#      x y z
#    x 1.823170 0.000000 0.000000 
#    y 0.000000 1.823170 0.000000 
#    z 0.000000 0.000000 1.822460 
# 
# From -- ./inp_files/4451.got.cif
#   From: 2010.03.12/outbox.cif.g09.slc.cpg/sg120_3_cif.got.tgz:4451.got - 2010.04.06 16:00:44.
