data_PCOD8311682
_publ_section_title
;
Structure prediction by ZEFSAII (Michael W. Deem and Ramdas Pophale) SiO2 
 PCOD8311682
Probable space group: I -4 2 M
;
_chemical_formula_sum "Si O2"
_cell_formula_units_Z 96
_cell_length_a 15.406152
_cell_length_b 15.406152
_cell_length_c 22.934904
_cell_angle_alpha 90.000000
_cell_angle_beta 90.000000
_cell_angle_gamma 90.000000
_cell_volume 5443.588443
_symmetry_space_group_name_H-M "I -4 2 M"
_symmetry_group_IT_number 121
_symmetry_cell_setting 'tetragonal'
loop_
_space_group_symop_operation_xyz
x,y,z
y,-x,-z
-x,-y,z
-y,x,-z
x,-y,-z
-x,y,-z
-y,-x,z
y,x,z
1/2+x,1/2+y,1/2+z
1/2+y,1/2-x,1/2-z
1/2-x,1/2-y,1/2+z
1/2-y,1/2+x,1/2-z
1/2+x,1/2-y,1/2-z
1/2-x,1/2+y,1/2-z
1/2-y,1/2-x,1/2+z
1/2+y,1/2+x,1/2+z
loop_
_atom_site_type_symbol
_atom_site_label
_atom_site_fract_x
_atom_site_fract_y
_atom_site_fract_z
Si Si1 0.220983 0.641134 0.150952
Si Si2 0.724151 0.415830 0.603382
Si Si3 0.282177 0.862035 0.987611
Si Si4 0.561169 0.870377 0.745683
Si Si5 0.098720 0.244262 0.143040
Si Si6 0.590583 0.267723 0.027435
O O1 0.298182 0.701819 0.174814
O O2 0.139919 0.700857 0.133721
O O3 0.194871 0.574089 0.200843
O O4 0.255332 0.584145 0.096989
O O5 0.632849 0.367152 0.603335
O O6 0.756774 0.435112 0.536400
O O7 0.704476 0.502158 0.641047
O O8 0.214350 0.785651 0.000451
O O9 0.282756 0.891250 0.921359
O O10 0.377489 0.823323 0.999801
O O11 0.458888 0.887472 0.740777
O O12 0.601128 0.824191 0.688297
O O13 0.171104 0.171104 0.157825
O O14 0.655112 0.344889 0.010819
O O15 0.500000 0.293977 0.000000
#
# Coordination Sequence:
#
# PCOD8311682 Si02
#       6
#    16  16  16  16  16  16
#     4   9  18  36  57  75 102 144 181 212 271 332
#     4   9  17  34  56  77 108 139 170 214 266 325
#     4   8  17  32  51  78 107 135 168 210 262 321
#     4  11  23  37  53  76 108 142 185 235 269 305
#     4  11  21  34  55  81 108 140 178 218 266 322
#     4   9  18  32  54  80 105 138 177 221 271 328
#
# _framework density 17.635427
#
# number of rings (size 3 to 8) (size 9 to 14) (size 15 to 20)
#    0.000    2.500    1.667    3.000    2.333    0.500 
#    0.000    0.000    0.000    5.000    0.000    2.333 
#    0.000    0.000    0.000    0.000    0.000    0.000 
#
# Total GULP energy -594859.935477 kJ/mol
# GULP energy per Si atom -12392.915322 kJ/mol
# Density = 1.759529 g / cm^3
# Si number density = 17.635427 Si / 1000 Ang^3
#
#
#
# Elastic Constant Matrix: (Units=GPa)
#
#
# Indices 1 2 3 4 5 6 
#
# 1 73.7998 28.9220 34.2652 0.0000 0.0000 0.0000
# 2 28.9220 73.7997 34.2654 0.0000 0.0000 0.0000
# 3 34.2652 34.2654 77.0601 0.0000 0.0000 0.0000
# 4 0.0000 0.0000 0.0000 31.2161 0.0000 0.0000
# 5 0.0000 0.0000 0.0000 0.0000 31.2164 0.0000
# 6 0.0000 0.0000 0.0000 0.0000 0.0000 20.9089
#
#
#
# Elastic Compliance Matrix: (Units=1/GPa)
#
#
# Indices 1 2 3 4 5 6 
#
# 1 0.018062 -0.004221 -0.006154 0.000000 0.000000 0.000000
# 2 -0.004221 0.018062 -0.006155 0.000000 0.000000 0.000000
# 3 -0.006154 -0.006155 0.018450 0.000000 0.000000 0.000000
# 4 0.000000 0.000000 0.000000 0.032035 0.000000 0.000000
# 5 0.000000 0.000000 0.000000 0.000000 0.032034 0.000000
# 6 0.000000 0.000000 0.000000 0.000000 0.000000 0.047827
#
#
# Mechanical properties :
#
#
# Convention : Reuss Voigt Hill
#
# Bulk Modulus (GPa) = 46.48097 46.61829 46.54963
# Shear Modulus (GPa) = 24.18956 25.14875 24.66915
#
# Velocity S-wave (km/s) = 3.70759 3.78039 3.74417
# Velocity P-wave (km/s) = 6.68896 6.74885 6.71897
#
# Compressibility (1/GPa) = 0.02151418
#
# Stress axis : x y z
#
# Youngs Moduli (GPa) = 55.36534 55.36512 54.20013
#
# Poissons Ratio (x) = 0.23369 0.33357
# Poissons Ratio (y) = 0.23369 0.33358
# Poissons Ratio (z) = 0.34074 0.34075
#
# Static dielectric constant tensor:
#      x y z
#    x 3.146620 0.000000 0.000000 
#    y 0.000000 3.146630 0.000000 
#    z 0.000000 0.000000 3.302850 
# 
# 
# High freq. dielectric constant tensor:
#      x y z
#    x 1.669950 0.000000 0.000000 
#    y 0.000000 1.669950 0.000000 
#    z 0.000000 0.000000 1.687520 
# 
# From -- ./inp_files/6404.got.cif
#   From: 2010.03.12/outbox.cif.g09.slc.cpg/sg121_4_cif.got.tgz:6404.got - 2010.04.06 16:06:48.
