data_PCOD8311623
_publ_section_title
;
Structure prediction by ZEFSAII (Michael W. Deem and Ramdas Pophale) SiO2 
 PCOD8311623
Probable space group: I -4 2 M
;
_chemical_formula_sum "Si O2"
_cell_formula_units_Z 128
_cell_length_a 24.368109
_cell_length_b 24.368109
_cell_length_c 11.120705
_cell_angle_alpha 90.000000
_cell_angle_beta 90.000000
_cell_angle_gamma 90.000000
_cell_volume 6603.527299
_symmetry_space_group_name_H-M "I -4 2 M"
_symmetry_group_IT_number 121
_symmetry_cell_setting 'tetragonal'
loop_
_space_group_symop_operation_xyz
x,y,z
y,-x,-z
-x,-y,z
-y,x,-z
x,-y,-z
-x,y,-z
-y,-x,z
y,x,z
1/2+x,1/2+y,1/2+z
1/2+y,1/2-x,1/2-z
1/2-x,1/2-y,1/2+z
1/2-y,1/2+x,1/2-z
1/2+x,1/2-y,1/2-z
1/2-x,1/2+y,1/2-z
1/2-y,1/2-x,1/2+z
1/2+y,1/2+x,1/2+z
loop_
_atom_site_type_symbol
_atom_site_label
_atom_site_fract_x
_atom_site_fract_y
_atom_site_fract_z
Si Si1 0.149523 0.705152 0.373804
Si Si2 0.763166 0.561060 0.454795
Si Si3 0.308939 0.395009 0.255749
Si Si4 0.909134 0.741355 0.391525
Si Si5 0.637298 0.975345 0.368617
Si Si6 0.648449 0.560105 0.016240
Si Si7 0.866139 0.421205 0.705453
Si Si8 0.739440 0.348674 0.351387
O O1 0.141552 0.761286 0.302431
O O2 0.124711 0.709684 0.506362
O O3 0.121172 0.653727 0.307410
O O4 0.213944 0.695133 0.384820
O O5 0.766667 0.500000 0.500000
O O6 0.715694 0.564546 0.354717
O O7 0.822265 0.578235 0.402796
O O8 0.744811 0.599167 0.563680
O O9 0.353172 0.353172 0.313293
O O10 0.337848 0.432185 0.155917
O O11 0.958481 0.701088 0.352756
O O12 0.936133 0.797254 0.436105
O O13 0.867175 0.754117 0.285608
O O14 0.597421 0.923882 0.348909
O O15 0.625676 0.000000 0.500000
O O16 0.625877 0.019287 0.264446
O O17 0.605028 0.605028 0.970746
O O18 0.622436 0.500000 0.000000
O O19 0.680774 0.319227 0.369257
#
# Coordination Sequence:
#
# PCOD8311623 Si02
#       8
#    16  16  16  16  16  16  16  16
#     4  10  21  39  63  91 125 156 201 259 319 392
#     4  11  25  41  61  88 126 169 211 261 306 381
#     4   9  20  40  62  89 123 162 203 246 311 382
#     4  11  22  41  65  94 123 164 213 253 319 383
#     4  12  24  42  71  89 125 172 218 273 332 377
#     4  10  22  38  65  96 125 158 203 255 307 377
#     4  11  25  43  63  94 119 164 223 271 322 381
#     4  12  25  38  61  94 131 166 202 261 323 386
#
# _framework density 19.383579000000001
#
# number of rings (size 3 to 8) (size 9 to 14) (size 15 to 20)
#    0.000    1.250    2.500    3.000    7.000    1.875 
#    0.000    0.625    0.000    0.000    0.000    0.000 
#    0.000    2.250    0.000    0.000    0.000    0.000 
#
# Total GULP energy -793921.730658 kJ/mol
# GULP energy per Si atom -12405.027042 kJ/mol
# Density = 1.933946 g / cm^3
# Si number density = 19.383579 Si / 1000 Ang^3
#
#
#
# Elastic Constant Matrix: (Units=GPa)
#
#
# Indices 1 2 3 4 5 6 
#
# 1 108.1360 61.6134 44.6794 0.0000 0.0000 0.0000
# 2 61.6134 108.1323 44.6792 0.0000 0.0000 0.0000
# 3 44.6794 44.6792 83.5818 0.0000 0.0000 0.0000
# 4 0.0000 0.0000 0.0000 27.1320 0.0000 0.0000
# 5 0.0000 0.0000 0.0000 0.0000 27.1308 0.0000
# 6 0.0000 0.0000 0.0000 0.0000 0.0000 23.7750
#
#
#
# Elastic Compliance Matrix: (Units=1/GPa)
#
#
# Indices 1 2 3 4 5 6 
#
# 1 0.014847 -0.006649 -0.004382 0.000000 0.000000 0.000000
# 2 -0.006649 0.014847 -0.004382 0.000000 0.000000 0.000000
# 3 -0.004382 -0.004382 0.016650 0.000000 0.000000 0.000000
# 4 0.000000 0.000000 0.000000 0.036857 0.000000 0.000000
# 5 0.000000 0.000000 0.000000 0.000000 0.036859 0.000000
# 6 0.000000 0.000000 0.000000 0.000000 0.000000 0.042061
#
#
# Mechanical properties :
#
#
# Convention : Reuss Voigt Hill
#
# Bulk Modulus (GPa) = 64.44825 66.86599 65.65712
# Shear Modulus (GPa) = 25.23738 25.53277 25.38508
#
# Velocity S-wave (km/s) = 3.61224 3.63331 3.62279
# Velocity P-wave (km/s) = 7.12171 7.22305 7.17256
#
# Compressibility (1/GPa) = 0.01551632
#
# Stress axis : x y z
#
# Youngs Moduli (GPa) = 67.35550 67.35264 60.06170
#
# Poissons Ratio (x) = 0.44782 0.26320
# Poissons Ratio (y) = 0.44784 0.26322
# Poissons Ratio (z) = 0.29516 0.29517
#
# Static dielectric constant tensor:
#      x y z
#    x 3.551070 0.000000 0.000000 
#    y 0.000000 3.551080 0.000000 
#    z 0.000000 0.000000 3.689370 
# 
# 
# High freq. dielectric constant tensor:
#      x y z
#    x 1.751990 0.000000 0.000000 
#    y 0.000000 1.751990 0.000000 
#    z 0.000000 0.000000 1.761140 
# 
# From -- ./inp_files/3544.got.cif
#   From: 2010.03.12/outbox.cif.g09.slc.cpg/sg121_2_cif.got.tgz:3544.got - 2010.04.06 16:06:48.
