data_PCOD8311072
_publ_section_title
;
Structure prediction by ZEFSAII (Michael W. Deem and Ramdas Pophale) SiO2 
 PCOD8311072
Probable space group: I -4 M 2
;
_chemical_formula_sum "Si O2"
_cell_formula_units_Z 60
_cell_length_a 11.523094
_cell_length_b 11.523094
_cell_length_c 24.607498
_cell_angle_alpha 90.000000
_cell_angle_beta 90.000000
_cell_angle_gamma 90.000000
_cell_volume 3267.425302
_symmetry_space_group_name_H-M "I -4 M 2"
_symmetry_group_IT_number 119
_symmetry_cell_setting 'tetragonal'
loop_
_space_group_symop_operation_xyz
x,y,z
y,-x,-z
-x,-y,z
-y,x,-z
y,x,-z
-y,-x,-z
-x,y,z
x,-y,z
1/2+x,1/2+y,1/2+z
1/2+y,1/2-x,1/2-z
1/2-x,1/2-y,1/2+z
1/2-y,1/2+x,1/2-z
1/2+y,1/2+x,1/2-z
1/2-y,1/2-x,1/2-z
1/2-x,1/2+y,1/2+z
1/2+x,1/2-y,1/2+z
loop_
_atom_site_type_symbol
_atom_site_label
_atom_site_fract_x
_atom_site_fract_y
_atom_site_fract_z
Si Si1 0.750386 0.500000 0.346070
Si Si2 0.500000 0.000000 0.659405
Si Si3 0.864475 0.771086 0.886216
Si Si4 0.636366 0.261230 0.200449
Si Si5 0.241672 0.500000 0.219072
Si Si6 0.633574 0.366426 0.500000
O O1 0.673647 0.610804 0.358015
O O2 0.778624 0.500000 0.282781
O O3 0.878517 0.500000 0.375595
O O4 0.615406 0.000000 0.694447
O O5 0.798399 0.664748 0.857720
O O6 0.000000 0.753756 0.876937
O O7 0.835620 0.780372 0.950469
O O8 0.500000 0.267337 0.208302
O O9 0.688188 0.188188 0.250000
O O10 0.687563 0.389279 0.198971
O O11 0.500000 0.348991 0.519219
#
# Coordination Sequence:
#
# PCOD8311072 Si02
#       6
#     8   4  16  16   8   8
#     4  12  20  34  59  89 120 147 192 244 304 343
#     4  12  21  36  60  88 124 156 188 254 297 334
#     4  11  22  37  60  87 120 155 192 244 300 357
#     4  12  25  39  59  87 123 161 196 240 289 361
#     4  12  22  38  59  93 120 151 198 243 302 347
#     4   9  18  34  60  88 113 146 194 252 305 340
#
# _framework density 18.363081999999999
#
# number of rings (size 3 to 8) (size 9 to 14) (size 15 to 20)
#    0.000    0.667    6.667    2.800    0.000    2.933 
#    0.000    0.000    5.867    0.000    0.000    0.000 
#    0.000    0.000    0.000    0.000    0.000    0.000 
#
# Total GULP energy -371970.753168 kJ/mol
# GULP energy per Si atom -12399.025106 kJ/mol
# Density = 1.832129 g / cm^3
# Si number density = 18.363082 Si / 1000 Ang^3
#
#
#
# Elastic Constant Matrix: (Units=GPa)
#
#
# Indices 1 2 3 4 5 6 
#
# 1 131.2144 51.4633 41.8357 0.0000 0.0000 0.0000
# 2 51.4633 131.2144 41.8357 0.0000 0.0000 0.0000
# 3 41.8357 41.8357 83.0217 0.0000 0.0000 0.0000
# 4 0.0000 0.0000 0.0000 24.9009 0.0000 0.0000
# 5 0.0000 0.0000 0.0000 0.0000 24.9009 0.0000
# 6 0.0000 0.0000 0.0000 0.0000 0.0000 18.5269
#
#
#
# Elastic Compliance Matrix: (Units=1/GPa)
#
#
# Indices 1 2 3 4 5 6 
#
# 1 0.009828 -0.002711 -0.003586 0.000000 0.000000 0.000000
# 2 -0.002711 0.009828 -0.003586 0.000000 0.000000 0.000000
# 3 -0.003586 -0.003586 0.015659 0.000000 0.000000 0.000000
# 4 0.000000 0.000000 0.000000 0.040159 0.000000 0.000000
# 5 0.000000 0.000000 0.000000 0.000000 0.040159 0.000000
# 6 0.000000 0.000000 0.000000 0.000000 0.000000 0.053976
#
#
# Mechanical properties :
#
#
# Convention : Reuss Voigt Hill
#
# Bulk Modulus (GPa) = 64.31732 68.41335 66.36533
# Shear Modulus (GPa) = 25.69919 27.68680 26.69299
#
# Velocity S-wave (km/s) = 3.74505 3.88718 3.81678
# Velocity P-wave (km/s) = 7.33498 7.58180 7.45941
#
# Compressibility (1/GPa) = 0.01554791
#
# Stress axis : x y z
#
# Youngs Moduli (GPa) = 101.75158 101.75158 63.85977
#
# Poissons Ratio (x) = 0.27586 0.22901
# Poissons Ratio (y) = 0.27586 0.22901
# Poissons Ratio (z) = 0.36490 0.36490
#
# Static dielectric constant tensor:
#      x y z
#    x 3.621780 0.000000 0.000000 
#    y 0.000000 3.621780 0.000000 
#    z 0.000000 0.000000 3.431170 
# 
# 
# High freq. dielectric constant tensor:
#      x y z
#    x 1.715810 0.000000 0.000000 
#    y 0.000000 1.715810 0.000000 
#    z 0.000000 0.000000 1.695180 
# 
# From -- ./inp_files/7422.got.cif
#   From: 2010.03.12/outbox.cif.g09.slc.cpg/sg119_4_cif.got.tgz:7422.got - 2010.04.14 02:25:26.
