data_PCOD8311767
_publ_section_title
;
Structure prediction by ZEFSAII (Michael W. Deem and Ramdas Pophale) SiO2 
 PCOD8311767
Probable space group: I -4 2 D
;
_chemical_formula_sum "Si O2"
_cell_formula_units_Z 112
_cell_length_a 14.114812
_cell_length_b 14.114812
_cell_length_c 29.765777
_cell_angle_alpha 90.000000
_cell_angle_beta 90.000000
_cell_angle_gamma 90.000000
_cell_volume 5930.173773
_symmetry_space_group_name_H-M "I -4 2 D"
_symmetry_group_IT_number 122
_symmetry_cell_setting 'tetragonal'
loop_
_space_group_symop_operation_xyz
x,y,z
y,-x,-z
-x,-y,z
-y,x,-z
x,1/2-y,1/4-z
-x,1/2+y,1/4-z
-y,1/2-x,1/4+z
y,1/2+x,1/4+z
1/2+x,1/2+y,1/2+z
1/2+y,1/2-x,1/2-z
1/2-x,1/2-y,1/2+z
1/2-y,1/2+x,1/2-z
1/2+x,-y,3/4-z
1/2-x,y,3/4-z
1/2-y,-x,3/4+z
1/2+y,x,3/4+z
loop_
_atom_site_type_symbol
_atom_site_label
_atom_site_fract_x
_atom_site_fract_y
_atom_site_fract_z
Si Si1 0.335145 0.213716 0.939016
Si Si2 0.216217 0.590031 0.925405
Si Si3 0.139756 0.500611 0.233800
Si Si4 0.922337 0.635182 0.750539
Si Si5 0.066895 0.658140 0.988222
Si Si6 0.125025 0.222373 0.910903
Si Si7 0.073682 0.070048 0.321998
O O1 0.220953 0.222828 0.940468
O O2 0.363562 0.183620 0.888999
O O3 0.379863 0.312931 0.955406
O O4 0.377847 0.130662 0.970496
O O5 0.250000 0.612148 0.875000
O O6 0.308266 0.602570 0.955612
O O7 0.134006 0.661927 0.943165
O O8 0.174410 0.483109 0.931730
O O9 0.072589 0.408210 0.230166
O O10 0.240284 0.470951 0.253335
O O11 0.154528 0.549248 0.185275
O O12 0.872978 0.534533 0.744262
O O13 0.977125 0.590421 0.976799
O O14 0.087728 0.329638 0.904275
O O15 0.000000 0.000000 0.348996
#
# Coordination Sequence:
#
# PCOD8311767 Si02
#       7
#    16  16  16  16  16  16  16
#     4  10  20  36  57  83 120 149 194 242 296 354
#     4  10  21  36  58  83 116 153 198 238 286 353
#     4  10  19  35  62  87 111 146 199 242 298 357
#     4  10  22  36  52  80 119 153 187 235 294 346
#     4   9  19  38  57  85 115 156 192 244 291 353
#     4  10  20  33  60  88 111 153 198 243 299 357
#     4   9  19  33  55  85 110 150 202 231 285 352
#
# _framework density 18.886462999999999
#
# number of rings (size 3 to 8) (size 9 to 14) (size 15 to 20)
#    0.000    2.286    1.429    0.857    4.000    3.429 
#    2.571    0.000   15.714    3.429    0.000    0.000 
#    0.000    0.000    0.000    0.000    0.000    0.000 
#
# Total GULP energy -693869.963246 kJ/mol
# GULP energy per Si atom -12390.535058 kJ/mol
# Density = 1.884348 g / cm^3
# Si number density = 18.886463 Si / 1000 Ang^3
#
#
#
# Elastic Constant Matrix: (Units=GPa)
#
#
# Indices 1 2 3 4 5 6 
#
# 1 73.3662 22.6507 33.6051 0.0000 0.0000 0.0000
# 2 22.6507 73.3662 33.6051 0.0000 0.0000 0.0000
# 3 33.6051 33.6051 96.8116 0.0000 0.0000 0.0000
# 4 0.0000 0.0000 0.0000 23.0700 0.0000 0.0000
# 5 0.0000 0.0000 0.0000 0.0000 23.0700 0.0000
# 6 0.0000 0.0000 0.0000 0.0000 0.0000 37.4074
#
#
#
# Elastic Compliance Matrix: (Units=1/GPa)
#
#
# Indices 1 2 3 4 5 6 
#
# 1 0.016738 -0.002980 -0.004776 0.000000 0.000000 0.000000
# 2 -0.002980 0.016738 -0.004776 0.000000 0.000000 0.000000
# 3 -0.004776 -0.004776 0.013645 0.000000 0.000000 0.000000
# 4 0.000000 0.000000 0.000000 0.043346 0.000000 0.000000
# 5 0.000000 0.000000 0.000000 0.000000 0.043346 0.000000
# 6 0.000000 0.000000 0.000000 0.000000 0.000000 0.026733
#
#
# Mechanical properties :
#
#
# Convention : Reuss Voigt Hill
#
# Bulk Modulus (GPa) = 45.33539 47.02953 46.18246
# Shear Modulus (GPa) = 25.91204 26.95502 26.43353
#
# Velocity S-wave (km/s) = 3.70806 3.78195 3.74518
# Velocity P-wave (km/s) = 6.51070 6.63521 6.57325
#
# Compressibility (1/GPa) = 0.02205782
#
# Stress axis : x y z
#
# Youngs Moduli (GPa) = 59.74530 59.74530 73.28865
#
# Poissons Ratio (x) = 0.17805 0.34999
# Poissons Ratio (y) = 0.17805 0.34999
# Poissons Ratio (z) = 0.28531 0.28531
#
# Static dielectric constant tensor:
#      x y z
#    x 3.646110 0.000000 0.000000 
#    y 0.000000 3.646110 0.000000 
#    z 0.000000 0.000000 3.206080 
# 
# 
# High freq. dielectric constant tensor:
#      x y z
#    x 1.739140 0.000000 0.000000 
#    y 0.000000 1.739140 0.000000 
#    z 0.000000 0.000000 1.705050 
# 
# From -- ./inp_files/8810.got.cif
#   From: 2010.03.12/outbox.cif.g09.slc.cpg/sg122_5_cif.got.tgz:8810.got - 2010.04.06 16:17:16.
