data_PCOD8311942
_publ_section_title
;
Structure prediction by ZEFSAII (Michael W. Deem and Ramdas Pophale) SiO2 
 PCOD8311942
Probable space group: I -4 2 D
;
_chemical_formula_sum "Si O2"
_cell_formula_units_Z 36
_cell_length_a 13.046235
_cell_length_b 13.046235
_cell_length_c 9.672683
_cell_angle_alpha 90.000000
_cell_angle_beta 90.000000
_cell_angle_gamma 90.000000
_cell_volume 1646.331733
_symmetry_space_group_name_H-M "I -4 2 D"
_symmetry_group_IT_number 122
_symmetry_cell_setting 'tetragonal'
loop_
_space_group_symop_operation_xyz
x,y,z
y,-x,-z
-x,-y,z
-y,x,-z
x,1/2-y,1/4-z
-x,1/2+y,1/4-z
-y,1/2-x,1/4+z
y,1/2+x,1/4+z
1/2+x,1/2+y,1/2+z
1/2+y,1/2-x,1/2-z
1/2-x,1/2-y,1/2+z
1/2-y,1/2+x,1/2-z
1/2+x,-y,3/4-z
1/2-x,y,3/4-z
1/2-y,-x,3/4+z
1/2+y,x,3/4+z
loop_
_atom_site_type_symbol
_atom_site_label
_atom_site_fract_x
_atom_site_fract_y
_atom_site_fract_z
Si Si1 0.846531 0.637893 0.073528
Si Si2 0.000000 0.500000 0.250000
Si Si3 0.367550 0.410201 0.985208
O O1 0.873996 0.750000 0.125000
O O2 0.916977 0.555340 0.151915
O O3 0.725609 0.611228 0.091839
O O4 0.862757 0.646501 0.910240
O O5 0.372227 0.529740 0.940579
#
# Coordination Sequence:
#
# PCOD8311942 Si02
#       3
#    16   4  16
#     4  11  25  42  66 102 132 177 220 280 333 401
#     4  12  24  44  66 100 140 168 228 282 336 388
#     4  10  22  45  69  95 131 177 220 269 337 402
#
# _framework density 21.866793999999999
#
# number of rings (size 3 to 8) (size 9 to 14) (size 15 to 20)
#    0.000    1.333    0.000    5.333    6.222    0.000 
#   24.000    0.000    0.000    0.000    0.000    0.000 
#    0.000    0.000    0.000    0.000    0.000    0.000 
#
# Total GULP energy -223114.823499 kJ/mol
# GULP energy per Si atom -12395.267972 kJ/mol
# Density = 2.181702 g / cm^3
# Si number density = 21.866794 Si / 1000 Ang^3
#
#
#
# Elastic Constant Matrix: (Units=GPa)
#
#
# Indices 1 2 3 4 5 6 
#
# 1 138.0002 45.3137 46.1251 0.0000 0.0000 0.0000
# 2 45.3137 138.0002 46.1251 0.0000 0.0000 0.0000
# 3 46.1251 46.1251 93.0510 0.0000 0.0000 0.0000
# 4 0.0000 0.0000 0.0000 34.5325 0.0000 0.0000
# 5 0.0000 0.0000 0.0000 0.0000 34.5325 0.0000
# 6 0.0000 0.0000 0.0000 0.0000 0.0000 30.6566
#
#
#
# Elastic Compliance Matrix: (Units=1/GPa)
#
#
# Indices 1 2 3 4 5 6 
#
# 1 0.009029 -0.001760 -0.003603 0.000000 0.000000 0.000000
# 2 -0.001760 0.009029 -0.003603 0.000000 0.000000 0.000000
# 3 -0.003603 -0.003603 0.014319 0.000000 0.000000 0.000000
# 4 0.000000 0.000000 0.000000 0.028958 0.000000 0.000000
# 5 0.000000 0.000000 0.000000 0.000000 0.028958 0.000000
# 6 0.000000 0.000000 0.000000 0.000000 0.000000 0.032619
#
#
# Mechanical properties :
#
#
# Convention : Reuss Voigt Hill
#
# Bulk Modulus (GPa) = 69.23428 71.57546 70.40487
# Shear Modulus (GPa) = 34.32690 35.37684 34.85187
#
# Velocity S-wave (km/s) = 3.96639 4.02659 3.99661
# Velocity P-wave (km/s) = 7.25995 7.37709 7.31876
#
# Compressibility (1/GPa) = 0.01444371
#
# Stress axis : x y z
#
# Youngs Moduli (GPa) = 110.75890 110.75890 69.83921
#
# Poissons Ratio (x) = 0.19498 0.25162
# Poissons Ratio (y) = 0.19498 0.25162
# Poissons Ratio (z) = 0.39904 0.39904
#
# Static dielectric constant tensor:
#      x y z
#    x 4.267580 0.000000 0.000000 
#    y 0.000000 4.267580 0.000000 
#    z 0.000000 0.000000 3.631830 
# 
# 
# High freq. dielectric constant tensor:
#      x y z
#    x 1.874910 0.000000 0.000000 
#    y 0.000000 1.874910 0.000000 
#    z 0.000000 0.000000 1.847600 
# 
# From -- ./inp_files/1721.got.cif
#   From: 2010.03.12/outbox.cif.g09.slc.cpg/sg122_1_cif.got.tgz:1721.got - 2010.04.06 16:17:16.
