data_PCOD8311465
_publ_section_title
;
Structure prediction by ZEFSAII (Michael W. Deem and Ramdas Pophale) SiO2 
 PCOD8311465
Probable space group: I -4 2 M
;
_chemical_formula_sum "Si O2"
_cell_formula_units_Z 112
_cell_length_a 25.281430
_cell_length_b 25.281430
_cell_length_c 11.262503
_cell_angle_alpha 90.000000
_cell_angle_beta 90.000000
_cell_angle_gamma 90.000000
_cell_volume 7198.436708
_symmetry_space_group_name_H-M "I -4 2 M"
_symmetry_group_IT_number 121
_symmetry_cell_setting 'tetragonal'
loop_
_space_group_symop_operation_xyz
x,y,z
y,-x,-z
-x,-y,z
-y,x,-z
x,-y,-z
-x,y,-z
-y,-x,z
y,x,z
1/2+x,1/2+y,1/2+z
1/2+y,1/2-x,1/2-z
1/2-x,1/2-y,1/2+z
1/2-y,1/2+x,1/2-z
1/2+x,1/2-y,1/2-z
1/2-x,1/2+y,1/2-z
1/2-y,1/2-x,1/2+z
1/2+y,1/2+x,1/2+z
loop_
_atom_site_type_symbol
_atom_site_label
_atom_site_fract_x
_atom_site_fract_y
_atom_site_fract_z
Si Si1 0.282087 0.556384 0.992742
Si Si2 0.371402 0.286593 0.656703
Si Si3 0.057371 0.144577 0.293362
Si Si4 0.835188 0.250825 0.600598
Si Si5 0.163870 0.253005 0.925114
Si Si6 0.114572 0.970406 0.122008
Si Si7 0.604346 0.689002 0.250186
O O1 0.333516 0.545382 0.075363
O O2 0.250053 0.607902 0.035713
O O3 0.249873 0.500000 0.000000
O O4 0.298166 0.564874 0.856383
O O5 0.338537 0.338537 0.621254
O O6 0.428455 0.306125 0.705135
O O7 0.341764 0.253526 0.758575
O O8 0.374746 0.249738 0.540040
O O9 0.108502 0.108502 0.308648
O O10 0.009550 0.112029 0.235237
O O11 0.797555 0.202446 0.554389
O O12 0.810117 0.308306 0.576863
O O13 0.209404 0.209404 0.934211
O O14 0.129593 0.242342 0.806182
O O15 0.057685 0.942316 0.112542
O O16 0.160586 0.927701 0.143681
O O17 0.127218 0.000000 0.000000
O O18 0.650484 0.650484 0.202037
#
# Coordination Sequence:
#
# PCOD8311465 Si02
#       7
#    16  16  16  16  16  16  16
#     4  11  20  34  49  67  91 126 163 194 236 293
#     4   8  15  28  43  63  87 115 149 187 241 295
#     4  10  19  33  49  62  85 122 165 210 253 295
#     4   9  18  29  47  70  93 121 153 197 242 285
#     4   9  17  28  46  71  94 115 145 195 247 292
#     4  11  22  34  48  65  86 117 162 216 264 297
#     4  10  20  33  49  69  90 117 155 199 247 297
#
# _framework density 15.558935
#
# number of rings (size 3 to 8) (size 9 to 14) (size 15 to 20)
#    0.000    2.286    1.429    3.429    2.000    3.286 
#    0.000    0.000    0.000    0.000    0.000    0.000 
#    0.000    0.000    0.000    0.000    0.000   17.143 
#
# Total GULP energy -694037.332742 kJ/mol
# GULP energy per Si atom -12393.523799 kJ/mol
# Density = 1.552352 g / cm^3
# Si number density = 15.558935 Si / 1000 Ang^3
#
#
#
# Elastic Constant Matrix: (Units=GPa)
#
#
# Indices 1 2 3 4 5 6 
#
# 1 62.5885 38.9121 34.3152 0.0000 0.0000 0.0000
# 2 38.9121 62.5887 34.3153 0.0000 0.0000 0.0000
# 3 34.3152 34.3153 88.4386 0.0000 0.0000 0.0000
# 4 0.0000 0.0000 0.0000 19.0198 0.0000 0.0000
# 5 0.0000 0.0000 0.0000 0.0000 19.0196 0.0000
# 6 0.0000 0.0000 0.0000 0.0000 0.0000 19.7627
#
#
#
# Elastic Compliance Matrix: (Units=1/GPa)
#
#
# Indices 1 2 3 4 5 6 
#
# 1 0.027796 -0.014440 -0.005182 0.000000 0.000000 0.000000
# 2 -0.014440 0.027796 -0.005182 0.000000 0.000000 0.000000
# 3 -0.005182 -0.005182 0.015329 0.000000 0.000000 0.000000
# 4 0.000000 0.000000 0.000000 0.052577 0.000000 0.000000
# 5 0.000000 0.000000 0.000000 0.000000 0.052577 0.000000
# 6 0.000000 0.000000 0.000000 0.000000 0.000000 0.050600
#
#
# Mechanical properties :
#
#
# Convention : Reuss Voigt Hill
#
# Bulk Modulus (GPa) = 46.92215 47.63345 47.27780
# Shear Modulus (GPa) = 17.64360 18.63197 18.13779
#
# Velocity S-wave (km/s) = 3.37112 3.46426 3.41801
# Velocity P-wave (km/s) = 6.73615 6.83248 6.78449
#
# Compressibility (1/GPa) = 0.02131190
#
# Stress axis : x y z
#
# Youngs Moduli (GPa) = 35.97621 35.97626 65.23603
#
# Poissons Ratio (x) = 0.51949 0.33808
# Poissons Ratio (y) = 0.51949 0.33808
# Poissons Ratio (z) = 0.18644 0.18644
#
# Static dielectric constant tensor:
#      x y z
#    x 2.856340 0.000000 0.000000 
#    y 0.000000 2.856350 0.000000 
#    z 0.000000 0.000000 3.089580 
# 
# 
# High freq. dielectric constant tensor:
#      x y z
#    x 1.562020 0.000000 0.000000 
#    y 0.000000 1.562020 0.000000 
#    z 0.000000 0.000000 1.614580 
# 
# From -- ./inp_files/3509.got.cif
#   From: 2010.03.12/outbox.cif.g09.slc.cpg/sg121_2_cif.got.tgz:3509.got - 2010.04.06 16:06:48.
