data_PCOD8311355
_publ_section_title
;
Structure prediction by ZEFSAII (Michael W. Deem and Ramdas Pophale) SiO2 
 PCOD8311355
Probable space group: I -4 2 M
;
_chemical_formula_sum "Si O2"
_cell_formula_units_Z 112
_cell_length_a 16.218630
_cell_length_b 16.218630
_cell_length_c 27.726389
_cell_angle_alpha 90.000000
_cell_angle_beta 90.000000
_cell_angle_gamma 90.000000
_cell_volume 7293.259133
_symmetry_space_group_name_H-M "I -4 2 M"
_symmetry_group_IT_number 121
_symmetry_cell_setting 'tetragonal'
loop_
_space_group_symop_operation_xyz
x,y,z
y,-x,-z
-x,-y,z
-y,x,-z
x,-y,-z
-x,y,-z
-y,-x,z
y,x,z
1/2+x,1/2+y,1/2+z
1/2+y,1/2-x,1/2-z
1/2-x,1/2-y,1/2+z
1/2-y,1/2+x,1/2-z
1/2+x,1/2-y,1/2-z
1/2-x,1/2+y,1/2-z
1/2-y,1/2-x,1/2+z
1/2+y,1/2+x,1/2+z
loop_
_atom_site_type_symbol
_atom_site_label
_atom_site_fract_x
_atom_site_fract_y
_atom_site_fract_z
Si Si1 0.911114 0.603586 0.107647
Si Si2 0.110303 0.573206 0.740994
Si Si3 0.640798 0.776652 0.178071
Si Si4 0.087602 0.589655 0.632906
Si Si5 0.874587 0.749286 0.421679
Si Si6 0.797481 0.589224 0.022874
Si Si7 0.676972 0.547790 0.102670
O O1 0.853328 0.659779 0.142015
O O2 0.905678 0.510962 0.129050
O O3 0.882022 0.611401 0.051729
O O4 0.006566 0.628282 0.111133
O O5 0.107861 0.474152 0.736301
O O6 0.188412 0.605831 0.771408
O O7 0.117259 0.606091 0.686951
O O8 0.724850 0.724850 0.186775
O O9 0.570629 0.717913 0.154234
O O10 0.124336 0.662205 0.602474
O O11 0.796437 0.796437 0.400695
O O12 0.855722 0.730149 0.477958
O O13 0.952006 0.810209 0.410119
O O14 0.725004 0.597558 0.061550
O O15 0.811182 0.500000 0.000000
O O16 0.581413 0.581413 0.101923
#
# Coordination Sequence:
#
# PCOD8311355 Si02
#       7
#    16  16  16  16  16  16  16
#     4  10  17  32  50  71  91 123 158 196 240 290
#     4  11  17  29  49  69  96 126 155 192 240 291
#     4  10  18  30  48  73  96 123 162 198 233 276
#     4  11  19  30  49  71  96 123 157 193 244 292
#     4  11  21  32  43  66  99 130 163 201 242 283
#     4   9  16  30  45  64  89 122 157 198 238 276
#     4   9  17  31  47  64  90 127 171 205 231 271
#
# _framework density 15.356647000000001
#
# number of rings (size 3 to 8) (size 9 to 14) (size 15 to 20)
#    0.000    1.857    7.143    1.286    0.000    2.000 
#    0.000    0.000    0.000    2.571    0.000    0.000 
#    0.000    1.714    0.000    0.286    0.000    0.000 
#
# Total GULP energy -693749.955433 kJ/mol
# GULP energy per Si atom -12388.392061 kJ/mol
# Density = 1.532169 g / cm^3
# Si number density = 15.356647 Si / 1000 Ang^3
#
#
#
# Elastic Constant Matrix: (Units=GPa)
#
#
# Indices 1 2 3 4 5 6 
#
# 1 58.6277 42.0301 32.7233 0.0000 0.0000 0.0000
# 2 42.0301 58.6277 32.7233 0.0000 0.0000 0.0000
# 3 32.7233 32.7233 82.0179 0.0000 0.0000 0.0000
# 4 0.0000 0.0000 0.0000 -1.8343 0.0000 0.0000
# 5 0.0000 0.0000 0.0000 0.0000 -1.8343 0.0000
# 6 0.0000 0.0000 0.0000 0.0000 0.0000 18.4330
#
#
#
# Elastic Compliance Matrix: (Units=1/GPa)
#
#
# Indices 1 2 3 4 5 6 
#
# 1 0.036832 -0.023417 -0.005352 0.000000 0.000000 0.000000
# 2 -0.023417 0.036832 -0.005352 0.000000 0.000000 0.000000
# 3 -0.005352 -0.005352 0.016463 0.000000 0.000000 0.000000
# 4 0.000000 0.000000 0.000000 -0.545155 0.000000 0.000000
# 5 0.000000 0.000000 0.000000 0.000000 -0.545155 0.000000
# 6 0.000000 0.000000 0.000000 0.000000 0.000000 0.054251
#
#
# Mechanical properties :
#
#
# Convention : Reuss Voigt Hill
#
# Bulk Modulus (GPa) = 45.69577 46.02519 45.86048
# Shear Modulus (GPa) = -5.74452 9.07264 1.66406
#
# Velocity S-wave (km/s) = -1.93620 2.43327 1.04209
# Velocity P-wave (km/s) = 4.98222 6.15876 5.60146
#
# Compressibility (1/GPa) = 0.02188386
#
# Stress axis : x y z
#
# Youngs Moduli (GPa) = 27.15031 27.15031 60.74150
#
# Poissons Ratio (x) = 0.63579 0.32509
# Poissons Ratio (y) = 0.63579 0.32509
# Poissons Ratio (z) = 0.14531 0.14531
#
# Static dielectric constant tensor:
#      x y z
#    x 2.866530 0.000000 0.000000 
#    y 0.000000 2.866530 0.000000 
#    z 0.000000 0.000000 3.299760 
# 
# 
# High freq. dielectric constant tensor:
#      x y z
#    x 1.561570 0.000000 0.000000 
#    y 0.000000 1.561570 0.000000 
#    z 0.000000 0.000000 1.598860 
# 
# From -- ./inp_files/7304.got.cif
#   From: 2010.03.12/outbox.cif.g09.slc.cpg/sg121_4_cif.got.tgz:7304.got - 2010.04.06 16:06:48.
