data_PCOD8311439
_publ_section_title
;
Structure prediction by ZEFSAII (Michael W. Deem and Ramdas Pophale) SiO2 
 PCOD8311439
Probable space group: I -4 2 M
;
_chemical_formula_sum "Si O2"
_cell_formula_units_Z 80
_cell_length_a 13.781310
_cell_length_b 13.781310
_cell_length_c 23.933167
_cell_angle_alpha 90.000000
_cell_angle_beta 90.000000
_cell_angle_gamma 90.000000
_cell_volume 4545.494903
_symmetry_space_group_name_H-M "I -4 2 M"
_symmetry_group_IT_number 121
_symmetry_cell_setting 'tetragonal'
loop_
_space_group_symop_operation_xyz
x,y,z
y,-x,-z
-x,-y,z
-y,x,-z
x,-y,-z
-x,y,-z
-y,-x,z
y,x,z
1/2+x,1/2+y,1/2+z
1/2+y,1/2-x,1/2-z
1/2-x,1/2-y,1/2+z
1/2-y,1/2+x,1/2-z
1/2+x,1/2-y,1/2-z
1/2-x,1/2+y,1/2-z
1/2-y,1/2-x,1/2+z
1/2+y,1/2+x,1/2+z
loop_
_atom_site_type_symbol
_atom_site_label
_atom_site_fract_x
_atom_site_fract_y
_atom_site_fract_z
Si Si1 0.870333 0.715638 0.544351
Si Si2 0.384081 0.900264 0.263687
Si Si3 0.925187 0.772966 0.425081
Si Si4 0.348288 0.802810 0.653744
Si Si5 0.042438 0.390485 0.120339
O O1 0.770661 0.770661 0.559892
O O2 0.885059 0.711352 0.477860
O O3 0.869150 0.603752 0.564671
O O4 0.958467 0.775135 0.573544
O O5 0.485288 0.870124 0.236292
O O6 0.306453 0.851277 0.221770
O O7 0.382249 0.869277 0.328567
O O8 0.882727 0.882727 0.428070
O O9 0.889129 0.720017 0.369219
O O10 0.301138 0.698863 0.637224
O O11 0.454336 0.814139 0.625965
O O12 0.000000 0.500000 0.122033
#
# Coordination Sequence:
#
# PCOD8311439 Si02
#       5
#    16  16  16  16  16
#     4  10  20  32  49  75 105 140 179 216 258 312
#     4   9  14  27  47  68  92 127 162 208 257 302
#     4   9  18  33  49  73 109 138 171 214 261 317
#     4  10  19  31  49  75 103 135 168 210 266 315
#     4  11  18  32  53  76 103 133 169 220 262 304
#
# _framework density 17.599844000000001
#
# number of rings (size 3 to 8) (size 9 to 14) (size 15 to 20)
#    0.000    2.200    6.000    0.000    0.000    2.000 
#    0.000    2.000    0.000    0.600    0.000    0.000 
#    0.000    4.800    0.000    0.000    0.000    0.000 
#
# Total GULP energy -495588.092046 kJ/mol
# GULP energy per Si atom -12389.702301 kJ/mol
# Density = 1.755979 g / cm^3
# Si number density = 17.599844 Si / 1000 Ang^3
#
#
#
# Elastic Constant Matrix: (Units=GPa)
#
#
# Indices 1 2 3 4 5 6 
#
# 1 73.1096 34.7463 21.6253 0.0000 0.0000 0.0000
# 2 34.7463 73.1098 21.6250 0.0000 0.0000 0.0000
# 3 21.6253 21.6250 42.3482 0.0000 0.0000 0.0000
# 4 0.0000 0.0000 0.0000 19.7070 0.0000 0.0000
# 5 0.0000 0.0000 0.0000 0.0000 19.7068 0.0000
# 6 0.0000 0.0000 0.0000 0.0000 0.0000 33.8451
#
#
#
# Elastic Compliance Matrix: (Units=1/GPa)
#
#
# Indices 1 2 3 4 5 6 
#
# 1 0.018863 -0.007204 -0.005954 0.000000 0.000000 0.000000
# 2 -0.007204 0.018863 -0.005954 0.000000 0.000000 0.000000
# 3 -0.005954 -0.005954 0.029694 0.000000 0.000000 0.000000
# 4 0.000000 0.000000 0.000000 0.050743 0.000000 0.000000
# 5 0.000000 0.000000 0.000000 0.000000 0.050744 0.000000
# 6 0.000000 0.000000 0.000000 0.000000 0.000000 0.029546
#
#
# Mechanical properties :
#
#
# Convention : Reuss Voigt Hill
#
# Bulk Modulus (GPa) = 34.24944 38.28454 36.26699
# Shear Modulus (GPa) = 20.29152 22.02318 21.15735
#
# Velocity S-wave (km/s) = 3.39918 3.54125 3.47094
# Velocity P-wave (km/s) = 5.90832 6.20650 6.05924
#
# Compressibility (1/GPa) = 0.02919755
#
# Stress axis : x y z
#
# Youngs Moduli (GPa) = 53.01419 53.01466 33.67651
#
# Poissons Ratio (x) = 0.38190 0.20051
# Poissons Ratio (y) = 0.38190 0.20050
# Poissons Ratio (z) = 0.31564 0.31563
#
# Static dielectric constant tensor:
#      x y z
#    x 3.078940 0.000000 0.000000 
#    y 0.000000 3.078940 0.000000 
#    z 0.000000 0.000000 3.295250 
# 
# 
# High freq. dielectric constant tensor:
#      x y z
#    x 1.650340 0.000000 0.000000 
#    y 0.000000 1.650340 0.000000 
#    z 0.000000 0.000000 1.688250 
# 
# From -- ./inp_files/7030.got.cif
#   From: 2010.03.12/outbox.cif.g09.slc.cpg/sg121_4_cif.got.tgz:7030.got - 2010.04.06 16:06:48.
