data_PCOD8311427
_publ_section_title
;
Structure prediction by ZEFSAII (Michael W. Deem and Ramdas Pophale) SiO2 
 PCOD8311427
Probable space group: I -4 2 M
;
_chemical_formula_sum "Si O2"
_cell_formula_units_Z 120
_cell_length_a 27.435787
_cell_length_b 27.435787
_cell_length_c 10.848820
_cell_angle_alpha 90.000000
_cell_angle_beta 90.000000
_cell_angle_gamma 90.000000
_cell_volume 8166.149918
_symmetry_space_group_name_H-M "I -4 2 M"
_symmetry_group_IT_number 121
_symmetry_cell_setting 'tetragonal'
loop_
_space_group_symop_operation_xyz
x,y,z
y,-x,-z
-x,-y,z
-y,x,-z
x,-y,-z
-x,y,-z
-y,-x,z
y,x,z
1/2+x,1/2+y,1/2+z
1/2+y,1/2-x,1/2-z
1/2-x,1/2-y,1/2+z
1/2-y,1/2+x,1/2-z
1/2+x,1/2-y,1/2-z
1/2-x,1/2+y,1/2-z
1/2-y,1/2-x,1/2+z
1/2+y,1/2+x,1/2+z
loop_
_atom_site_type_symbol
_atom_site_label
_atom_site_fract_x
_atom_site_fract_y
_atom_site_fract_z
Si Si1 0.325419 0.403563 0.206149
Si Si2 0.122649 0.798356 0.040062
Si Si3 0.130507 0.948953 0.942295
Si Si4 0.737593 0.180979 0.650623
Si Si5 0.077306 0.000000 0.500000
Si Si6 0.011275 0.153894 0.310987
Si Si7 0.607024 0.313652 0.071181
Si Si8 0.227198 0.309643 0.573281
O O1 0.380679 0.380679 0.219318
O O2 0.291973 0.378504 0.311444
O O3 0.319235 0.461896 0.231360
O O4 0.303291 0.388927 0.074647
O O5 0.161591 0.838410 0.997802
O O6 0.070088 0.817546 0.993746
O O7 0.138448 0.748489 0.973985
O O8 0.087569 0.912432 0.978252
O O9 0.135082 0.954620 0.797151
O O10 0.116299 0.000000 0.000000
O O11 0.774179 0.225822 0.646723
O O12 0.767987 0.130580 0.642751
O O13 0.703320 0.185267 0.528242
O O14 0.709135 0.182853 0.783817
O O15 0.109211 0.986758 0.382696
O O16 0.046363 0.046363 0.462462
O O17 0.049245 0.183269 0.398026
O O18 0.636250 0.363751 0.103932
O O19 0.267890 0.267890 0.570820
#
# Coordination Sequence:
#
# PCOD8311427 Si02
#       8
#    16  16  16  16   8  16  16  16
#     4  10  19  30  46  62  77 104 140 175 210 253
#     4   9  18  32  46  59  79 103 130 165 209 255
#     4  11  22  33  44  57  75 102 136 175 219 263
#     4   9  18  29  44  66  85 102 124 152 196 253
#     4  11  22  32  42  56  72  94 130 178 224 262
#     4  12  20  32  46  58  75 102 137 173 216 261
#     4  10  19  30  44  61  82 103 128 163 210 258
#     4   9  17  29  45  64  84 102 123 154 196 250
#
# _framework density 14.694807000000001
#
# number of rings (size 3 to 8) (size 9 to 14) (size 15 to 20)
#    0.000    1.933    2.667    2.400    1.867    2.800 
#    0.000    0.000    0.000    0.000    0.000    0.000 
#    0.000    0.000    0.000    0.000    0.000    0.000 
#
# Total GULP energy -743322.185896 kJ/mol
# GULP energy per Si atom -12388.703098 kJ/mol
# Density = 1.466136 g / cm^3
# Si number density = 14.694807 Si / 1000 Ang^3
#
#
#
# Elastic Constant Matrix: (Units=GPa)
#
#
# Indices 1 2 3 4 5 6 
#
# 1 32.6000 23.6179 17.8648 0.0000 0.0000 0.0000
# 2 23.6179 32.5998 17.8647 0.0000 0.0000 0.0000
# 3 17.8648 17.8647 96.2042 0.0000 0.0000 0.0000
# 4 0.0000 0.0000 0.0000 19.8784 0.0000 0.0000
# 5 0.0000 0.0000 0.0000 0.0000 19.8783 0.0000
# 6 0.0000 0.0000 0.0000 0.0000 0.0000 56.3449
#
#
#
# Elastic Compliance Matrix: (Units=1/GPa)
#
#
# Indices 1 2 3 4 5 6 
#
# 1 0.065751 -0.045583 -0.003745 0.000000 0.000000 0.000000
# 2 -0.045583 0.065751 -0.003745 0.000000 0.000000 0.000000
# 3 -0.003745 -0.003745 0.011785 0.000000 0.000000 0.000000
# 4 0.000000 0.000000 0.000000 0.050306 0.000000 0.000000
# 5 0.000000 0.000000 0.000000 0.000000 0.050306 0.000000
# 6 0.000000 0.000000 0.000000 0.000000 0.000000 0.017748
#
#
# Mechanical properties :
#
#
# Convention : Reuss Voigt Hill
#
# Bulk Modulus (GPa) = 26.92424 31.12210 29.02317
# Shear Modulus (GPa) = 13.15184 26.02409 19.58796
#
# Velocity S-wave (km/s) = 2.99490 4.21286 3.65497
# Velocity P-wave (km/s) = 5.50648 6.69994 6.13231
#
# Compressibility (1/GPa) = 0.03714126
#
# Stress axis : x y z
#
# Youngs Moduli (GPa) = 15.20888 15.20880 84.85014
#
# Poissons Ratio (x) = 0.69326 0.31778
# Poissons Ratio (y) = 0.69327 0.31778
# Poissons Ratio (z) = 0.05696 0.05696
#
# Static dielectric constant tensor:
#      x y z
#    x 2.653970 0.000000 0.000000 
#    y 0.000000 2.653970 0.000000 
#    z 0.000000 0.000000 3.155260 
# 
# 
# High freq. dielectric constant tensor:
#      x y z
#    x 1.515570 0.000000 0.000000 
#    y 0.000000 1.515570 0.000000 
#    z 0.000000 0.000000 1.592220 
# 
# From -- ./inp_files/3587.got.cif
#   From: 2010.03.12/outbox.cif.g09.slc.cpg/sg121_2_cif.got.tgz:3587.got - 2010.04.06 16:06:48.
