data_PCOD8311056
_publ_section_title
;
Structure prediction by ZEFSAII (Michael W. Deem and Ramdas Pophale) SiO2 
 PCOD8311056
Probable space group: I -4 M 2
;
_chemical_formula_sum "Si O2"
_cell_formula_units_Z 96
_cell_length_a 23.525928
_cell_length_b 23.525928
_cell_length_c 9.486541
_cell_angle_alpha 90.000000
_cell_angle_beta 90.000000
_cell_angle_gamma 90.000000
_cell_volume 5250.509095
_symmetry_space_group_name_H-M "I -4 M 2"
_symmetry_group_IT_number 119
_symmetry_cell_setting 'tetragonal'
loop_
_space_group_symop_operation_xyz
x,y,z
y,-x,-z
-x,-y,z
-y,x,-z
y,x,-z
-y,-x,-z
-x,y,z
x,-y,z
1/2+x,1/2+y,1/2+z
1/2+y,1/2-x,1/2-z
1/2-x,1/2-y,1/2+z
1/2-y,1/2+x,1/2-z
1/2+y,1/2+x,1/2-z
1/2-y,1/2-x,1/2-z
1/2-x,1/2+y,1/2+z
1/2+x,1/2-y,1/2+z
loop_
_atom_site_type_symbol
_atom_site_label
_atom_site_fract_x
_atom_site_fract_y
_atom_site_fract_z
Si Si1 0.064552 0.884426 0.372039
Si Si2 0.065651 0.342322 0.570673
Si Si3 0.258424 0.434084 0.128501
Si Si4 0.376260 0.565233 0.611496
Si Si5 0.266112 0.432566 0.443820
Si Si6 0.655297 0.934937 0.103097
O O1 0.071833 0.928168 0.500000
O O2 0.076023 0.821296 0.435149
O O3 0.109267 0.897921 0.249104
O O4 0.000000 0.888987 0.312974
O O5 0.091014 0.290521 0.474994
O O6 0.072624 0.327118 0.734445
O O7 0.101635 0.399426 0.546488
O O8 0.000000 0.355353 0.533708
O O9 0.243900 0.500000 0.141068
O O10 0.260931 0.407121 0.285706
O O11 0.427758 0.572243 0.500000
O O12 0.369428 0.500000 0.657823
O O13 0.319989 0.590086 0.533329
O O14 0.272667 0.500000 0.435924
O O15 0.209574 0.412502 0.520450
O O16 0.640290 0.000000 0.068596
#
# Coordination Sequence:
#
# PCOD8311056 Si02
#       6
#    16  16  16  16  16  16
#     4  11  23  36  51  77 109 141 176 220 274 329
#     4   9  18  32  53  81 111 142 173 213 264 316
#     4   9  18  34  52  73 103 139 180 216 255 312
#     4  11  21  34  53  77 105 140 179 222 271 321
#     4   9  18  33  52  75 102 137 181 218 252 307
#     4   9  18  32  53  82 110 139 176 216 260 314
#
# _framework density 18.283942
#
# number of rings (size 3 to 8) (size 9 to 14) (size 15 to 20)
#    0.000    2.333    1.667    1.000    2.333    3.000 
#    0.000    1.667    0.000    1.000    0.000    4.667 
#    0.000    0.000    0.000    0.000    0.000    0.000 
#
# Total GULP energy -594848.163175 kJ/mol
# GULP energy per Si atom -12392.670066 kJ/mol
# Density = 1.824233 g / cm^3
# Si number density = 18.283942 Si / 1000 Ang^3
#
#
#
# Elastic Constant Matrix: (Units=GPa)
#
#
# Indices 1 2 3 4 5 6 
#
# 1 82.9587 52.1362 46.9145 0.0000 0.0000 0.0000
# 2 52.1362 82.9577 46.9138 0.0000 0.0000 0.0000
# 3 46.9145 46.9138 96.3335 0.0000 0.0000 0.0000
# 4 0.0000 0.0000 0.0000 31.8209 0.0000 0.0000
# 5 0.0000 0.0000 0.0000 0.0000 31.8209 0.0000
# 6 0.0000 0.0000 0.0000 0.0000 0.0000 10.2865
#
#
#
# Elastic Compliance Matrix: (Units=1/GPa)
#
#
# Indices 1 2 3 4 5 6 
#
# 1 0.021815 -0.010629 -0.005447 0.000000 0.000000 0.000000
# 2 -0.010629 0.021815 -0.005447 0.000000 0.000000 0.000000
# 3 -0.005447 -0.005447 0.015686 0.000000 0.000000 0.000000
# 4 0.000000 0.000000 0.000000 0.031426 0.000000 0.000000
# 5 0.000000 0.000000 0.000000 0.000000 0.031426 0.000000
# 6 0.000000 0.000000 0.000000 0.000000 0.000000 0.097215
#
#
# Mechanical properties :
#
#
# Convention : Reuss Voigt Hill
#
# Bulk Modulus (GPa) = 61.47000 61.57544 61.52272
# Shear Modulus (GPa) = 18.66691 22.53802 20.60247
#
# Velocity S-wave (km/s) = 3.19869 3.51475 3.36044
# Velocity P-wave (km/s) = 6.88003 7.08673 6.98414
#
# Compressibility (1/GPa) = 0.01626810
#
# Stress axis : x y z
#
# Youngs Moduli (GPa) = 45.84017 45.83998 63.74984
#
# Poissons Ratio (x) = 0.48725 0.34728
# Poissons Ratio (y) = 0.48725 0.34726
# Poissons Ratio (z) = 0.24971 0.24970
#
# Static dielectric constant tensor:
#      x y z
#    x 3.261360 0.000000 0.000000 
#    y 0.000000 3.261360 0.000000 
#    z 0.000000 0.000000 3.535860 
# 
# 
# High freq. dielectric constant tensor:
#      x y z
#    x 1.687350 0.000000 0.000000 
#    y 0.000000 1.687350 0.000000 
#    z 0.000000 0.000000 1.717040 
# 
# From -- ./inp_files/2699.got.cif
#   From: 2010.03.12/outbox.cif.g09.slc.cpg/sg119_2_cif.got.tgz:2699.got - 2010.04.14 02:25:26.
