data_PCOD8311733
_publ_section_title
;
Structure prediction by ZEFSAII (Michael W. Deem and Ramdas Pophale) SiO2 
 PCOD8311733
Probable space group: I -4 2 D
;
_chemical_formula_sum "Si O2"
_cell_formula_units_Z 84
_cell_length_a 14.432390
_cell_length_b 14.432390
_cell_length_c 22.605447
_cell_angle_alpha 90.000000
_cell_angle_beta 90.000000
_cell_angle_gamma 90.000000
_cell_volume 4708.576290
_symmetry_space_group_name_H-M "I -4 2 D"
_symmetry_group_IT_number 122
_symmetry_cell_setting 'tetragonal'
loop_
_space_group_symop_operation_xyz
x,y,z
y,-x,-z
-x,-y,z
-y,x,-z
x,1/2-y,1/4-z
-x,1/2+y,1/4-z
-y,1/2-x,1/4+z
y,1/2+x,1/4+z
1/2+x,1/2+y,1/2+z
1/2+y,1/2-x,1/2-z
1/2-x,1/2-y,1/2+z
1/2-y,1/2+x,1/2-z
1/2+x,-y,3/4-z
1/2-x,y,3/4-z
1/2-y,-x,3/4+z
1/2+y,x,3/4+z
loop_
_atom_site_type_symbol
_atom_site_label
_atom_site_fract_x
_atom_site_fract_y
_atom_site_fract_z
Si Si1 0.870528 0.169621 0.165122
Si Si2 0.581386 0.629967 0.670617
Si Si3 0.508125 0.842723 0.832935
Si Si4 0.602605 0.175054 0.453241
Si Si5 0.230312 0.250000 0.125000
Si Si6 0.000000 0.000000 0.000000
Si Si7 0.000000 0.000000 0.734622
O O1 0.827146 0.250000 0.125000
O O2 0.826699 0.076586 0.138054
O O3 0.843629 0.180399 0.233910
O O4 0.981568 0.174945 0.162075
O O5 0.608660 0.583361 0.608484
O O6 0.663466 0.707061 0.677152
O O7 0.573967 0.556217 0.724409
O O8 0.483801 0.746710 0.800118
O O9 0.549186 0.917153 0.786737
O O10 0.674510 0.199375 0.401898
O O11 0.558889 0.071947 0.444785
#
# Coordination Sequence:
#
# PCOD8311733 Si02
#       7
#    16  16  16  16   8   4   8
#     4  11  19  32  51  83 122 146 185 226 289 359
#     4  10  17  33  54  78 113 149 178 227 297 357
#     4  11  20  31  49  82 114 157 185 224 288 361
#     4  10  23  36  59  80 113 156 203 240 297 361
#     4  10  22  36  60  88 110 148 206 248 298 364
#     4  12  18  28  52  88 132 148 178 224 294 376
#     4  10  19  38  60  75 115 168 191 238 304 354
#
# _framework density 17.839787999999999
#
# number of rings (size 3 to 8) (size 9 to 14) (size 15 to 20)
#    0.000    1.524    6.667    1.143    0.000    4.571 
#    0.000    0.000    6.286    0.000    0.000    0.000 
#    0.000    0.000    0.000    0.000    0.000    0.000 
#
# Total GULP energy -520433.238095 kJ/mol
# GULP energy per Si atom -12391.267574 kJ/mol
# Density = 1.779918 g / cm^3
# Si number density = 17.839788 Si / 1000 Ang^3
#
#
#
# Elastic Constant Matrix: (Units=GPa)
#
#
# Indices 1 2 3 4 5 6 
#
# 1 88.4529 32.1043 29.6065 0.0000 0.0000 0.0000
# 2 32.1043 88.4529 29.6065 0.0000 0.0000 0.0000
# 3 29.6065 29.6065 60.3105 0.0000 0.0000 0.0000
# 4 0.0000 0.0000 0.0000 29.3369 0.0000 0.0000
# 5 0.0000 0.0000 0.0000 0.0000 29.3369 0.0000
# 6 0.0000 0.0000 0.0000 0.0000 0.0000 29.3141
#
#
#
# Elastic Compliance Matrix: (Units=1/GPa)
#
#
# Indices 1 2 3 4 5 6 
#
# 1 0.014338 -0.003408 -0.005366 0.000000 0.000000 0.000000
# 2 -0.003408 0.014338 -0.005366 0.000000 0.000000 0.000000
# 3 -0.005366 -0.005366 0.021849 0.000000 0.000000 0.000000
# 4 0.000000 0.000000 0.000000 0.034087 0.000000 0.000000
# 5 0.000000 0.000000 0.000000 0.000000 0.034087 0.000000
# 6 0.000000 0.000000 0.000000 0.000000 0.000000 0.034113
#
#
# Mechanical properties :
#
#
# Convention : Reuss Voigt Hill
#
# Bulk Modulus (GPa) = 44.95052 46.65010 45.80031
# Shear Modulus (GPa) = 26.52419 27.32419 26.92419
#
# Velocity S-wave (km/s) = 3.86009 3.91787 3.88908
# Velocity P-wave (km/s) = 6.71703 6.83173 6.77462
#
# Compressibility (1/GPa) = 0.02224668
#
# Stress axis : x y z
#
# Youngs Moduli (GPa) = 69.74264 69.74264 45.76897
#
# Poissons Ratio (x) = 0.23770 0.24558
# Poissons Ratio (y) = 0.23770 0.24558
# Poissons Ratio (z) = 0.37421 0.37421
#
# Static dielectric constant tensor:
#      x y z
#    x 3.275910 0.000000 0.000000 
#    y 0.000000 3.275910 0.000000 
#    z 0.000000 0.000000 3.214890 
# 
# 
# High freq. dielectric constant tensor:
#      x y z
#    x 1.675270 0.000000 0.000000 
#    y 0.000000 1.675270 0.000000 
#    z 0.000000 0.000000 1.671140 
# 
# From -- ./inp_files/7225.got.cif
#   From: 2010.03.12/outbox.cif.g09.slc.cpg/sg122_4_cif.got.tgz:7225.got - 2010.04.06 16:17:16.
