data_PCOD8311895
_publ_section_title
;
Structure prediction by ZEFSAII (Michael W. Deem and Ramdas Pophale) SiO2 
 PCOD8311895
Probable space group: I -4 2 D
;
_chemical_formula_sum "Si O2"
_cell_formula_units_Z 32
_cell_length_a 8.337142
_cell_length_b 8.337142
_cell_length_c 23.403425
_cell_angle_alpha 90.000000
_cell_angle_beta 90.000000
_cell_angle_gamma 90.000000
_cell_volume 1626.723784
_symmetry_space_group_name_H-M "I -4 2 D"
_symmetry_group_IT_number 122
_symmetry_cell_setting 'tetragonal'
loop_
_space_group_symop_operation_xyz
x,y,z
y,-x,-z
-x,-y,z
-y,x,-z
x,1/2-y,1/4-z
-x,1/2+y,1/4-z
-y,1/2-x,1/4+z
y,1/2+x,1/4+z
1/2+x,1/2+y,1/2+z
1/2+y,1/2-x,1/2-z
1/2-x,1/2-y,1/2+z
1/2-y,1/2+x,1/2-z
1/2+x,-y,3/4-z
1/2-x,y,3/4-z
1/2-y,-x,3/4+z
1/2+y,x,3/4+z
loop_
_atom_site_type_symbol
_atom_site_label
_atom_site_fract_x
_atom_site_fract_y
_atom_site_fract_z
Si Si1 0.904864 0.259072 0.740070
Si Si2 0.000000 0.000000 0.178054
Si Si3 0.750000 0.728021 0.375000
O O1 0.803965 0.407514 0.765219
O O2 0.841630 0.207719 0.678158
O O3 0.883119 0.107479 0.782087
O O4 0.883070 0.098418 0.137305
#
# Coordination Sequence:
#
# PCOD8311895 Si02
#       3
#    16   8   8
#     4   9  20  38  57  81 112 151 191 222 281 362
#     4  10  22  36  57  88 111 140 192 242 280 328
#     4  10  22  38  58  80 114 154 182 236 290 328
#
# _framework density 19.671441000000002
#
# number of rings (size 3 to 8) (size 9 to 14) (size 15 to 20)
#    0.000    2.500    0.000    0.000    0.000   18.000 
#    0.000    0.000    0.000    0.000    0.000    0.000 
#    0.000    0.000    0.000    0.000    0.000    0.000 
#
# Total GULP energy -198437.141090 kJ/mol
# GULP energy per Si atom -12402.321318 kJ/mol
# Density = 1.962667 g / cm^3
# Si number density = 19.671441 Si / 1000 Ang^3
#
#
#
# Elastic Constant Matrix: (Units=GPa)
#
#
# Indices 1 2 3 4 5 6 
#
# 1 96.1659 36.5189 75.6896 0.0000 0.0000 0.0000
# 2 36.5189 96.1659 75.6896 0.0000 0.0000 0.0000
# 3 75.6896 75.6896 167.6634 0.0000 0.0000 0.0000
# 4 0.0000 0.0000 0.0000 32.4925 0.0000 0.0000
# 5 0.0000 0.0000 0.0000 0.0000 32.4925 0.0000
# 6 0.0000 0.0000 0.0000 0.0000 0.0000 21.0308
#
#
#
# Elastic Compliance Matrix: (Units=1/GPa)
#
#
# Indices 1 2 3 4 5 6 
#
# 1 0.016153 -0.000612 -0.007016 0.000000 0.000000 0.000000
# 2 -0.000612 0.016153 -0.007016 0.000000 0.000000 0.000000
# 3 -0.007016 -0.007016 0.012299 0.000000 0.000000 0.000000
# 4 0.000000 0.000000 0.000000 0.030776 0.000000 0.000000
# 5 0.000000 0.000000 0.000000 0.000000 0.030776 0.000000
# 6 0.000000 0.000000 0.000000 0.000000 0.000000 0.047549
#
#
# Mechanical properties :
#
#
# Convention : Reuss Voigt Hill
#
# Bulk Modulus (GPa) = 65.28499 81.75461 73.51980
# Shear Modulus (GPa) = 26.58162 28.67631 27.62896
#
# Velocity S-wave (km/s) = 3.67996 3.82221 3.75176
# Velocity P-wave (km/s) = 7.16351 7.81852 7.49817
#
# Compressibility (1/GPa) = 0.01531746
#
# Stress axis : x y z
#
# Youngs Moduli (GPa) = 61.90767 61.90766 81.30966
#
# Poissons Ratio (x) = 0.03790 0.57045
# Poissons Ratio (y) = 0.03790 0.57045
# Poissons Ratio (z) = 0.43433 0.43433
#
# Static dielectric constant tensor:
#      x y z
#    x 3.624870 0.000000 0.000000 
#    y 0.000000 3.624870 0.000000 
#    z 0.000000 0.000000 3.669970 
# 
# 
# High freq. dielectric constant tensor:
#      x y z
#    x 1.767710 0.000000 0.000000 
#    y 0.000000 1.767710 0.000000 
#    z 0.000000 0.000000 1.767800 
# 
# From -- ./inp_files/6552.got.cif
#   From: 2010.03.12/outbox.cif.g09.slc.cpg/sg122_4_cif.got.tgz:6552.got - 2010.04.06 16:17:16.
