data_PCOD8311537
_publ_section_title
;
Structure prediction by ZEFSAII (Michael W. Deem and Ramdas Pophale) SiO2 
 PCOD8311537
Probable space group: I -4 2 M
;
_chemical_formula_sum "Si O2"
_cell_formula_units_Z 96
_cell_length_a 25.079016
_cell_length_b 25.079016
_cell_length_c 8.745307
_cell_angle_alpha 90.000000
_cell_angle_beta 90.000000
_cell_angle_gamma 90.000000
_cell_volume 5500.422435
_symmetry_space_group_name_H-M "I -4 2 M"
_symmetry_group_IT_number 121
_symmetry_cell_setting 'tetragonal'
loop_
_space_group_symop_operation_xyz
x,y,z
y,-x,-z
-x,-y,z
-y,x,-z
x,-y,-z
-x,y,-z
-y,-x,z
y,x,z
1/2+x,1/2+y,1/2+z
1/2+y,1/2-x,1/2-z
1/2-x,1/2-y,1/2+z
1/2-y,1/2+x,1/2-z
1/2+x,1/2-y,1/2-z
1/2-x,1/2+y,1/2-z
1/2-y,1/2-x,1/2+z
1/2+y,1/2+x,1/2+z
loop_
_atom_site_type_symbol
_atom_site_label
_atom_site_fract_x
_atom_site_fract_y
_atom_site_fract_z
Si Si1 0.242994 0.612661 0.837440
Si Si2 0.603953 0.752813 0.816299
Si Si3 0.262733 0.008131 0.830727
Si Si4 0.375882 0.952679 0.083317
Si Si5 0.281737 0.718264 0.678256
Si Si6 0.120477 0.633709 0.804072
Si Si7 0.298545 0.701456 0.323603
O O1 0.262710 0.559886 0.748867
O O2 0.266033 0.661942 0.746383
O O3 0.179354 0.614811 0.844921
O O4 0.265411 0.611426 0.009078
O O5 0.542365 0.747728 0.771977
O O6 0.623455 0.813688 0.798529
O O7 0.639604 0.714142 0.710235
O O8 0.326781 0.015378 0.840106
O O9 0.238392 0.000000 0.000000
O O10 0.406421 0.916239 0.208636
O O11 0.353040 0.911868 0.956546
O O12 0.410975 0.000000 0.000000
O O13 0.284811 0.715190 0.496620
O O14 0.237548 0.762453 0.712953
#
# Coordination Sequence:
#
# PCOD8311537 Si02
#       7
#    16  16  16  16   8  16   8
#     4  11  23  35  55  80 109 145 185 230 277 341
#     4  12  21  37  53  82 109 144 185 228 280 339
#     4  10  20  35  57  77 107 139 189 230 273 338
#     4  10  20  35  52  78  96 137 179 238 282 339
#     4  12  24  36  50  80 116 149 182 219 292 346
#     4  11  20  32  53  76 102 131 181 227 279 333
#     4  12  26  34  54  78 120 151 178 231 286 350
#
# _framework density 17.453205000000001
#
# number of rings (size 3 to 8) (size 9 to 14) (size 15 to 20)
#    0.000    1.000    6.667    3.000    2.333    0.000 
#    0.000    0.833    0.000    1.500    0.000    0.000 
#    0.000    0.667    0.000    6.667    0.000    4.000 
#
# Total GULP energy -595038.944304 kJ/mol
# GULP energy per Si atom -12396.644673 kJ/mol
# Density = 1.741348 g / cm^3
# Si number density = 17.453205 Si / 1000 Ang^3
#
#
#
# Elastic Constant Matrix: (Units=GPa)
#
#
# Indices 1 2 3 4 5 6 
#
# 1 69.4610 28.3628 14.5382 0.0000 0.0000 0.0000
# 2 28.3628 69.4573 14.5380 0.0000 0.0000 0.0000
# 3 14.5382 14.5380 89.7867 0.0000 0.0000 0.0000
# 4 0.0000 0.0000 0.0000 24.9505 0.0000 0.0000
# 5 0.0000 0.0000 0.0000 0.0000 24.9487 0.0000
# 6 0.0000 0.0000 0.0000 0.0000 0.0000 13.3091
#
#
#
# Elastic Compliance Matrix: (Units=1/GPa)
#
#
# Indices 1 2 3 4 5 6 
#
# 1 0.017536 -0.006797 -0.001739 0.000000 0.000000 0.000000
# 2 -0.006797 0.017537 -0.001739 0.000000 0.000000 0.000000
# 3 -0.001739 -0.001739 0.011701 0.000000 0.000000 0.000000
# 4 0.000000 0.000000 0.000000 0.040079 0.000000 0.000000
# 5 0.000000 0.000000 0.000000 0.000000 0.040082 0.000000
# 6 0.000000 0.000000 0.000000 0.000000 0.000000 0.075137
#
#
# Mechanical properties :
#
#
# Convention : Reuss Voigt Hill
#
# Bulk Modulus (GPa) = 38.13302 38.17588 38.15445
# Shear Modulus (GPa) = 21.61114 24.05939 22.83526
#
# Velocity S-wave (km/s) = 3.52267 3.71685 3.62106
# Velocity P-wave (km/s) = 6.20014 6.35144 6.27625
#
# Compressibility (1/GPa) = 0.02622399
#
# Stress axis : x y z
#
# Youngs Moduli (GPa) = 57.02615 57.02308 85.46542
#
# Poissons Ratio (x) = 0.38757 0.14861
# Poissons Ratio (y) = 0.38759 0.14862
# Poissons Ratio (z) = 0.09916 0.09916
#
# Static dielectric constant tensor:
#      x y z
#    x 3.162830 0.000000 0.000000 
#    y 0.000000 3.162870 0.000000 
#    z 0.000000 0.000000 3.491600 
# 
# 
# High freq. dielectric constant tensor:
#      x y z
#    x 1.644040 0.000000 0.000000 
#    y 0.000000 1.644040 0.000000 
#    z 0.000000 0.000000 1.697980 
# 
# From -- ./inp_files/1997.got.cif
#   From: 2010.03.12/outbox.cif.g09.slc.cpg/sg121_1_cif.got.tgz:1997.got - 2010.04.06 16:06:48.
