data_PCOD8311615
_publ_section_title
;
Structure prediction by ZEFSAII (Michael W. Deem and Ramdas Pophale) SiO2 
 PCOD8311615
Probable space group: I -4 2 M
;
_chemical_formula_sum "Si O2"
_cell_formula_units_Z 80
_cell_length_a 12.235776
_cell_length_b 12.235776
_cell_length_c 25.925688
_cell_angle_alpha 90.000000
_cell_angle_beta 90.000000
_cell_angle_gamma 90.000000
_cell_volume 3881.444010
_symmetry_space_group_name_H-M "I -4 2 M"
_symmetry_group_IT_number 121
_symmetry_cell_setting 'tetragonal'
loop_
_space_group_symop_operation_xyz
x,y,z
y,-x,-z
-x,-y,z
-y,x,-z
x,-y,-z
-x,y,-z
-y,-x,z
y,x,z
1/2+x,1/2+y,1/2+z
1/2+y,1/2-x,1/2-z
1/2-x,1/2-y,1/2+z
1/2-y,1/2+x,1/2-z
1/2+x,1/2-y,1/2-z
1/2-x,1/2+y,1/2-z
1/2-y,1/2-x,1/2+z
1/2+y,1/2+x,1/2+z
loop_
_atom_site_type_symbol
_atom_site_label
_atom_site_fract_x
_atom_site_fract_y
_atom_site_fract_z
Si Si1 0.520525 0.178281 0.113466
Si Si2 0.774936 0.400449 0.565071
Si Si3 0.585647 0.414354 0.113948
Si Si4 0.588692 0.411309 0.236451
Si Si5 0.669094 0.978285 0.267397
Si Si6 0.690856 0.136933 0.949804
O O1 0.629719 0.106715 0.107610
O O2 0.550143 0.297884 0.092128
O O3 0.486169 0.178302 0.173043
O O4 0.424266 0.130394 0.078754
O O5 0.669275 0.330725 0.581722
O O6 0.825677 0.356405 0.511271
O O7 0.740164 0.526971 0.562040
O O8 0.500000 0.500000 0.091950
O O9 0.588976 0.411025 0.175283
O O10 0.500000 0.500000 0.257339
O O11 0.555894 0.288497 0.255130
O O12 0.584975 0.876653 0.262261
O O13 0.760182 0.239819 0.929120
#
# Coordination Sequence:
#
# PCOD8311615 Si02
#       6
#    16  16   8   8  16  16
#     4  11  20  38  62  85 120 158 196 250 306 367
#     4  10  21  38  60  88 122 159 201 243 300 362
#     4   9  18  34  58  88 113 152 196 238 309 363
#     4   9  20  40  64  85 116 155 203 258 311 367
#     4  10  24  40  60  91 119 161 209 260 315 366
#     4  10  22  37  60  91 119 157 203 248 298 364
#
# _framework density 20.610887000000002
#
# number of rings (size 3 to 8) (size 9 to 14) (size 15 to 20)
#    0.000    2.000    1.000    1.800    7.000    2.800 
#    0.000    2.000    0.000    0.000    0.000    0.000 
#    0.000    0.000    0.000    0.000    0.000    0.000 
#
# Total GULP energy -495957.992294 kJ/mol
# GULP energy per Si atom -12398.949807 kJ/mol
# Density = 2.056398 g / cm^3
# Si number density = 20.610887 Si / 1000 Ang^3
#
#
#
# Elastic Constant Matrix: (Units=GPa)
#
#
# Indices 1 2 3 4 5 6 
#
# 1 117.3613 49.5357 8.1247 0.0000 0.0000 0.0000
# 2 49.5357 117.3549 8.1234 0.0000 0.0000 0.0000
# 3 8.1247 8.1234 34.5363 0.0000 0.0000 0.0000
# 4 0.0000 0.0000 0.0000 20.0217 0.0000 0.0000
# 5 0.0000 0.0000 0.0000 0.0000 20.0215 0.0000
# 6 0.0000 0.0000 0.0000 0.0000 0.0000 32.8713
#
#
#
# Elastic Compliance Matrix: (Units=1/GPa)
#
#
# Indices 1 2 3 4 5 6 
#
# 1 0.010438 -0.004306 -0.001443 0.000000 0.000000 0.000000
# 2 -0.004306 0.010439 -0.001442 0.000000 0.000000 0.000000
# 3 -0.001443 -0.001442 0.029634 0.000000 0.000000 0.000000
# 4 0.000000 0.000000 0.000000 0.049946 0.000000 0.000000
# 5 0.000000 0.000000 0.000000 0.000000 0.049946 0.000000
# 6 0.000000 0.000000 0.000000 0.000000 0.000000 0.030422
#
#
# Mechanical properties :
#
#
# Convention : Reuss Voigt Hill
#
# Bulk Modulus (GPa) = 27.67921 44.53557 36.10739
# Shear Modulus (GPa) = 24.12557 28.14748 26.13652
#
# Velocity S-wave (km/s) = 3.42501 3.69949 3.56489
# Velocity P-wave (km/s) = 5.39439 6.31689 5.87378
#
# Compressibility (1/GPa) = 0.03612819
#
# Stress axis : x y z
#
# Youngs Moduli (GPa) = 95.80321 95.79835 33.74539
#
# Poissons Ratio (x) = 0.41251 0.04868
# Poissons Ratio (y) = 0.41253 0.04867
# Poissons Ratio (z) = 0.13822 0.13817
#
# Static dielectric constant tensor:
#      x y z
#    x 3.808800 0.000000 0.000000 
#    y 0.000000 3.808820 0.000000 
#    z 0.000000 0.000000 3.395970 
# 
# 
# High freq. dielectric constant tensor:
#      x y z
#    x 1.811410 0.000000 0.000000 
#    y 0.000000 1.811420 0.000000 
#    z 0.000000 0.000000 1.778230 
# 
# From -- ./inp_files/8086.got.cif
#   From: 2010.03.12/outbox.cif.g09.slc.cpg/sg121_5_cif.got.tgz:8086.got - 2010.04.06 16:06:48.
