data_PCOD8311237
_publ_section_title
;
Structure prediction by ZEFSAII (Michael W. Deem and Ramdas Pophale) SiO2 
 PCOD8311237
Probable space group: I -4 C 2
;
_chemical_formula_sum "Si O2"
_cell_formula_units_Z 88
_cell_length_a 14.300269
_cell_length_b 14.300269
_cell_length_c 20.016861
_cell_angle_alpha 90.000000
_cell_angle_beta 90.000000
_cell_angle_gamma 90.000000
_cell_volume 4093.401905
_symmetry_space_group_name_H-M "I -4 C 2"
_symmetry_group_IT_number 120
_symmetry_cell_setting 'tetragonal'
loop_
_space_group_symop_operation_xyz
x,y,z
y,-x,-z
-x,-y,z
-y,x,-z
y,x,1/2-z
-y,-x,1/2-z
-x,y,1/2+z
x,-y,1/2+z
1/2+x,1/2+y,1/2+z
1/2+y,1/2-x,1/2-z
1/2-x,1/2-y,1/2+z
1/2-y,1/2+x,1/2-z
1/2+y,1/2+x,-z
1/2-y,1/2-x,-z
1/2-x,1/2+y,z
1/2+x,1/2-y,z
loop_
_atom_site_type_symbol
_atom_site_label
_atom_site_fract_x
_atom_site_fract_y
_atom_site_fract_z
Si Si1 0.464714 0.210775 0.219190
Si Si2 0.630116 0.421795 0.489302
Si Si3 0.768810 0.231191 0.250000
Si Si4 0.633969 0.726607 0.641781
Si Si5 0.399425 0.042053 0.157621
Si Si6 0.092797 0.677804 0.438528
O O1 0.380396 0.260636 0.258003
O O2 0.540821 0.280895 0.187693
O O3 0.415566 0.153532 0.158324
O O4 0.516936 0.142497 0.270169
O O5 0.534283 0.378230 0.517693
O O6 0.650335 0.376035 0.416799
O O7 0.714465 0.394737 0.538961
O O8 0.710742 0.273501 0.313243
O O9 0.646462 0.831537 0.615591
O O10 0.500000 0.000000 0.145953
O O11 0.334118 0.008986 0.095833
O O12 0.106446 0.606446 0.500000
#
# Coordination Sequence:
#
# PCOD8311237 Si02
#       6
#    16  16   8  16  16  16
#     4  12  22  38  61  95 134 172 202 276 344 396
#     4  10  25  47  65  84 128 188 225 268 328 391
#     4  12  24  38  68 100 132 170 214 278 334 406
#     4  11  24  42  63 100 130 164 231 271 339 401
#     4  12  18  37  62  89 129 166 198 263 350 392
#     4  10  22  40  60  91 126 160 218 275 315 402
#
# _framework density 21.498010000000001
#
# number of rings (size 3 to 8) (size 9 to 14) (size 15 to 20)
#    0.000    0.909    7.273    0.000    5.091    0.364 
#    0.000    0.000    0.000    0.000    0.000    0.000 
#    0.000    0.000    0.000    0.000    0.000    0.000 
#
# Total GULP energy -545322.943478 kJ/mol
# GULP energy per Si atom -12393.703261 kJ/mol
# Density = 2.144908 g / cm^3
# Si number density = 21.498010 Si / 1000 Ang^3
#
#
#
# Elastic Constant Matrix: (Units=GPa)
#
#
# Indices 1 2 3 4 5 6 
#
# 1 59.6147 -1.7388 3.2572 0.0000 0.0000 0.0000
# 2 -1.7388 59.6141 3.2577 0.0000 0.0000 0.0000
# 3 3.2572 3.2577 75.0034 0.0000 0.0000 0.0000
# 4 0.0000 0.0000 0.0000 24.3090 0.0000 0.0000
# 5 0.0000 0.0000 0.0000 0.0000 24.3089 0.0000
# 6 0.0000 0.0000 0.0000 0.0000 0.0000 27.3029
#
#
#
# Elastic Compliance Matrix: (Units=1/GPa)
#
#
# Indices 1 2 3 4 5 6 
#
# 1 0.016831 0.000532 -0.000754 0.000000 0.000000 0.000000
# 2 0.000532 0.016831 -0.000754 0.000000 0.000000 0.000000
# 3 -0.000754 -0.000754 0.013398 0.000000 0.000000 0.000000
# 4 0.000000 0.000000 0.000000 0.041137 0.000000 0.000000
# 5 0.000000 0.000000 0.000000 0.000000 0.041137 0.000000
# 6 0.000000 0.000000 0.000000 0.000000 0.000000 0.036626
#
#
# Mechanical properties :
#
#
# Convention : Reuss Voigt Hill
#
# Bulk Modulus (GPa) = 22.16877 22.64271 22.40574
# Shear Modulus (GPa) = 27.32996 27.81456 27.57226
#
# Velocity S-wave (km/s) = 3.56937 3.60087 3.58516
# Velocity P-wave (km/s) = 5.22700 5.27671 5.25192
#
# Compressibility (1/GPa) = 0.04510850
#
# Stress axis : x y z
#
# Youngs Moduli (GPa) = 59.41381 59.41313 74.63674
#
# Poissons Ratio (x) = -0.03162 0.05628
# Poissons Ratio (y) = -0.03162 0.05629
# Poissons Ratio (z) = 0.04480 0.04481
#
# Static dielectric constant tensor:
#      x y z
#    x 3.884100 0.000000 0.000000 
#    y 0.000000 3.884110 0.000000 
#    z 0.000000 0.000000 4.021810 
# 
# 
# High freq. dielectric constant tensor:
#      x y z
#    x 1.834640 0.000000 0.000000 
#    y 0.000000 1.834640 0.000000 
#    z 0.000000 0.000000 1.841120 
# 
# From -- ./inp_files/5260.got.cif
#   From: 2010.03.12/outbox.cif.g09.slc.cpg/sg120_3_cif.got.tgz:5260.got - 2010.04.06 16:00:44.
