data_PCOD8311866
_publ_section_title
;
Structure prediction by ZEFSAII (Michael W. Deem and Ramdas Pophale) SiO2 
 PCOD8311866
Probable space group: I -4 2 D
;
_chemical_formula_sum "Si O2"
_cell_formula_units_Z 96
_cell_length_a 14.018448
_cell_length_b 14.018448
_cell_length_c 23.587576
_cell_angle_alpha 90.000000
_cell_angle_beta 90.000000
_cell_angle_gamma 90.000000
_cell_volume 4635.356944
_symmetry_space_group_name_H-M "I -4 2 D"
_symmetry_group_IT_number 122
_symmetry_cell_setting 'tetragonal'
loop_
_space_group_symop_operation_xyz
x,y,z
y,-x,-z
-x,-y,z
-y,x,-z
x,1/2-y,1/4-z
-x,1/2+y,1/4-z
-y,1/2-x,1/4+z
y,1/2+x,1/4+z
1/2+x,1/2+y,1/2+z
1/2+y,1/2-x,1/2-z
1/2-x,1/2-y,1/2+z
1/2-y,1/2+x,1/2-z
1/2+x,-y,3/4-z
1/2-x,y,3/4-z
1/2-y,-x,3/4+z
1/2+y,x,3/4+z
loop_
_atom_site_type_symbol
_atom_site_label
_atom_site_fract_x
_atom_site_fract_y
_atom_site_fract_z
Si Si1 0.098352 0.051286 0.847296
Si Si2 0.791556 0.947409 0.957558
Si Si3 0.379198 0.253514 0.481674
Si Si4 0.828274 0.248017 0.424350
Si Si5 0.089572 0.124208 0.492952
Si Si6 0.544974 0.764376 0.364047
O O1 0.141387 0.016715 0.906754
O O2 0.178672 0.031598 0.800731
O O3 0.086221 0.162613 0.851080
O O4 0.000000 0.000000 0.831305
O O5 0.800776 0.836231 0.972494
O O6 0.814673 0.024376 0.005691
O O7 0.338386 0.184015 0.531853
O O8 0.411301 0.198196 0.424274
O O9 0.750000 0.252866 0.375000
O O10 0.816591 0.153222 0.462447
O O11 0.930141 0.243288 0.392189
O O12 0.093896 0.165694 0.430346
O O13 0.982188 0.128599 0.515454
#
# Coordination Sequence:
#
# PCOD8311866 Si02
#       6
#    16  16  16  16  16  16
#     4  10  21  37  57  83 123 169 208 263 314 389
#     4  10  23  35  57  88 119 167 213 254 323 385
#     4  11  23  38  61  92 130 169 211 269 322 401
#     4  11  23  39  65  95 128 164 221 274 322 398
#     4   9  20  43  68  90 122 164 211 272 333 390
#     4  10  22  40  62  92 127 171 215 264 337 391
#
# _framework density 20.710380000000001
#
# number of rings (size 3 to 8) (size 9 to 14) (size 15 to 20)
#    0.000    1.833    0.000    3.000    9.333    2.000 
#    6.000    0.000   14.667    0.000    0.000    0.000 
#    0.000    0.000    0.000    0.000    0.000    0.000 
#
# Total GULP energy -594673.249804 kJ/mol
# GULP energy per Si atom -12389.026038 kJ/mol
# Density = 2.066324 g / cm^3
# Si number density = 20.710380 Si / 1000 Ang^3
#
#
#
# Elastic Constant Matrix: (Units=GPa)
#
#
# Indices 1 2 3 4 5 6 
#
# 1 23.4722 95.7358 58.3495 0.0000 0.0000 0.0000
# 2 95.7358 23.4722 58.3495 0.0000 0.0000 0.0000
# 3 58.3495 58.3495 143.2008 0.0000 0.0000 0.0000
# 4 0.0000 0.0000 0.0000 27.7056 0.0000 0.0000
# 5 0.0000 0.0000 0.0000 0.0000 27.7056 0.0000
# 6 0.0000 0.0000 0.0000 0.0000 0.0000 23.2776
#
#
#
# Elastic Compliance Matrix: (Units=1/GPa)
#
#
# Indices 1 2 3 4 5 6 
#
# 1 0.000059 0.013897 -0.005686 0.000000 0.000000 0.000000
# 2 0.013897 0.000059 -0.005686 0.000000 0.000000 0.000000
# 3 -0.005686 -0.005686 0.011617 0.000000 0.000000 0.000000
# 4 0.000000 0.000000 0.000000 0.036094 0.000000 0.000000
# 5 0.000000 0.000000 0.000000 0.000000 0.036094 0.000000
# 6 0.000000 0.000000 0.000000 0.000000 0.000000 0.042960
#
#
# Mechanical properties :
#
#
# Convention : Reuss Voigt Hill
#
# Bulk Modulus (GPa) = 59.58576 68.33501 63.96039
# Shear Modulus (GPa) = 39.23793 14.25176 26.74485
#
# Velocity S-wave (km/s) = 4.35742 2.62610 3.59747
# Velocity P-wave (km/s) = 7.35864 6.50095 6.94305
#
# Compressibility (1/GPa) = 0.01678253
#
# Stress axis : x y z
#
# Youngs Moduli (GPa) = 17076.25143 17076.27398 86.07940
#
# Poissons Ratio (x) = -237.30530 0.48948
# Poissons Ratio (y) = -237.30498 0.48948
# Poissons Ratio (z) = 97.10128 97.10141
#
# Static dielectric constant tensor:
#      x y z
#    x 4.042130 0.000000 0.000000 
#    y 0.000000 4.042130 0.000000 
#    z 0.000000 0.000000 4.179020 
# 
# 
# High freq. dielectric constant tensor:
#      x y z
#    x 1.812970 0.000000 0.000000 
#    y 0.000000 1.812970 0.000000 
#    z 0.000000 0.000000 1.810530 
# 
# From -- ./inp_files/7284.got.cif
#   From: 2010.03.12/outbox.cif.g09.slc.cpg/sg122_4_cif.got.tgz:7284.got - 2010.04.06 16:17:16.
