data_PCOD8311156
_publ_section_title
;
Structure prediction by ZEFSAII (Michael W. Deem and Ramdas Pophale) SiO2 
 PCOD8311156
Probable space group: I -4 C 2
;
_chemical_formula_sum "Si O2"
_cell_formula_units_Z 96
_cell_length_a 26.664291
_cell_length_b 26.664291
_cell_length_c 9.217223
_cell_angle_alpha 90.000000
_cell_angle_beta 90.000000
_cell_angle_gamma 90.000000
_cell_volume 6553.301898
_symmetry_space_group_name_H-M "I -4 C 2"
_symmetry_group_IT_number 120
_symmetry_cell_setting 'tetragonal'
loop_
_space_group_symop_operation_xyz
x,y,z
y,-x,-z
-x,-y,z
-y,x,-z
y,x,1/2-z
-y,-x,1/2-z
-x,y,1/2+z
x,-y,1/2+z
1/2+x,1/2+y,1/2+z
1/2+y,1/2-x,1/2-z
1/2-x,1/2-y,1/2+z
1/2-y,1/2+x,1/2-z
1/2+y,1/2+x,-z
1/2-y,1/2-x,-z
1/2-x,1/2+y,z
1/2+x,1/2-y,z
loop_
_atom_site_type_symbol
_atom_site_label
_atom_site_fract_x
_atom_site_fract_y
_atom_site_fract_z
Si Si1 0.998282 0.420307 0.463550
Si Si2 0.325950 0.258224 0.836022
Si Si3 0.187096 0.395594 0.170965
Si Si4 0.813114 0.604647 0.829976
Si Si5 0.325964 0.741686 0.663731
Si Si6 0.501511 0.148721 0.714241
O O1 0.041841 0.458160 0.500000
O O2 0.005457 0.367462 0.546390
O O3 0.944002 0.444002 0.500000
O O4 0.000646 0.405149 0.295799
O O5 0.307633 0.307633 0.750000
O O6 0.373020 0.235068 0.751174
O O7 0.281423 0.218527 0.840609
O O8 0.341719 0.273014 0.999834
O O9 0.137487 0.362749 0.203173
O O10 0.235278 0.373133 0.251739
O O11 0.180744 0.451214 0.234143
O O12 0.198356 0.396890 0.000557
O O13 0.820014 0.549326 0.763723
O O14 0.307689 0.692312 0.750000
#
# Coordination Sequence:
#
# PCOD8311156 Si02
#       6
#    16  16  16  16  16  16
#     4  11  22  34  46  58  76 108 152 198 238 273
#     4   9  17  29  47  68  86 105 131 167 214 268
#     4  10  20  33  46  61  84 112 143 183 227 270
#     4  10  20  33  46  61  84 112 143 183 227 270
#     4   9  17  29  47  68  86 105 131 167 214 268
#     4  12  22  33  46  62  84 112 148 191 236 276
#
# _framework density 14.649105
#
# number of rings (size 3 to 8) (size 9 to 14) (size 15 to 20)
#    0.000    1.833    1.667    4.000    2.333    5.333 
#    0.000    0.000    0.000    0.000    0.000    0.000 
#    0.000    0.000    0.000    0.000    0.000    0.833 
#
# Total GULP energy -595228.951212 kJ/mol
# GULP energy per Si atom -12400.603150 kJ/mol
# Density = 1.461576 g / cm^3
# Si number density = 14.649105 Si / 1000 Ang^3
#
#
#
# Elastic Constant Matrix: (Units=GPa)
#
#
# Indices 1 2 3 4 5 6 
#
# 1 70.9446 53.6727 41.8871 0.0000 0.0000 0.0000
# 2 53.6727 70.9451 41.8875 0.0000 0.0000 0.0000
# 3 41.8871 41.8875 89.8120 0.0000 0.0000 0.0000
# 4 0.0000 0.0000 0.0000 23.2704 0.0000 0.0000
# 5 0.0000 0.0000 0.0000 0.0000 23.2705 0.0000
# 6 0.0000 0.0000 0.0000 0.0000 0.0000 28.9245
#
#
#
# Elastic Compliance Matrix: (Units=1/GPa)
#
#
# Indices 1 2 3 4 5 6 
#
# 1 0.034793 -0.023103 -0.005452 0.000000 0.000000 0.000000
# 2 -0.023103 0.034793 -0.005452 0.000000 0.000000 0.000000
# 3 -0.005452 -0.005452 0.016220 0.000000 0.000000 0.000000
# 4 0.000000 0.000000 0.000000 0.042973 0.000000 0.000000
# 5 0.000000 0.000000 0.000000 0.000000 0.042973 0.000000
# 6 0.000000 0.000000 0.000000 0.000000 0.000000 0.034573
#
#
# Mechanical properties :
#
#
# Convention : Reuss Voigt Hill
#
# Bulk Modulus (GPa) = 56.20694 56.28847 56.24771
# Shear Modulus (GPa) = 17.83997 21.37672 19.60835
#
# Velocity S-wave (km/s) = 3.49351 3.82416 3.66257
# Velocity P-wave (km/s) = 7.39763 7.61622 7.50772
#
# Compressibility (1/GPa) = 0.01779140
#
# Stress axis : x y z
#
# Youngs Moduli (GPa) = 28.74132 28.74140 61.65314
#
# Poissons Ratio (x) = 0.66403 0.33612
# Poissons Ratio (y) = 0.66402 0.33613
# Poissons Ratio (z) = 0.15669 0.15670
#
# Static dielectric constant tensor:
#      x y z
#    x 2.654620 0.000000 0.000000 
#    y 0.000000 2.654620 0.000000 
#    z 0.000000 0.000000 3.132310 
# 
# 
# High freq. dielectric constant tensor:
#      x y z
#    x 1.523710 0.000000 0.000000 
#    y 0.000000 1.523710 0.000000 
#    z 0.000000 0.000000 1.585760 
# 
# From -- ./inp_files/1621.got.cif
#   From: 2010.03.12/outbox.cif.g09.slc.cpg/sg120_1_cif.got.tgz:1621.got - 2010.04.06 16:00:44.
