data_PCOD8311269
_publ_section_title
;
Structure prediction by ZEFSAII (Michael W. Deem and Ramdas Pophale) SiO2 
 PCOD8311269
Probable space group: I -4 C 2
;
_chemical_formula_sum "Si O2"
_cell_formula_units_Z 60
_cell_length_a 14.473960
_cell_length_b 14.473960
_cell_length_c 13.294108
_cell_angle_alpha 90.000000
_cell_angle_beta 90.000000
_cell_angle_gamma 90.000000
_cell_volume 2785.056043
_symmetry_space_group_name_H-M "I -4 C 2"
_symmetry_group_IT_number 120
_symmetry_cell_setting 'tetragonal'
loop_
_space_group_symop_operation_xyz
x,y,z
y,-x,-z
-x,-y,z
-y,x,-z
y,x,1/2-z
-y,-x,1/2-z
-x,y,1/2+z
x,-y,1/2+z
1/2+x,1/2+y,1/2+z
1/2+y,1/2-x,1/2-z
1/2-x,1/2-y,1/2+z
1/2-y,1/2+x,1/2-z
1/2+y,1/2+x,-z
1/2-y,1/2-x,-z
1/2-x,1/2+y,z
1/2+x,1/2-y,z
loop_
_atom_site_type_symbol
_atom_site_label
_atom_site_fract_x
_atom_site_fract_y
_atom_site_fract_z
Si Si1 0.058236 0.090175 0.361916
Si Si2 0.500000 0.000000 0.250000
Si Si3 0.792795 0.292795 0.000000
Si Si4 0.528976 0.134704 0.424739
Si Si5 0.294704 0.590063 0.535450
O O1 0.097852 0.097852 0.250000
O O2 0.147535 0.083992 0.432845
O O3 0.982139 0.169854 0.380359
O O4 0.000000 0.000000 0.382338
O O5 0.506805 0.093795 0.315142
O O6 0.879206 0.298121 0.921792
O O7 0.698289 0.296553 0.933685
O O8 0.550100 0.050100 0.500000
O O9 0.442744 0.188647 0.475634
#
# Coordination Sequence:
#
# PCOD8311269 Si02
#       5
#    16   4   8  16  16
#     4  11  21  38  69 101 133 179 222 287 367 424
#     4  12  26  48  72 102 144 196 242 292 364 438
#     4  10  24  43  73 100 134 192 236 292 360 420
#     4  10  25  47  70 101 139 191 237 295 362 427
#     4  12  21  47  68  98 145 179 238 302 359 425
#
# _framework density 21.543551000000001
#
# number of rings (size 3 to 8) (size 9 to 14) (size 15 to 20)
#    0.800    0.267    5.333    0.400    3.733    2.133 
#    4.800    0.000    0.000    0.000    0.000    0.000 
#    0.000    0.000    0.000    0.000    0.000    0.000 
#
# Total GULP energy -371660.617795 kJ/mol
# GULP energy per Si atom -12388.687260 kJ/mol
# Density = 2.149452 g / cm^3
# Si number density = 21.543551 Si / 1000 Ang^3
#
#
#
# Elastic Constant Matrix: (Units=GPa)
#
#
# Indices 1 2 3 4 5 6 
#
# 1 116.8564 71.4777 49.1915 0.0000 0.0000 0.0000
# 2 71.4777 116.8564 49.1915 0.0000 0.0000 0.0000
# 3 49.1915 49.1915 103.0522 0.0000 0.0000 0.0000
# 4 0.0000 0.0000 0.0000 30.7051 0.0000 0.0000
# 5 0.0000 0.0000 0.0000 0.0000 30.7051 0.0000
# 6 0.0000 0.0000 0.0000 0.0000 0.0000 54.1694
#
#
#
# Elastic Compliance Matrix: (Units=1/GPa)
#
#
# Indices 1 2 3 4 5 6 
#
# 1 0.014555 -0.007482 -0.003377 0.000000 0.000000 0.000000
# 2 -0.007482 0.014555 -0.003377 0.000000 0.000000 0.000000
# 3 -0.003377 -0.003377 0.012927 0.000000 0.000000 0.000000
# 4 0.000000 0.000000 0.000000 0.032568 0.000000 0.000000
# 5 0.000000 0.000000 0.000000 0.000000 0.032568 0.000000
# 6 0.000000 0.000000 0.000000 0.000000 0.000000 0.018461
#
#
# Mechanical properties :
#
#
# Convention : Reuss Voigt Hill
#
# Bulk Modulus (GPa) = 73.70087 75.16516 74.43302
# Shear Modulus (GPa) = 31.52061 34.24285 32.88173
#
# Velocity S-wave (km/s) = 3.82921 3.99114 3.91102
# Velocity P-wave (km/s) = 7.33723 7.49697 7.41753
#
# Compressibility (1/GPa) = 0.01356836
#
# Stress axis : x y z
#
# Youngs Moduli (GPa) = 68.70405 68.70405 77.35523
#
# Poissons Ratio (x) = 0.51402 0.26119
# Poissons Ratio (y) = 0.51402 0.26119
# Poissons Ratio (z) = 0.23198 0.23198
#
# Static dielectric constant tensor:
#      x y z
#    x 4.171270 0.000000 0.000000 
#    y 0.000000 4.171270 0.000000 
#    z 0.000000 0.000000 3.498710 
# 
# 
# High freq. dielectric constant tensor:
#      x y z
#    x 1.868380 0.000000 0.000000 
#    y 0.000000 1.868380 0.000000 
#    z 0.000000 0.000000 1.796820 
# 
# From -- ./inp_files/3374.got.cif
#   From: 2010.03.12/outbox.cif.g09.slc.cpg/sg120_2_cif.got.tgz:3374.got - 2010.04.06 16:00:44.
