data_PCOD8311230
_publ_section_title
;
Structure prediction by ZEFSAII (Michael W. Deem and Ramdas Pophale) SiO2 
 PCOD8311230
Probable space group: I -4 C 2
;
_chemical_formula_sum "Si O2"
_cell_formula_units_Z 56
_cell_length_a 16.867590
_cell_length_b 16.867590
_cell_length_c 9.774626
_cell_angle_alpha 90.000000
_cell_angle_beta 90.000000
_cell_angle_gamma 90.000000
_cell_volume 2781.033507
_symmetry_space_group_name_H-M "I -4 C 2"
_symmetry_group_IT_number 120
_symmetry_cell_setting 'tetragonal'
loop_
_space_group_symop_operation_xyz
x,y,z
y,-x,-z
-x,-y,z
-y,x,-z
y,x,1/2-z
-y,-x,1/2-z
-x,y,1/2+z
x,-y,1/2+z
1/2+x,1/2+y,1/2+z
1/2+y,1/2-x,1/2-z
1/2-x,1/2-y,1/2+z
1/2-y,1/2+x,1/2-z
1/2+y,1/2+x,-z
1/2-y,1/2-x,-z
1/2-x,1/2+y,z
1/2+x,1/2-y,z
loop_
_atom_site_type_symbol
_atom_site_label
_atom_site_fract_x
_atom_site_fract_y
_atom_site_fract_z
Si Si1 0.796405 0.917339 0.212677
Si Si2 0.018075 0.725468 0.050375
Si Si3 0.209302 0.669029 0.769293
Si Si4 0.619915 0.880086 0.500000
O O1 0.884472 0.884472 0.250000
O O2 0.740322 0.843808 0.174036
O O3 0.773606 0.963604 0.347484
O O4 0.784231 0.974466 0.081109
O O5 0.101478 0.704935 0.117205
O O6 0.973332 0.640333 0.023526
O O7 0.299507 0.700494 0.750000
O O8 0.176185 0.641028 0.625424
#
# Coordination Sequence:
#
# PCOD8311230 Si02
#       4
#    16  16  16   8
#     4  10  23  39  64  92 123 164 218 262 313 381
#     4  11  21  40  63  93 127 164 205 268 322 376
#     4  10  22  37  66  90 121 163 219 264 311 374
#     4  10  22  40  57  98 126 163 206 264 326 390
#
# _framework density 20.136399999999998
#
# number of rings (size 3 to 8) (size 9 to 14) (size 15 to 20)
#    0.000    1.714    2.857    0.857   12.000    0.000 
#    0.000    2.857    0.000    6.857    0.000    0.000 
#    0.000    0.000    0.000    0.000    0.000    0.000 
#
# Total GULP energy -346929.219574 kJ/mol
# GULP energy per Si atom -12390.329271 kJ/mol
# Density = 2.009057 g / cm^3
# Si number density = 20.136400 Si / 1000 Ang^3
#
#
#
# Elastic Constant Matrix: (Units=GPa)
#
#
# Indices 1 2 3 4 5 6 
#
# 1 421.3236 -273.1709 48.6500 0.0000 0.0000 0.0000
# 2 -273.1709 421.2883 48.6832 0.0000 0.0000 0.0000
# 3 48.6500 48.6832 123.3723 0.0000 0.0000 0.0000
# 4 0.0000 0.0000 0.0000 20.5735 0.0000 0.0000
# 5 0.0000 0.0000 0.0000 0.0000 20.5770 0.0000
# 6 0.0000 0.0000 0.0000 0.0000 0.0000 36.6687
#
#
#
# Elastic Compliance Matrix: (Units=1/GPa)
#
#
# Indices 1 2 3 4 5 6 
#
# 1 0.005276 0.003836 -0.003594 0.000000 0.000000 0.000000
# 2 0.003836 0.005277 -0.003595 0.000000 0.000000 0.000000
# 3 -0.003594 -0.003595 0.010941 0.000000 0.000000 0.000000
# 4 0.000000 0.000000 0.000000 0.048606 0.000000 0.000000
# 5 0.000000 0.000000 0.000000 0.000000 0.048598 0.000000
# 6 0.000000 0.000000 0.000000 0.000000 0.000000 0.027271
#
#
# Mechanical properties :
#
#
# Convention : Reuss Voigt Hill
#
# Bulk Modulus (GPa) = 67.62235 68.25656 67.93945
# Shear Modulus (GPa) = 31.72504 91.68531 61.70517
#
# Velocity S-wave (km/s) = 3.97357 6.75507 5.54167
# Velocity P-wave (km/s) = 7.39645 9.73714 8.64637
#
# Compressibility (1/GPa) = 0.01478801
#
# Stress axis : x y z
#
# Youngs Moduli (GPa) = 189.54520 189.51624 91.39553
#
# Poissons Ratio (x) = -0.72703 0.32850
# Poissons Ratio (y) = -0.72714 0.32856
# Poissons Ratio (z) = 0.68127 0.68130
#
# Static dielectric constant tensor:
#      x y z
#    x 3.848000 0.000000 0.000000 
#    y 0.000000 3.847990 0.000000 
#    z 0.000000 0.000000 3.857580 
# 
# 
# High freq. dielectric constant tensor:
#      x y z
#    x 1.769320 0.000000 0.000000 
#    y 0.000000 1.769320 0.000000 
#    z 0.000000 0.000000 1.810640 
# 
# From -- ./inp_files/992.got.cif
#   From: 2010.03.12/outbox.cif.g09.slc.cpg/sg120_1_cif.got.tgz:992.got - 2010.04.06 16:00:44.
