data_PCOD8311395
_publ_section_title
;
Structure prediction by ZEFSAII (Michael W. Deem and Ramdas Pophale) SiO2 
 PCOD8311395
Probable space group: I -4 2 M
;
_chemical_formula_sum "Si O2"
_cell_formula_units_Z 128
_cell_length_a 18.129314
_cell_length_b 18.129314
_cell_length_c 24.141472
_cell_angle_alpha 90.000000
_cell_angle_beta 90.000000
_cell_angle_gamma 90.000000
_cell_volume 7934.626516
_symmetry_space_group_name_H-M "I -4 2 M"
_symmetry_group_IT_number 121
_symmetry_cell_setting 'tetragonal'
loop_
_space_group_symop_operation_xyz
x,y,z
y,-x,-z
-x,-y,z
-y,x,-z
x,-y,-z
-x,y,-z
-y,-x,z
y,x,z
1/2+x,1/2+y,1/2+z
1/2+y,1/2-x,1/2-z
1/2-x,1/2-y,1/2+z
1/2-y,1/2+x,1/2-z
1/2+x,1/2-y,1/2-z
1/2-x,1/2+y,1/2-z
1/2-y,1/2-x,1/2+z
1/2+y,1/2+x,1/2+z
loop_
_atom_site_type_symbol
_atom_site_label
_atom_site_fract_x
_atom_site_fract_y
_atom_site_fract_z
Si Si1 0.828809 0.707836 0.728264
Si Si2 0.910661 0.656284 0.836710
Si Si3 0.976328 0.272866 0.561177
Si Si4 0.791359 0.674325 0.559550
Si Si5 0.082149 0.498452 0.120060
Si Si6 0.281361 0.603866 0.874561
Si Si7 0.421817 0.165131 0.653159
Si Si8 0.192670 0.313835 0.934764
O O1 0.756973 0.756973 0.740161
O O2 0.868346 0.689639 0.785137
O O3 0.885175 0.750490 0.687468
O O4 0.801269 0.631765 0.700030
O O5 0.907287 0.566898 0.837310
O O6 0.874916 0.688721 0.892346
O O7 0.994363 0.684743 0.833443
O O8 0.889523 0.260777 0.570306
O O9 0.000000 0.248662 0.500000
O O10 0.996570 0.359142 0.570410
O O11 0.018430 0.221938 0.606794
O O12 0.710424 0.710424 0.567284
O O13 0.852322 0.730943 0.581841
O O14 0.798044 0.598417 0.593855
O O15 0.807290 0.657317 0.495600
O O16 0.093120 0.422984 0.153657
O O17 0.000000 0.500000 0.093660
O O18 0.364962 0.635039 0.877807
O O19 0.247513 0.247513 0.921426
#
# Coordination Sequence:
#
# PCOD8311395 Si02
#       8
#    16  16  16  16  16  16  16  16
#     4  10  20  34  50  66  94 128 165 205 235 280
#     4  10  22  30  46  71  99 132 159 197 243 288
#     4  11  17  27  47  68  90 122 166 203 239 296
#     4   9  16  30  50  69  94 128 165 202 238 285
#     4   9  18  30  39  65  98 127 158 186 231 283
#     4   9  17  30  48  67  86 119 167 212 242 283
#     4  10  18  32  49  69  94 129 168 197 232 281
#     4  10  20  32  46  68 101 133 159 199 256 300
#
# _framework density 16.131824999999999
#
# number of rings (size 3 to 8) (size 9 to 14) (size 15 to 20)
#    0.000    2.250    3.750    1.500    1.750    0.750 
#    0.000    3.750    0.000    0.375    0.000    0.875 
#    0.000   10.000    0.000   11.000    0.000    0.250 
#
# Total GULP energy -793395.968747 kJ/mol
# GULP energy per Si atom -12396.812012 kJ/mol
# Density = 1.609511 g / cm^3
# Si number density = 16.131825 Si / 1000 Ang^3
#
#
#
# Elastic Constant Matrix: (Units=GPa)
#
#
# Indices 1 2 3 4 5 6 
#
# 1 80.0387 45.4870 47.1055 0.0000 0.0000 0.0000
# 2 45.4870 80.0389 47.1056 0.0000 0.0000 0.0000
# 3 47.1055 47.1056 113.2623 0.0000 0.0000 0.0000
# 4 0.0000 0.0000 0.0000 22.3251 0.0000 0.0000
# 5 0.0000 0.0000 0.0000 0.0000 22.3249 0.0000
# 6 0.0000 0.0000 0.0000 0.0000 0.0000 24.0105
#
#
#
# Elastic Compliance Matrix: (Units=1/GPa)
#
#
# Indices 1 2 3 4 5 6 
#
# 1 0.020262 -0.008680 -0.004817 0.000000 0.000000 0.000000
# 2 -0.008680 0.020262 -0.004817 0.000000 0.000000 0.000000
# 3 -0.004817 -0.004817 0.012836 0.000000 0.000000 0.000000
# 4 0.000000 0.000000 0.000000 0.044793 0.000000 0.000000
# 5 0.000000 0.000000 0.000000 0.000000 0.044793 0.000000
# 6 0.000000 0.000000 0.000000 0.000000 0.000000 0.041648
#
#
# Mechanical properties :
#
#
# Convention : Reuss Voigt Hill
#
# Bulk Modulus (GPa) = 59.76644 61.41511 60.59078
# Shear Modulus (GPa) = 22.04603 22.64156 22.34380
#
# Velocity S-wave (km/s) = 3.70079 3.75044 3.72570
# Velocity P-wave (km/s) = 7.44247 7.54373 7.49327
#
# Compressibility (1/GPa) = 0.01673180
#
# Stress axis : x y z
#
# Youngs Moduli (GPa) = 49.35379 49.35387 77.90810
#
# Poissons Ratio (x) = 0.42840 0.37527
# Poissons Ratio (y) = 0.42840 0.37527
# Poissons Ratio (z) = 0.23773 0.23773
#
# Static dielectric constant tensor:
#      x y z
#    x 3.047480 0.000000 0.000000 
#    y 0.000000 3.047470 0.000000 
#    z 0.000000 0.000000 3.012890 
# 
# 
# High freq. dielectric constant tensor:
#      x y z
#    x 1.600660 0.000000 0.000000 
#    y 0.000000 1.600660 0.000000 
#    z 0.000000 0.000000 1.620610 
# 
# From -- ./inp_files/7361.got.cif
#   From: 2010.03.12/outbox.cif.g09.slc.cpg/sg121_4_cif.got.tgz:7361.got - 2010.04.06 16:06:48.
