data_PCOD8311580
_publ_section_title
;
Structure prediction by ZEFSAII (Michael W. Deem and Ramdas Pophale) SiO2 
 PCOD8311580
Probable space group: I -4 2 M
;
_chemical_formula_sum "Si O2"
_cell_formula_units_Z 96
_cell_length_a 19.354140
_cell_length_b 19.354140
_cell_length_c 12.449879
_cell_angle_alpha 90.000000
_cell_angle_beta 90.000000
_cell_angle_gamma 90.000000
_cell_volume 4663.509728
_symmetry_space_group_name_H-M "I -4 2 M"
_symmetry_group_IT_number 121
_symmetry_cell_setting 'tetragonal'
loop_
_space_group_symop_operation_xyz
x,y,z
y,-x,-z
-x,-y,z
-y,x,-z
x,-y,-z
-x,y,-z
-y,-x,z
y,x,z
1/2+x,1/2+y,1/2+z
1/2+y,1/2-x,1/2-z
1/2-x,1/2-y,1/2+z
1/2-y,1/2+x,1/2-z
1/2+x,1/2-y,1/2-z
1/2-x,1/2+y,1/2-z
1/2-y,1/2-x,1/2+z
1/2+y,1/2+x,1/2+z
loop_
_atom_site_type_symbol
_atom_site_label
_atom_site_fract_x
_atom_site_fract_y
_atom_site_fract_z
Si Si1 0.815579 0.606431 0.888971
Si Si2 0.391969 0.720601 0.300392
Si Si3 0.259102 0.542735 0.730979
Si Si4 0.498606 0.106862 0.225978
Si Si5 0.860153 0.750170 0.957783
Si Si6 0.188104 0.927191 0.462204
O O1 0.788092 0.628725 0.769945
O O2 0.868426 0.541321 0.879780
O O3 0.855008 0.668696 0.943740
O O4 0.750727 0.584229 0.957560
O O5 0.342861 0.657140 0.269159
O O6 0.470572 0.699742 0.273990
O O7 0.390342 0.737437 0.425422
O O8 0.176230 0.530764 0.718313
O O9 0.283219 0.590047 0.632055
O O10 0.280952 0.577648 0.842483
O O11 0.435100 0.054753 0.199234
O O12 0.784869 0.784869 0.946839
O O13 0.131015 0.868986 0.476913
O O14 0.155015 0.000000 0.500000
#
# Coordination Sequence:
#
# PCOD8311580 Si02
#       6
#    16  16  16  16  16  16
#     4  11  23  41  66  94 135 170 222 275 337 394
#     4  10  22  40  63  89 126 172 215 271 334 392
#     4  11  23  41  64  94 131 169 218 278 332 396
#     4  10  20  38  65  93 129 174 216 260 323 403
#     4  11  23  39  63  96 129 171 225 275 329 395
#     4  12  25  42  67  96 131 176 222 279 345 410
#
# _framework density 20.585353000000001
#
# number of rings (size 3 to 8) (size 9 to 14) (size 15 to 20)
#    0.000    1.167    5.000    2.500    2.333    0.167 
#    0.000    0.000    0.000    3.500    0.000    4.667 
#    0.000    0.000    0.000    0.000    0.000    0.000 
#
# Total GULP energy -594987.171221 kJ/mol
# GULP energy per Si atom -12395.566067 kJ/mol
# Density = 2.053850 g / cm^3
# Si number density = 20.585353 Si / 1000 Ang^3
#
#
#
# Elastic Constant Matrix: (Units=GPa)
#
#
# Indices 1 2 3 4 5 6 
#
# 1 76.5951 40.3738 24.9276 0.0000 0.0000 0.0000
# 2 40.3738 76.6007 24.9303 0.0000 0.0000 0.0000
# 3 24.9276 24.9303 97.8955 0.0000 0.0000 0.0000
# 4 0.0000 0.0000 0.0000 26.1022 0.0000 0.0000
# 5 0.0000 0.0000 0.0000 0.0000 26.1049 0.0000
# 6 0.0000 0.0000 0.0000 0.0000 0.0000 6.8216
#
#
#
# Elastic Compliance Matrix: (Units=1/GPa)
#
#
# Indices 1 2 3 4 5 6 
#
# 1 0.018599 -0.009008 -0.002442 0.000000 0.000000 0.000000
# 2 -0.009008 0.018597 -0.002442 0.000000 0.000000 0.000000
# 3 -0.002442 -0.002442 0.011459 0.000000 0.000000 0.000000
# 4 0.000000 0.000000 0.000000 0.038311 0.000000 0.000000
# 5 0.000000 0.000000 0.000000 0.000000 0.038307 0.000000
# 6 0.000000 0.000000 0.000000 0.000000 0.000000 0.146594
#
#
# Mechanical properties :
#
#
# Convention : Reuss Voigt Hill
#
# Bulk Modulus (GPa) = 47.91480 47.95053 47.93266
# Shear Modulus (GPa) = 16.30751 22.52972 19.41862
#
# Velocity S-wave (km/s) = 2.81764 3.31184 3.07469
# Velocity P-wave (km/s) = 5.82341 6.16186 5.99502
#
# Compressibility (1/GPa) = 0.02087038
#
# Stress axis : x y z
#
# Youngs Moduli (GPa) = 53.76767 53.77098 87.26980
#
# Poissons Ratio (x) = 0.48437 0.21310
# Poissons Ratio (y) = 0.48434 0.21314
# Poissons Ratio (z) = 0.13129 0.13133
#
# Static dielectric constant tensor:
#      x y z
#    x 3.870000 0.000000 0.000000 
#    y 0.000000 3.870000 0.000000 
#    z 0.000000 0.000000 3.909450 
# 
# 
# High freq. dielectric constant tensor:
#      x y z
#    x 1.805100 0.000000 0.000000 
#    y 0.000000 1.805100 0.000000 
#    z 0.000000 0.000000 1.804020 
# 
# From -- ./inp_files/3325.got.cif
#   From: 2010.03.12/outbox.cif.g09.slc.cpg/sg121_2_cif.got.tgz:3325.got - 2010.04.06 16:06:48.
