data_PCOD8311699
_publ_section_title
;
Structure prediction by ZEFSAII (Michael W. Deem and Ramdas Pophale) SiO2 
 PCOD8311699
Probable space group: I -4 2 M
;
_chemical_formula_sum "Si O2"
_cell_formula_units_Z 100
_cell_length_a 14.466455
_cell_length_b 14.466455
_cell_length_c 23.398838
_cell_angle_alpha 90.000000
_cell_angle_beta 90.000000
_cell_angle_gamma 90.000000
_cell_volume 4896.869513
_symmetry_space_group_name_H-M "I -4 2 M"
_symmetry_group_IT_number 121
_symmetry_cell_setting 'tetragonal'
loop_
_space_group_symop_operation_xyz
x,y,z
y,-x,-z
-x,-y,z
-y,x,-z
x,-y,-z
-x,y,-z
-y,-x,z
y,x,z
1/2+x,1/2+y,1/2+z
1/2+y,1/2-x,1/2-z
1/2-x,1/2-y,1/2+z
1/2-y,1/2+x,1/2-z
1/2+x,1/2-y,1/2-z
1/2-x,1/2+y,1/2-z
1/2-y,1/2-x,1/2+z
1/2+y,1/2+x,1/2+z
loop_
_atom_site_type_symbol
_atom_site_label
_atom_site_fract_x
_atom_site_fract_y
_atom_site_fract_z
Si Si1 0.000000 0.500000 0.000000
Si Si2 0.389618 0.760017 0.086910
Si Si3 0.192317 0.949594 0.946403
Si Si4 0.600317 0.752985 0.356616
Si Si5 0.235369 0.915687 0.362298
Si Si6 0.627381 0.149256 0.968872
Si Si7 0.644192 0.949756 0.746658
O O1 0.938982 0.438149 0.956635
O O2 0.326149 0.673852 0.074059
O O3 0.338756 0.837536 0.123874
O O4 0.477722 0.719463 0.120587
O O5 0.414952 0.802610 0.025467
O O6 0.115456 0.884545 0.916455
O O7 0.269450 0.887077 0.978134
O O8 0.235783 0.016783 0.899838
O O9 0.144233 0.000000 0.000000
O O10 0.660103 0.660103 0.350232
O O11 0.555602 0.780240 0.296582
O O12 0.139051 0.860950 0.349221
O O13 0.283115 0.866417 0.415604
O O14 0.305354 0.910551 0.309338
O O15 0.555948 0.886101 0.760904
#
# Coordination Sequence:
#
# PCOD8311699 Si02
#       7
#     4  16  16  16  16  16  16
#     4  12  20  36  68  96 130 172 224 268 326 396
#     4  11  22  42  67  93 133 178 219 266 334 404
#     4  12  24  39  63  98 137 175 219 270 334 401
#     4  11  23  43  66  91 132 178 221 269 333 400
#     4  12  25  42  66  99 135 168 221 280 333 395
#     4  12  23  39  65 102 134 173 215 280 333 392
#     4  11  24  43  69  97 127 168 223 280 334 397
#
# _framework density 20.421208
#
# number of rings (size 3 to 8) (size 9 to 14) (size 15 to 20)
#    0.000    0.480    5.600    3.360    0.000    2.720 
#    0.000    1.600    0.000    3.840    0.000    0.000 
#    0.000    0.000    0.000    0.000    0.000    0.000 
#
# Total GULP energy -620004.910967 kJ/mol
# GULP energy per Si atom -12400.098219 kJ/mol
# Density = 2.037473 g / cm^3
# Si number density = 20.421208 Si / 1000 Ang^3
#
#
#
# Elastic Constant Matrix: (Units=GPa)
#
#
# Indices 1 2 3 4 5 6 
#
# 1 83.1018 47.1144 6.3006 0.0000 0.0000 0.0000
# 2 47.1144 83.0950 6.2997 0.0000 0.0000 0.0000
# 3 6.3006 6.2997 74.1789 0.0000 0.0000 0.0000
# 4 0.0000 0.0000 0.0000 22.3655 0.0000 0.0000
# 5 0.0000 0.0000 0.0000 0.0000 22.3665 0.0000
# 6 0.0000 0.0000 0.0000 0.0000 0.0000 40.2174
#
#
#
# Elastic Compliance Matrix: (Units=1/GPa)
#
#
# Indices 1 2 3 4 5 6 
#
# 1 0.017766 -0.010023 -0.000658 0.000000 0.000000 0.000000
# 2 -0.010023 0.017767 -0.000658 0.000000 0.000000 0.000000
# 3 -0.000658 -0.000658 0.013593 0.000000 0.000000 0.000000
# 4 0.000000 0.000000 0.000000 0.044712 0.000000 0.000000
# 5 0.000000 0.000000 0.000000 0.000000 0.044710 0.000000
# 6 0.000000 0.000000 0.000000 0.000000 0.000000 0.024865
#
#
# Mechanical properties :
#
#
# Convention : Reuss Voigt Hill
#
# Bulk Modulus (GPa) = 37.80899 39.97836 38.89367
# Shear Modulus (GPa) = 25.65339 29.03395 27.34367
#
# Velocity S-wave (km/s) = 3.54816 3.77471 3.66318
# Velocity P-wave (km/s) = 5.94480 6.21428 6.08103
#
# Compressibility (1/GPa) = 0.02644874
#
# Stress axis : x y z
#
# Youngs Moduli (GPa) = 56.28720 56.28262 73.56930
#
# Poissons Ratio (x) = 0.56414 0.04839
# Poissons Ratio (y) = 0.56419 0.04838
# Poissons Ratio (z) = 0.03702 0.03701
#
# Static dielectric constant tensor:
#      x y z
#    x 3.818640 0.000000 0.000000 
#    y 0.000000 3.818630 0.000000 
#    z 0.000000 0.000000 3.570140 
# 
# 
# High freq. dielectric constant tensor:
#      x y z
#    x 1.804090 0.000000 0.000000 
#    y 0.000000 1.804090 0.000000 
#    z 0.000000 0.000000 1.791140 
# 
# From -- ./inp_files/7143.got.cif
#   From: 2010.03.12/outbox.cif.g09.slc.cpg/sg121_4_cif.got.tgz:7143.got - 2010.04.06 16:06:48.
