data_PCOD8311202
_publ_section_title
;
Structure prediction by ZEFSAII (Michael W. Deem and Ramdas Pophale) SiO2 
 PCOD8311202
Probable space group: I -4 C 2
;
_chemical_formula_sum "Si O2"
_cell_formula_units_Z 112
_cell_length_a 16.505383
_cell_length_b 16.505383
_cell_length_c 21.315597
_cell_angle_alpha 90.000000
_cell_angle_beta 90.000000
_cell_angle_gamma 90.000000
_cell_volume 5806.958382
_symmetry_space_group_name_H-M "I -4 C 2"
_symmetry_group_IT_number 120
_symmetry_cell_setting 'tetragonal'
loop_
_space_group_symop_operation_xyz
x,y,z
y,-x,-z
-x,-y,z
-y,x,-z
y,x,1/2-z
-y,-x,1/2-z
-x,y,1/2+z
x,-y,1/2+z
1/2+x,1/2+y,1/2+z
1/2+y,1/2-x,1/2-z
1/2-x,1/2-y,1/2+z
1/2-y,1/2+x,1/2-z
1/2+y,1/2+x,-z
1/2-y,1/2-x,-z
1/2-x,1/2+y,z
1/2+x,1/2-y,z
loop_
_atom_site_type_symbol
_atom_site_label
_atom_site_fract_x
_atom_site_fract_y
_atom_site_fract_z
Si Si1 0.426093 0.898668 0.258212
Si Si2 0.008466 0.120190 0.212575
Si Si3 0.212201 0.296741 0.804185
Si Si4 0.633762 0.338065 0.115661
Si Si5 0.258297 0.463746 0.678895
Si Si6 0.911646 0.097594 0.490288
Si Si7 0.155455 0.116909 0.644010
O O1 0.510505 0.904167 0.217430
O O2 0.347787 0.864516 0.221103
O O3 0.449310 0.838206 0.315291
O O4 0.044064 0.044064 0.250000
O O5 0.051431 0.125929 0.145068
O O6 0.025842 0.202944 0.251092
O O7 0.914172 0.101174 0.196312
O O8 0.280216 0.280216 0.750000
O O9 0.247051 0.351243 0.860625
O O10 0.191964 0.208025 0.831578
O O11 0.710505 0.387517 0.140441
O O12 0.625737 0.340135 0.040740
O O13 0.282041 0.542479 0.639081
O O14 0.868552 0.116399 0.424126
O O15 0.007955 0.109461 0.485187
#
# Coordination Sequence:
#
# PCOD8311202 Si02
#       7
#    16  16  16  16  16  16  16
#     4  11  23  40  61  88 126 167 204 246 320 392
#     4  10  21  34  57  93 126 159 197 249 329 390
#     4  12  23  39  63  95 126 155 206 273 331 375
#     4  11  21  38  61  85 123 163 203 257 313 371
#     4  11  20  36  58  89 124 154 197 260 313 372
#     4  11  23  40  59  85 125 174 212 243 300 384
#     4  12  24  37  59  90 125 166 208 257 308 392
#
# _framework density 19.287206000000001
#
# number of rings (size 3 to 8) (size 9 to 14) (size 15 to 20)
#    0.000    0.857    7.143    1.714    0.000    4.571 
#    0.000    0.000    0.000    0.000    0.000    0.000 
#    0.000    0.000    0.000    0.000    0.000    0.000 
#
# Total GULP energy -694174.222435 kJ/mol
# GULP energy per Si atom -12395.968258 kJ/mol
# Density = 1.924331 g / cm^3
# Si number density = 19.287206 Si / 1000 Ang^3
#
#
#
# Elastic Constant Matrix: (Units=GPa)
#
#
# Indices 1 2 3 4 5 6 
#
# 1 90.1391 24.2808 26.1714 0.0000 0.0000 0.0000
# 2 24.2808 90.1391 26.1714 0.0000 0.0000 0.0000
# 3 26.1714 26.1714 106.1390 0.0000 0.0000 0.0000
# 4 0.0000 0.0000 0.0000 25.0424 0.0000 0.0000
# 5 0.0000 0.0000 0.0000 0.0000 25.0424 0.0000
# 6 0.0000 0.0000 0.0000 0.0000 0.0000 34.4664
#
#
#
# Elastic Compliance Matrix: (Units=1/GPa)
#
#
# Indices 1 2 3 4 5 6 
#
# 1 0.012518 -0.002667 -0.002429 0.000000 0.000000 0.000000
# 2 -0.002667 0.012518 -0.002429 0.000000 0.000000 0.000000
# 3 -0.002429 -0.002429 0.010619 0.000000 0.000000 0.000000
# 4 0.000000 0.000000 0.000000 0.039932 0.000000 0.000000
# 5 0.000000 0.000000 0.000000 0.000000 0.039932 0.000000
# 6 0.000000 0.000000 0.000000 0.000000 0.000000 0.029014
#
#
# Mechanical properties :
#
#
# Convention : Reuss Voigt Hill
#
# Bulk Modulus (GPa) = 48.53125 48.85162 48.69144
# Shear Modulus (GPa) = 30.03897 30.89648 30.46773
#
# Velocity S-wave (km/s) = 3.95074 4.00674 3.97884
# Velocity P-wave (km/s) = 6.78441 6.84023 6.81238
#
# Compressibility (1/GPa) = 0.02060528
#
# Stress axis : x y z
#
# Youngs Moduli (GPa) = 79.88803 79.88803 94.16657
#
# Poissons Ratio (x) = 0.21303 0.22873
# Poissons Ratio (y) = 0.21303 0.22873
# Poissons Ratio (z) = 0.19405 0.19405
#
# Static dielectric constant tensor:
#      x y z
#    x 3.565780 0.000000 0.000000 
#    y 0.000000 3.565780 0.000000 
#    z 0.000000 0.000000 3.209890 
# 
# 
# High freq. dielectric constant tensor:
#      x y z
#    x 1.752670 0.000000 0.000000 
#    y 0.000000 1.752670 0.000000 
#    z 0.000000 0.000000 1.716070 
# 
# From -- ./inp_files/5502.got.cif
#   From: 2010.03.12/outbox.cif.g09.slc.cpg/sg120_3_cif.got.tgz:5502.got - 2010.04.06 16:00:44.
