data_PCOD8311697
_publ_section_title
;
Structure prediction by ZEFSAII (Michael W. Deem and Ramdas Pophale) SiO2 
 PCOD8311697
Probable space group: I -4 2 M
;
_chemical_formula_sum "Si O2"
_cell_formula_units_Z 48
_cell_length_a 14.495725
_cell_length_b 14.495725
_cell_length_c 10.206767
_cell_angle_alpha 90.000000
_cell_angle_beta 90.000000
_cell_angle_gamma 90.000000
_cell_volume 2144.707564
_symmetry_space_group_name_H-M "I -4 2 M"
_symmetry_group_IT_number 121
_symmetry_cell_setting 'tetragonal'
loop_
_space_group_symop_operation_xyz
x,y,z
y,-x,-z
-x,-y,z
-y,x,-z
x,-y,-z
-x,y,-z
-y,-x,z
y,x,z
1/2+x,1/2+y,1/2+z
1/2+y,1/2-x,1/2-z
1/2-x,1/2-y,1/2+z
1/2-y,1/2+x,1/2-z
1/2+x,1/2-y,1/2-z
1/2-x,1/2+y,1/2-z
1/2-y,1/2-x,1/2+z
1/2+y,1/2+x,1/2+z
loop_
_atom_site_type_symbol
_atom_site_label
_atom_site_fract_x
_atom_site_fract_y
_atom_site_fract_z
Si Si1 0.108296 0.395904 0.988313
Si Si2 0.282130 0.870146 0.760009
Si Si3 0.851664 0.004784 0.350570
O O1 0.138628 0.357409 0.848236
O O2 0.145344 0.500000 0.000000
O O3 0.148020 0.330194 0.101419
O O4 0.000000 0.393769 0.000000
O O5 0.207304 0.792696 0.734040
O O6 0.231147 0.970824 0.745707
O O7 0.891666 0.108335 0.316691
O O8 0.814516 0.000000 0.500000
O O9 0.936552 0.936552 0.335609
#
# Coordination Sequence:
#
# PCOD8311697 Si02
#       3
#    16  16  16
#     4  11  24  43  63  85 120 167 212 254 306 363
#     4  11  22  39  65  95 124 157 205 260 311 369
#     4   8  15  30  55  90 129 162 192 235 300 374
#
# _framework density 22.380675
#
# number of rings (size 3 to 8) (size 9 to 14) (size 15 to 20)
#    0.000    2.000    0.000    5.000    0.000    2.667 
#    0.000   11.667    0.000    0.000    0.000    0.000 
#    0.000   13.333    0.000    0.000    0.000    0.000 
#
# Total GULP energy -297441.159897 kJ/mol
# GULP energy per Si atom -12393.381662 kJ/mol
# Density = 2.232974 g / cm^3
# Si number density = 22.380675 Si / 1000 Ang^3
#
#
#
# Elastic Constant Matrix: (Units=GPa)
#
#
# Indices 1 2 3 4 5 6 
#
# 1 89.8978 24.0949 13.6923 0.0000 0.0000 0.0000
# 2 24.0949 89.8970 13.6934 0.0000 0.0000 0.0000
# 3 13.6923 13.6934 65.6427 0.0000 0.0000 0.0000
# 4 0.0000 0.0000 0.0000 36.7281 0.0000 0.0000
# 5 0.0000 0.0000 0.0000 0.0000 36.7307 0.0000
# 6 0.0000 0.0000 0.0000 0.0000 0.0000 -18.4439
#
#
#
# Elastic Compliance Matrix: (Units=1/GPa)
#
#
# Indices 1 2 3 4 5 6 
#
# 1 0.012216 -0.002981 -0.001926 0.000000 0.000000 0.000000
# 2 -0.002981 0.012216 -0.001927 0.000000 0.000000 0.000000
# 3 -0.001926 -0.001927 0.016038 0.000000 0.000000 0.000000
# 4 0.000000 0.000000 0.000000 0.027227 0.000000 0.000000
# 5 0.000000 0.000000 0.000000 0.000000 0.027225 0.000000
# 6 0.000000 0.000000 0.000000 0.000000 0.000000 -0.054219
#
#
# Mechanical properties :
#
#
# Convention : Reuss Voigt Hill
#
# Bulk Modulus (GPa) = 37.30993 38.71098 38.01045
# Shear Modulus (GPa) = 78.98213 23.93344 51.45778
#
# Velocity S-wave (km/s) = 5.94701 3.27368 4.80021
# Velocity P-wave (km/s) = 7.99141 5.62348 6.90964
#
# Compressibility (1/GPa) = 0.02680252
#
# Stress axis : x y z
#
# Youngs Moduli (GPa) = 81.85930 81.85809 62.35311
#
# Poissons Ratio (x) = 0.24401 0.12011
# Poissons Ratio (y) = 0.24401 0.12013
# Poissons Ratio (z) = 0.15769 0.15771
#
# Static dielectric constant tensor:
#      x y z
#    x 4.245450 0.000000 0.000000 
#    y 0.000000 4.245450 0.000000 
#    z 0.000000 0.000000 4.231630 
# 
# 
# High freq. dielectric constant tensor:
#      x y z
#    x 1.891610 0.000000 0.000000 
#    y 0.000000 1.891610 0.000000 
#    z 0.000000 0.000000 1.852770 
# 
# From -- ./inp_files/2548.got.cif
#   From: 2010.03.12/outbox.cif.g09.slc.cpg/sg121_2_cif.got.tgz:2548.got - 2010.04.06 16:06:48.
