data_PCOD8311360
_publ_section_title
;
Structure prediction by ZEFSAII (Michael W. Deem and Ramdas Pophale) SiO2 
 PCOD8311360
Probable space group: I -4 2 M
;
_chemical_formula_sum "Si O2"
_cell_formula_units_Z 112
_cell_length_a 23.970365
_cell_length_b 23.970365
_cell_length_c 13.691802
_cell_angle_alpha 90.000000
_cell_angle_beta 90.000000
_cell_angle_gamma 90.000000
_cell_volume 7867.013662
_symmetry_space_group_name_H-M "I -4 2 M"
_symmetry_group_IT_number 121
_symmetry_cell_setting 'tetragonal'
loop_
_space_group_symop_operation_xyz
x,y,z
y,-x,-z
-x,-y,z
-y,x,-z
x,-y,-z
-x,y,-z
-y,-x,z
y,x,z
1/2+x,1/2+y,1/2+z
1/2+y,1/2-x,1/2-z
1/2-x,1/2-y,1/2+z
1/2-y,1/2+x,1/2-z
1/2+x,1/2-y,1/2-z
1/2-x,1/2+y,1/2-z
1/2-y,1/2-x,1/2+z
1/2+y,1/2+x,1/2+z
loop_
_atom_site_type_symbol
_atom_site_label
_atom_site_fract_x
_atom_site_fract_y
_atom_site_fract_z
Si Si1 0.558120 0.650797 0.543752
Si Si2 0.386101 0.703917 0.619759
Si Si3 0.138781 0.767493 0.419259
Si Si4 0.184453 0.721044 0.234925
Si Si5 0.936665 0.846549 0.690701
Si Si6 0.938462 0.154121 0.730358
Si Si7 0.736451 0.357378 0.137301
O O1 0.500000 0.629840 0.500000
O O2 0.599753 0.599753 0.527302
O O3 0.579093 0.705161 0.481667
O O4 0.554013 0.667909 0.655936
O O5 0.330500 0.669501 0.599646
O O6 0.365172 0.764335 0.657514
O O7 0.424191 0.673673 0.700096
O O8 0.186560 0.813441 0.419924
O O9 0.157192 0.718543 0.343535
O O10 0.082102 0.798046 0.384432
O O11 0.130253 0.742127 0.527228
O O12 0.230387 0.769614 0.233647
O O13 0.211368 0.661984 0.204358
O O14 0.904046 0.904046 0.668170
O O15 0.002417 0.858066 0.679359
O O16 0.899678 0.100323 0.712920
O O17 0.912714 0.209542 0.682323
O O18 0.691171 0.308830 0.135769
#
# Coordination Sequence:
#
# PCOD8311360 Si02
#       7
#    16  16  16  16  16  16  16
#     4  10  18  27  38  54  77 104 134 173 214 247
#     4   8  14  25  40  56  72  97 133 166 197 243
#     4   8  15  27  43  57  71  97 127 158 197 238
#     4   8  14  25  42  59  73  93 123 157 196 245
#     4   9  16  28  42  54  72 103 144 177 200 241
#     4  10  20  28  37  56  80 105 135 177 219 242
#     4   9  17  28  39  57  81  96 118 163 208 243
#
# _framework density 14.236660000000001
#
# number of rings (size 3 to 8) (size 9 to 14) (size 15 to 20)
#    0.000    3.143    1.429    1.714    0.000    2.143 
#    0.000    7.143    0.000    0.000    0.000    4.000 
#    0.000    0.000    0.000    0.000    0.000   11.429 
#
# Total GULP energy -693875.480937 kJ/mol
# GULP energy per Si atom -12390.633588 kJ/mol
# Density = 1.420426 g / cm^3
# Si number density = 14.236660 Si / 1000 Ang^3
#
#
#
# Elastic Constant Matrix: (Units=GPa)
#
#
# Indices 1 2 3 4 5 6 
#
# 1 48.1115 44.9396 35.8981 0.0000 0.0000 0.0000
# 2 44.9396 48.1133 35.8988 0.0000 0.0000 0.0000
# 3 35.8981 35.8988 99.7331 0.0000 0.0000 0.0000
# 4 0.0000 0.0000 0.0000 15.9342 0.0000 0.0000
# 5 0.0000 0.0000 0.0000 0.0000 15.9342 0.0000
# 6 0.0000 0.0000 0.0000 0.0000 0.0000 13.4499
#
#
#
# Elastic Compliance Matrix: (Units=1/GPa)
#
#
# Indices 1 2 3 4 5 6 
#
# 1 0.165031 -0.150149 -0.005356 0.000000 0.000000 0.000000
# 2 -0.150149 0.165025 -0.005356 0.000000 0.000000 0.000000
# 3 -0.005356 -0.005356 0.013882 0.000000 0.000000 0.000000
# 4 0.000000 0.000000 0.000000 0.062758 0.000000 0.000000
# 5 0.000000 0.000000 0.000000 0.000000 0.062758 0.000000
# 6 0.000000 0.000000 0.000000 0.000000 0.000000 0.074350
#
#
# Mechanical properties :
#
#
# Convention : Reuss Voigt Hill
#
# Bulk Modulus (GPa) = 45.00919 47.71454 46.36186
# Shear Modulus (GPa) = 5.72783 14.34510 10.03647
#
# Velocity S-wave (km/s) = 2.00799 3.17774 2.65801
# Velocity P-wave (km/s) = 6.08767 6.85945 6.48505
#
# Compressibility (1/GPa) = 0.02221768
#
# Stress axis : x y z
#
# Youngs Moduli (GPa) = 6.05947 6.05969 72.03466
#
# Poissons Ratio (x) = 0.90986 0.38578
# Poissons Ratio (y) = 0.90982 0.38579
# Poissons Ratio (z) = 0.03245 0.03245
#
# Static dielectric constant tensor:
#      x y z
#    x 2.590820 0.000000 0.000000 
#    y 0.000000 2.590820 0.000000 
#    z 0.000000 0.000000 3.079250 
# 
# 
# High freq. dielectric constant tensor:
#      x y z
#    x 1.503340 0.000000 0.000000 
#    y 0.000000 1.503340 0.000000 
#    z 0.000000 0.000000 1.556990 
# 
# From -- ./inp_files/3487.got.cif
#   From: 2010.03.12/outbox.cif.g09.slc.cpg/sg121_2_cif.got.tgz:3487.got - 2010.04.06 16:06:48.
