data_PCOD8311304
_publ_section_title
;
Structure prediction by ZEFSAII (Michael W. Deem and Ramdas Pophale) SiO2 
 PCOD8311304
Probable space group: I -4 C 2
;
_chemical_formula_sum "Si O2"
_cell_formula_units_Z 112
_cell_length_a 14.793387
_cell_length_b 14.793387
_cell_length_c 24.734328
_cell_angle_alpha 90.000000
_cell_angle_beta 90.000000
_cell_angle_gamma 90.000000
_cell_volume 5412.966671
_symmetry_space_group_name_H-M "I -4 C 2"
_symmetry_group_IT_number 120
_symmetry_cell_setting 'tetragonal'
loop_
_space_group_symop_operation_xyz
x,y,z
y,-x,-z
-x,-y,z
-y,x,-z
y,x,1/2-z
-y,-x,1/2-z
-x,y,1/2+z
x,-y,1/2+z
1/2+x,1/2+y,1/2+z
1/2+y,1/2-x,1/2-z
1/2-x,1/2-y,1/2+z
1/2-y,1/2+x,1/2-z
1/2+y,1/2+x,-z
1/2-y,1/2-x,-z
1/2-x,1/2+y,z
1/2+x,1/2-y,z
loop_
_atom_site_type_symbol
_atom_site_label
_atom_site_fract_x
_atom_site_fract_y
_atom_site_fract_z
Si Si1 0.762940 0.481399 0.361030
Si Si2 0.575399 0.924602 0.437827
Si Si3 0.833905 0.184128 0.106952
Si Si4 0.184128 0.166095 0.106952
Si Si5 0.481399 0.237060 0.361030
Si Si6 0.906278 0.882220 0.000000
Si Si7 0.500000 0.146417 0.250000
O O1 0.839991 0.464632 0.405484
O O2 0.699175 0.561245 0.381645
O O3 0.707807 0.388378 0.350897
O O4 0.796149 0.516921 0.303362
O O5 0.601361 0.898640 0.500000
O O6 0.535368 0.839991 0.405485
O O7 0.500000 0.000000 0.438874
O O8 0.777468 0.277468 0.107447
O O9 0.792192 0.111622 0.149103
O O10 0.826743 0.133921 0.049874
O O11 0.133920 0.173257 0.049874
O O12 0.199175 0.061245 0.118355
O O13 0.516921 0.203850 0.303362
O O14 0.014158 0.874279 1.000000
O O15 0.412532 0.087468 0.262393
#
# Coordination Sequence:
#
# PCOD8311304 Si02
#       7
#    16  16  16  16  16  16  16
#     4  12  26  44  69 104 135 187 231 285 353 416
#     4  11  24  44  66  99 140 173 233 298 351 408
#     4  12  25  43  67  99 141 181 234 288 351 416
#     4  12  25  43  67  99 141 181 234 288 351 416
#     4  12  26  44  69 104 135 187 231 285 353 416
#     4  11  23  42  68  94 135 191 230 280 344 432
#     4  11  22  44  74  99 136 180 238 293 350 415
#
# _framework density 20.691057000000001
#
# number of rings (size 3 to 8) (size 9 to 14) (size 15 to 20)
#    0.000    0.429    5.714    3.000    4.000    1.714 
#    0.000    2.857    0.000    1.714    0.000    0.000 
#    0.000    0.000    0.000    0.000    0.000    0.000 
#
# Total GULP energy -694518.700692 kJ/mol
# GULP energy per Si atom -12402.119655 kJ/mol
# Density = 2.064396 g / cm^3
# Si number density = 20.691057 Si / 1000 Ang^3
#
#
#
# Elastic Constant Matrix: (Units=GPa)
#
#
# Indices 1 2 3 4 5 6 
#
# 1 92.4955 25.9838 12.7262 0.0000 0.0000 0.0000
# 2 25.9838 92.4957 12.7262 0.0000 0.0000 0.0000
# 3 12.7262 12.7262 97.6574 0.0000 0.0000 0.0000
# 4 0.0000 0.0000 0.0000 22.3374 0.0000 0.0000
# 5 0.0000 0.0000 0.0000 0.0000 22.3378 0.0000
# 6 0.0000 0.0000 0.0000 0.0000 0.0000 17.7364
#
#
#
# Elastic Compliance Matrix: (Units=1/GPa)
#
#
# Indices 1 2 3 4 5 6 
#
# 1 0.011859 -0.003176 -0.001132 0.000000 0.000000 0.000000
# 2 -0.003176 0.011859 -0.001132 0.000000 0.000000 0.000000
# 3 -0.001132 -0.001132 0.010535 0.000000 0.000000 0.000000
# 4 0.000000 0.000000 0.000000 0.044768 0.000000 0.000000
# 5 0.000000 0.000000 0.000000 0.000000 0.044767 0.000000
# 6 0.000000 0.000000 0.000000 0.000000 0.000000 0.056381
#
#
# Mechanical properties :
#
#
# Convention : Reuss Voigt Hill
#
# Bulk Modulus (GPa) = 42.78026 42.83567 42.80796
# Shear Modulus (GPa) = 25.14595 27.89648 26.52122
#
# Velocity S-wave (km/s) = 3.48990 3.67582 3.58407
# Velocity P-wave (km/s) = 6.07946 6.22599 6.15316
#
# Compressibility (1/GPa) = 0.02337527
#
# Stress axis : x y z
#
# Youngs Moduli (GPa) = 84.32303 84.32322 94.92349
#
# Poissons Ratio (x) = 0.26779 0.10741
# Poissons Ratio (y) = 0.26779 0.10741
# Poissons Ratio (z) = 0.09542 0.09542
#
# Static dielectric constant tensor:
#      x y z
#    x 3.807320 0.000000 0.000000 
#    y 0.000000 3.807320 0.000000 
#    z 0.000000 0.000000 3.700410 
# 
# 
# High freq. dielectric constant tensor:
#      x y z
#    x 1.819770 0.000000 0.000000 
#    y 0.000000 1.819770 0.000000 
#    z 0.000000 0.000000 1.806540 
# 
# From -- ./inp_files/5913.got.cif
#   From: 2010.03.12/outbox.cif.g09.slc.cpg/sg120_3_cif.got.tgz:5913.got - 2010.04.06 16:00:44.
