data_PCOD8311061
_publ_section_title
;
Structure prediction by ZEFSAII (Michael W. Deem and Ramdas Pophale) SiO2 
 PCOD8311061
Probable space group: I -4 M 2
;
_chemical_formula_sum "Si O2"
_cell_formula_units_Z 80
_cell_length_a 28.515469
_cell_length_b 28.515469
_cell_length_c 4.943300
_cell_angle_alpha 90.000000
_cell_angle_beta 90.000000
_cell_angle_gamma 90.000000
_cell_volume 4019.555279
_symmetry_space_group_name_H-M "I -4 M 2"
_symmetry_group_IT_number 119
_symmetry_cell_setting 'tetragonal'
loop_
_space_group_symop_operation_xyz
x,y,z
y,-x,-z
-x,-y,z
-y,x,-z
y,x,-z
-y,-x,-z
-x,y,z
x,-y,z
1/2+x,1/2+y,1/2+z
1/2+y,1/2-x,1/2-z
1/2-x,1/2-y,1/2+z
1/2-y,1/2+x,1/2-z
1/2+y,1/2+x,1/2-z
1/2-y,1/2-x,1/2-z
1/2-x,1/2+y,1/2+z
1/2+x,1/2-y,1/2+z
loop_
_atom_site_type_symbol
_atom_site_label
_atom_site_fract_x
_atom_site_fract_y
_atom_site_fract_z
Si Si1 0.890734 0.319244 0.855227
Si Si2 0.182161 0.756889 0.823211
Si Si3 0.052386 0.796984 0.109609
Si Si4 0.889428 0.819453 0.598054
Si Si5 0.447250 0.195564 0.822911
O O1 0.865069 0.365069 0.750000
O O2 0.852965 0.280481 0.963275
O O3 0.922095 0.297661 0.611019
O O4 0.919717 0.338579 0.115759
O O5 0.230018 0.730018 0.750000
O O6 0.152248 0.779909 0.575218
O O7 0.198180 0.801821 0.000000
O O8 0.065784 0.810977 0.412886
O O9 0.052999 0.740881 0.123744
O O10 0.000000 0.815331 0.040973
O O11 0.090732 0.818436 0.904632
O O12 0.869228 0.869228 0.500000
O O13 0.500000 0.178336 0.880832
#
# Coordination Sequence:
#
# PCOD8311061 Si02
#       5
#    16  16  16  16  16
#     4  11  23  38  58  84 118 151 202 246 283 331
#     4  11  23  36  52  75 115 164 206 237 275 317
#     4  11  22  39  58  80 111 149 191 232 293 342
#     4  12  23  38  57  83 113 147 196 241 276 329
#     4  11  21  39  60  83 112 153 197 238 297 347
#
# _framework density 19.902698999999998
#
# number of rings (size 3 to 8) (size 9 to 14) (size 15 to 20)
#    0.000    0.800    4.000    4.200    0.000    6.400 
#    0.000    0.000    0.000    0.000    0.000    0.000 
#    0.000   56.000    0.000    0.000    0.000    0.000 
#
# Total GULP energy -495582.310572 kJ/mol
# GULP energy per Si atom -12389.557764 kJ/mol
# Density = 1.985740 g / cm^3
# Si number density = 19.902699 Si / 1000 Ang^3
#
#
#
# Elastic Constant Matrix: (Units=GPa)
#
#
# Indices 1 2 3 4 5 6 
#
# 1 86.9360 36.9677 28.0230 0.0000 0.0000 0.0000
# 2 36.9677 86.9317 28.0227 0.0000 0.0000 0.0000
# 3 28.0230 28.0227 98.3121 0.0000 0.0000 0.0000
# 4 0.0000 0.0000 0.0000 30.4544 0.0000 0.0000
# 5 0.0000 0.0000 0.0000 0.0000 30.4548 0.0000
# 6 0.0000 0.0000 0.0000 0.0000 0.0000 11.6426
#
#
#
# Elastic Compliance Matrix: (Units=1/GPa)
#
#
# Indices 1 2 3 4 5 6 
#
# 1 0.014639 -0.005374 -0.002641 0.000000 0.000000 0.000000
# 2 -0.005374 0.014640 -0.002641 0.000000 0.000000 0.000000
# 3 -0.002641 -0.002641 0.011677 0.000000 0.000000 0.000000
# 4 0.000000 0.000000 0.000000 0.032836 0.000000 0.000000
# 5 0.000000 0.000000 0.000000 0.000000 0.032836 0.000000
# 6 0.000000 0.000000 0.000000 0.000000 0.000000 0.085892
#
#
# Mechanical properties :
#
#
# Convention : Reuss Voigt Hill
#
# Bulk Modulus (GPa) = 50.90554 50.91185 50.90869
# Shear Modulus (GPa) = 22.68808 26.45477 24.57142
#
# Velocity S-wave (km/s) = 3.37998 3.64978 3.51747
# Velocity P-wave (km/s) = 6.39258 6.58765 6.49085
#
# Compressibility (1/GPa) = 0.01964423
#
# Stress axis : x y z
#
# Youngs Moduli (GPa) = 68.30986 68.30627 85.63620
#
# Poissons Ratio (x) = 0.36708 0.22616
# Poissons Ratio (y) = 0.36710 0.22618
# Poissons Ratio (z) = 0.18041 0.18041
#
# Static dielectric constant tensor:
#      x y z
#    x 3.572640 0.000000 0.000000 
#    y 0.000000 3.572650 0.000000 
#    z 0.000000 0.000000 3.627620 
# 
# 
# High freq. dielectric constant tensor:
#      x y z
#    x 1.753280 0.000000 0.000000 
#    y 0.000000 1.753280 0.000000 
#    z 0.000000 0.000000 1.785340 
# 
# From -- ./inp_files/994.got.cif
#   From: 2010.03.12/outbox.cif.g09.slc.cpg/sg119_1_cif.got.tgz:994.got - 2010.04.14 02:25:26.
