data_PCOD8311975
_publ_section_title
;
Structure prediction by ZEFSAII (Michael W. Deem and Ramdas Pophale) SiO2 
 PCOD8311975
Probable space group: I -4 2 D
;
_chemical_formula_sum "Si O2"
_cell_formula_units_Z 72
_cell_length_a 18.863981
_cell_length_b 18.863981
_cell_length_c 9.131264
_cell_angle_alpha 90.000000
_cell_angle_beta 90.000000
_cell_angle_gamma 90.000000
_cell_volume 3249.358278
_symmetry_space_group_name_H-M "I -4 2 D"
_symmetry_group_IT_number 122
_symmetry_cell_setting 'tetragonal'
loop_
_space_group_symop_operation_xyz
x,y,z
y,-x,-z
-x,-y,z
-y,x,-z
x,1/2-y,1/4-z
-x,1/2+y,1/4-z
-y,1/2-x,1/4+z
y,1/2+x,1/4+z
1/2+x,1/2+y,1/2+z
1/2+y,1/2-x,1/2-z
1/2-x,1/2-y,1/2+z
1/2-y,1/2+x,1/2-z
1/2+x,-y,3/4-z
1/2-x,y,3/4-z
1/2-y,-x,3/4+z
1/2+y,x,3/4+z
loop_
_atom_site_type_symbol
_atom_site_label
_atom_site_fract_x
_atom_site_fract_y
_atom_site_fract_z
Si Si1 0.914180 0.934926 0.443782
Si Si2 0.196988 0.250000 0.125000
Si Si3 0.870525 0.643147 0.342537
Si Si4 0.124418 0.791448 0.391463
Si Si5 0.966675 0.340818 0.397470
O O1 0.861309 0.877895 0.511595
O O2 0.894591 0.943074 0.274936
O O3 0.993661 0.905864 0.459317
O O4 0.148861 0.288222 0.246338
O O5 0.246891 0.308776 0.050791
O O6 0.813483 0.634092 0.472157
O O7 0.869007 0.570341 0.249934
O O8 0.949107 0.655918 0.398839
O O9 0.055773 0.741407 0.419208
#
# Coordination Sequence:
#
# PCOD8311975 Si02
#       5
#    16   8  16  16  16
#     4  11  25  45  69 102 141 186 237 294 353 425
#     4  10  24  42  70 102 136 180 226 296 346 412
#     4  11  26  45  72 106 141 186 236 296 352 426
#     4  11  25  47  70 101 144 182 241 282 359 428
#     4  11  25  43  72 103 136 190 231 298 356 417
#
# _framework density 22.15822
#
# number of rings (size 3 to 8) (size 9 to 14) (size 15 to 20)
#    0.000    1.111    2.222    3.333    6.222   11.111 
#    0.000    0.000    0.000    0.000    0.000    0.000 
#    0.000    0.000    0.000    0.000    0.000    0.000 
#
# Total GULP energy -446407.725543 kJ/mol
# GULP energy per Si atom -12400.214598 kJ/mol
# Density = 2.210779 g / cm^3
# Si number density = 22.158220 Si / 1000 Ang^3
#
#
#
# Elastic Constant Matrix: (Units=GPa)
#
#
# Indices 1 2 3 4 5 6 
#
# 1 82.0262 9.7614 19.0616 0.0000 0.0000 0.0000
# 2 9.7614 82.0262 19.0616 0.0000 0.0000 0.0000
# 3 19.0616 19.0616 90.6780 0.0000 0.0000 0.0000
# 4 0.0000 0.0000 0.0000 31.1739 0.0000 0.0000
# 5 0.0000 0.0000 0.0000 0.0000 31.1739 0.0000
# 6 0.0000 0.0000 0.0000 0.0000 0.0000 19.3156
#
#
#
# Elastic Compliance Matrix: (Units=1/GPa)
#
#
# Indices 1 2 3 4 5 6 
#
# 1 0.012887 -0.000951 -0.002509 0.000000 0.000000 0.000000
# 2 -0.000951 0.012887 -0.002509 0.000000 0.000000 0.000000
# 3 -0.002509 -0.002509 0.012083 0.000000 0.000000 0.000000
# 4 0.000000 0.000000 0.000000 0.032078 0.000000 0.000000
# 5 0.000000 0.000000 0.000000 0.000000 0.032078 0.000000
# 6 0.000000 0.000000 0.000000 0.000000 0.000000 0.051772
#
#
# Mechanical properties :
#
#
# Convention : Reuss Voigt Hill
#
# Bulk Modulus (GPa) = 38.58069 38.94442 38.76256
# Shear Modulus (GPa) = 28.67567 30.12240 29.39904
#
# Velocity S-wave (km/s) = 3.60131 3.69104 3.64645
# Velocity P-wave (km/s) = 5.89422 5.98153 5.93804
#
# Compressibility (1/GPa) = 0.02591970
#
# Stress axis : x y z
#
# Youngs Moduli (GPa) = 77.59482 77.59482 82.76091
#
# Poissons Ratio (x) = 0.07376 0.20767
# Poissons Ratio (y) = 0.07376 0.20767
# Poissons Ratio (z) = 0.19471 0.19471
#
# Static dielectric constant tensor:
#      x y z
#    x 4.083080 0.000000 0.000000 
#    y 0.000000 4.083080 0.000000 
#    z 0.000000 0.000000 3.968240 
# 
# 
# High freq. dielectric constant tensor:
#      x y z
#    x 1.880040 0.000000 0.000000 
#    y 0.000000 1.880040 0.000000 
#    z 0.000000 0.000000 1.875390 
# 
# From -- ./inp_files/2679.got.cif
#   From: 2010.03.12/outbox.cif.g09.slc.cpg/sg122_2_cif.got.tgz:2679.got - 2010.04.06 16:17:16.
