data_PCOD8311499
_publ_section_title
;
Structure prediction by ZEFSAII (Michael W. Deem and Ramdas Pophale) SiO2 
 PCOD8311499
Probable space group: I -4 2 M
;
_chemical_formula_sum "Si O2"
_cell_formula_units_Z 58
_cell_length_a 15.030881
_cell_length_b 15.030881
_cell_length_c 14.124424
_cell_angle_alpha 90.000000
_cell_angle_beta 90.000000
_cell_angle_gamma 90.000000
_cell_volume 3191.094160
_symmetry_space_group_name_H-M "I -4 2 M"
_symmetry_group_IT_number 121
_symmetry_cell_setting 'tetragonal'
loop_
_space_group_symop_operation_xyz
x,y,z
y,-x,-z
-x,-y,z
-y,x,-z
x,-y,-z
-x,y,-z
-y,-x,z
y,x,z
1/2+x,1/2+y,1/2+z
1/2+y,1/2-x,1/2-z
1/2-x,1/2-y,1/2+z
1/2-y,1/2+x,1/2-z
1/2+x,1/2-y,1/2-z
1/2-x,1/2+y,1/2-z
1/2-y,1/2-x,1/2+z
1/2+y,1/2+x,1/2+z
loop_
_atom_site_type_symbol
_atom_site_label
_atom_site_fract_x
_atom_site_fract_y
_atom_site_fract_z
Si Si1 0.195705 0.656098 0.828499
Si Si2 0.730670 0.960928 0.279918
Si Si3 0.000000 0.000000 0.500000
Si Si4 0.567970 0.432031 0.185791
Si Si5 0.256277 0.402457 0.973928
O O1 0.274858 0.725143 0.799962
O O2 0.098090 0.694776 0.806754
O O3 0.202965 0.563899 0.770211
O O4 0.198065 0.637304 0.940783
O O5 0.836270 0.960066 0.278789
O O6 0.696892 0.915333 0.378831
O O7 0.060634 0.060634 0.429511
O O8 0.500000 0.500000 0.235661
O O9 0.336596 0.336596 0.948010
O O10 0.295042 0.500000 0.000000
#
# Coordination Sequence:
#
# PCOD8311499 Si02
#       5
#    16  16   2   8  16
#     4  10  21  34  54  80 111 148 185 224 278 338
#     4  11  20  35  52  78 115 147 181 226 278 330
#     4   8  24  24  52  96 116 128 178 224 304 344
#     4  10  20  30  53  88 117 140 172 232 286 336
#     4   9  18  30  50  78 107 141 175 226 284 334
#
# _framework density 18.175584000000001
#
# number of rings (size 3 to 8) (size 9 to 14) (size 15 to 20)
#    0.414    1.655    2.759    0.828    5.793    1.931 
#    0.000    1.379    0.000    4.966    0.000    0.000 
#    0.000    0.000    0.000    0.000    0.000    0.000 
#
# Total GULP energy -359282.688010 kJ/mol
# GULP energy per Si atom -12389.058207 kJ/mol
# Density = 1.813422 g / cm^3
# Si number density = 18.175584 Si / 1000 Ang^3
#
#
#
# Elastic Constant Matrix: (Units=GPa)
#
#
# Indices 1 2 3 4 5 6 
#
# 1 97.2695 39.3524 29.7081 0.0000 0.0000 0.0000
# 2 39.3524 97.2684 29.7075 0.0000 0.0000 0.0000
# 3 29.7081 29.7075 49.2728 0.0000 0.0000 0.0000
# 4 0.0000 0.0000 0.0000 28.5878 0.0000 0.0000
# 5 0.0000 0.0000 0.0000 0.0000 28.5884 0.0000
# 6 0.0000 0.0000 0.0000 0.0000 0.0000 25.7065
#
#
#
# Elastic Compliance Matrix: (Units=1/GPa)
#
#
# Indices 1 2 3 4 5 6 
#
# 1 0.013593 -0.003673 -0.005982 0.000000 0.000000 0.000000
# 2 -0.003673 0.013594 -0.005981 0.000000 0.000000 0.000000
# 3 -0.005982 -0.005981 0.027508 0.000000 0.000000 0.000000
# 4 0.000000 0.000000 0.000000 0.034980 0.000000 0.000000
# 5 0.000000 0.000000 0.000000 0.000000 0.034979 0.000000
# 6 0.000000 0.000000 0.000000 0.000000 0.000000 0.038901
#
#
# Mechanical properties :
#
#
# Convention : Reuss Voigt Hill
#
# Bulk Modulus (GPa) = 42.69206 49.03853 45.86530
# Shear Modulus (GPa) = 24.67502 26.24606 25.46054
#
# Velocity S-wave (km/s) = 3.68855 3.80416 3.74680
# Velocity P-wave (km/s) = 6.45602 6.80695 6.63380
#
# Compressibility (1/GPa) = 0.02342356
#
# Stress axis : x y z
#
# Youngs Moduli (GPa) = 73.56472 73.56433 36.35312
#
# Poissons Ratio (x) = 0.27018 0.21745
# Poissons Ratio (y) = 0.27018 0.21744
# Poissons Ratio (z) = 0.44003 0.44002
#
# Static dielectric constant tensor:
#      x y z
#    x 3.293930 0.000000 0.000000 
#    y 0.000000 3.293960 0.000000 
#    z 0.000000 0.000000 3.307910 
# 
# 
# High freq. dielectric constant tensor:
#      x y z
#    x 1.700290 0.000000 0.000000 
#    y 0.000000 1.700290 0.000000 
#    z 0.000000 0.000000 1.676390 
# 
# From -- ./inp_files/4081.got.cif
#   From: 2010.03.12/outbox.cif.g09.slc.cpg/sg121_3_cif.got.tgz:4081.got - 2010.04.06 16:06:48.
