data_PCOD8311556
_publ_section_title
;
Structure prediction by ZEFSAII (Michael W. Deem and Ramdas Pophale) SiO2 
 PCOD8311556
Probable space group: I -4 2 M
;
_chemical_formula_sum "Si O2"
_cell_formula_units_Z 72
_cell_length_a 13.351003
_cell_length_b 13.351003
_cell_length_c 21.413501
_cell_angle_alpha 90.000000
_cell_angle_beta 90.000000
_cell_angle_gamma 90.000000
_cell_volume 3816.941159
_symmetry_space_group_name_H-M "I -4 2 M"
_symmetry_group_IT_number 121
_symmetry_cell_setting 'tetragonal'
loop_
_space_group_symop_operation_xyz
x,y,z
y,-x,-z
-x,-y,z
-y,x,-z
x,-y,-z
-x,y,-z
-y,-x,z
y,x,z
1/2+x,1/2+y,1/2+z
1/2+y,1/2-x,1/2-z
1/2-x,1/2-y,1/2+z
1/2-y,1/2+x,1/2-z
1/2+x,1/2-y,1/2-z
1/2-x,1/2+y,1/2-z
1/2-y,1/2-x,1/2+z
1/2+y,1/2+x,1/2+z
loop_
_atom_site_type_symbol
_atom_site_label
_atom_site_fract_x
_atom_site_fract_y
_atom_site_fract_z
Si Si1 0.001349 0.163778 0.681539
Si Si2 0.237046 0.924103 0.445230
Si Si3 0.390067 0.771851 0.396461
Si Si4 0.000000 0.837314 0.000000
Si Si5 0.974693 0.345722 0.768894
O O1 0.908247 0.091754 0.670985
O O2 0.978691 0.236720 0.738603
O O3 0.015492 0.228195 0.619225
O O4 0.101764 0.101764 0.697503
O O5 0.133104 0.866897 0.459985
O O6 0.328001 0.846944 0.440089
O O7 0.262698 0.000000 0.500000
O O8 0.316944 0.683057 0.371789
O O9 0.479279 0.728806 0.438838
O O10 0.438159 0.832423 0.339567
O O11 0.096139 0.903862 0.016853
O O12 0.896363 0.415739 0.731592
#
# Coordination Sequence:
#
# PCOD8311556 Si02
#       5
#    16  16  16   8  16
#     4  10  21  37  59  87 116 155 204 248 297 358
#     4  10  20  36  58  85 119 155 192 241 299 356
#     4  10  21  40  62  85 119 158 196 248 302 351
#     4   9  20  40  63  88 116 150 199 250 296 355
#     4  11  23  39  59  85 121 159 201 246 302 352
#
# _framework density 18.863273
#
# number of rings (size 3 to 8) (size 9 to 14) (size 15 to 20)
#    0.000    1.889    2.222    1.333    0.000    4.667 
#    0.000    4.444    0.000    0.000    0.000    0.000 
#    0.000    0.000    0.000    0.000    0.000    0.000 
#
# Total GULP energy -446575.871115 kJ/mol
# GULP energy per Si atom -12404.885309 kJ/mol
# Density = 1.882034 g / cm^3
# Si number density = 18.863273 Si / 1000 Ang^3
#
#
#
# Elastic Constant Matrix: (Units=GPa)
#
#
# Indices 1 2 3 4 5 6 
#
# 1 90.6796 31.2461 46.2475 0.0000 0.0000 0.0000
# 2 31.2461 90.6801 46.2464 0.0000 0.0000 0.0000
# 3 46.2475 46.2464 92.9946 0.0000 0.0000 0.0000
# 4 0.0000 0.0000 0.0000 36.6500 0.0000 0.0000
# 5 0.0000 0.0000 0.0000 0.0000 36.6500 0.0000
# 6 0.0000 0.0000 0.0000 0.0000 0.0000 21.2537
#
#
#
# Elastic Compliance Matrix: (Units=1/GPa)
#
#
# Indices 1 2 3 4 5 6 
#
# 1 0.014998 -0.001828 -0.006550 0.000000 0.000000 0.000000
# 2 -0.001828 0.014998 -0.006550 0.000000 0.000000 0.000000
# 3 -0.006550 -0.006550 0.017268 0.000000 0.000000 0.000000
# 4 0.000000 0.000000 0.000000 0.027285 0.000000 0.000000
# 5 0.000000 0.000000 0.000000 0.000000 0.027285 0.000000
# 6 0.000000 0.000000 0.000000 0.000000 0.000000 0.047051
#
#
# Mechanical properties :
#
#
# Convention : Reuss Voigt Hill
#
# Bulk Modulus (GPa) = 57.43958 57.98160 57.71059
# Shear Modulus (GPa) = 27.09414 28.95169 28.02292
#
# Velocity S-wave (km/s) = 3.79402 3.92193 3.85850
# Velocity P-wave (km/s) = 7.05049 7.16332 7.10713
#
# Compressibility (1/GPa) = 0.01740960
#
# Stress axis : x y z
#
# Youngs Moduli (GPa) = 66.67516 66.67673 57.91137
#
# Poissons Ratio (x) = 0.12185 0.37931
# Poissons Ratio (y) = 0.12185 0.37929
# Poissons Ratio (z) = 0.43672 0.43670
#
# Static dielectric constant tensor:
#      x y z
#    x 3.528730 0.000000 0.000000 
#    y 0.000000 3.528730 0.000000 
#    z 0.000000 0.000000 3.308960 
# 
# 
# High freq. dielectric constant tensor:
#      x y z
#    x 1.738750 0.000000 0.000000 
#    y 0.000000 1.738750 0.000000 
#    z 0.000000 0.000000 1.724440 
# 
# From -- ./inp_files/5175.got.cif
#   From: 2010.03.12/outbox.cif.g09.slc.cpg/sg121_3_cif.got.tgz:5175.got - 2010.04.06 16:06:48.
