data_PCOD8311498
_publ_section_title
;
Structure prediction by ZEFSAII (Michael W. Deem and Ramdas Pophale) SiO2 
 PCOD8311498
Probable space group: I -4 2 M
;
_chemical_formula_sum "Si O2"
_cell_formula_units_Z 98
_cell_length_a 15.763240
_cell_length_b 15.763240
_cell_length_c 23.214446
_cell_angle_alpha 90.000000
_cell_angle_beta 90.000000
_cell_angle_gamma 90.000000
_cell_volume 5768.319397
_symmetry_space_group_name_H-M "I -4 2 M"
_symmetry_group_IT_number 121
_symmetry_cell_setting 'tetragonal'
loop_
_space_group_symop_operation_xyz
x,y,z
y,-x,-z
-x,-y,z
-y,x,-z
x,-y,-z
-x,y,-z
-y,-x,z
y,x,z
1/2+x,1/2+y,1/2+z
1/2+y,1/2-x,1/2-z
1/2-x,1/2-y,1/2+z
1/2-y,1/2+x,1/2-z
1/2+x,1/2-y,1/2-z
1/2-x,1/2+y,1/2-z
1/2-y,1/2-x,1/2+z
1/2+y,1/2+x,1/2+z
loop_
_atom_site_type_symbol
_atom_site_label
_atom_site_fract_x
_atom_site_fract_y
_atom_site_fract_z
Si Si1 0.733084 0.867872 0.031003
Si Si2 0.000000 0.000000 0.000000
Si Si3 0.638225 0.500000 0.000000
Si Si4 0.367524 0.945391 0.314249
Si Si5 0.125956 0.546732 0.685728
Si Si6 0.244446 0.106344 0.585232
Si Si7 0.066438 0.933563 0.108428
Si Si8 0.751683 0.546354 0.411541
O O1 0.815650 0.815650 0.051899
O O2 0.648454 0.812277 0.041396
O O3 0.724751 0.952715 0.067753
O O4 0.743203 0.887241 0.963541
O O5 0.940213 0.059788 0.038442
O O6 0.697768 0.528470 0.053113
O O7 0.579138 0.420863 0.019969
O O8 0.445568 0.881549 0.324171
O O9 0.334238 0.935022 0.248707
O O10 0.290925 0.928141 0.357894
O O11 0.404456 0.038634 0.322148
O O12 0.185385 0.582633 0.636106
O O13 0.175632 0.175632 0.605464
O O14 0.043191 0.837571 0.122449
O O15 0.000000 0.000000 0.138002
#
# Coordination Sequence:
#
# PCOD8311498 Si02
#       8
#    16   2   8  16  16  16   8  16
#     4  10  20  31  47  76 112 137 170 215 259 310
#     4   8  16  32  48  72  92 156 188 180 244 314
#     4   9  20  38  58  77 100 136 176 211 268 338
#     4   9  18  38  55  78 102 137 181 211 276 323
#     4   9  19  34  59  75 104 141 173 223 260 323
#     4  10  20  35  56  78 103 137 171 223 271 317
#     4  10  20  30  50  70 107 156 182 203 241 320
#     4  11  19  32  49  79 105 145 179 215 254 306
#
# _framework density 16.989350999999999
#
# number of rings (size 3 to 8) (size 9 to 14) (size 15 to 20)
#    0.245    2.041    2.449    2.449    2.286    0.000 
#    1.469    0.000    0.000    2.939    0.000    0.000 
#    0.000    0.000    0.000    0.000    0.000    0.000 
#
# Total GULP energy -607363.160099 kJ/mol
# GULP energy per Si atom -12395.166533 kJ/mol
# Density = 1.695068 g / cm^3
# Si number density = 16.989351 Si / 1000 Ang^3
#
#
#
# Elastic Constant Matrix: (Units=GPa)
#
#
# Indices 1 2 3 4 5 6 
#
# 1 74.3602 24.9208 43.9932 0.0000 0.0000 0.0000
# 2 24.9208 74.3597 43.9931 0.0000 0.0000 0.0000
# 3 43.9932 43.9931 93.4119 0.0000 0.0000 0.0000
# 4 0.0000 0.0000 0.0000 24.9679 0.0000 0.0000
# 5 0.0000 0.0000 0.0000 0.0000 24.9676 0.0000
# 6 0.0000 0.0000 0.0000 0.0000 0.0000 20.5350
#
#
#
# Elastic Compliance Matrix: (Units=1/GPa)
#
#
# Indices 1 2 3 4 5 6 
#
# 1 0.018757 -0.001469 -0.008142 0.000000 0.000000 0.000000
# 2 -0.001469 0.018758 -0.008142 0.000000 0.000000 0.000000
# 3 -0.008142 -0.008142 0.018374 0.000000 0.000000 0.000000
# 4 0.000000 0.000000 0.000000 0.040051 0.000000 0.000000
# 5 0.000000 0.000000 0.000000 0.000000 0.040052 0.000000
# 6 0.000000 0.000000 0.000000 0.000000 0.000000 0.048697
#
#
# Mechanical properties :
#
#
# Convention : Reuss Voigt Hill
#
# Bulk Modulus (GPa) = 49.06123 51.99400 50.52762
# Shear Modulus (GPa) = 22.02727 22.70907 22.36817
#
# Velocity S-wave (km/s) = 3.60465 3.66001 3.63243
# Velocity P-wave (km/s) = 6.80184 6.96643 6.88463
#
# Compressibility (1/GPa) = 0.02038269
#
# Stress axis : x y z
#
# Youngs Moduli (GPa) = 53.31206 53.31157 54.42355
#
# Poissons Ratio (x) = 0.07833 0.44312
# Poissons Ratio (y) = 0.07833 0.44312
# Poissons Ratio (z) = 0.43407 0.43407
#
# Static dielectric constant tensor:
#      x y z
#    x 3.197200 0.000000 0.000000 
#    y 0.000000 3.197200 0.000000 
#    z 0.000000 0.000000 3.008630 
# 
# 
# High freq. dielectric constant tensor:
#      x y z
#    x 1.653840 0.000000 0.000000 
#    y 0.000000 1.653840 0.000000 
#    z 0.000000 0.000000 1.636070 
# 
# From -- ./inp_files/7170.got.cif
#   From: 2010.03.12/outbox.cif.g09.slc.cpg/sg121_4_cif.got.tgz:7170.got - 2010.04.06 16:06:48.
