data_PCOD8311328
_publ_section_title
;
Structure prediction by ZEFSAII (Michael W. Deem and Ramdas Pophale) SiO2 
 PCOD8311328
Probable space group: I -4 C 2
;
_chemical_formula_sum "Si O2"
_cell_formula_units_Z 48
_cell_length_a 10.459108
_cell_length_b 10.459108
_cell_length_c 17.189836
_cell_angle_alpha 90.000000
_cell_angle_beta 90.000000
_cell_angle_gamma 90.000000
_cell_volume 1880.446701
_symmetry_space_group_name_H-M "I -4 C 2"
_symmetry_group_IT_number 120
_symmetry_cell_setting 'tetragonal'
loop_
_space_group_symop_operation_xyz
x,y,z
y,-x,-z
-x,-y,z
-y,x,-z
y,x,1/2-z
-y,-x,1/2-z
-x,y,1/2+z
x,-y,1/2+z
1/2+x,1/2+y,1/2+z
1/2+y,1/2-x,1/2-z
1/2-x,1/2-y,1/2+z
1/2-y,1/2+x,1/2-z
1/2+y,1/2+x,-z
1/2-y,1/2-x,-z
1/2-x,1/2+y,z
1/2+x,1/2-y,z
loop_
_atom_site_type_symbol
_atom_site_label
_atom_site_fract_x
_atom_site_fract_y
_atom_site_fract_z
Si Si1 0.702558 0.259350 0.839125
Si Si2 0.016298 0.188174 0.968422
Si Si3 0.354490 0.008195 0.898599
O O1 0.699405 0.300596 0.750000
O O2 0.569028 0.300332 0.881079
O O3 0.812837 0.346961 0.877074
O O4 0.720013 0.105947 0.850996
O O5 0.006680 0.328052 0.008315
O O6 0.113657 0.116717 0.028545
O O7 0.500000 0.000000 0.875032
#
# Coordination Sequence:
#
# PCOD8311328 Si02
#       3
#    16  16  16
#     4  11  27  46  77 111 152 196 252 321 386 450
#     4   9  21  46  74 109 148 197 254 305 372 465
#     4  11  27  49  77 109 155 202 260 311 382 466
#
# _framework density 25.525850999999999
#
# number of rings (size 3 to 8) (size 9 to 14) (size 15 to 20)
#    0.000    1.667    0.000    1.000    9.333    2.667 
#    6.000   11.667    0.000    0.000    0.000    0.000 
#    0.000    0.000    0.000    0.000    0.000    0.000 
#
# Total GULP energy -297386.187026 kJ/mol
# GULP energy per Si atom -12391.091126 kJ/mol
# Density = 2.546775 g / cm^3
# Si number density = 25.525851 Si / 1000 Ang^3
#
#
#
# Elastic Constant Matrix: (Units=GPa)
#
#
# Indices 1 2 3 4 5 6 
#
# 1 136.3935 41.8899 8.7026 0.0000 0.0000 0.0000
# 2 41.8899 136.3934 8.7024 0.0000 0.0000 0.0000
# 3 8.7026 8.7024 143.7053 0.0000 0.0000 0.0000
# 4 0.0000 0.0000 0.0000 17.3616 0.0000 0.0000
# 5 0.0000 0.0000 0.0000 0.0000 17.3618 0.0000
# 6 0.0000 0.0000 0.0000 0.0000 0.0000 32.8172
#
#
#
# Elastic Compliance Matrix: (Units=1/GPa)
#
#
# Indices 1 2 3 4 5 6 
#
# 1 0.008112 -0.002470 -0.000342 0.000000 0.000000 0.000000
# 2 -0.002470 0.008112 -0.000342 0.000000 0.000000 0.000000
# 3 -0.000342 -0.000342 0.007000 0.000000 0.000000 0.000000
# 4 0.000000 0.000000 0.000000 0.057598 0.000000 0.000000
# 5 0.000000 0.000000 0.000000 0.000000 0.057598 0.000000
# 6 0.000000 0.000000 0.000000 0.000000 0.000000 0.030472
#
#
# Mechanical properties :
#
#
# Convention : Reuss Voigt Hill
#
# Bulk Modulus (GPa) = 59.10826 59.45356 59.28091
# Shear Modulus (GPa) = 27.64916 37.32127 32.48521
#
# Velocity S-wave (km/s) = 3.29474 3.82789 3.57128
# Velocity P-wave (km/s) = 6.13843 6.54821 6.34663
#
# Compressibility (1/GPa) = 0.01691811
#
# Stress axis : x y z
#
# Youngs Moduli (GPa) = 123.27402 123.27393 142.85570
#
# Poissons Ratio (x) = 0.30444 0.04881
# Poissons Ratio (y) = 0.30444 0.04881
# Poissons Ratio (z) = 0.04212 0.04212
#
# Static dielectric constant tensor:
#      x y z
#    x 4.977850 0.000000 0.000000 
#    y 0.000000 4.977840 0.000000 
#    z 0.000000 0.000000 4.225840 
# 
# 
# High freq. dielectric constant tensor:
#      x y z
#    x 2.037520 0.000000 0.000000 
#    y 0.000000 2.037520 0.000000 
#    z 0.000000 0.000000 1.989190 
# 
# From -- ./inp_files/3963.got.cif
#   From: 2010.03.12/outbox.cif.g09.slc.cpg/sg120_2_cif.got.tgz:3963.got - 2010.04.06 16:00:44.
