data_PCOD8311998
_publ_section_title
;
Structure prediction by ZEFSAII (Michael W. Deem and Ramdas Pophale) SiO2 
 PCOD8311998
Probable space group: I -4 2 D
;
_chemical_formula_sum "Si O2"
_cell_formula_units_Z 120
_cell_length_a 25.105352
_cell_length_b 25.105352
_cell_length_c 9.826291
_cell_angle_alpha 90.000000
_cell_angle_beta 90.000000
_cell_angle_gamma 90.000000
_cell_volume 6193.301908
_symmetry_space_group_name_H-M "I -4 2 D"
_symmetry_group_IT_number 122
_symmetry_cell_setting 'tetragonal'
loop_
_space_group_symop_operation_xyz
x,y,z
y,-x,-z
-x,-y,z
-y,x,-z
x,1/2-y,1/4-z
-x,1/2+y,1/4-z
-y,1/2-x,1/4+z
y,1/2+x,1/4+z
1/2+x,1/2+y,1/2+z
1/2+y,1/2-x,1/2-z
1/2-x,1/2-y,1/2+z
1/2-y,1/2+x,1/2-z
1/2+x,-y,3/4-z
1/2-x,y,3/4-z
1/2-y,-x,3/4+z
1/2+y,x,3/4+z
loop_
_atom_site_type_symbol
_atom_site_label
_atom_site_fract_x
_atom_site_fract_y
_atom_site_fract_z
Si Si1 0.826957 0.250000 0.125000
Si Si2 0.240433 0.660541 0.222079
Si Si3 0.545289 0.810259 0.137127
Si Si4 0.807649 0.574198 0.806652
Si Si5 0.157651 0.885513 0.624094
Si Si6 0.080650 0.153016 0.881205
Si Si7 0.688008 0.468582 0.351160
Si Si8 0.588489 0.171359 0.507427
O O1 0.787167 0.281653 0.225850
O O2 0.864901 0.289074 0.046082
O O3 0.250000 0.641079 0.375000
O O4 0.296123 0.658871 0.141165
O O5 0.202444 0.619922 0.144835
O O6 0.564728 0.750000 0.125000
O O7 0.488359 0.815334 0.205972
O O8 0.589283 0.842028 0.223419
O O9 0.538746 0.834815 0.987553
O O10 0.750000 0.587702 0.875000
O O11 0.853342 0.602593 0.898090
O O12 0.820403 0.593137 0.654169
O O13 0.164710 0.933816 0.728633
O O14 0.114038 0.101453 0.828577
O O15 0.046156 0.149527 0.020306
O O16 0.750000 0.454211 0.375000
O O17 0.685880 0.530745 0.315456
#
# Coordination Sequence:
#
# PCOD8311998 Si02
#       8
#     8  16  16  16  16  16  16  16
#     4  10  26  36  58  88 136 170 206 258 330 374
#     4  11  22  39  58  88 128 174 212 251 313 392
#     4  11  21  40  63  91 126 165 219 261 314 382
#     4  11  27  39  65  99 132 169 214 270 329 389
#     4  12  22  40  65  89 130 172 217 261 321 393
#     4  11  22  40  65  94 121 169 215 268 323 382
#     4  12  22  42  68  92 128 172 217 271 325 386
#     4  11  24  42  61  96 132 166 217 274 322 381
#
# _framework density 19.375772000000001
#
# number of rings (size 3 to 8) (size 9 to 14) (size 15 to 20)
#    0.000    0.800    7.333    0.000    4.667    1.067 
#    0.000    0.000    0.000    4.800    0.000    0.000 
#    0.000    0.000    0.000    0.000    0.000    0.000 
#
# Total GULP energy -743361.359982 kJ/mol
# GULP energy per Si atom -12389.356000 kJ/mol
# Density = 1.933167 g / cm^3
# Si number density = 19.375772 Si / 1000 Ang^3
#
#
#
# Elastic Constant Matrix: (Units=GPa)
#
#
# Indices 1 2 3 4 5 6 
#
# 1 72.5050 41.6953 34.4088 0.0000 0.0000 0.0000
# 2 41.6953 72.5050 34.4088 0.0000 0.0000 0.0000
# 3 34.4088 34.4088 110.1232 0.0000 0.0000 0.0000
# 4 0.0000 0.0000 0.0000 23.8282 0.0000 0.0000
# 5 0.0000 0.0000 0.0000 0.0000 23.8282 0.0000
# 6 0.0000 0.0000 0.0000 0.0000 0.0000 21.4852
#
#
#
# Elastic Compliance Matrix: (Units=1/GPa)
#
#
# Indices 1 2 3 4 5 6 
#
# 1 0.021623 -0.010835 -0.003371 0.000000 0.000000 0.000000
# 2 -0.010835 0.021623 -0.003371 0.000000 0.000000 0.000000
# 3 -0.003371 -0.003371 0.011187 0.000000 0.000000 0.000000
# 4 0.000000 0.000000 0.000000 0.041967 0.000000 0.000000
# 5 0.000000 0.000000 0.000000 0.000000 0.041967 0.000000
# 6 0.000000 0.000000 0.000000 0.000000 0.000000 0.046544
#
#
# Mechanical properties :
#
#
# Convention : Reuss Voigt Hill
#
# Bulk Modulus (GPa) = 51.86775 52.90656 52.38716
# Shear Modulus (GPa) = 22.07611 23.46965 22.77288
#
# Velocity S-wave (km/s) = 3.37911 3.48413 3.43202
# Velocity P-wave (km/s) = 6.48475 6.59927 6.54226
#
# Compressibility (1/GPa) = 0.01927980
#
# Stress axis : x y z
#
# Youngs Moduli (GPa) = 46.24807 46.24807 89.38828
#
# Poissons Ratio (x) = 0.50109 0.30130
# Poissons Ratio (y) = 0.50109 0.30130
# Poissons Ratio (z) = 0.15589 0.15589
#
# Static dielectric constant tensor:
#      x y z
#    x 3.641720 0.000000 0.000000 
#    y 0.000000 3.641720 0.000000 
#    z 0.000000 0.000000 3.647050 
# 
# 
# High freq. dielectric constant tensor:
#      x y z
#    x 1.746500 0.000000 0.000000 
#    y 0.000000 1.746500 0.000000 
#    z 0.000000 0.000000 1.766330 
# 
# From -- ./inp_files/3124.got.cif
#   From: 2010.03.12/outbox.cif.g09.slc.cpg/sg122_2_cif.got.tgz:3124.got - 2010.04.06 16:17:16.
