data_PCOD8311004
_publ_section_title
;
Structure prediction by ZEFSAII (Michael W. Deem and Ramdas Pophale) SiO2 
 PCOD8311004
Probable space group: I -4 M 2
;
_chemical_formula_sum "Si O2"
_cell_formula_units_Z 112
_cell_length_a 14.860648
_cell_length_b 14.860648
_cell_length_c 23.135936
_cell_angle_alpha 90.000000
_cell_angle_beta 90.000000
_cell_angle_gamma 90.000000
_cell_volume 5109.313708
_symmetry_space_group_name_H-M "I -4 M 2"
_symmetry_group_IT_number 119
_symmetry_cell_setting 'tetragonal'
loop_
_space_group_symop_operation_xyz
x,y,z
y,-x,-z
-x,-y,z
-y,x,-z
y,x,-z
-y,-x,-z
-x,y,z
x,-y,z
1/2+x,1/2+y,1/2+z
1/2+y,1/2-x,1/2-z
1/2-x,1/2-y,1/2+z
1/2-y,1/2+x,1/2-z
1/2+y,1/2+x,1/2-z
1/2-y,1/2-x,1/2-z
1/2-x,1/2+y,1/2+z
1/2+x,1/2-y,1/2+z
loop_
_atom_site_type_symbol
_atom_site_label
_atom_site_fract_x
_atom_site_fract_y
_atom_site_fract_z
Si Si1 0.280093 0.098483 0.083230
Si Si2 0.857361 0.896528 0.335998
Si Si3 0.350020 0.101294 0.313607
Si Si4 0.601050 0.854237 0.533410
Si Si5 0.684961 0.597655 0.386529
Si Si6 0.098063 0.795995 0.454007
Si Si7 0.898249 0.248480 0.240151
O O1 0.334875 0.096620 0.142854
O O2 0.177474 0.126054 0.089286
O O3 0.272032 0.000000 0.057954
O O4 0.332858 0.144470 0.030265
O O5 0.750720 0.898811 0.335440
O O6 0.887428 0.848597 0.394381
O O7 0.891458 0.836334 0.282976
O O8 0.894215 0.000000 0.331546
O O9 0.357164 0.142836 0.250000
O O10 0.389980 0.000000 0.314223
O O11 0.500000 0.903034 0.531653
O O12 0.586885 0.768433 0.572095
O O13 0.687672 0.906218 0.559679
O O14 0.634486 0.500000 0.385196
O O15 0.713079 0.626424 0.322759
O O16 0.173680 0.826321 0.500000
O O17 0.000000 0.823248 0.478431
O O18 0.829923 0.329923 0.250000
O O19 0.000000 0.286812 0.242724
#
# Coordination Sequence:
#
# PCOD8311004 Si02
#       7
#    16  16  16  16  16  16  16
#     4  11  22  36  58  87 121 162 207 260 321 383
#     4  11  24  42  65  92 124 165 213 264 318 382
#     4  11  23  39  61  89 124 167 213 263 321 386
#     4  10  22  41  65  91 121 162 213 267 322 383
#     4  10  21  38  60  86 117 156 205 260 320 386
#     4  12  25  41  64  93 129 172 215 263 320 384
#     4  11  23  39  62  90 122 162 206 258 320 383
#
# _framework density 21.920752
#
# number of rings (size 3 to 8) (size 9 to 14) (size 15 to 20)
#    0.000    1.143    0.000    7.286    0.000    7.000 
#    0.000    2.857    0.000    6.857    0.000    0.000 
#    0.000    0.000    0.000    0.000    0.000    0.000 
#
# Total GULP energy -693741.707692 kJ/mol
# GULP energy per Si atom -12388.244780 kJ/mol
# Density = 2.187086 g / cm^3
# Si number density = 21.920752 Si / 1000 Ang^3
#
#
#
# Elastic Constant Matrix: (Units=GPa)
#
#
# Indices 1 2 3 4 5 6 
#
# 1 101.9324 44.2515 16.2392 0.0000 0.0000 0.0000
# 2 44.2515 101.9342 16.2401 0.0000 0.0000 0.0000
# 3 16.2392 16.2401 107.2317 0.0000 0.0000 0.0000
# 4 0.0000 0.0000 0.0000 27.7123 0.0000 0.0000
# 5 0.0000 0.0000 0.0000 0.0000 27.7122 0.0000
# 6 0.0000 0.0000 0.0000 0.0000 0.0000 -2.3422
#
#
#
# Elastic Compliance Matrix: (Units=1/GPa)
#
#
# Indices 1 2 3 4 5 6 
#
# 1 0.012208 -0.005129 -0.001072 0.000000 0.000000 0.000000
# 2 -0.005129 0.012208 -0.001072 0.000000 0.000000 0.000000
# 3 -0.001072 -0.001072 0.009650 0.000000 0.000000 0.000000
# 4 0.000000 0.000000 0.000000 0.036085 0.000000 0.000000
# 5 0.000000 0.000000 0.000000 0.000000 0.036085 0.000000
# 6 0.000000 0.000000 0.000000 0.000000 0.000000 -0.426946
#
#
# Mechanical properties :
#
#
# Convention : Reuss Voigt Hill
#
# Bulk Modulus (GPa) = 51.23004 51.61775 51.42389
# Shear Modulus (GPa) = -16.68573 26.24097 4.77762
#
# Velocity S-wave (km/s) = -2.76195 3.46364 1.47791
# Velocity P-wave (km/s) = 3.64008 6.29240 5.14026
#
# Compressibility (1/GPa) = 0.01951980
#
# Stress axis : x y z
#
# Youngs Moduli (GPa) = 81.91507 81.91636 103.62364
#
# Poissons Ratio (x) = 0.42013 0.11108
# Poissons Ratio (y) = 0.42013 0.11110
# Poissons Ratio (z) = 0.08781 0.08782
#
# Static dielectric constant tensor:
#      x y z
#    x 4.249230 0.000000 0.000000 
#    y 0.000000 4.249230 0.000000 
#    z 0.000000 0.000000 4.105990 
# 
# 
# High freq. dielectric constant tensor:
#      x y z
#    x 1.866020 0.000000 0.000000 
#    y 0.000000 1.866020 0.000000 
#    z 0.000000 0.000000 1.875330 
# 
# From -- ./inp_files/8824.got.cif
#   From: 2010.03.12/outbox.cif.g09.slc.cpg/sg119_5_cif.got.tgz:8824.got - 2010.04.14 02:25:26.
