data_PCOD8311464
_publ_section_title
;
Structure prediction by ZEFSAII (Michael W. Deem and Ramdas Pophale) SiO2 
 PCOD8311464
Probable space group: I -4 2 M
;
_chemical_formula_sum "Si O2"
_cell_formula_units_Z 60
_cell_length_a 19.008832
_cell_length_b 19.008832
_cell_length_c 9.381065
_cell_angle_alpha 90.000000
_cell_angle_beta 90.000000
_cell_angle_gamma 90.000000
_cell_volume 3389.713632
_symmetry_space_group_name_H-M "I -4 2 M"
_symmetry_group_IT_number 121
_symmetry_cell_setting 'tetragonal'
loop_
_space_group_symop_operation_xyz
x,y,z
y,-x,-z
-x,-y,z
-y,x,-z
x,-y,-z
-x,y,-z
-y,-x,z
y,x,z
1/2+x,1/2+y,1/2+z
1/2+y,1/2-x,1/2-z
1/2-x,1/2-y,1/2+z
1/2-y,1/2+x,1/2-z
1/2+x,1/2-y,1/2-z
1/2-x,1/2+y,1/2-z
1/2-y,1/2-x,1/2+z
1/2+y,1/2+x,1/2+z
loop_
_atom_site_type_symbol
_atom_site_label
_atom_site_fract_x
_atom_site_fract_y
_atom_site_fract_z
Si Si1 0.076253 0.923748 0.248684
Si Si2 0.275680 0.162173 0.580552
Si Si3 0.500000 0.500000 0.000000
Si Si4 0.632612 0.254134 0.234030
Si Si5 0.500000 0.500000 0.500000
Si Si6 0.782814 0.021642 0.342549
O O1 0.046747 0.953254 0.396511
O O2 0.158023 0.941515 0.247863
O O3 0.047330 0.952671 0.101134
O O4 0.203864 0.203864 0.623929
O O5 0.343332 0.204016 0.637297
O O6 0.282317 0.159279 0.410452
O O7 0.276468 0.082231 0.641473
O O8 0.667775 0.332226 0.248333
O O9 0.548061 0.257639 0.240148
O O10 0.810295 0.000000 0.500000
#
# Coordination Sequence:
#
# PCOD8311464 Si02
#       6
#     8  16   2  16   2  16
#     4  11  20  36  46  74 106 141 175 206 255 306
#     4   9  17  34  50  74 103 132 170 218 258 305
#     4  10  20  26  60  62 100 146 172 202 244 302
#     4   9  19  32  51  77 102 132 172 215 262 305
#     4  10  28  34  36  70 124 142 160 214 256 326
#     4  10  19  32  58  78  95 136 188 217 246 306
#
# _framework density 17.700610999999999
#
# number of rings (size 3 to 8) (size 9 to 14) (size 15 to 20)
#    0.000    2.400    2.667    0.000    5.600    0.000 
#    4.800    0.000    0.000    0.800    0.000    5.600 
#    0.000    0.000    0.000    0.000    0.000    0.000 
#
# Total GULP energy -371810.893999 kJ/mol
# GULP energy per Si atom -12393.696467 kJ/mol
# Density = 1.766032 g / cm^3
# Si number density = 17.700611 Si / 1000 Ang^3
#
#
#
# Elastic Constant Matrix: (Units=GPa)
#
#
# Indices 1 2 3 4 5 6 
#
# 1 79.9291 22.9692 18.9224 0.0000 0.0000 0.0000
# 2 22.9692 79.9268 18.9222 0.0000 0.0000 0.0000
# 3 18.9224 18.9222 50.0356 0.0000 0.0000 0.0000
# 4 0.0000 0.0000 0.0000 38.7634 0.0000 0.0000
# 5 0.0000 0.0000 0.0000 0.0000 38.7658 0.0000
# 6 0.0000 0.0000 0.0000 0.0000 0.0000 22.2520
#
#
#
# Elastic Compliance Matrix: (Units=1/GPa)
#
#
# Indices 1 2 3 4 5 6 
#
# 1 0.014422 -0.003134 -0.004269 0.000000 0.000000 0.000000
# 2 -0.003134 0.014423 -0.004269 0.000000 0.000000 0.000000
# 3 -0.004269 -0.004269 0.023215 0.000000 0.000000 0.000000
# 4 0.000000 0.000000 0.000000 0.025798 0.000000 0.000000
# 5 0.000000 0.000000 0.000000 0.000000 0.025796 0.000000
# 6 0.000000 0.000000 0.000000 0.000000 0.000000 0.044940
#
#
# Mechanical properties :
#
#
# Convention : Reuss Voigt Hill
#
# Bulk Modulus (GPa) = 34.82434 36.83545 35.82989
# Shear Modulus (GPa) = 27.54680 29.89474 28.72077
#
# Velocity S-wave (km/s) = 3.94923 4.11409 4.03250
# Velocity P-wave (km/s) = 6.36490 6.58962 6.47824
#
# Compressibility (1/GPa) = 0.02871555
#
# Stress axis : x y z
#
# Youngs Moduli (GPa) = 69.33688 69.33480 43.07610
#
# Poissons Ratio (x) = 0.21729 0.18389
# Poissons Ratio (y) = 0.21730 0.18390
# Poissons Ratio (z) = 0.29600 0.29600
#
# Static dielectric constant tensor:
#      x y z
#    x 3.054420 0.000000 0.000000 
#    y 0.000000 3.054410 0.000000 
#    z 0.000000 0.000000 3.151170 
# 
# 
# High freq. dielectric constant tensor:
#      x y z
#    x 1.665490 0.000000 0.000000 
#    y 0.000000 1.665490 0.000000 
#    z 0.000000 0.000000 1.676240 
# 
# From -- ./inp_files/2976.got.cif
#   From: 2010.03.12/outbox.cif.g09.slc.cpg/sg121_2_cif.got.tgz:2976.got - 2010.04.06 16:06:48.
