data_PCOD8311170
_publ_section_title
;
Structure prediction by ZEFSAII (Michael W. Deem and Ramdas Pophale) SiO2 
 PCOD8311170
Probable space group: I -4 C 2
;
_chemical_formula_sum "Si O2"
_cell_formula_units_Z 96
_cell_length_a 16.147830
_cell_length_b 16.147830
_cell_length_c 18.449467
_cell_angle_alpha 90.000000
_cell_angle_beta 90.000000
_cell_angle_gamma 90.000000
_cell_volume 4810.743052
_symmetry_space_group_name_H-M "I -4 C 2"
_symmetry_group_IT_number 120
_symmetry_cell_setting 'tetragonal'
loop_
_space_group_symop_operation_xyz
x,y,z
y,-x,-z
-x,-y,z
-y,x,-z
y,x,1/2-z
-y,-x,1/2-z
-x,y,1/2+z
x,-y,1/2+z
1/2+x,1/2+y,1/2+z
1/2+y,1/2-x,1/2-z
1/2-x,1/2-y,1/2+z
1/2-y,1/2+x,1/2-z
1/2+y,1/2+x,-z
1/2-y,1/2-x,-z
1/2-x,1/2+y,z
1/2+x,1/2-y,z
loop_
_atom_site_type_symbol
_atom_site_label
_atom_site_fract_x
_atom_site_fract_y
_atom_site_fract_z
Si Si1 0.402274 0.287244 0.790187
Si Si2 0.459878 0.880814 0.220413
Si Si3 0.765862 0.241978 0.895759
Si Si4 0.633117 0.323033 0.522636
Si Si5 0.011902 0.797208 0.423406
Si Si6 0.358782 0.891771 0.083825
O O1 0.370130 0.370130 0.750000
O O2 0.443572 0.215902 0.740221
O O3 0.320824 0.245667 0.825107
O O4 0.464570 0.323699 0.850539
O O5 0.556660 0.902632 0.231959
O O6 0.439211 0.898266 0.135230
O O7 0.751923 0.335047 0.926298
O O8 0.678712 0.198676 0.879991
O O9 0.808854 0.178554 0.951789
O O10 0.645104 0.408293 0.566347
O O11 0.539366 0.310155 0.497897
O O12 0.026894 0.698806 0.413735
O O13 0.380158 0.880158 0.000000
#
# Coordination Sequence:
#
# PCOD8311170 Si02
#       6
#    16  16  16  16  16  16
#     4  11  21  35  60  88 120 168 216 248 303 388
#     4  11  24  41  59  87 131 168 201 265 334 381
#     4   9  17  33  56  85 115 155 205 254 292 368
#     4   9  18  34  56  86 122 149 206 258 310 363
#     4  10  20  35  59  91 116 163 206 260 317 374
#     4  11  19  37  64  89 119 158 208 259 319 374
#
# _framework density 19.955335999999999
#
# number of rings (size 3 to 8) (size 9 to 14) (size 15 to 20)
#    0.000    1.833    6.667    0.000    0.000    1.667 
#    0.000    1.667    0.000    0.000    0.000    0.000 
#    0.000    0.000    0.000    0.000    0.000    0.000 
#
# Total GULP energy -594760.299868 kJ/mol
# GULP energy per Si atom -12390.839581 kJ/mol
# Density = 1.990992 g / cm^3
# Si number density = 19.955336 Si / 1000 Ang^3
#
#
#
# Elastic Constant Matrix: (Units=GPa)
#
#
# Indices 1 2 3 4 5 6 
#
# 1 68.7141 22.9688 22.9328 0.0000 0.0000 0.0000
# 2 22.9688 68.7141 22.9329 0.0000 0.0000 0.0000
# 3 22.9328 22.9329 86.0834 0.0000 0.0000 0.0000
# 4 0.0000 0.0000 0.0000 30.8199 0.0000 0.0000
# 5 0.0000 0.0000 0.0000 0.0000 30.8199 0.0000
# 6 0.0000 0.0000 0.0000 0.0000 0.0000 25.8850
#
#
#
# Elastic Compliance Matrix: (Units=1/GPa)
#
#
# Indices 1 2 3 4 5 6 
#
# 1 0.017222 -0.004638 -0.003352 0.000000 0.000000 0.000000
# 2 -0.004638 0.017222 -0.003352 0.000000 0.000000 0.000000
# 3 -0.003352 -0.003352 0.013403 0.000000 0.000000 0.000000
# 4 0.000000 0.000000 0.000000 0.032447 0.000000 0.000000
# 5 0.000000 0.000000 0.000000 0.000000 0.032447 0.000000
# 6 0.000000 0.000000 0.000000 0.000000 0.000000 0.038632
#
#
# Mechanical properties :
#
#
# Convention : Reuss Voigt Hill
#
# Bulk Modulus (GPa) = 39.74327 40.13118 39.93722
# Shear Modulus (GPa) = 27.40540 27.81677 27.61109
#
# Velocity S-wave (km/s) = 3.70988 3.73762 3.72377
# Velocity P-wave (km/s) = 6.18953 6.22740 6.20849
#
# Compressibility (1/GPa) = 0.02516149
#
# Stress axis : x y z
#
# Youngs Moduli (GPa) = 58.06455 58.06455 74.61093
#
# Poissons Ratio (x) = 0.26930 0.25013
# Poissons Ratio (y) = 0.26930 0.25013
# Poissons Ratio (z) = 0.19466 0.19466
#
# Static dielectric constant tensor:
#      x y z
#    x 3.581320 0.000000 0.000000 
#    y 0.000000 3.581320 0.000000 
#    z 0.000000 0.000000 3.693890 
# 
# 
# High freq. dielectric constant tensor:
#      x y z
#    x 1.765100 0.000000 0.000000 
#    y 0.000000 1.765100 0.000000 
#    z 0.000000 0.000000 1.775460 
# 
# From -- ./inp_files/4460.got.cif
#   From: 2010.03.12/outbox.cif.g09.slc.cpg/sg120_3_cif.got.tgz:4460.got - 2010.04.06 16:00:44.
