data_PCOD8311875
_publ_section_title
;
Structure prediction by ZEFSAII (Michael W. Deem and Ramdas Pophale) SiO2 
 PCOD8311875
Probable space group: I -4 2 D
;
_chemical_formula_sum "Si O2"
_cell_formula_units_Z 84
_cell_length_a 14.649442
_cell_length_b 14.649442
_cell_length_c 18.212971
_cell_angle_alpha 90.000000
_cell_angle_beta 90.000000
_cell_angle_gamma 90.000000
_cell_volume 3908.615603
_symmetry_space_group_name_H-M "I -4 2 D"
_symmetry_group_IT_number 122
_symmetry_cell_setting 'tetragonal'
loop_
_space_group_symop_operation_xyz
x,y,z
y,-x,-z
-x,-y,z
-y,x,-z
x,1/2-y,1/4-z
-x,1/2+y,1/4-z
-y,1/2-x,1/4+z
y,1/2+x,1/4+z
1/2+x,1/2+y,1/2+z
1/2+y,1/2-x,1/2-z
1/2-x,1/2-y,1/2+z
1/2-y,1/2+x,1/2-z
1/2+x,-y,3/4-z
1/2-x,y,3/4-z
1/2-y,-x,3/4+z
1/2+y,x,3/4+z
loop_
_atom_site_type_symbol
_atom_site_label
_atom_site_fract_x
_atom_site_fract_y
_atom_site_fract_z
Si Si1 0.175180 0.477423 0.171503
Si Si2 0.791894 0.588730 0.454345
Si Si3 0.500000 0.500000 0.500000
Si Si4 0.327140 0.620087 0.316608
Si Si5 0.612719 0.234418 0.210238
Si Si6 0.925535 0.751651 0.454206
O O1 0.218074 0.406748 0.229956
O O2 0.130674 0.424025 0.104374
O O3 0.247144 0.546545 0.132759
O O4 0.089733 0.533040 0.205852
O O5 0.750000 0.615002 0.375000
O O6 0.822069 0.483828 0.458595
O O7 0.874091 0.656736 0.473867
O O8 0.250000 0.646305 0.375000
O O9 0.322782 0.687697 0.246629
O O10 0.601614 0.250000 0.125000
O O11 0.513035 0.233419 0.245143
O O12 0.662108 0.137728 0.221263
#
# Coordination Sequence:
#
# PCOD8311875 Si02
#       6
#    16  16   4  16  16  16
#     4  11  22  36  60  90 127 164 202 255 314 387
#     4  11  22  38  64  95 127 164 204 257 325 395
#     4  12  20  36  60 100 136 160 192 246 328 412
#     4  10  21  39  63  95 127 162 203 258 326 392
#     4  11  25  44  67  92 127 173 222 272 319 379
#     4  11  25  43  63  90 124 168 219 267 316 371
#
# _framework density 21.490985999999999
#
# number of rings (size 3 to 8) (size 9 to 14) (size 15 to 20)
#    0.000    1.143    0.000    7.429    0.000    6.476 
#    0.000    1.905    0.000    0.000    0.000    0.000 
#    0.000    0.000    0.000    0.000    0.000    0.000 
#
# Total GULP energy -520627.508745 kJ/mol
# GULP energy per Si atom -12395.893065 kJ/mol
# Density = 2.144207 g / cm^3
# Si number density = 21.490986 Si / 1000 Ang^3
#
#
#
# Elastic Constant Matrix: (Units=GPa)
#
#
# Indices 1 2 3 4 5 6 
#
# 1 126.9177 63.3571 61.5738 0.0000 0.0000 0.0000
# 2 63.3571 126.9177 61.5739 0.0000 0.0000 0.0000
# 3 61.5738 61.5739 136.0705 0.0000 0.0000 0.0000
# 4 0.0000 0.0000 0.0000 30.8052 0.0000 0.0000
# 5 0.0000 0.0000 0.0000 0.0000 30.8052 0.0000
# 6 0.0000 0.0000 0.0000 0.0000 0.0000 39.7787
#
#
#
# Elastic Compliance Matrix: (Units=1/GPa)
#
#
# Indices 1 2 3 4 5 6 
#
# 1 0.011583 -0.004150 -0.003363 0.000000 0.000000 0.000000
# 2 -0.004150 0.011583 -0.003363 0.000000 0.000000 0.000000
# 3 -0.003363 -0.003363 0.010393 0.000000 0.000000 0.000000
# 4 0.000000 0.000000 0.000000 0.032462 0.000000 0.000000
# 5 0.000000 0.000000 0.000000 0.000000 0.032462 0.000000
# 6 0.000000 0.000000 0.000000 0.000000 0.000000 0.025139
#
#
# Mechanical properties :
#
#
# Convention : Reuss Voigt Hill
#
# Bulk Modulus (GPa) = 84.71256 84.76840 84.74048
# Shear Modulus (GPa) = 33.48743 33.83790 33.66266
#
# Velocity S-wave (km/s) = 3.95170 3.97232 3.96202
# Velocity P-wave (km/s) = 7.76688 7.78257 7.77473
#
# Compressibility (1/GPa) = 0.01180463
#
# Stress axis : x y z
#
# Youngs Moduli (GPa) = 86.33615 86.33615 96.21930
#
# Poissons Ratio (x) = 0.35833 0.32360
# Poissons Ratio (y) = 0.35833 0.32360
# Poissons Ratio (z) = 0.29037 0.29037
#
# Static dielectric constant tensor:
#      x y z
#    x 4.066040 0.000000 0.000000 
#    y 0.000000 4.066040 0.000000 
#    z 0.000000 0.000000 4.164910 
# 
# 
# High freq. dielectric constant tensor:
#      x y z
#    x 1.845320 0.000000 0.000000 
#    y 0.000000 1.845320 0.000000 
#    z 0.000000 0.000000 1.852560 
# 
# From -- ./inp_files/7195.got.cif
#   From: 2010.03.12/outbox.cif.g09.slc.cpg/sg122_4_cif.got.tgz:7195.got - 2010.04.06 16:17:16.
