data_PCOD8311275
_publ_section_title
;
Structure prediction by ZEFSAII (Michael W. Deem and Ramdas Pophale) SiO2 
 PCOD8311275
Probable space group: I -4 C 2
;
_chemical_formula_sum "Si O2"
_cell_formula_units_Z 60
_cell_length_a 17.240674
_cell_length_b 17.240674
_cell_length_c 9.523152
_cell_angle_alpha 90.000000
_cell_angle_beta 90.000000
_cell_angle_gamma 90.000000
_cell_volume 2830.669700
_symmetry_space_group_name_H-M "I -4 C 2"
_symmetry_group_IT_number 120
_symmetry_cell_setting 'tetragonal'
loop_
_space_group_symop_operation_xyz
x,y,z
y,-x,-z
-x,-y,z
-y,x,-z
y,x,1/2-z
-y,-x,1/2-z
-x,y,1/2+z
x,-y,1/2+z
1/2+x,1/2+y,1/2+z
1/2+y,1/2-x,1/2-z
1/2-x,1/2-y,1/2+z
1/2-y,1/2+x,1/2-z
1/2+y,1/2+x,-z
1/2-y,1/2-x,-z
1/2-x,1/2+y,z
1/2+x,1/2-y,z
loop_
_atom_site_type_symbol
_atom_site_label
_atom_site_fract_x
_atom_site_fract_y
_atom_site_fract_z
Si Si1 0.466263 0.728926 0.463449
Si Si2 0.870330 0.160797 0.406569
Si Si3 0.000000 0.500000 0.750000
Si Si4 0.182598 0.317403 0.000000
Si Si5 0.532817 0.829003 0.685915
O O1 0.395016 0.669526 0.477329
O O2 0.541554 0.675121 0.451061
O O3 0.468557 0.777592 0.607560
O O4 0.459630 0.793891 0.341845
O O5 0.872832 0.127169 0.250000
O O6 0.821220 0.239680 0.409347
O O7 0.081854 0.495354 0.831476
O O8 0.178121 0.385122 0.887557
#
# Coordination Sequence:
#
# PCOD8311275 Si02
#       5
#    16  16   4   8  16
#     4  11  25  45  71  99 140 173 241 285 344 411
#     4  11  24  46  69 102 136 182 222 291 348 414
#     4  12  24  42  68  94 148 186 220 270 356 386
#     4  10  26  41  68 100 136 183 236 266 350 414
#     4  11  25  44  64 105 137 183 232 286 327 429
#
# _framework density 21.196397000000001
#
# number of rings (size 3 to 8) (size 9 to 14) (size 15 to 20)
#    0.000    1.067    2.667    3.200    3.733    8.533 
#    0.000    1.333    0.000    0.000    0.000    0.000 
#    0.000    0.000    0.000    0.000    0.000    0.000 
#
# Total GULP energy -371897.164361 kJ/mol
# GULP energy per Si atom -12396.572145 kJ/mol
# Density = 2.114815 g / cm^3
# Si number density = 21.196397 Si / 1000 Ang^3
#
#
#
# Elastic Constant Matrix: (Units=GPa)
#
#
# Indices 1 2 3 4 5 6 
#
# 1 108.7035 73.6551 27.7446 0.0000 0.0000 0.0000
# 2 73.6551 108.7078 27.7437 0.0000 0.0000 0.0000
# 3 27.7446 27.7437 89.1830 0.0000 0.0000 0.0000
# 4 0.0000 0.0000 0.0000 23.7765 0.0000 0.0000
# 5 0.0000 0.0000 0.0000 0.0000 23.7756 0.0000
# 6 0.0000 0.0000 0.0000 0.0000 0.0000 41.5322
#
#
#
# Elastic Compliance Matrix: (Units=1/GPa)
#
#
# Indices 1 2 3 4 5 6 
#
# 1 0.017294 -0.011237 -0.001885 0.000000 0.000000 0.000000
# 2 -0.011237 0.017293 -0.001884 0.000000 0.000000 0.000000
# 3 -0.001885 -0.001884 0.012385 0.000000 0.000000 0.000000
# 4 0.000000 0.000000 0.000000 0.042058 0.000000 0.000000
# 5 0.000000 0.000000 0.000000 0.000000 0.042060 0.000000
# 6 0.000000 0.000000 0.000000 0.000000 0.000000 0.024078
#
#
# Mechanical properties :
#
#
# Convention : Reuss Voigt Hill
#
# Bulk Modulus (GPa) = 58.95496 62.76459 60.85977
# Shear Modulus (GPa) = 26.20094 29.64692 27.92393
#
# Velocity S-wave (km/s) = 3.51964 3.74395 3.63353
# Velocity P-wave (km/s) = 6.66267 6.95448 6.81014
#
# Compressibility (1/GPa) = 0.01696210
#
# Stress axis : x y z
#
# Youngs Moduli (GPa) = 57.82340 57.82623 80.74110
#
# Poissons Ratio (x) = 0.64977 0.15216
# Poissons Ratio (y) = 0.64974 0.15212
# Poissons Ratio (z) = 0.10897 0.10894
#
# Static dielectric constant tensor:
#      x y z
#    x 4.043490 0.000000 0.000000 
#    y 0.000000 4.043470 0.000000 
#    z 0.000000 0.000000 3.800330 
# 
# 
# High freq. dielectric constant tensor:
#      x y z
#    x 1.841480 0.000000 0.000000 
#    y 0.000000 1.841480 0.000000 
#    z 0.000000 0.000000 1.830220 
# 
# From -- ./inp_files/1081.got.cif
#   From: 2010.03.12/outbox.cif.g09.slc.cpg/sg120_1_cif.got.tgz:1081.got - 2010.04.06 16:00:44.
