data_PCOD8311339
_publ_section_title
;
Structure prediction by ZEFSAII (Michael W. Deem and Ramdas Pophale) SiO2 
 PCOD8311339
Probable space group: I -4 2 M
;
_chemical_formula_sum "Si O2"
_cell_formula_units_Z 56
_cell_length_a 16.178154
_cell_length_b 16.178154
_cell_length_c 9.650087
_cell_angle_alpha 90.000000
_cell_angle_beta 90.000000
_cell_angle_gamma 90.000000
_cell_volume 2525.743006
_symmetry_space_group_name_H-M "I -4 2 M"
_symmetry_group_IT_number 121
_symmetry_cell_setting 'tetragonal'
loop_
_space_group_symop_operation_xyz
x,y,z
y,-x,-z
-x,-y,z
-y,x,-z
x,-y,-z
-x,y,-z
-y,-x,z
y,x,z
1/2+x,1/2+y,1/2+z
1/2+y,1/2-x,1/2-z
1/2-x,1/2-y,1/2+z
1/2-y,1/2+x,1/2-z
1/2+x,1/2-y,1/2-z
1/2-x,1/2+y,1/2-z
1/2-y,1/2-x,1/2+z
1/2+y,1/2+x,1/2+z
loop_
_atom_site_type_symbol
_atom_site_label
_atom_site_fract_x
_atom_site_fract_y
_atom_site_fract_z
Si Si1 0.388419 0.748726 0.411190
Si Si2 0.297291 0.159319 0.377631
Si Si3 0.000000 0.777180 0.500000
Si Si4 0.995435 0.866805 0.778612
O O1 0.327132 0.672869 0.417235
O O2 0.380589 0.799789 0.555525
O O3 0.360815 0.809584 0.284693
O O4 0.479604 0.709423 0.380674
O O5 0.219263 0.219263 0.400617
O O6 0.280880 0.075720 0.460125
O O7 0.972180 0.834305 0.627553
O O8 0.915524 0.915524 0.841632
O O9 0.071938 0.928063 0.760293
#
# Coordination Sequence:
#
# PCOD8311339 Si02
#       4
#    16  16   8  16
#     4   8  15  26  41  63  91 128 171 214 261 312
#     4   9  16  27  43  65  95 128 167 215 264 317
#     4  10  16  23  40  68  98 129 166 212 262 308
#     4   9  15  23  38  64  97 129 164 212 270 325
#
# _framework density 22.171693999999999
#
# number of rings (size 3 to 8) (size 9 to 14) (size 15 to 20)
#    0.000    3.143    0.000    4.286    0.000    1.143 
#    0.000    0.000    0.000    6.857    0.000   20.000 
#    0.000  132.571    0.000    1.143    0.000    0.000 
#
# Total GULP energy -346911.565871 kJ/mol
# GULP energy per Si atom -12389.698781 kJ/mol
# Density = 2.212123 g / cm^3
# Si number density = 22.171694 Si / 1000 Ang^3
#
#
#
# Elastic Constant Matrix: (Units=GPa)
#
#
# Indices 1 2 3 4 5 6 
#
# 1 54.9766 29.0650 16.4895 0.0000 0.0000 0.0000
# 2 29.0650 54.9780 16.4903 0.0000 0.0000 0.0000
# 3 16.4895 16.4903 79.9328 0.0000 0.0000 0.0000
# 4 0.0000 0.0000 0.0000 21.9359 0.0000 0.0000
# 5 0.0000 0.0000 0.0000 0.0000 21.9353 0.0000
# 6 0.0000 0.0000 0.0000 0.0000 0.0000 45.2353
#
#
#
# Elastic Compliance Matrix: (Units=1/GPa)
#
#
# Indices 1 2 3 4 5 6 
#
# 1 0.025770 -0.012822 -0.002671 0.000000 0.000000 0.000000
# 2 -0.012822 0.025769 -0.002671 0.000000 0.000000 0.000000
# 3 -0.002671 -0.002671 0.013613 0.000000 0.000000 0.000000
# 4 0.000000 0.000000 0.000000 0.045587 0.000000 0.000000
# 5 0.000000 0.000000 0.000000 0.000000 0.045589 0.000000
# 6 0.000000 0.000000 0.000000 0.000000 0.000000 0.022107
#
#
# Mechanical properties :
#
#
# Convention : Reuss Voigt Hill
#
# Bulk Modulus (GPa) = 34.69493 34.88633 34.79063
# Shear Modulus (GPa) = 22.28464 26.34413 24.31439
#
# Velocity S-wave (km/s) = 3.17376 3.45075 3.31515
# Velocity P-wave (km/s) = 5.39561 5.62545 5.51173
#
# Compressibility (1/GPa) = 0.02882266
#
# Stress axis : x y z
#
# Youngs Moduli (GPa) = 38.80549 38.80626 73.46180
#
# Poissons Ratio (x) = 0.49759 0.19620
# Poissons Ratio (y) = 0.49758 0.19622
# Poissons Ratio (z) = 0.10364 0.10365
#
# Static dielectric constant tensor:
#      x y z
#    x 3.959250 0.000000 0.000000 
#    y 0.000000 3.959240 0.000000 
#    z 0.000000 0.000000 4.396180 
# 
# 
# High freq. dielectric constant tensor:
#      x y z
#    x 1.843450 0.000000 0.000000 
#    y 0.000000 1.843450 0.000000 
#    z 0.000000 0.000000 1.889370 
# 
# From -- ./inp_files/1345.got.cif
#   From: 2010.03.12/outbox.cif.g09.slc.cpg/sg121_1_cif.got.tgz:1345.got - 2010.04.06 16:06:48.
