data_PCOD8311840
_publ_section_title
;
Structure prediction by ZEFSAII (Michael W. Deem and Ramdas Pophale) SiO2 
 PCOD8311840
Probable space group: I -4 2 D
;
_chemical_formula_sum "Si O2"
_cell_formula_units_Z 60
_cell_length_a 10.554016
_cell_length_b 10.554016
_cell_length_c 24.040812
_cell_angle_alpha 90.000000
_cell_angle_beta 90.000000
_cell_angle_gamma 90.000000
_cell_volume 2677.840026
_symmetry_space_group_name_H-M "I -4 2 D"
_symmetry_group_IT_number 122
_symmetry_cell_setting 'tetragonal'
loop_
_space_group_symop_operation_xyz
x,y,z
y,-x,-z
-x,-y,z
-y,x,-z
x,1/2-y,1/4-z
-x,1/2+y,1/4-z
-y,1/2-x,1/4+z
y,1/2+x,1/4+z
1/2+x,1/2+y,1/2+z
1/2+y,1/2-x,1/2-z
1/2-x,1/2-y,1/2+z
1/2-y,1/2+x,1/2-z
1/2+x,-y,3/4-z
1/2-x,y,3/4-z
1/2-y,-x,3/4+z
1/2+y,x,3/4+z
loop_
_atom_site_type_symbol
_atom_site_label
_atom_site_fract_x
_atom_site_fract_y
_atom_site_fract_z
Si Si1 0.500000 0.000000 0.750000
Si Si2 0.237630 0.907468 0.751365
Si Si3 0.643092 0.868251 0.268639
Si Si4 0.000000 0.000000 0.187677
Si Si5 0.888746 0.718933 0.375296
O O1 0.628987 0.049050 0.781409
O O2 0.211370 0.757740 0.759044
O O3 0.243918 0.936861 0.685579
O O4 0.125235 0.993179 0.774805
O O5 0.517646 0.828655 0.234952
O O6 0.623351 0.840613 0.334115
O O7 0.122976 0.992562 0.149165
O O8 0.750000 0.652810 0.375000
#
# Coordination Sequence:
#
# PCOD8311840 Si02
#       5
#     4  16  16   8  16
#     4  12  26  44  72 100 152 188 244 306 356 440
#     4  11  24  43  70 101 141 194 239 297 369 440
#     4  10  20  39  69  96 139 186 235 307 372 428
#     4  12  23  44  74 101 145 198 244 299 378 434
#     4  10  22  41  66 100 143 184 240 309 358 438
#
# _framework density 22.406116000000001
#
# number of rings (size 3 to 8) (size 9 to 14) (size 15 to 20)
#    0.000    1.333    2.667    4.000    0.000    2.133 
#    0.000    0.000    0.000    0.000    0.000    0.000 
#    0.000    0.000    0.000    0.000    0.000    0.000 
#
# Total GULP energy -371754.871104 kJ/mol
# GULP energy per Si atom -12391.829037 kJ/mol
# Density = 2.235512 g / cm^3
# Si number density = 22.406116 Si / 1000 Ang^3
#
#
#
# Elastic Constant Matrix: (Units=GPa)
#
#
# Indices 1 2 3 4 5 6 
#
# 1 157.2008 57.0476 38.2692 0.0000 0.0000 0.0000
# 2 57.0476 157.2008 38.2692 0.0000 0.0000 0.0000
# 3 38.2692 38.2692 105.9909 0.0000 0.0000 0.0000
# 4 0.0000 0.0000 0.0000 26.0373 0.0000 0.0000
# 5 0.0000 0.0000 0.0000 0.0000 26.0373 0.0000
# 6 0.0000 0.0000 0.0000 0.0000 0.0000 44.7488
#
#
#
# Elastic Compliance Matrix: (Units=1/GPa)
#
#
# Indices 1 2 3 4 5 6 
#
# 1 0.007672 -0.002313 -0.001935 0.000000 0.000000 0.000000
# 2 -0.002313 0.007672 -0.001935 0.000000 0.000000 0.000000
# 3 -0.001935 -0.001935 0.010832 0.000000 0.000000 0.000000
# 4 0.000000 0.000000 0.000000 0.038406 0.000000 0.000000
# 5 0.000000 0.000000 0.000000 0.000000 0.038406 0.000000
# 6 0.000000 0.000000 0.000000 0.000000 0.000000 0.022347
#
#
# Mechanical properties :
#
#
# Convention : Reuss Voigt Hill
#
# Bulk Modulus (GPa) = 72.41104 76.39607 74.40356
# Shear Modulus (GPa) = 35.13611 38.48513 36.81062
#
# Velocity S-wave (km/s) = 3.96428 4.14891 4.05765
# Velocity P-wave (km/s) = 7.30354 7.55787 7.43179
#
# Compressibility (1/GPa) = 0.01381005
#
# Stress axis : x y z
#
# Youngs Moduli (GPa) = 130.34942 130.34942 92.31960
#
# Poissons Ratio (x) = 0.30150 0.17862
# Poissons Ratio (y) = 0.30150 0.17862
# Poissons Ratio (z) = 0.25220 0.25220
#
# Static dielectric constant tensor:
#      x y z
#    x 4.314110 0.000000 0.000000 
#    y 0.000000 4.314110 0.000000 
#    z 0.000000 0.000000 3.914650 
# 
# 
# High freq. dielectric constant tensor:
#      x y z
#    x 1.891560 0.000000 0.000000 
#    y 0.000000 1.891560 0.000000 
#    z 0.000000 0.000000 1.859980 
# 
# From -- ./inp_files/6999.got.cif
#   From: 2010.03.12/outbox.cif.g09.slc.cpg/sg122_4_cif.got.tgz:6999.got - 2010.04.06 16:17:16.
