data_PCOD8311655
_publ_section_title
;
Structure prediction by ZEFSAII (Michael W. Deem and Ramdas Pophale) SiO2 
 PCOD8311655
Probable space group: I -4 2 M
;
_chemical_formula_sum "Si O2"
_cell_formula_units_Z 88
_cell_length_a 12.212144
_cell_length_b 12.212144
_cell_length_c 28.681883
_cell_angle_alpha 90.000000
_cell_angle_beta 90.000000
_cell_angle_gamma 90.000000
_cell_volume 4277.514528
_symmetry_space_group_name_H-M "I -4 2 M"
_symmetry_group_IT_number 121
_symmetry_cell_setting 'tetragonal'
loop_
_space_group_symop_operation_xyz
x,y,z
y,-x,-z
-x,-y,z
-y,x,-z
x,-y,-z
-x,y,-z
-y,-x,z
y,x,z
1/2+x,1/2+y,1/2+z
1/2+y,1/2-x,1/2-z
1/2-x,1/2-y,1/2+z
1/2-y,1/2+x,1/2-z
1/2+x,1/2-y,1/2-z
1/2-x,1/2+y,1/2-z
1/2-y,1/2-x,1/2+z
1/2+y,1/2+x,1/2+z
loop_
_atom_site_type_symbol
_atom_site_label
_atom_site_fract_x
_atom_site_fract_y
_atom_site_fract_z
Si Si1 0.793725 0.477981 0.202983
Si Si2 0.122291 0.544736 0.633656
Si Si3 0.212747 0.600973 0.534002
Si Si4 0.914800 0.914800 0.555447
Si Si5 0.378282 0.202608 0.703766
Si Si6 0.000000 0.279912 0.500000
Si Si7 0.415649 0.415649 0.163764
O O1 0.848121 0.391658 0.166847
O O2 0.741399 0.422378 0.248693
O O3 0.874834 0.574698 0.219044
O O4 0.705005 0.550675 0.176928
O O5 0.193331 0.567661 0.587621
O O6 0.203126 0.459655 0.659827
O O7 0.000000 0.500000 0.621548
O O8 0.245647 0.500000 0.500000
O O9 0.307761 0.692240 0.530733
O O10 0.096017 0.645467 0.518654
O O11 0.792963 0.948386 0.540844
O O12 0.922308 0.922308 0.609420
O O13 0.000000 0.000000 0.532674
O O14 0.266433 0.266433 0.689720
O O15 0.500000 0.500000 0.187325
#
# Coordination Sequence:
#
# PCOD8311655 Si02
#       7
#    16  16  16   8  16   8   8
#     4  11  21  41  65  96 135 172 215 278 335 403
#     4  10  23  42  69 100 131 171 229 281 336 402
#     4  12  27  47  70  99 137 184 235 285 336 398
#     4  11  20  36  64 103 141 173 201 272 358 423
#     4  11  22  40  68  95 132 176 223 275 335 394
#     4  12  20  42  70 102 136 171 219 280 346 412
#     4  11  24  36  56  95 136 170 216 261 336 403
#
# _framework density 20.572693000000001
#
# number of rings (size 3 to 8) (size 9 to 14) (size 15 to 20)
#    0.000    0.909    4.545    3.000    0.000    5.273 
#    1.636    0.000    0.000    0.000    0.000    0.000 
#    0.000    0.000    0.000    0.000    0.000    0.000 
#
# Total GULP energy -545272.843701 kJ/mol
# GULP energy per Si atom -12392.564630 kJ/mol
# Density = 2.052587 g / cm^3
# Si number density = 20.572693 Si / 1000 Ang^3
#
#
#
# Elastic Constant Matrix: (Units=GPa)
#
#
# Indices 1 2 3 4 5 6 
#
# 1 90.0309 51.7770 52.3036 0.0000 0.0000 0.0000
# 2 51.7770 90.0303 52.3032 0.0000 0.0000 0.0000
# 3 52.3036 52.3032 133.9246 0.0000 0.0000 0.0000
# 4 0.0000 0.0000 0.0000 9.8684 0.0000 0.0000
# 5 0.0000 0.0000 0.0000 0.0000 9.8715 0.0000
# 6 0.0000 0.0000 0.0000 0.0000 0.0000 37.0924
#
#
#
# Elastic Compliance Matrix: (Units=1/GPa)
#
#
# Indices 1 2 3 4 5 6 
#
# 1 0.018023 -0.008118 -0.003869 0.000000 0.000000 0.000000
# 2 -0.008118 0.018023 -0.003869 0.000000 0.000000 0.000000
# 3 -0.003869 -0.003869 0.010489 0.000000 0.000000 0.000000
# 4 0.000000 0.000000 0.000000 0.101333 0.000000 0.000000
# 5 0.000000 0.000000 0.000000 0.000000 0.101302 0.000000
# 6 0.000000 0.000000 0.000000 0.000000 0.000000 0.026960
#
#
# Mechanical properties :
#
#
# Convention : Reuss Voigt Hill
#
# Bulk Modulus (GPa) = 67.45171 69.63929 68.54550
# Shear Modulus (GPa) = 15.98560 21.87328 18.92944
#
# Velocity S-wave (km/s) = 2.79055 3.26424 3.03665
# Velocity P-wave (km/s) = 6.57579 6.93764 6.75914
#
# Compressibility (1/GPa) = 0.01482542
#
# Stress axis : x y z
#
# Youngs Moduli (GPa) = 55.48357 55.48330 95.34209
#
# Poissons Ratio (x) = 0.45041 0.36884
# Poissons Ratio (y) = 0.45041 0.36883
# Poissons Ratio (z) = 0.21464 0.21464
#
# Static dielectric constant tensor:
#      x y z
#    x 3.988050 0.000000 0.000000 
#    y 0.000000 3.988000 0.000000 
#    z 0.000000 0.000000 3.720490 
# 
# 
# High freq. dielectric constant tensor:
#      x y z
#    x 1.801950 0.000000 0.000000 
#    y 0.000000 1.801950 0.000000 
#    z 0.000000 0.000000 1.816460 
# 
# From -- ./inp_files/8245.got.cif
#   From: 2010.03.12/outbox.cif.g09.slc.cpg/sg121_5_cif.got.tgz:8245.got - 2010.04.06 16:06:48.
