data_PCOD8311485
_publ_section_title
;
Structure prediction by ZEFSAII (Michael W. Deem and Ramdas Pophale) SiO2 
 PCOD8311485
Probable space group: I -4 2 M
;
_chemical_formula_sum "Si O2"
_cell_formula_units_Z 88
_cell_length_a 18.513846
_cell_length_b 18.513846
_cell_length_c 13.435991
_cell_angle_alpha 90.000000
_cell_angle_beta 90.000000
_cell_angle_gamma 90.000000
_cell_volume 4605.353781
_symmetry_space_group_name_H-M "I -4 2 M"
_symmetry_group_IT_number 121
_symmetry_cell_setting 'tetragonal'
loop_
_space_group_symop_operation_xyz
x,y,z
y,-x,-z
-x,-y,z
-y,x,-z
x,-y,-z
-x,y,-z
-y,-x,z
y,x,z
1/2+x,1/2+y,1/2+z
1/2+y,1/2-x,1/2-z
1/2-x,1/2-y,1/2+z
1/2-y,1/2+x,1/2-z
1/2+x,1/2-y,1/2-z
1/2-x,1/2+y,1/2-z
1/2-y,1/2-x,1/2+z
1/2+y,1/2+x,1/2+z
loop_
_atom_site_type_symbol
_atom_site_label
_atom_site_fract_x
_atom_site_fract_y
_atom_site_fract_z
Si Si1 0.784129 0.668755 0.556021
Si Si2 0.000000 0.117041 0.500000
Si Si3 0.714554 0.517452 0.806327
Si Si4 0.661212 0.220409 0.129794
Si Si5 0.746476 0.859867 0.724118
Si Si6 0.675493 0.554562 0.588065
O O1 0.717260 0.717260 0.518862
O O2 0.850360 0.689532 0.481995
O O3 0.810387 0.690596 0.664002
O O4 0.755269 0.586448 0.562237
O O5 0.019972 0.162146 0.401627
O O6 0.931059 0.068942 0.471744
O O7 0.770408 0.583874 0.816851
O O8 0.757937 0.442441 0.808766
O O9 0.674725 0.519103 0.698710
O O10 0.702142 0.297858 0.136452
O O11 0.712748 0.154764 0.168024
O O12 0.828431 0.828431 0.713994
O O13 0.654000 0.500000 0.500000
O O14 0.616974 0.616974 0.591291
#
# Coordination Sequence:
#
# PCOD8311485 Si02
#       6
#    16   8  16  16  16  16
#     4   9  18  35  56  80 110 146 197 251 293 343
#     4  11  24  38  54  84 128 169 198 238 298 367
#     4  12  22  37  61  89 120 159 204 254 305 361
#     4  10  19  34  57  83 113 150 195 251 302 351
#     4  10  20  35  56  84 114 150 199 249 297 349
#     4  11  23  39  59  87 124 165 204 247 298 363
#
# _framework density 19.108196
#
# number of rings (size 3 to 8) (size 9 to 14) (size 15 to 20)
#    0.000    1.545    1.818    4.364    0.000    4.545 
#    0.000    0.000    0.000    0.545    0.000    1.273 
#    0.000    0.000    0.000    0.000    0.000    0.000 
#
# Total GULP energy -545160.133590 kJ/mol
# GULP energy per Si atom -12390.003036 kJ/mol
# Density = 1.906470 g / cm^3
# Si number density = 19.108196 Si / 1000 Ang^3
#
#
#
# Elastic Constant Matrix: (Units=GPa)
#
#
# Indices 1 2 3 4 5 6 
#
# 1 80.4134 29.7475 20.3825 0.0000 0.0000 0.0000
# 2 29.7475 80.4131 20.3825 0.0000 0.0000 0.0000
# 3 20.3825 20.3825 106.2849 0.0000 0.0000 0.0000
# 4 0.0000 0.0000 0.0000 26.6559 0.0000 0.0000
# 5 0.0000 0.0000 0.0000 0.0000 26.6561 0.0000
# 6 0.0000 0.0000 0.0000 0.0000 0.0000 19.0524
#
#
#
# Elastic Compliance Matrix: (Units=1/GPa)
#
#
# Indices 1 2 3 4 5 6 
#
# 1 0.014754 -0.004983 -0.001874 0.000000 0.000000 0.000000
# 2 -0.004983 0.014754 -0.001874 0.000000 0.000000 0.000000
# 3 -0.001874 -0.001874 0.010127 0.000000 0.000000 0.000000
# 4 0.000000 0.000000 0.000000 0.037515 0.000000 0.000000
# 5 0.000000 0.000000 0.000000 0.000000 0.037515 0.000000
# 6 0.000000 0.000000 0.000000 0.000000 0.000000 0.052487
#
#
# Mechanical properties :
#
#
# Convention : Reuss Voigt Hill
#
# Bulk Modulus (GPa) = 45.09747 45.34850 45.22298
# Shear Modulus (GPa) = 26.04095 27.57947 26.81021
#
# Velocity S-wave (km/s) = 3.69564 3.80324 3.74983
# Velocity P-wave (km/s) = 6.47014 6.56279 6.51663
#
# Compressibility (1/GPa) = 0.02217419
#
# Stress axis : x y z
#
# Youngs Moduli (GPa) = 67.77782 67.77750 98.74231
#
# Poissons Ratio (x) = 0.33774 0.18502
# Poissons Ratio (y) = 0.33774 0.18503
# Poissons Ratio (z) = 0.12700 0.12700
#
# Static dielectric constant tensor:
#      x y z
#    x 3.296330 0.000000 0.000000 
#    y 0.000000 3.296330 0.000000 
#    z 0.000000 0.000000 3.751750 
# 
# 
# High freq. dielectric constant tensor:
#      x y z
#    x 1.717730 0.000000 0.000000 
#    y 0.000000 1.717740 0.000000 
#    z 0.000000 0.000000 1.773480 
# 
# From -- ./inp_files/4394.got.cif
#   From: 2010.03.12/outbox.cif.g09.slc.cpg/sg121_3_cif.got.tgz:4394.got - 2010.04.06 16:06:48.
