data_PCOD8311782
_publ_section_title
;
Structure prediction by ZEFSAII (Michael W. Deem and Ramdas Pophale) SiO2 
 PCOD8311782
Probable space group: I -4 2 D
;
_chemical_formula_sum "Si O2"
_cell_formula_units_Z 112
_cell_length_a 15.356992
_cell_length_b 15.356992
_cell_length_c 24.372726
_cell_angle_alpha 90.000000
_cell_angle_beta 90.000000
_cell_angle_gamma 90.000000
_cell_volume 5747.995536
_symmetry_space_group_name_H-M "I -4 2 D"
_symmetry_group_IT_number 122
_symmetry_cell_setting 'tetragonal'
loop_
_space_group_symop_operation_xyz
x,y,z
y,-x,-z
-x,-y,z
-y,x,-z
x,1/2-y,1/4-z
-x,1/2+y,1/4-z
-y,1/2-x,1/4+z
y,1/2+x,1/4+z
1/2+x,1/2+y,1/2+z
1/2+y,1/2-x,1/2-z
1/2-x,1/2-y,1/2+z
1/2-y,1/2+x,1/2-z
1/2+x,-y,3/4-z
1/2-x,y,3/4-z
1/2-y,-x,3/4+z
1/2+y,x,3/4+z
loop_
_atom_site_type_symbol
_atom_site_label
_atom_site_fract_x
_atom_site_fract_y
_atom_site_fract_z
Si Si1 0.599380 0.581975 0.978889
Si Si2 0.266042 0.495142 0.440490
Si Si3 0.347354 0.718310 0.265721
Si Si4 0.159423 0.673574 0.266105
Si Si5 0.344296 0.785684 0.378458
Si Si6 0.904846 0.040842 0.746004
Si Si7 0.504685 0.601441 0.872872
O O1 0.574990 0.622763 0.919822
O O2 0.605758 0.476410 0.976855
O O3 0.688886 0.623511 0.995280
O O4 0.250000 0.484741 0.375000
O O5 0.316569 0.411882 0.467440
O O6 0.328067 0.576936 0.457437
O O7 0.167087 0.503896 0.462401
O O8 0.252427 0.699597 0.239961
O O9 0.341076 0.711387 0.331768
O O10 0.417392 0.644987 0.250029
O O11 0.132718 0.741601 0.313766
O O12 0.250000 0.832534 0.375000
O O13 0.412983 0.857963 0.359827
O O14 0.861369 0.027919 0.686393
O O15 0.000000 0.000000 0.756403
O O16 0.500000 0.500000 0.865002
#
# Coordination Sequence:
#
# PCOD8311782 Si02
#       7
#    16  16  16  16  16  16  16
#     4  11  20  36  57  86 126 159 206 254 306 374
#     4  11  23  47  68  96 132 168 222 283 334 412
#     4  10  21  39  62  91 119 165 213 259 318 394
#     4  10  22  42  67  91 125 163 216 272 334 390
#     4  10  19  39  67  86 115 169 216 255 313 394
#     4  10  23  42  60  90 126 162 209 264 327 383
#     4  11  20  38  56  85 128 161 198 261 309 364
#
# _framework density 19.485054000000002
#
# number of rings (size 3 to 8) (size 9 to 14) (size 15 to 20)
#    0.000    1.571    4.286    2.143    0.000    2.000 
#   18.000    0.000    0.000    0.000    0.000    0.000 
#    0.000    0.000    0.000    0.000    0.000    0.000 
#
# Total GULP energy -693811.509440 kJ/mol
# GULP energy per Si atom -12389.491240 kJ/mol
# Density = 1.944070 g / cm^3
# Si number density = 19.485054 Si / 1000 Ang^3
#
#
#
# Elastic Constant Matrix: (Units=GPa)
#
#
# Indices 1 2 3 4 5 6 
#
# 1 116.7685 62.6752 48.6202 0.0000 0.0000 0.0000
# 2 62.6752 116.7685 48.6202 0.0000 0.0000 0.0000
# 3 48.6202 48.6202 132.1044 0.0000 0.0000 0.0000
# 4 0.0000 0.0000 0.0000 26.0549 0.0000 0.0000
# 5 0.0000 0.0000 0.0000 0.0000 26.0549 0.0000
# 6 0.0000 0.0000 0.0000 0.0000 0.0000 31.0768
#
#
#
# Elastic Compliance Matrix: (Units=1/GPa)
#
#
# Indices 1 2 3 4 5 6 
#
# 1 0.012724 -0.005763 -0.002562 0.000000 0.000000 0.000000
# 2 -0.005763 0.012724 -0.002562 0.000000 0.000000 0.000000
# 3 -0.002562 -0.002562 0.009456 0.000000 0.000000 0.000000
# 4 0.000000 0.000000 0.000000 0.038381 0.000000 0.000000
# 5 0.000000 0.000000 0.000000 0.000000 0.038381 0.000000
# 6 0.000000 0.000000 0.000000 0.000000 0.000000 0.032178
#
#
# Mechanical properties :
#
#
# Convention : Reuss Voigt Hill
#
# Bulk Modulus (GPa) = 76.16216 76.16362 76.16289
# Shear Modulus (GPa) = 29.41301 30.35236 29.88268
#
# Velocity S-wave (km/s) = 3.88946 3.95108 3.92040
# Velocity P-wave (km/s) = 7.70344 7.74518 7.72434
#
# Compressibility (1/GPa) = 0.01312988
#
# Stress axis : x y z
#
# Youngs Moduli (GPa) = 78.59252 78.59252 105.75708
#
# Poissons Ratio (x) = 0.45291 0.27095
# Poissons Ratio (y) = 0.45291 0.27095
# Poissons Ratio (z) = 0.20135 0.20135
#
# Static dielectric constant tensor:
#      x y z
#    x 3.316660 0.000000 0.000000 
#    y 0.000000 3.316660 0.000000 
#    z 0.000000 0.000000 4.230920 
# 
# 
# High freq. dielectric constant tensor:
#      x y z
#    x 1.753670 0.000000 0.000000 
#    y 0.000000 1.753670 0.000000 
#    z 0.000000 0.000000 1.768500 
# 
# From -- ./inp_files/8107.got.cif
#   From: 2010.03.12/outbox.cif.g09.slc.cpg/sg122_5_cif.got.tgz:8107.got - 2010.04.06 16:17:16.
