data_PCOD8311022
_publ_section_title
;
Structure prediction by ZEFSAII (Michael W. Deem and Ramdas Pophale) SiO2 
 PCOD8311022
Probable space group: I -4 M 2
;
_chemical_formula_sum "Si O2"
_cell_formula_units_Z 96
_cell_length_a 24.957582
_cell_length_b 24.957582
_cell_length_c 9.864537
_cell_angle_alpha 90.000000
_cell_angle_beta 90.000000
_cell_angle_gamma 90.000000
_cell_volume 6144.431678
_symmetry_space_group_name_H-M "I -4 M 2"
_symmetry_group_IT_number 119
_symmetry_cell_setting 'tetragonal'
loop_
_space_group_symop_operation_xyz
x,y,z
y,-x,-z
-x,-y,z
-y,x,-z
y,x,-z
-y,-x,-z
-x,y,z
x,-y,z
1/2+x,1/2+y,1/2+z
1/2+y,1/2-x,1/2-z
1/2-x,1/2-y,1/2+z
1/2-y,1/2+x,1/2-z
1/2+y,1/2+x,1/2-z
1/2-y,1/2-x,1/2-z
1/2-x,1/2+y,1/2+z
1/2+x,1/2-y,1/2+z
loop_
_atom_site_type_symbol
_atom_site_label
_atom_site_fract_x
_atom_site_fract_y
_atom_site_fract_z
Si Si1 0.584226 0.059769 0.405213
Si Si2 0.210233 0.380074 0.253037
Si Si3 0.060609 0.292066 0.525449
Si Si4 0.720525 0.130918 0.224359
Si Si5 0.829389 0.558597 0.496256
Si Si6 0.791646 0.780496 0.155081
O O1 0.577723 0.077723 0.250000
O O2 0.645355 0.057936 0.447294
O O3 0.557025 0.105487 0.496527
O O4 0.559089 0.000000 0.427045
O O5 0.164551 0.335450 0.250000
O O6 0.222328 0.404622 0.106319
O O7 0.188719 0.428476 0.344395
O O8 0.264704 0.353846 0.316723
O O9 0.091385 0.266529 0.652314
O O10 0.000000 0.268969 0.513244
O O11 0.676817 0.176817 0.250000
O O12 0.697775 0.100222 0.095686
O O13 0.778207 0.157924 0.192811
O O14 0.807980 0.500000 0.534304
O O15 0.757963 0.742038 0.250000
O O16 0.772907 0.772907 0.000000
#
# Coordination Sequence:
#
# PCOD8311022 Si02
#       6
#    16  16  16  16  16  16
#     4  11  21  33  48  65  88 123 168 220 264 292
#     4  11  21  36  50  69  97 126 162 208 256 303
#     4  11  21  34  51  71  97 130 165 206 253 299
#     4  11  19  34  52  72  97 120 164 209 252 300
#     4  12  21  33  51  68  91 127 165 212 258 298
#     4  10  22  33  53  75  96 122 158 208 261 304
#
# _framework density 15.623901999999999
#
# number of rings (size 3 to 8) (size 9 to 14) (size 15 to 20)
#    0.000    1.000    6.667    1.500    7.000    1.167 
#    0.000    0.000    0.000    0.000    0.000    0.000 
#    0.000    0.000    0.000    0.000    0.000   58.333 
#
# Total GULP energy -594889.605576 kJ/mol
# GULP energy per Si atom -12393.533449 kJ/mol
# Density = 1.558834 g / cm^3
# Si number density = 15.623902 Si / 1000 Ang^3
#
#
#
# Elastic Constant Matrix: (Units=GPa)
#
#
# Indices 1 2 3 4 5 6 
#
# 1 64.0800 40.5841 23.1110 0.0000 0.0000 0.0000
# 2 40.5841 64.0792 23.1144 0.0000 0.0000 0.0000
# 3 23.1110 23.1144 90.7680 0.0000 0.0000 0.0000
# 4 0.0000 0.0000 0.0000 -0.8483 0.0000 0.0000
# 5 0.0000 0.0000 0.0000 0.0000 -0.8440 0.0000
# 6 0.0000 0.0000 0.0000 0.0000 0.0000 13.1923
#
#
#
# Elastic Compliance Matrix: (Units=1/GPa)
#
#
# Indices 1 2 3 4 5 6 
#
# 1 0.026663 -0.015898 -0.002740 0.000000 0.000000 0.000000
# 2 -0.015898 0.026664 -0.002742 0.000000 0.000000 0.000000
# 3 -0.002740 -0.002742 0.012413 0.000000 0.000000 0.000000
# 4 0.000000 0.000000 0.000000 -1.178878 0.000000 0.000000
# 5 0.000000 0.000000 0.000000 0.000000 -1.184807 0.000000
# 6 0.000000 0.000000 0.000000 0.000000 0.000000 0.075802
#
#
# Mechanical properties :
#
#
# Convention : Reuss Voigt Hill
#
# Bulk Modulus (GPa) = 43.51878 43.61622 43.56750
# Shear Modulus (GPa) = -2.30232 11.10784 4.40276
#
# Velocity S-wave (km/s) = -1.21523 2.66926 1.68050
# Velocity P-wave (km/s) = 5.09366 6.12184 5.63126
#
# Compressibility (1/GPa) = 0.02297858
#
# Stress axis : x y z
#
# Youngs Moduli (GPa) = 37.50567 37.50403 80.56009
#
# Poissons Ratio (x) = 0.59624 0.22075
# Poissons Ratio (y) = 0.59627 0.22091
# Poissons Ratio (z) = 0.10277 0.10284
#
# Static dielectric constant tensor:
#      x y z
#    x 3.185180 0.000000 0.000000 
#    y 0.000000 3.185190 0.000000 
#    z 0.000000 0.000000 3.123200 
# 
# 
# High freq. dielectric constant tensor:
#      x y z
#    x 1.574600 0.000000 0.000000 
#    y 0.000000 1.574600 0.000000 
#    z 0.000000 0.000000 1.614920 
# 
# From -- ./inp_files/2815.got.cif
#   From: 2010.03.12/outbox.cif.g09.slc.cpg/sg119_2_cif.got.tgz:2815.got - 2010.04.14 02:25:26.
