data_PCOD8311121
_publ_section_title
;
Structure prediction by ZEFSAII (Michael W. Deem and Ramdas Pophale) SiO2 
 PCOD8311121
Probable space group: I -4 C 2
;
_chemical_formula_sum "Si O2"
_cell_formula_units_Z 80
_cell_length_a 13.228882
_cell_length_b 13.228882
_cell_length_c 25.309903
_cell_angle_alpha 90.000000
_cell_angle_beta 90.000000
_cell_angle_gamma 90.000000
_cell_volume 4429.317028
_symmetry_space_group_name_H-M "I -4 C 2"
_symmetry_group_IT_number 120
_symmetry_cell_setting 'tetragonal'
loop_
_space_group_symop_operation_xyz
x,y,z
y,-x,-z
-x,-y,z
-y,x,-z
y,x,1/2-z
-y,-x,1/2-z
-x,y,1/2+z
x,-y,1/2+z
1/2+x,1/2+y,1/2+z
1/2+y,1/2-x,1/2-z
1/2-x,1/2-y,1/2+z
1/2-y,1/2+x,1/2-z
1/2+y,1/2+x,-z
1/2-y,1/2-x,-z
1/2-x,1/2+y,z
1/2+x,1/2-y,z
loop_
_atom_site_type_symbol
_atom_site_label
_atom_site_fract_x
_atom_site_fract_y
_atom_site_fract_z
Si Si1 0.743466 0.876625 0.132963
Si Si2 0.914950 0.236919 0.320613
Si Si3 0.555250 0.096674 0.560839
Si Si4 0.405868 0.786967 0.125384
Si Si5 0.091799 0.257110 0.699198
O O1 0.665144 0.883947 0.084802
O O2 0.840196 0.812612 0.113752
O O3 0.681079 0.833254 0.182481
O O4 0.792293 0.980243 0.152421
O O5 0.871538 0.325604 0.357520
O O6 0.852262 0.132790 0.318875
O O7 0.925296 0.275302 0.260876
O O8 0.576062 0.076062 0.500000
O O9 0.473712 0.186048 0.573287
O O10 0.500000 0.000000 0.587141
O O11 0.483742 0.773967 0.173185
#
# Coordination Sequence:
#
# PCOD8311121 Si02
#       5
#    16  16  16  16  16
#     4  10  20  35  55  79 109 144 179 226 277 319
#     4  10  18  33  51  78 111 149 185 223 265 324
#     4  10  20  39  60  80 103 136 183 229 275 326
#     4  10  20  36  53  81 110 141 180 228 270 329
#     4   9  20  31  51  79 111 148 187 219 268 325
#
# _framework density 18.061475999999999
#
# number of rings (size 3 to 8) (size 9 to 14) (size 15 to 20)
#    0.000    2.200    2.000    1.200    0.000    3.200 
#    3.600    4.000    0.000    0.000    0.000    0.000 
#    0.000    0.000    0.000    0.000    0.000    0.000 
#
# Total GULP energy -495686.395460 kJ/mol
# GULP energy per Si atom -12392.159886 kJ/mol
# Density = 1.802037 g / cm^3
# Si number density = 18.061476 Si / 1000 Ang^3
#
#
#
# Elastic Constant Matrix: (Units=GPa)
#
#
# Indices 1 2 3 4 5 6 
#
# 1 61.1408 62.5406 29.6619 0.0000 0.0000 0.0000
# 2 62.5406 61.1408 29.6619 0.0000 0.0000 0.0000
# 3 29.6619 29.6619 81.7900 0.0000 0.0000 0.0000
# 4 0.0000 0.0000 0.0000 14.5768 0.0000 0.0000
# 5 0.0000 0.0000 0.0000 0.0000 14.5768 0.0000
# 6 0.0000 0.0000 0.0000 0.0000 0.0000 27.4906
#
#
#
# Elastic Compliance Matrix: (Units=1/GPa)
#
#
# Indices 1 2 3 4 5 6 
#
# 1 -0.352302 0.362090 -0.003550 0.000000 0.000000 0.000000
# 2 0.362090 -0.352302 -0.003550 0.000000 0.000000 0.000000
# 3 -0.003550 -0.003550 0.014801 0.000000 0.000000 0.000000
# 4 0.000000 0.000000 0.000000 0.068602 0.000000 0.000000
# 5 0.000000 0.000000 0.000000 0.000000 0.068602 0.000000
# 6 0.000000 0.000000 0.000000 0.000000 0.000000 0.036376
#
#
# Mechanical properties :
#
#
# Convention : Reuss Voigt Hill
#
# Bulk Modulus (GPa) = 49.55847 49.75558 49.65702
# Shear Modulus (GPa) = -4.10012 16.80931 6.35459
#
# Velocity S-wave (km/s) = -1.50832 3.05400 1.87775
# Velocity P-wave (km/s) = 4.94621 6.32800 5.67929
#
# Compressibility (1/GPa) = 0.02017819
#
# Stress axis : x y z
#
# Youngs Moduli (GPa) = -2.83848 -2.83848 67.56260
#
# Poissons Ratio (x) = 1.02778 0.23983
# Poissons Ratio (y) = 1.02778 0.23983
# Poissons Ratio (z) = -0.01008 -0.01008
#
# Static dielectric constant tensor:
#      x y z
#    x 3.446580 0.000000 0.000000 
#    y 0.000000 3.446580 0.000000 
#    z 0.000000 0.000000 3.152300 
# 
# 
# High freq. dielectric constant tensor:
#      x y z
#    x 1.703660 0.000000 0.000000 
#    y 0.000000 1.703660 0.000000 
#    z 0.000000 0.000000 1.681570 
# 
# From -- ./inp_files/6476.got.cif
#   From: 2010.03.12/outbox.cif.g09.slc.cpg/sg120_4_cif.got.tgz:6476.got - 2010.04.06 16:00:44.
