data_PCOD8311474
_publ_section_title
;
Structure prediction by ZEFSAII (Michael W. Deem and Ramdas Pophale) SiO2 
 PCOD8311474
Probable space group: I -4 2 M
;
_chemical_formula_sum "Si O2"
_cell_formula_units_Z 128
_cell_length_a 23.475614
_cell_length_b 23.475614
_cell_length_c 11.911327
_cell_angle_alpha 90.000000
_cell_angle_beta 90.000000
_cell_angle_gamma 90.000000
_cell_volume 6564.385347
_symmetry_space_group_name_H-M "I -4 2 M"
_symmetry_group_IT_number 121
_symmetry_cell_setting 'tetragonal'
loop_
_space_group_symop_operation_xyz
x,y,z
y,-x,-z
-x,-y,z
-y,x,-z
x,-y,-z
-x,y,-z
-y,-x,z
y,x,z
1/2+x,1/2+y,1/2+z
1/2+y,1/2-x,1/2-z
1/2-x,1/2-y,1/2+z
1/2-y,1/2+x,1/2-z
1/2+x,1/2-y,1/2-z
1/2-x,1/2+y,1/2-z
1/2-y,1/2-x,1/2+z
1/2+y,1/2+x,1/2+z
loop_
_atom_site_type_symbol
_atom_site_label
_atom_site_fract_x
_atom_site_fract_y
_atom_site_fract_z
Si Si1 0.503070 0.408454 0.120681
Si Si2 0.916212 0.171814 0.958029
Si Si3 0.020950 0.178229 0.813848
Si Si4 0.548016 0.076913 0.087671
Si Si5 0.738143 0.169284 0.043986
Si Si6 0.128783 0.363587 0.572219
Si Si7 0.289723 0.080765 0.770072
Si Si8 0.485907 0.126229 0.678544
O O1 0.566413 0.433588 0.143227
O O2 0.460019 0.460019 0.109002
O O3 0.484113 0.370896 0.224152
O O4 0.500000 0.375208 0.000000
O O5 0.886149 0.113852 0.915750
O O6 0.959006 0.194650 0.862809
O O7 0.943497 0.157526 0.078793
O O8 0.870174 0.220481 0.973133
O O9 0.051894 0.228972 0.746793
O O10 0.520813 0.108611 0.193210
O O11 0.573003 0.014356 0.114926
O O12 0.500000 0.064153 0.000000
O O13 0.593210 0.122346 0.039158
O O14 0.769382 0.230619 0.066910
O O15 0.719174 0.139028 0.160061
O O16 0.682811 0.174530 0.964820
O O17 0.093520 0.323882 0.656758
O O18 0.144102 0.424790 0.628231
O O19 0.323620 0.032158 0.839002
#
# Coordination Sequence:
#
# PCOD8311474 Si02
#       8
#    16  16  16  16  16  16  16  16
#     4   9  18  34  56  82 115 156 197 241 302 374
#     4   9  18  33  57  87 117 151 194 250 313 368
#     4  10  19  33  56  87 121 152 198 248 308 375
#     4  12  24  40  60  91 130 166 206 256 310 388
#     4  10  22  41  63  86 114 157 212 262 306 363
#     4  12  23  40  62  89 124 166 206 257 312 375
#     4  11  23  40  60  90 119 164 203 254 312 371
#     4  12  23  40  60  91 128 165 211 250 319 382
#
# _framework density 19.49916
#
# number of rings (size 3 to 8) (size 9 to 14) (size 15 to 20)
#    0.000    1.375    3.750    2.250    0.000    5.250 
#    2.250    0.000    0.000    3.000    0.000    0.000 
#    0.000    0.000    0.000    0.000    0.000    0.000 
#
# Total GULP energy -793239.243135 kJ/mol
# GULP energy per Si atom -12394.363174 kJ/mol
# Density = 1.945478 g / cm^3
# Si number density = 19.499160 Si / 1000 Ang^3
#
#
#
# Elastic Constant Matrix: (Units=GPa)
#
#
# Indices 1 2 3 4 5 6 
#
# 1 95.4769 41.3403 43.0633 0.0000 0.0000 0.0000
# 2 41.3403 95.4765 43.0640 0.0000 0.0000 0.0000
# 3 43.0633 43.0640 99.3837 0.0000 0.0000 0.0000
# 4 0.0000 0.0000 0.0000 47.2793 0.0000 0.0000
# 5 0.0000 0.0000 0.0000 0.0000 47.2795 0.0000
# 6 0.0000 0.0000 0.0000 0.0000 0.0000 36.3140
#
#
#
# Elastic Compliance Matrix: (Units=1/GPa)
#
#
# Indices 1 2 3 4 5 6 
#
# 1 0.014261 -0.004211 -0.004355 0.000000 0.000000 0.000000
# 2 -0.004211 0.014261 -0.004355 0.000000 0.000000 0.000000
# 3 -0.004355 -0.004355 0.013836 0.000000 0.000000 0.000000
# 4 0.000000 0.000000 0.000000 0.021151 0.000000 0.000000
# 5 0.000000 0.000000 0.000000 0.000000 0.021151 0.000000
# 6 0.000000 0.000000 0.000000 0.000000 0.000000 0.027538
#
#
# Mechanical properties :
#
#
# Convention : Reuss Voigt Hill
#
# Bulk Modulus (GPa) = 60.54268 60.58581 60.56424
# Shear Modulus (GPa) = 34.83236 37.03253 35.93244
#
# Velocity S-wave (km/s) = 4.23111 4.36269 4.29741
# Velocity P-wave (km/s) = 7.41525 7.51770 7.46666
#
# Compressibility (1/GPa) = 0.01651727
#
# Stress axis : x y z
#
# Youngs Moduli (GPa) = 70.12082 70.11993 72.27487
#
# Poissons Ratio (x) = 0.29525 0.31475
# Poissons Ratio (y) = 0.29526 0.31476
# Poissons Ratio (z) = 0.30537 0.30538
#
# Static dielectric constant tensor:
#      x y z
#    x 3.494130 0.000000 0.000000 
#    y 0.000000 3.494110 0.000000 
#    z 0.000000 0.000000 3.737930 
# 
# 
# High freq. dielectric constant tensor:
#      x y z
#    x 1.754340 0.000000 0.000000 
#    y 0.000000 1.754340 0.000000 
#    z 0.000000 0.000000 1.760490 
# 
# From -- ./inp_files/3548.got.cif
#   From: 2010.03.12/outbox.cif.g09.slc.cpg/sg121_2_cif.got.tgz:3548.got - 2010.04.06 16:06:48.
