data_PCOD8311124
_publ_section_title
;
Structure prediction by ZEFSAII (Michael W. Deem and Ramdas Pophale) SiO2 
 PCOD8311124
Probable space group: I -4 C 2
;
_chemical_formula_sum "Si O2"
_cell_formula_units_Z 104
_cell_length_a 19.384500
_cell_length_b 19.384500
_cell_length_c 15.962591
_cell_angle_alpha 90.000000
_cell_angle_beta 90.000000
_cell_angle_gamma 90.000000
_cell_volume 5998.084682
_symmetry_space_group_name_H-M "I -4 C 2"
_symmetry_group_IT_number 120
_symmetry_cell_setting 'tetragonal'
loop_
_space_group_symop_operation_xyz
x,y,z
y,-x,-z
-x,-y,z
-y,x,-z
y,x,1/2-z
-y,-x,1/2-z
-x,y,1/2+z
x,-y,1/2+z
1/2+x,1/2+y,1/2+z
1/2+y,1/2-x,1/2-z
1/2-x,1/2-y,1/2+z
1/2-y,1/2+x,1/2-z
1/2+y,1/2+x,-z
1/2-y,1/2-x,-z
1/2-x,1/2+y,z
1/2+x,1/2-y,z
loop_
_atom_site_type_symbol
_atom_site_label
_atom_site_fract_x
_atom_site_fract_y
_atom_site_fract_z
Si Si1 0.720372 0.779629 0.000000
Si Si2 0.829231 0.703488 0.909964
Si Si3 0.726835 0.596067 0.593287
Si Si4 0.643490 0.754225 0.735074
Si Si5 0.421755 0.656518 0.114420
Si Si6 0.303739 0.556601 0.566314
Si Si7 0.451819 0.435575 0.153202
O O1 0.761257 0.752327 0.917831
O O2 0.640371 0.760205 0.982996
O O3 0.818259 0.654307 0.829056
O O4 0.893053 0.752110 0.884842
O O5 0.837498 0.662503 0.000000
O O6 0.774535 0.612003 0.674822
O O7 0.645207 0.606653 0.613301
O O8 0.732350 0.517011 0.569483
O O9 0.715728 0.715728 0.750000
O O10 0.585877 0.705271 0.693930
O O11 0.498521 0.625662 0.122999
O O12 0.417349 0.698804 0.028845
O O13 0.382421 0.561009 0.598865
O O14 0.500000 0.500000 0.135275
O O15 0.430156 0.430156 0.250000
#
# Coordination Sequence:
#
# PCOD8311124 Si02
#       7
#     8  16  16  16  16  16  16
#     4  10  18  38  52  78 107 153 194 228 286 334
#     4  10  18  35  55  80 103 144 197 245 281 331
#     4  11  21  35  56  81 113 155 190 234 289 345
#     4  10  18  34  56  72 104 153 194 229 292 327
#     4  11  19  32  53  74 110 158 193 220 262 337
#     4  12  22  35  54  86 113 147 201 235 285 343
#     4  11  24  34  45  72 122 161 186 219 268 338
#
# _framework density 17.338867
#
# number of rings (size 3 to 8) (size 9 to 14) (size 15 to 20)
#    0.462    0.769    7.692    1.846    4.308    0.615 
#    0.000    1.538    0.000    0.000    0.000    0.538 
#    0.000    0.000    0.000    0.000    0.000    0.000 
#
# Total GULP energy -644225.295670 kJ/mol
# GULP energy per Si atom -12388.947994 kJ/mol
# Density = 1.729940 g / cm^3
# Si number density = 17.338867 Si / 1000 Ang^3
#
#
#
# Elastic Constant Matrix: (Units=GPa)
#
#
# Indices 1 2 3 4 5 6 
#
# 1 57.6543 32.6959 10.9630 0.0000 0.0000 0.0000
# 2 32.6959 57.6563 10.9640 0.0000 0.0000 0.0000
# 3 10.9630 10.9640 72.4910 0.0000 0.0000 0.0000
# 4 0.0000 0.0000 0.0000 21.3628 0.0000 0.0000
# 5 0.0000 0.0000 0.0000 0.0000 21.3627 0.0000
# 6 0.0000 0.0000 0.0000 0.0000 0.0000 26.2770
#
#
#
# Elastic Compliance Matrix: (Units=1/GPa)
#
#
# Indices 1 2 3 4 5 6 
#
# 1 0.025778 -0.014288 -0.001737 0.000000 0.000000 0.000000
# 2 -0.014288 0.025777 -0.001738 0.000000 0.000000 0.000000
# 3 -0.001737 -0.001738 0.014320 0.000000 0.000000 0.000000
# 4 0.000000 0.000000 0.000000 0.046810 0.000000 0.000000
# 5 0.000000 0.000000 0.000000 0.000000 0.046811 0.000000
# 6 0.000000 0.000000 0.000000 0.000000 0.000000 0.038056
#
#
# Mechanical properties :
#
#
# Convention : Reuss Voigt Hill
#
# Bulk Modulus (GPa) = 32.95006 33.00526 32.97766
# Shear Modulus (GPa) = 20.55967 22.67909 21.61938
#
# Velocity S-wave (km/s) = 3.44722 3.62054 3.53494
# Velocity P-wave (km/s) = 5.90671 6.04603 5.97678
#
# Compressibility (1/GPa) = 0.03034896
#
# Stress axis : x y z
#
# Youngs Moduli (GPa) = 38.79318 38.79435 69.83034
#
# Poissons Ratio (x) = 0.55428 0.12133
# Poissons Ratio (y) = 0.55427 0.12136
# Poissons Ratio (z) = 0.06740 0.06742
#
# Static dielectric constant tensor:
#      x y z
#    x 3.040640 0.000000 0.000000 
#    y 0.000000 3.040640 0.000000 
#    z 0.000000 0.000000 3.392570 
# 
# 
# High freq. dielectric constant tensor:
#      x y z
#    x 1.637520 0.000000 0.000000 
#    y 0.000000 1.637520 0.000000 
#    z 0.000000 0.000000 1.681910 
# 
# From -- ./inp_files/4515.got.cif
#   From: 2010.03.12/outbox.cif.g09.slc.cpg/sg120_3_cif.got.tgz:4515.got - 2010.04.06 16:00:44.
