data_PCOD8311271
_publ_section_title
;
Structure prediction by ZEFSAII (Michael W. Deem and Ramdas Pophale) SiO2 
 PCOD8311271
Probable space group: I -4 C 2
;
_chemical_formula_sum "Si O2"
_cell_formula_units_Z 108
_cell_length_a 14.637031
_cell_length_b 14.637031
_cell_length_c 23.387680
_cell_angle_alpha 90.000000
_cell_angle_beta 90.000000
_cell_angle_gamma 90.000000
_cell_volume 5010.639160
_symmetry_space_group_name_H-M "I -4 C 2"
_symmetry_group_IT_number 120
_symmetry_cell_setting 'tetragonal'
loop_
_space_group_symop_operation_xyz
x,y,z
y,-x,-z
-x,-y,z
-y,x,-z
y,x,1/2-z
-y,-x,1/2-z
-x,y,1/2+z
x,-y,1/2+z
1/2+x,1/2+y,1/2+z
1/2+y,1/2-x,1/2-z
1/2-x,1/2-y,1/2+z
1/2-y,1/2+x,1/2-z
1/2+y,1/2+x,-z
1/2-y,1/2-x,-z
1/2-x,1/2+y,z
1/2+x,1/2-y,z
loop_
_atom_site_type_symbol
_atom_site_label
_atom_site_fract_x
_atom_site_fract_y
_atom_site_fract_z
Si Si1 0.000000 0.500000 0.750000
Si Si2 0.074346 0.673060 0.193152
Si Si3 0.598986 0.537128 0.103459
Si Si4 0.724403 0.349108 0.199301
Si Si5 0.961053 0.231642 0.074977
Si Si6 0.651180 0.344025 0.077742
Si Si7 0.816432 0.316432 0.000000
Si Si8 0.041917 0.827236 0.276708
O O1 0.007465 0.410537 0.709680
O O2 0.173309 0.632375 0.176775
O O3 0.036435 0.729583 0.139340
O O4 0.089398 0.740047 0.247174
O O5 0.500000 0.500000 0.125342
O O6 0.590991 0.633175 0.069852
O O7 0.640824 0.453908 0.065459
O O8 0.668468 0.558925 0.155208
O O9 0.726573 0.273428 0.250000
O O10 0.660826 0.325698 0.145464
O O11 0.683449 0.434949 0.233818
O O12 0.064615 0.213536 0.055473
O O13 0.913765 0.304654 0.032205
O O14 0.738712 0.303697 0.046923
O O15 0.078850 0.921151 0.250000
#
# Coordination Sequence:
#
# PCOD8311271 Si02
#       8
#     4  16  16  16  16  16   8  16
#     4  12  28  44  64  90 140 204 216 264 328 410
#     4  12  23  44  60  94 136 184 233 263 327 411
#     4   9  21  40  67 102 138 166 213 280 358 404
#     4  11  23  38  65  99 137 170 220 275 343 412
#     4  11  24  46  66  98 135 172 229 290 340 408
#     4  10  24  45  67 104 134 178 223 289 350 404
#     4  12  26  44  72 100 132 178 236 278 346 414
#     4  11  21  34  63  97 133 175 208 265 334 407
#
# _framework density 21.554137000000001
#
# number of rings (size 3 to 8) (size 9 to 14) (size 15 to 20)
#    0.000    1.185    4.444    1.333    6.222    0.000 
#    0.000    1.481    0.000    0.000    0.000    0.000 
#    0.000    0.000    0.000    0.000    0.000    0.000 
#
# Total GULP energy -669368.078503 kJ/mol
# GULP energy per Si atom -12395.705157 kJ/mol
# Density = 2.150508 g / cm^3
# Si number density = 21.554137 Si / 1000 Ang^3
#
#
#
# Elastic Constant Matrix: (Units=GPa)
#
#
# Indices 1 2 3 4 5 6 
#
# 1 89.4070 31.7887 32.1172 0.0000 0.0000 0.0000
# 2 31.7887 89.4059 32.1178 0.0000 0.0000 0.0000
# 3 32.1172 32.1178 62.4307 0.0000 0.0000 0.0000
# 4 0.0000 0.0000 0.0000 33.1257 0.0000 0.0000
# 5 0.0000 0.0000 0.0000 0.0000 33.1256 0.0000
# 6 0.0000 0.0000 0.0000 0.0000 0.0000 32.6588
#
#
#
# Elastic Compliance Matrix: (Units=1/GPa)
#
#
# Indices 1 2 3 4 5 6 
#
# 1 0.014350 -0.003006 -0.005836 0.000000 0.000000 0.000000
# 2 -0.003006 0.014350 -0.005836 0.000000 0.000000 0.000000
# 3 -0.005836 -0.005836 0.022023 0.000000 0.000000 0.000000
# 4 0.000000 0.000000 0.000000 0.030188 0.000000 0.000000
# 5 0.000000 0.000000 0.000000 0.000000 0.030188 0.000000
# 6 0.000000 0.000000 0.000000 0.000000 0.000000 0.030620
#
#
# Mechanical properties :
#
#
# Convention : Reuss Voigt Hill
#
# Bulk Modulus (GPa) = 46.80153 48.14345 47.47249
# Shear Modulus (GPa) = 28.05890 29.46335 28.76113
#
# Velocity S-wave (km/s) = 3.61194 3.70123 3.65686
# Velocity P-wave (km/s) = 6.25743 6.37574 6.31686
#
# Compressibility (1/GPa) = 0.02136682
#
# Stress axis : x y z
#
# Youngs Moduli (GPa) = 69.68685 69.68535 45.40803
#
# Poissons Ratio (x) = 0.20945 0.26500
# Poissons Ratio (y) = 0.20946 0.26501
# Poissons Ratio (z) = 0.40669 0.40670
#
# Static dielectric constant tensor:
#      x y z
#    x 3.848070 0.000000 0.000000 
#    y 0.000000 3.848070 0.000000 
#    z 0.000000 0.000000 3.690540 
# 
# 
# High freq. dielectric constant tensor:
#      x y z
#    x 1.840680 0.000000 0.000000 
#    y 0.000000 1.840680 0.000000 
#    z 0.000000 0.000000 1.837290 
# 
# From -- ./inp_files/5953.got.cif
#   From: 2010.03.12/outbox.cif.g09.slc.cpg/sg120_3_cif.got.tgz:5953.got - 2010.04.06 16:00:44.
