data_PCOD8311261
_publ_section_title
;
Structure prediction by ZEFSAII (Michael W. Deem and Ramdas Pophale) SiO2 
 PCOD8311261
Probable space group: I -4 C 2
;
_chemical_formula_sum "Si O2"
_cell_formula_units_Z 104
_cell_length_a 16.502179
_cell_length_b 16.502179
_cell_length_c 19.099635
_cell_angle_alpha 90.000000
_cell_angle_beta 90.000000
_cell_angle_gamma 90.000000
_cell_volume 5201.249117
_symmetry_space_group_name_H-M "I -4 C 2"
_symmetry_group_IT_number 120
_symmetry_cell_setting 'tetragonal'
loop_
_space_group_symop_operation_xyz
x,y,z
y,-x,-z
-x,-y,z
-y,x,-z
y,x,1/2-z
-y,-x,1/2-z
-x,y,1/2+z
x,-y,1/2+z
1/2+x,1/2+y,1/2+z
1/2+y,1/2-x,1/2-z
1/2-x,1/2-y,1/2+z
1/2-y,1/2+x,1/2-z
1/2+y,1/2+x,-z
1/2-y,1/2-x,-z
1/2-x,1/2+y,z
1/2+x,1/2-y,z
loop_
_atom_site_type_symbol
_atom_site_label
_atom_site_fract_x
_atom_site_fract_y
_atom_site_fract_z
Si Si1 0.242677 0.483306 0.989808
Si Si2 0.679687 0.437990 0.354560
Si Si3 0.199832 0.800169 0.750000
Si Si4 0.788250 0.262797 0.114585
Si Si5 0.864598 0.635403 0.500000
Si Si6 0.688372 0.811629 0.500000
Si Si7 0.126525 0.109613 0.827194
Si Si8 0.403648 0.481234 0.578389
O O1 0.249297 0.467831 0.906349
O O2 0.166397 0.542930 0.003313
O O3 0.208608 0.401919 0.024933
O O4 0.334945 0.506053 0.016958
O O5 0.712345 0.384657 0.290312
O O6 0.638508 0.514512 0.318894
O O7 0.611249 0.390221 0.399028
O O8 0.270116 0.793702 0.692378
O O9 0.848470 0.186316 0.117444
O O10 0.832392 0.332493 0.073231
O O11 0.708194 0.242132 0.069031
O O12 0.143943 0.143943 0.750000
O O13 0.036296 0.123424 0.856334
O O14 0.500000 0.500000 0.556849
#
# Coordination Sequence:
#
# PCOD8311261 Si02
#       8
#    16  16   8  16   8   8  16  16
#     4  12  24  42  66  96 131 171 226 281 332 393
#     4  11  24  37  60  94 132 166 214 262 337 406
#     4  12  22  40  61  92 129 180 210 268 330 416
#     4  11  22  39  63  93 130 167 223 271 343 394
#     4  11  26  43  64  96 130 179 225 290 332 396
#     4  11  24  43  66  94 126 173 227 284 322 414
#     4  11  21  38  58  89 130 166 208 261 322 402
#     4  10  24  36  61  99 135 170 207 271 337 403
#
# _framework density 19.995197000000001
#
# number of rings (size 3 to 8) (size 9 to 14) (size 15 to 20)
#    0.000    0.923    5.385    1.846    6.462    2.462 
#    0.000    0.000    0.000    0.000    0.000    0.000 
#    0.000    0.000    0.000    0.000    0.000    0.000 
#
# Total GULP energy -644214.747441 kJ/mol
# GULP energy per Si atom -12388.745143 kJ/mol
# Density = 1.994969 g / cm^3
# Si number density = 19.995197 Si / 1000 Ang^3
#
#
#
# Elastic Constant Matrix: (Units=GPa)
#
#
# Indices 1 2 3 4 5 6 
#
# 1 77.1420 52.1197 29.4151 0.0000 0.0000 0.0000
# 2 52.1197 77.1431 29.4159 0.0000 0.0000 0.0000
# 3 29.4151 29.4159 122.9539 0.0000 0.0000 0.0000
# 4 0.0000 0.0000 0.0000 28.9379 0.0000 0.0000
# 5 0.0000 0.0000 0.0000 0.0000 28.9376 0.0000
# 6 0.0000 0.0000 0.0000 0.0000 0.0000 32.5532
#
#
#
# Elastic Compliance Matrix: (Units=1/GPa)
#
#
# Indices 1 2 3 4 5 6 
#
# 1 0.024323 -0.015641 -0.002077 0.000000 0.000000 0.000000
# 2 -0.015641 0.024322 -0.002077 0.000000 0.000000 0.000000
# 3 -0.002077 -0.002077 0.009127 0.000000 0.000000 0.000000
# 4 0.000000 0.000000 0.000000 0.034557 0.000000 0.000000
# 5 0.000000 0.000000 0.000000 0.000000 0.034557 0.000000
# 6 0.000000 0.000000 0.000000 0.000000 0.000000 0.030719
#
#
# Mechanical properties :
#
#
# Convention : Reuss Voigt Hill
#
# Bulk Modulus (GPa) = 54.99927 55.46004 55.22966
# Shear Modulus (GPa) = 24.59961 29.17161 26.88561
#
# Velocity S-wave (km/s) = 3.51133 3.82374 3.67086
# Velocity P-wave (km/s) = 6.63364 6.87688 6.75636
#
# Compressibility (1/GPa) = 0.01818206
#
# Stress axis : x y z
#
# Youngs Moduli (GPa) = 41.11402 41.11444 109.56602
#
# Poissons Ratio (x) = 0.64307 0.22755
# Poissons Ratio (y) = 0.64306 0.22758
# Poissons Ratio (z) = 0.08539 0.08540
#
# Static dielectric constant tensor:
#      x y z
#    x 3.680900 0.000000 0.000000 
#    y 0.000000 3.680900 0.000000 
#    z 0.000000 0.000000 3.628600 
# 
# 
# High freq. dielectric constant tensor:
#      x y z
#    x 1.769940 0.000000 0.000000 
#    y 0.000000 1.769940 0.000000 
#    z 0.000000 0.000000 1.788370 
# 
# From -- ./inp_files/4558.got.cif
#   From: 2010.03.12/outbox.cif.g09.slc.cpg/sg120_3_cif.got.tgz:4558.got - 2010.04.06 16:00:44.
