data_PCOD8311487
_publ_section_title
;
Structure prediction by ZEFSAII (Michael W. Deem and Ramdas Pophale) SiO2 
 PCOD8311487
Probable space group: I -4 2 M
;
_chemical_formula_sum "Si O2"
_cell_formula_units_Z 72
_cell_length_a 22.032748
_cell_length_b 22.032748
_cell_length_c 8.560910
_cell_angle_alpha 90.000000
_cell_angle_beta 90.000000
_cell_angle_gamma 90.000000
_cell_volume 4155.825139
_symmetry_space_group_name_H-M "I -4 2 M"
_symmetry_group_IT_number 121
_symmetry_cell_setting 'tetragonal'
loop_
_space_group_symop_operation_xyz
x,y,z
y,-x,-z
-x,-y,z
-y,x,-z
x,-y,-z
-x,y,-z
-y,-x,z
y,x,z
1/2+x,1/2+y,1/2+z
1/2+y,1/2-x,1/2-z
1/2-x,1/2-y,1/2+z
1/2-y,1/2+x,1/2-z
1/2+x,1/2-y,1/2-z
1/2-x,1/2+y,1/2-z
1/2-y,1/2-x,1/2+z
1/2+y,1/2+x,1/2+z
loop_
_atom_site_type_symbol
_atom_site_label
_atom_site_fract_x
_atom_site_fract_y
_atom_site_fract_z
Si Si1 0.848883 0.248775 0.892739
Si Si2 0.858864 0.328813 0.182029
Si Si3 0.000000 0.903973 0.500000
Si Si4 0.568849 0.188812 0.977128
Si Si5 0.686421 0.588436 0.869433
O O1 0.799792 0.200209 0.944033
O O2 0.815889 0.297610 0.780170
O O3 0.905270 0.216705 0.802244
O O4 0.872687 0.278378 0.051656
O O5 0.915280 0.328309 0.299386
O O6 0.852266 0.393716 0.098408
O O7 0.031293 0.860304 0.629591
O O8 0.947462 0.947462 0.575465
O O9 0.500000 0.170791 0.000000
O O10 0.580162 0.260817 0.002357
O O11 0.650632 0.650632 0.910474
#
# Coordination Sequence:
#
# PCOD8311487 Si02
#       5
#    16  16   8  16  16
#     4   9  16  28  47  74 109 134 162 207 257 311
#     4   9  19  31  49  77  99 132 167 201 260 312
#     4   9  16  28  48  74 106 144 185 216 238 276
#     4  10  19  35  54  74 102 133 165 210 253 307
#     4   9  17  29  49  77 104 137 175 210 248 293
#
# _framework density 17.325078999999999
#
# number of rings (size 3 to 8) (size 9 to 14) (size 15 to 20)
#    0.000    2.778    1.111    0.667    0.000    6.222 
#    0.000   10.000    0.000    2.000    0.000    1.556 
#    0.000    7.111    0.000    0.000    0.000    0.000 
#
# Total GULP energy -446154.320402 kJ/mol
# GULP energy per Si atom -12393.175567 kJ/mol
# Density = 1.728565 g / cm^3
# Si number density = 17.325079 Si / 1000 Ang^3
#
#
#
# Elastic Constant Matrix: (Units=GPa)
#
#
# Indices 1 2 3 4 5 6 
#
# 1 105.0366 56.5411 62.7678 0.0000 0.0000 0.0000
# 2 56.5411 105.0384 62.7687 0.0000 0.0000 0.0000
# 3 62.7678 62.7687 124.3682 0.0000 0.0000 0.0000
# 4 0.0000 0.0000 0.0000 19.4076 0.0000 0.0000
# 5 0.0000 0.0000 0.0000 0.0000 19.4080 0.0000
# 6 0.0000 0.0000 0.0000 0.0000 0.0000 23.9357
#
#
#
# Elastic Compliance Matrix: (Units=1/GPa)
#
#
# Indices 1 2 3 4 5 6 
#
# 1 0.015401 -0.005219 -0.005138 0.000000 0.000000 0.000000
# 2 -0.005219 0.015401 -0.005138 0.000000 0.000000 0.000000
# 3 -0.005138 -0.005138 0.013227 0.000000 0.000000 0.000000
# 4 0.000000 0.000000 0.000000 0.051526 0.000000 0.000000
# 5 0.000000 0.000000 0.000000 0.000000 0.051525 0.000000
# 6 0.000000 0.000000 0.000000 0.000000 0.000000 0.041779
#
#
# Mechanical properties :
#
#
# Convention : Reuss Voigt Hill
#
# Bulk Modulus (GPa) = 76.71049 77.62203 77.16626
# Shear Modulus (GPa) = 22.30191 22.70799 22.50495
#
# Velocity S-wave (km/s) = 3.59173 3.62429 3.60805
# Velocity P-wave (km/s) = 7.84691 7.90028 7.87364
#
# Compressibility (1/GPa) = 0.01303603
#
# Stress axis : x y z
#
# Youngs Moduli (GPa) = 64.93212 64.93287 75.60122
#
# Poissons Ratio (x) = 0.33891 0.38847
# Poissons Ratio (y) = 0.33891 0.38847
# Poissons Ratio (z) = 0.33364 0.33365
#
# Static dielectric constant tensor:
#      x y z
#    x 3.250890 0.000000 0.000000 
#    y 0.000000 3.250890 0.000000 
#    z 0.000000 0.000000 3.157890 
# 
# 
# High freq. dielectric constant tensor:
#      x y z
#    x 1.661500 0.000000 0.000000 
#    y 0.000000 1.661500 0.000000 
#    z 0.000000 0.000000 1.650270 
# 
# From -- ./inp_files/1671.got.cif
#   From: 2010.03.12/outbox.cif.g09.slc.cpg/sg121_1_cif.got.tgz:1671.got - 2010.04.06 16:06:48.
