data_PCOD8311028
_publ_section_title
;
Structure prediction by ZEFSAII (Michael W. Deem and Ramdas Pophale) SiO2 
 PCOD8311028
Probable space group: I -4 M 2
;
_chemical_formula_sum "Si O2"
_cell_formula_units_Z 48
_cell_length_a 7.851668
_cell_length_b 7.851668
_cell_length_c 37.199540
_cell_angle_alpha 90.000000
_cell_angle_beta 90.000000
_cell_angle_gamma 90.000000
_cell_volume 2293.302924
_symmetry_space_group_name_H-M "I -4 M 2"
_symmetry_group_IT_number 119
_symmetry_cell_setting 'tetragonal'
loop_
_space_group_symop_operation_xyz
x,y,z
y,-x,-z
-x,-y,z
-y,x,-z
y,x,-z
-y,-x,-z
-x,y,z
x,-y,z
1/2+x,1/2+y,1/2+z
1/2+y,1/2-x,1/2-z
1/2-x,1/2-y,1/2+z
1/2-y,1/2+x,1/2-z
1/2+y,1/2+x,1/2-z
1/2-y,1/2-x,1/2-z
1/2-x,1/2+y,1/2+z
1/2+x,1/2-y,1/2+z
loop_
_atom_site_type_symbol
_atom_site_label
_atom_site_fract_x
_atom_site_fract_y
_atom_site_fract_z
Si Si1 0.187613 0.000000 0.873510
Si Si2 0.192743 0.807170 0.673174
Si Si3 0.500000 0.190417 0.548953
Si Si4 0.194369 0.694369 0.750000
Si Si5 0.698682 0.301319 0.000000
O O1 0.206663 0.829857 0.850018
O O2 0.307708 0.000000 0.907959
O O3 0.000000 0.000000 0.889812
O O4 0.246443 0.803229 0.715151
O O5 0.000000 0.731362 0.668556
O O6 0.196516 0.000000 0.659708
O O7 0.678453 0.262089 0.532789
O O8 0.500000 0.000000 0.535577
O O9 0.227803 0.500000 0.739060
O O10 0.500000 0.274145 0.011061
#
# Coordination Sequence:
#
# PCOD8311028 Si02
#       5
#     8  16   8   8   8
#     4  12  26  40  60  92 128 168 208 262 320 379
#     4  10  22  40  61  86 121 164 211 262 317 379
#     4  10  22  40  64  92 124 160 204 259 307 378
#     4   9  18  34  57  84 116 156 203 261 316 372
#     4   9  20  39  64  94 126 163 206 253 312 376
#
# _framework density 20.930510000000002
#
# number of rings (size 3 to 8) (size 9 to 14) (size 15 to 20)
#    0.000    2.000    0.000    2.500    4.667    3.333 
#    0.000    3.333    0.000    0.000    0.000    0.000 
#    0.000    0.000    0.000    0.000    0.000    0.000 
#
# Total GULP energy -297401.192688 kJ/mol
# GULP energy per Si atom -12391.716362 kJ/mol
# Density = 2.088287 g / cm^3
# Si number density = 20.930510 Si / 1000 Ang^3
#
#
#
# Elastic Constant Matrix: (Units=GPa)
#
#
# Indices 1 2 3 4 5 6 
#
# 1 92.7181 33.1839 42.4135 0.0000 0.0000 0.0000
# 2 33.1839 92.7191 42.4133 0.0000 0.0000 0.0000
# 3 42.4135 42.4133 116.9129 0.0000 0.0000 0.0000
# 4 0.0000 0.0000 0.0000 30.3822 0.0000 0.0000
# 5 0.0000 0.0000 0.0000 0.0000 30.3824 0.0000
# 6 0.0000 0.0000 0.0000 0.0000 0.0000 19.0835
#
#
#
# Elastic Compliance Matrix: (Units=1/GPa)
#
#
# Indices 1 2 3 4 5 6 
#
# 1 0.013655 -0.003142 -0.003814 0.000000 0.000000 0.000000
# 2 -0.003142 0.013654 -0.003813 0.000000 0.000000 0.000000
# 3 -0.003814 -0.003813 0.011320 0.000000 0.000000 0.000000
# 4 0.000000 0.000000 0.000000 0.032914 0.000000 0.000000
# 5 0.000000 0.000000 0.000000 0.000000 0.032914 0.000000
# 6 0.000000 0.000000 0.000000 0.000000 0.000000 0.052401
#
#
# Mechanical properties :
#
#
# Convention : Reuss Voigt Hill
#
# Bulk Modulus (GPa) = 58.51297 59.81907 59.16602
# Shear Modulus (GPa) = 27.16000 28.25889 27.70945
#
# Velocity S-wave (km/s) = 3.60617 3.67840 3.64246
# Velocity P-wave (km/s) = 6.73467 6.83247 6.78375
#
# Compressibility (1/GPa) = 0.01709023
#
# Stress axis : x y z
#
# Youngs Moduli (GPa) = 73.23556 73.23656 88.33682
#
# Poissons Ratio (x) = 0.23014 0.33688
# Poissons Ratio (y) = 0.23014 0.33687
# Poissons Ratio (z) = 0.27929 0.27929
#
# Static dielectric constant tensor:
#      x y z
#    x 3.877220 0.000000 0.000000 
#    y 0.000000 3.877210 0.000000 
#    z 0.000000 0.000000 3.467310 
# 
# 
# High freq. dielectric constant tensor:
#      x y z
#    x 1.822350 0.000000 0.000000 
#    y 0.000000 1.822350 0.000000 
#    z 0.000000 0.000000 1.801380 
# 
# From -- ./inp_files/9899.got.cif
#   From: 2010.03.12/outbox.cif.g09.slc.cpg/sg119_5_cif.got.tgz:9899.got - 2010.04.14 02:25:26.
