data_PCOD8311911
_publ_section_title
;
Structure prediction by ZEFSAII (Michael W. Deem and Ramdas Pophale) SiO2 
 PCOD8311911
Probable space group: I -4 2 D
;
_chemical_formula_sum "Si O2"
_cell_formula_units_Z 116
_cell_length_a 17.727424
_cell_length_b 17.727424
_cell_length_c 17.712904
_cell_angle_alpha 90.000000
_cell_angle_beta 90.000000
_cell_angle_gamma 90.000000
_cell_volume 5566.484873
_symmetry_space_group_name_H-M "I -4 2 D"
_symmetry_group_IT_number 122
_symmetry_cell_setting 'tetragonal'
loop_
_space_group_symop_operation_xyz
x,y,z
y,-x,-z
-x,-y,z
-y,x,-z
x,1/2-y,1/4-z
-x,1/2+y,1/4-z
-y,1/2-x,1/4+z
y,1/2+x,1/4+z
1/2+x,1/2+y,1/2+z
1/2+y,1/2-x,1/2-z
1/2-x,1/2-y,1/2+z
1/2-y,1/2+x,1/2-z
1/2+x,-y,3/4-z
1/2-x,y,3/4-z
1/2-y,-x,3/4+z
1/2+y,x,3/4+z
loop_
_atom_site_type_symbol
_atom_site_label
_atom_site_fract_x
_atom_site_fract_y
_atom_site_fract_z
Si Si1 0.900680 0.076257 0.217532
Si Si2 0.282672 0.184491 0.181987
Si Si3 0.429184 0.897651 0.366846
Si Si4 0.678379 0.771153 0.922245
Si Si5 0.779047 0.037687 0.671954
Si Si6 0.567607 0.336510 0.360274
Si Si7 0.500000 0.000000 0.250000
Si Si8 0.169417 0.968626 0.839600
O O1 0.930807 0.063378 0.301496
O O2 0.836843 0.140366 0.220927
O O3 0.962651 0.110045 0.159875
O O4 0.873808 0.994201 0.193641
O O5 0.254050 0.250000 0.125000
O O6 0.360198 0.151878 0.148322
O O7 0.293695 0.209424 0.268151
O O8 0.222293 0.117423 0.186637
O O9 0.497919 0.838031 0.365499
O O10 0.439019 0.959310 0.302281
O O11 0.750000 0.801151 0.875000
O O12 0.618020 0.740314 0.862766
O O13 0.813592 0.054242 0.753410
O O14 0.706244 0.979661 0.677014
O O15 0.626969 0.401602 0.386309
O O16 0.250000 0.990011 0.875000
#
# Coordination Sequence:
#
# PCOD8311911 Si02
#       8
#    16  16  16  16  16  16   4  16
#     4  10  22  41  63  88 126 171 210 263 328 390
#     4  11  21  40  63  91 125 165 214 264 327 373
#     4  10  22  40  62  89 128 166 203 257 323 390
#     4  11  21  38  63  91 122 166 216 267 316 385
#     4   9  22  41  60  91 129 160 211 269 316 385
#     4  10  22  39  63  91 123 166 211 269 319 388
#     4  12  24  36  64  96 120 168 202 256 312 404
#     4  11  22  41  65  93 122 170 216 262 335 390
#
# _framework density 20.839003999999999
#
# number of rings (size 3 to 8) (size 9 to 14) (size 15 to 20)
#    0.000    1.655    1.379    2.897    3.862    0.000 
#    7.448    0.000    3.034    0.000    0.000    0.000 
#    0.000    0.000    0.000    0.000    0.000    0.000 
#
# Total GULP energy -718957.241259 kJ/mol
# GULP energy per Si atom -12395.814504 kJ/mol
# Density = 2.079157 g / cm^3
# Si number density = 20.839004 Si / 1000 Ang^3
#
#
#
# Elastic Constant Matrix: (Units=GPa)
#
#
# Indices 1 2 3 4 5 6 
#
# 1 108.0950 38.6906 27.1852 0.0000 0.0000 0.0000
# 2 38.6906 108.0950 27.1852 0.0000 0.0000 0.0000
# 3 27.1852 27.1852 62.6767 0.0000 0.0000 0.0000
# 4 0.0000 0.0000 0.0000 23.4520 0.0000 0.0000
# 5 0.0000 0.0000 0.0000 0.0000 23.4520 0.0000
# 6 0.0000 0.0000 0.0000 0.0000 0.0000 43.0541
#
#
#
# Elastic Compliance Matrix: (Units=1/GPa)
#
#
# Indices 1 2 3 4 5 6 
#
# 1 0.011262 -0.003146 -0.003521 0.000000 0.000000 0.000000
# 2 -0.003146 0.011262 -0.003521 0.000000 0.000000 0.000000
# 3 -0.003521 -0.003521 0.019009 0.000000 0.000000 0.000000
# 4 0.000000 0.000000 0.000000 0.042640 0.000000 0.000000
# 5 0.000000 0.000000 0.000000 0.000000 0.042640 0.000000
# 6 0.000000 0.000000 0.000000 0.000000 0.000000 0.023227
#
#
# Mechanical properties :
#
#
# Convention : Reuss Voigt Hill
#
# Bulk Modulus (GPa) = 47.25856 51.66540 49.46198
# Shear Modulus (GPa) = 28.17410 30.37867 29.27639
#
# Velocity S-wave (km/s) = 3.68093 3.82223 3.75224
# Velocity P-wave (km/s) = 6.38693 6.65776 6.52375
#
# Compressibility (1/GPa) = 0.02116019
#
# Stress axis : x y z
#
# Youngs Moduli (GPa) = 88.79030 88.79030 52.60709
#
# Poissons Ratio (x) = 0.27932 0.18520
# Poissons Ratio (y) = 0.27932 0.18520
# Poissons Ratio (z) = 0.31259 0.31259
#
# Static dielectric constant tensor:
#      x y z
#    x 3.927490 0.000000 0.000000 
#    y 0.000000 3.927490 0.000000 
#    z 0.000000 0.000000 3.459560 
# 
# 
# High freq. dielectric constant tensor:
#      x y z
#    x 1.826150 0.000000 0.000000 
#    y 0.000000 1.826150 0.000000 
#    z 0.000000 0.000000 1.793920 
# 
# From -- ./inp_files/6438.got.cif
#   From: 2010.03.12/outbox.cif.g09.slc.cpg/sg122_4_cif.got.tgz:6438.got - 2010.04.06 16:17:16.
