data_PCOD8311137
_publ_section_title
;
Structure prediction by ZEFSAII (Michael W. Deem and Ramdas Pophale) SiO2 
 PCOD8311137
Probable space group: I -4 C 2
;
_chemical_formula_sum "Si O2"
_cell_formula_units_Z 120
_cell_length_a 17.917105
_cell_length_b 17.917105
_cell_length_c 19.442858
_cell_angle_alpha 90.000000
_cell_angle_beta 90.000000
_cell_angle_gamma 90.000000
_cell_volume 6241.597829
_symmetry_space_group_name_H-M "I -4 C 2"
_symmetry_group_IT_number 120
_symmetry_cell_setting 'tetragonal'
loop_
_space_group_symop_operation_xyz
x,y,z
y,-x,-z
-x,-y,z
-y,x,-z
y,x,1/2-z
-y,-x,1/2-z
-x,y,1/2+z
x,-y,1/2+z
1/2+x,1/2+y,1/2+z
1/2+y,1/2-x,1/2-z
1/2-x,1/2-y,1/2+z
1/2-y,1/2+x,1/2-z
1/2+y,1/2+x,-z
1/2-y,1/2-x,-z
1/2-x,1/2+y,z
1/2+x,1/2-y,z
loop_
_atom_site_type_symbol
_atom_site_label
_atom_site_fract_x
_atom_site_fract_y
_atom_site_fract_z
Si Si1 0.888389 0.700880 0.625803
Si Si2 0.227673 0.828203 0.137624
Si Si3 0.614894 0.312268 0.999544
Si Si4 0.282712 0.552089 0.997238
Si Si5 0.381035 0.381035 0.250000
Si Si6 0.088613 0.733255 0.851882
Si Si7 0.657285 0.718765 0.647870
Si Si8 0.277614 0.502671 0.277299
O O1 0.816979 0.753498 0.619745
O O2 0.931501 0.711463 0.552850
O O3 0.852139 0.619316 0.640412
O O4 0.943568 0.721651 0.687848
O O5 0.183627 0.876055 0.192999
O O6 0.306589 0.798937 0.169057
O O7 0.240400 0.874644 0.067391
O O8 0.648009 0.393457 0.980911
O O9 0.659243 0.280733 0.064859
O O10 0.528418 0.316990 0.018780
O O11 0.256549 0.555546 0.075317
O O12 0.361882 0.464833 0.275749
O O13 0.150440 0.792329 0.824479
O O14 0.022443 0.739804 0.795866
O O15 0.574745 0.711660 0.676207
#
# Coordination Sequence:
#
# PCOD8311137 Si02
#       8
#    16  16  16  16   8  16  16  16
#     4   9  19  36  57  82 112 145 187 243 284 329
#     4   9  19  33  57  79 110 145 195 236 282 329
#     4  10  19  34  53  81 114 150 193 236 285 340
#     4  10  19  35  54  81 115 154 189 237 284 343
#     4  10  22  36  55  86 116 151 176 238 292 346
#     4  10  21  35  57  83 111 149 197 231 283 342
#     4  10  20  34  55  82 112 146 194 244 275 332
#     4  11  21  35  56  85 117 146 189 235 291 339
#
# _framework density 19.225846000000001
#
# number of rings (size 3 to 8) (size 9 to 14) (size 15 to 20)
#    0.000    2.133    1.333    2.000    5.600    3.467 
#    0.000    1.333    0.000    0.400    0.000    0.000 
#    0.000    0.000    0.000    0.000    0.000    0.000 
#
# Total GULP energy -743584.195603 kJ/mol
# GULP energy per Si atom -12393.069927 kJ/mol
# Density = 1.918209 g / cm^3
# Si number density = 19.225846 Si / 1000 Ang^3
#
#
#
# Elastic Constant Matrix: (Units=GPa)
#
#
# Indices 1 2 3 4 5 6 
#
# 1 77.3543 55.9429 27.6458 0.0000 0.0000 0.0000
# 2 55.9429 77.3543 27.6458 0.0000 0.0000 0.0000
# 3 27.6458 27.6458 92.3807 0.0000 0.0000 0.0000
# 4 0.0000 0.0000 0.0000 27.3511 0.0000 0.0000
# 5 0.0000 0.0000 0.0000 0.0000 27.3511 0.0000
# 6 0.0000 0.0000 0.0000 0.0000 0.0000 21.1733
#
#
#
# Elastic Compliance Matrix: (Units=1/GPa)
#
#
# Indices 1 2 3 4 5 6 
#
# 1 0.027635 -0.019069 -0.002563 0.000000 0.000000 0.000000
# 2 -0.019069 0.027635 -0.002563 0.000000 0.000000 0.000000
# 3 -0.002563 -0.002563 0.012359 0.000000 0.000000 0.000000
# 4 0.000000 0.000000 0.000000 0.036562 0.000000 0.000000
# 5 0.000000 0.000000 0.000000 0.000000 0.036562 0.000000
# 6 0.000000 0.000000 0.000000 0.000000 0.000000 0.047229
#
#
# Mechanical properties :
#
#
# Convention : Reuss Voigt Hill
#
# Bulk Modulus (GPa) = 51.98454 52.17317 52.07885
# Shear Modulus (GPa) = 20.59439 24.23210 22.41325
#
# Velocity S-wave (km/s) = 3.27644 3.55405 3.41807
# Velocity P-wave (km/s) = 6.43514 6.63608 6.53638
#
# Compressibility (1/GPa) = 0.01923649
#
# Stress axis : x y z
#
# Youngs Moduli (GPa) = 36.18641 36.18641 80.91323
#
# Poissons Ratio (x) = 0.69005 0.20740
# Poissons Ratio (y) = 0.69005 0.20740
# Poissons Ratio (z) = 0.09275 0.09275
#
# Static dielectric constant tensor:
#      x y z
#    x 3.454210 0.000000 0.000000 
#    y 0.000000 3.454210 0.000000 
#    z 0.000000 0.000000 3.695110 
# 
# 
# High freq. dielectric constant tensor:
#      x y z
#    x 1.722640 0.000000 0.000000 
#    y 0.000000 1.722640 0.000000 
#    z 0.000000 0.000000 1.772250 
# 
# From -- ./inp_files/5542.got.cif
#   From: 2010.03.12/outbox.cif.g09.slc.cpg/sg120_3_cif.got.tgz:5542.got - 2010.04.06 16:00:44.
