data_PCOD8311449
_publ_section_title
;
Structure prediction by ZEFSAII (Michael W. Deem and Ramdas Pophale) SiO2 
 PCOD8311449
Probable space group: I -4 2 M
;
_chemical_formula_sum "Si O2"
_cell_formula_units_Z 106
_cell_length_a 20.172610
_cell_length_b 20.172610
_cell_length_c 14.878374
_cell_angle_alpha 90.000000
_cell_angle_beta 90.000000
_cell_angle_gamma 90.000000
_cell_volume 6054.519135
_symmetry_space_group_name_H-M "I -4 2 M"
_symmetry_group_IT_number 121
_symmetry_cell_setting 'tetragonal'
loop_
_space_group_symop_operation_xyz
x,y,z
y,-x,-z
-x,-y,z
-y,x,-z
x,-y,-z
-x,y,-z
-y,-x,z
y,x,z
1/2+x,1/2+y,1/2+z
1/2+y,1/2-x,1/2-z
1/2-x,1/2-y,1/2+z
1/2-y,1/2+x,1/2-z
1/2+x,1/2-y,1/2-z
1/2-x,1/2+y,1/2-z
1/2-y,1/2-x,1/2+z
1/2+y,1/2+x,1/2+z
loop_
_atom_site_type_symbol
_atom_site_label
_atom_site_fract_x
_atom_site_fract_y
_atom_site_fract_z
Si Si1 0.037926 0.796339 0.235141
Si Si2 0.140778 0.351364 0.414067
Si Si3 0.682381 0.004883 0.101820
Si Si4 0.672976 0.225866 0.739917
Si Si5 0.877500 0.367197 0.384907
Si Si6 0.500000 0.500000 0.500000
Si Si7 0.004974 0.283292 0.397705
Si Si8 0.947429 0.947429 0.824011
O O1 0.002627 0.748362 0.162628
O O2 0.114921 0.779709 0.244139
O O3 0.031482 0.873541 0.207985
O O4 0.004875 0.780007 0.332299
O O5 0.139777 0.428503 0.383635
O O6 0.201896 0.317528 0.362683
O O7 0.152189 0.342751 0.520007
O O8 0.074764 0.316934 0.378948
O O9 0.630607 0.946146 0.124609
O O10 0.708368 0.000000 0.000000
O O11 0.739897 0.260104 0.772041
O O12 0.664048 0.163951 0.804827
O O13 0.953165 0.342910 0.378204
O O14 0.453981 0.453981 0.433761
O O15 0.000000 0.257099 0.500000
O O16 0.000000 0.000000 0.780645
#
# Coordination Sequence:
#
# PCOD8311449 Si02
#       8
#    16  16  16  16  16   2  16   8
#     4  10  19  35  56  74 103 141 175 217 274 330
#     4   9  18  32  49  77 107 141 180 220 263 312
#     4   9  18  30  51  79 113 144 176 218 268 326
#     4  10  19  32  50  70  98 137 179 216 264 322
#     4   9  18  32  49  77 106 142 182 217 262 318
#     4   8  24  40  64  92 102 124 164 228 276 360
#     4   9  18  33  55  76 109 148 185 219 257 308
#     4  10  22  40  62  83 105 125 175 220 279 337
#
# _framework density 17.507584000000001
#
# number of rings (size 3 to 8) (size 9 to 14) (size 15 to 20)
#    0.226    2.415    0.755    0.906    1.057    1.208 
#    0.000    6.038    1.660    5.434    0.000    0.000 
#    0.000    0.000    0.000    0.000    0.000    0.000 
#
# Total GULP energy -656817.221138 kJ/mol
# GULP energy per Si atom -12392.777757 kJ/mol
# Density = 1.746774 g / cm^3
# Si number density = 17.507584 Si / 1000 Ang^3
#
#
#
# Elastic Constant Matrix: (Units=GPa)
#
#
# Indices 1 2 3 4 5 6 
#
# 1 77.6712 43.5755 41.6796 0.0000 0.0000 0.0000
# 2 43.5755 77.6717 41.6801 0.0000 0.0000 0.0000
# 3 41.6796 41.6801 95.1815 0.0000 0.0000 0.0000
# 4 0.0000 0.0000 0.0000 22.5391 0.0000 0.0000
# 5 0.0000 0.0000 0.0000 0.0000 22.5391 0.0000
# 6 0.0000 0.0000 0.0000 0.0000 0.0000 25.9637
#
#
#
# Elastic Compliance Matrix: (Units=1/GPa)
#
#
# Indices 1 2 3 4 5 6 
#
# 1 0.020565 -0.008764 -0.005167 0.000000 0.000000 0.000000
# 2 -0.008764 0.020565 -0.005167 0.000000 0.000000 0.000000
# 3 -0.005167 -0.005167 0.015032 0.000000 0.000000 0.000000
# 4 0.000000 0.000000 0.000000 0.044367 0.000000 0.000000
# 5 0.000000 0.000000 0.000000 0.000000 0.044367 0.000000
# 6 0.000000 0.000000 0.000000 0.000000 0.000000 0.038515
#
#
# Mechanical properties :
#
#
# Convention : Reuss Voigt Hill
#
# Bulk Modulus (GPa) = 55.66994 56.04387 55.85690
# Shear Modulus (GPa) = 21.96868 22.44765 22.20816
#
# Velocity S-wave (km/s) = 3.54617 3.58462 3.56545
# Velocity P-wave (km/s) = 6.97379 7.01522 6.99454
#
# Compressibility (1/GPa) = 0.01796302
#
# Stress axis : x y z
#
# Youngs Moduli (GPa) = 48.62716 48.62721 66.52574
#
# Poissons Ratio (x) = 0.42619 0.34375
# Poissons Ratio (y) = 0.42619 0.34377
# Poissons Ratio (z) = 0.25127 0.25128
#
# Static dielectric constant tensor:
#      x y z
#    x 3.100250 0.000000 0.000000 
#    y 0.000000 3.100250 0.000000 
#    z 0.000000 0.000000 3.477010 
# 
# 
# High freq. dielectric constant tensor:
#      x y z
#    x 1.660090 0.000000 0.000000 
#    y 0.000000 1.660090 0.000000 
#    z 0.000000 0.000000 1.690750 
# 
# From -- ./inp_files/4600.got.cif
#   From: 2010.03.12/outbox.cif.g09.slc.cpg/sg121_3_cif.got.tgz:4600.got - 2010.04.06 16:06:48.
