data_PCOD8311671
_publ_section_title
;
Structure prediction by ZEFSAII (Michael W. Deem and Ramdas Pophale) SiO2 
 PCOD8311671
Probable space group: I -4 2 M
;
_chemical_formula_sum "Si O2"
_cell_formula_units_Z 96
_cell_length_a 20.883430
_cell_length_b 20.883430
_cell_length_c 14.699410
_cell_angle_alpha 90.000000
_cell_angle_beta 90.000000
_cell_angle_gamma 90.000000
_cell_volume 6410.672124
_symmetry_space_group_name_H-M "I -4 2 M"
_symmetry_group_IT_number 121
_symmetry_cell_setting 'tetragonal'
loop_
_space_group_symop_operation_xyz
x,y,z
y,-x,-z
-x,-y,z
-y,x,-z
x,-y,-z
-x,y,-z
-y,-x,z
y,x,z
1/2+x,1/2+y,1/2+z
1/2+y,1/2-x,1/2-z
1/2-x,1/2-y,1/2+z
1/2-y,1/2+x,1/2-z
1/2+x,1/2-y,1/2-z
1/2-x,1/2+y,1/2-z
1/2-y,1/2-x,1/2+z
1/2+y,1/2+x,1/2+z
loop_
_atom_site_type_symbol
_atom_site_label
_atom_site_fract_x
_atom_site_fract_y
_atom_site_fract_z
Si Si1 0.660648 0.444798 0.073578
Si Si2 0.965587 0.136344 0.778026
Si Si3 0.153304 0.260993 0.982833
Si Si4 0.759399 0.862724 0.179329
Si Si5 0.057610 0.160520 0.930298
Si Si6 0.261215 0.846881 0.625339
O O1 0.603486 0.396515 0.047553
O O2 0.647302 0.476865 0.171237
O O3 0.728469 0.407506 0.075973
O O4 0.665167 0.500000 0.000000
O O5 0.933299 0.066702 0.793641
O O6 0.920027 0.190040 0.820526
O O7 0.033327 0.142185 0.829323
O O8 0.211406 0.211406 0.986703
O O9 0.132378 0.281211 0.085705
O O10 0.093500 0.229220 0.929503
O O11 0.176141 0.324666 0.930024
O O12 0.795283 0.795283 0.178473
O O13 0.716735 0.865470 0.271488
O O14 0.106881 0.106881 0.965065
O O15 0.000000 0.161890 0.000000
O O16 0.208218 0.791783 0.632360
#
# Coordination Sequence:
#
# PCOD8311671 Si02
#       6
#    16  16  16  16  16  16
#     4   9  18  32  48  63  85 117 152 181 211 254
#     4   9  17  30  43  56  81 119 150 177 217 257
#     4   9  16  27  42  60  81 107 141 181 220 257
#     4   8  13  25  43  56  74 107 139 166 211 265
#     4  11  20  28  40  61  88 117 150 184 215 252
#     4   8  15  28  44  61  80 108 141 175 218 263
#
# _framework density 14.975028999999999
#
# number of rings (size 3 to 8) (size 9 to 14) (size 15 to 20)
#    0.000    3.000    1.667    2.500    0.000    2.000 
#    3.000    1.667    0.000    0.000    0.000    0.000 
#    0.000    0.667    0.000    0.167    0.000    0.000 
#
# Total GULP energy -594815.118864 kJ/mol
# GULP energy per Si atom -12391.981643 kJ/mol
# Density = 1.494095 g / cm^3
# Si number density = 14.975029 Si / 1000 Ang^3
#
#
#
# Elastic Constant Matrix: (Units=GPa)
#
#
# Indices 1 2 3 4 5 6 
#
# 1 47.3734 46.9386 49.0820 0.0000 0.0000 0.0000
# 2 46.9386 47.3734 49.0819 0.0000 0.0000 0.0000
# 3 49.0820 49.0819 115.2543 0.0000 0.0000 0.0000
# 4 0.0000 0.0000 0.0000 24.0911 0.0000 0.0000
# 5 0.0000 0.0000 0.0000 0.0000 24.0910 0.0000
# 6 0.0000 0.0000 0.0000 0.0000 0.0000 18.0269
#
#
#
# Elastic Compliance Matrix: (Units=1/GPa)
#
#
# Indices 1 2 3 4 5 6 
#
# 1 1.159427 -1.140380 -0.008112 0.000000 0.000000 0.000000
# 2 -1.140380 1.159423 -0.008108 0.000000 0.000000 0.000000
# 3 -0.008112 -0.008108 0.015584 0.000000 0.000000 0.000000
# 4 0.000000 0.000000 0.000000 0.041509 0.000000 0.000000
# 5 0.000000 0.000000 0.000000 0.000000 0.041509 0.000000
# 6 0.000000 0.000000 0.000000 0.000000 0.000000 0.055473
#
#
# Mechanical properties :
#
#
# Convention : Reuss Voigt Hill
#
# Bulk Modulus (GPa) = 47.09828 55.57848 51.33838
# Shear Modulus (GPa) = 1.04314 17.56838 9.30576
#
# Velocity S-wave (km/s) = 0.83552 3.42888 2.49553
# Velocity P-wave (km/s) = 5.69652 7.27125 6.53151
#
# Compressibility (1/GPa) = 0.02123220
#
# Stress axis : x y z
#
# Youngs Moduli (GPa) = 0.86250 0.86250 64.16776
#
# Poissons Ratio (x) = 0.98358 0.52056
# Poissons Ratio (y) = 0.98357 0.52028
# Poissons Ratio (z) = 0.00700 0.00699
#
# Static dielectric constant tensor:
#      x y z
#    x 2.710090 0.000000 0.000000 
#    y 0.000000 2.710090 0.000000 
#    z 0.000000 0.000000 3.207300 
# 
# 
# High freq. dielectric constant tensor:
#      x y z
#    x 1.534560 0.000000 0.000000 
#    y 0.000000 1.534560 0.000000 
#    z 0.000000 0.000000 1.589570 
# 
# From -- ./inp_files/4519.got.cif
#   From: 2010.03.12/outbox.cif.g09.slc.cpg/sg121_3_cif.got.tgz:4519.got - 2010.04.06 16:06:48.
