data_PCOD8311650
_publ_section_title
;
Structure prediction by ZEFSAII (Michael W. Deem and Ramdas Pophale) SiO2 
 PCOD8311650
Probable space group: I -4 2 M
;
_chemical_formula_sum "Si O2"
_cell_formula_units_Z 68
_cell_length_a 12.426271
_cell_length_b 12.426271
_cell_length_c 23.425660
_cell_angle_alpha 90.000000
_cell_angle_beta 90.000000
_cell_angle_gamma 90.000000
_cell_volume 3617.207954
_symmetry_space_group_name_H-M "I -4 2 M"
_symmetry_group_IT_number 121
_symmetry_cell_setting 'tetragonal'
loop_
_space_group_symop_operation_xyz
x,y,z
y,-x,-z
-x,-y,z
-y,x,-z
x,-y,-z
-x,y,-z
-y,-x,z
y,x,z
1/2+x,1/2+y,1/2+z
1/2+y,1/2-x,1/2-z
1/2-x,1/2-y,1/2+z
1/2-y,1/2+x,1/2-z
1/2+x,1/2-y,1/2-z
1/2-x,1/2+y,1/2-z
1/2-y,1/2-x,1/2+z
1/2+y,1/2+x,1/2+z
loop_
_atom_site_type_symbol
_atom_site_label
_atom_site_fract_x
_atom_site_fract_y
_atom_site_fract_z
Si Si1 0.807611 0.192390 0.597445
Si Si2 0.214295 0.214295 0.534418
Si Si3 0.331802 0.668199 0.676201
Si Si4 0.718149 0.448776 0.873190
Si Si5 0.393299 0.606702 0.468426
Si Si6 0.500000 0.500000 0.632590
Si Si7 0.427753 0.841153 0.758839
O O1 0.816813 0.183188 0.529559
O O2 0.719131 0.280870 0.617730
O O3 0.923740 0.223118 0.621839
O O4 0.109038 0.259565 0.568237
O O5 0.304081 0.304081 0.532215
O O6 0.422645 0.577356 0.668695
O O7 0.383647 0.763603 0.710960
O O8 0.596534 0.403467 0.860947
O O9 0.794795 0.412437 0.821991
O O10 0.500000 0.650828 0.500000
O O11 0.423028 0.576973 0.404027
O O12 0.551187 0.859059 0.743607
#
# Coordination Sequence:
#
# PCOD8311650 Si02
#       7
#     8   8   8  16   8   4  16
#     4  12  21  43  62  99 133 169 222 266 326 406
#     4  10  23  38  65  96 133 169 216 265 328 392
#     4  12  24  38  70  92 127 173 214 278 320 399
#     4  10  23  39  66  93 129 174 210 265 336 391
#     4   9  19  42  60  83 125 169 210 269 310 376
#     4  10  25  36  60  98 114 158 223 256 330 370
#     4  11  24  44  63  94 131 167 216 276 332 387
#
# _framework density 18.799030999999999
#
# number of rings (size 3 to 8) (size 9 to 14) (size 15 to 20)
#    0.706    0.824    3.529    2.471    3.294    1.882 
#    2.118    0.000    0.000    1.412    0.000    0.000 
#    0.000    0.000    0.000    0.000    0.000    0.000 
#
# Total GULP energy -421460.929619 kJ/mol
# GULP energy per Si atom -12395.909695 kJ/mol
# Density = 1.875624 g / cm^3
# Si number density = 18.799031 Si / 1000 Ang^3
#
#
#
# Elastic Constant Matrix: (Units=GPa)
#
#
# Indices 1 2 3 4 5 6 
#
# 1 91.5655 64.0959 34.0088 0.0000 0.0000 0.0000
# 2 64.0959 91.5665 34.0107 0.0000 0.0000 0.0000
# 3 34.0088 34.0107 124.2328 0.0000 0.0000 0.0000
# 4 0.0000 0.0000 0.0000 51.4435 0.0000 0.0000
# 5 0.0000 0.0000 0.0000 0.0000 51.4474 0.0000
# 6 0.0000 0.0000 0.0000 0.0000 0.0000 153.9505
#
#
#
# Elastic Compliance Matrix: (Units=1/GPa)
#
#
# Indices 1 2 3 4 5 6 
#
# 1 0.021850 -0.014553 -0.001997 0.000000 0.000000 0.000000
# 2 -0.014553 0.021850 -0.001998 0.000000 0.000000 0.000000
# 3 -0.001997 -0.001998 0.009143 0.000000 0.000000 0.000000
# 4 0.000000 0.000000 0.000000 0.019439 0.000000 0.000000
# 5 0.000000 0.000000 0.000000 0.000000 0.019437 0.000000
# 6 0.000000 0.000000 0.000000 0.000000 0.000000 0.006496
#
#
# Mechanical properties :
#
#
# Convention : Reuss Voigt Hill
#
# Bulk Modulus (GPa) = 63.50510 63.51062 63.50786
# Shear Modulus (GPa) = 35.57179 63.05155 49.31167
#
# Velocity S-wave (km/s) = 4.35468 5.79764 5.12717
# Velocity P-wave (km/s) = 7.69017 8.86984 8.30099
#
# Compressibility (1/GPa) = 0.01574677
#
# Stress axis : x y z
#
# Youngs Moduli (GPa) = 45.76625 45.76625 109.37157
#
# Poissons Ratio (x) = 0.66604 0.21846
# Poissons Ratio (y) = 0.66604 0.21851
# Poissons Ratio (z) = 0.09141 0.09144
#
# Static dielectric constant tensor:
#      x y z
#    x 3.387730 0.000000 0.000000 
#    y 0.000000 3.387820 0.000000 
#    z 0.000000 0.000000 3.352750 
# 
# 
# High freq. dielectric constant tensor:
#      x y z
#    x 1.730120 0.000000 0.000000 
#    y 0.000000 1.730120 0.000000 
#    z 0.000000 0.000000 1.741100 
# 
# From -- ./inp_files/7612.got.cif
#   From: 2010.03.12/outbox.cif.g09.slc.cpg/sg121_4_cif.got.tgz:7612.got - 2010.04.06 16:06:48.
