data_PCOD8311873
_publ_section_title
;
Structure prediction by ZEFSAII (Michael W. Deem and Ramdas Pophale) SiO2 
 PCOD8311873
Probable space group: I -4 2 D
;
_chemical_formula_sum "Si O2"
_cell_formula_units_Z 108
_cell_length_a 12.972745
_cell_length_b 12.972745
_cell_length_c 27.058221
_cell_angle_alpha 90.000000
_cell_angle_beta 90.000000
_cell_angle_gamma 90.000000
_cell_volume 4553.685182
_symmetry_space_group_name_H-M "I -4 2 D"
_symmetry_group_IT_number 122
_symmetry_cell_setting 'tetragonal'
loop_
_space_group_symop_operation_xyz
x,y,z
y,-x,-z
-x,-y,z
-y,x,-z
x,1/2-y,1/4-z
-x,1/2+y,1/4-z
-y,1/2-x,1/4+z
y,1/2+x,1/4+z
1/2+x,1/2+y,1/2+z
1/2+y,1/2-x,1/2-z
1/2-x,1/2-y,1/2+z
1/2-y,1/2+x,1/2-z
1/2+x,-y,3/4-z
1/2-x,y,3/4-z
1/2-y,-x,3/4+z
1/2+y,x,3/4+z
loop_
_atom_site_type_symbol
_atom_site_label
_atom_site_fract_x
_atom_site_fract_y
_atom_site_fract_z
Si Si1 0.675424 0.969306 0.681554
Si Si2 0.151953 0.582391 0.402360
Si Si3 0.244799 0.725348 0.950804
Si Si4 0.857161 0.062562 0.630980
Si Si5 0.500000 0.000000 0.750000
Si Si6 0.601909 0.621200 0.981955
Si Si7 0.866387 0.041043 0.323625
Si Si8 0.500000 0.000000 0.981565
O O1 0.599560 0.935464 0.637839
O O2 0.732704 0.872155 0.707935
O O3 0.749320 0.058171 0.660208
O O4 0.603581 0.026685 0.720549
O O5 0.250000 0.526150 0.375000
O O6 0.188574 0.696152 0.418944
O O7 0.102424 0.521032 0.448243
O O8 0.233619 0.614062 0.923251
O O9 0.306723 0.697176 0.000642
O O10 0.842061 0.076424 0.573081
O O11 0.926435 0.155044 0.654677
O O12 0.911058 0.953443 0.640999
O O13 0.636754 0.501583 0.984875
O O14 0.903623 0.030328 0.266226
#
# Coordination Sequence:
#
# PCOD8311873 Si02
#       8
#    16  16  16  16   4  16  16   8
#     4  10  23  43  69  95 132 176 224 290 334 411
#     4  10  22  40  66 101 139 173 230 279 344 411
#     4  10  23  39  64 100 134 176 223 270 337 410
#     4   9  19  38  62  95 136 171 224 274 332 392
#     4  12  26  48  76  92 128 184 232 282 364 392
#     4  11  22  37  62  97 137 183 218 265 325 409
#     4   9  20  39  65  95 134 186 215 278 338 408
#     4  10  21  38  70  99 131 184 232 283 350 398
#
# _framework density 23.717054999999998
#
# number of rings (size 3 to 8) (size 9 to 14) (size 15 to 20)
#    0.000    2.222    0.000    3.111    4.148   11.852 
#    0.000    0.000    0.000    0.000    0.000    0.000 
#    0.000    0.000    0.000    0.000    0.000    0.000 
#
# Total GULP energy -669107.341590 kJ/mol
# GULP energy per Si atom -12390.876696 kJ/mol
# Density = 2.366307 g / cm^3
# Si number density = 23.717055 Si / 1000 Ang^3
#
#
#
# Elastic Constant Matrix: (Units=GPa)
#
#
# Indices 1 2 3 4 5 6 
#
# 1 58.7761 30.0688 44.0540 0.0000 0.0000 0.0000
# 2 30.0688 58.7761 44.0540 0.0000 0.0000 0.0000
# 3 44.0540 44.0540 141.6809 0.0000 0.0000 0.0000
# 4 0.0000 0.0000 0.0000 29.3086 0.0000 0.0000
# 5 0.0000 0.0000 0.0000 0.0000 29.3086 0.0000
# 6 0.0000 0.0000 0.0000 0.0000 0.0000 37.2804
#
#
#
# Elastic Compliance Matrix: (Units=1/GPa)
#
#
# Indices 1 2 3 4 5 6 
#
# 1 0.025554 -0.009280 -0.005060 0.000000 0.000000 0.000000
# 2 -0.009280 0.025554 -0.005060 0.000000 0.000000 0.000000
# 3 -0.005060 -0.005060 0.010205 0.000000 0.000000 0.000000
# 4 0.000000 0.000000 0.000000 0.034120 0.000000 0.000000
# 5 0.000000 0.000000 0.000000 0.000000 0.034120 0.000000
# 6 0.000000 0.000000 0.000000 0.000000 0.000000 0.026824
#
#
# Mechanical properties :
#
#
# Convention : Reuss Voigt Hill
#
# Bulk Modulus (GPa) = 44.42103 55.06518 49.74310
# Shear Modulus (GPa) = 24.66928 28.58326 26.62627
#
# Velocity S-wave (km/s) = 3.22863 3.47533 3.35425
# Velocity P-wave (km/s) = 5.71568 6.27470 6.00170
#
# Compressibility (1/GPa) = 0.02251186
#
# Stress axis : x y z
#
# Youngs Moduli (GPa) = 39.13275 39.13275 97.99226
#
# Poissons Ratio (x) = 0.36316 0.49585
# Poissons Ratio (y) = 0.36316 0.49585
# Poissons Ratio (z) = 0.19802 0.19802
#
# Static dielectric constant tensor:
#      x y z
#    x 4.342060 0.000000 0.000000 
#    y 0.000000 4.342060 0.000000 
#    z 0.000000 0.000000 4.175320 
# 
# 
# High freq. dielectric constant tensor:
#      x y z
#    x 1.925970 0.000000 0.000000 
#    y 0.000000 1.925970 0.000000 
#    z 0.000000 0.000000 1.940890 
# 
# From -- ./inp_files/8173.got.cif
#   From: 2010.03.12/outbox.cif.g09.slc.cpg/sg122_5_cif.got.tgz:8173.got - 2010.04.06 16:17:16.
