data_PCOD8311996
_publ_section_title
;
Structure prediction by ZEFSAII (Michael W. Deem and Ramdas Pophale) SiO2 
 PCOD8311996
Probable space group: I -4 2 D
;
_chemical_formula_sum "Si O2"
_cell_formula_units_Z 56
_cell_length_a 15.215088
_cell_length_b 15.215088
_cell_length_c 10.684575
_cell_angle_alpha 90.000000
_cell_angle_beta 90.000000
_cell_angle_gamma 90.000000
_cell_volume 2473.467390
_symmetry_space_group_name_H-M "I -4 2 D"
_symmetry_group_IT_number 122
_symmetry_cell_setting 'tetragonal'
loop_
_space_group_symop_operation_xyz
x,y,z
y,-x,-z
-x,-y,z
-y,x,-z
x,1/2-y,1/4-z
-x,1/2+y,1/4-z
-y,1/2-x,1/4+z
y,1/2+x,1/4+z
1/2+x,1/2+y,1/2+z
1/2+y,1/2-x,1/2-z
1/2-x,1/2-y,1/2+z
1/2-y,1/2+x,1/2-z
1/2+x,-y,3/4-z
1/2-x,y,3/4-z
1/2-y,-x,3/4+z
1/2+y,x,3/4+z
loop_
_atom_site_type_symbol
_atom_site_label
_atom_site_fract_x
_atom_site_fract_y
_atom_site_fract_z
Si Si1 0.429630 0.605365 0.060393
Si Si2 0.638319 0.169035 0.700310
Si Si3 0.250000 0.196355 0.375000
Si Si4 0.399914 0.010718 0.593888
O O1 0.362931 0.685502 0.040014
O O2 0.462899 0.606599 0.201170
O O3 0.512340 0.617764 0.967285
O O4 0.590830 0.250000 0.625000
O O5 0.740631 0.196912 0.722747
O O6 0.645236 0.083265 0.612437
O O7 0.586949 0.148460 0.827440
O O8 0.500000 0.000000 0.638932
#
# Coordination Sequence:
#
# PCOD8311996 Si02
#       4
#    16  16   8  16
#     4  11  26  50  76 110 154 211 255 315 393 475
#     4  10  25  46  74 118 147 200 264 327 392 468
#     4  10  28  48  76 116 156 200 254 338 380 476
#     4  12  22  48  79 105 153 208 258 323 394 462
#
# _framework density 22.640284000000001
#
# number of rings (size 3 to 8) (size 9 to 14) (size 15 to 20)
#    0.857    0.286    5.714    0.000    4.000    5.714 
#    5.143    0.000    0.000    0.000    0.000    0.000 
#    0.000    0.000    0.000    0.000    0.000    0.000 
#
# Total GULP energy -347066.029269 kJ/mol
# GULP energy per Si atom -12395.215331 kJ/mol
# Density = 2.258875 g / cm^3
# Si number density = 22.640284 Si / 1000 Ang^3
#
#
#
# Elastic Constant Matrix: (Units=GPa)
#
#
# Indices 1 2 3 4 5 6 
#
# 1 162.5791 97.4763 54.9901 0.0000 0.0000 0.0000
# 2 97.4763 162.5791 54.9901 0.0000 0.0000 0.0000
# 3 54.9901 54.9901 144.1202 0.0000 0.0000 0.0000
# 4 0.0000 0.0000 0.0000 28.3871 0.0000 0.0000
# 5 0.0000 0.0000 0.0000 0.0000 28.3871 0.0000
# 6 0.0000 0.0000 0.0000 0.0000 0.0000 59.5007
#
#
#
# Elastic Compliance Matrix: (Units=1/GPa)
#
#
# Indices 1 2 3 4 5 6 
#
# 1 0.009973 -0.005388 -0.001750 0.000000 0.000000 0.000000
# 2 -0.005388 0.009973 -0.001750 0.000000 0.000000 0.000000
# 3 -0.001750 -0.001750 0.008274 0.000000 0.000000 0.000000
# 4 0.000000 0.000000 0.000000 0.035227 0.000000 0.000000
# 5 0.000000 0.000000 0.000000 0.000000 0.035227 0.000000
# 6 0.000000 0.000000 0.000000 0.000000 0.000000 0.016807
#
#
# Mechanical properties :
#
#
# Convention : Reuss Voigt Hill
#
# Bulk Modulus (GPa) = 95.72959 98.24348 96.98653
# Shear Modulus (GPa) = 36.56696 40.70981 38.63838
#
# Velocity S-wave (km/s) = 4.02323 4.24502 4.13561
# Velocity P-wave (km/s) = 7.99728 8.21671 8.10774
#
# Compressibility (1/GPa) = 0.01044609
#
# Stress axis : x y z
#
# Youngs Moduli (GPa) = 100.27305 100.27305 120.86433
#
# Poissons Ratio (x) = 0.54023 0.21146
# Poissons Ratio (y) = 0.54023 0.21146
# Poissons Ratio (z) = 0.17543 0.17543
#
# Static dielectric constant tensor:
#      x y z
#    x 4.489920 0.000000 0.000000 
#    y 0.000000 4.489920 0.000000 
#    z 0.000000 0.000000 3.720650 
# 
# 
# High freq. dielectric constant tensor:
#      x y z
#    x 1.900870 0.000000 0.000000 
#    y 0.000000 1.900870 0.000000 
#    z 0.000000 0.000000 1.879710 
# 
# From -- ./inp_files/3939.got.cif
#   From: 2010.03.12/outbox.cif.g09.slc.cpg/sg122_2_cif.got.tgz:3939.got - 2010.04.06 16:17:16.
