data_PCOD8311703
_publ_section_title
;
Structure prediction by ZEFSAII (Michael W. Deem and Ramdas Pophale) SiO2 
 PCOD8311703
Probable space group: I -4 2 M
;
_chemical_formula_sum "Si O2"
_cell_formula_units_Z 32
_cell_length_a 17.435340
_cell_length_b 17.435340
_cell_length_c 4.801116
_cell_angle_alpha 90.000000
_cell_angle_beta 90.000000
_cell_angle_gamma 90.000000
_cell_volume 1459.496442
_symmetry_space_group_name_H-M "I -4 2 M"
_symmetry_group_IT_number 121
_symmetry_cell_setting 'tetragonal'
loop_
_space_group_symop_operation_xyz
x,y,z
y,-x,-z
-x,-y,z
-y,x,-z
x,-y,-z
-x,y,-z
-y,-x,z
y,x,z
1/2+x,1/2+y,1/2+z
1/2+y,1/2-x,1/2-z
1/2-x,1/2-y,1/2+z
1/2-y,1/2+x,1/2-z
1/2+x,1/2-y,1/2-z
1/2-x,1/2+y,1/2-z
1/2-y,1/2-x,1/2+z
1/2+y,1/2+x,1/2+z
loop_
_atom_site_type_symbol
_atom_site_label
_atom_site_fract_x
_atom_site_fract_y
_atom_site_fract_z
Si Si1 0.657797 0.916721 0.598712
Si Si2 0.448338 0.324724 0.235764
O O1 0.608837 0.857768 0.414715
O O2 0.750044 0.912586 0.581365
O O3 0.628421 0.000000 0.500000
O O4 0.500000 0.300669 0.500000
O O5 0.381371 0.381371 0.335860
O O6 0.500000 0.366378 0.000000
#
# Coordination Sequence:
#
# PCOD8311703 Si02
#       2
#    16  16
#     4  11  23  40  62  91 125 162 207 256 309 373
#     4  11  24  42  64  93 128 166 213 266 319 381
#
# _framework density 21.925373
#
# number of rings (size 3 to 8) (size 9 to 14) (size 15 to 20)
#    0.000    1.000    0.000    9.000    0.000    8.000 
#    0.000    0.000    0.000    0.000    0.000    0.000 
#    0.000    0.000    0.000    0.000    0.000    0.000 
#
# Total GULP energy -198337.602076 kJ/mol
# GULP energy per Si atom -12396.100130 kJ/mol
# Density = 2.187547 g / cm^3
# Si number density = 21.925373 Si / 1000 Ang^3
#
#
#
# Elastic Constant Matrix: (Units=GPa)
#
#
# Indices 1 2 3 4 5 6 
#
# 1 99.4417 61.4925 25.7462 0.0000 0.0000 0.0000
# 2 61.4925 99.4417 25.7462 0.0000 0.0000 0.0000
# 3 25.7462 25.7462 98.4240 0.0000 0.0000 0.0000
# 4 0.0000 0.0000 0.0000 37.7362 0.0000 0.0000
# 5 0.0000 0.0000 0.0000 0.0000 37.7362 0.0000
# 6 0.0000 0.0000 0.0000 0.0000 0.0000 27.4802
#
#
#
# Elastic Compliance Matrix: (Units=1/GPa)
#
#
# Indices 1 2 3 4 5 6 
#
# 1 0.016566 -0.009785 -0.001774 0.000000 0.000000 0.000000
# 2 -0.009785 0.016566 -0.001774 0.000000 0.000000 0.000000
# 3 -0.001774 -0.001774 0.011088 0.000000 0.000000 0.000000
# 4 0.000000 0.000000 0.000000 0.026500 0.000000 0.000000
# 5 0.000000 0.000000 0.000000 0.000000 0.026500 0.000000
# 6 0.000000 0.000000 0.000000 0.000000 0.000000 0.036390
#
#
# Mechanical properties :
#
#
# Convention : Reuss Voigt Hill
#
# Bulk Modulus (GPa) = 56.96311 58.14190 57.55250
# Shear Modulus (GPa) = 30.09749 32.87868 31.48809
#
# Velocity S-wave (km/s) = 3.70905 3.87663 3.79377
# Velocity P-wave (km/s) = 6.66180 6.82740 6.74511
#
# Compressibility (1/GPa) = 0.01755522
#
# Stress axis : x y z
#
# Youngs Moduli (GPa) = 60.36404 60.36404 90.18631
#
# Poissons Ratio (x) = 0.59065 0.15998
# Poissons Ratio (y) = 0.59065 0.15998
# Poissons Ratio (z) = 0.10708 0.10708
#
# Static dielectric constant tensor:
#      x y z
#    x 3.735430 0.000000 0.000000 
#    y 0.000000 3.735430 0.000000 
#    z 0.000000 0.000000 4.002760 
# 
# 
# High freq. dielectric constant tensor:
#      x y z
#    x 1.854080 0.000000 0.000000 
#    y 0.000000 1.854080 0.000000 
#    z 0.000000 0.000000 1.879590 
# 
# From -- ./inp_files/115.got.cif
#   From: 2010.03.12/outbox.cif.g09.slc.cpg/sg121_1_cif.got.tgz:115.got - 2010.04.06 16:06:48.
