data_PCOD8311652
_publ_section_title
;
Structure prediction by ZEFSAII (Michael W. Deem and Ramdas Pophale) SiO2 
 PCOD8311652
Probable space group: I -4 2 M
;
_chemical_formula_sum "Si O2"
_cell_formula_units_Z 96
_cell_length_a 19.387641
_cell_length_b 19.387641
_cell_length_c 11.584904
_cell_angle_alpha 90.000000
_cell_angle_beta 90.000000
_cell_angle_gamma 90.000000
_cell_volume 4354.540939
_symmetry_space_group_name_H-M "I -4 2 M"
_symmetry_group_IT_number 121
_symmetry_cell_setting 'tetragonal'
loop_
_space_group_symop_operation_xyz
x,y,z
y,-x,-z
-x,-y,z
-y,x,-z
x,-y,-z
-x,y,-z
-y,-x,z
y,x,z
1/2+x,1/2+y,1/2+z
1/2+y,1/2-x,1/2-z
1/2-x,1/2-y,1/2+z
1/2-y,1/2+x,1/2-z
1/2+x,1/2-y,1/2-z
1/2-x,1/2+y,1/2-z
1/2-y,1/2-x,1/2+z
1/2+y,1/2+x,1/2+z
loop_
_atom_site_type_symbol
_atom_site_label
_atom_site_fract_x
_atom_site_fract_y
_atom_site_fract_z
Si Si1 0.831550 0.641265 0.603484
Si Si2 0.957648 0.402446 0.263236
Si Si3 0.453490 0.660260 0.755973
Si Si4 0.099724 0.212807 0.279325
Si Si5 0.441222 0.221160 0.407196
Si Si6 0.777943 0.112359 0.467656
O O1 0.907971 0.611280 0.627879
O O2 0.777488 0.611577 0.695351
O O3 0.808009 0.624681 0.473649
O O4 0.840420 0.723442 0.601949
O O5 0.924398 0.466565 0.191133
O O6 0.966803 0.335108 0.184456
O O7 0.415540 0.584461 0.749297
O O8 0.536419 0.662932 0.736965
O O9 0.419442 0.708574 0.657657
O O10 0.446263 0.694716 0.881760
O O11 0.168877 0.168877 0.272838
O O12 0.083675 0.245547 0.406683
O O13 0.500000 0.236731 0.500000
O O14 0.842815 0.157186 0.501751
#
# Coordination Sequence:
#
# PCOD8311652 Si02
#       6
#    16  16  16  16  16  16
#     4  12  23  41  66  94 135 180 226 276 345 409
#     4  11  23  40  61  93 133 178 229 276 332 402
#     4  11  24  45  71  99 135 179 226 287 352 409
#     4  11  24  44  69 100 136 178 230 288 345 413
#     4  12  23  43  64  92 133 175 220 274 340 404
#     4  10  23  41  66  97 128 169 226 280 338 409
#
# _framework density 22.045950999999999
#
# number of rings (size 3 to 8) (size 9 to 14) (size 15 to 20)
#    0.000    0.833    5.000    2.000    0.000    2.333 
#    3.000    0.000    0.000    3.000    0.000    0.000 
#    0.000    0.000    0.000    0.000    0.000    0.000 
#
# Total GULP energy -594716.134965 kJ/mol
# GULP energy per Si atom -12389.919478 kJ/mol
# Density = 2.199577 g / cm^3
# Si number density = 22.045951 Si / 1000 Ang^3
#
#
#
# Elastic Constant Matrix: (Units=GPa)
#
#
# Indices 1 2 3 4 5 6 
#
# 1 76.1850 8.1275 15.4323 0.0000 0.0000 0.0000
# 2 8.1275 76.1924 15.4289 0.0000 0.0000 0.0000
# 3 15.4323 15.4289 64.5902 0.0000 0.0000 0.0000
# 4 0.0000 0.0000 0.0000 30.4728 0.0000 0.0000
# 5 0.0000 0.0000 0.0000 0.0000 30.4720 0.0000
# 6 0.0000 0.0000 0.0000 0.0000 0.0000 30.5076
#
#
#
# Elastic Compliance Matrix: (Units=1/GPa)
#
#
# Indices 1 2 3 4 5 6 
#
# 1 0.013845 -0.000848 -0.003105 0.000000 0.000000 0.000000
# 2 -0.000848 0.013844 -0.003104 0.000000 0.000000 0.000000
# 3 -0.003105 -0.003104 0.016966 0.000000 0.000000 0.000000
# 4 0.000000 0.000000 0.000000 0.032816 0.000000 0.000000
# 5 0.000000 0.000000 0.000000 0.000000 0.032817 0.000000
# 6 0.000000 0.000000 0.000000 0.000000 0.000000 0.032779
#
#
# Mechanical properties :
#
#
# Convention : Reuss Voigt Hill
#
# Bulk Modulus (GPa) = 32.74467 32.77169 32.75818
# Shear Modulus (GPa) = 29.87533 30.15575 30.01554
#
# Velocity S-wave (km/s) = 3.68522 3.70247 3.69385
# Velocity P-wave (km/s) = 5.74395 5.75979 5.75187
#
# Compressibility (1/GPa) = 0.03053932
#
# Stress axis : x y z
#
# Youngs Moduli (GPa) = 72.22584 72.23479 58.94237
#
# Poissons Ratio (x) = 0.06126 0.18304
# Poissons Ratio (y) = 0.06125 0.18297
# Poissons Ratio (z) = 0.22429 0.22424
#
# Static dielectric constant tensor:
#      x y z
#    x 3.913580 0.000000 0.000000 
#    y 0.000000 3.913570 0.000000 
#    z 0.000000 0.000000 4.196170 
# 
# 
# High freq. dielectric constant tensor:
#      x y z
#    x 1.863470 0.000000 0.000000 
#    y 0.000000 1.863470 0.000000 
#    z 0.000000 0.000000 1.865110 
# 
# From -- ./inp_files/3293.got.cif
#   From: 2010.03.12/outbox.cif.g09.slc.cpg/sg121_2_cif.got.tgz:3293.got - 2010.04.06 16:06:48.
