data_PCOD8311640
_publ_section_title
;
Structure prediction by ZEFSAII (Michael W. Deem and Ramdas Pophale) SiO2 
 PCOD8311640
Probable space group: I -4 2 M
;
_chemical_formula_sum "Si O2"
_cell_formula_units_Z 52
_cell_length_a 14.965035
_cell_length_b 14.965035
_cell_length_c 11.382790
_cell_angle_alpha 90.000000
_cell_angle_beta 90.000000
_cell_angle_gamma 90.000000
_cell_volume 2549.201688
_symmetry_space_group_name_H-M "I -4 2 M"
_symmetry_group_IT_number 121
_symmetry_cell_setting 'tetragonal'
loop_
_space_group_symop_operation_xyz
x,y,z
y,-x,-z
-x,-y,z
-y,x,-z
x,-y,-z
-x,y,-z
-y,-x,z
y,x,z
1/2+x,1/2+y,1/2+z
1/2+y,1/2-x,1/2-z
1/2-x,1/2-y,1/2+z
1/2-y,1/2+x,1/2-z
1/2+x,1/2-y,1/2-z
1/2-x,1/2+y,1/2-z
1/2-y,1/2-x,1/2+z
1/2+y,1/2+x,1/2+z
loop_
_atom_site_type_symbol
_atom_site_label
_atom_site_fract_x
_atom_site_fract_y
_atom_site_fract_z
Si Si1 0.054396 0.198349 0.825546
Si Si2 0.000000 0.500000 0.250000
Si Si3 0.758075 0.620888 0.563749
Si Si4 0.045928 0.666341 0.380523
O O1 0.099203 0.099203 0.813781
O O2 0.059414 0.247632 0.700807
O O3 0.951821 0.196193 0.868716
O O4 0.107854 0.254642 0.923397
O O5 0.982928 0.589343 0.326249
O O6 0.717398 0.717398 0.596285
O O7 0.860135 0.616593 0.600778
O O8 0.000000 0.700683 0.500000
#
# Coordination Sequence:
#
# PCOD8311640 Si02
#       4
#    16   4  16  16
#     4  10  22  41  62  90 124 162 214 262 310 374
#     4  12  22  36  60  90 128 162 212 260 314 384
#     4  10  22  40  63  89 122 167 216 258 309 373
#     4  12  23  37  60  95 131 165 204 261 328 384
#
# _framework density 20.398543
#
# number of rings (size 3 to 8) (size 9 to 14) (size 15 to 20)
#    0.000    1.231    3.077    3.231    4.308    0.615 
#    0.000    4.615    0.000    0.000    0.000    0.000 
#    0.000    0.000    0.000    0.000    0.000    0.000 
#
# Total GULP energy -322343.102419 kJ/mol
# GULP energy per Si atom -12397.811631 kJ/mol
# Density = 2.035211 g / cm^3
# Si number density = 20.398543 Si / 1000 Ang^3
#
#
#
# Elastic Constant Matrix: (Units=GPa)
#
#
# Indices 1 2 3 4 5 6 
#
# 1 76.3442 35.8114 45.8014 0.0000 0.0000 0.0000
# 2 35.8114 76.3442 45.8014 0.0000 0.0000 0.0000
# 3 45.8014 45.8014 134.7679 0.0000 0.0000 0.0000
# 4 0.0000 0.0000 0.0000 23.4883 0.0000 0.0000
# 5 0.0000 0.0000 0.0000 0.0000 23.4883 0.0000
# 6 0.0000 0.0000 0.0000 0.0000 0.0000 31.6656
#
#
#
# Elastic Compliance Matrix: (Units=1/GPa)
#
#
# Indices 1 2 3 4 5 6 
#
# 1 0.018507 -0.006165 -0.004194 0.000000 0.000000 0.000000
# 2 -0.006165 0.018507 -0.004194 0.000000 0.000000 0.000000
# 3 -0.004194 -0.004194 0.010271 0.000000 0.000000 0.000000
# 4 0.000000 0.000000 0.000000 0.042574 0.000000 0.000000
# 5 0.000000 0.000000 0.000000 0.000000 0.042574 0.000000
# 6 0.000000 0.000000 0.000000 0.000000 0.000000 0.031580
#
#
# Mechanical properties :
#
#
# Convention : Reuss Voigt Hill
#
# Bulk Modulus (GPa) = 55.01370 60.25386 57.63378
# Shear Modulus (GPa) = 25.10296 26.39793 25.75044
#
# Velocity S-wave (km/s) = 3.51183 3.60127 3.55683
# Velocity P-wave (km/s) = 6.59332 6.84797 6.72185
#
# Compressibility (1/GPa) = 0.01817729
#
# Stress axis : x y z
#
# Youngs Moduli (GPa) = 54.03452 54.03452 97.35972
#
# Poissons Ratio (x) = 0.33310 0.40837
# Poissons Ratio (y) = 0.33310 0.40837
# Poissons Ratio (z) = 0.22665 0.22665
#
# Static dielectric constant tensor:
#      x y z
#    x 3.541310 0.000000 0.000000 
#    y 0.000000 3.541310 0.000000 
#    z 0.000000 0.000000 3.779170 
# 
# 
# High freq. dielectric constant tensor:
#      x y z
#    x 1.785470 0.000000 0.000000 
#    y 0.000000 1.785470 0.000000 
#    z 0.000000 0.000000 1.801580 
# 
# From -- ./inp_files/1260.got.cif
#   From: 2010.03.12/outbox.cif.g09.slc.cpg/sg121_1_cif.got.tgz:1260.got - 2010.04.06 16:06:48.
