data_PCOD8311243
_publ_section_title
;
Structure prediction by ZEFSAII (Michael W. Deem and Ramdas Pophale) SiO2 
 PCOD8311243
Probable space group: I -4 C 2
;
_chemical_formula_sum "Si O2"
_cell_formula_units_Z 48
_cell_length_a 16.572753
_cell_length_b 16.572753
_cell_length_c 8.255729
_cell_angle_alpha 90.000000
_cell_angle_beta 90.000000
_cell_angle_gamma 90.000000
_cell_volume 2267.486677
_symmetry_space_group_name_H-M "I -4 C 2"
_symmetry_group_IT_number 120
_symmetry_cell_setting 'tetragonal'
loop_
_space_group_symop_operation_xyz
x,y,z
y,-x,-z
-x,-y,z
-y,x,-z
y,x,1/2-z
-y,-x,1/2-z
-x,y,1/2+z
x,-y,1/2+z
1/2+x,1/2+y,1/2+z
1/2+y,1/2-x,1/2-z
1/2-x,1/2-y,1/2+z
1/2-y,1/2+x,1/2-z
1/2+y,1/2+x,-z
1/2-y,1/2-x,-z
1/2-x,1/2+y,z
1/2+x,1/2-y,z
loop_
_atom_site_type_symbol
_atom_site_label
_atom_site_fract_x
_atom_site_fract_y
_atom_site_fract_z
Si Si1 0.257056 0.149534 0.637242
Si Si2 0.564642 0.897689 0.185393
Si Si3 0.397049 0.443039 0.071905
O O1 0.215696 0.215696 0.750000
O O2 0.308691 0.191310 0.500000
O O3 0.311852 0.095690 0.754341
O O4 0.192176 0.092443 0.546666
O O5 0.467634 0.898230 0.200453
O O6 0.589212 0.910789 0.000000
O O7 0.427330 0.427330 0.250000
O O8 0.397478 0.539493 0.045627
#
# Coordination Sequence:
#
# PCOD8311243 Si02
#       3
#    16  16  16
#     4  11  25  40  61  95 129 165 210 264 318 364
#     4  11  23  43  67  92 125 169 212 255 313 387
#     4  10  22  41  63  89 119 162 208 249 306 375
#
# _framework density 21.168811999999999
#
# number of rings (size 3 to 8) (size 9 to 14) (size 15 to 20)
#    0.000    1.333    0.000    7.000    0.000   16.000 
#    0.000    0.000    0.000    0.000    0.000    0.000 
#    0.000    0.000    0.000    0.000    0.000    0.000 
#
# Total GULP energy -297670.753388 kJ/mol
# GULP energy per Si atom -12402.948058 kJ/mol
# Density = 2.112063 g / cm^3
# Si number density = 21.168812 Si / 1000 Ang^3
#
#
#
# Elastic Constant Matrix: (Units=GPa)
#
#
# Indices 1 2 3 4 5 6 
#
# 1 129.9901 83.0520 47.8289 0.0000 0.0000 0.0000
# 2 83.0520 129.9922 47.8265 0.0000 0.0000 0.0000
# 3 47.8289 47.8265 83.5032 0.0000 0.0000 0.0000
# 4 0.0000 0.0000 0.0000 35.6550 0.0000 0.0000
# 5 0.0000 0.0000 0.0000 0.0000 35.6535 0.0000
# 6 0.0000 0.0000 0.0000 0.0000 0.0000 41.9048
#
#
#
# Elastic Compliance Matrix: (Units=1/GPa)
#
#
# Indices 1 2 3 4 5 6 
#
# 1 0.013812 -0.007493 -0.003620 0.000000 0.000000 0.000000
# 2 -0.007493 0.013811 -0.003619 0.000000 0.000000 0.000000
# 3 -0.003620 -0.003619 0.016122 0.000000 0.000000 0.000000
# 4 0.000000 0.000000 0.000000 0.028047 0.000000 0.000000
# 5 0.000000 0.000000 0.000000 0.000000 0.028048 0.000000
# 6 0.000000 0.000000 0.000000 0.000000 0.000000 0.023864
#
#
# Mechanical properties :
#
#
# Convention : Reuss Voigt Hill
#
# Bulk Modulus (GPa) = 70.01640 77.87780 73.94710
# Shear Modulus (GPa) = 31.66047 33.62786 32.64417
#
# Velocity S-wave (km/s) = 3.87152 3.98999 3.93120
# Velocity P-wave (km/s) = 7.28917 7.62204 7.45746
#
# Compressibility (1/GPa) = 0.01428237
#
# Stress axis : x y z
#
# Youngs Moduli (GPa) = 72.40151 72.40485 62.02883
#
# Poissons Ratio (x) = 0.54250 0.22453
# Poissons Ratio (y) = 0.54248 0.22447
# Poissons Ratio (z) = 0.26207 0.26202
#
# Static dielectric constant tensor:
#      x y z
#    x 4.416930 0.000000 0.000000 
#    y 0.000000 4.416950 0.000000 
#    z 0.000000 0.000000 3.826280 
# 
# 
# High freq. dielectric constant tensor:
#      x y z
#    x 1.836720 0.000000 0.000000 
#    y 0.000000 1.836720 0.000000 
#    z 0.000000 0.000000 1.838850 
# 
# From -- ./inp_files/915.got.cif
#   From: 2010.03.12/outbox.cif.g09.slc.cpg/sg120_1_cif.got.tgz:915.got - 2010.04.06 16:00:44.
