data_PCOD8311959
_publ_section_title
;
Structure prediction by ZEFSAII (Michael W. Deem and Ramdas Pophale) SiO2 
 PCOD8311959
Probable space group: I -4 2 D
;
_chemical_formula_sum "Si O2"
_cell_formula_units_Z 48
_cell_length_a 8.589159
_cell_length_b 8.589159
_cell_length_c 28.301967
_cell_angle_alpha 90.000000
_cell_angle_beta 90.000000
_cell_angle_gamma 90.000000
_cell_volume 2087.939474
_symmetry_space_group_name_H-M "I -4 2 D"
_symmetry_group_IT_number 122
_symmetry_cell_setting 'tetragonal'
loop_
_space_group_symop_operation_xyz
x,y,z
y,-x,-z
-x,-y,z
-y,x,-z
x,1/2-y,1/4-z
-x,1/2+y,1/4-z
-y,1/2-x,1/4+z
y,1/2+x,1/4+z
1/2+x,1/2+y,1/2+z
1/2+y,1/2-x,1/2-z
1/2-x,1/2-y,1/2+z
1/2-y,1/2+x,1/2-z
1/2+x,-y,3/4-z
1/2-x,y,3/4-z
1/2-y,-x,3/4+z
1/2+y,x,3/4+z
loop_
_atom_site_type_symbol
_atom_site_label
_atom_site_fract_x
_atom_site_fract_y
_atom_site_fract_z
Si Si1 0.157830 0.595018 0.458244
Si Si2 0.818596 0.708587 0.307974
Si Si3 0.484790 0.182352 0.357154
O O1 0.228184 0.666459 0.505400
O O2 0.288587 0.476583 0.439034
O O3 0.000000 0.500000 0.469027
O O4 0.127500 0.733541 0.420375
O O5 0.671858 0.798500 0.328146
O O6 0.970073 0.742869 0.340316
O O7 0.500000 0.000000 0.362885
#
# Coordination Sequence:
#
# PCOD8311959 Si02
#       3
#    16  16  16
#     4  10  23  44  70 102 144 187 243 304 372 443
#     4  10  23  46  65 106 140 188 237 299 374 436
#     4  10  23  44  73 101 143 187 250 302 359 443
#
# _framework density 22.989172
#
# number of rings (size 3 to 8) (size 9 to 14) (size 15 to 20)
#    0.000    2.000    0.000    1.000    9.333    0.667 
#   36.000    0.000    0.000    0.000    0.000    0.000 
#    0.000    0.000    0.000    0.000    0.000    0.000 
#
# Total GULP energy -297570.425891 kJ/mol
# GULP energy per Si atom -12398.767745 kJ/mol
# Density = 2.293685 g / cm^3
# Si number density = 22.989172 Si / 1000 Ang^3
#
#
#
# Elastic Constant Matrix: (Units=GPa)
#
#
# Indices 1 2 3 4 5 6 
#
# 1 73.7295 19.0702 64.5636 0.0000 0.0000 0.0000
# 2 19.0702 73.7295 64.5636 0.0000 0.0000 0.0000
# 3 64.5636 64.5636 173.1537 0.0000 0.0000 0.0000
# 4 0.0000 0.0000 0.0000 20.5637 0.0000 0.0000
# 5 0.0000 0.0000 0.0000 0.0000 20.5636 0.0000
# 6 0.0000 0.0000 0.0000 0.0000 0.0000 16.9387
#
#
#
# Elastic Compliance Matrix: (Units=1/GPa)
#
#
# Indices 1 2 3 4 5 6 
#
# 1 0.020345 0.002050 -0.008351 0.000000 0.000000 0.000000
# 2 0.002050 0.020345 -0.008351 0.000000 0.000000 0.000000
# 3 -0.008351 -0.008351 0.012003 0.000000 0.000000 0.000000
# 4 0.000000 0.000000 0.000000 0.048629 0.000000 0.000000
# 5 0.000000 0.000000 0.000000 0.000000 0.048630 0.000000
# 6 0.000000 0.000000 0.000000 0.000000 0.000000 0.059036
#
#
# Mechanical properties :
#
#
# Convention : Reuss Voigt Hill
#
# Bulk Modulus (GPa) = 42.75136 68.55640 55.65388
# Shear Modulus (GPa) = 20.31798 23.10754 21.71276
#
# Velocity S-wave (km/s) = 2.97611 3.17385 3.07657
# Velocity P-wave (km/s) = 5.51782 6.58156 6.07303
#
# Compressibility (1/GPa) = 0.02339107
#
# Stress axis : x y z
#
# Youngs Moduli (GPa) = 49.15153 49.15159 83.31592
#
# Poissons Ratio (x) = -0.10076 0.69573
# Poissons Ratio (y) = -0.10076 0.69573
# Poissons Ratio (z) = 0.41044 0.41044
#
# Static dielectric constant tensor:
#      x y z
#    x 4.248610 0.000000 0.000000 
#    y 0.000000 4.248610 0.000000 
#    z 0.000000 0.000000 4.451180 
# 
# 
# High freq. dielectric constant tensor:
#      x y z
#    x 1.910060 0.000000 0.000000 
#    y 0.000000 1.910060 0.000000 
#    z 0.000000 0.000000 1.918640 
# 
# From -- ./inp_files/8994.got.cif
#   From: 2010.03.12/outbox.cif.g09.slc.cpg/sg122_5_cif.got.tgz:8994.got - 2010.04.06 16:17:16.
