data_PCOD8311887
_publ_section_title
;
Structure prediction by ZEFSAII (Michael W. Deem and Ramdas Pophale) SiO2 
 PCOD8311887
Probable space group: I -4 2 D
;
_chemical_formula_sum "Si O2"
_cell_formula_units_Z 112
_cell_length_a 15.298299
_cell_length_b 15.298299
_cell_length_c 22.002362
_cell_angle_alpha 90.000000
_cell_angle_beta 90.000000
_cell_angle_gamma 90.000000
_cell_volume 5149.387748
_symmetry_space_group_name_H-M "I -4 2 D"
_symmetry_group_IT_number 122
_symmetry_cell_setting 'tetragonal'
loop_
_space_group_symop_operation_xyz
x,y,z
y,-x,-z
-x,-y,z
-y,x,-z
x,1/2-y,1/4-z
-x,1/2+y,1/4-z
-y,1/2-x,1/4+z
y,1/2+x,1/4+z
1/2+x,1/2+y,1/2+z
1/2+y,1/2-x,1/2-z
1/2-x,1/2-y,1/2+z
1/2-y,1/2+x,1/2-z
1/2+x,-y,3/4-z
1/2-x,y,3/4-z
1/2-y,-x,3/4+z
1/2+y,x,3/4+z
loop_
_atom_site_type_symbol
_atom_site_label
_atom_site_fract_x
_atom_site_fract_y
_atom_site_fract_z
Si Si1 0.003747 0.790307 0.853011
Si Si2 0.350327 0.348406 0.132698
Si Si3 0.587464 0.049223 0.501547
Si Si4 0.220095 0.412281 0.440725
Si Si5 0.521569 0.368456 0.477840
Si Si6 0.818975 0.718142 0.827933
Si Si7 0.590098 0.897446 0.236896
O O1 0.086494 0.728385 0.865165
O O2 0.002106 0.862129 0.906369
O O3 0.010434 0.840463 0.787205
O O4 0.912982 0.736911 0.858611
O O5 0.313804 0.250000 0.125000
O O6 0.398260 0.366198 0.196539
O O7 0.423601 0.360202 0.080672
O O8 0.555790 0.120800 0.550646
O O9 0.500000 0.000000 0.478784
O O10 0.250000 0.446065 0.375000
O O11 0.275124 0.452550 0.495332
O O12 0.225273 0.307163 0.446189
O O13 0.435410 0.399594 0.512728
O O14 0.750000 0.674711 0.875000
O O15 0.832235 0.651704 0.772269
O O16 0.498869 0.884009 0.271298
#
# Coordination Sequence:
#
# PCOD8311887 Si02
#       7
#    16  16  16  16  16  16  16
#     4  11  24  47  69 108 142 190 249 301 363 448
#     4  12  26  49  73 103 149 189 243 313 370 440
#     4  11  26  47  73 105 146 190 245 309 368 437
#     4  10  21  42  68  98 139 184 235 292 358 428
#     4  11  23  39  69 101 141 188 236 288 363 433
#     4  10  21  44  74 101 138 188 243 296 368 437
#     4  11  25  44  71 102 141 183 238 293 365 439
#
# _framework density 21.750159
#
# number of rings (size 3 to 8) (size 9 to 14) (size 15 to 20)
#    0.000    1.143    2.857    4.286    6.000    0.571 
#    5.143    0.000    0.000    0.000    0.000    0.000 
#    0.000    0.000    0.000    0.000    0.000    0.000 
#
# Total GULP energy -694258.639458 kJ/mol
# GULP energy per Si atom -12397.475705 kJ/mol
# Density = 2.170065 g / cm^3
# Si number density = 21.750159 Si / 1000 Ang^3
#
#
#
# Elastic Constant Matrix: (Units=GPa)
#
#
# Indices 1 2 3 4 5 6 
#
# 1 90.4065 43.7898 43.6242 0.0000 0.0000 0.0000
# 2 43.7898 90.4065 43.6242 0.0000 0.0000 0.0000
# 3 43.6242 43.6242 136.9165 0.0000 0.0000 0.0000
# 4 0.0000 0.0000 0.0000 34.1857 0.0000 0.0000
# 5 0.0000 0.0000 0.0000 0.0000 34.1857 0.0000
# 6 0.0000 0.0000 0.0000 0.0000 0.0000 40.5228
#
#
#
# Elastic Compliance Matrix: (Units=1/GPa)
#
#
# Indices 1 2 3 4 5 6 
#
# 1 0.015425 -0.006026 -0.002995 0.000000 0.000000 0.000000
# 2 -0.006026 0.015425 -0.002995 0.000000 0.000000 0.000000
# 3 -0.002995 -0.002995 0.009212 0.000000 0.000000 0.000000
# 4 0.000000 0.000000 0.000000 0.029252 0.000000 0.000000
# 5 0.000000 0.000000 0.000000 0.000000 0.029252 0.000000
# 6 0.000000 0.000000 0.000000 0.000000 0.000000 0.024677
#
#
# Mechanical properties :
#
#
# Convention : Reuss Voigt Hill
#
# Bulk Modulus (GPa) = 62.37908 64.42287 63.40098
# Shear Modulus (GPa) = 32.76138 34.22492 33.49315
#
# Velocity S-wave (km/s) = 3.88527 3.97110 3.92842
# Velocity P-wave (km/s) = 6.99065 7.12109 7.05617
#
# Compressibility (1/GPa) = 0.01603102
#
# Stress axis : x y z
#
# Youngs Moduli (GPa) = 64.82920 64.82920 108.55399
#
# Poissons Ratio (x) = 0.39069 0.32508
# Poissons Ratio (y) = 0.39069 0.32508
# Poissons Ratio (z) = 0.19414 0.19414
#
# Static dielectric constant tensor:
#      x y z
#    x 3.912430 0.000000 0.000000 
#    y 0.000000 3.912430 0.000000 
#    z 0.000000 0.000000 4.270460 
# 
# 
# High freq. dielectric constant tensor:
#      x y z
#    x 1.849640 0.000000 0.000000 
#    y 0.000000 1.849640 0.000000 
#    z 0.000000 0.000000 1.865930 
# 
# From -- ./inp_files/8149.got.cif
#   From: 2010.03.12/outbox.cif.g09.slc.cpg/sg122_5_cif.got.tgz:8149.got - 2010.04.06 16:17:16.
