data_PCOD8311886
_publ_section_title
;
Structure prediction by ZEFSAII (Michael W. Deem and Ramdas Pophale) SiO2 
 PCOD8311886
Probable space group: I -4 2 D
;
_chemical_formula_sum "Si O2"
_cell_formula_units_Z 116
_cell_length_a 18.390100
_cell_length_b 18.390100
_cell_length_c 17.687001
_cell_angle_alpha 90.000000
_cell_angle_beta 90.000000
_cell_angle_gamma 90.000000
_cell_volume 5981.669064
_symmetry_space_group_name_H-M "I -4 2 D"
_symmetry_group_IT_number 122
_symmetry_cell_setting 'tetragonal'
loop_
_space_group_symop_operation_xyz
x,y,z
y,-x,-z
-x,-y,z
-y,x,-z
x,1/2-y,1/4-z
-x,1/2+y,1/4-z
-y,1/2-x,1/4+z
y,1/2+x,1/4+z
1/2+x,1/2+y,1/2+z
1/2+y,1/2-x,1/2-z
1/2-x,1/2-y,1/2+z
1/2-y,1/2+x,1/2-z
1/2+x,-y,3/4-z
1/2-x,y,3/4-z
1/2-y,-x,3/4+z
1/2+y,x,3/4+z
loop_
_atom_site_type_symbol
_atom_site_label
_atom_site_fract_x
_atom_site_fract_y
_atom_site_fract_z
Si Si1 0.240423 0.433202 0.157318
Si Si2 0.622837 0.827872 0.089529
Si Si3 0.000000 0.500000 0.250000
Si Si4 0.862407 0.817936 0.082860
Si Si5 0.824327 0.823114 0.908515
Si Si6 0.065437 0.250726 0.446161
Si Si7 0.396355 0.944754 0.269363
Si Si8 0.341545 0.477304 0.444800
O O1 0.307413 0.378838 0.178614
O O2 0.172287 0.387211 0.126400
O O3 0.257552 0.483945 0.085898
O O4 0.210126 0.475325 0.231016
O O5 0.647231 0.750000 0.125000
O O6 0.569808 0.875491 0.143207
O O7 0.576604 0.809401 0.013655
O O8 0.071371 0.473266 0.294042
O O9 0.829055 0.750000 0.125000
O O10 0.948311 0.821523 0.095981
O O11 0.832495 0.816520 0.997924
O O12 0.750000 0.790450 0.875000
O O13 0.887733 0.775588 0.874305
O O14 0.826905 0.909373 0.888956
O O15 0.088474 0.169842 0.470926
O O16 0.468966 0.903737 0.243279
#
# Coordination Sequence:
#
# PCOD8311886 Si02
#       8
#    16  16   4  16  16  16  16  16
#     4  11  20  39  61  88 126 165 209 262 310 382
#     4  10  22  39  66  96 125 165 216 262 328 388
#     4  12  16  36  60  84 116 160 200 252 314 384
#     4  11  23  38  59  89 123 164 211 254 311 380
#     4  11  23  41  62  91 127 170 209 258 319 380
#     4  11  21  40  65  95 125 165 214 263 319 383
#     4  10  21  42  68  91 124 167 207 266 325 379
#     4  11  21  37  63  85 123 165 208 249 312 384
#
# _framework density 19.392581
#
# number of rings (size 3 to 8) (size 9 to 14) (size 15 to 20)
#    0.000    1.241    5.517    2.483    0.000    1.103 
#    2.483    0.690    3.034    0.000    0.000    0.000 
#    0.000    0.000    0.000    0.000    0.000    0.000 
#
# Total GULP energy -718624.825282 kJ/mol
# GULP energy per Si atom -12390.083195 kJ/mol
# Density = 1.934844 g / cm^3
# Si number density = 19.392581 Si / 1000 Ang^3
#
#
#
# Elastic Constant Matrix: (Units=GPa)
#
#
# Indices 1 2 3 4 5 6 
#
# 1 110.9026 28.8585 34.9318 0.0000 0.0000 0.0000
# 2 28.8585 110.9026 34.9318 0.0000 0.0000 0.0000
# 3 34.9318 34.9318 44.8100 0.0000 0.0000 0.0000
# 4 0.0000 0.0000 0.0000 27.6320 0.0000 0.0000
# 5 0.0000 0.0000 0.0000 0.0000 27.6320 0.0000
# 6 0.0000 0.0000 0.0000 0.0000 0.0000 30.1920
#
#
#
# Elastic Compliance Matrix: (Units=1/GPa)
#
#
# Indices 1 2 3 4 5 6 
#
# 1 0.011956 -0.000233 -0.009139 0.000000 0.000000 0.000000
# 2 -0.000233 0.011956 -0.009139 0.000000 0.000000 0.000000
# 3 -0.009139 -0.009139 0.036565 0.000000 0.000000 0.000000
# 4 0.000000 0.000000 0.000000 0.036190 0.000000 0.000000
# 5 0.000000 0.000000 0.000000 0.000000 0.036190 0.000000
# 6 0.000000 0.000000 0.000000 0.000000 0.000000 0.033121
#
#
# Mechanical properties :
#
#
# Convention : Reuss Voigt Hill
#
# Bulk Modulus (GPa) = 42.63323 51.56216 47.09770
# Shear Modulus (GPa) = 23.71706 28.28406 26.00056
#
# Velocity S-wave (km/s) = 3.50093 3.82317 3.66559
# Velocity P-wave (km/s) = 6.19468 6.79229 6.50036
#
# Compressibility (1/GPa) = 0.02345588
#
# Stress axis : x y z
#
# Youngs Moduli (GPa) = 83.63976 83.63976 27.34837
#
# Poissons Ratio (x) = 0.01945 0.24994
# Poissons Ratio (y) = 0.01945 0.24994
# Poissons Ratio (z) = 0.76439 0.76439
#
# Static dielectric constant tensor:
#      x y z
#    x 3.782620 0.000000 0.000000 
#    y 0.000000 3.782620 0.000000 
#    z 0.000000 0.000000 3.401090 
# 
# 
# High freq. dielectric constant tensor:
#      x y z
#    x 1.766410 0.000000 0.000000 
#    y 0.000000 1.766410 0.000000 
#    z 0.000000 0.000000 1.735410 
# 
# From -- ./inp_files/6447.got.cif
#   From: 2010.03.12/outbox.cif.g09.slc.cpg/sg122_4_cif.got.tgz:6447.got - 2010.04.06 16:17:16.
