data_PCOD8311946
_publ_section_title
;
Structure prediction by ZEFSAII (Michael W. Deem and Ramdas Pophale) SiO2 
 PCOD8311946
Probable space group: I -4 2 D
;
_chemical_formula_sum "Si O2"
_cell_formula_units_Z 56
_cell_length_a 15.273855
_cell_length_b 15.273855
_cell_length_c 11.331091
_cell_angle_alpha 90.000000
_cell_angle_beta 90.000000
_cell_angle_gamma 90.000000
_cell_volume 2643.437546
_symmetry_space_group_name_H-M "I -4 2 D"
_symmetry_group_IT_number 122
_symmetry_cell_setting 'tetragonal'
loop_
_space_group_symop_operation_xyz
x,y,z
y,-x,-z
-x,-y,z
-y,x,-z
x,1/2-y,1/4-z
-x,1/2+y,1/4-z
-y,1/2-x,1/4+z
y,1/2+x,1/4+z
1/2+x,1/2+y,1/2+z
1/2+y,1/2-x,1/2-z
1/2-x,1/2-y,1/2+z
1/2-y,1/2+x,1/2-z
1/2+x,-y,3/4-z
1/2-x,y,3/4-z
1/2-y,-x,3/4+z
1/2+y,x,3/4+z
loop_
_atom_site_type_symbol
_atom_site_label
_atom_site_fract_x
_atom_site_fract_y
_atom_site_fract_z
Si Si1 0.388120 0.451616 0.056204
Si Si2 0.274263 0.353096 0.623448
Si Si3 0.750000 0.567729 0.375000
Si Si4 0.906843 0.037075 0.806993
O O1 0.305304 0.387379 0.044055
O O2 0.383801 0.510516 0.173506
O O3 0.393027 0.522523 0.948148
O O4 0.287939 0.250000 0.625000
O O5 0.247380 0.372044 0.489495
O O6 0.358995 0.403208 0.672785
O O7 0.835000 0.507147 0.359176
O O8 0.000000 0.000000 0.847122
#
# Coordination Sequence:
#
# PCOD8311946 Si02
#       4
#    16  16   8  16
#     4  10  22  46  66 102 141 178 237 287 356 425
#     4  11  26  44  71 102 140 185 239 299 353 430
#     4  10  26  44  64 104 138 172 244 284 360 434
#     4  11  23  42  70  99 137 186 225 293 357 424
#
# _framework density 21.184536999999999
#
# number of rings (size 3 to 8) (size 9 to 14) (size 15 to 20)
#    0.000    1.429    4.286    0.000    4.000    8.000 
#    0.000    0.000    0.000    0.000    0.000    0.000 
#    0.000    0.000    0.000    0.000    0.000    0.000 
#
# Total GULP energy -347157.602481 kJ/mol
# GULP energy per Si atom -12398.485803 kJ/mol
# Density = 2.113632 g / cm^3
# Si number density = 21.184537 Si / 1000 Ang^3
#
#
#
# Elastic Constant Matrix: (Units=GPa)
#
#
# Indices 1 2 3 4 5 6 
#
# 1 156.9228 74.6482 17.2984 0.0000 0.0000 0.0000
# 2 74.6482 156.9228 17.2984 0.0000 0.0000 0.0000
# 3 17.2984 17.2984 49.3061 0.0000 0.0000 0.0000
# 4 0.0000 0.0000 0.0000 31.8859 0.0000 0.0000
# 5 0.0000 0.0000 0.0000 0.0000 31.8859 0.0000
# 6 0.0000 0.0000 0.0000 0.0000 0.0000 41.5803
#
#
#
# Elastic Compliance Matrix: (Units=1/GPa)
#
#
# Indices 1 2 3 4 5 6 
#
# 1 0.008356 -0.003799 -0.001599 0.000000 0.000000 0.000000
# 2 -0.003799 0.008356 -0.001599 0.000000 0.000000 0.000000
# 3 -0.001599 -0.001599 0.021403 0.000000 0.000000 0.000000
# 4 0.000000 0.000000 0.000000 0.031362 0.000000 0.000000
# 5 0.000000 0.000000 0.000000 0.000000 0.031362 0.000000
# 6 0.000000 0.000000 0.000000 0.000000 0.000000 0.024050
#
#
# Mechanical properties :
#
#
# Convention : Reuss Voigt Hill
#
# Bulk Modulus (GPa) = 41.45526 64.62685 53.04106
# Shear Modulus (GPa) = 34.03173 37.99755 36.01464
#
# Velocity S-wave (km/s) = 4.01239 4.23974 4.12763
# Velocity P-wave (km/s) = 6.40912 7.38512 6.91436
#
# Compressibility (1/GPa) = 0.02412239
#
# Stress axis : x y z
#
# Youngs Moduli (GPa) = 119.67725 119.67725 46.72175
#
# Poissons Ratio (x) = 0.45461 0.07470
# Poissons Ratio (y) = 0.45461 0.07470
# Poissons Ratio (z) = 0.19134 0.19134
#
# Static dielectric constant tensor:
#      x y z
#    x 4.002480 0.000000 0.000000 
#    y 0.000000 4.002480 0.000000 
#    z 0.000000 0.000000 3.739450 
# 
# 
# High freq. dielectric constant tensor:
#      x y z
#    x 1.837540 0.000000 0.000000 
#    y 0.000000 1.837540 0.000000 
#    z 0.000000 0.000000 1.822590 
# 
# From -- ./inp_files/3891.got.cif
#   From: 2010.03.12/outbox.cif.g09.slc.cpg/sg122_2_cif.got.tgz:3891.got - 2010.04.06 16:17:16.
