data_PCOD8311105
_publ_section_title
;
Structure prediction by ZEFSAII (Michael W. Deem and Ramdas Pophale) SiO2 
 PCOD8311105
Probable space group: I -4 C 2
;
_chemical_formula_sum "Si O2"
_cell_formula_units_Z 96
_cell_length_a 13.895137
_cell_length_b 13.895137
_cell_length_c 24.398061
_cell_angle_alpha 90.000000
_cell_angle_beta 90.000000
_cell_angle_gamma 90.000000
_cell_volume 4710.651535
_symmetry_space_group_name_H-M "I -4 C 2"
_symmetry_group_IT_number 120
_symmetry_cell_setting 'tetragonal'
loop_
_space_group_symop_operation_xyz
x,y,z
y,-x,-z
-x,-y,z
-y,x,-z
y,x,1/2-z
-y,-x,1/2-z
-x,y,1/2+z
x,-y,1/2+z
1/2+x,1/2+y,1/2+z
1/2+y,1/2-x,1/2-z
1/2-x,1/2-y,1/2+z
1/2-y,1/2+x,1/2-z
1/2+y,1/2+x,-z
1/2-y,1/2-x,-z
1/2-x,1/2+y,z
1/2+x,1/2-y,z
loop_
_atom_site_type_symbol
_atom_site_label
_atom_site_fract_x
_atom_site_fract_y
_atom_site_fract_z
Si Si1 0.392917 0.785679 0.644628
Si Si2 0.291823 0.208178 0.500000
Si Si3 0.613010 0.352466 0.929925
Si Si4 0.040410 0.350491 0.755048
Si Si5 0.500000 0.000000 0.000000
Si Si6 0.133041 0.561087 0.417441
Si Si7 0.800212 0.485831 0.128894
Si Si8 0.000000 0.000000 0.500000
O O1 0.363917 0.680102 0.623748
O O2 0.403411 0.785168 0.710460
O O3 0.501007 0.802062 0.623301
O O4 0.317749 0.870054 0.625604
O O5 0.316937 0.313832 0.478423
O O6 0.353825 0.192833 0.555094
O O7 0.522306 0.286203 0.910628
O O8 0.573078 0.448800 0.957753
O O9 0.108988 0.440674 0.770314
O O10 0.018911 0.284226 0.808048
O O11 0.507881 0.901146 0.033533
O O12 0.035891 0.600650 0.389231
#
# Coordination Sequence:
#
# PCOD8311105 Si02
#       8
#    16   8  16  16   4  16  16   4
#     4  11  20  35  63  92 120 167 203 264 323 388
#     4   9  22  38  56  90 112 158 211 264 296 367
#     4  11  26  41  64  85 125 173 215 263 315 396
#     4   9  17  32  61  94 128 157 197 266 339 376
#     4  10  16  22  44  82 110 148 178 256 308 348
#     4  10  17  32  54  84 118 149 199 258 315 354
#     4  10  20  38  59  93 124 153 214 266 314 377
#     4  12  28  52  60  86 132 188 204 256 340 402
#
# _framework density 20.379348
#
# number of rings (size 3 to 8) (size 9 to 14) (size 15 to 20)
#    0.000    1.833    3.333    1.000    2.333    1.333 
#    0.000    0.000    0.000    2.000    0.000    0.000 
#    0.000    0.000    0.000    0.000    0.000    0.000 
#
# Total GULP energy -594647.458770 kJ/mol
# GULP energy per Si atom -12388.488724 kJ/mol
# Density = 2.033296 g / cm^3
# Si number density = 20.379348 Si / 1000 Ang^3
#
#
#
# Elastic Constant Matrix: (Units=GPa)
#
#
# Indices 1 2 3 4 5 6 
#
# 1 71.9543 29.0426 28.7431 0.0000 0.0000 0.0000
# 2 29.0426 71.9545 28.7436 0.0000 0.0000 0.0000
# 3 28.7431 28.7436 89.0270 0.0000 0.0000 0.0000
# 4 0.0000 0.0000 0.0000 29.1208 0.0000 0.0000
# 5 0.0000 0.0000 0.0000 0.0000 29.1205 0.0000
# 6 0.0000 0.0000 0.0000 0.0000 0.0000 21.8931
#
#
#
# Elastic Compliance Matrix: (Units=1/GPa)
#
#
# Indices 1 2 3 4 5 6 
#
# 1 0.017717 -0.005587 -0.003916 0.000000 0.000000 0.000000
# 2 -0.005587 0.017717 -0.003917 0.000000 0.000000 0.000000
# 3 -0.003916 -0.003917 0.013761 0.000000 0.000000 0.000000
# 4 0.000000 0.000000 0.000000 0.034340 0.000000 0.000000
# 5 0.000000 0.000000 0.000000 0.000000 0.034340 0.000000
# 6 0.000000 0.000000 0.000000 0.000000 0.000000 0.045677
#
#
# Mechanical properties :
#
#
# Convention : Reuss Voigt Hill
#
# Bulk Modulus (GPa) = 44.72946 45.11050 44.91998
# Shear Modulus (GPa) = 25.27254 25.78730 25.52992
#
# Velocity S-wave (km/s) = 3.52533 3.56106 3.54324
# Velocity P-wave (km/s) = 6.21021 6.25233 6.23130
#
# Compressibility (1/GPa) = 0.02235663
#
# Stress axis : x y z
#
# Youngs Moduli (GPa) = 56.44283 56.44277 72.66651
#
# Poissons Ratio (x) = 0.31532 0.28459
# Poissons Ratio (y) = 0.31532 0.28460
# Poissons Ratio (z) = 0.22105 0.22106
#
# Static dielectric constant tensor:
#      x y z
#    x 3.441060 0.000000 0.000000 
#    y 0.000000 3.441050 0.000000 
#    z 0.000000 0.000000 3.893860 
# 
# 
# High freq. dielectric constant tensor:
#      x y z
#    x 1.768590 0.000000 0.000000 
#    y 0.000000 1.768590 0.000000 
#    z 0.000000 0.000000 1.809360 
# 
# From -- ./inp_files/6263.got.cif
#   From: 2010.03.12/outbox.cif.g09.slc.cpg/sg120_4_cif.got.tgz:6263.got - 2010.04.06 16:00:44.
