data_PCOD8311679
_publ_section_title
;
Structure prediction by ZEFSAII (Michael W. Deem and Ramdas Pophale) SiO2 
 PCOD8311679
Probable space group: I -4 2 M
;
_chemical_formula_sum "Si O2"
_cell_formula_units_Z 96
_cell_length_a 25.548196
_cell_length_b 25.548196
_cell_length_c 8.632377
_cell_angle_alpha 90.000000
_cell_angle_beta 90.000000
_cell_angle_gamma 90.000000
_cell_volume 5634.441544
_symmetry_space_group_name_H-M "I -4 2 M"
_symmetry_group_IT_number 121
_symmetry_cell_setting 'tetragonal'
loop_
_space_group_symop_operation_xyz
x,y,z
y,-x,-z
-x,-y,z
-y,x,-z
x,-y,-z
-x,y,-z
-y,-x,z
y,x,z
1/2+x,1/2+y,1/2+z
1/2+y,1/2-x,1/2-z
1/2-x,1/2-y,1/2+z
1/2-y,1/2+x,1/2-z
1/2+x,1/2-y,1/2-z
1/2-x,1/2+y,1/2-z
1/2-y,1/2-x,1/2+z
1/2+y,1/2+x,1/2+z
loop_
_atom_site_type_symbol
_atom_site_label
_atom_site_fract_x
_atom_site_fract_y
_atom_site_fract_z
Si Si1 0.000000 0.811703 0.831349
Si Si2 0.608801 0.190129 0.183095
Si Si3 0.196133 0.888308 0.814356
Si Si4 0.196132 0.111691 0.814347
Si Si5 0.809870 0.391200 0.816910
Si Si6 0.687836 0.000000 0.828612
O O1 0.055327 0.826213 0.749122
O O2 0.000001 0.749573 0.847110
O O3 0.944675 0.826213 0.749117
O O4 0.000000 0.838657 0.000000
O O5 0.623771 0.247627 0.243575
O O6 0.651355 0.151354 0.250001
O O7 0.551756 0.170293 0.236881
O O8 0.610900 0.190180 0.000003
O O9 0.156597 0.843403 0.759746
O O10 0.201390 0.891271 0.000005
O O11 0.156595 0.156595 0.759735
O O12 0.252371 0.123771 0.743564
O O13 0.829705 0.448245 0.763122
O O14 0.661984 0.000000 0.000000
#
# Coordination Sequence:
#
# PCOD8311679 Si02
#       6
#    16  16  16  16  16  16
#     4   7  12  25  45  66  88 118 158 200 240 286
#     4  11  21  33  50  73 100 130 163 200 243 291
#     4   9  17  30  48  69  95 129 167 207 251 296
#     4   9  17  30  48  69  95 129 167 207 251 296
#     4  11  21  33  50  73 100 130 163 200 243 291
#     4   9  17  33  53  72  95 124 161 202 240 284
#
# _framework density 17.038067999999999
#
# number of rings (size 3 to 8) (size 9 to 14) (size 15 to 20)
#    0.000    2.667    0.000    5.500    0.000    1.333 
#    0.000    0.000    0.000    1.000    0.000    7.000 
#    0.000    0.000    0.000   12.167    0.000   15.000 
#
# Total GULP energy -594690.638792 kJ/mol
# GULP energy per Si atom -12389.388308 kJ/mol
# Density = 1.699929 g / cm^3
# Si number density = 17.038068 Si / 1000 Ang^3
#
#
#
# Elastic Constant Matrix: (Units=GPa)
#
#
# Indices 1 2 3 4 5 6 
#
# 1 128.4639 86.2627 46.1808 0.0000 0.0000 0.0000
# 2 86.2627 128.4656 46.1812 0.0000 0.0000 0.0000
# 3 46.1808 46.1812 88.8676 0.0000 0.0000 0.0000
# 4 0.0000 0.0000 0.0000 20.3948 0.0000 0.0000
# 5 0.0000 0.0000 0.0000 0.0000 20.3948 0.0000
# 6 0.0000 0.0000 0.0000 0.0000 0.0000 -5.3063
#
#
#
# Elastic Compliance Matrix: (Units=1/GPa)
#
#
# Indices 1 2 3 4 5 6 
#
# 1 0.014847 -0.008849 -0.003117 0.000000 0.000000 0.000000
# 2 -0.008849 0.014847 -0.003117 0.000000 0.000000 0.000000
# 3 -0.003117 -0.003117 0.014492 0.000000 0.000000 0.000000
# 4 0.000000 0.000000 0.000000 0.049032 0.000000 0.000000
# 5 0.000000 0.000000 0.000000 0.000000 0.049032 0.000000
# 6 0.000000 0.000000 0.000000 0.000000 0.000000 -0.188455
#
#
# Mechanical properties :
#
#
# Convention : Reuss Voigt Hill
#
# Bulk Modulus (GPa) = 71.32494 78.11628 74.72061
# Shear Modulus (GPa) = -439.85908 18.24147 -210.80880
#
# Velocity S-wave (km/s) = -16.08487 3.27560 -11.13538
# Velocity P-wave (km/s) = 17.40721 7.76232 11.01720
#
# Compressibility (1/GPa) = 0.01402034
#
# Stress axis : x y z
#
# Youngs Moduli (GPa) = 67.35504 67.35584 69.00352
#
# Poissons Ratio (x) = 0.59603 0.21507
# Poissons Ratio (y) = 0.59602 0.21507
# Poissons Ratio (z) = 0.20993 0.20993
#
# Static dielectric constant tensor:
#      x y z
#    x 3.348910 0.000000 0.000000 
#    y 0.000000 3.348910 0.000000 
#    z 0.000000 0.000000 3.117340 
# 
# 
# High freq. dielectric constant tensor:
#      x y z
#    x 1.646810 0.000000 0.000000 
#    y 0.000000 1.646810 0.000000 
#    z 0.000000 0.000000 1.647230 
# 
# From -- ./inp_files/1926.got.cif
#   From: 2010.03.12/outbox.cif.g09.slc.cpg/sg121_1_cif.got.tgz:1926.got - 2010.04.06 16:06:48.
