data_PCOD8311828
_publ_section_title
;
Structure prediction by ZEFSAII (Michael W. Deem and Ramdas Pophale) SiO2 
 PCOD8311828
Probable space group: I -4 2 D
;
_chemical_formula_sum "Si O2"
_cell_formula_units_Z 76
_cell_length_a 12.513247
_cell_length_b 12.513247
_cell_length_c 26.813838
_cell_angle_alpha 90.000000
_cell_angle_beta 90.000000
_cell_angle_gamma 90.000000
_cell_volume 4198.546966
_symmetry_space_group_name_H-M "I -4 2 D"
_symmetry_group_IT_number 122
_symmetry_cell_setting 'tetragonal'
loop_
_space_group_symop_operation_xyz
x,y,z
y,-x,-z
-x,-y,z
-y,x,-z
x,1/2-y,1/4-z
-x,1/2+y,1/4-z
-y,1/2-x,1/4+z
y,1/2+x,1/4+z
1/2+x,1/2+y,1/2+z
1/2+y,1/2-x,1/2-z
1/2-x,1/2-y,1/2+z
1/2-y,1/2+x,1/2-z
1/2+x,-y,3/4-z
1/2-x,y,3/4-z
1/2-y,-x,3/4+z
1/2+y,x,3/4+z
loop_
_atom_site_type_symbol
_atom_site_label
_atom_site_fract_x
_atom_site_fract_y
_atom_site_fract_z
Si Si1 0.270103 0.725097 0.516952
Si Si2 0.489000 0.729132 0.468153
Si Si3 0.500000 0.500000 0.500000
Si Si4 0.750000 0.803606 0.375000
Si Si5 0.591954 0.123169 0.273268
Si Si6 0.881980 0.019401 0.628608
O O1 0.387583 0.764118 0.500910
O O2 0.242566 0.601094 0.504688
O O3 0.270235 0.741992 0.576297
O O4 0.182430 0.790687 0.486756
O O5 0.487000 0.600263 0.462371
O O6 0.480375 0.788970 0.415508
O O7 0.854181 0.876812 0.381398
O O8 0.496103 0.139662 0.233354
O O9 0.547756 0.136323 0.328681
O O10 0.000000 0.000000 0.651291
#
# Coordination Sequence:
#
# PCOD8311828 Si02
#       6
#    16  16   4   8  16  16
#     4  10  20  38  59  83 114 150 195 240 286 344
#     4   9  21  36  59  85 111 149 195 242 286 336
#     4   8  16  44  60  72 116 160 188 236 296 348
#     4  10  20  38  60  76 116 160 190 226 292 356
#     4  11  20  37  59  79 118 157 188 225 290 352
#     4  11  21  36  56  89 112 152 191 233 295 341
#
# _framework density 18.101500000000001
#
# number of rings (size 3 to 8) (size 9 to 14) (size 15 to 20)
#    0.000    1.895    4.211    0.000    0.000    5.895 
#    0.000    8.421    0.000    0.000    0.000    0.000 
#    0.000    0.000    0.000    0.000    0.000    0.000 
#
# Total GULP energy -471039.198208 kJ/mol
# GULP energy per Si atom -12395.768374 kJ/mol
# Density = 1.806030 g / cm^3
# Si number density = 18.101500 Si / 1000 Ang^3
#
#
#
# Elastic Constant Matrix: (Units=GPa)
#
#
# Indices 1 2 3 4 5 6 
#
# 1 129.0189 85.7023 60.4880 0.0000 0.0000 0.0000
# 2 85.7023 129.0189 60.4880 0.0000 0.0000 0.0000
# 3 60.4880 60.4880 98.1606 0.0000 0.0000 0.0000
# 4 0.0000 0.0000 0.0000 25.8976 0.0000 0.0000
# 5 0.0000 0.0000 0.0000 0.0000 25.8976 0.0000
# 6 0.0000 0.0000 0.0000 0.0000 0.0000 30.6589
#
#
#
# Elastic Compliance Matrix: (Units=1/GPa)
#
#
# Indices 1 2 3 4 5 6 
#
# 1 0.015110 -0.007976 -0.004396 0.000000 0.000000 0.000000
# 2 -0.007976 0.015110 -0.004396 0.000000 0.000000 0.000000
# 3 -0.004396 -0.004396 0.015605 0.000000 0.000000 0.000000
# 4 0.000000 0.000000 0.000000 0.038614 0.000000 0.000000
# 5 0.000000 0.000000 0.000000 0.000000 0.038614 0.000000
# 6 0.000000 0.000000 0.000000 0.000000 0.000000 0.032617
#
#
# Mechanical properties :
#
#
# Convention : Reuss Voigt Hill
#
# Bulk Modulus (GPa) = 81.37403 85.50612 83.44008
# Shear Modulus (GPa) = 25.86631 26.45883 26.16257
#
# Velocity S-wave (km/s) = 3.78426 3.82736 3.80587
# Velocity P-wave (km/s) = 8.00912 8.17748 8.09374
#
# Compressibility (1/GPa) = 0.01228893
#
# Stress axis : x y z
#
# Youngs Moduli (GPa) = 66.18173 66.18173 64.08100
#
# Poissons Ratio (x) = 0.52786 0.28171
# Poissons Ratio (y) = 0.52786 0.28171
# Poissons Ratio (z) = 0.29094 0.29094
#
# Static dielectric constant tensor:
#      x y z
#    x 3.530740 0.000000 0.000000 
#    y 0.000000 3.530740 0.000000 
#    z 0.000000 0.000000 3.235600 
# 
# 
# High freq. dielectric constant tensor:
#      x y z
#    x 1.708460 0.000000 0.000000 
#    y 0.000000 1.708460 0.000000 
#    z 0.000000 0.000000 1.686900 
# 
# From -- ./inp_files/9415.got.cif
#   From: 2010.03.12/outbox.cif.g09.slc.cpg/sg122_5_cif.got.tgz:9415.got - 2010.04.06 16:17:16.
