data_PCOD8311503
_publ_section_title
;
Structure prediction by ZEFSAII (Michael W. Deem and Ramdas Pophale) SiO2 
 PCOD8311503
Probable space group: I -4 2 M
;
_chemical_formula_sum "Si O2"
_cell_formula_units_Z 96
_cell_length_a 21.442818
_cell_length_b 21.442818
_cell_length_c 12.660192
_cell_angle_alpha 90.000000
_cell_angle_beta 90.000000
_cell_angle_gamma 90.000000
_cell_volume 5821.085939
_symmetry_space_group_name_H-M "I -4 2 M"
_symmetry_group_IT_number 121
_symmetry_cell_setting 'tetragonal'
loop_
_space_group_symop_operation_xyz
x,y,z
y,-x,-z
-x,-y,z
-y,x,-z
x,-y,-z
-x,y,-z
-y,-x,z
y,x,z
1/2+x,1/2+y,1/2+z
1/2+y,1/2-x,1/2-z
1/2-x,1/2-y,1/2+z
1/2-y,1/2+x,1/2-z
1/2+x,1/2-y,1/2-z
1/2-x,1/2+y,1/2-z
1/2-y,1/2-x,1/2+z
1/2+y,1/2+x,1/2+z
loop_
_atom_site_type_symbol
_atom_site_label
_atom_site_fract_x
_atom_site_fract_y
_atom_site_fract_z
Si Si1 0.761277 0.655631 0.921424
Si Si2 0.119097 0.979143 0.384217
Si Si3 0.931020 0.825830 0.030445
Si Si4 0.880022 0.777701 0.635759
Si Si5 0.585790 0.684943 0.763734
Si Si6 0.857696 0.752740 0.863150
O O1 0.705252 0.705252 0.922865
O O2 0.743855 0.598677 0.841210
O O3 0.826636 0.686356 0.889274
O O4 0.770998 0.628488 0.039745
O O5 0.062373 0.937628 0.335155
O O6 0.181036 0.938804 0.395185
O O7 0.098075 0.000000 0.500000
O O8 0.134436 0.037187 0.309868
O O9 0.886107 0.886107 0.027397
O O10 0.934828 0.794227 0.146664
O O11 0.908622 0.771819 0.950368
O O12 0.000000 0.848819 0.000000
O O13 0.817917 0.817917 0.646603
O O14 0.891045 0.744851 0.748973
O O15 0.651812 0.651812 0.749972
O O16 0.805599 0.805599 0.860708
#
# Coordination Sequence:
#
# PCOD8311503 Si02
#       6
#    16  16  16  16  16  16
#     4   9  17  29  45  67  90 112 150 200 249 288
#     4  11  20  31  45  64  93 127 167 207 244 281
#     4  10  21  35  49  67  94 129 171 203 235 283
#     4   9  17  29  45  64  87 114 148 192 238 282
#     4  10  20  32  45  64  91 124 162 208 247 281
#     4   9  18  30  48  68  87 118 156 195 240 293
#
# _framework density 16.491769000000001
#
# number of rings (size 3 to 8) (size 9 to 14) (size 15 to 20)
#    0.000    2.333    1.667    1.500    2.333    3.333 
#    0.000    1.667    0.000    0.000    0.000    0.000 
#    0.000    0.000    0.000    3.000    6.000    0.333 
#
# Total GULP energy -594913.825726 kJ/mol
# GULP energy per Si atom -12394.038036 kJ/mol
# Density = 1.645423 g / cm^3
# Si number density = 16.491769 Si / 1000 Ang^3
#
#
#
# Elastic Constant Matrix: (Units=GPa)
#
#
# Indices 1 2 3 4 5 6 
#
# 1 43.1884 39.5350 36.9028 0.0000 0.0000 0.0000
# 2 39.5350 43.1879 36.9021 0.0000 0.0000 0.0000
# 3 36.9028 36.9021 153.4144 0.0000 0.0000 0.0000
# 4 0.0000 0.0000 0.0000 14.2948 0.0000 0.0000
# 5 0.0000 0.0000 0.0000 0.0000 14.2941 0.0000
# 6 0.0000 0.0000 0.0000 0.0000 0.0000 17.7624
#
#
#
# Elastic Compliance Matrix: (Units=1/GPa)
#
#
# Indices 1 2 3 4 5 6 
#
# 1 0.144564 -0.129173 -0.003703 0.000000 0.000000 0.000000
# 2 -0.129173 0.144565 -0.003702 0.000000 0.000000 0.000000
# 3 -0.003703 -0.003702 0.008299 0.000000 0.000000 0.000000
# 4 0.000000 0.000000 0.000000 0.069955 0.000000 0.000000
# 5 0.000000 0.000000 0.000000 0.000000 0.069959 0.000000
# 6 0.000000 0.000000 0.000000 0.000000 0.000000 0.056299
#
#
# Mechanical properties :
#
#
# Convention : Reuss Voigt Hill
#
# Bulk Modulus (GPa) = 41.19724 51.83007 46.51366
# Shear Modulus (GPa) = 6.45254 17.70031 12.07643
#
# Velocity S-wave (km/s) = 1.98017 3.27965 2.70898
# Velocity P-wave (km/s) = 5.50117 6.77034 6.16848
#
# Compressibility (1/GPa) = 0.02427347
#
# Stress axis : x y z
#
# Youngs Moduli (GPa) = 6.91735 6.91730 120.49036
#
# Poissons Ratio (x) = 0.89353 0.44615
# Poissons Ratio (y) = 0.89353 0.44604
# Poissons Ratio (z) = 0.02561 0.02561
#
# Static dielectric constant tensor:
#      x y z
#    x 2.852050 0.000000 0.000000 
#    y 0.000000 2.852050 0.000000 
#    z 0.000000 0.000000 3.514490 
# 
# 
# High freq. dielectric constant tensor:
#      x y z
#    x 1.592540 0.000000 0.000000 
#    y 0.000000 1.592540 0.000000 
#    z 0.000000 0.000000 1.658900 
# 
# From -- ./inp_files/3284.got.cif
#   From: 2010.03.12/outbox.cif.g09.slc.cpg/sg121_2_cif.got.tgz:3284.got - 2010.04.06 16:06:48.
