data_PCOD8311759
_publ_section_title
;
Structure prediction by ZEFSAII (Michael W. Deem and Ramdas Pophale) SiO2 
 PCOD8311759
Probable space group: I -4 2 D
;
_chemical_formula_sum "Si O2"
_cell_formula_units_Z 88
_cell_length_a 18.536586
_cell_length_b 18.536586
_cell_length_c 12.167277
_cell_angle_alpha 90.000000
_cell_angle_beta 90.000000
_cell_angle_gamma 90.000000
_cell_volume 4180.737463
_symmetry_space_group_name_H-M "I -4 2 D"
_symmetry_group_IT_number 122
_symmetry_cell_setting 'tetragonal'
loop_
_space_group_symop_operation_xyz
x,y,z
y,-x,-z
-x,-y,z
-y,x,-z
x,1/2-y,1/4-z
-x,1/2+y,1/4-z
-y,1/2-x,1/4+z
y,1/2+x,1/4+z
1/2+x,1/2+y,1/2+z
1/2+y,1/2-x,1/2-z
1/2-x,1/2-y,1/2+z
1/2-y,1/2+x,1/2-z
1/2+x,-y,3/4-z
1/2-x,y,3/4-z
1/2-y,-x,3/4+z
1/2+y,x,3/4+z
loop_
_atom_site_type_symbol
_atom_site_label
_atom_site_fract_x
_atom_site_fract_y
_atom_site_fract_z
Si Si1 0.351696 0.035344 0.543512
Si Si2 0.250000 0.546193 0.375000
Si Si3 0.000000 0.000000 0.152612
Si Si4 0.361585 0.439693 0.459618
Si Si5 0.815372 0.164292 0.728188
Si Si6 0.622431 0.699026 0.311008
Si Si7 0.786131 0.750000 0.625000
O O1 0.359446 0.076558 0.661130
O O2 0.327198 0.097828 0.458245
O O3 0.432977 0.010724 0.514784
O O4 0.300551 0.964463 0.542782
O O5 0.296236 0.494869 0.451407
O O6 0.197980 0.594008 0.448877
O O7 0.982554 0.067176 0.073508
O O8 0.352557 0.366062 0.390776
O O9 0.773757 0.150749 0.614162
O O10 0.791813 0.237340 0.787774
O O11 0.662643 0.694113 0.193085
#
# Coordination Sequence:
#
# PCOD8311759 Si02
#       7
#    16   8   8  16  16  16   8
#     4  11  21  38  63  94 130 170 213 274 338 399
#     4  11  20  32  60  97 132 158 212 265 340 392
#     4  10  19  32  52  90 131 158 203 264 336 394
#     4  11  20  33  61  93 131 167 209 278 333 397
#     4  11  23  41  63  96 126 170 217 271 326 398
#     4  11  25  43  64  94 133 173 223 275 339 404
#     4  11  26  44  62  93 132 170 222 271 328 406
#
# _framework density 21.048918
#
# number of rings (size 3 to 8) (size 9 to 14) (size 15 to 20)
#    0.000    1.091    3.636    5.455    5.091    0.000 
#    3.273    0.000    0.000    0.000    0.000    1.273 
#    0.000    0.000    0.000    0.000    0.000    0.000 
#
# Total GULP energy -545270.406460 kJ/mol
# GULP energy per Si atom -12392.509238 kJ/mol
# Density = 2.100101 g / cm^3
# Si number density = 21.048918 Si / 1000 Ang^3
#
#
#
# Elastic Constant Matrix: (Units=GPa)
#
#
# Indices 1 2 3 4 5 6 
#
# 1 125.2900 55.4568 39.0022 0.0000 0.0000 0.0000
# 2 55.4568 125.2900 39.0022 0.0000 0.0000 0.0000
# 3 39.0022 39.0022 42.0664 0.0000 0.0000 0.0000
# 4 0.0000 0.0000 0.0000 29.8653 0.0000 0.0000
# 5 0.0000 0.0000 0.0000 0.0000 29.8653 0.0000
# 6 0.0000 0.0000 0.0000 0.0000 0.0000 22.2570
#
#
#
# Elastic Compliance Matrix: (Units=1/GPa)
#
#
# Indices 1 2 3 4 5 6 
#
# 1 0.011771 -0.002548 -0.008551 0.000000 0.000000 0.000000
# 2 -0.002548 0.011771 -0.008551 0.000000 0.000000 0.000000
# 3 -0.008551 -0.008551 0.039629 0.000000 0.000000 0.000000
# 4 0.000000 0.000000 0.000000 0.033484 0.000000 0.000000
# 5 0.000000 0.000000 0.000000 0.000000 0.033484 0.000000
# 6 0.000000 0.000000 0.000000 0.000000 0.000000 0.044930
#
#
# Mechanical properties :
#
#
# Convention : Reuss Voigt Hill
#
# Bulk Modulus (GPa) = 41.89390 62.17430 52.03410
# Shear Modulus (GPa) = 22.48943 27.00986 24.74965
#
# Velocity S-wave (km/s) = 3.27224 3.58606 3.43274
# Velocity P-wave (km/s) = 5.85005 6.83729 6.36285
#
# Compressibility (1/GPa) = 0.02386983
#
# Stress axis : x y z
#
# Youngs Moduli (GPa) = 84.95149 84.95149 25.23434
#
# Poissons Ratio (x) = 0.21649 0.21578
# Poissons Ratio (y) = 0.21649 0.21578
# Poissons Ratio (z) = 0.72644 0.72644
#
# Static dielectric constant tensor:
#      x y z
#    x 3.801400 0.000000 0.000000 
#    y 0.000000 3.801400 0.000000 
#    z 0.000000 0.000000 3.488040 
# 
# 
# High freq. dielectric constant tensor:
#      x y z
#    x 1.833770 0.000000 0.000000 
#    y 0.000000 1.833770 0.000000 
#    z 0.000000 0.000000 1.779800 
# 
# From -- ./inp_files/5412.got.cif
#   From: 2010.03.12/outbox.cif.g09.slc.cpg/sg122_3_cif.got.tgz:5412.got - 2010.04.06 16:17:16.
