data_PCOD8311272
_publ_section_title
;
Structure prediction by ZEFSAII (Michael W. Deem and Ramdas Pophale) SiO2 
 PCOD8311272
Probable space group: I -4 C 2
;
_chemical_formula_sum "Si O2"
_cell_formula_units_Z 96
_cell_length_a 22.556340
_cell_length_b 22.556340
_cell_length_c 8.979863
_cell_angle_alpha 90.000000
_cell_angle_beta 90.000000
_cell_angle_gamma 90.000000
_cell_volume 4568.850794
_symmetry_space_group_name_H-M "I -4 C 2"
_symmetry_group_IT_number 120
_symmetry_cell_setting 'tetragonal'
loop_
_space_group_symop_operation_xyz
x,y,z
y,-x,-z
-x,-y,z
-y,x,-z
y,x,1/2-z
-y,-x,1/2-z
-x,y,1/2+z
x,-y,1/2+z
1/2+x,1/2+y,1/2+z
1/2+y,1/2-x,1/2-z
1/2-x,1/2-y,1/2+z
1/2-y,1/2+x,1/2-z
1/2+y,1/2+x,-z
1/2-y,1/2-x,-z
1/2-x,1/2+y,z
1/2+x,1/2-y,z
loop_
_atom_site_type_symbol
_atom_site_label
_atom_site_fract_x
_atom_site_fract_y
_atom_site_fract_z
Si Si1 0.994418 0.591846 0.792918
Si Si2 0.827444 0.492417 0.956990
Si Si3 0.153407 0.150480 0.422598
Si Si4 0.874283 0.715493 0.424023
Si Si5 0.621734 0.212198 0.075941
Si Si6 0.436379 0.562071 0.929211
O O1 0.937586 0.549956 0.790991
O O2 0.981647 0.655318 0.714864
O O3 0.011148 0.608291 0.961016
O O4 0.798309 0.555953 0.985780
O O5 0.784253 0.440862 0.011948
O O6 0.137694 0.137694 0.250000
O O7 0.149846 0.219721 0.458866
O O8 0.220115 0.134254 0.464337
O O9 0.109372 0.113700 0.527596
O O10 0.833538 0.666463 0.500000
O O11 0.875203 0.700307 0.250834
O O12 0.669034 0.169034 0.000000
O O13 0.442126 0.557875 0.750000
O O14 0.498513 0.582243 0.002635
#
# Coordination Sequence:
#
# PCOD8311272 Si02
#       6
#    16  16  16  16  16  16
#     4  11  22  38  60  88 126 168 215 268 326 384
#     4  12  24  39  62  92 125 170 222 270 330 388
#     4  10  24  46  69 101 137 171 220 274 335 402
#     4  11  25  44  68  95 132 175 222 278 335 397
#     4  11  25  44  68  95 132 175 222 278 335 397
#     4  11  23  43  72 103 137 177 215 269 336 403
#
# _framework density 21.011848000000001
#
# number of rings (size 3 to 8) (size 9 to 14) (size 15 to 20)
#    0.000    1.000    1.667    5.500    4.667    2.667 
#    0.000    0.000    0.000    0.000    0.000    0.000 
#    0.000    0.000    0.000    0.000    0.000    0.000 
#
# Total GULP energy -595304.074505 kJ/mol
# GULP energy per Si atom -12402.168219 kJ/mol
# Density = 2.096402 g / cm^3
# Si number density = 21.011848 Si / 1000 Ang^3
#
#
#
# Elastic Constant Matrix: (Units=GPa)
#
#
# Indices 1 2 3 4 5 6 
#
# 1 106.2032 48.8928 39.1176 0.0000 0.0000 0.0000
# 2 48.8928 106.2031 39.1191 0.0000 0.0000 0.0000
# 3 39.1176 39.1191 94.9740 0.0000 0.0000 0.0000
# 4 0.0000 0.0000 0.0000 28.0122 0.0000 0.0000
# 5 0.0000 0.0000 0.0000 0.0000 28.0116 0.0000
# 6 0.0000 0.0000 0.0000 0.0000 0.0000 33.8170
#
#
#
# Elastic Compliance Matrix: (Units=1/GPa)
#
#
# Indices 1 2 3 4 5 6 
#
# 1 0.012794 -0.004655 -0.003352 0.000000 0.000000 0.000000
# 2 -0.004655 0.012794 -0.003352 0.000000 0.000000 0.000000
# 3 -0.003352 -0.003352 0.013291 0.000000 0.000000 0.000000
# 4 0.000000 0.000000 0.000000 0.035699 0.000000 0.000000
# 5 0.000000 0.000000 0.000000 0.000000 0.035700 0.000000
# 6 0.000000 0.000000 0.000000 0.000000 0.000000 0.029571
#
#
# Mechanical properties :
#
#
# Convention : Reuss Voigt Hill
#
# Bulk Modulus (GPa) = 61.88449 62.40437 62.14443
# Shear Modulus (GPa) = 29.77031 29.98486 29.87759
#
# Velocity S-wave (km/s) = 3.76817 3.78172 3.77495
# Velocity P-wave (km/s) = 6.96048 6.98804 6.97427
#
# Compressibility (1/GPa) = 0.01615914
#
# Stress axis : x y z
#
# Youngs Moduli (GPa) = 78.16390 78.16276 75.24107
#
# Poissons Ratio (x) = 0.36386 0.25221
# Poissons Ratio (y) = 0.36386 0.25223
# Poissons Ratio (z) = 0.26200 0.26203
#
# Static dielectric constant tensor:
#      x y z
#    x 3.820270 0.000000 0.000000 
#    y 0.000000 3.820260 0.000000 
#    z 0.000000 0.000000 3.854920 
# 
# 
# High freq. dielectric constant tensor:
#      x y z
#    x 1.828060 0.000000 0.000000 
#    y 0.000000 1.828060 0.000000 
#    z 0.000000 0.000000 1.835390 
# 
# From -- ./inp_files/1519.got.cif
#   From: 2010.03.12/outbox.cif.g09.slc.cpg/sg120_1_cif.got.tgz:1519.got - 2010.04.06 16:00:44.
