data_PCOD8311349
_publ_section_title
;
Structure prediction by ZEFSAII (Michael W. Deem and Ramdas Pophale) SiO2 
 PCOD8311349
Probable space group: I -4 2 M
;
_chemical_formula_sum "Si O2"
_cell_formula_units_Z 64
_cell_length_a 24.577166
_cell_length_b 24.577166
_cell_length_c 5.018871
_cell_angle_alpha 90.000000
_cell_angle_beta 90.000000
_cell_angle_gamma 90.000000
_cell_volume 3031.584227
_symmetry_space_group_name_H-M "I -4 2 M"
_symmetry_group_IT_number 121
_symmetry_cell_setting 'tetragonal'
loop_
_space_group_symop_operation_xyz
x,y,z
y,-x,-z
-x,-y,z
-y,x,-z
x,-y,-z
-x,y,-z
-y,-x,z
y,x,z
1/2+x,1/2+y,1/2+z
1/2+y,1/2-x,1/2-z
1/2-x,1/2-y,1/2+z
1/2-y,1/2+x,1/2-z
1/2+x,1/2-y,1/2-z
1/2-x,1/2+y,1/2-z
1/2-y,1/2-x,1/2+z
1/2+y,1/2+x,1/2+z
loop_
_atom_site_type_symbol
_atom_site_label
_atom_site_fract_x
_atom_site_fract_y
_atom_site_fract_z
Si Si1 0.562131 0.889668 0.972159
Si Si2 0.646209 0.353792 0.573551
Si Si3 0.804110 0.195891 0.572592
Si Si4 0.776710 0.386800 0.953856
Si Si5 0.275530 0.563049 0.452980
O O1 0.567392 0.921975 0.698015
O O2 0.500000 0.868811 0.000000
O O3 0.604744 0.839853 0.982453
O O4 0.657881 0.342120 0.883341
O O5 0.662419 0.416105 0.507005
O O6 0.684404 0.315597 0.383050
O O7 0.741870 0.177029 0.500232
O O8 0.765498 0.405418 0.651714
O O9 0.741254 0.424488 0.151251
O O10 0.271946 0.500000 0.500000
#
# Coordination Sequence:
#
# PCOD8311349 Si02
#       5
#    16   8   8  16  16
#     4  12  26  43  62  84 111 145 189 236 279 324
#     4   8  16  26  42  72 104 138 176 213 260 321
#     4   8  16  32  54  79 112 139 164 209 270 334
#     4  10  20  36  57  84 110 138 175 221 275 331
#     4  10  17  29  51  76 105 139 177 222 269 320
#
# _framework density 21.111076000000001
#
# number of rings (size 3 to 8) (size 9 to 14) (size 15 to 20)
#    0.000    2.000    0.000    4.500    0.000    1.500 
#    0.000    1.250    0.000    0.375    0.000    0.000 
#    0.000   12.000    0.000    0.000    0.000    2.000 
#
# Total GULP energy -396548.621904 kJ/mol
# GULP energy per Si atom -12392.144434 kJ/mol
# Density = 2.106303 g / cm^3
# Si number density = 21.111076 Si / 1000 Ang^3
#
#
#
# Elastic Constant Matrix: (Units=GPa)
#
#
# Indices 1 2 3 4 5 6 
#
# 1 54.5641 45.9699 7.0203 0.0000 0.0000 0.0000
# 2 45.9699 54.5655 7.0199 0.0000 0.0000 0.0000
# 3 7.0203 7.0199 83.8911 0.0000 0.0000 0.0000
# 4 0.0000 0.0000 0.0000 23.6012 0.0000 0.0000
# 5 0.0000 0.0000 0.0000 0.0000 23.6006 0.0000
# 6 0.0000 0.0000 0.0000 0.0000 0.0000 21.4100
#
#
#
# Elastic Compliance Matrix: (Units=1/GPa)
#
#
# Indices 1 2 3 4 5 6 
#
# 1 0.063208 -0.053142 -0.000843 0.000000 0.000000 0.000000
# 2 -0.053142 0.063206 -0.000842 0.000000 0.000000 0.000000
# 3 -0.000843 -0.000842 0.012061 0.000000 0.000000 0.000000
# 4 0.000000 0.000000 0.000000 0.042371 0.000000 0.000000
# 5 0.000000 0.000000 0.000000 0.000000 0.042372 0.000000
# 6 0.000000 0.000000 0.000000 0.000000 0.000000 0.046707
#
#
# Mechanical properties :
#
#
# Convention : Reuss Voigt Hill
#
# Bulk Modulus (GPa) = 34.69665 34.78232 34.73949
# Shear Modulus (GPa) = 12.84738 22.58974 17.71856
#
# Velocity S-wave (km/s) = 2.46958 3.27470 2.90021
# Velocity P-wave (km/s) = 4.96011 5.55066 5.26368
#
# Compressibility (1/GPa) = 0.02882122
#
# Stress axis : x y z
#
# Youngs Moduli (GPa) = 15.82089 15.82134 82.91073
#
# Poissons Ratio (x) = 0.84078 0.06986
# Poissons Ratio (y) = 0.84076 0.06980
# Poissons Ratio (z) = 0.01333 0.01332
#
# Static dielectric constant tensor:
#      x y z
#    x 3.753940 0.000000 0.000000 
#    y 0.000000 3.753920 0.000000 
#    z 0.000000 0.000000 4.094370 
# 
# 
# High freq. dielectric constant tensor:
#      x y z
#    x 1.802420 0.000000 0.000000 
#    y 0.000000 1.802420 0.000000 
#    z 0.000000 0.000000 1.857450 
# 
# From -- ./inp_files/477.got.cif
#   From: 2010.03.12/outbox.cif.g09.slc.cpg/sg121_1_cif.got.tgz:477.got - 2010.04.06 16:06:48.
