data_PCOD8311113
_publ_section_title
;
Structure prediction by ZEFSAII (Michael W. Deem and Ramdas Pophale) SiO2 
 PCOD8311113
Probable space group: I -4 C 2
;
_chemical_formula_sum "Si O2"
_cell_formula_units_Z 112
_cell_length_a 14.794398
_cell_length_b 14.794398
_cell_length_c 29.142003
_cell_angle_alpha 90.000000
_cell_angle_beta 90.000000
_cell_angle_gamma 90.000000
_cell_volume 6378.432948
_symmetry_space_group_name_H-M "I -4 C 2"
_symmetry_group_IT_number 120
_symmetry_cell_setting 'tetragonal'
loop_
_space_group_symop_operation_xyz
x,y,z
y,-x,-z
-x,-y,z
-y,x,-z
y,x,1/2-z
-y,-x,1/2-z
-x,y,1/2+z
x,-y,1/2+z
1/2+x,1/2+y,1/2+z
1/2+y,1/2-x,1/2-z
1/2-x,1/2-y,1/2+z
1/2-y,1/2+x,1/2-z
1/2+y,1/2+x,-z
1/2-y,1/2-x,-z
1/2-x,1/2+y,z
1/2+x,1/2-y,z
loop_
_atom_site_type_symbol
_atom_site_label
_atom_site_fract_x
_atom_site_fract_y
_atom_site_fract_z
Si Si1 0.091885 0.967366 0.851162
Si Si2 0.132134 0.161806 0.593771
Si Si3 0.283554 0.638565 0.294185
Si Si4 0.109512 0.594638 0.242243
Si Si5 0.810139 0.665814 0.650548
Si Si6 0.972946 0.792363 0.403094
Si Si7 0.633160 0.560266 0.501070
O O1 0.174459 0.952932 0.815703
O O2 0.070034 0.875697 0.876823
O O3 0.119649 0.039669 0.888593
O O4 0.000000 0.000000 0.825245
O O5 0.150122 0.256066 0.618496
O O6 0.116794 0.180712 0.539773
O O7 0.208922 0.083170 0.601198
O O8 0.344066 0.655935 0.250000
O O9 0.179646 0.628983 0.280256
O O10 0.290851 0.719080 0.330126
O O11 0.121097 0.487162 0.237238
O O12 0.123463 0.640631 0.192560
O O13 0.794989 0.574375 0.620415
O O14 0.943304 0.798036 0.456239
O O15 0.610492 0.458988 0.484207
#
# Coordination Sequence:
#
# PCOD8311113 Si02
#       7
#    16  16  16  16  16  16  16
#     4   9  16  30  49  73 101 130 169 211 265 318
#     4  10  18  29  52  76 101 142 172 212 268 314
#     4   9  19  34  49  70 104 131 163 221 271 316
#     4  10  21  37  56  72  95 138 186 225 262 321
#     4  10  21  33  50  78 105 135 173 222 275 313
#     4   9  18  31  48  76 108 135 169 219 255 325
#     4   9  15  28  50  76 105 137 171 205 263 326
#
# _framework density 17.559170999999999
#
# number of rings (size 3 to 8) (size 9 to 14) (size 15 to 20)
#    0.000    2.571    1.429    0.857    2.000    0.857 
#    0.000    0.000    0.000    0.000    0.000    0.000 
#    0.000    4.571    0.000    0.000    0.000    0.000 
#
# Total GULP energy -693961.236238 kJ/mol
# GULP energy per Si atom -12392.164933 kJ/mol
# Density = 1.751921 g / cm^3
# Si number density = 17.559171 Si / 1000 Ang^3
#
#
#
# Elastic Constant Matrix: (Units=GPa)
#
#
# Indices 1 2 3 4 5 6 
#
# 1 62.7061 29.7505 35.3204 0.0000 0.0000 0.0000
# 2 29.7505 62.7072 35.3205 0.0000 0.0000 0.0000
# 3 35.3204 35.3205 87.2748 0.0000 0.0000 0.0000
# 4 0.0000 0.0000 0.0000 21.7384 0.0000 0.0000
# 5 0.0000 0.0000 0.0000 0.0000 21.7390 0.0000
# 6 0.0000 0.0000 0.0000 0.0000 0.0000 19.9014
#
#
#
# Elastic Compliance Matrix: (Units=1/GPa)
#
#
# Indices 1 2 3 4 5 6 
#
# 1 0.023001 -0.007343 -0.006337 0.000000 0.000000 0.000000
# 2 -0.007343 0.023000 -0.006336 0.000000 0.000000 0.000000
# 3 -0.006337 -0.006336 0.016587 0.000000 0.000000 0.000000
# 4 0.000000 0.000000 0.000000 0.046002 0.000000 0.000000
# 5 0.000000 0.000000 0.000000 0.000000 0.046000 0.000000
# 6 0.000000 0.000000 0.000000 0.000000 0.000000 0.050248
#
#
# Mechanical properties :
#
#
# Convention : Reuss Voigt Hill
#
# Bulk Modulus (GPa) = 44.33575 45.94121 45.13848
# Shear Modulus (GPa) = 19.81079 20.16219 19.98649
#
# Velocity S-wave (km/s) = 3.36256 3.39225 3.37744
# Velocity P-wave (km/s) = 6.35452 6.44698 6.40092
#
# Compressibility (1/GPa) = 0.02255516
#
# Stress axis : x y z
#
# Youngs Moduli (GPa) = 43.47729 43.47819 60.28858
#
# Poissons Ratio (x) = 0.31926 0.38202
# Poissons Ratio (y) = 0.31926 0.38202
# Poissons Ratio (z) = 0.27550 0.27550
#
# Static dielectric constant tensor:
#      x y z
#    x 3.280650 0.000000 0.000000 
#    y 0.000000 3.280670 0.000000 
#    z 0.000000 0.000000 3.386660 
# 
# 
# High freq. dielectric constant tensor:
#      x y z
#    x 1.661980 0.000000 0.000000 
#    y 0.000000 1.661980 0.000000 
#    z 0.000000 0.000000 1.682010 
# 
# From -- ./inp_files/5916.got.cif
#   From: 2010.03.12/outbox.cif.g09.slc.cpg/sg120_3_cif.got.tgz:5916.got - 2010.04.06 16:00:44.
