data_PCOD8311979
_publ_section_title
;
Structure prediction by ZEFSAII (Michael W. Deem and Ramdas Pophale) SiO2 
 PCOD8311979
Probable space group: I -4 2 D
;
_chemical_formula_sum "Si O2"
_cell_formula_units_Z 40
_cell_length_a 11.767107
_cell_length_b 11.767107
_cell_length_c 12.446763
_cell_angle_alpha 90.000000
_cell_angle_beta 90.000000
_cell_angle_gamma 90.000000
_cell_volume 1723.438638
_symmetry_space_group_name_H-M "I -4 2 D"
_symmetry_group_IT_number 122
_symmetry_cell_setting 'tetragonal'
loop_
_space_group_symop_operation_xyz
x,y,z
y,-x,-z
-x,-y,z
-y,x,-z
x,1/2-y,1/4-z
-x,1/2+y,1/4-z
-y,1/2-x,1/4+z
y,1/2+x,1/4+z
1/2+x,1/2+y,1/2+z
1/2+y,1/2-x,1/2-z
1/2-x,1/2-y,1/2+z
1/2-y,1/2+x,1/2-z
1/2+x,-y,3/4-z
1/2-x,y,3/4-z
1/2-y,-x,3/4+z
1/2+y,x,3/4+z
loop_
_atom_site_type_symbol
_atom_site_label
_atom_site_fract_x
_atom_site_fract_y
_atom_site_fract_z
Si Si1 0.021628 0.250000 0.625000
Si Si2 0.697433 0.371108 0.091775
Si Si3 0.815436 0.499261 0.264799
O O1 0.102984 0.257326 0.522098
O O2 0.940126 0.141525 0.597548
O O3 0.753419 0.250000 0.125000
O O4 0.724233 0.474058 0.172138
O O5 0.894557 0.388319 0.276052
O O6 0.750000 0.523297 0.375000
#
# Coordination Sequence:
#
# PCOD8311979 Si02
#       3
#     8  16  16
#     4  10  24  44  72 102 140 196 238 310 366 442
#     4  10  24  43  71 102 145 187 248 304 369 445
#     4  11  24  43  70 105 143 190 240 302 376 439
#
# _framework density 23.209416000000001
#
# number of rings (size 3 to 8) (size 9 to 14) (size 15 to 20)
#    1.200    0.400    0.000    3.600    2.800    4.000 
#    0.000    0.000    0.000    0.000    0.000    0.000 
#    0.000    0.000    0.000    0.000    0.000    0.000 
#
# Total GULP energy -247829.314537 kJ/mol
# GULP energy per Si atom -12391.465727 kJ/mol
# Density = 2.315659 g / cm^3
# Si number density = 23.209416 Si / 1000 Ang^3
#
#
#
# Elastic Constant Matrix: (Units=GPa)
#
#
# Indices 1 2 3 4 5 6 
#
# 1 92.0088 12.6155 38.3557 0.0000 0.0000 0.0000
# 2 12.6155 92.0088 38.3557 0.0000 0.0000 0.0000
# 3 38.3557 38.3557 181.1385 0.0000 0.0000 0.0000
# 4 0.0000 0.0000 0.0000 30.0200 0.0000 0.0000
# 5 0.0000 0.0000 0.0000 0.0000 30.0200 0.0000
# 6 0.0000 0.0000 0.0000 0.0000 0.0000 33.6257
#
#
#
# Elastic Compliance Matrix: (Units=1/GPa)
#
#
# Indices 1 2 3 4 5 6 
#
# 1 0.011955 -0.000640 -0.002396 0.000000 0.000000 0.000000
# 2 -0.000640 0.011955 -0.002396 0.000000 0.000000 0.000000
# 3 -0.002396 -0.002396 0.006535 0.000000 0.000000 0.000000
# 4 0.000000 0.000000 0.000000 0.033311 0.000000 0.000000
# 5 0.000000 0.000000 0.000000 0.000000 0.033311 0.000000
# 6 0.000000 0.000000 0.000000 0.000000 0.000000 0.029739
#
#
# Mechanical properties :
#
#
# Convention : Reuss Voigt Hill
#
# Bulk Modulus (GPa) = 51.06946 60.42332 55.74639
# Shear Modulus (GPa) = 34.67452 37.12178 35.89815
#
# Velocity S-wave (km/s) = 3.86940 4.00362 3.93709
# Velocity P-wave (km/s) = 6.48187 6.88930 6.68869
#
# Compressibility (1/GPa) = 0.01958118
#
# Stress axis : x y z
#
# Youngs Moduli (GPa) = 83.64639 83.64638 153.01591
#
# Poissons Ratio (x) = 0.05357 0.36660
# Poissons Ratio (y) = 0.05357 0.36660
# Poissons Ratio (z) = 0.20040 0.20040
#
# Static dielectric constant tensor:
#      x y z
#    x 4.077890 0.000000 0.000000 
#    y 0.000000 4.077890 0.000000 
#    z 0.000000 0.000000 4.095570 
# 
# 
# High freq. dielectric constant tensor:
#      x y z
#    x 1.918330 0.000000 0.000000 
#    y 0.000000 1.918330 0.000000 
#    z 0.000000 0.000000 1.915520 
# 
# From -- ./inp_files/3699.got.cif
#   From: 2010.03.12/outbox.cif.g09.slc.cpg/sg122_2_cif.got.tgz:3699.got - 2010.04.06 16:17:16.
