data_PCOD8311030
_publ_section_title
;
Structure prediction by ZEFSAII (Michael W. Deem and Ramdas Pophale) SiO2 
 PCOD8311030
Probable space group: I -4 M 2
;
_chemical_formula_sum "Si O2"
_cell_formula_units_Z 96
_cell_length_a 14.956144
_cell_length_b 14.956144
_cell_length_c 21.380904
_cell_angle_alpha 90.000000
_cell_angle_beta 90.000000
_cell_angle_gamma 90.000000
_cell_volume 4782.614095
_symmetry_space_group_name_H-M "I -4 M 2"
_symmetry_group_IT_number 119
_symmetry_cell_setting 'tetragonal'
loop_
_space_group_symop_operation_xyz
x,y,z
y,-x,-z
-x,-y,z
-y,x,-z
y,x,-z
-y,-x,-z
-x,y,z
x,-y,z
1/2+x,1/2+y,1/2+z
1/2+y,1/2-x,1/2-z
1/2-x,1/2-y,1/2+z
1/2-y,1/2+x,1/2-z
1/2+y,1/2+x,1/2-z
1/2-y,1/2-x,1/2-z
1/2-x,1/2+y,1/2+z
1/2+x,1/2-y,1/2+z
loop_
_atom_site_type_symbol
_atom_site_label
_atom_site_fract_x
_atom_site_fract_y
_atom_site_fract_z
Si Si1 0.649440 0.774681 0.648462
Si Si2 0.229493 0.855042 0.324929
Si Si3 0.904365 0.595636 0.250000
Si Si4 0.899847 0.898045 0.790117
Si Si5 0.102105 0.397896 0.750000
Si Si6 0.898791 0.398373 0.034382
Si Si7 0.273727 0.597455 0.963316
O O1 0.752076 0.788210 0.663578
O O2 0.594295 0.824239 0.701596
O O3 0.624603 0.669451 0.653561
O O4 0.624260 0.819884 0.583223
O O5 0.164616 0.887222 0.270104
O O6 0.332425 0.874604 0.307423
O O7 0.207676 0.904021 0.389519
O O8 0.897820 0.500000 0.214168
O O9 0.000000 0.882709 0.816672
O O10 0.887005 0.000000 0.767927
O O11 0.116908 0.500000 0.727476
O O12 0.887806 0.500000 0.061898
O O13 0.000000 0.384320 0.010391
O O14 0.831585 0.384836 0.976155
O O15 0.301521 0.500000 0.989295
O O16 0.329509 0.670492 0.000000
#
# Coordination Sequence:
#
# PCOD8311030 Si02
#       7
#    16  16   8  16   8  16  16
#     4  12  21  36  62  87 122 160 192 240 298 359
#     4  12  23  40  62  88 121 159 199 251 299 348
#     4  11  21  32  52  86 121 151 188 236 294 357
#     4  11  23  38  58  87 124 163 199 238 291 353
#     4  11  23  40  64  90 119 157 200 252 310 357
#     4  10  22  41  65  92 122 155 195 248 304 360
#     4  11  24  42  63  87 121 159 206 250 295 355
#
# _framework density 20.072704999999999
#
# number of rings (size 3 to 8) (size 9 to 14) (size 15 to 20)
#    0.000    0.833    5.000    3.500    0.000    3.500 
#    0.000    1.667    0.000    0.000    0.000    0.000 
#    0.000    0.000    0.000    0.000    0.000    0.000 
#
# Total GULP energy -594968.716372 kJ/mol
# GULP energy per Si atom -12395.181591 kJ/mol
# Density = 2.002702 g / cm^3
# Si number density = 20.072705 Si / 1000 Ang^3
#
#
#
# Elastic Constant Matrix: (Units=GPa)
#
#
# Indices 1 2 3 4 5 6 
#
# 1 129.1966 43.2386 25.3466 0.0000 0.0000 0.0000
# 2 43.2386 129.1942 25.3449 0.0000 0.0000 0.0000
# 3 25.3466 25.3449 66.6548 0.0000 0.0000 0.0000
# 4 0.0000 0.0000 0.0000 17.8155 0.0000 0.0000
# 5 0.0000 0.0000 0.0000 0.0000 17.8134 0.0000
# 6 0.0000 0.0000 0.0000 0.0000 0.0000 30.0614
#
#
#
# Elastic Compliance Matrix: (Units=1/GPa)
#
#
# Indices 1 2 3 4 5 6 
#
# 1 0.009081 -0.002552 -0.002483 0.000000 0.000000 0.000000
# 2 -0.002552 0.009082 -0.002483 0.000000 0.000000 0.000000
# 3 -0.002483 -0.002483 0.016891 0.000000 0.000000 0.000000
# 4 0.000000 0.000000 0.000000 0.056131 0.000000 0.000000
# 5 0.000000 0.000000 0.000000 0.000000 0.056138 0.000000
# 6 0.000000 0.000000 0.000000 0.000000 0.000000 0.033265
#
#
# Mechanical properties :
#
#
# Convention : Reuss Voigt Hill
#
# Bulk Modulus (GPa) = 49.95452 56.98953 53.47203
# Shear Modulus (GPa) = 24.71629 28.54576 26.63102
#
# Velocity S-wave (km/s) = 3.51285 3.77519 3.64638
# Velocity P-wave (km/s) = 6.43384 6.88883 6.66522
#
# Compressibility (1/GPa) = 0.02001821
#
# Stress axis : x y z
#
# Youngs Moduli (GPa) = 110.11491 110.11384 59.20375
#
# Poissons Ratio (x) = 0.28104 0.14700
# Poissons Ratio (y) = 0.28104 0.14698
# Poissons Ratio (z) = 0.27340 0.27337
#
# Static dielectric constant tensor:
#      x y z
#    x 3.972960 0.000000 0.000000 
#    y 0.000000 3.972900 0.000000 
#    z 0.000000 0.000000 3.486360 
# 
# 
# High freq. dielectric constant tensor:
#      x y z
#    x 1.802740 0.000000 0.000000 
#    y 0.000000 1.802740 0.000000 
#    z 0.000000 0.000000 1.743550 
# 
# From -- ./inp_files/7848.got.cif
#   From: 2010.03.12/outbox.cif.g09.slc.cpg/sg119_4_cif.got.tgz:7848.got - 2010.04.14 02:25:26.
