data_PCOD8311729
_publ_section_title
;
Structure prediction by ZEFSAII (Michael W. Deem and Ramdas Pophale) SiO2 
 PCOD8311729
Probable space group: I -4 2 D
;
_chemical_formula_sum "Si O2"
_cell_formula_units_Z 96
_cell_length_a 21.008969
_cell_length_b 21.008969
_cell_length_c 13.668163
_cell_angle_alpha 90.000000
_cell_angle_beta 90.000000
_cell_angle_gamma 90.000000
_cell_volume 6032.809752
_symmetry_space_group_name_H-M "I -4 2 D"
_symmetry_group_IT_number 122
_symmetry_cell_setting 'tetragonal'
loop_
_space_group_symop_operation_xyz
x,y,z
y,-x,-z
-x,-y,z
-y,x,-z
x,1/2-y,1/4-z
-x,1/2+y,1/4-z
-y,1/2-x,1/4+z
y,1/2+x,1/4+z
1/2+x,1/2+y,1/2+z
1/2+y,1/2-x,1/2-z
1/2-x,1/2-y,1/2+z
1/2-y,1/2+x,1/2-z
1/2+x,-y,3/4-z
1/2-x,y,3/4-z
1/2-y,-x,3/4+z
1/2+y,x,3/4+z
loop_
_atom_site_type_symbol
_atom_site_label
_atom_site_fract_x
_atom_site_fract_y
_atom_site_fract_z
Si Si1 0.918118 0.247862 0.241188
Si Si2 0.700387 0.050623 0.967297
Si Si3 0.150928 0.269417 0.325230
Si Si4 0.612535 0.905827 0.773114
Si Si5 0.715922 0.285268 0.774235
Si Si6 0.428369 0.513978 0.361398
O O1 0.902069 0.250000 0.125000
O O2 0.921424 0.320535 0.279648
O O3 0.860064 0.210593 0.292323
O O4 0.983325 0.213783 0.269049
O O5 0.750000 0.057640 0.875000
O O6 0.624066 0.054790 0.949148
O O7 0.710361 0.107554 0.043501
O O8 0.108893 0.331785 0.300039
O O9 0.214390 0.267004 0.260560
O O10 0.164865 0.263522 0.440487
O O11 0.553760 0.933067 0.711321
O O12 0.607063 0.946393 0.873184
O O13 0.750000 0.303356 0.875000
O O14 0.500000 0.500000 0.317499
#
# Coordination Sequence:
#
# PCOD8311729 Si02
#       6
#    16  16  16  16  16  16
#     4  10  17  30  46  71  99 125 165 204 252 314
#     4  11  19  30  48  72 104 141 165 195 257 331
#     4  10  19  31  48  74 102 131 176 210 252 324
#     4  11  16  27  43  67 103 130 155 197 252 311
#     4  10  19  32  50  74 101 133 170 222 264 298
#     4  12  21  27  41  73 111 137 159 198 261 319
#
# _framework density 15.912983000000001
#
# number of rings (size 3 to 8) (size 9 to 14) (size 15 to 20)
#    0.000    1.333   10.000    0.500    2.333    0.000 
#    0.000    0.000    0.000    0.000   13.000    0.000 
#    0.000    0.000    0.000    0.000    0.000    0.000 
#
# Total GULP energy -594687.854967 kJ/mol
# GULP energy per Si atom -12389.330312 kJ/mol
# Density = 1.587676 g / cm^3
# Si number density = 15.912983 Si / 1000 Ang^3
#
#
#
# Elastic Constant Matrix: (Units=GPa)
#
#
# Indices 1 2 3 4 5 6 
#
# 1 95.8183 35.0869 35.7855 0.0000 0.0000 0.0000
# 2 35.0869 95.8183 35.7855 0.0000 0.0000 0.0000
# 3 35.7855 35.7855 56.5400 0.0000 0.0000 0.0000
# 4 0.0000 0.0000 0.0000 20.6531 0.0000 0.0000
# 5 0.0000 0.0000 0.0000 0.0000 20.6531 0.0000
# 6 0.0000 0.0000 0.0000 0.0000 0.0000 22.8463
#
#
#
# Elastic Compliance Matrix: (Units=1/GPa)
#
#
# Indices 1 2 3 4 5 6 
#
# 1 0.014074 -0.002392 -0.007393 0.000000 0.000000 0.000000
# 2 -0.002392 0.014074 -0.007393 0.000000 0.000000 0.000000
# 3 -0.007393 -0.007393 0.027046 0.000000 0.000000 0.000000
# 4 0.000000 0.000000 0.000000 0.048419 0.000000 0.000000
# 5 0.000000 0.000000 0.000000 0.000000 0.048419 0.000000
# 6 0.000000 0.000000 0.000000 0.000000 0.000000 0.043771
#
#
# Mechanical properties :
#
#
# Convention : Reuss Voigt Hill
#
# Bulk Modulus (GPa) = 47.99708 51.27696 49.63702
# Shear Modulus (GPa) = 21.08773 22.26507 21.67640
#
# Velocity S-wave (km/s) = 3.64427 3.74461 3.69478
# Velocity P-wave (km/s) = 6.92353 7.14069 7.03295
#
# Compressibility (1/GPa) = 0.02083460
#
# Stress axis : x y z
#
# Youngs Moduli (GPa) = 71.05465 71.05465 36.97466
#
# Poissons Ratio (x) = 0.16998 0.27337
# Poissons Ratio (y) = 0.16998 0.27337
# Poissons Ratio (z) = 0.52534 0.52534
#
# Static dielectric constant tensor:
#      x y z
#    x 3.129240 0.000000 0.000000 
#    y 0.000000 3.129240 0.000000 
#    z 0.000000 0.000000 2.590200 
# 
# 
# High freq. dielectric constant tensor:
#      x y z
#    x 1.617820 0.000000 0.000000 
#    y 0.000000 1.617820 0.000000 
#    z 0.000000 0.000000 1.542530 
# 
# From -- ./inp_files/5500.got.cif
#   From: 2010.03.12/outbox.cif.g09.slc.cpg/sg122_3_cif.got.tgz:5500.got - 2010.04.06 16:17:16.
