data_PCOD8311144
_publ_section_title
;
Structure prediction by ZEFSAII (Michael W. Deem and Ramdas Pophale) SiO2 
 PCOD8311144
Probable space group: I -4 C 2
;
_chemical_formula_sum "Si O2"
_cell_formula_units_Z 72
_cell_length_a 25.795236
_cell_length_b 25.795236
_cell_length_c 5.241837
_cell_angle_alpha 90.000000
_cell_angle_beta 90.000000
_cell_angle_gamma 90.000000
_cell_volume 3487.887939
_symmetry_space_group_name_H-M "I -4 C 2"
_symmetry_group_IT_number 120
_symmetry_cell_setting 'tetragonal'
loop_
_space_group_symop_operation_xyz
x,y,z
y,-x,-z
-x,-y,z
-y,x,-z
y,x,1/2-z
-y,-x,1/2-z
-x,y,1/2+z
x,-y,1/2+z
1/2+x,1/2+y,1/2+z
1/2+y,1/2-x,1/2-z
1/2-x,1/2-y,1/2+z
1/2-y,1/2+x,1/2-z
1/2+y,1/2+x,-z
1/2-y,1/2-x,-z
1/2-x,1/2+y,z
1/2+x,1/2-y,z
loop_
_atom_site_type_symbol
_atom_site_label
_atom_site_fract_x
_atom_site_fract_y
_atom_site_fract_z
Si Si1 0.245311 0.890109 0.649370
Si Si2 0.727482 0.727482 0.750000
Si Si3 0.528491 0.107229 0.921698
Si Si4 0.558092 0.777963 0.345491
Si Si5 0.017586 0.179117 0.359408
O O1 0.234933 0.829551 0.635136
O O2 0.282089 0.907713 0.413946
O O3 0.190691 0.921350 0.618709
O O4 0.268883 0.902425 0.923772
O O5 0.736549 0.763451 0.500000
O O6 0.510599 0.087393 0.643481
O O7 0.528858 0.169196 0.907763
O O8 0.584791 0.084791 0.000000
O O9 0.514271 0.733585 0.318942
O O10 0.995677 0.147187 0.601609
#
# Coordination Sequence:
#
# PCOD8311144 Si02
#       5
#    16   8  16  16  16
#     4  10  20  35  54  74 102 134 168 216 266 307
#     4  12  26  40  50  72 112 156 190 209 248 335
#     4  12  25  40  57  78 104 133 169 218 281 352
#     4  10  19  36  60  81  97 123 176 236 278 310
#     4   8  14  27  50  74  92 113 154 213 266 298
#
# _framework density 20.642866000000001
#
# number of rings (size 3 to 8) (size 9 to 14) (size 15 to 20)
#    0.000    1.778    0.000    7.333    0.000    4.000 
#    0.000    0.000    0.000    0.000    0.000    0.000 
#    0.000    0.000    0.000    0.000    0.000  270.000 
#
# Total GULP energy -446070.520406 kJ/mol
# GULP energy per Si atom -12390.847789 kJ/mol
# Density = 2.059588 g / cm^3
# Si number density = 20.642866 Si / 1000 Ang^3
#
#
#
# Elastic Constant Matrix: (Units=GPa)
#
#
# Indices 1 2 3 4 5 6 
#
# 1 57.2566 6.0488 16.0277 0.0000 0.0000 0.0000
# 2 6.0488 57.2566 16.0277 0.0000 0.0000 0.0000
# 3 16.0277 16.0277 153.8107 0.0000 0.0000 0.0000
# 4 0.0000 0.0000 0.0000 24.3919 0.0000 0.0000
# 5 0.0000 0.0000 0.0000 0.0000 24.3919 0.0000
# 6 0.0000 0.0000 0.0000 0.0000 0.0000 16.3835
#
#
#
# Elastic Compliance Matrix: (Units=1/GPa)
#
#
# Indices 1 2 3 4 5 6 
#
# 1 0.018102 -0.001426 -0.001738 0.000000 0.000000 0.000000
# 2 -0.001426 0.018102 -0.001738 0.000000 0.000000 0.000000
# 3 -0.001738 -0.001738 0.006864 0.000000 0.000000 0.000000
# 4 0.000000 0.000000 0.000000 0.040997 0.000000 0.000000
# 5 0.000000 0.000000 0.000000 0.000000 0.040997 0.000000
# 6 0.000000 0.000000 0.000000 0.000000 0.000000 0.061037
#
#
# Mechanical properties :
#
#
# Convention : Reuss Voigt Hill
#
# Bulk Modulus (GPa) = 30.06127 38.28137 34.17132
# Shear Modulus (GPa) = 24.15566 28.38146 26.26856
#
# Velocity S-wave (km/s) = 3.42449 3.71196 3.57112
# Velocity P-wave (km/s) = 5.49821 6.07918 5.79598
#
# Compressibility (1/GPa) = 0.03326539
#
# Stress axis : x y z
#
# Youngs Moduli (GPa) = 55.24157 55.24157 145.69490
#
# Poissons Ratio (x) = 0.07877 0.25318
# Poissons Ratio (y) = 0.07877 0.25318
# Poissons Ratio (z) = 0.09600 0.09600
#
# Static dielectric constant tensor:
#      x y z
#    x 3.292230 0.000000 0.000000 
#    y 0.000000 3.292230 0.000000 
#    z 0.000000 0.000000 5.060480 
# 
# 
# High freq. dielectric constant tensor:
#      x y z
#    x 1.758570 0.000000 0.000000 
#    y 0.000000 1.758570 0.000000 
#    z 0.000000 0.000000 1.857160 
# 
# From -- ./inp_files/415.got.cif
#   From: 2010.03.12/outbox.cif.g09.slc.cpg/sg120_1_cif.got.tgz:415.got - 2010.04.06 16:00:44.
