data_PCOD8311889
_publ_section_title
;
Structure prediction by ZEFSAII (Michael W. Deem and Ramdas Pophale) SiO2 
 PCOD8311889
Probable space group: I -4 2 D
;
_chemical_formula_sum "Si O2"
_cell_formula_units_Z 64
_cell_length_a 14.306485
_cell_length_b 14.306485
_cell_length_c 11.115541
_cell_angle_alpha 90.000000
_cell_angle_beta 90.000000
_cell_angle_gamma 90.000000
_cell_volume 2275.079057
_symmetry_space_group_name_H-M "I -4 2 D"
_symmetry_group_IT_number 122
_symmetry_cell_setting 'tetragonal'
loop_
_space_group_symop_operation_xyz
x,y,z
y,-x,-z
-x,-y,z
-y,x,-z
x,1/2-y,1/4-z
-x,1/2+y,1/4-z
-y,1/2-x,1/4+z
y,1/2+x,1/4+z
1/2+x,1/2+y,1/2+z
1/2+y,1/2-x,1/2-z
1/2-x,1/2-y,1/2+z
1/2-y,1/2+x,1/2-z
1/2+x,-y,3/4-z
1/2-x,y,3/4-z
1/2-y,-x,3/4+z
1/2+y,x,3/4+z
loop_
_atom_site_type_symbol
_atom_site_label
_atom_site_fract_x
_atom_site_fract_y
_atom_site_fract_z
Si Si1 0.366677 0.648109 0.851650
Si Si2 0.328795 0.650050 0.463050
Si Si3 0.467212 0.603326 0.276520
Si Si4 0.583702 0.694929 0.893996
O O1 0.326755 0.737688 0.781682
O O2 0.340870 0.559787 0.764133
O O3 0.473737 0.669162 0.889872
O O4 0.189431 0.628267 0.776173
O O5 0.250000 0.608244 0.375000
O O6 0.431983 0.618364 0.414546
O O7 0.300094 0.606000 0.591639
O O8 0.500000 0.500000 0.252329
O O9 0.382065 0.634905 0.190025
#
# Coordination Sequence:
#
# PCOD8311889 Si02
#       4
#    16  16  16  16
#     4  11  21  42  81 118 157 213 280 351 404 497
#     4  10  24  43  66 117 169 205 261 348 422 489
#     4   9  20  41  73 109 158 218 268 341 418 498
#     4  10  21  43  76 119 160 204 277 347 415 484
#
# _framework density 28.130890000000001
#
# number of rings (size 3 to 8) (size 9 to 14) (size 15 to 20)
#    0.000    2.000    2.500    0.000    0.000    6.000 
#    4.500    2.500   11.000    0.000    0.000    0.000 
#    0.000    0.000    0.000    0.000    0.000    0.000 
#
# Total GULP energy -396500.864787 kJ/mol
# GULP energy per Si atom -12390.652025 kJ/mol
# Density = 2.806686 g / cm^3
# Si number density = 28.130890 Si / 1000 Ang^3
#
#
#
# Elastic Constant Matrix: (Units=GPa)
#
#
# Indices 1 2 3 4 5 6 
#
# 1 92.4108 76.3763 76.8381 0.0000 0.0000 0.0000
# 2 76.3763 92.4108 76.8381 0.0000 0.0000 0.0000
# 3 76.8381 76.8381 188.3787 0.0000 0.0000 0.0000
# 4 0.0000 0.0000 0.0000 33.8391 0.0000 0.0000
# 5 0.0000 0.0000 0.0000 0.0000 33.8391 0.0000
# 6 0.0000 0.0000 0.0000 0.0000 0.0000 57.3864
#
#
#
# Elastic Compliance Matrix: (Units=1/GPa)
#
#
# Indices 1 2 3 4 5 6 
#
# 1 0.035895 -0.026470 -0.003844 0.000000 0.000000 0.000000
# 2 -0.026470 0.035895 -0.003844 0.000000 0.000000 0.000000
# 3 -0.003844 -0.003844 0.008445 0.000000 0.000000 0.000000
# 4 0.000000 0.000000 0.000000 0.029552 0.000000 0.000000
# 5 0.000000 0.000000 0.000000 0.000000 0.029552 0.000000
# 6 0.000000 0.000000 0.000000 0.000000 0.000000 0.017426
#
#
# Mechanical properties :
#
#
# Convention : Reuss Voigt Hill
#
# Bulk Modulus (GPa) = 83.91423 92.58950 88.25186
# Shear Modulus (GPa) = 21.82897 34.55610 28.19253
#
# Velocity S-wave (km/s) = 2.78866 3.50866 3.16917
# Velocity P-wave (km/s) = 6.34535 7.02848 6.69564
#
# Compressibility (1/GPa) = 0.01191693
#
# Stress axis : x y z
#
# Youngs Moduli (GPa) = 27.85905 27.85905 118.41956
#
# Poissons Ratio (x) = 0.73744 0.45524
# Poissons Ratio (y) = 0.73744 0.45524
# Poissons Ratio (z) = 0.10710 0.10710
#
# Static dielectric constant tensor:
#      x y z
#    x 6.035470 0.000000 0.000000 
#    y 0.000000 6.035470 0.000000 
#    z 0.000000 0.000000 5.194820 
# 
# 
# High freq. dielectric constant tensor:
#      x y z
#    x 2.155730 0.000000 0.000000 
#    y 0.000000 2.155730 0.000000 
#    z 0.000000 0.000000 2.144590 
# 
# From -- ./inp_files/5146.got.cif
#   From: 2010.03.12/outbox.cif.g09.slc.cpg/sg122_3_cif.got.tgz:5146.got - 2010.04.06 16:17:16.
