data_PCOD8311432
_publ_section_title
;
Structure prediction by ZEFSAII (Michael W. Deem and Ramdas Pophale) SiO2 
 PCOD8311432
Probable space group: I -4 2 M
;
_chemical_formula_sum "Si O2"
_cell_formula_units_Z 112
_cell_length_a 15.536929
_cell_length_b 15.536929
_cell_length_c 24.638324
_cell_angle_alpha 90.000000
_cell_angle_beta 90.000000
_cell_angle_gamma 90.000000
_cell_volume 5947.596870
_symmetry_space_group_name_H-M "I -4 2 M"
_symmetry_group_IT_number 121
_symmetry_cell_setting 'tetragonal'
loop_
_space_group_symop_operation_xyz
x,y,z
y,-x,-z
-x,-y,z
-y,x,-z
x,-y,-z
-x,y,-z
-y,-x,z
y,x,z
1/2+x,1/2+y,1/2+z
1/2+y,1/2-x,1/2-z
1/2-x,1/2-y,1/2+z
1/2-y,1/2+x,1/2-z
1/2+x,1/2-y,1/2-z
1/2-x,1/2+y,1/2-z
1/2-y,1/2-x,1/2+z
1/2+y,1/2+x,1/2+z
loop_
_atom_site_type_symbol
_atom_site_label
_atom_site_fract_x
_atom_site_fract_y
_atom_site_fract_z
Si Si1 0.680455 0.817533 0.689243
Si Si2 0.458025 0.679965 0.829513
Si Si3 0.616913 0.924188 0.091185
Si Si4 0.377583 0.921953 0.596472
Si Si5 0.321617 0.813599 0.496068
Si Si6 0.623459 0.238897 0.196955
Si Si7 0.061300 0.193083 0.548507
O O1 0.728371 0.728371 0.674750
O O2 0.749092 0.893701 0.693678
O O3 0.609281 0.835702 0.644415
O O4 0.632185 0.810408 0.746464
O O5 0.414599 0.585402 0.822953
O O6 0.547846 0.688845 0.797744
O O7 0.482539 0.699055 0.892601
O O8 0.523897 0.876961 0.082043
O O9 0.678733 0.910708 0.037946
O O10 0.608386 0.024906 0.099668
O O11 0.326676 0.866099 0.551942
O O12 0.332939 0.903231 0.653635
O O13 0.283406 0.716595 0.506598
O O14 0.257607 0.858528 0.452993
O O15 0.712283 0.287718 0.181606
O O16 0.096272 0.096272 0.539519
O O17 0.000000 0.219222 0.500000
#
# Coordination Sequence:
#
# PCOD8311432 Si02
#       7
#    16  16  16  16  16  16  16
#     4  10  21  38  58  79 107 149 198 240 285 343
#     4  10  20  38  59  82 114 155 199 240 286 345
#     4  11  21  36  57  80 113 150 188 232 290 349
#     4  11  23  34  53  87 117 145 183 237 292 345
#     4  11  20  34  54  75 108 147 184 224 274 340
#     4  11  23  38  57  84 117 151 191 241 291 341
#     4  10  19  30  50  76 108 149 185 219 267 332
#
# _framework density 18.831133999999999
#
# number of rings (size 3 to 8) (size 9 to 14) (size 15 to 20)
#    0.000    1.429    2.857    3.429    2.000    3.286 
#    0.000    2.857    0.000    0.000    0.000    0.000 
#    0.000   21.143    0.000    0.000    0.000    0.000 
#
# Total GULP energy -694128.675864 kJ/mol
# GULP energy per Si atom -12395.154926 kJ/mol
# Density = 1.878827 g / cm^3
# Si number density = 18.831134 Si / 1000 Ang^3
#
#
#
# Elastic Constant Matrix: (Units=GPa)
#
#
# Indices 1 2 3 4 5 6 
#
# 1 76.1789 34.4204 44.9055 0.0000 0.0000 0.0000
# 2 34.4204 76.1818 44.9060 0.0000 0.0000 0.0000
# 3 44.9055 44.9060 107.5358 0.0000 0.0000 0.0000
# 4 0.0000 0.0000 0.0000 27.5792 0.0000 0.0000
# 5 0.0000 0.0000 0.0000 0.0000 27.5787 0.0000
# 6 0.0000 0.0000 0.0000 0.0000 0.0000 28.1030
#
#
#
# Elastic Compliance Matrix: (Units=1/GPa)
#
#
# Indices 1 2 3 4 5 6 
#
# 1 0.018814 -0.005133 -0.005713 0.000000 0.000000 0.000000
# 2 -0.005133 0.018813 -0.005713 0.000000 0.000000 0.000000
# 3 -0.005713 -0.005713 0.014070 0.000000 0.000000 0.000000
# 4 0.000000 0.000000 0.000000 0.036259 0.000000 0.000000
# 5 0.000000 0.000000 0.000000 0.000000 0.036260 0.000000
# 6 0.000000 0.000000 0.000000 0.000000 0.000000 0.035583
#
#
# Mechanical properties :
#
#
# Convention : Reuss Voigt Hill
#
# Bulk Modulus (GPa) = 53.82079 56.48449 55.15264
# Shear Modulus (GPa) = 25.11169 25.69649 25.40409
#
# Velocity S-wave (km/s) = 3.65570 3.69802 3.67692
# Velocity P-wave (km/s) = 6.81628 6.94940 6.88316
#
# Compressibility (1/GPa) = 0.01858018
#
# Stress axis : x y z
#
# Youngs Moduli (GPa) = 53.15226 53.15451 71.07080
#
# Poissons Ratio (x) = 0.27284 0.40602
# Poissons Ratio (y) = 0.27283 0.40601
# Poissons Ratio (z) = 0.30366 0.30366
#
# Static dielectric constant tensor:
#      x y z
#    x 3.529740 0.000000 0.000000 
#    y 0.000000 3.529730 0.000000 
#    z 0.000000 0.000000 3.369170 
# 
# 
# High freq. dielectric constant tensor:
#      x y z
#    x 1.723710 0.000000 0.000000 
#    y 0.000000 1.723710 0.000000 
#    z 0.000000 0.000000 1.729720 
# 
# From -- ./inp_files/7220.got.cif
#   From: 2010.03.12/outbox.cif.g09.slc.cpg/sg121_4_cif.got.tgz:7220.got - 2010.04.06 16:06:48.
