data_PCOD8311216
_publ_section_title
;
Structure prediction by ZEFSAII (Michael W. Deem and Ramdas Pophale) SiO2 
 PCOD8311216
Probable space group: I -4 C 2
;
_chemical_formula_sum "Si O2"
_cell_formula_units_Z 112
_cell_length_a 14.603612
_cell_length_b 14.603612
_cell_length_c 24.105444
_cell_angle_alpha 90.000000
_cell_angle_beta 90.000000
_cell_angle_gamma 90.000000
_cell_volume 5140.859168
_symmetry_space_group_name_H-M "I -4 C 2"
_symmetry_group_IT_number 120
_symmetry_cell_setting 'tetragonal'
loop_
_space_group_symop_operation_xyz
x,y,z
y,-x,-z
-x,-y,z
-y,x,-z
y,x,1/2-z
-y,-x,1/2-z
-x,y,1/2+z
x,-y,1/2+z
1/2+x,1/2+y,1/2+z
1/2+y,1/2-x,1/2-z
1/2-x,1/2-y,1/2+z
1/2-y,1/2+x,1/2-z
1/2+y,1/2+x,-z
1/2-y,1/2-x,-z
1/2-x,1/2+y,z
1/2+x,1/2-y,z
loop_
_atom_site_type_symbol
_atom_site_label
_atom_site_fract_x
_atom_site_fract_y
_atom_site_fract_z
Si Si1 0.446639 0.085126 0.860465
Si Si2 0.244435 0.938854 0.314802
Si Si3 0.680182 0.392228 0.617863
Si Si4 0.217776 0.090426 0.104494
Si Si5 0.111308 0.900658 0.497788
Si Si6 0.597043 0.825436 0.299059
Si Si7 0.299353 0.630429 0.304309
O O1 0.345768 0.056875 0.840781
O O2 0.435493 0.174561 0.899880
O O3 0.510694 0.105914 0.806155
O O4 0.500000 0.000000 0.891120
O O5 0.177587 0.863502 0.338905
O O6 0.251295 0.926890 0.248303
O O7 0.188735 0.030572 0.330369
O O8 0.654934 0.501412 0.620984
O O9 0.660625 0.359575 0.555238
O O10 0.784768 0.389392 0.638500
O O11 0.206117 0.169902 0.150598
O O12 0.182452 0.127902 0.045624
O O13 0.007988 0.878390 0.517350
O O14 0.694278 0.867881 0.282996
O O15 0.360899 0.639102 0.250000
#
# Coordination Sequence:
#
# PCOD8311216 Si02
#       7
#    16  16  16  16  16  16  16
#     4  11  23  41  63  92 125 176 224 262 319 404
#     4  12  23  38  62  91 130 174 215 264 331 397
#     4  10  21  38  63  92 124 162 205 273 330 386
#     4  10  22  40  65  95 127 165 220 274 331 398
#     4   9  18  37  64  93 123 162 215 267 330 404
#     4  11  22  39  59  90 128 166 222 266 316 394
#     4  12  23  38  58  91 132 167 212 274 325 389
#
# _framework density 21.786241
#
# number of rings (size 3 to 8) (size 9 to 14) (size 15 to 20)
#    0.000    1.286    1.429    6.429    0.000    1.714 
#    0.000    3.571    0.000    1.714    3.714    0.000 
#    0.000    0.000    0.000    0.000    0.000    0.000 
#
# Total GULP energy -693794.981495 kJ/mol
# GULP energy per Si atom -12389.196098 kJ/mol
# Density = 2.173665 g / cm^3
# Si number density = 21.786241 Si / 1000 Ang^3
#
#
#
# Elastic Constant Matrix: (Units=GPa)
#
#
# Indices 1 2 3 4 5 6 
#
# 1 93.7271 26.2146 31.5544 0.0000 0.0000 0.0000
# 2 26.2146 93.7271 31.5543 0.0000 0.0000 0.0000
# 3 31.5544 31.5543 106.4100 0.0000 0.0000 0.0000
# 4 0.0000 0.0000 0.0000 25.4842 0.0000 0.0000
# 5 0.0000 0.0000 0.0000 0.0000 25.4842 0.0000
# 6 0.0000 0.0000 0.0000 0.0000 0.0000 36.1004
#
#
#
# Elastic Compliance Matrix: (Units=1/GPa)
#
#
# Indices 1 2 3 4 5 6 
#
# 1 0.012345 -0.002467 -0.002929 0.000000 0.000000 0.000000
# 2 -0.002467 0.012345 -0.002929 0.000000 0.000000 0.000000
# 3 -0.002929 -0.002929 0.011135 0.000000 0.000000 0.000000
# 4 0.000000 0.000000 0.000000 0.039240 0.000000 0.000000
# 5 0.000000 0.000000 0.000000 0.000000 0.039240 0.000000
# 6 0.000000 0.000000 0.000000 0.000000 0.000000 0.027701
#
#
# Mechanical properties :
#
#
# Convention : Reuss Voigt Hill
#
# Bulk Modulus (GPa) = 52.15174 52.50121 52.32647
# Shear Modulus (GPa) = 30.29407 31.04982 30.67195
#
# Velocity S-wave (km/s) = 3.73301 3.77928 3.75621
# Velocity P-wave (km/s) = 6.52459 6.57226 6.54847
#
# Compressibility (1/GPa) = 0.01917482
#
# Stress axis : x y z
#
# Youngs Moduli (GPa) = 81.00181 81.00194 89.80732
#
# Poissons Ratio (x) = 0.19981 0.26308
# Poissons Ratio (y) = 0.19980 0.26308
# Poissons Ratio (z) = 0.23729 0.23729
#
# Static dielectric constant tensor:
#      x y z
#    x 4.043760 0.000000 0.000000 
#    y 0.000000 4.043760 0.000000 
#    z 0.000000 0.000000 3.662130 
# 
# 
# High freq. dielectric constant tensor:
#      x y z
#    x 1.861050 0.000000 0.000000 
#    y 0.000000 1.861050 0.000000 
#    z 0.000000 0.000000 1.824200 
# 
# From -- ./inp_files/5917.got.cif
#   From: 2010.03.12/outbox.cif.g09.slc.cpg/sg120_3_cif.got.tgz:5917.got - 2010.04.06 16:00:44.
