data_PCOD8311550
_publ_section_title
;
Structure prediction by ZEFSAII (Michael W. Deem and Ramdas Pophale) SiO2 
 PCOD8311550
Probable space group: I -4 2 M
;
_chemical_formula_sum "Si O2"
_cell_formula_units_Z 60
_cell_length_a 15.069162
_cell_length_b 15.069162
_cell_length_c 15.233953
_cell_angle_alpha 90.000000
_cell_angle_beta 90.000000
_cell_angle_gamma 90.000000
_cell_volume 3459.320615
_symmetry_space_group_name_H-M "I -4 2 M"
_symmetry_group_IT_number 121
_symmetry_cell_setting 'tetragonal'
loop_
_space_group_symop_operation_xyz
x,y,z
y,-x,-z
-x,-y,z
-y,x,-z
x,-y,-z
-x,y,-z
-y,-x,z
y,x,z
1/2+x,1/2+y,1/2+z
1/2+y,1/2-x,1/2-z
1/2-x,1/2-y,1/2+z
1/2-y,1/2+x,1/2-z
1/2+x,1/2-y,1/2-z
1/2-x,1/2+y,1/2-z
1/2-y,1/2-x,1/2+z
1/2+y,1/2+x,1/2+z
loop_
_atom_site_type_symbol
_atom_site_label
_atom_site_fract_x
_atom_site_fract_y
_atom_site_fract_z
Si Si1 0.870685 0.870685 0.101695
Si Si2 0.732806 0.732806 0.051450
Si Si3 0.448864 0.745251 0.249223
Si Si4 0.500000 0.500000 0.000000
Si Si5 0.211926 0.353099 0.216150
Si Si6 0.000000 0.000000 0.000000
Si Si7 0.130719 0.869282 0.600500
O O1 0.809156 0.809156 0.036969
O O2 0.809707 0.930226 0.163485
O O3 0.936188 0.936188 0.053446
O O4 0.777462 0.653550 0.109903
O O5 0.691172 0.691172 0.964100
O O6 0.551202 0.768054 0.252857
O O7 0.387850 0.832648 0.252456
O O8 0.429360 0.693925 0.159605
O O9 0.436528 0.436528 0.944882
O O10 0.278793 0.278793 0.258235
#
# Coordination Sequence:
#
# PCOD8311550 Si02
#       7
#     8   8  16   2  16   2   8
#     4   9  22  37  50  83 111 142 188 234 267 334
#     4   8  18  37  51  73 122 140 168 221 293 336
#     4  10  20  36  57  77 109 144 188 219 282 329
#     4  12  24  26  48  96 116 126 192 244 272 334
#     4   9  19  36  53  80 108 146 174 233 271 325
#     4  12  24  30  56  84 100 150 200 232 280 294
#     4  11  20  33  53  85 109 150 174 222 294 346
#
# _framework density 17.344446000000001
#
# number of rings (size 3 to 8) (size 9 to 14) (size 15 to 20)
#    0.800    1.600    2.667    1.600    3.733    3.733 
#    0.000    0.000    0.000    0.000    0.000    3.733 
#    0.000    0.000    0.000    0.000    0.000    0.000 
#
# Total GULP energy -371662.155803 kJ/mol
# GULP energy per Si atom -12388.738527 kJ/mol
# Density = 1.730497 g / cm^3
# Si number density = 17.344446 Si / 1000 Ang^3
#
#
#
# Elastic Constant Matrix: (Units=GPa)
#
#
# Indices 1 2 3 4 5 6 
#
# 1 123.5619 38.4473 38.4706 0.0000 0.0000 0.0000
# 2 38.4473 123.5619 38.4710 0.0000 0.0000 0.0000
# 3 38.4706 38.4710 73.4393 0.0000 0.0000 0.0000
# 4 0.0000 0.0000 0.0000 5.3288 0.0000 0.0000
# 5 0.0000 0.0000 0.0000 0.0000 5.3285 0.0000
# 6 0.0000 0.0000 0.0000 0.0000 0.0000 32.3963
#
#
#
# Elastic Compliance Matrix: (Units=1/GPa)
#
#
# Indices 1 2 3 4 5 6 
#
# 1 0.009983 -0.001766 -0.004304 0.000000 0.000000 0.000000
# 2 -0.001766 0.009983 -0.004304 0.000000 0.000000 0.000000
# 3 -0.004304 -0.004304 0.018126 0.000000 0.000000 0.000000
# 4 0.000000 0.000000 0.000000 0.187660 0.000000 0.000000
# 5 0.000000 0.000000 0.000000 0.000000 0.187669 0.000000
# 6 0.000000 0.000000 0.000000 0.000000 0.000000 0.030868
#
#
# Mechanical properties :
#
#
# Convention : Reuss Voigt Hill
#
# Bulk Modulus (GPa) = 57.66177 61.26010 59.46093
# Shear Modulus (GPa) = 10.61981 22.28900 16.45440
#
# Velocity S-wave (km/s) = 2.47713 3.58869 3.08341
# Velocity P-wave (km/s) = 6.44196 7.25038 6.85809
#
# Compressibility (1/GPa) = 0.01734251
#
# Stress axis : x y z
#
# Youngs Moduli (GPa) = 100.17277 100.17235 55.16876
#
# Poissons Ratio (x) = 0.17691 0.23746
# Poissons Ratio (y) = 0.17692 0.23746
# Poissons Ratio (z) = 0.43117 0.43117
#
# Static dielectric constant tensor:
#      x y z
#    x 3.051480 0.000000 0.000000 
#    y 0.000000 3.051220 0.000000 
#    z 0.000000 0.000000 3.082650 
# 
# 
# High freq. dielectric constant tensor:
#      x y z
#    x 1.669590 0.000000 0.000000 
#    y 0.000000 1.669590 0.000000 
#    z 0.000000 0.000000 1.657370 
# 
# From -- ./inp_files/4130.got.cif
#   From: 2010.03.12/outbox.cif.g09.slc.cpg/sg121_3_cif.got.tgz:4130.got - 2010.04.06 16:06:48.
