data_PCOD8311386
_publ_section_title
;
Structure prediction by ZEFSAII (Michael W. Deem and Ramdas Pophale) SiO2 
 PCOD8311386
Probable space group: I -4 2 M
;
_chemical_formula_sum "Si O2"
_cell_formula_units_Z 40
_cell_length_a 9.246038
_cell_length_b 9.246038
_cell_length_c 26.270380
_cell_angle_alpha 90.000000
_cell_angle_beta 90.000000
_cell_angle_gamma 90.000000
_cell_volume 2245.834261
_symmetry_space_group_name_H-M "I -4 2 M"
_symmetry_group_IT_number 121
_symmetry_cell_setting 'tetragonal'
loop_
_space_group_symop_operation_xyz
x,y,z
y,-x,-z
-x,-y,z
-y,x,-z
x,-y,-z
-x,y,-z
-y,-x,z
y,x,z
1/2+x,1/2+y,1/2+z
1/2+y,1/2-x,1/2-z
1/2-x,1/2-y,1/2+z
1/2-y,1/2+x,1/2-z
1/2+x,1/2-y,1/2-z
1/2-x,1/2+y,1/2-z
1/2-y,1/2-x,1/2+z
1/2+y,1/2+x,1/2+z
loop_
_atom_site_type_symbol
_atom_site_label
_atom_site_fract_x
_atom_site_fract_y
_atom_site_fract_z
Si Si1 0.265194 0.505738 0.942480
Si Si2 0.500000 0.000000 0.869450
Si Si3 0.915810 0.681421 0.221420
O O1 0.337254 0.662747 0.931470
O O2 0.385228 0.385228 0.934583
O O3 0.137729 0.470443 0.904070
O O4 0.204761 0.500000 0.000000
O O5 0.357987 0.971628 0.834986
O O6 0.834004 0.834004 0.220837
O O7 0.808846 0.552792 0.240514
#
# Coordination Sequence:
#
# PCOD8311386 Si02
#       3
#    16   8  16
#     4   9  18  32  50  73 100 130 163 197 236 284
#     4  10  18  30  52  76  98 124 162 204 242 280
#     4   9  20  35  50  71  98 128 162 199 242 290
#
# _framework density 17.810752000000001
#
# number of rings (size 3 to 8) (size 9 to 14) (size 15 to 20)
#    0.000    3.200    0.000    3.000    0.000    7.200 
#    0.000    0.000    0.000    3.600    0.000   11.200 
#    0.000    0.000    0.000    0.000    0.000    0.000 
#
# Total GULP energy -247921.485325 kJ/mol
# GULP energy per Si atom -12396.074266 kJ/mol
# Density = 1.777021 g / cm^3
# Si number density = 17.810752 Si / 1000 Ang^3
#
#
#
# Elastic Constant Matrix: (Units=GPa)
#
#
# Indices 1 2 3 4 5 6 
#
# 1 64.5555 19.9884 46.4719 0.0000 0.0000 0.0000
# 2 19.9884 64.5543 46.4715 0.0000 0.0000 0.0000
# 3 46.4719 46.4715 125.4989 0.0000 0.0000 0.0000
# 4 0.0000 0.0000 0.0000 18.1626 0.0000 0.0000
# 5 0.0000 0.0000 0.0000 0.0000 18.1633 0.0000
# 6 0.0000 0.0000 0.0000 0.0000 0.0000 33.9080
#
#
#
# Elastic Compliance Matrix: (Units=1/GPa)
#
#
# Indices 1 2 3 4 5 6 
#
# 1 0.021194 -0.001244 -0.007387 0.000000 0.000000 0.000000
# 2 -0.001244 0.021194 -0.007387 0.000000 0.000000 0.000000
# 3 -0.007387 -0.007387 0.013439 0.000000 0.000000 0.000000
# 4 0.000000 0.000000 0.000000 0.055058 0.000000 0.000000
# 5 0.000000 0.000000 0.000000 0.000000 0.055056 0.000000
# 6 0.000000 0.000000 0.000000 0.000000 0.000000 0.029492
#
#
# Mechanical properties :
#
#
# Convention : Reuss Voigt Hill
#
# Bulk Modulus (GPa) = 42.03592 53.38581 47.71087
# Shear Modulus (GPa) = 21.24044 23.49192 22.36618
#
# Velocity S-wave (km/s) = 3.45710 3.63571 3.54753
# Velocity P-wave (km/s) = 6.29190 6.90388 6.60498
#
# Compressibility (1/GPa) = 0.02378918
#
# Stress axis : x y z
#
# Youngs Moduli (GPa) = 47.18384 47.18296 74.40990
#
# Poissons Ratio (x) = 0.05872 0.54968
# Poissons Ratio (y) = 0.05872 0.54968
# Poissons Ratio (z) = 0.34855 0.34855
#
# Static dielectric constant tensor:
#      x y z
#    x 3.271710 0.000000 0.000000 
#    y 0.000000 3.271700 0.000000 
#    z 0.000000 0.000000 3.494590 
# 
# 
# High freq. dielectric constant tensor:
#      x y z
#    x 1.672750 0.000000 0.000000 
#    y 0.000000 1.672750 0.000000 
#    z 0.000000 0.000000 1.701170 
# 
# From -- ./inp_files/6753.got.cif
#   From: 2010.03.12/outbox.cif.g09.slc.cpg/sg121_4_cif.got.tgz:6753.got - 2010.04.06 16:06:48.
