data_PCOD8311292
_publ_section_title
;
Structure prediction by ZEFSAII (Michael W. Deem and Ramdas Pophale) SiO2 
 PCOD8311292
Probable space group: I -4 C 2
;
_chemical_formula_sum "Si O2"
_cell_formula_units_Z 96
_cell_length_a 15.375965
_cell_length_b 15.375965
_cell_length_c 18.995444
_cell_angle_alpha 90.000000
_cell_angle_beta 90.000000
_cell_angle_gamma 90.000000
_cell_volume 4490.908563
_symmetry_space_group_name_H-M "I -4 C 2"
_symmetry_group_IT_number 120
_symmetry_cell_setting 'tetragonal'
loop_
_space_group_symop_operation_xyz
x,y,z
y,-x,-z
-x,-y,z
-y,x,-z
y,x,1/2-z
-y,-x,1/2-z
-x,y,1/2+z
x,-y,1/2+z
1/2+x,1/2+y,1/2+z
1/2+y,1/2-x,1/2-z
1/2-x,1/2-y,1/2+z
1/2-y,1/2+x,1/2-z
1/2+y,1/2+x,-z
1/2-y,1/2-x,-z
1/2-x,1/2+y,z
1/2+x,1/2-y,z
loop_
_atom_site_type_symbol
_atom_site_label
_atom_site_fract_x
_atom_site_fract_y
_atom_site_fract_z
Si Si1 0.035675 0.751810 0.729307
Si Si2 0.445805 0.663956 0.368287
Si Si3 0.179698 0.112640 0.554551
Si Si4 0.302481 0.210446 0.923326
Si Si5 0.200595 0.345478 0.270457
Si Si6 0.653991 0.481085 0.416051
O O1 0.065736 0.826657 0.784455
O O2 0.110121 0.678808 0.733097
O O3 0.027246 0.783900 0.650607
O O4 0.942175 0.719080 0.756224
O O5 0.539553 0.703242 0.387968
O O6 0.363947 0.707525 0.409017
O O7 0.438022 0.563644 0.393126
O O8 0.236411 0.199599 0.568134
O O9 0.200129 0.070523 0.479370
O O10 0.078691 0.138778 0.560362
O O11 0.311409 0.147954 0.855646
O O12 0.330658 0.169343 0.000000
O O13 0.278218 0.278218 0.250000
#
# Coordination Sequence:
#
# PCOD8311292 Si02
#       6
#    16  16  16  16  16  16
#     4  11  25  43  68  97 135 184 230 290 342 410
#     4  11  24  39  64  98 132 174 227 275 339 417
#     4  12  23  39  66  97 137 179 222 279 347 412
#     4  11  21  41  64  91 133 178 221 269 336 405
#     4  11  24  45  68 100 137 176 236 286 345 417
#     4  12  22  39  62  97 137 175 217 281 345 416
#
# _framework density 21.376519999999999
#
# number of rings (size 3 to 8) (size 9 to 14) (size 15 to 20)
#    0.000    0.667    5.000    4.000    0.000    0.333 
#    0.000    1.667    0.000    0.000    0.000    1.167 
#    0.000    0.000    0.000    0.000    0.000    0.000 
#
# Total GULP energy -594677.053686 kJ/mol
# GULP energy per Si atom -12389.105285 kJ/mol
# Density = 2.132787 g / cm^3
# Si number density = 21.376520 Si / 1000 Ang^3
#
#
#
# Elastic Constant Matrix: (Units=GPa)
#
#
# Indices 1 2 3 4 5 6 
#
# 1 108.9478 50.0184 32.6848 0.0000 0.0000 0.0000
# 2 50.0184 108.9477 32.6846 0.0000 0.0000 0.0000
# 3 32.6848 32.6846 126.0684 0.0000 0.0000 0.0000
# 4 0.0000 0.0000 0.0000 26.9421 0.0000 0.0000
# 5 0.0000 0.0000 0.0000 0.0000 26.9420 0.0000
# 6 0.0000 0.0000 0.0000 0.0000 0.0000 3.0030
#
#
#
# Elastic Compliance Matrix: (Units=1/GPa)
#
#
# Indices 1 2 3 4 5 6 
#
# 1 0.012005 -0.004964 -0.001826 0.000000 0.000000 0.000000
# 2 -0.004964 0.012005 -0.001826 0.000000 0.000000 0.000000
# 3 -0.001826 -0.001826 0.008879 0.000000 0.000000 0.000000
# 4 0.000000 0.000000 0.000000 0.037117 0.000000 0.000000
# 5 0.000000 0.000000 0.000000 0.000000 0.037117 0.000000
# 6 0.000000 0.000000 0.000000 0.000000 0.000000 0.332999
#
#
# Mechanical properties :
#
#
# Convention : Reuss Voigt Hill
#
# Bulk Modulus (GPa) = 63.85992 63.85995 63.85994
# Shear Modulus (GPa) = 10.80913 26.61583 18.71248
#
# Velocity S-wave (km/s) = 2.25111 3.53242 2.96188
# Velocity P-wave (km/s) = 6.05767 6.82467 6.45258
#
# Compressibility (1/GPa) = 0.01565927
#
# Stress axis : x y z
#
# Youngs Moduli (GPa) = 83.29581 83.29586 112.62792
#
# Poissons Ratio (x) = 0.41349 0.20561
# Poissons Ratio (y) = 0.41349 0.20561
# Poissons Ratio (z) = 0.15206 0.15206
#
# Static dielectric constant tensor:
#      x y z
#    x 3.954500 0.000000 0.000000 
#    y 0.000000 3.954500 0.000000 
#    z 0.000000 0.000000 4.299780 
# 
# 
# High freq. dielectric constant tensor:
#      x y z
#    x 1.819570 0.000000 0.000000 
#    y 0.000000 1.819570 0.000000 
#    z 0.000000 0.000000 1.872300 
# 
# From -- ./inp_files/5356.got.cif
#   From: 2010.03.12/outbox.cif.g09.slc.cpg/sg120_3_cif.got.tgz:5356.got - 2010.04.06 16:00:44.
