data_PCOD8311051
_publ_section_title
;
Structure prediction by ZEFSAII (Michael W. Deem and Ramdas Pophale) SiO2 
 PCOD8311051
Probable space group: I -4 M 2
;
_chemical_formula_sum "Si O2"
_cell_formula_units_Z 104
_cell_length_a 17.450655
_cell_length_b 17.450655
_cell_length_c 17.769358
_cell_angle_alpha 90.000000
_cell_angle_beta 90.000000
_cell_angle_gamma 90.000000
_cell_volume 5411.220141
_symmetry_space_group_name_H-M "I -4 M 2"
_symmetry_group_IT_number 119
_symmetry_cell_setting 'tetragonal'
loop_
_space_group_symop_operation_xyz
x,y,z
y,-x,-z
-x,-y,z
-y,x,-z
y,x,-z
-y,-x,-z
-x,y,z
x,-y,z
1/2+x,1/2+y,1/2+z
1/2+y,1/2-x,1/2-z
1/2-x,1/2-y,1/2+z
1/2-y,1/2+x,1/2-z
1/2+y,1/2+x,1/2-z
1/2-y,1/2-x,1/2-z
1/2-x,1/2+y,1/2+z
1/2+x,1/2-y,1/2+z
loop_
_atom_site_type_symbol
_atom_site_label
_atom_site_fract_x
_atom_site_fract_y
_atom_site_fract_z
Si Si1 0.084264 0.584264 0.750000
Si Si2 0.193854 0.138013 0.170995
Si Si3 0.000000 0.085793 0.830380
Si Si4 0.650843 0.853990 0.393177
Si Si5 0.313631 0.643103 0.845897
Si Si6 0.589641 0.913345 0.548476
Si Si7 0.817040 0.684084 0.334794
Si Si8 0.914685 0.000000 0.347715
O O1 0.096841 0.500000 0.716404
O O2 0.094179 0.640131 0.680097
O O3 0.128808 0.078030 0.143763
O O4 0.269503 0.117852 0.123656
O O5 0.212076 0.127499 0.259563
O O6 0.172074 0.225855 0.153541
O O7 0.000000 0.079962 0.741309
O O8 0.000000 0.000000 0.865382
O O9 0.742480 0.856493 0.403745
O O10 0.608766 0.887380 0.464672
O O11 0.347162 0.729254 0.849842
O O12 0.372413 0.577972 0.874459
O O13 0.500000 0.907015 0.561396
O O14 0.628650 0.858875 0.608476
O O15 0.618482 0.000000 0.560287
O O16 0.839371 0.660630 0.250000
O O17 0.000000 0.000000 0.382974
#
# Coordination Sequence:
#
# PCOD8311051 Si02
#       8
#     8  16   8  16  16  16  16   8
#     4  11  22  30  48  84 120 158 200 237 284 346
#     4   9  18  33  58  90 118 150 201 241 282 359
#     4   9  18  30  50  86 126 156 189 244 301 345
#     4  11  20  35  58  82 117 161 191 237 294 352
#     4   9  18  33  58  90 118 150 201 241 282 359
#     4  11  26  42  56  84 119 151 198 253 303 357
#     4   9  20  41  63  86 109 148 203 256 305 359
#     4   9  18  30  50  86 126 156 189 244 301 345
#
# _framework density 19.219327
#
# number of rings (size 3 to 8) (size 9 to 14) (size 15 to 20)
#    0.000    2.231    1.538    1.846    4.308    5.538 
#    0.000    3.846    0.000    0.000    0.000    0.000 
#    0.000    0.000    0.000    0.000    0.000    0.000 
#
# Total GULP energy -644596.443241 kJ/mol
# GULP energy per Si atom -12396.085447 kJ/mol
# Density = 1.917558 g / cm^3
# Si number density = 19.219327 Si / 1000 Ang^3
#
#
#
# Elastic Constant Matrix: (Units=GPa)
#
#
# Indices 1 2 3 4 5 6 
#
# 1 108.1549 72.3980 29.9803 0.0000 0.0000 0.0000
# 2 72.3980 108.1548 29.9803 0.0000 0.0000 0.0000
# 3 29.9803 29.9803 62.7875 0.0000 0.0000 0.0000
# 4 0.0000 0.0000 0.0000 28.4937 0.0000 0.0000
# 5 0.0000 0.0000 0.0000 0.0000 28.4936 0.0000
# 6 0.0000 0.0000 0.0000 0.0000 0.0000 35.8667
#
#
#
# Elastic Compliance Matrix: (Units=1/GPa)
#
#
# Indices 1 2 3 4 5 6 
#
# 1 0.017274 -0.010692 -0.003143 0.000000 0.000000 0.000000
# 2 -0.010692 0.017274 -0.003143 0.000000 0.000000 0.000000
# 3 -0.003143 -0.003143 0.018928 0.000000 0.000000 0.000000
# 4 0.000000 0.000000 0.000000 0.035096 0.000000 0.000000
# 5 0.000000 0.000000 0.000000 0.000000 0.035096 0.000000
# 6 0.000000 0.000000 0.000000 0.000000 0.000000 0.027881
#
#
# Mechanical properties :
#
#
# Convention : Reuss Voigt Hill
#
# Bulk Modulus (GPa) = 51.22707 60.42382 55.82545
# Shear Modulus (GPa) = 26.03996 28.35336 27.19666
#
# Velocity S-wave (km/s) = 3.68487 3.84507 3.76582
# Velocity P-wave (km/s) = 6.69449 7.15682 6.92951
#
# Compressibility (1/GPa) = 0.01952093
#
# Stress axis : x y z
#
# Youngs Moduli (GPa) = 57.88886 57.88880 52.83117
#
# Poissons Ratio (x) = 0.61896 0.16605
# Poissons Ratio (y) = 0.61896 0.16605
# Poissons Ratio (z) = 0.18194 0.18194
#
# Static dielectric constant tensor:
#      x y z
#    x 3.612440 0.000000 0.000000 
#    y 0.000000 3.612440 0.000000 
#    z 0.000000 0.000000 3.165740 
# 
# 
# High freq. dielectric constant tensor:
#      x y z
#    x 1.751590 0.000000 0.000000 
#    y 0.000000 1.751590 0.000000 
#    z 0.000000 0.000000 1.711430 
# 
# From -- ./inp_files/6762.got.cif
#   From: 2010.03.12/outbox.cif.g09.slc.cpg/sg119_4_cif.got.tgz:6762.got - 2010.04.14 02:25:26.
