data_PCOD8311833
_publ_section_title
;
Structure prediction by ZEFSAII (Michael W. Deem and Ramdas Pophale) SiO2 
 PCOD8311833
Probable space group: I -4 2 D
;
_chemical_formula_sum "Si O2"
_cell_formula_units_Z 112
_cell_length_a 14.350331
_cell_length_b 14.350331
_cell_length_c 24.469763
_cell_angle_alpha 90.000000
_cell_angle_beta 90.000000
_cell_angle_gamma 90.000000
_cell_volume 5039.107229
_symmetry_space_group_name_H-M "I -4 2 D"
_symmetry_group_IT_number 122
_symmetry_cell_setting 'tetragonal'
loop_
_space_group_symop_operation_xyz
x,y,z
y,-x,-z
-x,-y,z
-y,x,-z
x,1/2-y,1/4-z
-x,1/2+y,1/4-z
-y,1/2-x,1/4+z
y,1/2+x,1/4+z
1/2+x,1/2+y,1/2+z
1/2+y,1/2-x,1/2-z
1/2-x,1/2-y,1/2+z
1/2-y,1/2+x,1/2-z
1/2+x,-y,3/4-z
1/2-x,y,3/4-z
1/2-y,-x,3/4+z
1/2+y,x,3/4+z
loop_
_atom_site_type_symbol
_atom_site_label
_atom_site_fract_x
_atom_site_fract_y
_atom_site_fract_z
Si Si1 0.015403 0.899970 0.363571
Si Si2 0.902711 0.855547 0.102548
Si Si3 0.218858 0.845631 0.650981
Si Si4 0.284323 0.232970 0.733150
Si Si5 0.936918 0.275695 0.435014
Si Si6 0.855787 0.905410 0.859364
Si Si7 0.404732 0.363679 0.245354
O O1 0.053473 0.828142 0.409164
O O2 0.078799 0.920368 0.310150
O O3 0.915153 0.866510 0.342010
O O4 0.000000 0.000000 0.392810
O O5 0.903995 0.750000 0.125000
O O6 0.847235 0.846841 0.045957
O O7 0.852834 0.937263 0.136992
O O8 0.011018 0.889603 0.100804
O O9 0.179936 0.750000 0.625000
O O10 0.268761 0.825175 0.707190
O O11 0.300887 0.900524 0.616274
O O12 0.287407 0.333524 0.707255
O O13 0.176508 0.207745 0.732075
O O14 0.006121 0.302435 0.484863
O O15 0.750000 0.881525 0.875000
O O16 0.873076 0.932679 0.795523
#
# Coordination Sequence:
#
# PCOD8311833 Si02
#       7
#    16  16  16  16  16  16  16
#     4  12  27  45  69 104 140 187 250 302 358 447
#     4   9  21  38  65  96 130 173 224 283 354 423
#     4  11  22  44  69 101 144 186 233 291 365 437
#     4  11  22  43  69  97 135 185 228 288 364 424
#     4  11  24  46  66  99 138 183 237 299 356 426
#     4  10  20  38  66  97 136 179 220 286 359 428
#     4  12  24  43  70 102 137 180 240 293 361 438
#
# _framework density 22.22616
#
# number of rings (size 3 to 8) (size 9 to 14) (size 15 to 20)
#    0.000    1.143    5.714    0.857    8.000    0.000 
#    7.714    0.000    0.000    0.000    0.000    0.000 
#    0.000    0.000    0.000    0.000    0.000    0.000 
#
# Total GULP energy -693784.857690 kJ/mol
# GULP energy per Si atom -12389.015316 kJ/mol
# Density = 2.217557 g / cm^3
# Si number density = 22.226160 Si / 1000 Ang^3
#
#
#
# Elastic Constant Matrix: (Units=GPa)
#
#
# Indices 1 2 3 4 5 6 
#
# 1 112.3327 27.8993 23.6626 0.0000 0.0000 0.0000
# 2 27.8993 112.3327 23.6626 0.0000 0.0000 0.0000
# 3 23.6626 23.6626 86.0866 0.0000 0.0000 0.0000
# 4 0.0000 0.0000 0.0000 35.1355 0.0000 0.0000
# 5 0.0000 0.0000 0.0000 0.0000 35.1355 0.0000
# 6 0.0000 0.0000 0.0000 0.0000 0.0000 27.1503
#
#
#
# Elastic Compliance Matrix: (Units=1/GPa)
#
#
# Indices 1 2 3 4 5 6 
#
# 1 0.009852 -0.001992 -0.002161 0.000000 0.000000 0.000000
# 2 -0.001992 0.009852 -0.002161 0.000000 0.000000 0.000000
# 3 -0.002161 -0.002161 0.012804 0.000000 0.000000 0.000000
# 4 0.000000 0.000000 0.000000 0.028461 0.000000 0.000000
# 5 0.000000 0.000000 0.000000 0.000000 0.028461 0.000000
# 6 0.000000 0.000000 0.000000 0.000000 0.000000 0.036832
#
#
# Mechanical properties :
#
#
# Convention : Reuss Voigt Hill
#
# Bulk Modulus (GPa) = 50.29627 51.24454 50.77040
# Shear Modulus (GPa) = 34.36066 35.18608 34.77337
#
# Velocity S-wave (km/s) = 3.93613 3.98313 3.95970
# Velocity P-wave (km/s) = 6.58300 6.65280 6.61799
#
# Compressibility (1/GPa) = 0.01988219
#
# Stress axis : x y z
#
# Youngs Moduli (GPa) = 101.50311 101.50311 78.10094
#
# Poissons Ratio (x) = 0.20217 0.16874
# Poissons Ratio (y) = 0.20217 0.16874
# Poissons Ratio (z) = 0.21930 0.21930
#
# Static dielectric constant tensor:
#      x y z
#    x 3.963550 0.000000 0.000000 
#    y 0.000000 3.963550 0.000000 
#    z 0.000000 0.000000 4.266070 
# 
# 
# High freq. dielectric constant tensor:
#      x y z
#    x 1.883630 0.000000 0.000000 
#    y 0.000000 1.883630 0.000000 
#    z 0.000000 0.000000 1.861320 
# 
# From -- ./inp_files/8146.got.cif
#   From: 2010.03.12/outbox.cif.g09.slc.cpg/sg122_5_cif.got.tgz:8146.got - 2010.04.06 16:17:16.
