data_PCOD8311547
_publ_section_title
;
Structure prediction by ZEFSAII (Michael W. Deem and Ramdas Pophale) SiO2 
 PCOD8311547
Probable space group: I -4 2 M
;
_chemical_formula_sum "Si O2"
_cell_formula_units_Z 112
_cell_length_a 14.536771
_cell_length_b 14.536771
_cell_length_c 28.866902
_cell_angle_alpha 90.000000
_cell_angle_beta 90.000000
_cell_angle_gamma 90.000000
_cell_volume 6100.087657
_symmetry_space_group_name_H-M "I -4 2 M"
_symmetry_group_IT_number 121
_symmetry_cell_setting 'tetragonal'
loop_
_space_group_symop_operation_xyz
x,y,z
y,-x,-z
-x,-y,z
-y,x,-z
x,-y,-z
-x,y,-z
-y,-x,z
y,x,z
1/2+x,1/2+y,1/2+z
1/2+y,1/2-x,1/2-z
1/2-x,1/2-y,1/2+z
1/2-y,1/2+x,1/2-z
1/2+x,1/2-y,1/2-z
1/2-x,1/2+y,1/2-z
1/2-y,1/2-x,1/2+z
1/2+y,1/2+x,1/2+z
loop_
_atom_site_type_symbol
_atom_site_label
_atom_site_fract_x
_atom_site_fract_y
_atom_site_fract_z
Si Si1 0.039237 0.186208 0.952903
Si Si2 0.232574 0.614023 0.936035
Si Si3 0.463839 0.143508 0.698343
Si Si4 0.350615 0.036629 0.302951
Si Si5 0.608181 0.755561 0.616123
Si Si6 0.180625 0.670252 0.030810
Si Si7 0.572655 0.275166 0.111728
O O1 0.117076 0.117076 0.932547
O O2 0.078665 0.288300 0.964578
O O3 0.956838 0.196780 0.917084
O O4 0.000000 0.142903 0.000000
O O5 0.310005 0.689996 0.936692
O O6 0.144342 0.649277 0.906831
O O7 0.282155 0.525367 0.913797
O O8 0.194025 0.597004 0.988627
O O9 0.565397 0.105693 0.689011
O O10 0.454260 0.183981 0.750104
O O11 0.448189 0.225351 0.662683
O O12 0.386711 0.066269 0.689020
O O13 0.266173 0.061070 0.336831
O O14 0.695342 0.695342 0.630087
O O15 0.244756 0.755245 0.017306
O O16 0.204070 0.629650 0.080829
O O17 0.625820 0.374181 0.114118
#
# Coordination Sequence:
#
# PCOD8311547 Si02
#       7
#    16  16  16  16  16  16  16
#     4  11  21  35  55  81 112 149 189 227 276 335
#     4  10  20  36  54  76 110 148 189 229 271 330
#     4   9  18  35  57  79 108 142 180 233 288 332
#     4   9  18  34  57  82 107 138 183 237 282 332
#     4  11  21  34  55  80 110 150 187 230 279 333
#     4   9  19  35  53  77 112 145 180 230 276 320
#     4  11  21  34  56  82 112 147 181 231 285 331
#
# _framework density 18.360392000000001
#
# number of rings (size 3 to 8) (size 9 to 14) (size 15 to 20)
#    0.000    2.000    2.857    2.571    0.000    1.857 
#    0.000    0.000    0.000    4.286    0.000    2.000 
#    0.000    0.000    0.000    0.000    0.000    0.000 
#
# Total GULP energy -694100.528778 kJ/mol
# GULP energy per Si atom -12394.652300 kJ/mol
# Density = 1.831860 g / cm^3
# Si number density = 18.360392 Si / 1000 Ang^3
#
#
#
# Elastic Constant Matrix: (Units=GPa)
#
#
# Indices 1 2 3 4 5 6 
#
# 1 56.5226 8.6676 18.9375 0.0000 0.0000 0.0000
# 2 8.6676 56.5200 18.9369 0.0000 0.0000 0.0000
# 3 18.9375 18.9369 91.1984 0.0000 0.0000 0.0000
# 4 0.0000 0.0000 0.0000 26.8705 0.0000 0.0000
# 5 0.0000 0.0000 0.0000 0.0000 26.8704 0.0000
# 6 0.0000 0.0000 0.0000 0.0000 0.0000 29.5649
#
#
#
# Elastic Compliance Matrix: (Units=1/GPa)
#
#
# Indices 1 2 3 4 5 6 
#
# 1 0.019170 -0.001726 -0.003622 0.000000 0.000000 0.000000
# 2 -0.001726 0.019171 -0.003622 0.000000 0.000000 0.000000
# 3 -0.003622 -0.003622 0.012469 0.000000 0.000000 0.000000
# 4 0.000000 0.000000 0.000000 0.037216 0.000000 0.000000
# 5 0.000000 0.000000 0.000000 0.000000 0.037216 0.000000
# 6 0.000000 0.000000 0.000000 0.000000 0.000000 0.033824
#
#
# Mechanical properties :
#
#
# Convention : Reuss Voigt Hill
#
# Bulk Modulus (GPa) = 30.42356 33.03612 31.72984
# Shear Modulus (GPa) = 26.60079 27.17443 26.88761
#
# Velocity S-wave (km/s) = 3.81046 3.85132 3.83095
# Velocity P-wave (km/s) = 5.99714 6.14891 6.07350
#
# Compressibility (1/GPa) = 0.03286926
#
# Stress axis : x y z
#
# Youngs Moduli (GPa) = 52.16384 52.16150 80.19602
#
# Poissons Ratio (x) = 0.09004 0.29050
# Poissons Ratio (y) = 0.09005 0.29050
# Poissons Ratio (z) = 0.18895 0.18895
#
# Static dielectric constant tensor:
#      x y z
#    x 3.243950 0.000000 0.000000 
#    y 0.000000 3.243950 0.000000 
#    z 0.000000 0.000000 3.430450 
# 
# 
# High freq. dielectric constant tensor:
#      x y z
#    x 1.697410 0.000000 0.000000 
#    y 0.000000 1.697410 0.000000 
#    z 0.000000 0.000000 1.717050 
# 
# From -- ./inp_files/7745.got.cif
#   From: 2010.03.12/outbox.cif.g09.slc.cpg/sg121_4_cif.got.tgz:7745.got - 2010.04.06 16:06:48.
