data_PCOD8311741
_publ_section_title
;
Structure prediction by ZEFSAII (Michael W. Deem and Ramdas Pophale) SiO2 
 PCOD8311741
Probable space group: I -4 2 D
;
_chemical_formula_sum "Si O2"
_cell_formula_units_Z 80
_cell_length_a 11.238961
_cell_length_b 11.238961
_cell_length_c 30.708975
_cell_angle_alpha 90.000000
_cell_angle_beta 90.000000
_cell_angle_gamma 90.000000
_cell_volume 3878.980972
_symmetry_space_group_name_H-M "I -4 2 D"
_symmetry_group_IT_number 122
_symmetry_cell_setting 'tetragonal'
loop_
_space_group_symop_operation_xyz
x,y,z
y,-x,-z
-x,-y,z
-y,x,-z
x,1/2-y,1/4-z
-x,1/2+y,1/4-z
-y,1/2-x,1/4+z
y,1/2+x,1/4+z
1/2+x,1/2+y,1/2+z
1/2+y,1/2-x,1/2-z
1/2-x,1/2-y,1/2+z
1/2-y,1/2+x,1/2-z
1/2+x,-y,3/4-z
1/2-x,y,3/4-z
1/2-y,-x,3/4+z
1/2+y,x,3/4+z
loop_
_atom_site_type_symbol
_atom_site_label
_atom_site_fract_x
_atom_site_fract_y
_atom_site_fract_z
Si Si1 0.804866 0.998199 0.158619
Si Si2 0.009438 0.357514 0.315281
Si Si3 0.652497 0.913557 0.232177
Si Si4 0.848609 0.713504 0.236466
Si Si5 0.681437 0.993125 0.918671
O O1 0.883803 0.097580 0.183298
O O2 0.781669 0.036597 0.108786
O O3 0.683078 0.972253 0.184975
O O4 0.884369 0.880740 0.154499
O O5 0.892822 0.298670 0.293519
O O6 0.000000 0.500000 0.325084
O O7 0.121947 0.336995 0.284148
O O8 0.522513 0.850865 0.232435
O O9 0.755848 0.820425 0.243429
O O10 0.972753 0.748317 0.212487
O O11 0.750000 0.951574 0.875000
#
# Coordination Sequence:
#
# PCOD8311741 Si02
#       5
#    16  16  16  16  16
#     4  10  21  36  64  90 124 168 213 265 316 399
#     4  12  20  36  63 110 145 160 189 273 366 415
#     4  10  25  47  66  79 120 185 243 272 309 371
#     4  11  22  35  65  97 138 172 200 267 340 408
#     4  10  18  33  56  95 132 164 202 242 327 411
#
# _framework density 20.623974
#
# number of rings (size 3 to 8) (size 9 to 14) (size 15 to 20)
#    0.000    1.400    6.000    0.000    2.800    0.000 
#    0.000    0.000   17.600    0.000    0.000    0.000 
#    0.000    0.000    0.000    0.000    0.000    0.000 
#
# Total GULP energy -495570.735537 kJ/mol
# GULP energy per Si atom -12389.268388 kJ/mol
# Density = 2.057703 g / cm^3
# Si number density = 20.623974 Si / 1000 Ang^3
#
#
#
# Elastic Constant Matrix: (Units=GPa)
#
#
# Indices 1 2 3 4 5 6 
#
# 1 96.5879 40.8759 36.3311 0.0000 0.0000 0.0000
# 2 40.8759 96.5879 36.3311 0.0000 0.0000 0.0000
# 3 36.3311 36.3311 102.2284 0.0000 0.0000 0.0000
# 4 0.0000 0.0000 0.0000 28.2068 0.0000 0.0000
# 5 0.0000 0.0000 0.0000 0.0000 28.2068 0.0000
# 6 0.0000 0.0000 0.0000 0.0000 0.0000 41.5233
#
#
#
# Elastic Compliance Matrix: (Units=1/GPa)
#
#
# Indices 1 2 3 4 5 6 
#
# 1 0.013453 -0.004496 -0.003183 0.000000 0.000000 0.000000
# 2 -0.004496 0.013453 -0.003183 0.000000 0.000000 0.000000
# 3 -0.003183 -0.003183 0.012045 0.000000 0.000000 0.000000
# 4 0.000000 0.000000 0.000000 0.035452 0.000000 0.000000
# 5 0.000000 0.000000 0.000000 0.000000 0.035452 0.000000
# 6 0.000000 0.000000 0.000000 0.000000 0.000000 0.024083
#
#
# Mechanical properties :
#
#
# Convention : Reuss Voigt Hill
#
# Bulk Modulus (GPa) = 58.05198 58.05334 58.05266
# Shear Modulus (GPa) = 30.97766 31.71181 31.34473
#
# Velocity S-wave (km/s) = 3.87980 3.92550 3.90272
# Velocity P-wave (km/s) = 6.94833 6.98253 6.96545
#
# Compressibility (1/GPa) = 0.01722594
#
# Stress axis : x y z
#
# Youngs Moduli (GPa) = 74.33067 74.33067 83.02409
#
# Poissons Ratio (x) = 0.33419 0.26430
# Poissons Ratio (y) = 0.33419 0.26430
# Poissons Ratio (z) = 0.23662 0.23662
#
# Static dielectric constant tensor:
#      x y z
#    x 3.762430 0.000000 0.000000 
#    y 0.000000 3.762430 0.000000 
#    z 0.000000 0.000000 3.918560 
# 
# 
# High freq. dielectric constant tensor:
#      x y z
#    x 1.793600 0.000000 0.000000 
#    y 0.000000 1.793600 0.000000 
#    z 0.000000 0.000000 1.804580 
# 
# From -- ./inp_files/9351.got.cif
#   From: 2010.03.12/outbox.cif.g09.slc.cpg/sg122_5_cif.got.tgz:9351.got - 2010.04.06 16:17:16.
