data_PCOD8311129
_publ_section_title
;
Structure prediction by ZEFSAII (Michael W. Deem and Ramdas Pophale) SiO2 
 PCOD8311129
Probable space group: I -4 C 2
;
_chemical_formula_sum "Si O2"
_cell_formula_units_Z 120
_cell_length_a 15.252231
_cell_length_b 15.252231
_cell_length_c 26.584751
_cell_angle_alpha 90.000000
_cell_angle_beta 90.000000
_cell_angle_gamma 90.000000
_cell_volume 6184.425259
_symmetry_space_group_name_H-M "I -4 C 2"
_symmetry_group_IT_number 120
_symmetry_cell_setting 'tetragonal'
loop_
_space_group_symop_operation_xyz
x,y,z
y,-x,-z
-x,-y,z
-y,x,-z
y,x,1/2-z
-y,-x,1/2-z
-x,y,1/2+z
x,-y,1/2+z
1/2+x,1/2+y,1/2+z
1/2+y,1/2-x,1/2-z
1/2-x,1/2-y,1/2+z
1/2-y,1/2+x,1/2-z
1/2+y,1/2+x,-z
1/2-y,1/2-x,-z
1/2-x,1/2+y,z
1/2+x,1/2-y,z
loop_
_atom_site_type_symbol
_atom_site_label
_atom_site_fract_x
_atom_site_fract_y
_atom_site_fract_z
Si Si1 0.315860 0.571503 0.715603
Si Si2 0.410782 0.904965 0.441869
Si Si3 0.671192 0.565415 0.787087
Si Si4 0.917016 0.945458 0.868924
Si Si5 0.597861 0.902726 0.413734
Si Si6 0.310622 0.189379 0.500000
Si Si7 0.302412 0.804008 0.834793
Si Si8 0.780526 0.169053 0.423041
O O1 0.395094 0.604907 0.750000
O O2 0.270544 0.493007 0.747880
O O3 0.360590 0.545798 0.661830
O O4 0.243274 0.645711 0.709633
O O5 0.425039 0.925039 0.500000
O O6 0.502016 0.857196 0.424488
O O7 0.320518 0.855150 0.432485
O O8 0.408474 0.993705 0.410390
O O9 0.592191 0.592191 0.750000
O O10 0.638198 0.510421 0.834305
O O11 0.720913 0.649308 0.808609
O O12 0.848085 0.910755 0.911355
O O13 0.000000 0.000000 0.892107
O O14 0.671584 0.880717 0.455975
O O15 0.631339 0.873057 0.359554
O O16 0.215026 0.181209 0.526472
O O17 0.271733 0.734246 0.876165
#
# Coordination Sequence:
#
# PCOD8311129 Si02
#       8
#    16  16  16  16  16   8  16  16
#     4   9  19  35  57  78 114 157 197 242 294 370
#     4  11  19  37  61  85 102 159 203 240 293 369
#     4  11  20  34  61  85 114 160 209 246 308 377
#     4  10  19  37  59  90 117 158 206 252 302 370
#     4  10  20  36  61  81 114 149 207 244 294 371
#     4  10  18  37  56  87 116 162 186 252 308 356
#     4  10  22  37  51  89 121 150 194 260 305 354
#     4  10  22  36  61  87 126 153 202 253 314 367
#
# _framework density 19.403580000000002
#
# number of rings (size 3 to 8) (size 9 to 14) (size 15 to 20)
#    0.000    1.867    3.333    1.600    0.000    1.067 
#    2.400    2.667    2.933    0.000    0.000    0.000 
#    0.000    0.000    0.000    0.000    0.000    0.000 
#
# Total GULP energy -743316.356807 kJ/mol
# GULP energy per Si atom -12388.605947 kJ/mol
# Density = 1.935942 g / cm^3
# Si number density = 19.403580 Si / 1000 Ang^3
#
#
#
# Elastic Constant Matrix: (Units=GPa)
#
#
# Indices 1 2 3 4 5 6 
#
# 1 86.0458 41.5146 28.3888 0.0000 0.0000 0.0000
# 2 41.5146 86.0461 28.3890 0.0000 0.0000 0.0000
# 3 28.3888 28.3890 58.5339 0.0000 0.0000 0.0000
# 4 0.0000 0.0000 0.0000 28.9069 0.0000 0.0000
# 5 0.0000 0.0000 0.0000 0.0000 28.9066 0.0000
# 6 0.0000 0.0000 0.0000 0.0000 0.0000 38.3199
#
#
#
# Elastic Compliance Matrix: (Units=1/GPa)
#
#
# Indices 1 2 3 4 5 6 
#
# 1 0.016227 -0.006229 -0.004849 0.000000 0.000000 0.000000
# 2 -0.006229 0.016227 -0.004849 0.000000 0.000000 0.000000
# 3 -0.004849 -0.004849 0.021787 0.000000 0.000000 0.000000
# 4 0.000000 0.000000 0.000000 0.034594 0.000000 0.000000
# 5 0.000000 0.000000 0.000000 0.000000 0.034594 0.000000
# 6 0.000000 0.000000 0.000000 0.000000 0.000000 0.026096
#
#
# Mechanical properties :
#
#
# Convention : Reuss Voigt Hill
#
# Bulk Modulus (GPa) = 44.66801 47.46786 46.06794
# Shear Modulus (GPa) = 26.47721 28.04891 27.26306
#
# Velocity S-wave (km/s) = 3.69799 3.80617 3.75247
# Velocity P-wave (km/s) = 6.42682 6.62061 6.52443
#
# Compressibility (1/GPa) = 0.02238739
#
# Stress axis : x y z
#
# Youngs Moduli (GPa) = 61.62609 61.62623 45.89791
#
# Poissons Ratio (x) = 0.38388 0.22255
# Poissons Ratio (y) = 0.38388 0.22255
# Poissons Ratio (z) = 0.29881 0.29882
#
# Static dielectric constant tensor:
#      x y z
#    x 3.617860 0.000000 0.000000 
#    y 0.000000 3.617850 0.000000 
#    z 0.000000 0.000000 3.573680 
# 
# 
# High freq. dielectric constant tensor:
#      x y z
#    x 1.749100 0.000000 0.000000 
#    y 0.000000 1.749100 0.000000 
#    z 0.000000 0.000000 1.746270 
# 
# From -- ./inp_files/6719.got.cif
#   From: 2010.03.12/outbox.cif.g09.slc.cpg/sg120_4_cif.got.tgz:6719.got - 2010.04.06 16:00:44.
