data_PCOD8311035
_publ_section_title
;
Structure prediction by ZEFSAII (Michael W. Deem and Ramdas Pophale) SiO2 
 PCOD8311035
Probable space group: I -4 M 2
;
_chemical_formula_sum "Si O2"
_cell_formula_units_Z 96
_cell_length_a 15.201543
_cell_length_b 15.201543
_cell_length_c 19.266474
_cell_angle_alpha 90.000000
_cell_angle_beta 90.000000
_cell_angle_gamma 90.000000
_cell_volume 4452.229935
_symmetry_space_group_name_H-M "I -4 M 2"
_symmetry_group_IT_number 119
_symmetry_cell_setting 'tetragonal'
loop_
_space_group_symop_operation_xyz
x,y,z
y,-x,-z
-x,-y,z
-y,x,-z
y,x,-z
-y,-x,-z
-x,y,z
x,-y,z
1/2+x,1/2+y,1/2+z
1/2+y,1/2-x,1/2-z
1/2-x,1/2-y,1/2+z
1/2-y,1/2+x,1/2-z
1/2+y,1/2+x,1/2-z
1/2-y,1/2-x,1/2-z
1/2-x,1/2+y,1/2+z
1/2+x,1/2-y,1/2+z
loop_
_atom_site_type_symbol
_atom_site_label
_atom_site_fract_x
_atom_site_fract_y
_atom_site_fract_z
Si Si1 0.282282 0.599641 0.682887
Si Si2 0.900976 0.168816 0.664103
Si Si3 0.903984 0.833979 0.065764
Si Si4 0.902772 0.635818 0.630813
Si Si5 0.789319 0.903726 0.550081
Si Si6 0.137111 0.403608 0.476226
O O1 0.312845 0.500000 0.671473
O O2 0.314020 0.633303 0.757820
O O3 0.328214 0.656990 0.623362
O O4 0.175974 0.604945 0.681214
O O5 0.900210 0.259534 0.621346
O O6 0.832685 0.104303 0.626408
O O7 0.000000 0.129254 0.664671
O O8 0.893403 0.740415 0.030097
O O9 0.000000 0.846700 0.101084
O O10 0.898938 0.898938 0.000000
O O11 0.889149 0.592722 0.556350
O O12 0.000000 0.608281 0.660112
O O13 0.827784 0.827784 0.500000
O O14 0.683118 0.903107 0.559904
O O15 0.815190 0.000000 0.520187
O O16 0.107112 0.500000 0.444754
#
# Coordination Sequence:
#
# PCOD8311035 Si02
#       6
#    16  16  16  16  16  16
#     4  11  23  39  60  91 132 169 211 266 317 378
#     4  10  23  41  61  90 130 172 212 257 311 375
#     4  11  22  38  62  91 125 169 216 262 317 376
#     4  11  21  38  62  90 126 168 211 257 315 380
#     4  12  24  41  67  95 128 169 215 265 316 375
#     4  11  23  40  64  94 128 164 209 268 324 375
#
# _framework density 21.56223
#
# number of rings (size 3 to 8) (size 9 to 14) (size 15 to 20)
#    0.000    1.000    3.333    4.000    0.000    5.333 
#    0.000    2.500    0.000    6.000    0.000    1.167 
#    0.000    5.333    0.000    0.000    0.000    0.000 
#
# Total GULP energy -594902.176463 kJ/mol
# GULP energy per Si atom -12393.795343 kJ/mol
# Density = 2.151315 g / cm^3
# Si number density = 21.562230 Si / 1000 Ang^3
#
#
#
# Elastic Constant Matrix: (Units=GPa)
#
#
# Indices 1 2 3 4 5 6 
#
# 1 120.8176 41.4099 44.9560 0.0000 0.0000 0.0000
# 2 41.4099 120.8176 44.9560 0.0000 0.0000 0.0000
# 3 44.9560 44.9560 98.7324 0.0000 0.0000 0.0000
# 4 0.0000 0.0000 0.0000 29.0258 0.0000 0.0000
# 5 0.0000 0.0000 0.0000 0.0000 29.0258 0.0000
# 6 0.0000 0.0000 0.0000 0.0000 0.0000 7.7495
#
#
#
# Elastic Compliance Matrix: (Units=1/GPa)
#
#
# Indices 1 2 3 4 5 6 
#
# 1 0.010419 -0.002174 -0.003754 0.000000 0.000000 0.000000
# 2 -0.002174 0.010419 -0.003754 0.000000 0.000000 0.000000
# 3 -0.003754 -0.003754 0.013547 0.000000 0.000000 0.000000
# 4 0.000000 0.000000 0.000000 0.034452 0.000000 0.000000
# 5 0.000000 0.000000 0.000000 0.000000 0.034452 0.000000
# 6 0.000000 0.000000 0.000000 0.000000 0.000000 0.129041
#
#
# Mechanical properties :
#
#
# Convention : Reuss Voigt Hill
#
# Bulk Modulus (GPa) = 66.57662 67.00125 66.78894
# Shear Modulus (GPa) = 19.47779 27.09659 23.28719
#
# Velocity S-wave (km/s) = 3.00880 3.54880 3.28990
# Velocity P-wave (km/s) = 6.55851 6.92336 6.74340
#
# Compressibility (1/GPa) = 0.01502029
#
# Stress axis : x y z
#
# Youngs Moduli (GPa) = 95.97802 95.97802 73.81622
#
# Poissons Ratio (x) = 0.20867 0.27712
# Poissons Ratio (y) = 0.20867 0.27712
# Poissons Ratio (z) = 0.36032 0.36032
#
# Static dielectric constant tensor:
#      x y z
#    x 4.024590 0.000000 0.000000 
#    y 0.000000 4.024590 0.000000 
#    z 0.000000 0.000000 3.624040 
# 
# 
# High freq. dielectric constant tensor:
#      x y z
#    x 1.849520 0.000000 0.000000 
#    y 0.000000 1.849520 0.000000 
#    z 0.000000 0.000000 1.820530 
# 
# From -- ./inp_files/7786.got.cif
#   From: 2010.03.12/outbox.cif.g09.slc.cpg/sg119_4_cif.got.tgz:7786.got - 2010.04.14 02:25:26.
