data_PCOD8311310
_publ_section_title
;
Structure prediction by ZEFSAII (Michael W. Deem and Ramdas Pophale) SiO2 
 PCOD8311310
Probable space group: I -4 C 2
;
_chemical_formula_sum "Si O2"
_cell_formula_units_Z 96
_cell_length_a 14.660465
_cell_length_b 14.660465
_cell_length_c 19.667367
_cell_angle_alpha 90.000000
_cell_angle_beta 90.000000
_cell_angle_gamma 90.000000
_cell_volume 4227.092124
_symmetry_space_group_name_H-M "I -4 C 2"
_symmetry_group_IT_number 120
_symmetry_cell_setting 'tetragonal'
loop_
_space_group_symop_operation_xyz
x,y,z
y,-x,-z
-x,-y,z
-y,x,-z
y,x,1/2-z
-y,-x,1/2-z
-x,y,1/2+z
x,-y,1/2+z
1/2+x,1/2+y,1/2+z
1/2+y,1/2-x,1/2-z
1/2-x,1/2-y,1/2+z
1/2-y,1/2+x,1/2-z
1/2+y,1/2+x,-z
1/2-y,1/2-x,-z
1/2-x,1/2+y,z
1/2+x,1/2-y,z
loop_
_atom_site_type_symbol
_atom_site_label
_atom_site_fract_x
_atom_site_fract_y
_atom_site_fract_z
Si Si1 0.075420 0.075420 0.173672
Si Si2 0.100177 0.386088 0.250000
Si Si3 0.162894 0.687733 0.387639
Si Si4 0.477605 0.731053 0.427326
Si Si5 0.522395 0.731053 0.572674
Si Si6 0.187733 0.662895 0.887639
O O1 0.105917 0.105917 0.250000
O O2 0.159212 0.032743 0.132935
O O3 0.032743 0.159212 0.132935
O O4 0.000000 0.000000 0.181230
O O5 0.127476 0.491888 0.250000
O O6 0.142169 0.333885 0.186164
O O7 0.142170 0.333885 0.313835
O O8 0.212673 0.616148 0.437799
O O9 0.216103 0.783897 0.387554
O O10 0.058882 0.700154 0.409551
O O11 0.500000 0.683238 0.500000
O O12 0.383852 0.787327 0.437799
O O13 0.441118 0.799846 0.590449
#
# Coordination Sequence:
#
# PCOD8311310 Si02
#       6
#    16  16  16  16  16  16
#     4  11  28  50  73 108 152 193 254 311 373 450
#     4  11  23  44  72 104 139 195 250 308 376 452
#     4  12  26  46  73 106 150 192 250 308 382 447
#     4  12  28  47  76 109 149 195 250 308 378 451
#     4  12  28  47  76 109 149 195 250 308 378 451
#     4  12  26  46  73 106 150 192 250 308 382 447
#
# _framework density 22.710646000000001
#
# number of rings (size 3 to 8) (size 9 to 14) (size 15 to 20)
#    0.000    0.333    5.000    2.500    9.333    2.000 
#    0.000    1.667    0.000    0.000    0.000    0.000 
#    0.000    0.000    0.000    0.000    0.000    0.000 
#
# Total GULP energy -595415.904850 kJ/mol
# GULP energy per Si atom -12404.498018 kJ/mol
# Density = 2.265896 g / cm^3
# Si number density = 22.710646 Si / 1000 Ang^3
#
#
#
# Elastic Constant Matrix: (Units=GPa)
#
#
# Indices 1 2 3 4 5 6 
#
# 1 105.3378 30.4361 29.6203 0.0000 0.0000 0.0000
# 2 30.4361 105.3378 29.6203 0.0000 0.0000 0.0000
# 3 29.6203 29.6203 158.4778 0.0000 0.0000 0.0000
# 4 0.0000 0.0000 0.0000 36.0561 0.0000 0.0000
# 5 0.0000 0.0000 0.0000 0.0000 36.0561 0.0000
# 6 0.0000 0.0000 0.0000 0.0000 0.0000 44.4969
#
#
#
# Elastic Compliance Matrix: (Units=1/GPa)
#
#
# Indices 1 2 3 4 5 6 
#
# 1 0.010685 -0.002666 -0.001499 0.000000 0.000000 0.000000
# 2 -0.002666 0.010685 -0.001499 0.000000 0.000000 0.000000
# 3 -0.001499 -0.001499 0.006870 0.000000 0.000000 0.000000
# 4 0.000000 0.000000 0.000000 0.027735 0.000000 0.000000
# 5 0.000000 0.000000 0.000000 0.000000 0.027735 0.000000
# 6 0.000000 0.000000 0.000000 0.000000 0.000000 0.022473
#
#
# Mechanical properties :
#
#
# Convention : Reuss Voigt Hill
#
# Bulk Modulus (GPa) = 59.12500 60.94522 60.03511
# Shear Modulus (GPa) = 40.60169 41.95361 41.27765
#
# Velocity S-wave (km/s) = 4.23280 4.30270 4.26789
# Velocity P-wave (km/s) = 7.06961 7.18179 7.12592
#
# Compressibility (1/GPa) = 0.01691332
#
# Stress axis : x y z
#
# Youngs Moduli (GPa) = 93.58926 93.58926 145.55387
#
# Poissons Ratio (x) = 0.24949 0.21816
# Poissons Ratio (y) = 0.24949 0.21816
# Poissons Ratio (z) = 0.14027 0.14027
#
# Static dielectric constant tensor:
#      x y z
#    x 4.091110 0.000000 0.000000 
#    y 0.000000 4.091110 0.000000 
#    z 0.000000 0.000000 4.382610 
# 
# 
# High freq. dielectric constant tensor:
#      x y z
#    x 1.900430 0.000000 0.000000 
#    y 0.000000 1.900430 0.000000 
#    z 0.000000 0.000000 1.913540 
# 
# From -- ./inp_files/5347.got.cif
#   From: 2010.03.12/outbox.cif.g09.slc.cpg/sg120_3_cif.got.tgz:5347.got - 2010.04.06 16:00:44.
