data_PCOD8311892
_publ_section_title
;
Structure prediction by ZEFSAII (Michael W. Deem and Ramdas Pophale) SiO2 
 PCOD8311892
Probable space group: I -4 2 D
;
_chemical_formula_sum "Si O2"
_cell_formula_units_Z 52
_cell_length_a 15.521173
_cell_length_b 15.521173
_cell_length_c 9.460738
_cell_angle_alpha 90.000000
_cell_angle_beta 90.000000
_cell_angle_gamma 90.000000
_cell_volume 2279.156224
_symmetry_space_group_name_H-M "I -4 2 D"
_symmetry_group_IT_number 122
_symmetry_cell_setting 'tetragonal'
loop_
_space_group_symop_operation_xyz
x,y,z
y,-x,-z
-x,-y,z
-y,x,-z
x,1/2-y,1/4-z
-x,1/2+y,1/4-z
-y,1/2-x,1/4+z
y,1/2+x,1/4+z
1/2+x,1/2+y,1/2+z
1/2+y,1/2-x,1/2-z
1/2-x,1/2-y,1/2+z
1/2-y,1/2+x,1/2-z
1/2+x,-y,3/4-z
1/2-x,y,3/4-z
1/2-y,-x,3/4+z
1/2+y,x,3/4+z
loop_
_atom_site_type_symbol
_atom_site_label
_atom_site_fract_x
_atom_site_fract_y
_atom_site_fract_z
Si Si1 0.419910 0.376394 0.163387
Si Si2 0.735655 0.150316 0.155349
Si Si3 0.500000 0.000000 0.750000
Si Si4 0.434472 0.097827 0.493284
O O1 0.390687 0.328125 0.308565
O O2 0.388131 0.474331 0.166007
O O3 0.524503 0.378227 0.160998
O O4 0.375077 0.329784 0.031987
O O5 0.748033 0.250000 0.125000
O O6 0.690100 0.112964 0.013773
O O7 0.448616 0.068542 0.654434
#
# Coordination Sequence:
#
# PCOD8311892 Si02
#       4
#    16  16   4  16
#     4   9  22  43  63 103 134 174 240 278 355 425
#     4  11  23  39  70 105 138 175 235 298 349 423
#     4   8  20  44  62 104 128 184 252 258 372 420
#     4  10  21  44  70  89 138 188 226 298 338 429
#
# _framework density 22.815462
#
# number of rings (size 3 to 8) (size 9 to 14) (size 15 to 20)
#    0.000    2.462    0.000    1.846    8.615    4.923 
#   22.154    0.000    0.000    0.000    0.000    0.000 
#    0.000    0.000    0.000    0.000    0.000    0.000 
#
# Total GULP energy -322129.655010 kJ/mol
# GULP energy per Si atom -12389.602116 kJ/mol
# Density = 2.276353 g / cm^3
# Si number density = 22.815462 Si / 1000 Ang^3
#
#
#
# Elastic Constant Matrix: (Units=GPa)
#
#
# Indices 1 2 3 4 5 6 
#
# 1 100.6427 72.6855 20.8733 0.0000 0.0000 0.0000
# 2 72.6855 100.6427 20.8733 0.0000 0.0000 0.0000
# 3 20.8733 20.8733 92.4067 0.0000 0.0000 0.0000
# 4 0.0000 0.0000 0.0000 35.0639 0.0000 0.0000
# 5 0.0000 0.0000 0.0000 0.0000 35.0639 0.0000
# 6 0.0000 0.0000 0.0000 0.0000 0.0000 33.7911
#
#
#
# Elastic Compliance Matrix: (Units=1/GPa)
#
#
# Indices 1 2 3 4 5 6 
#
# 1 0.020935 -0.014834 -0.001378 0.000000 0.000000 0.000000
# 2 -0.014834 0.020935 -0.001378 0.000000 0.000000 0.000000
# 3 -0.001378 -0.001378 0.011444 0.000000 0.000000 0.000000
# 4 0.000000 0.000000 0.000000 0.028519 0.000000 0.000000
# 5 0.000000 0.000000 0.000000 0.000000 0.028519 0.000000
# 6 0.000000 0.000000 0.000000 0.000000 0.000000 0.029594
#
#
# Mechanical properties :
#
#
# Convention : Reuss Voigt Hill
#
# Bulk Modulus (GPa) = 55.14432 58.06181 56.60306
# Shear Modulus (GPa) = 27.59807 32.73447 30.16627
#
# Velocity S-wave (km/s) = 3.48173 3.79192 3.64013
# Velocity P-wave (km/s) = 6.35496 6.68395 6.52153
#
# Compressibility (1/GPa) = 0.01813424
#
# Stress axis : x y z
#
# Youngs Moduli (GPa) = 47.76652 47.76652 87.37935
#
# Poissons Ratio (x) = 0.70856 0.12043
# Poissons Ratio (y) = 0.70856 0.12043
# Poissons Ratio (z) = 0.06583 0.06583
#
# Static dielectric constant tensor:
#      x y z
#    x 4.200570 0.000000 0.000000 
#    y 0.000000 4.200570 0.000000 
#    z 0.000000 0.000000 4.150350 
# 
# 
# High freq. dielectric constant tensor:
#      x y z
#    x 1.896500 0.000000 0.000000 
#    y 0.000000 1.896500 0.000000 
#    z 0.000000 0.000000 1.898370 
# 
# From -- ./inp_files/2179.got.cif
#   From: 2010.03.12/outbox.cif.g09.slc.cpg/sg122_2_cif.got.tgz:2179.got - 2010.04.06 16:17:16.
