data_PCOD8311839
_publ_section_title
;
Structure prediction by ZEFSAII (Michael W. Deem and Ramdas Pophale) SiO2 
 PCOD8311839
Probable space group: I -4 2 D
;
_chemical_formula_sum "Si O2"
_cell_formula_units_Z 112
_cell_length_a 14.284609
_cell_length_b 14.284609
_cell_length_c 27.080779
_cell_angle_alpha 90.000000
_cell_angle_beta 90.000000
_cell_angle_gamma 90.000000
_cell_volume 5525.834425
_symmetry_space_group_name_H-M "I -4 2 D"
_symmetry_group_IT_number 122
_symmetry_cell_setting 'tetragonal'
loop_
_space_group_symop_operation_xyz
x,y,z
y,-x,-z
-x,-y,z
-y,x,-z
x,1/2-y,1/4-z
-x,1/2+y,1/4-z
-y,1/2-x,1/4+z
y,1/2+x,1/4+z
1/2+x,1/2+y,1/2+z
1/2+y,1/2-x,1/2-z
1/2-x,1/2-y,1/2+z
1/2-y,1/2+x,1/2-z
1/2+x,-y,3/4-z
1/2-x,y,3/4-z
1/2-y,-x,3/4+z
1/2+y,x,3/4+z
loop_
_atom_site_type_symbol
_atom_site_label
_atom_site_fract_x
_atom_site_fract_y
_atom_site_fract_z
Si Si1 0.850152 0.062839 0.347380
Si Si2 0.966766 0.734595 0.998286
Si Si3 0.144953 0.196348 0.856491
Si Si4 0.295278 0.672559 0.426196
Si Si5 0.005337 0.107446 0.925324
Si Si6 0.833748 0.832759 0.746394
Si Si7 0.129679 0.551290 0.596368
O O1 0.750000 0.081453 0.375000
O O2 0.837740 0.073999 0.288193
O O3 0.939248 0.131486 0.360883
O O4 0.892099 0.962726 0.359972
O O5 0.935967 0.650325 0.962057
O O6 0.950167 0.834346 0.970783
O O7 0.072231 0.715934 0.013504
O O8 0.913367 0.738404 0.050157
O O9 0.250000 0.176109 0.875000
O O10 0.138988 0.213164 0.797861
O O11 0.106135 0.293912 0.874040
O O12 0.073945 0.116656 0.877494
O O13 0.250000 0.702381 0.375000
O O14 0.403467 0.650309 0.414929
O O15 0.277493 0.757978 0.463648
O O16 0.000000 0.000000 0.941011
#
# Coordination Sequence:
#
# PCOD8311839 Si02
#       7
#    16  16  16  16  16  16  16
#     4  10  20  39  67  89 124 165 210 266 326 368
#     4   9  21  38  57  83 124 164 204 248 308 375
#     4  11  23  41  62  87 125 160 208 256 312 377
#     4  11  24  38  59  88 124 165 203 256 316 376
#     4  10  24  37  57  89 121 164 204 251 302 377
#     4  10  22  38  59  88 120 161 206 260 308 373
#     4   9  20  41  63  94 121 164 215 260 314 386
#
# _framework density 20.268432000000001
#
# number of rings (size 3 to 8) (size 9 to 14) (size 15 to 20)
#    0.000    2.000    0.000    3.429    8.000    1.143 
#    2.571    2.857    0.000    1.714    0.000    0.000 
#    0.000    0.000    0.000    0.000    0.000    0.000 
#
# Total GULP energy -693828.742011 kJ/mol
# GULP energy per Si atom -12389.798964 kJ/mol
# Density = 2.022230 g / cm^3
# Si number density = 20.268432 Si / 1000 Ang^3
#
#
#
# Elastic Constant Matrix: (Units=GPa)
#
#
# Indices 1 2 3 4 5 6 
#
# 1 69.9088 17.9837 14.5686 0.0000 0.0000 0.0000
# 2 17.9837 69.9088 14.5686 0.0000 0.0000 0.0000
# 3 14.5686 14.5686 97.2308 0.0000 0.0000 0.0000
# 4 0.0000 0.0000 0.0000 23.7132 0.0000 0.0000
# 5 0.0000 0.0000 0.0000 0.0000 23.7132 0.0000
# 6 0.0000 0.0000 0.0000 0.0000 0.0000 25.6081
#
#
#
# Elastic Compliance Matrix: (Units=1/GPa)
#
#
# Indices 1 2 3 4 5 6 
#
# 1 0.015615 -0.003643 -0.001794 0.000000 0.000000 0.000000
# 2 -0.003643 0.015615 -0.001794 0.000000 0.000000 0.000000
# 3 -0.001794 -0.001794 0.010822 0.000000 0.000000 0.000000
# 4 0.000000 0.000000 0.000000 0.042171 0.000000 0.000000
# 5 0.000000 0.000000 0.000000 0.000000 0.042171 0.000000
# 6 0.000000 0.000000 0.000000 0.000000 0.000000 0.039050
#
#
# Mechanical properties :
#
#
# Convention : Reuss Voigt Hill
#
# Bulk Modulus (GPa) = 36.24323 36.81002 36.52662
# Shear Modulus (GPa) = 26.44057 27.26873 26.85465
#
# Velocity S-wave (km/s) = 3.61573 3.67192 3.64393
# Velocity P-wave (km/s) = 5.94574 6.01482 5.98038
#
# Compressibility (1/GPa) = 0.02759136
#
# Stress axis : x y z
#
# Youngs Moduli (GPa) = 64.03952 64.03952 92.40119
#
# Poissons Ratio (x) = 0.23331 0.16575
# Poissons Ratio (y) = 0.23331 0.16575
# Poissons Ratio (z) = 0.11488 0.11488
#
# Static dielectric constant tensor:
#      x y z
#    x 3.832520 0.000000 0.000000 
#    y 0.000000 3.832520 0.000000 
#    z 0.000000 0.000000 3.676430 
# 
# 
# High freq. dielectric constant tensor:
#      x y z
#    x 1.793700 0.000000 0.000000 
#    y 0.000000 1.793700 0.000000 
#    z 0.000000 0.000000 1.780880 
# 
# From -- ./inp_files/8799.got.cif
#   From: 2010.03.12/outbox.cif.g09.slc.cpg/sg122_5_cif.got.tgz:8799.got - 2010.04.06 16:17:16.
