data_PCOD8311843
_publ_section_title
;
Structure prediction by ZEFSAII (Michael W. Deem and Ramdas Pophale) SiO2 
 PCOD8311843
Probable space group: I -4 2 D
;
_chemical_formula_sum "Si O2"
_cell_formula_units_Z 104
_cell_length_a 17.138287
_cell_length_b 17.138287
_cell_length_c 18.106682
_cell_angle_alpha 90.000000
_cell_angle_beta 90.000000
_cell_angle_gamma 90.000000
_cell_volume 5318.310594
_symmetry_space_group_name_H-M "I -4 2 D"
_symmetry_group_IT_number 122
_symmetry_cell_setting 'tetragonal'
loop_
_space_group_symop_operation_xyz
x,y,z
y,-x,-z
-x,-y,z
-y,x,-z
x,1/2-y,1/4-z
-x,1/2+y,1/4-z
-y,1/2-x,1/4+z
y,1/2+x,1/4+z
1/2+x,1/2+y,1/2+z
1/2+y,1/2-x,1/2-z
1/2-x,1/2-y,1/2+z
1/2-y,1/2+x,1/2-z
1/2+x,-y,3/4-z
1/2-x,y,3/4-z
1/2-y,-x,3/4+z
1/2+y,x,3/4+z
loop_
_atom_site_type_symbol
_atom_site_label
_atom_site_fract_x
_atom_site_fract_y
_atom_site_fract_z
Si Si1 0.910727 0.024426 0.262890
Si Si2 0.750000 0.257287 0.875000
Si Si3 0.122594 0.116750 0.592810
Si Si4 0.105470 0.676622 0.583067
Si Si5 0.324256 0.873036 0.587662
Si Si6 0.708437 0.777564 0.778630
Si Si7 0.446630 0.335553 0.945215
O O1 0.883404 0.077390 0.330706
O O2 0.899206 0.076393 0.188270
O O3 0.854979 0.947890 0.265647
O O4 0.000000 0.000000 0.267651
O O5 0.817690 0.310733 0.841155
O O6 0.717184 0.200725 0.809998
O O7 0.060622 0.131085 0.527736
O O8 0.164348 0.034975 0.580882
O O9 0.065132 0.750000 0.625000
O O10 0.187347 0.708976 0.552669
O O11 0.113450 0.605219 0.639614
O O12 0.320657 0.862703 0.677379
O O13 0.321214 0.787734 0.551263
O O14 0.253198 0.921193 0.555074
#
# Coordination Sequence:
#
# PCOD8311843 Si02
#       7
#    16   8  16  16  16  16  16
#     4  12  25  37  55  93 135 180 218 260 323 406
#     4  12  22  40  64  96 124 162 230 278 332 396
#     4  12  23  35  53  95 135 174 210 254 317 405
#     4  11  21  37  58  88 130 169 212 260 322 406
#     4  10  21  39  61  87 124 175 215 261 327 385
#     4  10  20  40  62  91 119 163 225 270 319 385
#     4  11  22  36  57  89 134 176 206 256 321 396
#
# _framework density 19.555081999999999
#
# number of rings (size 3 to 8) (size 9 to 14) (size 15 to 20)
#    0.000    0.923    7.692    0.923    7.538    0.000 
#    0.000    0.000    0.000    5.538    0.000    0.000 
#    0.000    0.000    0.000    0.000    0.000    0.000 
#
# Total GULP energy -644675.803032 kJ/mol
# GULP energy per Si atom -12397.611597 kJ/mol
# Density = 1.951057 g / cm^3
# Si number density = 19.555082 Si / 1000 Ang^3
#
#
#
# Elastic Constant Matrix: (Units=GPa)
#
#
# Indices 1 2 3 4 5 6 
#
# 1 70.2296 25.8321 22.5528 0.0000 0.0000 0.0000
# 2 25.8321 70.2296 22.5528 0.0000 0.0000 0.0000
# 3 22.5528 22.5528 119.7792 0.0000 0.0000 0.0000
# 4 0.0000 0.0000 0.0000 26.0983 0.0000 0.0000
# 5 0.0000 0.0000 0.0000 0.0000 26.0983 0.0000
# 6 0.0000 0.0000 0.0000 0.0000 0.0000 11.3364
#
#
#
# Elastic Compliance Matrix: (Units=1/GPa)
#
#
# Indices 1 2 3 4 5 6 
#
# 1 0.016972 -0.005552 -0.002150 0.000000 0.000000 0.000000
# 2 -0.005552 0.016972 -0.002150 0.000000 0.000000 0.000000
# 3 -0.002150 -0.002150 0.009158 0.000000 0.000000 0.000000
# 4 0.000000 0.000000 0.000000 0.038317 0.000000 0.000000
# 5 0.000000 0.000000 0.000000 0.000000 0.038317 0.000000
# 6 0.000000 0.000000 0.000000 0.000000 0.000000 0.088212
#
#
# Mechanical properties :
#
#
# Convention : Reuss Voigt Hill
#
# Bulk Modulus (GPa) = 42.74066 44.67932 43.70999
# Shear Modulus (GPa) = 21.23588 25.32664 23.28126
#
# Velocity S-wave (km/s) = 3.29895 3.60272 3.45418
# Velocity P-wave (km/s) = 6.03447 6.34063 6.18944
#
# Compressibility (1/GPa) = 0.02339693
#
# Stress axis : x y z
#
# Youngs Moduli (GPa) = 58.92163 58.92163 109.18959
#
# Poissons Ratio (x) = 0.32714 0.23477
# Poissons Ratio (y) = 0.32714 0.23477
# Poissons Ratio (z) = 0.12669 0.12669
#
# Static dielectric constant tensor:
#      x y z
#    x 3.572870 0.000000 0.000000 
#    y 0.000000 3.572870 0.000000 
#    z 0.000000 0.000000 3.794570 
# 
# 
# High freq. dielectric constant tensor:
#      x y z
#    x 1.749170 0.000000 0.000000 
#    y 0.000000 1.749170 0.000000 
#    z 0.000000 0.000000 1.752800 
# 
# From -- ./inp_files/6403.got.cif
#   From: 2010.03.12/outbox.cif.g09.slc.cpg/sg122_4_cif.got.tgz:6403.got - 2010.04.06 16:17:16.
