data_PCOD8311469
_publ_section_title
;
Structure prediction by ZEFSAII (Michael W. Deem and Ramdas Pophale) SiO2 
 PCOD8311469
Probable space group: I -4 2 M
;
_chemical_formula_sum "Si O2"
_cell_formula_units_Z 112
_cell_length_a 30.988098
_cell_length_b 30.988098
_cell_length_c 5.507926
_cell_angle_alpha 90.000000
_cell_angle_beta 90.000000
_cell_angle_gamma 90.000000
_cell_volume 5289.053235
_symmetry_space_group_name_H-M "I -4 2 M"
_symmetry_group_IT_number 121
_symmetry_cell_setting 'tetragonal'
loop_
_space_group_symop_operation_xyz
x,y,z
y,-x,-z
-x,-y,z
-y,x,-z
x,-y,-z
-x,y,-z
-y,-x,z
y,x,z
1/2+x,1/2+y,1/2+z
1/2+y,1/2-x,1/2-z
1/2-x,1/2-y,1/2+z
1/2-y,1/2+x,1/2-z
1/2+x,1/2-y,1/2-z
1/2-x,1/2+y,1/2-z
1/2-y,1/2-x,1/2+z
1/2+y,1/2+x,1/2+z
loop_
_atom_site_type_symbol
_atom_site_label
_atom_site_fract_x
_atom_site_fract_y
_atom_site_fract_z
Si Si1 0.912654 0.156740 0.989768
Si Si2 0.794191 0.454772 0.570291
Si Si3 0.117117 0.354084 0.772319
Si Si4 0.291489 0.809806 0.704742
Si Si5 0.458155 0.708937 0.854587
Si Si6 0.526269 0.596391 0.752593
Si Si7 0.242011 0.104130 0.258635
O O1 0.875896 0.124105 0.083300
O O2 0.939395 0.136199 0.765907
O O3 0.890860 0.202811 0.930771
O O4 0.947146 0.166090 0.201807
O O5 0.817752 0.500000 0.500000
O O6 0.825930 0.426755 0.740126
O O7 0.750424 0.470782 0.696829
O O8 0.781592 0.424785 0.340892
O O9 0.117837 0.382585 0.523684
O O10 0.157992 0.322204 0.774632
O O11 0.285466 0.780604 0.460529
O O12 0.259828 0.849664 0.671593
O O13 0.500000 0.694800 0.000000
O O14 0.416299 0.721980 0.003587
O O15 0.500000 0.594170 0.500000
O O16 0.551466 0.551466 0.777165
O O17 0.500000 0.603174 0.000000
#
# Coordination Sequence:
#
# PCOD8311469 Si02
#       7
#    16  16  16  16  16  16  16
#     4  10  27  45  62  92 129 171 215 263 325 398
#     4  11  21  34  53  93 134 165 205 269 331 393
#     4  10  19  33  55  80 125 172 212 254 315 390
#     4  10  19  34  59  87 119 163 213 257 321 383
#     4  11  23  37  63  93 128 167 210 264 331 395
#     4  11  26  47  73 101 131 167 213 268 327 391
#     4  11  22  37  62  88 123 168 207 266 323 397
#
# _framework density 21.175812000000001
#
# number of rings (size 3 to 8) (size 9 to 14) (size 15 to 20)
#    0.000    1.429    4.286    2.143    6.000    1.429 
#    0.000    0.000    0.000    0.857    0.000    0.000 
#    0.000    1.714    0.000    0.000    0.000    0.000 
#
# Total GULP energy -694170.920904 kJ/mol
# GULP energy per Si atom -12395.909302 kJ/mol
# Density = 2.112761 g / cm^3
# Si number density = 21.175812 Si / 1000 Ang^3
#
#
#
# Elastic Constant Matrix: (Units=GPa)
#
#
# Indices 1 2 3 4 5 6 
#
# 1 81.2957 52.3284 32.0472 0.0000 0.0000 0.0000
# 2 52.3284 81.2942 32.0462 0.0000 0.0000 0.0000
# 3 32.0472 32.0462 152.5691 0.0000 0.0000 0.0000
# 4 0.0000 0.0000 0.0000 12.6263 0.0000 0.0000
# 5 0.0000 0.0000 0.0000 0.0000 12.6297 0.0000
# 6 0.0000 0.0000 0.0000 0.0000 0.0000 27.6519
#
#
#
# Elastic Compliance Matrix: (Units=1/GPa)
#
#
# Indices 1 2 3 4 5 6 
#
# 1 0.021422 -0.013100 -0.001748 0.000000 0.000000 0.000000
# 2 -0.013100 0.021423 -0.001748 0.000000 0.000000 0.000000
# 3 -0.001748 -0.001748 0.007289 0.000000 0.000000 0.000000
# 4 0.000000 0.000000 0.000000 0.079199 0.000000 0.000000
# 5 0.000000 0.000000 0.000000 0.000000 0.079178 0.000000
# 6 0.000000 0.000000 0.000000 0.000000 0.000000 0.036164
#
#
# Mechanical properties :
#
#
# Convention : Reuss Voigt Hill
#
# Bulk Modulus (GPa) = 59.02865 60.88917 59.95891
# Shear Modulus (GPa) = 17.63577 23.83075 20.73326
#
# Velocity S-wave (km/s) = 2.88900 3.35830 3.13245
# Velocity P-wave (km/s) = 6.25016 6.62224 6.43889
#
# Compressibility (1/GPa) = 0.01694093
#
# Stress axis : x y z
#
# Youngs Moduli (GPa) = 46.68048 46.67978 137.19763
#
# Poissons Ratio (x) = 0.61151 0.23984
# Poissons Ratio (y) = 0.61152 0.23982
# Poissons Ratio (z) = 0.08160 0.08160
#
# Static dielectric constant tensor:
#      x y z
#    x 3.714260 0.000000 0.000000 
#    y 0.000000 3.714250 0.000000 
#    z 0.000000 0.000000 4.445210 
# 
# 
# High freq. dielectric constant tensor:
#      x y z
#    x 1.807400 0.000000 0.000000 
#    y 0.000000 1.807400 0.000000 
#    z 0.000000 0.000000 1.848460 
# 
# From -- ./inp_files/729.got.cif
#   From: 2010.03.12/outbox.cif.g09.slc.cpg/sg121_1_cif.got.tgz:729.got - 2010.04.06 16:06:48.
