data_PCOD8311150
_publ_section_title
;
Structure prediction by ZEFSAII (Michael W. Deem and Ramdas Pophale) SiO2 
 PCOD8311150
Probable space group: I -4 C 2
;
_chemical_formula_sum "Si O2"
_cell_formula_units_Z 112
_cell_length_a 13.348787
_cell_length_b 13.348787
_cell_length_c 35.700171
_cell_angle_alpha 90.000000
_cell_angle_beta 90.000000
_cell_angle_gamma 90.000000
_cell_volume 6361.417554
_symmetry_space_group_name_H-M "I -4 C 2"
_symmetry_group_IT_number 120
_symmetry_cell_setting 'tetragonal'
loop_
_space_group_symop_operation_xyz
x,y,z
y,-x,-z
-x,-y,z
-y,x,-z
y,x,1/2-z
-y,-x,1/2-z
-x,y,1/2+z
x,-y,1/2+z
1/2+x,1/2+y,1/2+z
1/2+y,1/2-x,1/2-z
1/2-x,1/2-y,1/2+z
1/2-y,1/2+x,1/2-z
1/2+y,1/2+x,-z
1/2-y,1/2-x,-z
1/2-x,1/2+y,z
1/2+x,1/2-y,z
loop_
_atom_site_type_symbol
_atom_site_label
_atom_site_fract_x
_atom_site_fract_y
_atom_site_fract_z
Si Si1 0.456095 0.847489 0.293984
Si Si2 0.233372 0.631331 0.592600
Si Si3 0.461267 0.164441 0.711081
Si Si4 0.751067 0.926573 0.129021
Si Si5 0.737315 0.406437 0.361147
Si Si6 0.902949 0.450778 0.457309
Si Si7 0.784148 0.594656 0.410265
O O1 0.447320 0.794029 0.253304
O O2 0.562389 0.901364 0.295454
O O3 0.449122 0.768783 0.327448
O O4 0.362971 0.923723 0.297821
O O5 0.275419 0.525088 0.605411
O O6 0.170781 0.675564 0.627210
O O7 0.157941 0.624427 0.557942
O O8 0.327606 0.697047 0.579025
O O9 0.423569 0.251368 0.683303
O O10 0.854709 0.866330 0.127699
O O11 0.656313 0.873365 0.109446
O O12 0.744021 0.513168 0.381104
O O13 0.930285 0.430285 0.500000
O O14 0.817111 0.534075 0.448108
O O15 0.000000 0.500000 0.437180
#
# Coordination Sequence:
#
# PCOD8311150 Si02
#       7
#    16  16  16  16  16  16  16
#     4   9  17  27  49  73 104 139 182 240 292 337
#     4  10  21  36  56  83 111 142 181 228 281 330
#     4   9  16  29  46  75 103 138 185 240 293 329
#     4  11  19  32  54  78 104 151 188 227 283 338
#     4  10  20  31  54  77 105 147 189 231 283 332
#     4  10  20  38  62  88 114 145 181 222 269 327
#     4  10  21  37  55  84 112 140 181 235 272 329
#
# _framework density 17.606138999999999
#
# number of rings (size 3 to 8) (size 9 to 14) (size 15 to 20)
#    0.000    2.143    4.286    0.857    0.000    1.143 
#    2.571    0.000    0.000    0.857    0.000    2.000 
#    0.000    0.000    0.000    0.000    0.000    0.000 
#
# Total GULP energy -694014.900672 kJ/mol
# GULP energy per Si atom -12393.123226 kJ/mol
# Density = 1.756607 g / cm^3
# Si number density = 17.606139 Si / 1000 Ang^3
#
#
#
# Elastic Constant Matrix: (Units=GPa)
#
#
# Indices 1 2 3 4 5 6 
#
# 1 89.9937 58.8071 45.4927 0.0000 0.0000 0.0000
# 2 58.8071 89.9937 45.4927 0.0000 0.0000 0.0000
# 3 45.4927 45.4927 100.7281 0.0000 0.0000 0.0000
# 4 0.0000 0.0000 0.0000 13.1792 0.0000 0.0000
# 5 0.0000 0.0000 0.0000 0.0000 13.1792 0.0000
# 6 0.0000 0.0000 0.0000 0.0000 0.0000 30.9485
#
#
#
# Elastic Compliance Matrix: (Units=1/GPa)
#
#
# Indices 1 2 3 4 5 6 
#
# 1 0.020675 -0.011390 -0.004193 0.000000 0.000000 0.000000
# 2 -0.011390 0.020675 -0.004193 0.000000 0.000000 0.000000
# 3 -0.004193 -0.004193 0.013715 0.000000 0.000000 0.000000
# 4 0.000000 0.000000 0.000000 0.075877 0.000000 0.000000
# 5 0.000000 0.000000 0.000000 0.000000 0.075877 0.000000
# 6 0.000000 0.000000 0.000000 0.000000 0.000000 0.032312
#
#
# Mechanical properties :
#
#
# Convention : Reuss Voigt Hill
#
# Bulk Modulus (GPa) = 64.46904 64.47783 64.47344
# Shear Modulus (GPa) = 17.61467 20.18959 18.90213
#
# Velocity S-wave (km/s) = 3.16648 3.39002 3.28015
# Velocity P-wave (km/s) = 7.07571 7.21283 7.14459
#
# Compressibility (1/GPa) = 0.01551132
#
# Stress axis : x y z
#
# Youngs Moduli (GPa) = 48.36827 48.36828 72.91124
#
# Poissons Ratio (x) = 0.55093 0.30573
# Poissons Ratio (y) = 0.55093 0.30573
# Poissons Ratio (z) = 0.20282 0.20282
#
# Static dielectric constant tensor:
#      x y z
#    x 3.213350 0.000000 0.000000 
#    y 0.000000 3.213350 0.000000 
#    z 0.000000 0.000000 3.190430 
# 
# 
# High freq. dielectric constant tensor:
#      x y z
#    x 1.667820 0.000000 0.000000 
#    y 0.000000 1.667820 0.000000 
#    z 0.000000 0.000000 1.675860 
# 
# From -- ./inp_files/6680.got.cif
#   From: 2010.03.12/outbox.cif.g09.slc.cpg/sg120_4_cif.got.tgz:6680.got - 2010.04.06 16:00:44.
