data_PCOD8311075
_publ_section_title
;
Structure prediction by ZEFSAII (Michael W. Deem and Ramdas Pophale) SiO2 
 PCOD8311075
Probable space group: I -4 M 2
;
_chemical_formula_sum "Si O2"
_cell_formula_units_Z 64
_cell_length_a 14.045832
_cell_length_b 14.045832
_cell_length_c 14.742671
_cell_angle_alpha 90.000000
_cell_angle_beta 90.000000
_cell_angle_gamma 90.000000
_cell_volume 2908.513695
_symmetry_space_group_name_H-M "I -4 M 2"
_symmetry_group_IT_number 119
_symmetry_cell_setting 'tetragonal'
loop_
_space_group_symop_operation_xyz
x,y,z
y,-x,-z
-x,-y,z
-y,x,-z
y,x,-z
-y,-x,-z
-x,y,z
x,-y,z
1/2+x,1/2+y,1/2+z
1/2+y,1/2-x,1/2-z
1/2-x,1/2-y,1/2+z
1/2-y,1/2+x,1/2-z
1/2+y,1/2+x,1/2-z
1/2-y,1/2-x,1/2-z
1/2-x,1/2+y,1/2+z
1/2+x,1/2-y,1/2+z
loop_
_atom_site_type_symbol
_atom_site_label
_atom_site_fract_x
_atom_site_fract_y
_atom_site_fract_z
Si Si1 0.356391 0.893164 0.853356
Si Si2 0.263244 0.105517 0.490705
Si Si3 0.896616 0.139103 0.103665
Si Si4 0.606386 0.194444 0.338025
O O1 0.359667 0.859667 0.750000
O O2 0.251402 0.890266 0.892127
O O3 0.399336 0.000000 0.862211
O O4 0.412354 0.816151 0.913356
O O5 0.167557 0.167557 0.500000
O O6 0.337147 0.157597 0.424823
O O7 0.235686 0.000000 0.453806
O O8 0.809290 0.095827 0.160607
O O9 0.000000 0.104999 0.142617
O O10 0.891928 0.108073 0.000000
O O11 0.500000 0.150510 0.337297
O O12 0.663774 0.163774 0.250000
#
# Coordination Sequence:
#
# PCOD8311075 Si02
#       4
#    16  16  16  16
#     4  11  22  40  67  99 135 173 216 274 343 407
#     4  12  26  45  68  95 132 178 229 283 343 410
#     4  11  22  40  70 102 137 179 221 274 340 405
#     4  12  25  45  70  99 137 180 228 283 343 405
#
# _framework density 22.004365
#
# number of rings (size 3 to 8) (size 9 to 14) (size 15 to 20)
#    0.000    0.500    5.000    3.750    0.000    6.500 
#    0.000    0.000    0.000    3.000    0.000    0.000 
#    0.000    0.000    0.000    0.000    0.000    0.000 
#
# Total GULP energy -396699.164876 kJ/mol
# GULP energy per Si atom -12396.848902 kJ/mol
# Density = 2.195428 g / cm^3
# Si number density = 22.004365 Si / 1000 Ang^3
#
#
#
# Elastic Constant Matrix: (Units=GPa)
#
#
# Indices 1 2 3 4 5 6 
#
# 1 155.9833 45.1416 41.8894 0.0000 0.0000 0.0000
# 2 45.1416 155.9845 41.8895 0.0000 0.0000 0.0000
# 3 41.8894 41.8895 111.4804 0.0000 0.0000 0.0000
# 4 0.0000 0.0000 0.0000 12.7616 0.0000 0.0000
# 5 0.0000 0.0000 0.0000 0.0000 12.7622 0.0000
# 6 0.0000 0.0000 0.0000 0.0000 0.0000 -7.4993
#
#
#
# Elastic Compliance Matrix: (Units=1/GPa)
#
#
# Indices 1 2 3 4 5 6 
#
# 1 0.007458 -0.001564 -0.002215 0.000000 0.000000 0.000000
# 2 -0.001564 0.007458 -0.002215 0.000000 0.000000 0.000000
# 3 -0.002215 -0.002215 0.010635 0.000000 0.000000 0.000000
# 4 0.000000 0.000000 0.000000 0.078360 0.000000 0.000000
# 5 0.000000 0.000000 0.000000 0.000000 0.078357 0.000000
# 6 0.000000 0.000000 0.000000 0.000000 0.000000 -0.133345
#
#
# Mechanical properties :
#
#
# Convention : Reuss Voigt Hill
#
# Bulk Modulus (GPa) = 73.72320 75.69881 74.71100
# Shear Modulus (GPa) = 76.41599 23.24006 49.82802
#
# Velocity S-wave (km/s) = 5.89941 3.25338 4.76380
# Velocity P-wave (km/s) = 8.94319 6.97059 8.01778
#
# Compressibility (1/GPa) = 0.01356425
#
# Stress axis : x y z
#
# Youngs Moduli (GPa) = 134.07929 134.08034 94.03135
#
# Poissons Ratio (x) = 0.20965 0.20828
# Poissons Ratio (y) = 0.20964 0.20827
# Poissons Ratio (z) = 0.29698 0.29698
#
# Static dielectric constant tensor:
#      x y z
#    x 4.281050 0.000000 0.000000 
#    y 0.000000 4.281060 0.000000 
#    z 0.000000 0.000000 3.973940 
# 
# 
# High freq. dielectric constant tensor:
#      x y z
#    x 1.876690 0.000000 0.000000 
#    y 0.000000 1.876690 0.000000 
#    z 0.000000 0.000000 1.851390 
# 
# From -- ./inp_files/5085.got.cif
#   From: 2010.03.12/outbox.cif.g09.slc.cpg/sg119_3_cif.got.tgz:5085.got - 2010.04.14 02:25:26.
