data_PCOD8311442
_publ_section_title
;
Structure prediction by ZEFSAII (Michael W. Deem and Ramdas Pophale) SiO2 
 PCOD8311442
Probable space group: I -4 2 M
;
_chemical_formula_sum "Si O2"
_cell_formula_units_Z 80
_cell_length_a 29.738536
_cell_length_b 29.738536
_cell_length_c 5.048593
_cell_angle_alpha 90.000000
_cell_angle_beta 90.000000
_cell_angle_gamma 90.000000
_cell_volume 4464.877320
_symmetry_space_group_name_H-M "I -4 2 M"
_symmetry_group_IT_number 121
_symmetry_cell_setting 'tetragonal'
loop_
_space_group_symop_operation_xyz
x,y,z
y,-x,-z
-x,-y,z
-y,x,-z
x,-y,-z
-x,y,-z
-y,-x,z
y,x,z
1/2+x,1/2+y,1/2+z
1/2+y,1/2-x,1/2-z
1/2-x,1/2-y,1/2+z
1/2-y,1/2+x,1/2-z
1/2+x,1/2-y,1/2-z
1/2-x,1/2+y,1/2-z
1/2-y,1/2-x,1/2+z
1/2+y,1/2+x,1/2+z
loop_
_atom_site_type_symbol
_atom_site_label
_atom_site_fract_x
_atom_site_fract_y
_atom_site_fract_z
Si Si1 0.234051 0.097752 0.471865
Si Si2 0.376705 0.376705 0.569648
Si Si3 0.550294 0.910695 0.051884
Si Si4 0.553131 0.309111 0.527882
Si Si5 0.162781 0.837220 0.430862
Si Si6 0.124023 0.335546 0.535689
O O1 0.211663 0.065037 0.688050
O O2 0.213677 0.148593 0.496522
O O3 0.286622 0.102950 0.510474
O O4 0.223566 0.075888 0.188176
O O5 0.360687 0.427680 0.500976
O O6 0.368809 0.368809 0.881926
O O7 0.345284 0.345284 0.381284
O O8 0.552666 0.933723 0.337900
O O9 0.580734 0.866967 0.028518
O O10 0.500000 0.894436 0.000000
O O11 0.500000 0.311284 0.500000
O O12 0.158630 0.347519 0.302399
#
# Coordination Sequence:
#
# PCOD8311442 Si02
#       6
#    16   8  16  16   8  16
#     4  10  19  34  52  74 102 131 167 210 245 290
#     4   8  16  30  46  68 104 136 160 203 252 297
#     4  10  21  35  51  70  91 118 152 190 235 284
#     4  10  19  31  51  78 102 131 171 210 252 294
#     4   8  16  30  50  71  96 131 166 201 246 285
#     4  10  21  37  52  70 100 133 158 192 249 302
#
# _framework density 17.917627
#
# number of rings (size 3 to 8) (size 9 to 14) (size 15 to 20)
#    0.000    2.400    0.000    2.400    0.000    2.800 
#    0.000    1.000    0.000    0.300    0.000    0.000 
#    0.000    9.600    0.000    0.000    0.000    1.600 
#
# Total GULP energy -495731.482176 kJ/mol
# GULP energy per Si atom -12393.287054 kJ/mol
# Density = 1.787685 g / cm^3
# Si number density = 17.917627 Si / 1000 Ang^3
#
#
#
# Elastic Constant Matrix: (Units=GPa)
#
#
# Indices 1 2 3 4 5 6 
#
# 1 62.0673 57.3216 11.9631 0.0000 0.0000 0.0000
# 2 57.3216 62.0666 11.9630 0.0000 0.0000 0.0000
# 3 11.9631 11.9630 77.1535 0.0000 0.0000 0.0000
# 4 0.0000 0.0000 0.0000 19.7540 0.0000 0.0000
# 5 0.0000 0.0000 0.0000 0.0000 19.7543 0.0000
# 6 0.0000 0.0000 0.0000 0.0000 0.0000 10.6118
#
#
#
# Elastic Compliance Matrix: (Units=1/GPa)
#
#
# Indices 1 2 3 4 5 6 
#
# 1 0.109689 -0.101045 -0.001340 0.000000 0.000000 0.000000
# 2 -0.101045 0.109690 -0.001340 0.000000 0.000000 0.000000
# 3 -0.001340 -0.001340 0.013377 0.000000 0.000000 0.000000
# 4 0.000000 0.000000 0.000000 0.050623 0.000000 0.000000
# 5 0.000000 0.000000 0.000000 0.000000 0.050622 0.000000
# 6 0.000000 0.000000 0.000000 0.000000 0.000000 0.094235
#
#
# Mechanical properties :
#
#
# Convention : Reuss Voigt Hill
#
# Bulk Modulus (GPa) = 39.51863 40.42033 39.96948
# Shear Modulus (GPa) = 7.76252 18.02665 12.89458
#
# Velocity S-wave (km/s) = 2.08368 3.17532 2.68556
# Velocity P-wave (km/s) = 5.28134 6.00429 5.65438
#
# Compressibility (1/GPa) = 0.02530452
#
# Stress axis : x y z
#
# Youngs Moduli (GPa) = 9.11669 9.11660 74.75605
#
# Poissons Ratio (x) = 0.92119 0.10020
# Poissons Ratio (y) = 0.92119 0.10020
# Poissons Ratio (z) = 0.01222 0.01222
#
# Static dielectric constant tensor:
#      x y z
#    x 3.222080 0.000000 0.000000 
#    y 0.000000 3.222090 0.000000 
#    z 0.000000 0.000000 3.675790 
# 
# 
# High freq. dielectric constant tensor:
#      x y z
#    x 1.675500 0.000000 0.000000 
#    y 0.000000 1.675510 0.000000 
#    z 0.000000 0.000000 1.720970 
# 
# From -- ./inp_files/596.got.cif
#   From: 2010.03.12/outbox.cif.g09.slc.cpg/sg121_1_cif.got.tgz:596.got - 2010.04.06 16:06:48.
