data_PCOD8311015
_publ_section_title
;
Structure prediction by ZEFSAII (Michael W. Deem and Ramdas Pophale) SiO2 
 PCOD8311015
Probable space group: I -4 M 2
;
_chemical_formula_sum "Si O2"
_cell_formula_units_Z 84
_cell_length_a 11.497992
_cell_length_b 11.497992
_cell_length_c 27.464429
_cell_angle_alpha 90.000000
_cell_angle_beta 90.000000
_cell_angle_gamma 90.000000
_cell_volume 3630.902429
_symmetry_space_group_name_H-M "I -4 M 2"
_symmetry_group_IT_number 119
_symmetry_cell_setting 'tetragonal'
loop_
_space_group_symop_operation_xyz
x,y,z
y,-x,-z
-x,-y,z
-y,x,-z
y,x,-z
-y,-x,-z
-x,y,z
x,-y,z
1/2+x,1/2+y,1/2+z
1/2+y,1/2-x,1/2-z
1/2-x,1/2-y,1/2+z
1/2-y,1/2+x,1/2-z
1/2+y,1/2+x,1/2-z
1/2-y,1/2-x,1/2-z
1/2-x,1/2+y,1/2+z
1/2+x,1/2-y,1/2+z
loop_
_atom_site_type_symbol
_atom_site_label
_atom_site_fract_x
_atom_site_fract_y
_atom_site_fract_z
Si Si1 0.364646 0.000000 0.137207
Si Si2 0.366361 0.364154 0.886915
Si Si3 0.335361 0.759315 0.437833
Si Si4 0.500000 0.500000 0.663267
Si Si5 0.000000 0.364901 0.014618
Si Si6 0.774798 0.000000 0.227727
Si Si7 0.788283 0.134073 0.720563
Si Si8 0.500000 0.672677 0.579775
O O1 0.307285 0.888181 0.112441
O O2 0.341341 0.000000 0.194977
O O3 0.500000 0.000000 0.126585
O O4 0.500000 0.362216 0.902671
O O5 0.326648 0.500000 0.879948
O O6 0.299268 0.295778 0.930433
O O7 0.349103 0.287243 0.837627
O O8 0.385577 0.822858 0.485393
O O9 0.367226 0.622387 0.444649
O O10 0.384471 0.500000 0.692928
O O11 0.500000 0.622190 0.633702
O O12 0.000000 0.500000 0.020547
O O13 0.000000 0.312266 0.069747
O O14 0.779093 0.112329 0.261154
O O15 0.671070 0.171070 0.750000
O O16 0.815901 0.000000 0.733570
#
# Coordination Sequence:
#
# PCOD8311015 Si02
#       8
#     8  16  16   4   8   8  16   8
#     4  11  22  37  64  93 130 172 220 276 344 411
#     4  10  21  40  64  93 127 177 232 278 333 410
#     4  11  22  41  67  94 132 172 215 275 354 428
#     4  12  22  42  71 102 136 184 240 280 355 416
#     4  11  25  44  69 100 136 176 214 284 360 420
#     4  12  21  41  68  93 137 187 232 284 343 416
#     4  11  23  38  62  90 130 178 232 286 335 401
#     4  12  25  41  68 103 131 169 236 290 342 431
#
# _framework density 23.134746
#
# number of rings (size 3 to 8) (size 9 to 14) (size 15 to 20)
#    0.000    0.952    3.810    4.571    0.000    1.714 
#    1.714    0.000    0.000    0.000    0.000    2.667 
#    0.000    0.000    0.000    0.000    0.000    0.000 
#
# Total GULP energy -520336.928039 kJ/mol
# GULP energy per Si atom -12388.974477 kJ/mol
# Density = 2.308209 g / cm^3
# Si number density = 23.134746 Si / 1000 Ang^3
#
#
#
# Elastic Constant Matrix: (Units=GPa)
#
#
# Indices 1 2 3 4 5 6 
#
# 1 131.6541 30.5459 29.5071 0.0000 0.0000 0.0000
# 2 30.5459 131.6541 29.5071 0.0000 0.0000 0.0000
# 3 29.5071 29.5071 69.7249 0.0000 0.0000 0.0000
# 4 0.0000 0.0000 0.0000 -12.6623 0.0000 0.0000
# 5 0.0000 0.0000 0.0000 0.0000 -12.6623 0.0000
# 6 0.0000 0.0000 0.0000 0.0000 0.0000 28.2568
#
#
#
# Elastic Compliance Matrix: (Units=1/GPa)
#
#
# Indices 1 2 3 4 5 6 
#
# 1 0.008589 -0.001302 -0.003084 0.000000 0.000000 0.000000
# 2 -0.001302 0.008589 -0.003084 0.000000 0.000000 0.000000
# 3 -0.003084 -0.003084 0.016952 0.000000 0.000000 0.000000
# 4 0.000000 0.000000 0.000000 -0.078975 0.000000 0.000000
# 5 0.000000 0.000000 0.000000 0.000000 -0.078975 0.000000
# 6 0.000000 0.000000 0.000000 0.000000 0.000000 0.035390
#
#
# Mechanical properties :
#
#
# Convention : Reuss Voigt Hill
#
# Bulk Modulus (GPa) = 52.10744 56.90591 54.50668
# Shear Modulus (GPa) = -74.52278 16.81796 -28.85241
#
# Velocity S-wave (km/s) = -5.68176 2.69914 -3.53533
# Velocity P-wave (km/s) = 4.52448 5.86215 2.63571
#
# Compressibility (1/GPa) = 0.01919112
#
# Stress axis : x y z
#
# Youngs Moduli (GPa) = 116.43021 116.43022 58.98917
#
# Poissons Ratio (x) = 0.15154 0.18192
# Poissons Ratio (y) = 0.15154 0.18192
# Poissons Ratio (z) = 0.35906 0.35906
#
# Static dielectric constant tensor:
#      x y z
#    x 4.302500 0.000000 0.000000 
#    y 0.000000 4.302500 0.000000 
#    z 0.000000 0.000000 3.990200 
# 
# 
# High freq. dielectric constant tensor:
#      x y z
#    x 1.916750 0.000000 0.000000 
#    y 0.000000 1.916750 0.000000 
#    z 0.000000 0.000000 1.901120 
# 
# From -- ./inp_files/10309.got.cif
#   From: 2010.03.12/outbox.cif.g09.slc.cpg/sg119_6_cif.got.tgz:10309.got - 2010.04.14 02:25:26.
