data_PCOD8311317
_publ_section_title
;
Structure prediction by ZEFSAII (Michael W. Deem and Ramdas Pophale) SiO2 
 PCOD8311317
Probable space group: I -4 C 2
;
_chemical_formula_sum "Si O2"
_cell_formula_units_Z 48
_cell_length_a 18.986439
_cell_length_b 18.986439
_cell_length_c 5.006923
_cell_angle_alpha 90.000000
_cell_angle_beta 90.000000
_cell_angle_gamma 90.000000
_cell_volume 1804.919966
_symmetry_space_group_name_H-M "I -4 C 2"
_symmetry_group_IT_number 120
_symmetry_cell_setting 'tetragonal'
loop_
_space_group_symop_operation_xyz
x,y,z
y,-x,-z
-x,-y,z
-y,x,-z
y,x,1/2-z
-y,-x,1/2-z
-x,y,1/2+z
x,-y,1/2+z
1/2+x,1/2+y,1/2+z
1/2+y,1/2-x,1/2-z
1/2-x,1/2-y,1/2+z
1/2-y,1/2+x,1/2-z
1/2+y,1/2+x,-z
1/2-y,1/2-x,-z
1/2-x,1/2+y,z
1/2+x,1/2-y,z
loop_
_atom_site_type_symbol
_atom_site_label
_atom_site_fract_x
_atom_site_fract_y
_atom_site_fract_z
Si Si1 0.844838 0.452710 0.470948
Si Si2 0.733693 0.155822 0.293333
Si Si3 0.345904 0.544693 0.770163
O O1 0.828994 0.484810 0.181575
O O2 0.925785 0.425785 0.500000
O O3 0.795140 0.384380 0.527340
O O4 0.766136 0.233865 0.250000
O O5 0.667954 0.167954 0.500000
O O6 0.796194 0.105690 0.393226
O O7 0.425510 0.574491 0.750000
O O8 0.331846 0.520280 0.467764
#
# Coordination Sequence:
#
# PCOD8311317 Si02
#       3
#    16  16  16
#     4  12  26  46  72 102 139 185 237 295 356 423
#     4  11  25  45  73 107 146 190 242 301 366 433
#     4  11  25  45  72 105 144 189 238 296 359 430
#
# _framework density 26.593973999999999
#
# number of rings (size 3 to 8) (size 9 to 14) (size 15 to 20)
#    0.000    0.667    0.000    7.000    0.000   12.000 
#    0.000    0.000    0.000    0.000    0.000    0.000 
#    0.000    0.000    0.000    0.000    0.000    0.000 
#
# Total GULP energy -297391.048422 kJ/mol
# GULP energy per Si atom -12391.293684 kJ/mol
# Density = 2.653345 g / cm^3
# Si number density = 26.593974 Si / 1000 Ang^3
#
#
#
# Elastic Constant Matrix: (Units=GPa)
#
#
# Indices 1 2 3 4 5 6 
#
# 1 86.7321 68.5300 26.4967 0.0000 0.0000 0.0000
# 2 68.5300 86.7352 26.4990 0.0000 0.0000 0.0000
# 3 26.4967 26.4990 89.1620 0.0000 0.0000 0.0000
# 4 0.0000 0.0000 0.0000 35.2133 0.0000 0.0000
# 5 0.0000 0.0000 0.0000 0.0000 35.2115 0.0000
# 6 0.0000 0.0000 0.0000 0.0000 0.0000 72.4156
#
#
#
# Elastic Compliance Matrix: (Units=1/GPa)
#
#
# Indices 1 2 3 4 5 6 
#
# 1 0.031051 -0.023883 -0.002130 0.000000 0.000000 0.000000
# 2 -0.023883 0.031051 -0.002131 0.000000 0.000000 0.000000
# 3 -0.002130 -0.002131 0.012482 0.000000 0.000000 0.000000
# 4 0.000000 0.000000 0.000000 0.028398 0.000000 0.000000
# 5 0.000000 0.000000 0.000000 0.000000 0.028400 0.000000
# 6 0.000000 0.000000 0.000000 0.000000 0.000000 0.013809
#
#
# Mechanical properties :
#
#
# Convention : Reuss Voigt Hill
#
# Bulk Modulus (GPa) = 54.65531 56.18674 55.42102
# Shear Modulus (GPa) = 24.08747 37.97499 31.03123
#
# Velocity S-wave (km/s) = 3.01283 3.78293 3.41963
# Velocity P-wave (km/s) = 5.71833 6.34462 6.03960
#
# Compressibility (1/GPa) = 0.01829648
#
# Stress axis : x y z
#
# Youngs Moduli (GPa) = 32.20477 32.20549 80.11754
#
# Poissons Ratio (x) = 0.76917 0.17061
# Poissons Ratio (y) = 0.76915 0.17071
# Poissons Ratio (z) = 0.06858 0.06862
#
# Static dielectric constant tensor:
#      x y z
#    x 5.154280 0.000000 0.000000 
#    y 0.000000 5.154280 0.000000 
#    z 0.000000 0.000000 4.495060 
# 
# 
# High freq. dielectric constant tensor:
#      x y z
#    x 2.079810 0.000000 0.000000 
#    y 0.000000 2.079810 0.000000 
#    z 0.000000 0.000000 2.052040 
# 
# From -- ./inp_files/251.got.cif
#   From: 2010.03.12/outbox.cif.g09.slc.cpg/sg120_1_cif.got.tgz:251.got - 2010.04.06 16:00:44.
