data_PCOD8311372
_publ_section_title
;
Structure prediction by ZEFSAII (Michael W. Deem and Ramdas Pophale) SiO2 
 PCOD8311372
Probable space group: I -4 2 M
;
_chemical_formula_sum "Si O2"
_cell_formula_units_Z 96
_cell_length_a 20.599122
_cell_length_b 20.599122
_cell_length_c 14.438272
_cell_angle_alpha 90.000000
_cell_angle_beta 90.000000
_cell_angle_gamma 90.000000
_cell_volume 6126.502833
_symmetry_space_group_name_H-M "I -4 2 M"
_symmetry_group_IT_number 121
_symmetry_cell_setting 'tetragonal'
loop_
_space_group_symop_operation_xyz
x,y,z
y,-x,-z
-x,-y,z
-y,x,-z
x,-y,-z
-x,y,-z
-y,-x,z
y,x,z
1/2+x,1/2+y,1/2+z
1/2+y,1/2-x,1/2-z
1/2-x,1/2-y,1/2+z
1/2-y,1/2+x,1/2-z
1/2+x,1/2-y,1/2-z
1/2-x,1/2+y,1/2-z
1/2-y,1/2-x,1/2+z
1/2+y,1/2+x,1/2+z
loop_
_atom_site_type_symbol
_atom_site_label
_atom_site_fract_x
_atom_site_fract_y
_atom_site_fract_z
Si Si1 0.745357 0.147942 0.551731
Si Si2 0.983258 0.191545 0.600345
Si Si3 0.624136 0.730410 0.152095
Si Si4 0.399182 0.501394 0.255437
Si Si5 0.335028 0.557203 0.573166
Si Si6 0.846323 0.261640 0.147420
O O1 0.807371 0.192630 0.577064
O O2 0.757356 0.075328 0.589442
O O3 0.733632 0.149466 0.440578
O O4 0.679335 0.171951 0.601290
O O5 0.962689 0.134319 0.669018
O O6 0.000000 0.161780 0.500000
O O7 0.046958 0.223513 0.645228
O O8 0.660167 0.660167 0.161854
O O9 0.637534 0.773307 0.243960
O O10 0.445662 0.554339 0.304574
O O11 0.441301 0.441301 0.216999
O O12 0.347652 0.475713 0.328418
O O13 0.327120 0.500000 0.500000
O O14 0.393824 0.606177 0.545443
O O15 0.266448 0.593879 0.586792
O O16 0.789745 0.210256 0.138911
#
# Coordination Sequence:
#
# PCOD8311372 Si02
#       6
#    16  16  16  16  16  16
#     4   9  18  30  45  68  93 121 159 201 236 278
#     4  10  18  29  46  66  92 124 158 195 237 275
#     4   9  16  30  49  65  90 126 157 187 238 292
#     4  10  19  29  42  64  94 128 163 193 226 271
#     4  10  19  32  48  65  91 128 164 198 235 278
#     4   9  17  32  49  65  92 128 158 191 241 289
#
# _framework density 15.669624000000001
#
# number of rings (size 3 to 8) (size 9 to 14) (size 15 to 20)
#    0.000    2.500    1.667    1.500    0.000    2.833 
#    3.000    0.833    0.000    0.000    0.000    0.000 
#    0.000   14.667    0.000    0.000    0.000    0.000 
#
# Total GULP energy -594838.691554 kJ/mol
# GULP energy per Si atom -12392.472741 kJ/mol
# Density = 1.563396 g / cm^3
# Si number density = 15.669624 Si / 1000 Ang^3
#
#
#
# Elastic Constant Matrix: (Units=GPa)
#
#
# Indices 1 2 3 4 5 6 
#
# 1 70.2619 45.7322 52.2502 0.0000 0.0000 0.0000
# 2 45.7322 70.2624 52.2501 0.0000 0.0000 0.0000
# 3 52.2502 52.2501 100.3815 0.0000 0.0000 0.0000
# 4 0.0000 0.0000 0.0000 25.0716 0.0000 0.0000
# 5 0.0000 0.0000 0.0000 0.0000 25.0716 0.0000
# 6 0.0000 0.0000 0.0000 0.0000 0.0000 22.3962
#
#
#
# Elastic Compliance Matrix: (Units=1/GPa)
#
#
# Indices 1 2 3 4 5 6 
#
# 1 0.028500 -0.012266 -0.008450 0.000000 0.000000 0.000000
# 2 -0.012266 0.028500 -0.008450 0.000000 0.000000 0.000000
# 3 -0.008450 -0.008450 0.018759 0.000000 0.000000 0.000000
# 4 0.000000 0.000000 0.000000 0.039886 0.000000 0.000000
# 5 0.000000 0.000000 0.000000 0.000000 0.039886 0.000000
# 6 0.000000 0.000000 0.000000 0.000000 0.000000 0.044650
#
#
# Mechanical properties :
#
#
# Convention : Reuss Voigt Hill
#
# Bulk Modulus (GPa) = 57.38415 60.15230 58.76822
# Shear Modulus (GPa) = 18.91635 20.55278 19.73457
#
# Velocity S-wave (km/s) = 3.47825 3.62558 3.55267
# Velocity P-wave (km/s) = 7.26854 7.48315 7.37663
#
# Compressibility (1/GPa) = 0.01742642
#
# Stress axis : x y z
#
# Youngs Moduli (GPa) = 35.08746 35.08792 53.30893
#
# Poissons Ratio (x) = 0.43040 0.45046
# Poissons Ratio (y) = 0.43039 0.45045
# Poissons Ratio (z) = 0.29649 0.29648
#
# Static dielectric constant tensor:
#      x y z
#    x 2.931150 0.000000 0.000000 
#    y 0.000000 2.931130 0.000000 
#    z 0.000000 0.000000 3.261790 
# 
# 
# High freq. dielectric constant tensor:
#      x y z
#    x 1.573100 0.000000 0.000000 
#    y 0.000000 1.573100 0.000000 
#    z 0.000000 0.000000 1.612630 
# 
# From -- ./inp_files/4529.got.cif
#   From: 2010.03.12/outbox.cif.g09.slc.cpg/sg121_3_cif.got.tgz:4529.got - 2010.04.06 16:06:48.
