data_PCOD8311323
_publ_section_title
;
Structure prediction by ZEFSAII (Michael W. Deem and Ramdas Pophale) SiO2 
 PCOD8311323
Probable space group: I -4 C 2
;
_chemical_formula_sum "Si O2"
_cell_formula_units_Z 48
_cell_length_a 11.570827
_cell_length_b 11.570827
_cell_length_c 18.501038
_cell_angle_alpha 90.000000
_cell_angle_beta 90.000000
_cell_angle_gamma 90.000000
_cell_volume 2476.993665
_symmetry_space_group_name_H-M "I -4 C 2"
_symmetry_group_IT_number 120
_symmetry_cell_setting 'tetragonal'
loop_
_space_group_symop_operation_xyz
x,y,z
y,-x,-z
-x,-y,z
-y,x,-z
y,x,1/2-z
-y,-x,1/2-z
-x,y,1/2+z
x,-y,1/2+z
1/2+x,1/2+y,1/2+z
1/2+y,1/2-x,1/2-z
1/2-x,1/2-y,1/2+z
1/2-y,1/2+x,1/2-z
1/2+y,1/2+x,-z
1/2-y,1/2-x,-z
1/2-x,1/2+y,z
1/2+x,1/2-y,z
loop_
_atom_site_type_symbol
_atom_site_label
_atom_site_fract_x
_atom_site_fract_y
_atom_site_fract_z
Si Si1 0.514693 0.186231 0.083335
Si Si2 0.404645 0.594893 0.170275
Si Si3 0.985694 0.685748 0.416130
O O1 0.535588 0.301260 0.127685
O O2 0.390301 0.128798 0.097867
O O3 0.614702 0.098123 0.108782
O O4 0.512736 0.217317 0.998916
O O5 0.500000 0.500000 0.180608
O O6 0.363221 0.636780 0.250000
O O7 0.300986 0.533505 0.128308
#
# Coordination Sequence:
#
# PCOD8311323 Si02
#       3
#    16  16  16
#     4   9  21  41  65  91 117 156 206 251 300 357
#     4  11  26  39  56  91 127 160 201 248 304 362
#     4   9  21  41  65  91 117 156 206 251 300 357
#
# _framework density 19.378329999999998
#
# number of rings (size 3 to 8) (size 9 to 14) (size 15 to 20)
#    0.000    2.333    0.000    2.000    9.333    5.333 
#    0.000    3.333    0.000    0.000    0.000    0.000 
#    0.000    0.000    0.000    0.000    0.000    0.000 
#
# Total GULP energy -297448.615885 kJ/mol
# GULP energy per Si atom -12393.692329 kJ/mol
# Density = 1.933422 g / cm^3
# Si number density = 19.378330 Si / 1000 Ang^3
#
#
#
# Elastic Constant Matrix: (Units=GPa)
#
#
# Indices 1 2 3 4 5 6 
#
# 1 97.8619 24.7433 57.5135 0.0000 0.0000 0.0000
# 2 24.7433 97.8617 57.5135 0.0000 0.0000 0.0000
# 3 57.5135 57.5135 99.9802 0.0000 0.0000 0.0000
# 4 0.0000 0.0000 0.0000 -23.9731 0.0000 0.0000
# 5 0.0000 0.0000 0.0000 0.0000 -23.9746 0.0000
# 6 0.0000 0.0000 0.0000 0.0000 0.0000 29.0451
#
#
#
# Elastic Compliance Matrix: (Units=1/GPa)
#
#
# Indices 1 2 3 4 5 6 
#
# 1 0.015698 0.002021 -0.010193 0.000000 0.000000 0.000000
# 2 0.002021 0.015698 -0.010193 0.000000 0.000000 0.000000
# 3 -0.010193 -0.010193 0.021729 0.000000 0.000000 0.000000
# 4 0.000000 0.000000 0.000000 -0.041713 0.000000 0.000000
# 5 0.000000 0.000000 0.000000 0.000000 -0.041711 0.000000
# 6 0.000000 0.000000 0.000000 0.000000 0.000000 0.034429
#
#
# Mechanical properties :
#
#
# Convention : Reuss Voigt Hill
#
# Bulk Modulus (GPa) = 60.99216 63.91603 62.45410
# Shear Modulus (GPa) = 107.93599 6.61505 57.27552
#
# Velocity S-wave (km/s) = 7.47129 1.84961 5.44248
# Velocity P-wave (km/s) = 10.29416 6.13321 8.47307
#
# Compressibility (1/GPa) = 0.01639555
#
# Stress axis : x y z
#
# Youngs Moduli (GPa) = 63.70324 63.70309 46.02157
#
# Poissons Ratio (x) = -0.12877 0.46910
# Poissons Ratio (y) = -0.12877 0.46910
# Poissons Ratio (z) = 0.64932 0.64932
#
# Static dielectric constant tensor:
#      x y z
#    x 3.528040 0.000000 0.000000 
#    y 0.000000 3.528040 0.000000 
#    z 0.000000 0.000000 3.593150 
# 
# 
# High freq. dielectric constant tensor:
#      x y z
#    x 1.760130 0.000000 0.000000 
#    y 0.000000 1.760130 0.000000 
#    z 0.000000 0.000000 1.751340 
# 
# From -- ./inp_files/3946.got.cif
#   From: 2010.03.12/outbox.cif.g09.slc.cpg/sg120_2_cif.got.tgz:3946.got - 2010.04.06 16:00:44.
