data_PCOD8311094
_publ_section_title
;
Structure prediction by ZEFSAII (Michael W. Deem and Ramdas Pophale) SiO2 
 PCOD8311094
Probable space group: I -4 M 2
;
_chemical_formula_sum "Si O2"
_cell_formula_units_Z 72
_cell_length_a 9.805887
_cell_length_b 9.805887
_cell_length_c 46.244277
_cell_angle_alpha 90.000000
_cell_angle_beta 90.000000
_cell_angle_gamma 90.000000
_cell_volume 4446.637871
_symmetry_space_group_name_H-M "I -4 M 2"
_symmetry_group_IT_number 119
_symmetry_cell_setting 'tetragonal'
loop_
_space_group_symop_operation_xyz
x,y,z
y,-x,-z
-x,-y,z
-y,x,-z
y,x,-z
-y,-x,-z
-x,y,z
x,-y,z
1/2+x,1/2+y,1/2+z
1/2+y,1/2-x,1/2-z
1/2-x,1/2-y,1/2+z
1/2-y,1/2+x,1/2-z
1/2+y,1/2+x,1/2-z
1/2-y,1/2-x,1/2-z
1/2-x,1/2+y,1/2+z
1/2+x,1/2-y,1/2+z
loop_
_atom_site_type_symbol
_atom_site_label
_atom_site_fract_x
_atom_site_fract_y
_atom_site_fract_z
Si Si1 0.162550 0.651774 0.218109
Si Si2 0.657086 0.342915 0.000000
Si Si3 0.841872 0.657612 0.946025
Si Si4 0.837845 0.151617 0.894707
Si Si5 0.848197 0.162282 0.831113
O O1 0.220935 0.500000 0.212630
O O2 0.205558 0.705558 0.250000
O O3 0.224562 0.750719 0.193613
O O4 0.000000 0.647778 0.216549
O O5 0.700120 0.247194 0.026466
O O6 0.500000 0.318340 0.991141
O O7 0.820895 0.500000 0.938122
O O8 0.785463 0.744175 0.918989
O O9 0.000000 0.690105 0.952792
O O10 0.789661 0.201971 0.862889
O O11 0.000000 0.146496 0.894257
O O12 0.780349 0.000000 0.901534
O O13 0.000000 0.222545 0.826471
O O14 0.853897 0.000000 0.828917
#
# Coordination Sequence:
#
# PCOD8311094 Si02
#       5
#    16   8  16  16  16
#     4   8  13  21  34  53  76 100 126 158 195 231
#     4   9  18  32  46  59  80 110 136 157 190 236
#     4   9  17  29  45  63  81 103 133 165 193 227
#     4   8  14  25  41  61  83 104 128 161 199 235
#     4   8  13  22  37  55  74  99 130 159 188 228
#
# _framework density 16.192008000000001
#
# number of rings (size 3 to 8) (size 9 to 14) (size 15 to 20)
#    0.000    3.667    0.000    2.000    0.000    0.889 
#    0.000    1.111    0.000    2.667    0.000    0.000 
#    0.000    0.000    0.000    0.000    0.000    0.000 
#
# Total GULP energy -446141.231705 kJ/mol
# GULP energy per Si atom -12392.811992 kJ/mol
# Density = 1.615515 g / cm^3
# Si number density = 16.192008 Si / 1000 Ang^3
#
#
#
# Elastic Constant Matrix: (Units=GPa)
#
#
# Indices 1 2 3 4 5 6 
#
# 1 50.5581 25.6977 64.3154 0.0000 0.0000 0.0000
# 2 25.6977 50.5586 64.3153 -0.0001 0.0000 0.0000
# 3 64.3154 64.3153 177.8218 -0.0001 0.0000 0.0000
# 4 0.0000 -0.0001 -0.0001 24.8142 0.0000 0.0000
# 5 0.0000 0.0000 0.0000 0.0000 24.8145 0.0000
# 6 0.0000 0.0000 0.0000 0.0000 0.0000 10.6378
#
#
#
# Elastic Compliance Matrix: (Units=1/GPa)
#
#
# Indices 1 2 3 4 5 6 
#
# 1 0.036929 -0.003295 -0.012165 0.000000 0.000000 0.000000
# 2 -0.003295 0.036928 -0.012165 0.000000 0.000000 0.000000
# 3 -0.012165 -0.012165 0.014423 0.000000 0.000000 0.000000
# 4 0.000000 0.000000 0.000000 0.040299 0.000000 0.000000
# 5 0.000000 0.000000 0.000000 0.000000 0.040299 0.000000
# 6 0.000000 0.000000 0.000000 0.000000 0.000000 0.094005
#
#
# Mechanical properties :
#
#
# Convention : Reuss Voigt Hill
#
# Bulk Modulus (GPa) = 30.27431 65.28836 47.78133
# Shear Modulus (GPa) = 15.19094 20.36065 17.77579
#
# Velocity S-wave (km/s) = 3.06629 3.54990 3.31692
# Velocity P-wave (km/s) = 5.59230 7.56381 6.65151
#
# Compressibility (1/GPa) = 0.03303131
#
# Stress axis : x y z
#
# Youngs Moduli (GPa) = 27.07882 27.07944 69.33293
#
# Poissons Ratio (x) = 0.08924 0.84343
# Poissons Ratio (y) = 0.08923 0.84340
# Poissons Ratio (z) = 0.32941 0.32941
#
# Static dielectric constant tensor:
#      x y z
#    x 2.912370 0.000000 0.000000 
#    y 0.000000 2.912360 0.000000 
#    z 0.000000 0.000000 3.404640 
# 
# 
# High freq. dielectric constant tensor:
#      x y z
#    x 1.586990 0.000000 0.000000 
#    y 0.000000 1.586990 0.000000 
#    z 0.000000 0.000000 1.634470 
# 
# From -- ./inp_files/9370.got.cif
#   From: 2010.03.12/outbox.cif.g09.slc.cpg/sg119_5_cif.got.tgz:9370.got - 2010.04.14 02:25:26.
