data_PCOD8311894
_publ_section_title
;
Structure prediction by ZEFSAII (Michael W. Deem and Ramdas Pophale) SiO2 
 PCOD8311894
Probable space group: I -4 2 D
;
_chemical_formula_sum "Si O2"
_cell_formula_units_Z 56
_cell_length_a 11.987537
_cell_length_b 11.987537
_cell_length_c 17.706421
_cell_angle_alpha 90.000000
_cell_angle_beta 90.000000
_cell_angle_gamma 90.000000
_cell_volume 2544.431171
_symmetry_space_group_name_H-M "I -4 2 D"
_symmetry_group_IT_number 122
_symmetry_cell_setting 'tetragonal'
loop_
_space_group_symop_operation_xyz
x,y,z
y,-x,-z
-x,-y,z
-y,x,-z
x,1/2-y,1/4-z
-x,1/2+y,1/4-z
-y,1/2-x,1/4+z
y,1/2+x,1/4+z
1/2+x,1/2+y,1/2+z
1/2+y,1/2-x,1/2-z
1/2-x,1/2-y,1/2+z
1/2-y,1/2+x,1/2-z
1/2+x,-y,3/4-z
1/2-x,y,3/4-z
1/2-y,-x,3/4+z
1/2+y,x,3/4+z
loop_
_atom_site_type_symbol
_atom_site_label
_atom_site_fract_x
_atom_site_fract_y
_atom_site_fract_z
Si Si1 0.696544 0.856953 0.956402
Si Si2 0.805645 0.870149 0.108798
Si Si3 0.500000 0.500000 0.323925
Si Si4 0.120659 0.374322 0.735226
O O1 0.750000 0.878050 0.875000
O O2 0.600129 0.948273 0.974936
O O3 0.786226 0.882777 0.020188
O O4 0.656377 0.728992 0.962332
O O5 0.860707 0.750000 0.125000
O O6 0.894565 0.964492 0.126165
O O7 0.690497 0.878936 0.157204
O O8 0.139615 0.488514 0.782843
#
# Coordination Sequence:
#
# PCOD8311894 Si02
#       4
#    16  16   8  16
#     4  11  26  43  69 102 137 190 232 279 352 418
#     4  10  24  45  67 104 141 175 236 289 341 424
#     4  12  24  47  66 100 139 194 222 290 341 418
#     4  10  21  45  73 105 135 173 230 300 351 407
#
# _framework density 22.008849999999999
#
# number of rings (size 3 to 8) (size 9 to 14) (size 15 to 20)
#    0.000    1.429    2.857    0.857    0.000   13.714 
#    0.000    0.000    0.000    0.000    0.000    0.000 
#    0.000    0.000    0.000    0.000    0.000    0.000 
#
# Total GULP energy -347089.161114 kJ/mol
# GULP energy per Si atom -12396.041468 kJ/mol
# Density = 2.195876 g / cm^3
# Si number density = 22.008850 Si / 1000 Ang^3
#
#
#
# Elastic Constant Matrix: (Units=GPa)
#
#
# Indices 1 2 3 4 5 6 
#
# 1 103.7059 26.1410 28.0497 0.0000 0.0000 0.0000
# 2 26.1410 103.7059 28.0497 0.0000 0.0000 0.0000
# 3 28.0497 28.0497 116.4682 0.0000 0.0000 0.0000
# 4 0.0000 0.0000 0.0000 5.9609 0.0000 0.0000
# 5 0.0000 0.0000 0.0000 0.0000 5.9609 0.0000
# 6 0.0000 0.0000 0.0000 0.0000 0.0000 46.0619
#
#
#
# Elastic Compliance Matrix: (Units=1/GPa)
#
#
# Indices 1 2 3 4 5 6 
#
# 1 0.010744 -0.002148 -0.002070 0.000000 0.000000 0.000000
# 2 -0.002148 0.010744 -0.002070 0.000000 0.000000 0.000000
# 3 -0.002070 -0.002070 0.009583 0.000000 0.000000 0.000000
# 4 0.000000 0.000000 0.000000 0.167761 0.000000 0.000000
# 5 0.000000 0.000000 0.000000 0.000000 0.167761 0.000000
# 6 0.000000 0.000000 0.000000 0.000000 0.000000 0.021710
#
#
# Mechanical properties :
#
#
# Convention : Reuss Voigt Hill
#
# Bulk Modulus (GPa) = 54.07142 54.26230 54.16686
# Shear Modulus (GPa) = 12.28364 27.70603 19.99483
#
# Velocity S-wave (km/s) = 2.36503 3.55189 3.01739
# Velocity P-wave (km/s) = 5.66385 6.44434 6.06666
#
# Compressibility (1/GPa) = 0.01849406
#
# Stress axis : x y z
#
# Youngs Moduli (GPa) = 93.07432 93.07432 104.34950
#
# Poissons Ratio (x) = 0.19995 0.21602
# Poissons Ratio (y) = 0.19995 0.21602
# Poissons Ratio (z) = 0.19268 0.19268
#
# Static dielectric constant tensor:
#      x y z
#    x 4.250870 0.000000 0.000000 
#    y 0.000000 4.250870 0.000000 
#    z 0.000000 0.000000 3.538630 
# 
# 
# High freq. dielectric constant tensor:
#      x y z
#    x 1.883680 0.000000 0.000000 
#    y 0.000000 1.883680 0.000000 
#    z 0.000000 0.000000 1.835160 
# 
# From -- ./inp_files/6800.got.cif
#   From: 2010.03.12/outbox.cif.g09.slc.cpg/sg122_4_cif.got.tgz:6800.got - 2010.04.06 16:17:16.
