data_PCOD8311438
_publ_section_title
;
Structure prediction by ZEFSAII (Michael W. Deem and Ramdas Pophale) SiO2 
 PCOD8311438
Probable space group: I -4 2 M
;
_chemical_formula_sum "Si O2"
_cell_formula_units_Z 96
_cell_length_a 25.020165
_cell_length_b 25.020165
_cell_length_c 9.042802
_cell_angle_alpha 90.000000
_cell_angle_beta 90.000000
_cell_angle_gamma 90.000000
_cell_volume 5660.872332
_symmetry_space_group_name_H-M "I -4 2 M"
_symmetry_group_IT_number 121
_symmetry_cell_setting 'tetragonal'
loop_
_space_group_symop_operation_xyz
x,y,z
y,-x,-z
-x,-y,z
-y,x,-z
x,-y,-z
-x,y,-z
-y,-x,z
y,x,z
1/2+x,1/2+y,1/2+z
1/2+y,1/2-x,1/2-z
1/2-x,1/2-y,1/2+z
1/2-y,1/2+x,1/2-z
1/2+x,1/2-y,1/2-z
1/2-x,1/2+y,1/2-z
1/2-y,1/2-x,1/2+z
1/2+y,1/2+x,1/2+z
loop_
_atom_site_type_symbol
_atom_site_label
_atom_site_fract_x
_atom_site_fract_y
_atom_site_fract_z
Si Si1 0.186143 0.607165 0.674738
Si Si2 0.392834 0.813858 0.325262
Si Si3 0.000001 0.187744 0.334427
Si Si4 0.104755 0.809550 0.828241
Si Si5 0.500000 0.185208 0.168227
Si Si6 0.604753 0.690449 0.328244
O O1 0.175663 0.606078 0.500000
O O2 0.156199 0.656198 0.750002
O O3 0.164183 0.552164 0.745466
O O4 0.248250 0.615862 0.713779
O O5 0.384137 0.751751 0.286220
O O6 0.447834 0.835818 0.254532
O O7 0.053239 0.166585 0.254849
O O8 0.000001 0.251336 0.329277
O O9 0.000000 0.165418 0.500000
O O10 0.946764 0.166585 0.254842
O O11 0.156603 0.843398 0.780909
O O12 0.092052 0.815051 0.999997
O O13 0.500000 0.163340 0.000000
O O14 0.656599 0.656599 0.280911
#
# Coordination Sequence:
#
# PCOD8311438 Si02
#       6
#    16  16  16  16  16  16
#     4  10  19  31  48  71  98 127 159 195 235 279
#     4  10  19  31  48  71  98 127 159 195 235 279
#     4   9  17  29  47  70  93 120 157 199 239 278
#     4   9  18  32  49  69  95 128 162 194 232 281
#     4   9  17  31  49  68  91 122 161 199 234 276
#     4   9  18  32  49  69  95 128 162 194 232 281
#
# _framework density 16.958518000000002
#
# number of rings (size 3 to 8) (size 9 to 14) (size 15 to 20)
#    0.000    2.667    0.000    2.000    0.000    6.667 
#    0.000    0.000    0.000    1.000    0.000    7.000 
#    0.000    0.000    0.000    0.000    0.000    0.000 
#
# Total GULP energy -595212.776689 kJ/mol
# GULP energy per Si atom -12400.266181 kJ/mol
# Density = 1.691992 g / cm^3
# Si number density = 16.958518 Si / 1000 Ang^3
#
#
#
# Elastic Constant Matrix: (Units=GPa)
#
#
# Indices 1 2 3 4 5 6 
#
# 1 95.0964 59.4629 57.1914 0.0000 0.0000 0.0000
# 2 59.4629 95.0998 57.1914 0.0000 0.0000 0.0000
# 3 57.1914 57.1914 105.0319 0.0000 0.0000 0.0000
# 4 0.0000 0.0000 0.0000 27.4702 0.0000 0.0000
# 5 0.0000 0.0000 0.0000 0.0000 27.4702 0.0000
# 6 0.0000 0.0000 0.0000 0.0000 0.0000 4.1884
#
#
#
# Elastic Compliance Matrix: (Units=1/GPa)
#
#
# Indices 1 2 3 4 5 6 
#
# 1 0.019450 -0.008613 -0.005901 0.000000 0.000000 0.000000
# 2 -0.008613 0.019449 -0.005901 0.000000 0.000000 0.000000
# 3 -0.005901 -0.005901 0.015947 0.000000 0.000000 0.000000
# 4 0.000000 0.000000 0.000000 0.036403 0.000000 0.000000
# 5 0.000000 0.000000 0.000000 0.000000 0.036403 0.000000
# 6 0.000000 0.000000 0.000000 0.000000 0.000000 0.238757
#
#
# Mechanical properties :
#
#
# Convention : Reuss Voigt Hill
#
# Bulk Modulus (GPa) = 71.33949 71.43552 71.38751
# Shear Modulus (GPa) = 12.13855 19.91790 16.02823
#
# Velocity S-wave (km/s) = 2.67831 3.43083 3.07765
# Velocity P-wave (km/s) = 7.19186 7.60981 7.40378
#
# Compressibility (1/GPa) = 0.01401748
#
# Stress axis : x y z
#
# Youngs Moduli (GPa) = 51.41389 51.41660 62.70744
#
# Poissons Ratio (x) = 0.44283 0.37004
# Poissons Ratio (y) = 0.44281 0.37001
# Poissons Ratio (z) = 0.30340 0.30339
#
# Static dielectric constant tensor:
#      x y z
#    x 3.107790 0.000000 0.000000 
#    y 0.000000 3.107790 0.000000 
#    z 0.000000 0.000000 3.317410 
# 
# 
# High freq. dielectric constant tensor:
#      x y z
#    x 1.636430 0.000000 0.000000 
#    y 0.000000 1.636420 0.000000 
#    z 0.000000 0.000000 1.667280 
# 
# From -- ./inp_files/1925.got.cif
#   From: 2010.03.12/outbox.cif.g09.slc.cpg/sg121_1_cif.got.tgz:1925.got - 2010.04.06 16:06:48.
