data_PCOD8311441
_publ_section_title
;
Structure prediction by ZEFSAII (Michael W. Deem and Ramdas Pophale) SiO2 
 PCOD8311441
Probable space group: I -4 2 M
;
_chemical_formula_sum "Si O2"
_cell_formula_units_Z 72
_cell_length_a 12.138052
_cell_length_b 12.138052
_cell_length_c 27.265369
_cell_angle_alpha 90.000000
_cell_angle_beta 90.000000
_cell_angle_gamma 90.000000
_cell_volume 4017.069698
_symmetry_space_group_name_H-M "I -4 2 M"
_symmetry_group_IT_number 121
_symmetry_cell_setting 'tetragonal'
loop_
_space_group_symop_operation_xyz
x,y,z
y,-x,-z
-x,-y,z
-y,x,-z
x,-y,-z
-x,y,-z
-y,-x,z
y,x,z
1/2+x,1/2+y,1/2+z
1/2+y,1/2-x,1/2-z
1/2-x,1/2-y,1/2+z
1/2-y,1/2+x,1/2-z
1/2+x,1/2-y,1/2-z
1/2-x,1/2+y,1/2-z
1/2-y,1/2-x,1/2+z
1/2+y,1/2+x,1/2+z
loop_
_atom_site_type_symbol
_atom_site_label
_atom_site_fract_x
_atom_site_fract_y
_atom_site_fract_z
Si Si1 0.123972 0.482975 0.419116
Si Si2 0.116350 0.635492 0.747128
Si Si3 0.399109 0.228254 0.856809
Si Si4 0.645457 0.812934 0.148784
Si Si5 0.687597 0.500000 0.500000
O O1 0.134420 0.362008 0.396987
O O2 0.136480 0.567295 0.374442
O O3 0.227903 0.502054 0.454544
O O4 0.000000 0.500000 0.442762
O O5 0.148915 0.510189 0.739015
O O6 0.145974 0.697810 0.697183
O O7 0.180576 0.681091 0.794311
O O8 0.341422 0.341422 0.873118
O O9 0.529047 0.248495 0.856335
O O10 0.737611 0.737611 0.122116
O O11 0.609219 0.390782 0.500024
#
# Coordination Sequence:
#
# PCOD8311441 Si02
#       5
#    16  16  16  16   8
#     4  10  20  37  56  79 101 137 179 216 257 307
#     4   9  15  28  48  72  98 132 176 216 254 300
#     4  10  19  31  50  74 102 135 173 215 259 306
#     4  10  19  31  50  74 102 135 173 215 259 306
#     4  11  23  38  58  82 109 137 168 220 280 323
#
# _framework density 17.923511999999999
#
# number of rings (size 3 to 8) (size 9 to 14) (size 15 to 20)
#    0.000    2.111    2.222    2.333    0.000    0.444 
#    0.000    0.000    0.000    0.000    0.000    0.000 
#    0.000   16.000    0.000    0.000    0.000    0.000 
#
# Total GULP energy -446008.177756 kJ/mol
# GULP energy per Si atom -12389.116049 kJ/mol
# Density = 1.788272 g / cm^3
# Si number density = 17.923512 Si / 1000 Ang^3
#
#
#
# Elastic Constant Matrix: (Units=GPa)
#
#
# Indices 1 2 3 4 5 6 
#
# 1 64.1053 31.5124 15.0639 0.0000 0.0000 0.0000
# 2 31.5124 64.1058 15.0639 0.0000 0.0000 0.0000
# 3 15.0639 15.0639 59.7001 0.0000 0.0000 0.0000
# 4 0.0000 0.0000 0.0000 15.6435 0.0000 0.0000
# 5 0.0000 0.0000 0.0000 0.0000 15.6438 0.0000
# 6 0.0000 0.0000 0.0000 0.0000 0.0000 36.7053
#
#
#
# Elastic Compliance Matrix: (Units=1/GPa)
#
#
# Indices 1 2 3 4 5 6 
#
# 1 0.021022 -0.009660 -0.002867 0.000000 0.000000 0.000000
# 2 -0.009660 0.021021 -0.002867 0.000000 0.000000 0.000000
# 3 -0.002867 -0.002867 0.018197 0.000000 0.000000 0.000000
# 4 0.000000 0.000000 0.000000 0.063924 0.000000 0.000000
# 5 0.000000 0.000000 0.000000 0.000000 0.063923 0.000000
# 6 0.000000 0.000000 0.000000 0.000000 0.000000 0.027244
#
#
# Mechanical properties :
#
#
# Convention : Reuss Voigt Hill
#
# Bulk Modulus (GPa) = 33.95239 34.57685 34.26462
# Shear Modulus (GPa) = 19.53613 22.01659 20.77636
#
# Velocity S-wave (km/s) = 3.30505 3.50860 3.40835
# Velocity P-wave (km/s) = 5.79211 5.97888 5.88624
#
# Compressibility (1/GPa) = 0.02945300
#
# Stress axis : x y z
#
# Youngs Moduli (GPa) = 47.57032 47.57067 54.95365
#
# Poissons Ratio (x) = 0.45953 0.15754
# Poissons Ratio (y) = 0.45952 0.15754
# Poissons Ratio (z) = 0.13638 0.13638
#
# Static dielectric constant tensor:
#      x y z
#    x 3.237590 0.000000 0.000000 
#    y 0.000000 3.237580 0.000000 
#    z 0.000000 0.000000 3.151520 
# 
# 
# High freq. dielectric constant tensor:
#      x y z
#    x 1.691890 0.000000 0.000000 
#    y 0.000000 1.691890 0.000000 
#    z 0.000000 0.000000 1.683470 
# 
# From -- ./inp_files/7529.got.cif
#   From: 2010.03.12/outbox.cif.g09.slc.cpg/sg121_4_cif.got.tgz:7529.got - 2010.04.06 16:06:48.
