data_PCOD8311677
_publ_section_title
;
Structure prediction by ZEFSAII (Michael W. Deem and Ramdas Pophale) SiO2 
 PCOD8311677
Probable space group: I -4 2 M
;
_chemical_formula_sum "Si O2"
_cell_formula_units_Z 72
_cell_length_a 15.263581
_cell_length_b 15.263581
_cell_length_c 15.580959
_cell_angle_alpha 90.000000
_cell_angle_beta 90.000000
_cell_angle_gamma 90.000000
_cell_volume 3630.003604
_symmetry_space_group_name_H-M "I -4 2 M"
_symmetry_group_IT_number 121
_symmetry_cell_setting 'tetragonal'
loop_
_space_group_symop_operation_xyz
x,y,z
y,-x,-z
-x,-y,z
-y,x,-z
x,-y,-z
-x,y,-z
-y,-x,z
y,x,z
1/2+x,1/2+y,1/2+z
1/2+y,1/2-x,1/2-z
1/2-x,1/2-y,1/2+z
1/2-y,1/2+x,1/2-z
1/2+x,1/2-y,1/2-z
1/2-x,1/2+y,1/2-z
1/2-y,1/2-x,1/2+z
1/2+y,1/2+x,1/2+z
loop_
_atom_site_type_symbol
_atom_site_label
_atom_site_fract_x
_atom_site_fract_y
_atom_site_fract_z
Si Si1 0.780907 0.000000 0.000000
Si Si2 0.712649 0.145023 0.113554
Si Si3 0.426885 0.573116 0.182909
Si Si4 0.955795 0.368297 0.264296
Si Si5 0.753758 0.536960 0.905598
Si Si6 0.926834 0.073167 0.880258
O O1 0.838493 0.039053 0.923241
O O2 0.718981 0.924096 0.963569
O O3 0.803600 0.196401 0.123021
O O4 0.697940 0.095636 0.203100
O O5 0.635429 0.211145 0.090307
O O6 0.500000 0.500000 0.173216
O O7 0.463560 0.660167 0.139473
O O8 0.405823 0.594178 0.281766
O O9 0.896631 0.453840 0.282598
O O10 0.975043 0.321308 0.354347
O O11 0.742519 0.500000 0.000000
O O12 0.000000 0.000000 0.891969
#
# Coordination Sequence:
#
# PCOD8311677 Si02
#       6
#     8  16   8  16  16   8
#     4  12  21  36  65  98 134 168 208 270 327 383
#     4  11  23  42  65  99 133 166 215 272 329 390
#     4  11  26  43  68  90 130 178 217 272 331 380
#     4   9  21  43  67  94 131 171 213 267 331 393
#     4  11  25  44  64  95 130 170 228 267 316 395
#     4  11  20  39  64  96 132 169 214 259 324 392
#
# _framework density 19.834690999999999
#
# number of rings (size 3 to 8) (size 9 to 14) (size 15 to 20)
#    0.000    1.333    3.333    1.333    4.667    2.667 
#    0.000    0.000    0.000    0.000    0.000    0.000 
#    0.000    0.000    0.000    0.000    0.000    0.000 
#
# Total GULP energy -446619.173335 kJ/mol
# GULP energy per Si atom -12406.088148 kJ/mol
# Density = 1.978955 g / cm^3
# Si number density = 19.834691 Si / 1000 Ang^3
#
#
#
# Elastic Constant Matrix: (Units=GPa)
#
#
# Indices 1 2 3 4 5 6 
#
# 1 97.3392 43.6263 55.5760 0.0000 0.0000 0.0000
# 2 43.6263 97.3417 55.5782 0.0000 0.0000 0.0000
# 3 55.5760 55.5782 138.0412 0.0000 0.0000 0.0000
# 4 0.0000 0.0000 0.0000 36.3242 0.0000 0.0000
# 5 0.0000 0.0000 0.0000 0.0000 36.3222 0.0000
# 6 0.0000 0.0000 0.0000 0.0000 0.0000 28.3201
#
#
#
# Elastic Compliance Matrix: (Units=1/GPa)
#
#
# Indices 1 2 3 4 5 6 
#
# 1 0.014505 -0.004112 -0.004184 0.000000 0.000000 0.000000
# 2 -0.004112 0.014505 -0.004185 0.000000 0.000000 0.000000
# 3 -0.004184 -0.004185 0.010614 0.000000 0.000000 0.000000
# 4 0.000000 0.000000 0.000000 0.027530 0.000000 0.000000
# 5 0.000000 0.000000 0.000000 0.000000 0.027531 0.000000
# 6 0.000000 0.000000 0.000000 0.000000 0.000000 0.035311
#
#
# Mechanical properties :
#
#
# Convention : Reuss Voigt Hill
#
# Bulk Modulus (GPa) = 68.20141 71.36480 69.78311
# Shear Modulus (GPa) = 31.28026 32.05608 31.66817
#
# Velocity S-wave (km/s) = 3.97551 4.02451 4.00009
# Velocity P-wave (km/s) = 7.45201 7.59299 7.52283
#
# Compressibility (1/GPa) = 0.01466245
#
# Stress axis : x y z
#
# Youngs Moduli (GPa) = 68.94018 68.94089 94.21794
#
# Poissons Ratio (x) = 0.28347 0.39425
# Poissons Ratio (y) = 0.28347 0.39427
# Poissons Ratio (z) = 0.28847 0.28849
#
# Static dielectric constant tensor:
#      x y z
#    x 3.702370 0.000000 0.000000 
#    y 0.000000 3.702340 0.000000 
#    z 0.000000 0.000000 3.589400 
# 
# 
# High freq. dielectric constant tensor:
#      x y z
#    x 1.783630 0.000000 0.000000 
#    y 0.000000 1.783630 0.000000 
#    z 0.000000 0.000000 1.772100 
# 
# From -- ./inp_files/5242.got.cif
#   From: 2010.03.12/outbox.cif.g09.slc.cpg/sg121_3_cif.got.tgz:5242.got - 2010.04.06 16:06:48.
