data_PCOD8311992
_publ_section_title
;
Structure prediction by ZEFSAII (Michael W. Deem and Ramdas Pophale) SiO2 
 PCOD8311992
Probable space group: I -4 2 D
;
_chemical_formula_sum "Si O2"
_cell_formula_units_Z 52
_cell_length_a 15.100544
_cell_length_b 15.100544
_cell_length_c 9.946446
_cell_angle_alpha 90.000000
_cell_angle_beta 90.000000
_cell_angle_gamma 90.000000
_cell_volume 2268.052564
_symmetry_space_group_name_H-M "I -4 2 D"
_symmetry_group_IT_number 122
_symmetry_cell_setting 'tetragonal'
loop_
_space_group_symop_operation_xyz
x,y,z
y,-x,-z
-x,-y,z
-y,x,-z
x,1/2-y,1/4-z
-x,1/2+y,1/4-z
-y,1/2-x,1/4+z
y,1/2+x,1/4+z
1/2+x,1/2+y,1/2+z
1/2+y,1/2-x,1/2-z
1/2-x,1/2-y,1/2+z
1/2-y,1/2+x,1/2-z
1/2+x,-y,3/4-z
1/2-x,y,3/4-z
1/2-y,-x,3/4+z
1/2+y,x,3/4+z
loop_
_atom_site_type_symbol
_atom_site_label
_atom_site_fract_x
_atom_site_fract_y
_atom_site_fract_z
Si Si1 0.500000 0.500000 0.500000
Si Si2 0.573556 0.383175 0.971433
Si Si3 0.250000 0.200798 0.375000
Si Si4 0.250000 0.851989 0.875000
Si Si5 0.341051 0.023038 0.924763
O O1 0.428213 0.448379 0.407699
O O2 0.640520 0.323348 0.054213
O O3 0.481009 0.386643 0.051563
O O4 0.554272 0.344642 0.826344
O O5 0.207524 0.263171 0.259178
O O6 0.334754 0.915469 0.905944
O O7 0.250000 0.068398 0.875000
#
# Coordination Sequence:
#
# PCOD8311992 Si02
#       5
#     4  16   8   8  16
#     4  12  24  44  74 100 152 204 240 330 384 464
#     4  11  23  44  73 104 136 191 255 309 370 459
#     4  12  26  47  75 100 158 190 248 308 397 435
#     4  10  26  47  63 116 140 200 238 318 371 465
#     4  10  25  42  66 107 144 187 258 303 381 452
#
# _framework density 22.927157000000001
#
# number of rings (size 3 to 8) (size 9 to 14) (size 15 to 20)
#    0.923    0.308    3.077    1.846    4.308    3.692 
#    0.000    0.000    0.000    0.000    0.000    0.000 
#    0.000    0.000    0.000    0.000    0.000    0.000 
#
# Total GULP energy -322225.661932 kJ/mol
# GULP energy per Si atom -12393.294690 kJ/mol
# Density = 2.287497 g / cm^3
# Si number density = 22.927157 Si / 1000 Ang^3
#
#
#
# Elastic Constant Matrix: (Units=GPa)
#
#
# Indices 1 2 3 4 5 6 
#
# 1 73.4249 2.5871 43.7971 0.0000 0.0000 0.0000
# 2 2.5871 73.4249 43.7971 0.0000 0.0000 0.0000
# 3 43.7971 43.7971 189.7953 0.0000 0.0000 0.0000
# 4 0.0000 0.0000 0.0000 33.3014 0.0000 0.0000
# 5 0.0000 0.0000 0.0000 0.0000 33.3014 0.0000
# 6 0.0000 0.0000 0.0000 0.0000 0.0000 31.3495
#
#
#
# Elastic Compliance Matrix: (Units=1/GPa)
#
#
# Indices 1 2 3 4 5 6 
#
# 1 0.016019 0.001902 -0.004136 0.000000 0.000000 0.000000
# 2 0.001902 0.016019 -0.004136 0.000000 0.000000 0.000000
# 3 -0.004136 -0.004136 0.007177 0.000000 0.000000 0.000000
# 4 0.000000 0.000000 0.000000 0.030029 0.000000 0.000000
# 5 0.000000 0.000000 0.000000 0.000000 0.030029 0.000000
# 6 0.000000 0.000000 0.000000 0.000000 0.000000 0.031898
#
#
# Mechanical properties :
#
#
# Convention : Reuss Voigt Hill
#
# Bulk Modulus (GPa) = 37.76684 57.44532 47.60608
# Shear Modulus (GPa) = 32.73638 36.02139 34.37888
#
# Velocity S-wave (km/s) = 3.78278 3.96804 3.87652
# Velocity P-wave (km/s) = 5.96553 6.78997 6.39106
#
# Compressibility (1/GPa) = 0.02647826
#
# Stress axis : x y z
#
# Youngs Moduli (GPa) = 62.42534 62.42534 139.32476
#
# Poissons Ratio (x) = -0.11876 0.57619
# Poissons Ratio (y) = -0.11876 0.57619
# Poissons Ratio (z) = 0.25816 0.25816
#
# Static dielectric constant tensor:
#      x y z
#    x 4.084780 0.000000 0.000000 
#    y 0.000000 4.084780 0.000000 
#    z 0.000000 0.000000 4.167690 
# 
# 
# High freq. dielectric constant tensor:
#      x y z
#    x 1.898420 0.000000 0.000000 
#    y 0.000000 1.898420 0.000000 
#    z 0.000000 0.000000 1.918280 
# 
# From -- ./inp_files/2221.got.cif
#   From: 2010.03.12/outbox.cif.g09.slc.cpg/sg122_2_cif.got.tgz:2221.got - 2010.04.06 16:17:16.
