data_PCOD8311563
_publ_section_title
;
Structure prediction by ZEFSAII (Michael W. Deem and Ramdas Pophale) SiO2 
 PCOD8311563
Probable space group: I -4 2 M
;
_chemical_formula_sum "Si O2"
_cell_formula_units_Z 96
_cell_length_a 24.458182
_cell_length_b 24.458182
_cell_length_c 9.145230
_cell_angle_alpha 90.000000
_cell_angle_beta 90.000000
_cell_angle_gamma 90.000000
_cell_volume 5470.700974
_symmetry_space_group_name_H-M "I -4 2 M"
_symmetry_group_IT_number 121
_symmetry_cell_setting 'tetragonal'
loop_
_space_group_symop_operation_xyz
x,y,z
y,-x,-z
-x,-y,z
-y,x,-z
x,-y,-z
-x,y,-z
-y,-x,z
y,x,z
1/2+x,1/2+y,1/2+z
1/2+y,1/2-x,1/2-z
1/2-x,1/2-y,1/2+z
1/2-y,1/2+x,1/2-z
1/2+x,1/2-y,1/2-z
1/2-x,1/2+y,1/2-z
1/2-y,1/2-x,1/2+z
1/2+y,1/2+x,1/2+z
loop_
_atom_site_type_symbol
_atom_site_label
_atom_site_fract_x
_atom_site_fract_y
_atom_site_fract_z
Si Si1 0.864177 0.527849 0.642602
Si Si2 0.389957 0.043852 0.618182
Si Si3 0.757119 0.447703 0.198112
Si Si4 0.763002 0.565960 0.129473
Si Si5 0.251158 0.658497 0.357261
Si Si6 0.264050 0.173661 0.809980
O O1 0.835847 0.500000 0.500000
O O2 0.900964 0.577532 0.589453
O O3 0.901505 0.481909 0.721626
O O4 0.821323 0.551122 0.760540
O O5 0.326789 0.058137 0.609384
O O6 0.408578 0.000000 0.500000
O O7 0.736728 0.511318 0.206986
O O8 0.731398 0.403346 0.310675
O O9 0.742021 0.426216 0.036185
O O10 0.748917 0.618458 0.224992
O O11 0.305487 0.694514 0.346756
O O12 0.203612 0.681627 0.250478
O O13 0.226569 0.659229 0.520502
O O14 0.212613 0.212613 0.785823
#
# Coordination Sequence:
#
# PCOD8311563 Si02
#       6
#    16  16  16  16  16  16
#     4  11  23  31  50  66  87 127 172 215 267 307
#     4  11  21  37  44  64  93 124 169 221 261 308
#     4  10  21  36  51  74  99 133 171 212 260 315
#     4  10  20  37  53  70 102 133 169 214 260 313
#     4  10  21  35  54  80 106 135 173 217 266 319
#     4  10  21  35  55  80 105 136 173 217 267 319
#
# _framework density 17.548024999999999
#
# number of rings (size 3 to 8) (size 9 to 14) (size 15 to 20)
#    0.000    1.667    3.333    3.000    4.667    4.000 
#    0.000    0.000    0.000    0.000    0.000    0.000 
#    0.000    0.667    0.000    7.333    0.000    5.333 
#
# Total GULP energy -594823.765436 kJ/mol
# GULP energy per Si atom -12392.161780 kJ/mol
# Density = 1.750808 g / cm^3
# Si number density = 17.548025 Si / 1000 Ang^3
#
#
#
# Elastic Constant Matrix: (Units=GPa)
#
#
# Indices 1 2 3 4 5 6 
#
# 1 62.5013 9.2304 29.6123 0.0000 0.0000 0.0000
# 2 9.2304 62.4994 29.6128 0.0000 0.0000 0.0000
# 3 29.6123 29.6128 108.8529 0.0000 0.0000 0.0000
# 4 0.0000 0.0000 0.0000 29.7170 0.0000 0.0000
# 5 0.0000 0.0000 0.0000 0.0000 29.7167 0.0000
# 6 0.0000 0.0000 0.0000 0.0000 0.0000 21.9240
#
#
#
# Elastic Compliance Matrix: (Units=1/GPa)
#
#
# Indices 1 2 3 4 5 6 
#
# 1 0.018376 -0.000396 -0.004891 0.000000 0.000000 0.000000
# 2 -0.000396 0.018376 -0.004891 0.000000 0.000000 0.000000
# 3 -0.004891 -0.004891 0.011848 0.000000 0.000000 0.000000
# 4 0.000000 0.000000 0.000000 0.033651 0.000000 0.000000
# 5 0.000000 0.000000 0.000000 0.000000 0.033651 0.000000
# 6 0.000000 0.000000 0.000000 0.000000 0.000000 0.045612
#
#
# Mechanical properties :
#
#
# Convention : Reuss Voigt Hill
#
# Bulk Modulus (GPa) = 35.40804 41.19606 38.30205
# Shear Modulus (GPa) = 26.13898 27.29809 26.71853
#
# Velocity S-wave (km/s) = 3.86368 3.94842 3.90628
# Velocity P-wave (km/s) = 6.33448 6.65686 6.49767
#
# Compressibility (1/GPa) = 0.02824217
#
# Stress axis : x y z
#
# Youngs Moduli (GPa) = 54.42027 54.41805 84.40311
#
# Poissons Ratio (x) = 0.02157 0.41282
# Poissons Ratio (y) = 0.02157 0.41284
# Poissons Ratio (z) = 0.26617 0.26618
#
# Static dielectric constant tensor:
#      x y z
#    x 3.182250 0.000000 0.000000 
#    y 0.000000 3.182240 0.000000 
#    z 0.000000 0.000000 1.802880 
# 
# 
# High freq. dielectric constant tensor:
#      x y z
#    x 1.647860 0.000000 0.000000 
#    y 0.000000 1.647860 0.000000 
#    z 0.000000 0.000000 1.700850 
# 
# From -- ./inp_files/1950.got.cif
#   From: 2010.03.12/outbox.cif.g09.slc.cpg/sg121_1_cif.got.tgz:1950.got - 2010.04.06 16:06:48.
