data_PCOD8311514
_publ_section_title
;
Structure prediction by ZEFSAII (Michael W. Deem and Ramdas Pophale) SiO2 
 PCOD8311514
Probable space group: I -4 2 M
;
_chemical_formula_sum "Si O2"
_cell_formula_units_Z 112
_cell_length_a 23.062368
_cell_length_b 23.062368
_cell_length_c 12.179080
_cell_angle_alpha 90.000000
_cell_angle_beta 90.000000
_cell_angle_gamma 90.000000
_cell_volume 6477.721597
_symmetry_space_group_name_H-M "I -4 2 M"
_symmetry_group_IT_number 121
_symmetry_cell_setting 'tetragonal'
loop_
_space_group_symop_operation_xyz
x,y,z
y,-x,-z
-x,-y,z
-y,x,-z
x,-y,-z
-x,y,-z
-y,-x,z
y,x,z
1/2+x,1/2+y,1/2+z
1/2+y,1/2-x,1/2-z
1/2-x,1/2-y,1/2+z
1/2-y,1/2+x,1/2-z
1/2+x,1/2-y,1/2-z
1/2-x,1/2+y,1/2-z
1/2-y,1/2-x,1/2+z
1/2+y,1/2+x,1/2+z
loop_
_atom_site_type_symbol
_atom_site_label
_atom_site_fract_x
_atom_site_fract_y
_atom_site_fract_z
Si Si1 0.504259 0.652768 0.381138
Si Si2 0.204300 0.947595 0.557506
Si Si3 0.227035 0.676278 0.450789
Si Si4 0.498015 0.592078 0.837325
Si Si5 0.881725 0.216658 0.144015
Si Si6 0.891562 0.205141 0.780269
Si Si7 0.235579 0.857729 0.383850
O O1 0.500000 0.620719 0.500000
O O2 0.524451 0.611663 0.282254
O O3 0.553432 0.701658 0.393721
O O4 0.441402 0.679317 0.356356
O O5 0.143846 0.980091 0.586323
O O6 0.230527 0.919411 0.667559
O O7 0.198792 0.898102 0.465738
O O8 0.241981 0.000000 0.500000
O O9 0.272647 0.727354 0.461631
O O10 0.232051 0.639680 0.562929
O O11 0.241736 0.638102 0.343309
O O12 0.162111 0.702510 0.435897
O O13 0.444886 0.555115 0.892947
O O14 0.552434 0.552434 0.813363
O O15 0.839834 0.160167 0.137959
O O16 0.887602 0.243735 0.265855
O O17 0.845233 0.154767 0.750788
O O18 0.200194 0.799807 0.360634
#
# Coordination Sequence:
#
# PCOD8311514 Si02
#       7
#    16  16  16  16  16  16  16
#     4  11  19  30  49  69  96 134 170 217 271 310
#     4  11  22  35  51  71  98 132 176 215 266 311
#     4   9  19  33  50  73  97 126 166 216 271 321
#     4  10  22  35  46  65  95 135 184 230 268 308
#     4  10  20  33  48  72  98 123 166 213 258 314
#     4  10  20  34  50  70  99 134 175 218 268 323
#     4  10  20  33  53  74  97 130 171 220 267 318
#
# _framework density 17.290030000000002
#
# number of rings (size 3 to 8) (size 9 to 14) (size 15 to 20)
#    0.000    1.857    1.429    4.714    2.000    4.571 
#    0.000    1.429    0.000    0.000    0.000    0.000 
#    0.000    0.000    0.000    2.571    5.143    0.000 
#
# Total GULP energy -693827.432635 kJ/mol
# GULP energy per Si atom -12389.775583 kJ/mol
# Density = 1.725068 g / cm^3
# Si number density = 17.290030 Si / 1000 Ang^3
#
#
#
# Elastic Constant Matrix: (Units=GPa)
#
#
# Indices 1 2 3 4 5 6 
#
# 1 43.7797 29.0855 32.7880 0.0000 0.0000 0.0000
# 2 29.0855 43.7817 32.7881 0.0000 0.0000 0.0000
# 3 32.7880 32.7881 147.2455 0.0000 0.0000 0.0000
# 4 0.0000 0.0000 0.0000 21.7862 0.0000 0.0000
# 5 0.0000 0.0000 0.0000 0.0000 21.7866 0.0000
# 6 0.0000 0.0000 0.0000 0.0000 0.0000 26.9046
#
#
#
# Elastic Compliance Matrix: (Units=1/GPa)
#
#
# Indices 1 2 3 4 5 6 
#
# 1 0.042607 -0.025443 -0.003822 0.000000 0.000000 0.000000
# 2 -0.025443 0.042605 -0.003822 0.000000 0.000000 0.000000
# 3 -0.003822 -0.003822 0.008493 0.000000 0.000000 0.000000
# 4 0.000000 0.000000 0.000000 0.045901 0.000000 0.000000
# 5 0.000000 0.000000 0.000000 0.000000 0.045900 0.000000
# 6 0.000000 0.000000 0.000000 0.000000 0.000000 0.037168
#
#
# Mechanical properties :
#
#
# Convention : Reuss Voigt Hill
#
# Bulk Modulus (GPa) = 36.32063 47.12559 41.72311
# Shear Modulus (GPa) = 16.77706 23.43850 20.10778
#
# Velocity S-wave (km/s) = 3.11839 3.68585 3.41393
# Velocity P-wave (km/s) = 5.83251 6.74011 6.30267
#
# Compressibility (1/GPa) = 0.02753256
#
# Stress axis : x y z
#
# Youngs Moduli (GPa) = 23.47007 23.47130 117.73784
#
# Poissons Ratio (x) = 0.59718 0.45000
# Poissons Ratio (y) = 0.59715 0.44995
# Poissons Ratio (z) = 0.08970 0.08970
#
# Static dielectric constant tensor:
#      x y z
#    x 3.144210 0.000000 0.000000 
#    y 0.000000 3.144200 0.000000 
#    z 0.000000 0.000000 3.678240 
# 
# 
# High freq. dielectric constant tensor:
#      x y z
#    x 1.628480 0.000000 0.000000 
#    y 0.000000 1.628480 0.000000 
#    z 0.000000 0.000000 1.699850 
# 
# From -- ./inp_files/3475.got.cif
#   From: 2010.03.12/outbox.cif.g09.slc.cpg/sg121_2_cif.got.tgz:3475.got - 2010.04.06 16:06:48.
