data_PCOD8311764
_publ_section_title
;
Structure prediction by ZEFSAII (Michael W. Deem and Ramdas Pophale) SiO2 
 PCOD8311764
Probable space group: I -4 2 D
;
_chemical_formula_sum "Si O2"
_cell_formula_units_Z 80
_cell_length_a 11.212576
_cell_length_b 11.212576
_cell_length_c 32.827368
_cell_angle_alpha 90.000000
_cell_angle_beta 90.000000
_cell_angle_gamma 90.000000
_cell_volume 4127.117782
_symmetry_space_group_name_H-M "I -4 2 D"
_symmetry_group_IT_number 122
_symmetry_cell_setting 'tetragonal'
loop_
_space_group_symop_operation_xyz
x,y,z
y,-x,-z
-x,-y,z
-y,x,-z
x,1/2-y,1/4-z
-x,1/2+y,1/4-z
-y,1/2-x,1/4+z
y,1/2+x,1/4+z
1/2+x,1/2+y,1/2+z
1/2+y,1/2-x,1/2-z
1/2-x,1/2-y,1/2+z
1/2-y,1/2+x,1/2-z
1/2+x,-y,3/4-z
1/2-x,y,3/4-z
1/2-y,-x,3/4+z
1/2+y,x,3/4+z
loop_
_atom_site_type_symbol
_atom_site_label
_atom_site_fract_x
_atom_site_fract_y
_atom_site_fract_z
Si Si1 0.830573 0.026582 0.665377
Si Si2 0.145116 0.700989 0.844671
Si Si3 0.975873 0.815053 0.696181
Si Si4 0.681334 0.458757 0.513673
Si Si5 0.386350 0.077163 0.527258
O O1 0.701854 0.050502 0.686908
O O2 0.911612 0.146618 0.667350
O O3 0.828012 0.976174 0.619537
O O4 0.883921 0.924414 0.694890
O O5 0.250000 0.744344 0.875000
O O6 0.192495 0.583891 0.820224
O O7 0.108108 0.807828 0.815991
O O8 0.012557 0.802196 0.743489
O O9 0.588774 0.359925 0.499689
O O10 0.802969 0.434689 0.491329
O O11 0.500000 0.000000 0.541324
#
# Coordination Sequence:
#
# PCOD8311764 Si02
#       5
#    16  16  16  16  16
#     4   9  17  36  59  84 115 152 198 240 303 353
#     4  10  21  37  62  88 122 156 193 253 309 357
#     4   9  17  37  62  79 114 161 194 238 300 362
#     4  10  19  34  63  90 116 165 209 237 294 380
#     4  11  21  38  61  89 123 156 203 257 301 355
#
# _framework density 19.383987999999999
#
# number of rings (size 3 to 8) (size 9 to 14) (size 15 to 20)
#    0.000    2.200    4.000    2.400    0.000    0.000 
#    7.200   10.000    4.400    0.000    0.000    0.000 
#    0.000    0.000    0.000    0.000    0.000    0.000 
#
# Total GULP energy -495649.060925 kJ/mol
# GULP energy per Si atom -12391.226523 kJ/mol
# Density = 1.933987 g / cm^3
# Si number density = 19.383988 Si / 1000 Ang^3
#
#
#
# Elastic Constant Matrix: (Units=GPa)
#
#
# Indices 1 2 3 4 5 6 
#
# 1 88.3685 41.4411 53.1486 0.0000 0.0000 0.0000
# 2 41.4411 88.3685 53.1486 0.0000 0.0000 0.0000
# 3 53.1486 53.1486 99.5121 0.0000 0.0000 0.0000
# 4 0.0000 0.0000 0.0000 21.4834 0.0000 0.0000
# 5 0.0000 0.0000 0.0000 0.0000 21.4834 0.0000
# 6 0.0000 0.0000 0.0000 0.0000 0.0000 60.4509
#
#
#
# Elastic Compliance Matrix: (Units=1/GPa)
#
#
# Indices 1 2 3 4 5 6 
#
# 1 0.017501 -0.003809 -0.007313 0.000000 0.000000 0.000000
# 2 -0.003809 0.017501 -0.007313 0.000000 0.000000 0.000000
# 3 -0.007313 -0.007313 0.017860 0.000000 0.000000 0.000000
# 4 0.000000 0.000000 0.000000 0.046548 0.000000 0.000000
# 5 0.000000 0.000000 0.000000 0.000000 0.046548 0.000000
# 6 0.000000 0.000000 0.000000 0.000000 0.000000 0.016542
#
#
# Mechanical properties :
#
#
# Convention : Reuss Voigt Hill
#
# Bulk Modulus (GPa) = 62.52684 63.52511 63.02597
# Shear Modulus (GPa) = 24.42621 29.25093 26.83857
#
# Velocity S-wave (km/s) = 3.55367 3.88883 3.72502
# Velocity P-wave (km/s) = 7.01178 7.28060 7.14745
#
# Compressibility (1/GPa) = 0.01599313
#
# Stress axis : x y z
#
# Youngs Moduli (GPa) = 57.14094 57.14093 55.99032
#
# Poissons Ratio (x) = 0.21765 0.40943
# Poissons Ratio (y) = 0.21765 0.40943
# Poissons Ratio (z) = 0.41785 0.41785
#
# Static dielectric constant tensor:
#      x y z
#    x 3.896840 0.000000 0.000000 
#    y 0.000000 3.896840 0.000000 
#    z 0.000000 0.000000 3.534050 
# 
# 
# High freq. dielectric constant tensor:
#      x y z
#    x 1.744030 0.000000 0.000000 
#    y 0.000000 1.744030 0.000000 
#    z 0.000000 0.000000 1.750590 
# 
# From -- ./inp_files/9385.got.cif
#   From: 2010.03.12/outbox.cif.g09.slc.cpg/sg122_5_cif.got.tgz:9385.got - 2010.04.06 16:17:16.
