data_PCOD8311951
_publ_section_title
;
Structure prediction by ZEFSAII (Michael W. Deem and Ramdas Pophale) SiO2 
 PCOD8311951
Probable space group: I -4 2 D
;
_chemical_formula_sum "Si O2"
_cell_formula_units_Z 72
_cell_length_a 17.833878
_cell_length_b 17.833878
_cell_length_c 10.599550
_cell_angle_alpha 90.000000
_cell_angle_beta 90.000000
_cell_angle_gamma 90.000000
_cell_volume 3371.157247
_symmetry_space_group_name_H-M "I -4 2 D"
_symmetry_group_IT_number 122
_symmetry_cell_setting 'tetragonal'
loop_
_space_group_symop_operation_xyz
x,y,z
y,-x,-z
-x,-y,z
-y,x,-z
x,1/2-y,1/4-z
-x,1/2+y,1/4-z
-y,1/2-x,1/4+z
y,1/2+x,1/4+z
1/2+x,1/2+y,1/2+z
1/2+y,1/2-x,1/2-z
1/2-x,1/2-y,1/2+z
1/2-y,1/2+x,1/2-z
1/2+x,-y,3/4-z
1/2-x,y,3/4-z
1/2-y,-x,3/4+z
1/2+y,x,3/4+z
loop_
_atom_site_type_symbol
_atom_site_label
_atom_site_fract_x
_atom_site_fract_y
_atom_site_fract_z
Si Si1 0.509725 0.621548 0.973287
Si Si2 0.750000 0.079991 0.375000
Si Si3 0.702720 0.162660 0.616770
Si Si4 0.308036 0.557350 0.272991
Si Si5 0.585835 0.915270 0.732112
O O1 0.501024 0.655776 0.830890
O O2 0.580618 0.565596 0.982639
O O3 0.523844 0.689638 0.066889
O O4 0.710406 0.134447 0.474711
O O5 0.717206 0.250000 0.625000
O O6 0.764622 0.123741 0.703947
O O7 0.619333 0.143183 0.666575
O O8 0.250000 0.518868 0.375000
O O9 0.377575 0.595237 0.345779
O O10 0.502539 0.898365 0.784514
#
# Coordination Sequence:
#
# PCOD8311951 Si02
#       5
#    16   8  16  16  16
#     4  10  23  43  70  98 135 179 228 291 341 413
#     4  10  24  44  62 102 128 170 232 266 346 410
#     4  10  23  42  64  91 130 174 214 273 330 403
#     4   9  21  43  61  92 134 166 220 268 341 403
#     4  10  23  39  66  95 125 168 217 270 325 399
#
# _framework density 21.357652000000002
#
# number of rings (size 3 to 8) (size 9 to 14) (size 15 to 20)
#    0.000    2.222    0.000    0.000   10.889    4.444 
#   12.000    0.000    0.000    0.000    0.000    0.000 
#    0.000    0.000    0.000    0.000    0.000    0.000 
#
# Total GULP energy -446347.887116 kJ/mol
# GULP energy per Si atom -12398.552420 kJ/mol
# Density = 2.130904 g / cm^3
# Si number density = 21.357652 Si / 1000 Ang^3
#
#
#
# Elastic Constant Matrix: (Units=GPa)
#
#
# Indices 1 2 3 4 5 6 
#
# 1 83.5959 14.8784 32.1251 0.0000 0.0000 0.0000
# 2 14.8784 83.5959 32.1251 0.0000 0.0000 0.0000
# 3 32.1251 32.1251 143.1877 0.0000 0.0000 0.0000
# 4 0.0000 0.0000 0.0000 20.9765 0.0000 0.0000
# 5 0.0000 0.0000 0.0000 0.0000 20.9765 0.0000
# 6 0.0000 0.0000 0.0000 0.0000 0.0000 26.4174
#
#
#
# Elastic Compliance Matrix: (Units=1/GPa)
#
#
# Indices 1 2 3 4 5 6 
#
# 1 0.013224 -0.001328 -0.002669 0.000000 0.000000 0.000000
# 2 -0.001328 0.013224 -0.002669 0.000000 0.000000 0.000000
# 3 -0.002669 -0.002669 0.008181 0.000000 0.000000 0.000000
# 4 0.000000 0.000000 0.000000 0.047672 0.000000 0.000000
# 5 0.000000 0.000000 0.000000 0.000000 0.047672 0.000000
# 6 0.000000 0.000000 0.000000 0.000000 0.000000 0.037854
#
#
# Mechanical properties :
#
#
# Convention : Reuss Voigt Hill
#
# Bulk Modulus (GPa) = 46.95261 52.07076 49.51168
# Shear Modulus (GPa) = 26.55901 29.09083 27.82492
#
# Velocity S-wave (km/s) = 3.53021 3.69464 3.61336
# Velocity P-wave (km/s) = 6.21677 6.52946 6.37503
#
# Compressibility (1/GPa) = 0.02129807
#
# Stress axis : x y z
#
# Youngs Moduli (GPa) = 75.61815 75.61815 122.22744
#
# Poissons Ratio (x) = 0.10042 0.32623
# Poissons Ratio (y) = 0.10042 0.32623
# Poissons Ratio (z) = 0.20183 0.20183
#
# Static dielectric constant tensor:
#      x y z
#    x 3.822470 0.000000 0.000000 
#    y 0.000000 3.822470 0.000000 
#    z 0.000000 0.000000 4.239370 
# 
# 
# High freq. dielectric constant tensor:
#      x y z
#    x 1.834620 0.000000 0.000000 
#    y 0.000000 1.834620 0.000000 
#    z 0.000000 0.000000 1.851790 
# 
# From -- ./inp_files/4151.got.cif
#   From: 2010.03.12/outbox.cif.g09.slc.cpg/sg122_3_cif.got.tgz:4151.got - 2010.04.06 16:17:16.
