data_PCOD8311002
_publ_section_title
;
Structure prediction by ZEFSAII (Michael W. Deem and Ramdas Pophale) SiO2 
 PCOD8311002
Probable space group: I -4 M 2
;
_chemical_formula_sum "Si O2"
_cell_formula_units_Z 112
_cell_length_a 15.277062
_cell_length_b 15.277062
_cell_length_c 22.960871
_cell_angle_alpha 90.000000
_cell_angle_beta 90.000000
_cell_angle_gamma 90.000000
_cell_volume 5358.806074
_symmetry_space_group_name_H-M "I -4 M 2"
_symmetry_group_IT_number 119
_symmetry_cell_setting 'tetragonal'
loop_
_space_group_symop_operation_xyz
x,y,z
y,-x,-z
-x,-y,z
-y,x,-z
y,x,-z
-y,-x,-z
-x,y,z
x,-y,z
1/2+x,1/2+y,1/2+z
1/2+y,1/2-x,1/2-z
1/2-x,1/2-y,1/2+z
1/2-y,1/2+x,1/2-z
1/2+y,1/2+x,1/2-z
1/2-y,1/2-x,1/2-z
1/2-x,1/2+y,1/2+z
1/2+x,1/2-y,1/2+z
loop_
_atom_site_type_symbol
_atom_site_label
_atom_site_fract_x
_atom_site_fract_y
_atom_site_fract_z
Si Si1 0.683500 0.098391 0.136233
Si Si2 0.245131 0.097387 0.009633
Si Si3 0.334016 0.695262 0.272601
Si Si4 0.142411 0.401008 0.071234
Si Si5 0.278995 0.597926 0.846776
Si Si6 0.828557 0.400484 0.308619
Si Si7 0.337079 0.404671 0.058680
O O1 0.769202 0.102131 0.177236
O O2 0.617226 0.174598 0.156625
O O3 0.642482 0.000000 0.141870
O O4 0.710880 0.118972 0.070890
O O5 0.323767 0.092005 0.962456
O O6 0.202102 0.000000 0.010125
O O7 0.170187 0.170187 0.000000
O O8 0.267541 0.767541 0.250000
O O9 0.389905 0.671463 0.215303
O O10 0.275216 0.617533 0.299505
O O11 0.099702 0.500000 0.067326
O O12 0.154131 0.371803 0.138734
O O13 0.236140 0.406164 0.040725
O O14 0.291351 0.500000 0.867652
O O15 0.327670 0.655251 0.894592
O O16 0.840299 0.500000 0.326888
O O17 0.881059 0.381059 0.250000
O O18 0.364844 0.500000 0.084516
O O19 0.390809 0.390809 0.000000
#
# Coordination Sequence:
#
# PCOD8311002 Si02
#       7
#    16  16  16  16  16  16  16
#     4  10  21  38  60  84 112 150 196 246 306 376
#     4  11  23  39  61  87 118 158 202 252 311 373
#     4   9  19  37  58  80 109 149 195 240 292 358
#     4  11  23  39  61  89 121 157 201 254 312 375
#     4  11  22  36  58  87 119 155 198 252 310 368
#     4  11  22  36  57  84 117 157 199 247 305 371
#     4  11  23  39  60  86 120 163 207 250 304 373
#
# _framework density 20.900179000000001
#
# number of rings (size 3 to 8) (size 9 to 14) (size 15 to 20)
#    0.000    1.429    0.000    7.286    0.000    6.714 
#    0.000    1.429    0.000    4.714    0.000    0.000 
#    0.000    0.000    0.000    0.000    0.000    0.000 
#
# Total GULP energy -694022.080553 kJ/mol
# GULP energy per Si atom -12393.251438 kJ/mol
# Density = 2.085261 g / cm^3
# Si number density = 20.900179 Si / 1000 Ang^3
#
#
#
# Elastic Constant Matrix: (Units=GPa)
#
#
# Indices 1 2 3 4 5 6 
#
# 1 90.5403 35.3923 18.1308 0.0000 0.0000 0.0000
# 2 35.3923 90.5403 18.1308 0.0000 0.0000 0.0000
# 3 18.1308 18.1308 113.5275 0.0000 0.0000 0.0000
# 4 0.0000 0.0000 0.0000 18.9243 0.0000 0.0000
# 5 0.0000 0.0000 0.0000 0.0000 18.9243 0.0000
# 6 0.0000 0.0000 0.0000 0.0000 0.0000 13.7784
#
#
#
# Elastic Compliance Matrix: (Units=1/GPa)
#
#
# Indices 1 2 3 4 5 6 
#
# 1 0.013228 -0.004905 -0.001329 0.000000 0.000000 0.000000
# 2 -0.004905 0.013228 -0.001329 0.000000 0.000000 0.000000
# 3 -0.001329 -0.001329 0.009233 0.000000 0.000000 0.000000
# 4 0.000000 0.000000 0.000000 0.052842 0.000000 0.000000
# 5 0.000000 0.000000 0.000000 0.000000 0.052842 0.000000
# 6 0.000000 0.000000 0.000000 0.000000 0.000000 0.072577
#
#
# Mechanical properties :
#
#
# Convention : Reuss Voigt Hill
#
# Bulk Modulus (GPa) = 48.63132 48.65730 48.64431
# Shear Modulus (GPa) = 21.19252 25.18902 23.19077
#
# Velocity S-wave (km/s) = 3.18777 3.47537 3.33467
# Velocity P-wave (km/s) = 6.07191 6.27978 6.17672
#
# Compressibility (1/GPa) = 0.02056288
#
# Stress axis : x y z
#
# Youngs Moduli (GPa) = 75.59569 75.59569 108.30689
#
# Poissons Ratio (x) = 0.37078 0.14397
# Poissons Ratio (y) = 0.37078 0.14397
# Poissons Ratio (z) = 0.10049 0.10049
#
# Static dielectric constant tensor:
#      x y z
#    x 3.759420 0.000000 0.000000 
#    y 0.000000 3.759420 0.000000 
#    z 0.000000 0.000000 3.982950 
# 
# 
# High freq. dielectric constant tensor:
#      x y z
#    x 1.808800 0.000000 0.000000 
#    y 0.000000 1.808800 0.000000 
#    z 0.000000 0.000000 1.830580 
# 
# From -- ./inp_files/8843.got.cif
#   From: 2010.03.12/outbox.cif.g09.slc.cpg/sg119_5_cif.got.tgz:8843.got - 2010.04.14 02:25:26.
