data_PCOD8311993
_publ_section_title
;
Structure prediction by ZEFSAII (Michael W. Deem and Ramdas Pophale) SiO2 
 PCOD8311993
Probable space group: I -4 2 D
;
_chemical_formula_sum "Si O2"
_cell_formula_units_Z 72
_cell_length_a 13.593127
_cell_length_b 13.593127
_cell_length_c 19.098620
_cell_angle_alpha 90.000000
_cell_angle_beta 90.000000
_cell_angle_gamma 90.000000
_cell_volume 3528.911254
_symmetry_space_group_name_H-M "I -4 2 D"
_symmetry_group_IT_number 122
_symmetry_cell_setting 'tetragonal'
loop_
_space_group_symop_operation_xyz
x,y,z
y,-x,-z
-x,-y,z
-y,x,-z
x,1/2-y,1/4-z
-x,1/2+y,1/4-z
-y,1/2-x,1/4+z
y,1/2+x,1/4+z
1/2+x,1/2+y,1/2+z
1/2+y,1/2-x,1/2-z
1/2-x,1/2-y,1/2+z
1/2-y,1/2+x,1/2-z
1/2+x,-y,3/4-z
1/2-x,y,3/4-z
1/2-y,-x,3/4+z
1/2+y,x,3/4+z
loop_
_atom_site_type_symbol
_atom_site_label
_atom_site_fract_x
_atom_site_fract_y
_atom_site_fract_z
Si Si1 0.893644 0.031829 0.280650
Si Si2 0.795930 0.544450 0.446783
Si Si3 0.128154 0.434976 0.215675
Si Si4 0.135079 0.838359 0.813864
Si Si5 0.838094 0.750000 0.625000
O O1 0.920706 0.093132 0.210189
O O2 0.827110 0.091059 0.335605
O O3 0.830988 0.939119 0.252029
O O4 0.000000 0.000000 0.314717
O O5 0.750000 0.584470 0.375000
O O6 0.736587 0.597404 0.509747
O O7 0.785785 0.424753 0.450605
O O8 0.122222 0.548623 0.238430
O O9 0.122184 0.421875 0.132879
O O10 0.189284 0.733574 0.822489
#
# Coordination Sequence:
#
# PCOD8311993 Si02
#       5
#    16  16  16  16   8
#     4  10  25  43  64  93 131 167 213 277 325 374
#     4  11  19  36  60  91 131 163 199 262 323 379
#     4  11  20  31  57  92 127 165 203 253 320 385
#     4  11  22  40  61  93 122 163 213 260 323 385
#     4  12  22  48  70  90 124 176 222 268 322 392
#
# _framework density 20.402894
#
# number of rings (size 3 to 8) (size 9 to 14) (size 15 to 20)
#    0.000    1.111    5.556    1.333    6.222    0.000 
#    4.000    0.000    0.000    0.000    0.000    0.000 
#    0.000    0.000    0.000    0.000    0.000    0.000 
#
# Total GULP energy -446009.933397 kJ/mol
# GULP energy per Si atom -12389.164817 kJ/mol
# Density = 2.035646 g / cm^3
# Si number density = 20.402894 Si / 1000 Ang^3
#
#
#
# Elastic Constant Matrix: (Units=GPa)
#
#
# Indices 1 2 3 4 5 6 
#
# 1 94.7543 45.1962 35.6446 0.0000 0.0000 0.0000
# 2 45.1962 94.7543 35.6446 0.0000 0.0000 0.0000
# 3 35.6446 35.6446 59.2947 0.0000 0.0000 0.0000
# 4 0.0000 0.0000 0.0000 32.1420 0.0000 0.0000
# 5 0.0000 0.0000 0.0000 0.0000 32.1420 0.0000
# 6 0.0000 0.0000 0.0000 0.0000 0.0000 27.7016
#
#
#
# Elastic Compliance Matrix: (Units=1/GPa)
#
#
# Indices 1 2 3 4 5 6 
#
# 1 0.015239 -0.004940 -0.006191 0.000000 0.000000 0.000000
# 2 -0.004940 0.015239 -0.006191 0.000000 0.000000 0.000000
# 3 -0.006191 -0.006191 0.024309 0.000000 0.000000 0.000000
# 4 0.000000 0.000000 0.000000 0.031112 0.000000 0.000000
# 5 0.000000 0.000000 0.000000 0.000000 0.031112 0.000000
# 6 0.000000 0.000000 0.000000 0.000000 0.000000 0.036099
#
#
# Mechanical properties :
#
#
# Convention : Reuss Voigt Hill
#
# Bulk Modulus (GPa) = 49.64793 53.53046 51.58920
# Shear Modulus (GPa) = 25.71130 27.21833 26.46481
#
# Velocity S-wave (km/s) = 3.55375 3.65642 3.60545
# Velocity P-wave (km/s) = 6.42071 6.64225 6.53242
#
# Compressibility (1/GPa) = 0.02014183
#
# Stress axis : x y z
#
# Youngs Moduli (GPa) = 65.62219 65.62219 41.13775
#
# Poissons Ratio (x) = 0.32415 0.25469
# Poissons Ratio (y) = 0.32415 0.25469
# Poissons Ratio (z) = 0.40628 0.40628
#
# Static dielectric constant tensor:
#      x y z
#    x 3.889000 0.000000 0.000000 
#    y 0.000000 3.889000 0.000000 
#    z 0.000000 0.000000 3.604070 
# 
# 
# High freq. dielectric constant tensor:
#      x y z
#    x 1.802130 0.000000 0.000000 
#    y 0.000000 1.802130 0.000000 
#    z 0.000000 0.000000 1.770520 
# 
# From -- ./inp_files/6117.got.cif
#   From: 2010.03.12/outbox.cif.g09.slc.cpg/sg122_4_cif.got.tgz:6117.got - 2010.04.06 16:17:16.
