data_PCOD8311387
_publ_section_title
;
Structure prediction by ZEFSAII (Michael W. Deem and Ramdas Pophale) SiO2 
 PCOD8311387
Probable space group: I -4 2 M
;
_chemical_formula_sum "Si O2"
_cell_formula_units_Z 112
_cell_length_a 17.710616
_cell_length_b 17.710616
_cell_length_c 21.322975
_cell_angle_alpha 90.000000
_cell_angle_beta 90.000000
_cell_angle_gamma 90.000000
_cell_volume 6688.290551
_symmetry_space_group_name_H-M "I -4 2 M"
_symmetry_group_IT_number 121
_symmetry_cell_setting 'tetragonal'
loop_
_space_group_symop_operation_xyz
x,y,z
y,-x,-z
-x,-y,z
-y,x,-z
x,-y,-z
-x,y,-z
-y,-x,z
y,x,z
1/2+x,1/2+y,1/2+z
1/2+y,1/2-x,1/2-z
1/2-x,1/2-y,1/2+z
1/2-y,1/2+x,1/2-z
1/2+x,1/2-y,1/2-z
1/2-x,1/2+y,1/2-z
1/2-y,1/2-x,1/2+z
1/2+y,1/2+x,1/2+z
loop_
_atom_site_type_symbol
_atom_site_label
_atom_site_fract_x
_atom_site_fract_y
_atom_site_fract_z
Si Si1 0.614236 0.264465 0.270003
Si Si2 0.338334 0.985360 0.693237
Si Si3 0.739360 0.139591 0.970038
Si Si4 0.130477 0.541035 0.671734
Si Si5 0.126006 0.367586 0.135363
Si Si6 0.229278 0.890212 0.107924
Si Si7 0.539982 0.657195 0.616508
O O1 0.685282 0.314719 0.246642
O O2 0.565335 0.235570 0.209937
O O3 0.645006 0.193203 0.309949
O O4 0.559635 0.313804 0.313735
O O5 0.399974 0.935248 0.656840
O O6 0.373912 0.020316 0.755615
O O7 0.324280 0.057080 0.647898
O O8 0.780172 0.219829 0.968436
O O9 0.660436 0.150121 0.933665
O O10 0.788171 0.077348 0.934262
O O11 0.727267 0.113904 0.041498
O O12 0.118568 0.464566 0.632343
O O13 0.210374 0.582291 0.658715
O O14 0.190206 0.809795 0.125134
O O15 0.160456 0.950646 0.105331
O O16 0.572032 0.572032 0.608060
#
# Coordination Sequence:
#
# PCOD8311387 Si02
#       7
#    16  16  16  16  16  16  16
#     4   9  17  29  48  71 101 131 165 208 254 299
#     4  11  19  31  49  73  97 132 168 211 250 301
#     4   9  18  33  52  70  97 132 171 214 258 298
#     4  11  20  31  47  74 101 127 164 214 257 294
#     4  10  18  30  53  70  96 130 172 206 255 300
#     4  11  21  33  49  72 101 136 174 215 258 311
#     4   9  16  29  48  70  95 132 172 209 252 301
#
# _framework density 16.745684000000001
#
# number of rings (size 3 to 8) (size 9 to 14) (size 15 to 20)
#    0.000    2.000    7.143    2.143    0.000    0.857 
#    0.000    0.714    0.000    4.286    0.000    0.000 
#    0.000    0.000    0.000    0.000    0.000    7.143 
#
# Total GULP energy -693988.658158 kJ/mol
# GULP energy per Si atom -12392.654610 kJ/mol
# Density = 1.670757 g / cm^3
# Si number density = 16.745684 Si / 1000 Ang^3
#
#
#
# Elastic Constant Matrix: (Units=GPa)
#
#
# Indices 1 2 3 4 5 6 
#
# 1 71.3809 43.0811 28.3907 0.0000 0.0000 0.0000
# 2 43.0811 71.3843 28.3918 0.0000 0.0000 0.0000
# 3 28.3907 28.3918 36.2294 0.0000 0.0000 0.0000
# 4 0.0000 0.0000 0.0000 22.1681 0.0000 0.0000
# 5 0.0000 0.0000 0.0000 0.0000 22.1681 0.0000
# 6 0.0000 0.0000 0.0000 0.0000 0.0000 31.2690
#
#
#
# Elastic Compliance Matrix: (Units=1/GPa)
#
#
# Indices 1 2 3 4 5 6 
#
# 1 0.024814 -0.010521 -0.011200 0.000000 0.000000 0.000000
# 2 -0.010521 0.024813 -0.011201 0.000000 0.000000 0.000000
# 3 -0.011200 -0.011201 0.045156 0.000000 0.000000 0.000000
# 4 0.000000 0.000000 0.000000 0.045110 0.000000 0.000000
# 5 0.000000 0.000000 0.000000 0.000000 0.045110 0.000000
# 6 0.000000 0.000000 0.000000 0.000000 0.000000 0.031981
#
#
# Mechanical properties :
#
#
# Convention : Reuss Voigt Hill
#
# Bulk Modulus (GPa) = 34.55442 42.08018 38.31730
# Shear Modulus (GPa) = 17.09563 20.39645 18.74604
#
# Velocity S-wave (km/s) = 3.19862 3.49379 3.34946
# Velocity P-wave (km/s) = 5.85842 6.43886 6.15549
#
# Compressibility (1/GPa) = 0.02893986
#
# Stress axis : x y z
#
# Youngs Moduli (GPa) = 40.30048 40.30183 22.14529
#
# Poissons Ratio (x) = 0.42400 0.24803
# Poissons Ratio (y) = 0.42398 0.24804
# Poissons Ratio (z) = 0.45137 0.45141
#
# Static dielectric constant tensor:
#      x y z
#    x 3.166390 0.000000 0.000000 
#    y 0.000000 3.166390 0.000000 
#    z 0.000000 0.000000 2.978430 
# 
# 
# High freq. dielectric constant tensor:
#      x y z
#    x 1.631620 0.000000 0.000000 
#    y 0.000000 1.631620 0.000000 
#    z 0.000000 0.000000 1.613210 
# 
# From -- ./inp_files/7291.got.cif
#   From: 2010.03.12/outbox.cif.g09.slc.cpg/sg121_4_cif.got.tgz:7291.got - 2010.04.06 16:06:48.
