data_PCOD8311683
_publ_section_title
;
Structure prediction by ZEFSAII (Michael W. Deem and Ramdas Pophale) SiO2 
 PCOD8311683
Probable space group: I -4 2 M
;
_chemical_formula_sum "Si O2"
_cell_formula_units_Z 96
_cell_length_a 23.577667
_cell_length_b 23.577667
_cell_length_c 8.848414
_cell_angle_alpha 90.000000
_cell_angle_beta 90.000000
_cell_angle_gamma 90.000000
_cell_volume 4918.889806
_symmetry_space_group_name_H-M "I -4 2 M"
_symmetry_group_IT_number 121
_symmetry_cell_setting 'tetragonal'
loop_
_space_group_symop_operation_xyz
x,y,z
y,-x,-z
-x,-y,z
-y,x,-z
x,-y,-z
-x,y,-z
-y,-x,z
y,x,z
1/2+x,1/2+y,1/2+z
1/2+y,1/2-x,1/2-z
1/2-x,1/2-y,1/2+z
1/2-y,1/2+x,1/2-z
1/2+x,1/2-y,1/2-z
1/2-x,1/2+y,1/2-z
1/2-y,1/2-x,1/2+z
1/2+y,1/2+x,1/2+z
loop_
_atom_site_type_symbol
_atom_site_label
_atom_site_fract_x
_atom_site_fract_y
_atom_site_fract_z
Si Si1 0.723801 0.002655 0.670630
Si Si2 0.687351 0.312650 0.324897
Si Si3 0.592371 0.407630 0.352666
Si Si4 0.297294 0.120576 0.182234
Si Si5 0.892264 0.107737 0.175261
Si Si6 0.803208 0.196793 0.149235
Si Si7 0.997449 0.146308 0.334532
Si Si8 0.204134 0.620014 0.681375
O O1 0.698568 0.055613 0.761891
O O2 0.789657 0.018018 0.660722
O O3 0.698534 0.000000 0.500000
O O4 0.713469 0.943431 0.757013
O O5 0.639579 0.360422 0.323622
O O6 0.657062 0.256732 0.249595
O O7 0.714013 0.285988 0.479211
O O8 0.579201 0.420800 0.528489
O O9 0.610261 0.466361 0.280783
O O10 0.355614 0.146781 0.246394
O O11 0.296329 0.118608 0.000299
O O12 0.849215 0.150786 0.101945
O O13 0.933487 0.143815 0.279239
O O14 0.752444 0.165306 0.238719
O O15 0.000000 0.118451 0.500000
#
# Coordination Sequence:
#
# PCOD8311683 Si02
#       8
#    16   8   8  16   8   8  16  16
#     4  11  23  39  60  87 118 157 197 239 294 355
#     4   9  19  34  57  87 120 155 194 239 293 347
#     4  11  21  37  59  82 110 154 206 247 292 354
#     4  11  22  39  61  90 123 158 197 243 293 350
#     4  11  21  37  59  82 110 154 206 247 292 354
#     4   9  19  34  57  87 120 155 194 239 293 347
#     4  11  23  38  56  83 116 152 198 253 302 343
#     4  11  22  39  61  90 123 158 197 243 293 350
#
# _framework density 19.516597999999998
#
# number of rings (size 3 to 8) (size 9 to 14) (size 15 to 20)
#    0.000    1.333    3.333    3.000    0.000    1.667 
#    0.000    4.167    0.000    0.500    0.000    3.500 
#    0.000    0.000    0.000    0.000    0.000    0.000 
#
# Total GULP energy -594703.693893 kJ/mol
# GULP energy per Si atom -12389.660289 kJ/mol
# Density = 1.947218 g / cm^3
# Si number density = 19.516598 Si / 1000 Ang^3
#
#
#
# Elastic Constant Matrix: (Units=GPa)
#
#
# Indices 1 2 3 4 5 6 
#
# 1 72.3687 62.7201 34.5351 0.0000 0.0000 0.0000
# 2 62.7201 72.3688 34.5347 0.0000 0.0000 0.0000
# 3 34.5351 34.5347 118.1189 0.0000 0.0000 0.0000
# 4 0.0000 0.0000 0.0000 30.0957 0.0000 0.0000
# 5 0.0000 0.0000 0.0000 0.0000 30.0973 0.0000
# 6 0.0000 0.0000 0.0000 0.0000 0.0000 32.6549
#
#
#
# Elastic Compliance Matrix: (Units=1/GPa)
#
#
# Indices 1 2 3 4 5 6 
#
# 1 0.056172 -0.047469 -0.002545 0.000000 0.000000 0.000000
# 2 -0.047469 0.056172 -0.002544 0.000000 0.000000 0.000000
# 3 -0.002545 -0.002544 0.009954 0.000000 0.000000 0.000000
# 4 0.000000 0.000000 0.000000 0.033227 0.000000 0.000000
# 5 0.000000 0.000000 0.000000 0.000000 0.033226 0.000000
# 6 0.000000 0.000000 0.000000 0.000000 0.000000 0.030623
#
#
# Mechanical properties :
#
#
# Convention : Reuss Voigt Hill
#
# Bulk Modulus (GPa) = 58.19888 58.49290 58.34589
# Shear Modulus (GPa) = 15.14150 27.30738 21.22444
#
# Velocity S-wave (km/s) = 2.78839 3.74463 3.30131
# Velocity P-wave (km/s) = 6.34443 6.98085 6.67023
#
# Compressibility (1/GPa) = 0.01718246
#
# Stress axis : x y z
#
# Youngs Moduli (GPa) = 17.80232 17.80243 100.46151
#
# Poissons Ratio (x) = 0.84506 0.25567
# Poissons Ratio (y) = 0.84505 0.25562
# Poissons Ratio (z) = 0.04531 0.04530
#
# Static dielectric constant tensor:
#      x y z
#    x 3.436280 0.000000 0.000000 
#    y 0.000000 3.436270 0.000000 
#    z 0.000000 0.000000 3.582840 
# 
# 
# High freq. dielectric constant tensor:
#      x y z
#    x 1.750150 0.000000 0.000000 
#    y 0.000000 1.750150 0.000000 
#    z 0.000000 0.000000 1.762490 
# 
# From -- ./inp_files/2032.got.cif
#   From: 2010.03.12/outbox.cif.g09.slc.cpg/sg121_2_cif.got.tgz:2032.got - 2010.04.06 16:06:48.
