data_PCOD8311686
_publ_section_title
;
Structure prediction by ZEFSAII (Michael W. Deem and Ramdas Pophale) SiO2 
 PCOD8311686
Probable space group: I -4 2 M
;
_chemical_formula_sum "Si O2"
_cell_formula_units_Z 64
_cell_length_a 12.673686
_cell_length_b 12.673686
_cell_length_c 19.790124
_cell_angle_alpha 90.000000
_cell_angle_beta 90.000000
_cell_angle_gamma 90.000000
_cell_volume 3178.735567
_symmetry_space_group_name_H-M "I -4 2 M"
_symmetry_group_IT_number 121
_symmetry_cell_setting 'tetragonal'
loop_
_space_group_symop_operation_xyz
x,y,z
y,-x,-z
-x,-y,z
-y,x,-z
x,-y,-z
-x,y,-z
-y,-x,z
y,x,z
1/2+x,1/2+y,1/2+z
1/2+y,1/2-x,1/2-z
1/2-x,1/2-y,1/2+z
1/2-y,1/2+x,1/2-z
1/2+x,1/2-y,1/2-z
1/2-x,1/2+y,1/2-z
1/2-y,1/2-x,1/2+z
1/2+y,1/2+x,1/2+z
loop_
_atom_site_type_symbol
_atom_site_label
_atom_site_fract_x
_atom_site_fract_y
_atom_site_fract_z
Si Si1 0.119192 0.467994 0.924502
Si Si2 0.565514 0.261353 0.566650
Si Si3 0.945549 0.774801 0.201360
Si Si4 0.394742 0.224528 0.184990
O O1 0.131707 0.342651 0.913405
O O2 0.201384 0.524324 0.875121
O O3 0.000000 0.500000 0.906364
O O4 0.150169 0.500000 0.000000
O O5 0.500000 0.233009 0.500000
O O6 0.643201 0.356800 0.550751
O O7 0.485318 0.293686 0.625427
O O8 0.872863 0.872863 0.222729
O O9 0.881765 0.665522 0.206687
O O10 0.045087 0.770152 0.250463
O O11 0.310867 0.310867 0.158942
#
# Coordination Sequence:
#
# PCOD8311686 Si02
#       4
#    16  16  16  16
#     4  11  21  42  67  90 124 164 209 256 312 375
#     4  12  24  40  66  98 129 166 210 259 324 387
#     4  11  24  41  61  91 129 168 213 263 319 379
#     4  11  24  40  64  93 125 168 215 262 316 380
#
# _framework density 20.133790999999999
#
# number of rings (size 3 to 8) (size 9 to 14) (size 15 to 20)
#    0.000    0.750    5.000    3.000    0.000    9.250 
#    0.000    0.000    0.000    0.000    0.000    1.750 
#    0.000    0.000    0.000    0.000    0.000    0.000 
#
# Total GULP energy -397061.769329 kJ/mol
# GULP energy per Si atom -12408.180292 kJ/mol
# Density = 2.008797 g / cm^3
# Si number density = 20.133791 Si / 1000 Ang^3
#
#
#
# Elastic Constant Matrix: (Units=GPa)
#
#
# Indices 1 2 3 4 5 6 
#
# 1 81.5247 48.0090 28.9065 0.0000 0.0000 0.0000
# 2 48.0090 81.5217 28.9072 0.0000 0.0000 0.0000
# 3 28.9065 28.9072 100.3258 0.0000 0.0000 0.0000
# 4 0.0000 0.0000 0.0000 28.0061 0.0000 0.0000
# 5 0.0000 0.0000 0.0000 0.0000 28.0061 0.0000
# 6 0.0000 0.0000 0.0000 0.0000 0.0000 38.0100
#
#
#
# Elastic Compliance Matrix: (Units=1/GPa)
#
#
# Indices 1 2 3 4 5 6 
#
# 1 0.019348 -0.010489 -0.002552 0.000000 0.000000 0.000000
# 2 -0.010489 0.019349 -0.002553 0.000000 0.000000 0.000000
# 3 -0.002552 -0.002553 0.011439 0.000000 0.000000 0.000000
# 4 0.000000 0.000000 0.000000 0.035707 0.000000 0.000000
# 5 0.000000 0.000000 0.000000 0.000000 0.035707 0.000000
# 6 0.000000 0.000000 0.000000 0.000000 0.000000 0.026309
#
#
# Mechanical properties :
#
#
# Convention : Reuss Voigt Hill
#
# Bulk Modulus (GPa) = 52.77963 52.77972 52.77967
# Shear Modulus (GPa) = 26.97413 29.30774 28.14093
#
# Velocity S-wave (km/s) = 3.66422 3.81944 3.74263
# Velocity P-wave (km/s) = 6.64631 6.76182 6.70431
#
# Compressibility (1/GPa) = 0.01894671
#
# Stress axis : x y z
#
# Youngs Moduli (GPa) = 51.68413 51.68179 87.42389
#
# Poissons Ratio (x) = 0.54211 0.22314
# Poissons Ratio (y) = 0.54213 0.22318
# Poissons Ratio (z) = 0.13192 0.13194
#
# Static dielectric constant tensor:
#      x y z
#    x 3.688470 0.000000 0.000000 
#    y 0.000000 3.688470 0.000000 
#    z 0.000000 0.000000 3.596440 
# 
# 
# High freq. dielectric constant tensor:
#      x y z
#    x 1.786910 0.000000 0.000000 
#    y 0.000000 1.786910 0.000000 
#    z 0.000000 0.000000 1.790420 
# 
# From -- ./inp_files/6003.got.cif
#   From: 2010.03.12/outbox.cif.g09.slc.cpg/sg121_4_cif.got.tgz:6003.got - 2010.04.06 16:06:48.
