data_PCOD8311926
_publ_section_title
;
Structure prediction by ZEFSAII (Michael W. Deem and Ramdas Pophale) SiO2 
 PCOD8311926
Probable space group: I -4 2 D
;
_chemical_formula_sum "Si O2"
_cell_formula_units_Z 88
_cell_length_a 11.632582
_cell_length_b 11.632582
_cell_length_c 29.051535
_cell_angle_alpha 90.000000
_cell_angle_beta 90.000000
_cell_angle_gamma 90.000000
_cell_volume 3931.165515
_symmetry_space_group_name_H-M "I -4 2 D"
_symmetry_group_IT_number 122
_symmetry_cell_setting 'tetragonal'
loop_
_space_group_symop_operation_xyz
x,y,z
y,-x,-z
-x,-y,z
-y,x,-z
x,1/2-y,1/4-z
-x,1/2+y,1/4-z
-y,1/2-x,1/4+z
y,1/2+x,1/4+z
1/2+x,1/2+y,1/2+z
1/2+y,1/2-x,1/2-z
1/2-x,1/2-y,1/2+z
1/2-y,1/2+x,1/2-z
1/2+x,-y,3/4-z
1/2-x,y,3/4-z
1/2-y,-x,3/4+z
1/2+y,x,3/4+z
loop_
_atom_site_type_symbol
_atom_site_label
_atom_site_fract_x
_atom_site_fract_y
_atom_site_fract_z
Si Si1 0.500000 0.000000 0.180593
Si Si2 0.734752 0.750000 0.625000
Si Si3 0.324540 0.555789 0.720463
Si Si4 0.000000 0.000000 0.711352
Si Si5 0.119103 0.154238 0.358759
Si Si6 0.872353 0.996331 0.120264
Si Si7 0.338268 0.672517 0.967876
O O1 0.388146 0.959820 0.151485
O O2 0.547534 0.897120 0.211501
O O3 0.656932 0.637374 0.622414
O O4 0.810105 0.759319 0.578144
O O5 0.428811 0.583016 0.755160
O O6 0.371024 0.565672 0.668837
O O7 0.233095 0.655022 0.734593
O O8 0.276059 0.426065 0.726424
O O9 0.064840 0.902555 0.681991
O O10 0.250000 0.159127 0.375000
O O11 0.068731 0.277501 0.341537
O O12 0.000000 0.000000 0.098531
#
# Coordination Sequence:
#
# PCOD8311926 Si02
#       7
#     8   8  16   8  16  16  16
#     4  11  20  37  57  94 130 158 204 250 318 381
#     4  10  22  42  64  84 126 170 214 250 308 384
#     4  11  22  37  59  90 129 158 203 255 321 375
#     4  11  24  40  63  98 131 168 202 271 324 385
#     4  11  24  39  64  94 128 164 216 257 314 385
#     4  11  24  44  61  92 119 171 219 260 310 372
#     4  11  22  36  60  90 127 167 198 255 318 387
#
# _framework density 22.385217000000001
#
# number of rings (size 3 to 8) (size 9 to 14) (size 15 to 20)
#    0.000    1.091    4.545    3.273    7.636    0.000 
#    0.000    0.000    0.000    0.000    0.000    0.000 
#    0.000    0.000    0.000    0.000    0.000    0.000 
#
# Total GULP energy -545314.098588 kJ/mol
# GULP energy per Si atom -12393.502241 kJ/mol
# Density = 2.233427 g / cm^3
# Si number density = 22.385217 Si / 1000 Ang^3
#
#
#
# Elastic Constant Matrix: (Units=GPa)
#
#
# Indices 1 2 3 4 5 6 
#
# 1 97.7168 19.4539 2.2506 0.0000 0.0000 0.0000
# 2 19.4539 97.7168 2.2506 0.0000 0.0000 0.0000
# 3 2.2506 2.2506 52.2626 0.0000 0.0000 0.0000
# 4 0.0000 0.0000 0.0000 15.7731 0.0000 0.0000
# 5 0.0000 0.0000 0.0000 0.0000 15.7731 0.0000
# 6 0.0000 0.0000 0.0000 0.0000 0.0000 25.9683
#
#
#
# Elastic Compliance Matrix: (Units=1/GPa)
#
#
# Indices 1 2 3 4 5 6 
#
# 1 0.010663 -0.002114 -0.000368 0.000000 0.000000 0.000000
# 2 -0.002114 0.010663 -0.000368 0.000000 0.000000 0.000000
# 3 -0.000368 -0.000368 0.019166 0.000000 0.000000 0.000000
# 4 0.000000 0.000000 0.000000 0.063399 0.000000 0.000000
# 5 0.000000 0.000000 0.000000 0.000000 0.063399 0.000000
# 6 0.000000 0.000000 0.000000 0.000000 0.000000 0.038509
#
#
# Mechanical properties :
#
#
# Convention : Reuss Voigt Hill
#
# Bulk Modulus (GPa) = 28.74331 32.84515 30.79423
# Shear Modulus (GPa) = 22.41182 26.41899 24.41540
#
# Velocity S-wave (km/s) = 3.16759 3.43913 3.30615
# Velocity P-wave (km/s) = 5.12312 5.52039 5.32546
#
# Compressibility (1/GPa) = 0.03479070
#
# Stress axis : x y z
#
# Youngs Moduli (GPa) = 93.78162 93.78162 52.17618
#
# Poissons Ratio (x) = 0.19829 0.01921
# Poissons Ratio (y) = 0.19829 0.01921
# Poissons Ratio (z) = 0.03452 0.03452
#
# Static dielectric constant tensor:
#      x y z
#    x 3.960190 0.000000 0.000000 
#    y 0.000000 3.960190 0.000000 
#    z 0.000000 0.000000 4.068050 
# 
# 
# High freq. dielectric constant tensor:
#      x y z
#    x 1.874070 0.000000 0.000000 
#    y 0.000000 1.874070 0.000000 
#    z 0.000000 0.000000 1.872150 
# 
# From -- ./inp_files/9546.got.cif
#   From: 2010.03.12/outbox.cif.g09.slc.cpg/sg122_5_cif.got.tgz:9546.got - 2010.04.06 16:17:16.
