data_PCOD8311397
_publ_section_title
;
Structure prediction by ZEFSAII (Michael W. Deem and Ramdas Pophale) SiO2 
 PCOD8311397
Probable space group: I -4 2 M
;
_chemical_formula_sum "Si O2"
_cell_formula_units_Z 48
_cell_length_a 11.804879
_cell_length_b 11.804879
_cell_length_c 18.932560
_cell_angle_alpha 90.000000
_cell_angle_beta 90.000000
_cell_angle_gamma 90.000000
_cell_volume 2638.350083
_symmetry_space_group_name_H-M "I -4 2 M"
_symmetry_group_IT_number 121
_symmetry_cell_setting 'tetragonal'
loop_
_space_group_symop_operation_xyz
x,y,z
y,-x,-z
-x,-y,z
-y,x,-z
x,-y,-z
-x,y,-z
-y,-x,z
y,x,z
1/2+x,1/2+y,1/2+z
1/2+y,1/2-x,1/2-z
1/2-x,1/2-y,1/2+z
1/2-y,1/2+x,1/2-z
1/2+x,1/2-y,1/2-z
1/2-x,1/2+y,1/2-z
1/2-y,1/2-x,1/2+z
1/2+y,1/2+x,1/2+z
loop_
_atom_site_type_symbol
_atom_site_label
_atom_site_fract_x
_atom_site_fract_y
_atom_site_fract_z
Si Si1 0.224884 0.403614 0.057544
Si Si2 0.405148 0.405148 0.166126
Si Si3 0.904159 0.904159 0.827133
Si Si4 0.952571 0.768777 0.076553
O O1 0.300519 0.300519 0.024293
O O2 0.290674 0.449896 0.127196
O O3 0.099398 0.358369 0.078651
O O4 0.209845 0.500000 0.000000
O O5 0.500000 0.500000 0.159786
O O6 0.375166 0.375166 0.246535
O O7 0.947955 0.789163 0.865817
O O8 0.000000 0.000000 0.833184
O O9 0.851532 0.851532 0.097314
O O10 0.000000 0.798706 0.000000
#
# Coordination Sequence:
#
# PCOD8311397 Si02
#       4
#    16   8   8  16
#     4   9  19  32  54  81 111 143 178 229 273 332
#     4   9  18  33  54  79 109 150 183 223 279 337
#     4   9  18  31  54  78 105 148 185 228 275 317
#     4  10  18  32  55  82 104 137 188 228 269 320
#
# _framework density 18.193189
#
# number of rings (size 3 to 8) (size 9 to 14) (size 15 to 20)
#    1.000    1.667    1.667    1.000    0.000    0.667 
#    0.000    3.333    0.000    0.000    0.000    0.000 
#    0.000    0.000    0.000    0.000    0.000    0.000 
#
# Total GULP energy -297319.432870 kJ/mol
# GULP energy per Si atom -12388.309703 kJ/mol
# Density = 1.815178 g / cm^3
# Si number density = 18.193189 Si / 1000 Ang^3
#
#
#
# Elastic Constant Matrix: (Units=GPa)
#
#
# Indices 1 2 3 4 5 6 
#
# 1 72.0601 54.1476 56.3674 0.0000 0.0000 0.0000
# 2 54.1476 72.0601 56.3674 0.0000 0.0000 0.0000
# 3 56.3674 56.3674 160.5367 0.0000 0.0000 0.0000
# 4 0.0000 0.0000 0.0000 6.1860 0.0000 0.0000
# 5 0.0000 0.0000 0.0000 0.0000 6.1860 0.0000
# 6 0.0000 0.0000 0.0000 0.0000 0.0000 26.7135
#
#
#
# Elastic Compliance Matrix: (Units=1/GPa)
#
#
# Indices 1 2 3 4 5 6 
#
# 1 0.033686 -0.022141 -0.004053 0.000000 0.000000 0.000000
# 2 -0.022141 0.033686 -0.004053 0.000000 0.000000 0.000000
# 3 -0.004053 -0.004053 0.009076 0.000000 0.000000 0.000000
# 4 0.000000 0.000000 0.000000 0.161657 0.000000 0.000000
# 5 0.000000 0.000000 0.000000 0.000000 0.161656 0.000000
# 6 0.000000 0.000000 0.000000 0.000000 0.000000 0.037434
#
#
# Mechanical properties :
#
#
# Convention : Reuss Voigt Hill
#
# Bulk Modulus (GPa) = 62.69465 70.93572 66.81519
# Shear Modulus (GPa) = 9.94022 17.00206 13.47114
#
# Velocity S-wave (km/s) = 2.33999 3.06032 2.72407
# Velocity P-wave (km/s) = 6.46808 7.18069 6.83368
#
# Compressibility (1/GPa) = 0.01595032
#
# Stress axis : x y z
#
# Youngs Moduli (GPa) = 29.68631 29.68631 110.18669
#
# Poissons Ratio (x) = 0.65730 0.44662
# Poissons Ratio (y) = 0.65730 0.44662
# Poissons Ratio (z) = 0.12033 0.12033
#
# Static dielectric constant tensor:
#      x y z
#    x 3.303410 0.000000 0.000000 
#    y 0.000000 3.303410 0.000000 
#    z 0.000000 0.000000 3.259490 
# 
# 
# High freq. dielectric constant tensor:
#      x y z
#    x 1.686730 0.000000 0.000000 
#    y 0.000000 1.686730 0.000000 
#    z 0.000000 0.000000 1.691440 
# 
# From -- ./inp_files/5852.got.cif
#   From: 2010.03.12/outbox.cif.g09.slc.cpg/sg121_3_cif.got.tgz:5852.got - 2010.04.06 16:06:48.
