data_PCOD8311488
_publ_section_title
;
Structure prediction by ZEFSAII (Michael W. Deem and Ramdas Pophale) SiO2 
 PCOD8311488
Probable space group: I -4 2 M
;
_chemical_formula_sum "Si O2"
_cell_formula_units_Z 128
_cell_length_a 20.569294
_cell_length_b 20.569294
_cell_length_c 17.603378
_cell_angle_alpha 90.000000
_cell_angle_beta 90.000000
_cell_angle_gamma 90.000000
_cell_volume 7447.916277
_symmetry_space_group_name_H-M "I -4 2 M"
_symmetry_group_IT_number 121
_symmetry_cell_setting 'tetragonal'
loop_
_space_group_symop_operation_xyz
x,y,z
y,-x,-z
-x,-y,z
-y,x,-z
x,-y,-z
-x,y,-z
-y,-x,z
y,x,z
1/2+x,1/2+y,1/2+z
1/2+y,1/2-x,1/2-z
1/2-x,1/2-y,1/2+z
1/2-y,1/2+x,1/2-z
1/2+x,1/2-y,1/2-z
1/2-x,1/2+y,1/2-z
1/2-y,1/2-x,1/2+z
1/2+y,1/2+x,1/2+z
loop_
_atom_site_type_symbol
_atom_site_label
_atom_site_fract_x
_atom_site_fract_y
_atom_site_fract_z
Si Si1 0.238448 0.987541 0.416947
Si Si2 0.375824 0.271283 0.839548
Si Si3 0.389553 0.034326 0.571763
Si Si4 0.069099 0.678133 0.958939
Si Si5 0.411843 0.962378 0.723360
Si Si6 0.249220 0.351808 0.122713
Si Si7 0.197865 0.699761 0.534615
Si Si8 0.381105 0.805128 0.304175
O O1 0.312251 0.965418 0.432685
O O2 0.214432 0.922283 0.373124
O O3 0.205809 0.000000 0.500000
O O4 0.224944 0.048431 0.362400
O O5 0.339834 0.339834 0.856798
O O6 0.366553 0.256756 0.749587
O O7 0.342504 0.213998 0.888927
O O8 0.419155 0.106177 0.574799
O O9 0.421481 0.000000 0.500000
O O10 0.409337 0.989620 0.640020
O O11 0.122172 0.699780 0.021707
O O12 0.079778 0.719155 0.880269
O O13 0.000000 0.688017 0.000000
O O14 0.475906 0.917861 0.720951
O O15 0.349275 0.923163 0.747922
O O16 0.299243 0.299243 0.155684
O O17 0.233962 0.339053 0.034514
O O18 0.183685 0.344993 0.172560
O O19 0.271029 0.728972 0.541318
#
# Coordination Sequence:
#
# PCOD8311488 Si02
#       8
#    16  16  16  16  16  16  16  16
#     4  11  18  33  56  80 106 138 184 225 277 344
#     4  11  22  36  58  84 109 142 190 246 294 338
#     4  11  21  34  49  71 102 150 186 227 268 328
#     4  11  23  37  52  80 110 152 201 234 285 341
#     4  11  22  33  45  69 106 149 189 224 272 310
#     4  10  19  35  56  78 104 143 188 229 281 339
#     4   9  18  36  57  77 105 145 188 238 284 329
#     4  11  22  36  51  75 109 149 193 239 274 329
#
# _framework density 17.186015000000001
#
# number of rings (size 3 to 8) (size 9 to 14) (size 15 to 20)
#    0.000    1.375    6.250    1.125    1.750    0.750 
#    0.000    0.000    0.000    0.375    0.000    0.875 
#    0.000    0.250    0.000    0.000    0.000    0.000 
#
# Total GULP energy -793071.637375 kJ/mol
# GULP energy per Si atom -12391.744334 kJ/mol
# Density = 1.714690 g / cm^3
# Si number density = 17.186015 Si / 1000 Ang^3
#
#
#
# Elastic Constant Matrix: (Units=GPa)
#
#
# Indices 1 2 3 4 5 6 
#
# 1 66.1046 44.5882 30.2877 0.0000 0.0000 0.0000
# 2 44.5882 66.1053 30.2880 0.0000 0.0000 0.0000
# 3 30.2877 30.2880 100.6137 0.0000 0.0000 0.0000
# 4 0.0000 0.0000 0.0000 20.9767 0.0000 0.0000
# 5 0.0000 0.0000 0.0000 0.0000 20.9766 0.0000
# 6 0.0000 0.0000 0.0000 0.0000 0.0000 22.2235
#
#
#
# Elastic Compliance Matrix: (Units=1/GPa)
#
#
# Indices 1 2 3 4 5 6 
#
# 1 0.028646 -0.017830 -0.003256 0.000000 0.000000 0.000000
# 2 -0.017830 0.028645 -0.003256 0.000000 0.000000 0.000000
# 3 -0.003256 -0.003256 0.011899 0.000000 0.000000 0.000000
# 4 0.000000 0.000000 0.000000 0.047672 0.000000 0.000000
# 5 0.000000 0.000000 0.000000 0.000000 0.047672 0.000000
# 6 0.000000 0.000000 0.000000 0.000000 0.000000 0.044997
#
#
# Mechanical properties :
#
#
# Convention : Reuss Voigt Hill
#
# Bulk Modulus (GPa) = 48.76332 49.23903 49.00118
# Shear Modulus (GPa) = 18.86430 21.34599 20.10515
#
# Velocity S-wave (km/s) = 3.31668 3.52810 3.42403
# Velocity P-wave (km/s) = 6.56526 6.73124 6.64876
#
# Compressibility (1/GPa) = 0.02050722
#
# Stress axis : x y z
#
# Youngs Moduli (GPa) = 34.90931 34.90958 84.03896
#
# Poissons Ratio (x) = 0.62243 0.27362
# Poissons Ratio (y) = 0.62243 0.27362
# Poissons Ratio (z) = 0.11366 0.11366
#
# Static dielectric constant tensor:
#      x y z
#    x 3.277880 0.000000 0.000000 
#    y 0.000000 3.277880 0.000000 
#    z 0.000000 0.000000 3.411480 
# 
# 
# High freq. dielectric constant tensor:
#      x y z
#    x 1.639560 0.000000 0.000000 
#    y 0.000000 1.639560 0.000000 
#    z 0.000000 0.000000 1.671180 
# 
# From -- ./inp_files/5648.got.cif
#   From: 2010.03.12/outbox.cif.g09.slc.cpg/sg121_3_cif.got.tgz:5648.got - 2010.04.06 16:06:48.
