data_PCOD8311950
_publ_section_title
;
Structure prediction by ZEFSAII (Michael W. Deem and Ramdas Pophale) SiO2 
 PCOD8311950
Probable space group: I -4 2 D
;
_chemical_formula_sum "Si O2"
_cell_formula_units_Z 108
_cell_length_a 13.668091
_cell_length_b 13.668091
_cell_length_c 28.777914
_cell_angle_alpha 90.000000
_cell_angle_beta 90.000000
_cell_angle_gamma 90.000000
_cell_volume 5376.195260
_symmetry_space_group_name_H-M "I -4 2 D"
_symmetry_group_IT_number 122
_symmetry_cell_setting 'tetragonal'
loop_
_space_group_symop_operation_xyz
x,y,z
y,-x,-z
-x,-y,z
-y,x,-z
x,1/2-y,1/4-z
-x,1/2+y,1/4-z
-y,1/2-x,1/4+z
y,1/2+x,1/4+z
1/2+x,1/2+y,1/2+z
1/2+y,1/2-x,1/2-z
1/2-x,1/2-y,1/2+z
1/2-y,1/2+x,1/2-z
1/2+x,-y,3/4-z
1/2-x,y,3/4-z
1/2-y,-x,3/4+z
1/2+y,x,3/4+z
loop_
_atom_site_type_symbol
_atom_site_label
_atom_site_fract_x
_atom_site_fract_y
_atom_site_fract_z
Si Si1 0.828221 0.559812 0.539136
Si Si2 0.000000 0.000000 0.230448
Si Si3 0.500000 0.000000 0.750000
Si Si4 0.677169 0.638222 0.113529
Si Si5 0.103121 0.611285 0.766104
Si Si6 0.827076 0.028106 0.161060
Si Si7 0.206981 0.267814 0.468295
Si Si8 0.914386 0.841730 0.939539
O O1 0.906506 0.491936 0.513683
O O2 0.868970 0.592161 0.589739
O O3 0.808237 0.654832 0.508931
O O4 0.729139 0.500024 0.543848
O O5 0.906513 0.998609 0.198314
O O6 0.579114 0.940860 0.780628
O O7 0.709700 0.750000 0.125000
O O8 0.600245 0.631535 0.070816
O O9 0.767818 0.571550 0.097340
O O10 0.133595 0.511210 0.740338
O O11 0.161781 0.701916 0.743109
O O12 0.766393 0.120276 0.180474
O O13 0.874162 0.067001 0.113360
O O14 0.310471 0.287292 0.443873
#
# Coordination Sequence:
#
# PCOD8311950 Si02
#       8
#    16   8   4  16  16  16  16  16
#     4  10  23  38  63  94 123 166 217 266 325 397
#     4  10  23  42  62  87 131 170 210 267 330 392
#     4  12  22  40  68  96 132 172 220 274 344 400
#     4  11  22  41  65  93 127 166 218 277 325 397
#     4  11  24  42  67  95 130 176 219 268 333 402
#     4  10  23  43  61  93 127 170 220 271 324 409
#     4  11  21  41  67  90 130 174 210 271 336 389
#     4  11  23  40  64  97 128 168 220 277 329 394
#
# _framework density 20.088557000000002
#
# number of rings (size 3 to 8) (size 9 to 14) (size 15 to 20)
#    0.000    1.333    4.444    0.889    2.074    1.185 
#    0.000    1.481    0.000    0.000    0.000    0.000 
#    0.000    0.000    0.000    0.000    0.000    0.000 
#
# Total GULP energy -669453.868588 kJ/mol
# GULP energy per Si atom -12397.293863 kJ/mol
# Density = 2.004283 g / cm^3
# Si number density = 20.088557 Si / 1000 Ang^3
#
#
#
# Elastic Constant Matrix: (Units=GPa)
#
#
# Indices 1 2 3 4 5 6 
#
# 1 91.4276 33.2906 45.5454 0.0000 0.0000 0.0000
# 2 33.2906 91.4276 45.5454 0.0000 0.0000 0.0000
# 3 45.5454 45.5454 149.2114 0.0000 0.0000 0.0000
# 4 0.0000 0.0000 0.0000 25.7314 0.0000 0.0000
# 5 0.0000 0.0000 0.0000 0.0000 25.7314 0.0000
# 6 0.0000 0.0000 0.0000 0.0000 0.0000 31.8746
#
#
#
# Elastic Compliance Matrix: (Units=1/GPa)
#
#
# Indices 1 2 3 4 5 6 
#
# 1 0.013760 -0.003441 -0.003150 0.000000 0.000000 0.000000
# 2 -0.003441 0.013760 -0.003150 0.000000 0.000000 0.000000
# 3 -0.003150 -0.003150 0.008625 0.000000 0.000000 0.000000
# 4 0.000000 0.000000 0.000000 0.038863 0.000000 0.000000
# 5 0.000000 0.000000 0.000000 0.000000 0.038863 0.000000
# 6 0.000000 0.000000 0.000000 0.000000 0.000000 0.031373
#
#
# Mechanical properties :
#
#
# Convention : Reuss Voigt Hill
#
# Bulk Modulus (GPa) = 60.01265 64.53661 62.27463
# Shear Modulus (GPa) = 29.36376 30.51317 29.93847
#
# Velocity S-wave (km/s) = 3.82739 3.90158 3.86466
# Velocity P-wave (km/s) = 7.03355 7.24515 7.14013
#
# Compressibility (1/GPa) = 0.01666315
#
# Stress axis : x y z
#
# Youngs Moduli (GPa) = 72.67641 72.67641 115.94618
#
# Poissons Ratio (x) = 0.25009 0.36519
# Poissons Ratio (y) = 0.25009 0.36519
# Poissons Ratio (z) = 0.22890 0.22890
#
# Static dielectric constant tensor:
#      x y z
#    x 3.612930 0.000000 0.000000 
#    y 0.000000 3.612930 0.000000 
#    z 0.000000 0.000000 4.040310 
# 
# 
# High freq. dielectric constant tensor:
#      x y z
#    x 1.776670 0.000000 0.000000 
#    y 0.000000 1.776670 0.000000 
#    z 0.000000 0.000000 1.808370 
# 
# From -- ./inp_files/8834.got.cif
#   From: 2010.03.12/outbox.cif.g09.slc.cpg/sg122_5_cif.got.tgz:8834.got - 2010.04.06 16:17:16.
