data_PCOD8311418
_publ_section_title
;
Structure prediction by ZEFSAII (Michael W. Deem and Ramdas Pophale) SiO2 
 PCOD8311418
Probable space group: I -4 2 M
;
_chemical_formula_sum "Si O2"
_cell_formula_units_Z 116
_cell_length_a 18.253037
_cell_length_b 18.253037
_cell_length_c 16.737890
_cell_angle_alpha 90.000000
_cell_angle_beta 90.000000
_cell_angle_gamma 90.000000
_cell_volume 5576.619046
_symmetry_space_group_name_H-M "I -4 2 M"
_symmetry_group_IT_number 121
_symmetry_cell_setting 'tetragonal'
loop_
_space_group_symop_operation_xyz
x,y,z
y,-x,-z
-x,-y,z
-y,x,-z
x,-y,-z
-x,y,-z
-y,-x,z
y,x,z
1/2+x,1/2+y,1/2+z
1/2+y,1/2-x,1/2-z
1/2-x,1/2-y,1/2+z
1/2-y,1/2+x,1/2-z
1/2+x,1/2-y,1/2-z
1/2-x,1/2+y,1/2-z
1/2-y,1/2-x,1/2+z
1/2+y,1/2+x,1/2+z
loop_
_atom_site_type_symbol
_atom_site_label
_atom_site_fract_x
_atom_site_fract_y
_atom_site_fract_z
Si Si1 0.410684 0.706528 0.682804
Si Si2 0.327152 0.790492 0.562819
Si Si3 0.555906 0.675538 0.070881
Si Si4 0.706368 0.822143 0.607990
Si Si5 0.884210 0.004607 0.726356
Si Si6 0.932172 0.605693 0.371164
Si Si7 0.071053 0.651957 0.280905
Si Si8 0.500000 0.000000 0.500000
O O1 0.340852 0.659149 0.712663
O O2 0.394544 0.740613 0.595951
O O3 0.483236 0.655751 0.689210
O O4 0.425099 0.766676 0.748958
O O5 0.248394 0.751606 0.583891
O O6 0.338441 0.793027 0.468383
O O7 0.334145 0.871174 0.602857
O O8 0.601669 0.601669 0.052514
O O9 0.610671 0.743755 0.078076
O O10 0.507515 0.668975 0.151108
O O11 0.500000 0.691993 0.000000
O O12 0.756640 0.756640 0.643903
O O13 0.645260 0.851192 0.671074
O O14 0.953672 0.953672 0.713268
O O15 0.911120 0.088881 0.731796
O O16 0.905200 0.562485 0.291683
O O17 0.947663 0.549234 0.443467
O O18 0.006515 0.645729 0.345824
#
# Coordination Sequence:
#
# PCOD8311418 Si02
#       8
#    16  16  16  16  16  16  16   4
#     4   9  17  33  54  77 112 156 197 246 293 350
#     4   9  20  36  55  84 116 153 203 243 297 360
#     4  10  19  28  42  69 109 155 197 239 290 346
#     4  10  20  34  55  81 114 158 200 242 294 360
#     4   9  16  27  45  71 104 151 204 243 287 349
#     4  11  24  38  62  88 116 158 192 252 302 353
#     4  11  21  37  57  84 116 148 198 238 299 356
#     4  12  24  46  64  88 124 150 200 244 300 370
#
# _framework density 20.801133
#
# number of rings (size 3 to 8) (size 9 to 14) (size 15 to 20)
#    0.000    2.069    1.379    2.483    1.931    1.241 
#    0.000    0.690    0.000    0.000    0.000    3.862 
#    0.000    2.207    0.000    0.828    0.000    0.138 
#
# Total GULP energy -718521.052210 kJ/mol
# GULP energy per Si atom -12388.294004 kJ/mol
# Density = 2.075379 g / cm^3
# Si number density = 20.801133 Si / 1000 Ang^3
#
#
#
# Elastic Constant Matrix: (Units=GPa)
#
#
# Indices 1 2 3 4 5 6 
#
# 1 61.1254 47.6259 54.5255 0.0000 0.0000 0.0000
# 2 47.6259 61.1240 54.5252 0.0000 0.0000 0.0000
# 3 54.5255 54.5252 122.9076 0.0000 0.0000 0.0000
# 4 0.0000 0.0000 0.0000 32.9297 0.0000 0.0000
# 5 0.0000 0.0000 0.0000 0.0000 32.9297 0.0000
# 6 0.0000 0.0000 0.0000 0.0000 0.0000 27.1890
#
#
#
# Elastic Compliance Matrix: (Units=1/GPa)
#
#
# Indices 1 2 3 4 5 6 
#
# 1 0.045322 -0.028758 -0.007348 0.000000 0.000000 0.000000
# 2 -0.028758 0.045323 -0.007348 0.000000 0.000000 0.000000
# 3 -0.007348 -0.007348 0.014656 0.000000 0.000000 0.000000
# 4 0.000000 0.000000 0.000000 0.030368 0.000000 0.000000
# 5 0.000000 0.000000 0.000000 0.000000 0.030368 0.000000
# 6 0.000000 0.000000 0.000000 0.000000 0.000000 0.036780
#
#
# Mechanical properties :
#
#
# Convention : Reuss Voigt Hill
#
# Bulk Modulus (GPa) = 54.37494 62.05667 58.21580
# Shear Modulus (GPa) = 16.90016 24.50838 20.70427
#
# Velocity S-wave (km/s) = 2.85347 3.43625 3.15833
# Velocity P-wave (km/s) = 6.08716 6.75587 6.43021
#
# Compressibility (1/GPa) = 0.01839083
#
# Stress axis : x y z
#
# Youngs Moduli (GPa) = 22.06456 22.06390 68.23175
#
# Poissons Ratio (x) = 0.63452 0.50137
# Poissons Ratio (y) = 0.63454 0.50139
# Poissons Ratio (z) = 0.16213 0.16213
#
# Static dielectric constant tensor:
#      x y z
#    x 3.847060 0.000000 0.000000 
#    y 0.000000 3.847060 0.000000 
#    z 0.000000 0.000000 3.856790 
# 
# 
# High freq. dielectric constant tensor:
#      x y z
#    x 1.800680 0.000000 0.000000 
#    y 0.000000 1.800680 0.000000 
#    z 0.000000 0.000000 1.807660 
# 
# From -- ./inp_files/5539.got.cif
#   From: 2010.03.12/outbox.cif.g09.slc.cpg/sg121_3_cif.got.tgz:5539.got - 2010.04.06 16:06:48.
