data_PCOD8311937
_publ_section_title
;
Structure prediction by ZEFSAII (Michael W. Deem and Ramdas Pophale) SiO2 
 PCOD8311937
Probable space group: I -4 2 D
;
_chemical_formula_sum "Si O2"
_cell_formula_units_Z 112
_cell_length_a 30.577267
_cell_length_b 30.577267
_cell_length_c 5.605071
_cell_angle_alpha 90.000000
_cell_angle_beta 90.000000
_cell_angle_gamma 90.000000
_cell_volume 5240.569069
_symmetry_space_group_name_H-M "I -4 2 D"
_symmetry_group_IT_number 122
_symmetry_cell_setting 'tetragonal'
loop_
_space_group_symop_operation_xyz
x,y,z
y,-x,-z
-x,-y,z
-y,x,-z
x,1/2-y,1/4-z
-x,1/2+y,1/4-z
-y,1/2-x,1/4+z
y,1/2+x,1/4+z
1/2+x,1/2+y,1/2+z
1/2+y,1/2-x,1/2-z
1/2-x,1/2-y,1/2+z
1/2-y,1/2+x,1/2-z
1/2+x,-y,3/4-z
1/2-x,y,3/4-z
1/2-y,-x,3/4+z
1/2+y,x,3/4+z
loop_
_atom_site_type_symbol
_atom_site_label
_atom_site_fract_x
_atom_site_fract_y
_atom_site_fract_z
Si Si1 0.486495 0.703656 0.729130
Si Si2 0.914608 0.906868 0.872728
Si Si3 0.728199 0.698194 0.622650
Si Si4 0.851098 0.573389 0.761367
Si Si5 0.874697 0.509582 0.138130
Si Si6 0.275666 0.577817 0.119036
Si Si7 0.845868 0.139255 0.801784
O O1 0.473651 0.750000 0.625000
O O2 0.501737 0.669293 0.530182
O O3 0.527529 0.708698 0.909444
O O4 0.439864 0.688034 0.835449
O O5 0.895430 0.908971 0.607974
O O6 0.966477 0.903406 0.860752
O O7 0.903983 0.952613 0.997168
O O8 0.892979 0.864555 0.996329
O O9 0.729962 0.750000 0.625000
O O10 0.750000 0.680724 0.375000
O O11 0.677931 0.683717 0.596050
O O12 0.750000 0.681197 0.875000
O O13 0.861030 0.526713 0.880378
O O14 0.836294 0.612434 0.932855
O O15 0.250000 0.582869 0.375000
O O16 0.316890 0.610455 0.120411
O O17 0.250000 0.590072 0.875000
#
# Coordination Sequence:
#
# PCOD8311937 Si02
#       7
#    16  16  16  16  16  16  16
#     4  10  23  42  64  94 137 179 225 287 352 421
#     4  10  23  43  66  95 136 177 228 286 352 418
#     4  10  24  46  70  97 136 180 230 291 350 412
#     4  10  25  39  64  97 130 183 223 289 344 424
#     4  10  22  44  65  96 133 176 230 284 352 414
#     4  11  26  41  73 110 134 179 233 298 354 412
#     4  11  24  44  68  98 134 179 232 289 351 423
#
# _framework density 21.371725000000001
#
# number of rings (size 3 to 8) (size 9 to 14) (size 15 to 20)
#    0.000    1.714    1.429    0.429   10.000    3.143 
#    7.714    0.000    0.000    0.000    0.000    0.000 
#    0.000    0.000    0.000    0.000    0.000    0.000 
#
# Total GULP energy -694052.257924 kJ/mol
# GULP energy per Si atom -12393.790320 kJ/mol
# Density = 2.132308 g / cm^3
# Si number density = 21.371725 Si / 1000 Ang^3
#
#
#
# Elastic Constant Matrix: (Units=GPa)
#
#
# Indices 1 2 3 4 5 6 
#
# 1 82.2445 37.2971 29.0373 0.0000 0.0000 0.0000
# 2 37.2971 82.2445 29.0373 0.0000 0.0000 0.0000
# 3 29.0373 29.0373 106.0542 0.0000 0.0000 0.0000
# 4 0.0000 0.0000 0.0000 22.9946 0.0000 0.0000
# 5 0.0000 0.0000 0.0000 0.0000 22.9946 0.0000
# 6 0.0000 0.0000 0.0000 0.0000 0.0000 34.0998
#
#
#
# Elastic Compliance Matrix: (Units=1/GPa)
#
#
# Indices 1 2 3 4 5 6 
#
# 1 0.015948 -0.006300 -0.002642 0.000000 0.000000 0.000000
# 2 -0.006300 0.015948 -0.002642 0.000000 0.000000 0.000000
# 3 -0.002642 -0.002642 0.010876 0.000000 0.000000 0.000000
# 4 0.000000 0.000000 0.000000 0.043488 0.000000 0.000000
# 5 0.000000 0.000000 0.000000 0.000000 0.043488 0.000000
# 6 0.000000 0.000000 0.000000 0.000000 0.000000 0.029326
#
#
# Mechanical properties :
#
#
# Convention : Reuss Voigt Hill
#
# Bulk Modulus (GPa) = 51.00473 51.25407 51.12940
# Shear Modulus (GPa) = 26.48624 27.69590 27.09107
#
# Velocity S-wave (km/s) = 3.52421 3.60378 3.56422
# Velocity P-wave (km/s) = 6.36218 6.43044 6.39640
#
# Compressibility (1/GPa) = 0.01960603
#
# Stress axis : x y z
#
# Youngs Moduli (GPa) = 62.70203 62.70203 91.94753
#
# Poissons Ratio (x) = 0.39501 0.24291
# Poissons Ratio (y) = 0.39501 0.24291
# Poissons Ratio (z) = 0.16565 0.16565
#
# Static dielectric constant tensor:
#      x y z
#    x 3.847490 0.000000 0.000000 
#    y 0.000000 3.847490 0.000000 
#    z 0.000000 0.000000 4.123560 
# 
# 
# High freq. dielectric constant tensor:
#      x y z
#    x 1.840810 0.000000 0.000000 
#    y 0.000000 1.840810 0.000000 
#    z 0.000000 0.000000 1.839640 
# 
# From -- ./inp_files/1534.got.cif
#   From: 2010.03.12/outbox.cif.g09.slc.cpg/sg122_1_cif.got.tgz:1534.got - 2010.04.06 16:17:16.
