data_PCOD8311413
_publ_section_title
;
Structure prediction by ZEFSAII (Michael W. Deem and Ramdas Pophale) SiO2 
 PCOD8311413
Probable space group: I -4 2 M
;
_chemical_formula_sum "Si O2"
_cell_formula_units_Z 48
_cell_length_a 11.529067
_cell_length_b 11.529067
_cell_length_c 17.323236
_cell_angle_alpha 90.000000
_cell_angle_beta 90.000000
_cell_angle_gamma 90.000000
_cell_volume 2302.593891
_symmetry_space_group_name_H-M "I -4 2 M"
_symmetry_group_IT_number 121
_symmetry_cell_setting 'tetragonal'
loop_
_space_group_symop_operation_xyz
x,y,z
y,-x,-z
-x,-y,z
-y,x,-z
x,-y,-z
-x,y,-z
-y,-x,z
y,x,z
1/2+x,1/2+y,1/2+z
1/2+y,1/2-x,1/2-z
1/2-x,1/2-y,1/2+z
1/2-y,1/2+x,1/2-z
1/2+x,1/2-y,1/2-z
1/2-x,1/2+y,1/2-z
1/2-y,1/2-x,1/2+z
1/2+y,1/2+x,1/2+z
loop_
_atom_site_type_symbol
_atom_site_label
_atom_site_fract_x
_atom_site_fract_y
_atom_site_fract_z
Si Si1 0.134994 0.502221 0.842480
Si Si2 0.577923 0.762960 0.314648
Si Si3 0.291439 0.897934 0.937843
O O1 0.213091 0.557447 0.775586
O O2 0.159082 0.364570 0.854146
O O3 0.153382 0.579043 0.920564
O O4 0.000000 0.500000 0.817044
O O5 0.641892 0.641892 0.324129
O O6 0.454115 0.749936 0.356994
O O7 0.202939 0.797062 0.964071
O O8 0.296923 0.000000 0.000000
#
# Coordination Sequence:
#
# PCOD8311413 Si02
#       3
#    16  16  16
#     4  10  18  36  57  81 113 163 203 237 282 361
#     4  11  20  34  58  86 118 158 201 246 298 358
#     4  11  23  39  59  87 123 158 197 251 310 360
#
# _framework density 20.846055
#
# number of rings (size 3 to 8) (size 9 to 14) (size 15 to 20)
#    0.000    1.333    6.667    2.000    0.000    8.333 
#    0.000    0.000    0.000    3.000    0.000    0.000 
#    0.000   26.667    0.000    0.000    0.000    0.000 
#
# Total GULP energy -297324.168327 kJ/mol
# GULP energy per Si atom -12388.507014 kJ/mol
# Density = 2.079861 g / cm^3
# Si number density = 20.846055 Si / 1000 Ang^3
#
#
#
# Elastic Constant Matrix: (Units=GPa)
#
#
# Indices 1 2 3 4 5 6 
#
# 1 35.6004 1.9112 3.1618 0.0000 0.0000 0.0000
# 2 1.9112 35.6014 3.1630 0.0000 0.0000 0.0000
# 3 3.1618 3.1630 65.0821 0.0000 0.0000 0.0000
# 4 0.0000 0.0000 0.0000 28.2459 0.0000 0.0000
# 5 0.0000 0.0000 0.0000 0.0000 28.2456 0.0000
# 6 0.0000 0.0000 0.0000 0.0000 0.0000 28.2098
#
#
#
# Elastic Compliance Matrix: (Units=1/GPa)
#
#
# Indices 1 2 3 4 5 6 
#
# 1 0.028281 -0.001402 -0.001306 0.000000 0.000000 0.000000
# 2 -0.001402 0.028280 -0.001306 0.000000 0.000000 0.000000
# 3 -0.001306 -0.001306 0.015492 0.000000 0.000000 0.000000
# 4 0.000000 0.000000 0.000000 0.035403 0.000000 0.000000
# 5 0.000000 0.000000 0.000000 0.000000 0.035404 0.000000
# 6 0.000000 0.000000 0.000000 0.000000 0.000000 0.035449
#
#
# Mechanical properties :
#
#
# Convention : Reuss Voigt Hill
#
# Bulk Modulus (GPa) = 15.61900 16.97285 16.29592
# Shear Modulus (GPa) = 24.07563 25.47679 24.77621
#
# Velocity S-wave (km/s) = 3.40211 3.49970 3.45125
# Velocity P-wave (km/s) = 4.78970 4.94876 4.86988
#
# Compressibility (1/GPa) = 0.06402460
#
# Stress axis : x y z
#
# Youngs Moduli (GPa) = 35.35965 35.36051 64.54888
#
# Poissons Ratio (x) = 0.04958 0.08429
# Poissons Ratio (y) = 0.04958 0.08432
# Poissons Ratio (z) = 0.04617 0.04619
#
# Static dielectric constant tensor:
#      x y z
#    x 3.931530 0.000000 0.000000 
#    y 0.000000 3.931520 0.000000 
#    z 0.000000 0.000000 3.733190 
# 
# 
# High freq. dielectric constant tensor:
#      x y z
#    x 1.792030 0.000000 0.000000 
#    y 0.000000 1.792030 0.000000 
#    z 0.000000 0.000000 1.813080 
# 
# From -- ./inp_files/4893.got.cif
#   From: 2010.03.12/outbox.cif.g09.slc.cpg/sg121_3_cif.got.tgz:4893.got - 2010.04.06 16:06:48.
