data_PCOD8311255
_publ_section_title
;
Structure prediction by ZEFSAII (Michael W. Deem and Ramdas Pophale) SiO2 
 PCOD8311255
Probable space group: I -4 C 2
;
_chemical_formula_sum "Si O2"
_cell_formula_units_Z 100
_cell_length_a 14.405455
_cell_length_b 14.405455
_cell_length_c 23.410156
_cell_angle_alpha 90.000000
_cell_angle_beta 90.000000
_cell_angle_gamma 90.000000
_cell_volume 4858.008474
_symmetry_space_group_name_H-M "I -4 C 2"
_symmetry_group_IT_number 120
_symmetry_cell_setting 'tetragonal'
loop_
_space_group_symop_operation_xyz
x,y,z
y,-x,-z
-x,-y,z
-y,x,-z
y,x,1/2-z
-y,-x,1/2-z
-x,y,1/2+z
x,-y,1/2+z
1/2+x,1/2+y,1/2+z
1/2+y,1/2-x,1/2-z
1/2-x,1/2-y,1/2+z
1/2-y,1/2+x,1/2-z
1/2+y,1/2+x,-z
1/2-y,1/2-x,-z
1/2-x,1/2+y,z
1/2+x,1/2-y,z
loop_
_atom_site_type_symbol
_atom_site_label
_atom_site_fract_x
_atom_site_fract_y
_atom_site_fract_z
Si Si1 0.115968 0.713367 0.918352
Si Si2 0.007261 0.279334 0.716276
Si Si3 0.500000 0.000000 0.500000
Si Si4 0.500000 0.500000 0.846041
Si Si5 0.411001 0.679420 0.117244
Si Si6 0.603005 0.396996 0.750000
Si Si7 0.537211 0.801659 0.037933
Si Si8 0.402825 0.946814 0.677960
O O1 0.171953 0.801711 0.894242
O O2 0.196547 0.638304 0.932354
O O3 0.040798 0.671613 0.872886
O O4 0.052938 0.736676 0.973651
O O5 0.081160 0.211152 0.745094
O O6 0.068650 0.338867 0.672679
O O7 0.927732 0.224171 0.680524
O O8 0.965169 0.351554 0.761926
O O9 0.499937 0.092003 0.539224
O O10 0.575750 0.548439 0.886028
O O11 0.547759 0.423936 0.806523
O O12 0.461619 0.738236 0.068503
O O13 0.500000 0.000000 0.670861
#
# Coordination Sequence:
#
# PCOD8311255 Si02
#       8
#    16  16   4   8  16   8  16  16
#     4  10  24  41  66  97 130 178 228 278 345 412
#     4  11  22  39  65  96 131 176 221 280 340 409
#     4   8  20  40  68  92 122 184 214 274 356 382
#     4   9  20  40  61  88 128 180 217 273 346 414
#     4  11  23  43  66  97 136 177 230 286 344 418
#     4   9  20  38  62  90 130 177 226 262 340 421
#     4  10  23  43  66  96 133 174 232 284 340 417
#     4  12  23  43  64  98 138 171 224 283 342 414
#
# _framework density 20.584565999999999
#
# number of rings (size 3 to 8) (size 9 to 14) (size 15 to 20)
#    0.000    1.760    3.200    0.960    4.480    5.760 
#    1.440    1.600    0.000    0.000    0.000    0.000 
#    0.000    0.000    0.000    0.000    0.000    0.000 
#
# Total GULP energy -619694.221258 kJ/mol
# GULP energy per Si atom -12393.884425 kJ/mol
# Density = 2.053771 g / cm^3
# Si number density = 20.584566 Si / 1000 Ang^3
#
#
#
# Elastic Constant Matrix: (Units=GPa)
#
#
# Indices 1 2 3 4 5 6 
#
# 1 143.7567 62.9875 46.5906 0.0000 0.0000 0.0000
# 2 62.9875 143.7562 46.5905 0.0000 0.0000 0.0000
# 3 46.5906 46.5905 105.0692 0.0000 0.0000 0.0000
# 4 0.0000 0.0000 0.0000 37.8018 0.0000 0.0000
# 5 0.0000 0.0000 0.0000 0.0000 37.8032 0.0000
# 6 0.0000 0.0000 0.0000 0.0000 0.0000 33.9040
#
#
#
# Elastic Compliance Matrix: (Units=1/GPa)
#
#
# Indices 1 2 3 4 5 6 
#
# 1 0.009213 -0.003168 -0.002681 0.000000 0.000000 0.000000
# 2 -0.003168 0.009213 -0.002681 0.000000 0.000000 0.000000
# 3 -0.002681 -0.002681 0.011895 0.000000 0.000000 0.000000
# 4 0.000000 0.000000 0.000000 0.026454 0.000000 0.000000
# 5 0.000000 0.000000 0.000000 0.000000 0.026453 0.000000
# 6 0.000000 0.000000 0.000000 0.000000 0.000000 0.029495
#
#
# Mechanical properties :
#
#
# Convention : Reuss Voigt Hill
#
# Bulk Modulus (GPa) = 75.39933 78.32436 76.86185
# Shear Modulus (GPa) = 37.25743 37.66270 37.46007
#
# Velocity S-wave (km/s) = 4.25899 4.28209 4.27056
# Velocity P-wave (km/s) = 7.80345 7.91082 7.85732
#
# Compressibility (1/GPa) = 0.01326272
#
# Stress axis : x y z
#
# Youngs Moduli (GPa) = 108.54225 108.54186 84.07048
#
# Poissons Ratio (x) = 0.34386 0.22535
# Poissons Ratio (y) = 0.34386 0.22535
# Poissons Ratio (z) = 0.29095 0.29095
#
# Static dielectric constant tensor:
#      x y z
#    x 3.478070 0.000000 0.000000 
#    y 0.000000 3.478060 0.000000 
#    z 0.000000 0.000000 3.882330 
# 
# 
# High freq. dielectric constant tensor:
#      x y z
#    x 1.797660 0.000000 0.000000 
#    y 0.000000 1.797660 0.000000 
#    z 0.000000 0.000000 1.815750 
# 
# From -- ./inp_files/5885.got.cif
#   From: 2010.03.12/outbox.cif.g09.slc.cpg/sg120_3_cif.got.tgz:5885.got - 2010.04.06 16:00:44.
