data_PCOD8311353
_publ_section_title
;
Structure prediction by ZEFSAII (Michael W. Deem and Ramdas Pophale) SiO2 
 PCOD8311353
Probable space group: I -4 2 M
;
_chemical_formula_sum "Si O2"
_cell_formula_units_Z 64
_cell_length_a 11.830252
_cell_length_b 11.830252
_cell_length_c 28.102144
_cell_angle_alpha 90.000000
_cell_angle_beta 90.000000
_cell_angle_gamma 90.000000
_cell_volume 3933.031696
_symmetry_space_group_name_H-M "I -4 2 M"
_symmetry_group_IT_number 121
_symmetry_cell_setting 'tetragonal'
loop_
_space_group_symop_operation_xyz
x,y,z
y,-x,-z
-x,-y,z
-y,x,-z
x,-y,-z
-x,y,-z
-y,-x,z
y,x,z
1/2+x,1/2+y,1/2+z
1/2+y,1/2-x,1/2-z
1/2-x,1/2-y,1/2+z
1/2-y,1/2+x,1/2-z
1/2+x,1/2-y,1/2-z
1/2-x,1/2+y,1/2-z
1/2-y,1/2-x,1/2+z
1/2+y,1/2+x,1/2+z
loop_
_atom_site_type_symbol
_atom_site_label
_atom_site_fract_x
_atom_site_fract_y
_atom_site_fract_z
Si Si1 0.505652 0.684051 0.552927
Si Si2 0.497811 0.869595 0.194444
Si Si3 0.916965 0.733749 0.210303
Si Si4 0.791623 0.605902 0.362598
O O1 0.500000 0.737357 0.500000
O O2 0.415844 0.584157 0.557014
O O3 0.629811 0.629811 0.563266
O O4 0.474565 0.781300 0.590943
O O5 0.630910 0.842053 0.186981
O O6 0.441024 0.790984 0.234323
O O7 0.422835 0.858308 0.146104
O O8 0.500000 0.000000 0.211577
O O9 0.849198 0.849198 0.205666
O O10 0.035597 0.750765 0.183222
O O11 0.718289 0.718289 0.368434
#
# Coordination Sequence:
#
# PCOD8311353 Si02
#       4
#    16  16  16  16
#     4   8  14  25  41  65  96 121 144 183 232 273
#     4  10  17  31  43  58  85 120 150 181 217 265
#     4  11  19  29  45  62  85 117 152 189 224 263
#     4  10  18  29  47  68  89 117 151 183 222 272
#
# _framework density 16.272435000000002
#
# number of rings (size 3 to 8) (size 9 to 14) (size 15 to 20)
#    0.000    2.250    5.000    2.250    0.000    1.500 
#    0.000    0.000    0.000    9.000    0.000    0.000 
#    0.000    0.000    0.000    0.000    0.000  152.750 
#
# Total GULP energy -396438.581162 kJ/mol
# GULP energy per Si atom -12388.705661 kJ/mol
# Density = 1.623540 g / cm^3
# Si number density = 16.272435 Si / 1000 Ang^3
#
#
#
# Elastic Constant Matrix: (Units=GPa)
#
#
# Indices 1 2 3 4 5 6 
#
# 1 31.2031 -9.5331 2.9634 0.0000 0.0000 0.0000
# 2 -9.5331 31.2030 2.9635 0.0000 0.0000 0.0000
# 3 2.9634 2.9635 82.3212 0.0000 0.0000 0.0000
# 4 0.0000 0.0000 0.0000 18.6258 0.0000 0.0000
# 5 0.0000 0.0000 0.0000 0.0000 18.6258 0.0000
# 6 0.0000 0.0000 0.0000 0.0000 0.0000 16.3645
#
#
#
# Elastic Compliance Matrix: (Units=1/GPa)
#
#
# Indices 1 2 3 4 5 6 
#
# 1 0.035577 0.011029 -0.001678 0.000000 0.000000 0.000000
# 2 0.011029 0.035577 -0.001678 0.000000 0.000000 0.000000
# 3 -0.001678 -0.001678 0.012268 0.000000 0.000000 0.000000
# 4 0.000000 0.000000 0.000000 0.053689 0.000000 0.000000
# 5 0.000000 0.000000 0.000000 0.000000 0.053689 0.000000
# 6 0.000000 0.000000 0.000000 0.000000 0.000000 0.061108
#
#
# Mechanical properties :
#
#
# Convention : Reuss Voigt Hill
#
# Bulk Modulus (GPa) = 10.12465 15.27943 12.70204
# Shear Modulus (GPa) = 18.55394 20.61212 19.58303
#
# Velocity S-wave (km/s) = 3.38036 3.56292 3.47284
# Velocity P-wave (km/s) = 4.63371 5.13186 4.88913
#
# Compressibility (1/GPa) = 0.09876884
#
# Stress axis : x y z
#
# Youngs Moduli (GPa) = 28.10810 28.10803 81.51073
#
# Poissons Ratio (x) = -0.31000 0.13675
# Poissons Ratio (y) = -0.31000 0.13675
# Poissons Ratio (z) = 0.04716 0.04716
#
# Static dielectric constant tensor:
#      x y z
#    x 3.089640 0.000000 0.000000 
#    y 0.000000 3.089640 0.000000 
#    z 0.000000 0.000000 3.172100 
# 
# 
# High freq. dielectric constant tensor:
#      x y z
#    x 1.601830 0.000000 0.000000 
#    y 0.000000 1.601830 0.000000 
#    z 0.000000 0.000000 1.610550 
# 
# From -- ./inp_files/7466.got.cif
#   From: 2010.03.12/outbox.cif.g09.slc.cpg/sg121_4_cif.got.tgz:7466.got - 2010.04.06 16:06:48.
