data_PCOD8311647
_publ_section_title
;
Structure prediction by ZEFSAII (Michael W. Deem and Ramdas Pophale) SiO2 
 PCOD8311647
Probable space group: I -4 2 M
;
_chemical_formula_sum "Si O2"
_cell_formula_units_Z 112
_cell_length_a 14.643711
_cell_length_b 14.643711
_cell_length_c 27.310807
_cell_angle_alpha 90.000000
_cell_angle_beta 90.000000
_cell_angle_gamma 90.000000
_cell_volume 5856.482256
_symmetry_space_group_name_H-M "I -4 2 M"
_symmetry_group_IT_number 121
_symmetry_cell_setting 'tetragonal'
loop_
_space_group_symop_operation_xyz
x,y,z
y,-x,-z
-x,-y,z
-y,x,-z
x,-y,-z
-x,y,-z
-y,-x,z
y,x,z
1/2+x,1/2+y,1/2+z
1/2+y,1/2-x,1/2-z
1/2-x,1/2-y,1/2+z
1/2-y,1/2+x,1/2-z
1/2+x,1/2-y,1/2-z
1/2-x,1/2+y,1/2-z
1/2-y,1/2-x,1/2+z
1/2+y,1/2+x,1/2+z
loop_
_atom_site_type_symbol
_atom_site_label
_atom_site_fract_x
_atom_site_fract_y
_atom_site_fract_z
Si Si1 0.522939 0.854997 0.745979
Si Si2 0.576755 0.423246 0.678179
Si Si3 0.806695 0.340362 0.099218
Si Si4 0.327458 0.824091 0.894053
Si Si5 0.732622 0.987831 0.856271
Si Si6 0.003772 0.746159 0.338489
Si Si7 0.107312 0.255215 0.504274
Si Si8 0.575054 0.575054 0.210033
O O1 0.601077 0.927856 0.737962
O O2 0.513419 0.795319 0.698228
O O3 0.549995 0.793226 0.791788
O O4 0.500000 0.500000 0.678940
O O5 0.539953 0.338066 0.646759
O O6 0.605218 0.394783 0.734456
O O7 0.749758 0.250243 0.112916
O O8 0.907161 0.330622 0.122268
O O9 0.752764 0.429352 0.118537
O O10 0.814294 0.353693 0.040937
O O11 0.251034 0.748967 0.882728
O O12 0.408809 0.813332 0.854843
O O13 0.369177 0.813981 0.947982
O O14 0.281887 0.923876 0.890325
O O15 0.035198 0.845986 0.323671
O O16 0.156469 0.156469 0.506282
O O17 0.000000 0.237326 0.500000
O O18 0.500000 0.500000 0.218542
#
# Coordination Sequence:
#
# PCOD8311647 Si02
#       8
#    16   8  16  16  16  16  16   8
#     4  11  22  35  55  89 125 159 205 253 305 380
#     4  11  24  42  62  89 128 167 221 266 305 379
#     4  11  24  41  64  91 124 164 209 259 316 376
#     4  11  24  41  64  92 126 164 210 264 321 377
#     4  12  23  41  65  90 122 171 213 260 323 371
#     4  12  21  38  61  88 128 165 204 255 312 377
#     4  10  22  43  65  95 129 161 207 262 311 379
#     4  11  24  38  58  91 132 173 209 260 313 373
#
# _framework density 19.124109000000001
#
# number of rings (size 3 to 8) (size 9 to 14) (size 15 to 20)
#    0.000    0.857    7.143    0.857    0.000    1.286 
#    0.000    2.143    0.000    0.000    0.000    0.000 
#    0.000    0.000    0.000    0.000    0.000    0.000 
#
# Total GULP energy -694476.475311 kJ/mol
# GULP energy per Si atom -12401.365631 kJ/mol
# Density = 1.908058 g / cm^3
# Si number density = 19.124109 Si / 1000 Ang^3
#
#
#
# Elastic Constant Matrix: (Units=GPa)
#
#
# Indices 1 2 3 4 5 6 
#
# 1 88.5541 26.9262 41.1620 0.0000 0.0000 0.0000
# 2 26.9262 88.5591 41.1604 0.0000 0.0000 0.0000
# 3 41.1620 41.1604 107.9038 0.0000 0.0000 0.0000
# 4 0.0000 0.0000 0.0000 27.1539 0.0000 0.0000
# 5 0.0000 0.0000 0.0000 0.0000 27.1536 0.0000
# 6 0.0000 0.0000 0.0000 0.0000 0.0000 45.8339
#
#
#
# Elastic Compliance Matrix: (Units=1/GPa)
#
#
# Indices 1 2 3 4 5 6 
#
# 1 0.014060 -0.002166 -0.004537 0.000000 0.000000 0.000000
# 2 -0.002166 0.014059 -0.004537 0.000000 0.000000 0.000000
# 3 -0.004537 -0.004537 0.012729 0.000000 0.000000 0.000000
# 4 0.000000 0.000000 0.000000 0.036827 0.000000 0.000000
# 5 0.000000 0.000000 0.000000 0.000000 0.036828 0.000000
# 6 0.000000 0.000000 0.000000 0.000000 0.000000 0.021818
#
#
# Mechanical properties :
#
#
# Convention : Reuss Voigt Hill
#
# Bulk Modulus (GPa) = 54.44215 55.94603 55.19409
# Shear Modulus (GPa) = 30.31712 31.74616 31.03164
#
# Velocity S-wave (km/s) = 3.98588 4.07874 4.03258
# Velocity P-wave (km/s) = 7.05072 7.17629 7.11378
#
# Compressibility (1/GPa) = 0.01836812
#
# Stress axis : x y z
#
# Youngs Moduli (GPa) = 71.12267 71.12882 78.56177
#
# Poissons Ratio (x) = 0.15408 0.35646
# Poissons Ratio (y) = 0.15406 0.35640
# Poissons Ratio (z) = 0.32270 0.32268
#
# Static dielectric constant tensor:
#      x y z
#    x 3.482370 0.000000 0.000000 
#    y 0.000000 3.482370 0.000000 
#    z 0.000000 0.000000 3.594010 
# 
# 
# High freq. dielectric constant tensor:
#      x y z
#    x 1.744050 0.000000 0.000000 
#    y 0.000000 1.744050 0.000000 
#    z 0.000000 0.000000 1.752590 
# 
# From -- ./inp_files/7772.got.cif
#   From: 2010.03.12/outbox.cif.g09.slc.cpg/sg121_4_cif.got.tgz:7772.got - 2010.04.06 16:06:48.
