data_PCOD8311970
_publ_section_title
;
Structure prediction by ZEFSAII (Michael W. Deem and Ramdas Pophale) SiO2 
 PCOD8311970
Probable space group: I -4 2 D
;
_chemical_formula_sum "Si O2"
_cell_formula_units_Z 88
_cell_length_a 16.760131
_cell_length_b 16.760131
_cell_length_c 13.959457
_cell_angle_alpha 90.000000
_cell_angle_beta 90.000000
_cell_angle_gamma 90.000000
_cell_volume 3921.239266
_symmetry_space_group_name_H-M "I -4 2 D"
_symmetry_group_IT_number 122
_symmetry_cell_setting 'tetragonal'
loop_
_space_group_symop_operation_xyz
x,y,z
y,-x,-z
-x,-y,z
-y,x,-z
x,1/2-y,1/4-z
-x,1/2+y,1/4-z
-y,1/2-x,1/4+z
y,1/2+x,1/4+z
1/2+x,1/2+y,1/2+z
1/2+y,1/2-x,1/2-z
1/2-x,1/2-y,1/2+z
1/2-y,1/2+x,1/2-z
1/2+x,-y,3/4-z
1/2-x,y,3/4-z
1/2-y,-x,3/4+z
1/2+y,x,3/4+z
loop_
_atom_site_type_symbol
_atom_site_label
_atom_site_fract_x
_atom_site_fract_y
_atom_site_fract_z
Si Si1 0.303449 0.871255 0.278960
Si Si2 0.250000 0.266182 0.375000
Si Si3 0.519427 0.593146 0.734142
Si Si4 0.472966 0.820836 0.333696
Si Si5 0.391781 0.876331 0.659161
Si Si6 0.450158 0.846267 0.860306
O O1 0.250000 0.859403 0.375000
O O2 0.284402 0.800535 0.202753
O O3 0.399020 0.870930 0.293060
O O4 0.288651 0.961984 0.242497
O O5 0.188602 0.323957 0.321094
O O6 0.500000 0.500000 0.727773
O O7 0.521269 0.624477 0.841675
O O8 0.456875 0.646391 0.672338
O O9 0.607944 0.602573 0.690186
O O10 0.428682 0.746680 0.385598
O O11 0.435708 0.888570 0.759243
O O12 0.350476 0.955676 0.620107
#
# Coordination Sequence:
#
# PCOD8311970 Si02
#       6
#    16   8  16  16  16  16
#     4  12  30  52  78 111 153 200 261 318 384 467
#     4  12  26  50  74 110 152 194 238 320 392 450
#     4  10  24  41  71 104 146 193 250 304 369 448
#     4  12  29  47  75 106 146 207 248 322 376 461
#     4  11  20  42  70 107 152 185 239 314 380 447
#     4  11  22  40  71 109 143 192 249 301 381 453
#
# _framework density 22.441883000000001
#
# number of rings (size 3 to 8) (size 9 to 14) (size 15 to 20)
#    0.000    0.727    3.636    3.273    8.909    0.000 
#    0.000    0.000    0.000    0.000    0.000    0.000 
#    0.000    0.000    0.000    0.000    0.000    0.000 
#
# Total GULP energy -545429.686395 kJ/mol
# GULP energy per Si atom -12396.129236 kJ/mol
# Density = 2.239080 g / cm^3
# Si number density = 22.441883 Si / 1000 Ang^3
#
#
#
# Elastic Constant Matrix: (Units=GPa)
#
#
# Indices 1 2 3 4 5 6 
#
# 1 95.8882 34.1306 46.2639 0.0000 0.0000 0.0000
# 2 34.1306 95.8882 46.2639 0.0000 0.0000 0.0000
# 3 46.2639 46.2639 118.6561 0.0000 0.0000 0.0000
# 4 0.0000 0.0000 0.0000 36.8064 0.0000 0.0000
# 5 0.0000 0.0000 0.0000 0.0000 36.8064 0.0000
# 6 0.0000 0.0000 0.0000 0.0000 0.0000 31.9516
#
#
#
# Elastic Compliance Matrix: (Units=1/GPa)
#
#
# Indices 1 2 3 4 5 6 
#
# 1 0.013419 -0.002774 -0.004150 0.000000 0.000000 0.000000
# 2 -0.002774 0.013419 -0.004150 0.000000 0.000000 0.000000
# 3 -0.004150 -0.004150 0.011664 0.000000 0.000000 0.000000
# 4 0.000000 0.000000 0.000000 0.027169 0.000000 0.000000
# 5 0.000000 0.000000 0.000000 0.000000 0.027169 0.000000
# 6 0.000000 0.000000 0.000000 0.000000 0.000000 0.031297
#
#
# Mechanical properties :
#
#
# Convention : Reuss Voigt Hill
#
# Bulk Modulus (GPa) = 61.15377 62.63881 61.89629
# Shear Modulus (GPa) = 32.95175 33.36447 33.15811
#
# Velocity S-wave (km/s) = 3.83602 3.85997 3.84801
# Velocity P-wave (km/s) = 6.85048 6.91650 6.88357
#
# Compressibility (1/GPa) = 0.01635222
#
# Stress axis : x y z
#
# Youngs Moduli (GPa) = 74.52354 74.52354 85.73235
#
# Poissons Ratio (x) = 0.20671 0.35582
# Poissons Ratio (y) = 0.20671 0.35582
# Poissons Ratio (z) = 0.30930 0.30930
#
# Static dielectric constant tensor:
#      x y z
#    x 4.002580 0.000000 0.000000 
#    y 0.000000 4.002580 0.000000 
#    z 0.000000 0.000000 3.983270 
# 
# 
# High freq. dielectric constant tensor:
#      x y z
#    x 1.887910 0.000000 0.000000 
#    y 0.000000 1.887910 0.000000 
#    z 0.000000 0.000000 1.879980 
# 
# From -- ./inp_files/5404.got.cif
#   From: 2010.03.12/outbox.cif.g09.slc.cpg/sg122_3_cif.got.tgz:5404.got - 2010.04.06 16:17:16.
