data_PCOD8311649
_publ_section_title
;
Structure prediction by ZEFSAII (Michael W. Deem and Ramdas Pophale) SiO2 
 PCOD8311649
Probable space group: I -4 2 M
;
_chemical_formula_sum "Si O2"
_cell_formula_units_Z 96
_cell_length_a 15.888195
_cell_length_b 15.888195
_cell_length_c 18.106545
_cell_angle_alpha 90.000000
_cell_angle_beta 90.000000
_cell_angle_gamma 90.000000
_cell_volume 4570.720986
_symmetry_space_group_name_H-M "I -4 2 M"
_symmetry_group_IT_number 121
_symmetry_cell_setting 'tetragonal'
loop_
_space_group_symop_operation_xyz
x,y,z
y,-x,-z
-x,-y,z
-y,x,-z
x,-y,-z
-x,y,-z
-y,-x,z
y,x,z
1/2+x,1/2+y,1/2+z
1/2+y,1/2-x,1/2-z
1/2-x,1/2-y,1/2+z
1/2-y,1/2+x,1/2-z
1/2+x,1/2-y,1/2-z
1/2-x,1/2+y,1/2-z
1/2-y,1/2-x,1/2+z
1/2+y,1/2+x,1/2+z
loop_
_atom_site_type_symbol
_atom_site_label
_atom_site_fract_x
_atom_site_fract_y
_atom_site_fract_z
Si Si1 0.713398 0.845453 0.046610
Si Si2 0.253420 0.027957 0.164148
Si Si3 0.150745 0.288691 0.883532
Si Si4 0.713459 0.575661 0.057783
Si Si5 0.433650 0.566351 0.164895
Si Si6 0.243558 0.452176 0.834703
Si Si7 0.434302 0.434302 0.660529
O O1 0.794940 0.794940 0.077243
O O2 0.689871 0.916689 0.107361
O O3 0.641266 0.779422 0.024624
O O4 0.730823 0.884489 0.965736
O O5 0.266820 0.060186 0.247412
O O6 0.158499 0.039244 0.134850
O O7 0.279407 0.930752 0.167889
O O8 0.222038 0.222038 0.859008
O O9 0.186984 0.382174 0.873587
O O10 0.625868 0.625868 0.077075
O O11 0.769865 0.544420 0.129784
O O12 0.696612 0.500000 0.000000
O O13 0.500000 0.500000 0.129807
O O14 0.449808 0.659721 0.137064
O O15 0.439196 0.560805 0.252168
O O16 0.500000 0.500000 0.624661
#
# Coordination Sequence:
#
# PCOD8311649 Si02
#       7
#    16  16  16  16   8  16   8
#     4  10  22  43  67  92 130 177 221 268 331 404
#     4  11  23  40  68  95 129 178 223 276 335 400
#     4  11  23  41  67  95 135 176 220 272 346 409
#     4  11  24  42  67  99 135 175 222 277 342 411
#     4   9  18  34  59  88 134 171 201 260 339 389
#     4  11  23  40  61  99 131 170 218 279 331 403
#     4   9  18  36  59  96 132 158 216 279 328 379
#
# _framework density 21.003250999999999
#
# number of rings (size 3 to 8) (size 9 to 14) (size 15 to 20)
#    0.000    1.500    3.333    1.500    3.500    2.167 
#    0.000    0.833    0.000    0.000    0.000    0.000 
#    0.000    0.000    0.000    0.000    0.000    0.000 
#
# Total GULP energy -594673.429340 kJ/mol
# GULP energy per Si atom -12389.029778 kJ/mol
# Density = 2.095545 g / cm^3
# Si number density = 21.003251 Si / 1000 Ang^3
#
#
#
# Elastic Constant Matrix: (Units=GPa)
#
#
# Indices 1 2 3 4 5 6 
#
# 1 75.3394 64.8388 27.5258 0.0000 0.0000 0.0000
# 2 64.8388 75.3403 27.5247 0.0000 0.0000 0.0000
# 3 27.5258 27.5247 92.3094 0.0000 0.0000 0.0000
# 4 0.0000 0.0000 0.0000 26.8731 0.0000 0.0000
# 5 0.0000 0.0000 0.0000 0.0000 26.8732 0.0000
# 6 0.0000 0.0000 0.0000 0.0000 0.0000 39.6109
#
#
#
# Elastic Compliance Matrix: (Units=1/GPa)
#
#
# Indices 1 2 3 4 5 6 
#
# 1 0.051655 -0.043574 -0.002410 0.000000 0.000000 0.000000
# 2 -0.043574 0.051654 -0.002409 0.000000 0.000000 0.000000
# 3 -0.002410 -0.002409 0.012270 0.000000 0.000000 0.000000
# 4 0.000000 0.000000 0.000000 0.037212 0.000000 0.000000
# 5 0.000000 0.000000 0.000000 0.000000 0.037212 0.000000
# 6 0.000000 0.000000 0.000000 0.000000 0.000000 0.025246
#
#
# Mechanical properties :
#
#
# Convention : Reuss Voigt Hill
#
# Bulk Modulus (GPa) = 53.21247 53.64085 53.42666
# Shear Modulus (GPa) = 15.70857 26.87811 21.29334
#
# Velocity S-wave (km/s) = 2.73776 3.58119 3.18750
# Velocity P-wave (km/s) = 5.94846 6.53411 6.24815
#
# Compressibility (1/GPa) = 0.01879259
#
# Stress axis : x y z
#
# Youngs Moduli (GPa) = 19.35928 19.35973 81.49985
#
# Poissons Ratio (x) = 0.84359 0.19642
# Poissons Ratio (y) = 0.84357 0.19630
# Poissons Ratio (z) = 0.04666 0.04663
#
# Static dielectric constant tensor:
#      x y z
#    x 3.862650 0.000000 0.000000 
#    y 0.000000 3.862610 0.000000 
#    z 0.000000 0.000000 3.578940 
# 
# 
# High freq. dielectric constant tensor:
#      x y z
#    x 1.815830 0.000000 0.000000 
#    y 0.000000 1.815830 0.000000 
#    z 0.000000 0.000000 1.824260 
# 
# From -- ./inp_files/6460.got.cif
#   From: 2010.03.12/outbox.cif.g09.slc.cpg/sg121_4_cif.got.tgz:6460.got - 2010.04.06 16:06:48.
