data_PCOD8311236
_publ_section_title
;
Structure prediction by ZEFSAII (Michael W. Deem and Ramdas Pophale) SiO2 
 PCOD8311236
Probable space group: I -4 C 2
;
_chemical_formula_sum "Si O2"
_cell_formula_units_Z 112
_cell_length_a 14.712463
_cell_length_b 14.712463
_cell_length_c 25.220166
_cell_angle_alpha 90.000000
_cell_angle_beta 90.000000
_cell_angle_gamma 90.000000
_cell_volume 5459.070565
_symmetry_space_group_name_H-M "I -4 C 2"
_symmetry_group_IT_number 120
_symmetry_cell_setting 'tetragonal'
loop_
_space_group_symop_operation_xyz
x,y,z
y,-x,-z
-x,-y,z
-y,x,-z
y,x,1/2-z
-y,-x,1/2-z
-x,y,1/2+z
x,-y,1/2+z
1/2+x,1/2+y,1/2+z
1/2+y,1/2-x,1/2-z
1/2-x,1/2-y,1/2+z
1/2-y,1/2+x,1/2-z
1/2+y,1/2+x,-z
1/2-y,1/2-x,-z
1/2-x,1/2+y,z
1/2+x,1/2-y,z
loop_
_atom_site_type_symbol
_atom_site_label
_atom_site_fract_x
_atom_site_fract_y
_atom_site_fract_z
Si Si1 0.354886 0.007582 0.740978
Si Si2 0.026527 0.213654 0.048048
Si Si3 0.832326 0.066080 0.556743
Si Si4 0.423432 0.564284 0.874861
Si Si5 0.278173 0.634598 0.798402
Si Si6 0.041499 0.401423 0.553443
Si Si7 0.608306 0.185903 0.358116
O O1 0.408402 0.924345 0.769344
O O2 0.316998 0.972500 0.684909
O O3 0.271431 0.041239 0.778390
O O4 0.118327 0.158804 0.038093
O O5 0.982992 0.163367 0.098368
O O6 0.036086 0.322281 0.057874
O O7 0.963731 0.217224 0.996138
O O8 0.772243 0.092457 0.606233
O O9 0.889928 0.979487 0.576935
O O10 0.500000 0.500000 0.847203
O O11 0.374994 0.621868 0.828689
O O12 0.300343 0.699658 0.750000
O O13 0.208250 0.693353 0.833145
O O14 0.104120 0.395881 0.500000
O O15 0.096845 0.391706 0.606797
O O16 0.000000 0.500000 0.553681
#
# Coordination Sequence:
#
# PCOD8311236 Si02
#       7
#    16  16  16  16  16  16  16
#     4   9  21  41  68  94 119 173 229 277 337 400
#     4  11  21  41  66  96 136 174 217 269 330 410
#     4  11  22  40  66 101 132 173 223 267 336 412
#     4  10  22  39  67  96 124 175 220 268 334 395
#     4  11  23  43  61  91 134 170 222 286 339 393
#     4  11  24  42  64  99 135 168 218 272 327 399
#     4  11  23  42  65  92 130 174 220 278 333 399
#
# _framework density 20.516313
#
# number of rings (size 3 to 8) (size 9 to 14) (size 15 to 20)
#    0.000    1.429    4.286    0.857    4.000    0.286 
#   15.429    2.857    0.000    0.000    0.000    0.000 
#    0.000    0.000    0.000    0.000    0.000    0.000 
#
# Total GULP energy -693746.167515 kJ/mol
# GULP energy per Si atom -12388.324420 kJ/mol
# Density = 2.046962 g / cm^3
# Si number density = 20.516313 Si / 1000 Ang^3
#
#
#
# Elastic Constant Matrix: (Units=GPa)
#
#
# Indices 1 2 3 4 5 6 
#
# 1 108.7245 35.8632 28.7290 0.0000 0.0000 0.0000
# 2 35.8632 108.7248 28.7291 0.0000 0.0000 0.0000
# 3 28.7290 28.7291 88.7817 0.0000 0.0000 0.0000
# 4 0.0000 0.0000 0.0000 41.1251 0.0000 0.0000
# 5 0.0000 0.0000 0.0000 0.0000 41.1253 0.0000
# 6 0.0000 0.0000 0.0000 0.0000 0.0000 21.7706
#
#
#
# Elastic Compliance Matrix: (Units=1/GPa)
#
#
# Indices 1 2 3 4 5 6 
#
# 1 0.010831 -0.002894 -0.002568 0.000000 0.000000 0.000000
# 2 -0.002894 0.010831 -0.002568 0.000000 0.000000 0.000000
# 3 -0.002568 -0.002568 0.012926 0.000000 0.000000 0.000000
# 4 0.000000 0.000000 0.000000 0.024316 0.000000 0.000000
# 5 0.000000 0.000000 0.000000 0.000000 0.024316 0.000000
# 6 0.000000 0.000000 0.000000 0.000000 0.000000 0.045934
#
#
# Mechanical properties :
#
#
# Convention : Reuss Voigt Hill
#
# Bulk Modulus (GPa) = 53.97754 54.76374 54.37064
# Shear Modulus (GPa) = 33.02746 34.99818 34.01282
#
# Velocity S-wave (km/s) = 4.01660 4.13470 4.07608
# Velocity P-wave (km/s) = 6.91936 7.03882 6.97935
#
# Compressibility (1/GPa) = 0.01852622
#
# Stress axis : x y z
#
# Youngs Moduli (GPa) = 92.32956 92.32977 77.36497
#
# Poissons Ratio (x) = 0.26720 0.19870
# Poissons Ratio (y) = 0.26719 0.19870
# Poissons Ratio (z) = 0.23713 0.23713
#
# Static dielectric constant tensor:
#      x y z
#    x 3.469760 0.000000 0.000000 
#    y 0.000000 3.469750 0.000000 
#    z 0.000000 0.000000 4.403300 
# 
# 
# High freq. dielectric constant tensor:
#      x y z
#    x 1.795300 0.000000 0.000000 
#    y 0.000000 1.795300 0.000000 
#    z 0.000000 0.000000 1.814150 
# 
# From -- ./inp_files/5921.got.cif
#   From: 2010.03.12/outbox.cif.g09.slc.cpg/sg120_3_cif.got.tgz:5921.got - 2010.04.06 16:00:44.
