data_PCOD8311646
_publ_section_title
;
Structure prediction by ZEFSAII (Michael W. Deem and Ramdas Pophale) SiO2 
 PCOD8311646
Probable space group: I -4 2 M
;
_chemical_formula_sum "Si O2"
_cell_formula_units_Z 56
_cell_length_a 13.567113
_cell_length_b 13.567113
_cell_length_c 13.373905
_cell_angle_alpha 90.000000
_cell_angle_beta 90.000000
_cell_angle_gamma 90.000000
_cell_volume 2461.688622
_symmetry_space_group_name_H-M "I -4 2 M"
_symmetry_group_IT_number 121
_symmetry_cell_setting 'tetragonal'
loop_
_space_group_symop_operation_xyz
x,y,z
y,-x,-z
-x,-y,z
-y,x,-z
x,-y,-z
-x,y,-z
-y,-x,z
y,x,z
1/2+x,1/2+y,1/2+z
1/2+y,1/2-x,1/2-z
1/2-x,1/2-y,1/2+z
1/2-y,1/2+x,1/2-z
1/2+x,1/2-y,1/2-z
1/2-x,1/2+y,1/2-z
1/2-y,1/2-x,1/2+z
1/2+y,1/2+x,1/2+z
loop_
_atom_site_type_symbol
_atom_site_label
_atom_site_fract_x
_atom_site_fract_y
_atom_site_fract_z
Si Si1 0.341533 0.341533 0.747574
Si Si2 0.718286 0.281715 0.633353
Si Si3 0.567350 0.869715 0.093181
Si Si4 0.737504 0.262496 0.927178
Si Si5 0.991417 0.290003 0.205306
O O1 0.303471 0.303471 0.856123
O O2 0.271904 0.271904 0.680553
O O3 0.454258 0.315237 0.724338
O O4 0.703834 0.296167 0.514820
O O5 0.618763 0.240173 0.680773
O O6 0.621725 0.766120 0.065345
O O7 0.501256 0.853600 0.192221
O O8 0.647265 0.956449 0.116755
O O9 0.500000 0.903107 0.000000
#
# Coordination Sequence:
#
# PCOD8311646 Si02
#       5
#     8   8  16   8  16
#     4  10  22  43  63  99 137 175 230 287 353 415
#     4  12  22  45  66  95 144 180 230 291 351 423
#     4  11  24  44  69 105 140 181 239 285 354 421
#     4  10  22  44  65  90 139 191 212 286 358 402
#     4  11  23  46  69 102 138 186 230 292 356 413
#
# _framework density 22.748612000000001
#
# number of rings (size 3 to 8) (size 9 to 14) (size 15 to 20)
#    0.000    1.143    5.714    1.714    0.000    5.714 
#    5.143    0.000    0.000    9.000    0.000    0.000 
#    0.000    0.000    0.000    0.000    0.000    0.000 
#
# Total GULP energy -347001.980233 kJ/mol
# GULP energy per Si atom -12392.927865 kJ/mol
# Density = 2.269683 g / cm^3
# Si number density = 22.748612 Si / 1000 Ang^3
#
#
#
# Elastic Constant Matrix: (Units=GPa)
#
#
# Indices 1 2 3 4 5 6 
#
# 1 80.0318 30.9815 40.5688 0.0000 0.0000 0.0000
# 2 30.9815 80.0314 40.5687 0.0000 0.0000 0.0000
# 3 40.5688 40.5687 112.3819 0.0000 0.0000 0.0000
# 4 0.0000 0.0000 0.0000 29.1935 0.0000 0.0000
# 5 0.0000 0.0000 0.0000 0.0000 29.1937 0.0000
# 6 0.0000 0.0000 0.0000 0.0000 0.0000 38.4407
#
#
#
# Elastic Compliance Matrix: (Units=1/GPa)
#
#
# Indices 1 2 3 4 5 6 
#
# 1 0.016312 -0.004075 -0.004417 0.000000 0.000000 0.000000
# 2 -0.004075 0.016312 -0.004417 0.000000 0.000000 0.000000
# 3 -0.004417 -0.004417 0.012087 0.000000 0.000000 0.000000
# 4 0.000000 0.000000 0.000000 0.034254 0.000000 0.000000
# 5 0.000000 0.000000 0.000000 0.000000 0.034254 0.000000
# 6 0.000000 0.000000 0.000000 0.000000 0.000000 0.026014
#
#
# Mechanical properties :
#
#
# Convention : Reuss Voigt Hill
#
# Bulk Modulus (GPa) = 52.93441 55.18703 54.06072
# Shear Modulus (GPa) = 29.18000 30.05400 29.61700
#
# Velocity S-wave (km/s) = 3.58539 3.63869 3.61213
# Velocity P-wave (km/s) = 6.36080 6.47808 6.41971
#
# Compressibility (1/GPa) = 0.01889130
#
# Stress axis : x y z
#
# Youngs Moduli (GPa) = 61.30521 61.30487 82.73088
#
# Poissons Ratio (x) = 0.24985 0.36544
# Poissons Ratio (y) = 0.24985 0.36544
# Poissons Ratio (z) = 0.27080 0.27080
#
# Static dielectric constant tensor:
#      x y z
#    x 4.168220 0.000000 0.000000 
#    y 0.000000 4.168200 0.000000 
#    z 0.000000 0.000000 4.336470 
# 
# 
# High freq. dielectric constant tensor:
#      x y z
#    x 1.883510 0.000000 0.000000 
#    y 0.000000 1.883510 0.000000 
#    z 0.000000 0.000000 1.915870 
# 
# From -- ./inp_files/2774.got.cif
#   From: 2010.03.12/outbox.cif.g09.slc.cpg/sg121_2_cif.got.tgz:2774.got - 2010.04.06 16:06:48.
