data_PCOD8311128
_publ_section_title
;
Structure prediction by ZEFSAII (Michael W. Deem and Ramdas Pophale) SiO2 
 PCOD8311128
Probable space group: I -4 C 2
;
_chemical_formula_sum "Si O2"
_cell_formula_units_Z 84
_cell_length_a 12.178189
_cell_length_b 12.178189
_cell_length_c 26.629103
_cell_angle_alpha 90.000000
_cell_angle_beta 90.000000
_cell_angle_gamma 90.000000
_cell_volume 3949.316659
_symmetry_space_group_name_H-M "I -4 C 2"
_symmetry_group_IT_number 120
_symmetry_cell_setting 'tetragonal'
loop_
_space_group_symop_operation_xyz
x,y,z
y,-x,-z
-x,-y,z
-y,x,-z
y,x,1/2-z
-y,-x,1/2-z
-x,y,1/2+z
x,-y,1/2+z
1/2+x,1/2+y,1/2+z
1/2+y,1/2-x,1/2-z
1/2-x,1/2-y,1/2+z
1/2-y,1/2+x,1/2-z
1/2+y,1/2+x,-z
1/2-y,1/2-x,-z
1/2-x,1/2+y,z
1/2+x,1/2-y,z
loop_
_atom_site_type_symbol
_atom_site_label
_atom_site_fract_x
_atom_site_fract_y
_atom_site_fract_z
Si Si1 0.254001 0.039435 0.362410
Si Si2 0.047443 0.345115 0.913716
Si Si3 0.000000 0.500000 0.500000
Si Si4 0.397845 0.432075 0.111099
Si Si5 0.160524 0.922109 0.699449
Si Si6 0.093195 0.423825 0.685709
O O1 0.335118 0.101865 0.400230
O O2 0.176621 0.133278 0.338949
O O3 0.191240 0.942526 0.391772
O O4 0.309254 0.970773 0.317194
O O5 0.056216 0.213592 0.920624
O O6 0.962645 0.378128 0.870601
O O7 0.000616 0.391255 0.965749
O O8 0.500000 0.500000 0.088112
O O9 0.372757 0.466670 0.169701
O O10 0.089330 0.910671 0.750000
O O11 0.290460 0.918879 0.714903
O O12 0.000000 0.500000 0.711732
#
# Coordination Sequence:
#
# PCOD8311128 Si02
#       6
#    16  16   4  16  16  16
#     4  10  18  36  59  84 126 170 208 260 333 387
#     4  10  20  38  66  94 122 163 219 267 340 397
#     4  12  20  40  72  96 122 168 234 290 324 436
#     4   9  20  37  64  86 130 173 207 264 331 401
#     4  10  21  37  57  91 124 174 221 264 315 388
#     4   9  18  38  57  85 125 164 202 261 322 388
#
# _framework density 21.269501999999999
#
# number of rings (size 3 to 8) (size 9 to 14) (size 15 to 20)
#    0.000    2.286    2.857    1.143    0.000    3.429 
#   13.714    0.952    0.000    0.000    0.000    0.000 
#    0.000    0.000    0.000    0.000    0.000    0.000 
#
# Total GULP energy -520355.195746 kJ/mol
# GULP energy per Si atom -12389.409423 kJ/mol
# Density = 2.122109 g / cm^3
# Si number density = 21.269502 Si / 1000 Ang^3
#
#
#
# Elastic Constant Matrix: (Units=GPa)
#
#
# Indices 1 2 3 4 5 6 
#
# 1 141.8914 44.7656 26.5907 0.0000 0.0000 0.0000
# 2 44.7656 141.8910 26.5905 0.0000 0.0000 0.0000
# 3 26.5907 26.5905 85.4543 0.0000 0.0000 0.0000
# 4 0.0000 0.0000 0.0000 33.7939 0.0000 0.0000
# 5 0.0000 0.0000 0.0000 0.0000 33.7947 0.0000
# 6 0.0000 0.0000 0.0000 0.0000 0.0000 30.2678
#
#
#
# Elastic Compliance Matrix: (Units=1/GPa)
#
#
# Indices 1 2 3 4 5 6 
#
# 1 0.008087 -0.002209 -0.001829 0.000000 0.000000 0.000000
# 2 -0.002209 0.008087 -0.001829 0.000000 0.000000 0.000000
# 3 -0.001829 -0.001829 0.012841 0.000000 0.000000 0.000000
# 4 0.000000 0.000000 0.000000 0.029591 0.000000 0.000000
# 5 0.000000 0.000000 0.000000 0.000000 0.029590 0.000000
# 6 0.000000 0.000000 0.000000 0.000000 0.000000 0.033038
#
#
# Mechanical properties :
#
#
# Convention : Reuss Voigt Hill
#
# Bulk Modulus (GPa) = 57.86757 62.79225 60.32991
# Shear Modulus (GPa) = 36.04132 37.65727 36.84930
#
# Velocity S-wave (km/s) = 4.12090 4.21227 4.16684
# Velocity P-wave (km/s) = 7.06459 7.29685 7.18165
#
# Compressibility (1/GPa) = 0.01728084
#
# Stress axis : x y z
#
# Youngs Moduli (GPa) = 123.65118 123.65098 77.87830
#
# Poissons Ratio (x) = 0.27310 0.14246
# Poissons Ratio (y) = 0.27311 0.14246
# Poissons Ratio (z) = 0.22619 0.22618
#
# Static dielectric constant tensor:
#      x y z
#    x 4.146000 0.000000 0.000000 
#    y 0.000000 4.146040 0.000000 
#    z 0.000000 0.000000 3.274190 
# 
# 
# High freq. dielectric constant tensor:
#      x y z
#    x 1.845760 0.000000 0.000000 
#    y 0.000000 1.845760 0.000000 
#    z 0.000000 0.000000 1.782790 
# 
# From -- ./inp_files/6564.got.cif
#   From: 2010.03.12/outbox.cif.g09.slc.cpg/sg120_4_cif.got.tgz:6564.got - 2010.04.06 16:00:44.
