data_PCOD8311955
_publ_section_title
;
Structure prediction by ZEFSAII (Michael W. Deem and Ramdas Pophale) SiO2 
 PCOD8311955
Probable space group: I -4 2 D
;
_chemical_formula_sum "Si O2"
_cell_formula_units_Z 52
_cell_length_a 17.566583
_cell_length_b 17.566583
_cell_length_c 7.647134
_cell_angle_alpha 90.000000
_cell_angle_beta 90.000000
_cell_angle_gamma 90.000000
_cell_volume 2359.789609
_symmetry_space_group_name_H-M "I -4 2 D"
_symmetry_group_IT_number 122
_symmetry_cell_setting 'tetragonal'
loop_
_space_group_symop_operation_xyz
x,y,z
y,-x,-z
-x,-y,z
-y,x,-z
x,1/2-y,1/4-z
-x,1/2+y,1/4-z
-y,1/2-x,1/4+z
y,1/2+x,1/4+z
1/2+x,1/2+y,1/2+z
1/2+y,1/2-x,1/2-z
1/2-x,1/2-y,1/2+z
1/2-y,1/2+x,1/2-z
1/2+x,-y,3/4-z
1/2-x,y,3/4-z
1/2-y,-x,3/4+z
1/2+y,x,3/4+z
loop_
_atom_site_type_symbol
_atom_site_label
_atom_site_fract_x
_atom_site_fract_y
_atom_site_fract_z
Si Si1 0.000000 0.000000 0.500000
Si Si2 0.391047 0.417893 0.755182
Si Si3 0.664418 0.764162 0.327804
Si Si4 0.526034 0.815590 0.744973
O O1 0.977880 0.073062 0.612534
O O2 0.350261 0.351090 0.863822
O O3 0.457973 0.388863 0.626202
O O4 0.328820 0.464667 0.645734
O O5 0.750000 0.740205 0.375000
O O6 0.608265 0.709071 0.432494
O O7 0.648806 0.750000 0.125000
O O8 0.489720 0.750000 0.625000
#
# Coordination Sequence:
#
# PCOD8311955 Si02
#       4
#     4  16  16  16
#     4  12  24  38  60  96 132 170 212 264 328 390
#     4  11  23  40  65  92 130 169 211 271 325 384
#     4  11  24  43  65  93 128 170 221 270 324 391
#     4  10  23  42  64  94 125 166 217 266 326 385
#
# _framework density 22.035862000000002
#
# number of rings (size 3 to 8) (size 9 to 14) (size 15 to 20)
#    0.000    1.231    0.000    6.462    0.000    9.846 
#    0.000    0.000    0.000    0.000    0.000    0.000 
#    0.000    0.000    0.000    0.000    0.000    0.000 
#
# Total GULP energy -322534.555807 kJ/mol
# GULP energy per Si atom -12405.175223 kJ/mol
# Density = 2.198571 g / cm^3
# Si number density = 22.035862 Si / 1000 Ang^3
#
#
#
# Elastic Constant Matrix: (Units=GPa)
#
#
# Indices 1 2 3 4 5 6 
#
# 1 109.3835 42.4433 59.6687 0.0000 0.0000 0.0000
# 2 42.4433 109.3835 59.6687 0.0000 0.0000 0.0000
# 3 59.6687 59.6687 154.1323 0.0000 0.0000 0.0000
# 4 0.0000 0.0000 0.0000 47.2643 0.0000 0.0000
# 5 0.0000 0.0000 0.0000 0.0000 47.2643 0.0000
# 6 0.0000 0.0000 0.0000 0.0000 0.0000 19.1723
#
#
#
# Elastic Compliance Matrix: (Units=1/GPa)
#
#
# Indices 1 2 3 4 5 6 
#
# 1 0.012203 -0.002736 -0.003665 0.000000 0.000000 0.000000
# 2 -0.002736 0.012203 -0.003665 0.000000 0.000000 0.000000
# 3 -0.003665 -0.003665 0.009326 0.000000 0.000000 0.000000
# 4 0.000000 0.000000 0.000000 0.021158 0.000000 0.000000
# 5 0.000000 0.000000 0.000000 0.000000 0.021158 0.000000
# 6 0.000000 0.000000 0.000000 0.000000 0.000000 0.052159
#
#
# Mechanical properties :
#
#
# Convention : Reuss Voigt Hill
#
# Bulk Modulus (GPa) = 73.52974 77.38451 75.45713
# Shear Modulus (GPa) = 32.70753 36.81478 34.76116
#
# Velocity S-wave (km/s) = 3.85682 4.09182 3.97606
# Velocity P-wave (km/s) = 7.29891 7.58405 7.44285
#
# Compressibility (1/GPa) = 0.01359994
#
# Stress axis : x y z
#
# Youngs Moduli (GPa) = 81.94752 81.94752 107.23222
#
# Poissons Ratio (x) = 0.22419 0.39300
# Poissons Ratio (y) = 0.22419 0.39300
# Poissons Ratio (z) = 0.30034 0.30034
#
# Static dielectric constant tensor:
#      x y z
#    x 3.861480 0.000000 0.000000 
#    y 0.000000 3.861480 0.000000 
#    z 0.000000 0.000000 4.319670 
# 
# 
# High freq. dielectric constant tensor:
#      x y z
#    x 1.866090 0.000000 0.000000 
#    y 0.000000 1.866090 0.000000 
#    z 0.000000 0.000000 1.889450 
# 
# From -- ./inp_files/2164.got.cif
#   From: 2010.03.12/outbox.cif.g09.slc.cpg/sg122_2_cif.got.tgz:2164.got - 2010.04.06 16:17:16.
