data_PCOD8311673
_publ_section_title
;
Structure prediction by ZEFSAII (Michael W. Deem and Ramdas Pophale) SiO2 
 PCOD8311673
Probable space group: I -4 2 M
;
_chemical_formula_sum "Si O2"
_cell_formula_units_Z 80
_cell_length_a 14.917521
_cell_length_b 14.917521
_cell_length_c 19.936654
_cell_angle_alpha 90.000000
_cell_angle_beta 90.000000
_cell_angle_gamma 90.000000
_cell_volume 4436.552116
_symmetry_space_group_name_H-M "I -4 2 M"
_symmetry_group_IT_number 121
_symmetry_cell_setting 'tetragonal'
loop_
_space_group_symop_operation_xyz
x,y,z
y,-x,-z
-x,-y,z
-y,x,-z
x,-y,-z
-x,y,-z
-y,-x,z
y,x,z
1/2+x,1/2+y,1/2+z
1/2+y,1/2-x,1/2-z
1/2-x,1/2-y,1/2+z
1/2-y,1/2+x,1/2-z
1/2+x,1/2-y,1/2-z
1/2-x,1/2+y,1/2-z
1/2-y,1/2-x,1/2+z
1/2+y,1/2+x,1/2+z
loop_
_atom_site_type_symbol
_atom_site_label
_atom_site_fract_x
_atom_site_fract_y
_atom_site_fract_z
Si Si1 0.772141 0.632571 0.365371
Si Si2 0.831466 0.691572 0.111900
Si Si3 0.522934 0.335171 0.422288
Si Si4 0.104928 0.398755 0.487277
Si Si5 0.918712 0.620243 0.739859
O O1 0.733557 0.733557 0.368927
O O2 0.687990 0.567916 0.383023
O O3 0.859543 0.625051 0.413191
O O4 0.802926 0.612875 0.290151
O O5 0.734627 0.734627 0.128245
O O6 0.905221 0.767992 0.108174
O O7 0.827996 0.646777 0.038881
O O8 0.857985 0.617904 0.166343
O O9 0.500000 0.320158 0.500000
O O10 0.563684 0.436317 0.412029
O O11 0.138439 0.500000 0.500000
O O12 0.000000 0.392275 0.500000
O O13 0.880961 0.525677 0.765592
#
# Coordination Sequence:
#
# PCOD8311673 Si02
#       5
#    16  16  16  16  16
#     4  12  22  36  55  82 111 144 192 233 275 338
#     4  11  20  35  54  77 110 144 180 224 275 331
#     4  11  21  35  55  81 116 148 183 226 280 343
#     4  11  20  34  55  80 109 141 178 223 279 334
#     4  11  22  38  56  78 109 145 186 230 287 338
#
# _framework density 18.032018999999998
#
# number of rings (size 3 to 8) (size 9 to 14) (size 15 to 20)
#    0.000    0.800    6.000    3.000    0.000    4.600 
#    0.000    0.000    0.000    0.000    0.000    0.000 
#    0.000   30.400    0.000    0.000    0.000    0.000 
#
# Total GULP energy -495769.123150 kJ/mol
# GULP energy per Si atom -12394.228079 kJ/mol
# Density = 1.799098 g / cm^3
# Si number density = 18.032019 Si / 1000 Ang^3
#
#
#
# Elastic Constant Matrix: (Units=GPa)
#
#
# Indices 1 2 3 4 5 6 
#
# 1 59.9835 39.6585 16.5709 0.0000 0.0000 0.0000
# 2 39.6585 59.9830 16.5708 0.0000 0.0000 0.0000
# 3 16.5709 16.5708 74.8364 0.0000 0.0000 0.0000
# 4 0.0000 0.0000 0.0000 14.9843 0.0000 0.0000
# 5 0.0000 0.0000 0.0000 0.0000 14.9853 0.0000
# 6 0.0000 0.0000 0.0000 0.0000 0.0000 18.4822
#
#
#
# Elastic Compliance Matrix: (Units=1/GPa)
#
#
# Indices 1 2 3 4 5 6 
#
# 1 0.030017 -0.019184 -0.002399 0.000000 0.000000 0.000000
# 2 -0.019184 0.030017 -0.002399 0.000000 0.000000 0.000000
# 3 -0.002399 -0.002399 0.014425 0.000000 0.000000 0.000000
# 4 0.000000 0.000000 0.000000 0.066736 0.000000 0.000000
# 5 0.000000 0.000000 0.000000 0.000000 0.066732 0.000000
# 6 0.000000 0.000000 0.000000 0.000000 0.000000 0.054106
#
#
# Mechanical properties :
#
#
# Convention : Reuss Voigt Hill
#
# Bulk Modulus (GPa) = 37.74025 37.82257 37.78141
# Shear Modulus (GPa) = 15.68239 17.82390 16.75315
#
# Velocity S-wave (km/s) = 2.95226 3.14739 3.05138
# Velocity P-wave (km/s) = 5.70930 5.85054 5.78035
#
# Compressibility (1/GPa) = 0.02649691
#
# Stress axis : x y z
#
# Youngs Moduli (GPa) = 33.31416 33.31391 69.32483
#
# Poissons Ratio (x) = 0.63908 0.16631
# Poissons Ratio (y) = 0.63908 0.16630
# Poissons Ratio (z) = 0.07992 0.07992
#
# Static dielectric constant tensor:
#      x y z
#    x 3.470580 0.000000 0.000000 
#    y 0.000000 3.470590 0.000000 
#    z 0.000000 0.000000 3.236080 
# 
# 
# High freq. dielectric constant tensor:
#      x y z
#    x 1.694040 0.000000 0.000000 
#    y 0.000000 1.694040 0.000000 
#    z 0.000000 0.000000 1.695830 
# 
# From -- ./inp_files/6164.got.cif
#   From: 2010.03.12/outbox.cif.g09.slc.cpg/sg121_4_cif.got.tgz:6164.got - 2010.04.06 16:06:48.
