data_PCOD8311504
_publ_section_title
;
Structure prediction by ZEFSAII (Michael W. Deem and Ramdas Pophale) SiO2 
 PCOD8311504
Probable space group: I -4 2 M
;
_chemical_formula_sum "Si O2"
_cell_formula_units_Z 96
_cell_length_a 23.898212
_cell_length_b 23.898212
_cell_length_c 9.366057
_cell_angle_alpha 90.000000
_cell_angle_beta 90.000000
_cell_angle_gamma 90.000000
_cell_volume 5349.184966
_symmetry_space_group_name_H-M "I -4 2 M"
_symmetry_group_IT_number 121
_symmetry_cell_setting 'tetragonal'
loop_
_space_group_symop_operation_xyz
x,y,z
y,-x,-z
-x,-y,z
-y,x,-z
x,-y,-z
-x,y,-z
-y,-x,z
y,x,z
1/2+x,1/2+y,1/2+z
1/2+y,1/2-x,1/2-z
1/2-x,1/2-y,1/2+z
1/2-y,1/2+x,1/2-z
1/2+x,1/2-y,1/2-z
1/2-x,1/2+y,1/2-z
1/2-y,1/2-x,1/2+z
1/2+y,1/2+x,1/2+z
loop_
_atom_site_type_symbol
_atom_site_label
_atom_site_fract_x
_atom_site_fract_y
_atom_site_fract_z
Si Si1 0.073750 0.751217 0.708764
Si Si2 0.801538 0.198463 0.066794
Si Si3 0.763589 0.763589 0.641276
Si Si4 0.143552 0.694025 0.495036
Si Si5 0.234003 0.549116 0.819663
Si Si6 0.936446 0.843215 0.505566
Si Si7 0.233711 0.401424 0.474290
O O1 0.125245 0.712439 0.655170
O O2 0.079576 0.814144 0.646489
O O3 0.016202 0.725623 0.643522
O O4 0.069548 0.750955 0.878888
O O5 0.766606 0.233395 0.186702
O O6 0.866361 0.212437 0.080963
O O7 0.782206 0.217795 0.907808
O O8 0.745244 0.822995 0.577309
O O9 0.087441 0.687297 0.398911
O O10 0.178896 0.637360 0.504794
O O11 0.224219 0.553537 0.648933
O O12 0.295944 0.568484 0.870748
O O13 0.894111 0.894111 0.537858
O O14 0.000000 0.867040 0.500000
#
# Coordination Sequence:
#
# PCOD8311504 Si02
#       7
#    16   8   8  16  16  16  16
#     4  10  22  33  50  74 103 138 166 210 252 309
#     4  10  22  30  46  76 102 134 165 203 248 294
#     4  10  20  32  46  72 106 132 163 205 248 294
#     4  10  20  33  51  72 102 132 171 204 247 301
#     4  10  20  36  50  71 106 136 167 208 257 304
#     4   9  20  36  54  72  95 133 177 217 264 297
#     4  11  21  32  51  75 104 131 171 204 247 304
#
# _framework density 17.946659
#
# number of rings (size 3 to 8) (size 9 to 14) (size 15 to 20)
#    0.000    2.000    1.667    3.000   14.000    0.167 
#    0.000    0.000    0.000    0.000    0.000    0.000 
#    0.000   52.000    0.000    0.000    0.000    0.000 
#
# Total GULP energy -594804.678206 kJ/mol
# GULP energy per Si atom -12391.764129 kJ/mol
# Density = 1.790581 g / cm^3
# Si number density = 17.946659 Si / 1000 Ang^3
#
#
#
# Elastic Constant Matrix: (Units=GPa)
#
#
# Indices 1 2 3 4 5 6 
#
# 1 61.3737 34.2000 3.0595 0.0000 0.0000 0.0000
# 2 34.2000 61.3748 3.0613 0.0000 0.0000 0.0000
# 3 3.0595 3.0613 77.9548 0.0000 0.0000 0.0000
# 4 0.0000 0.0000 0.0000 21.7768 0.0000 0.0000
# 5 0.0000 0.0000 0.0000 0.0000 21.7766 0.0000
# 6 0.0000 0.0000 0.0000 0.0000 0.0000 23.2113
#
#
#
# Elastic Compliance Matrix: (Units=1/GPa)
#
#
# Indices 1 2 3 4 5 6 
#
# 1 0.023645 -0.013155 -0.000411 0.000000 0.000000 0.000000
# 2 -0.013155 0.023644 -0.000412 0.000000 0.000000 0.000000
# 3 -0.000411 -0.000412 0.012860 0.000000 0.000000 0.000000
# 4 0.000000 0.000000 0.000000 0.045920 0.000000 0.000000
# 5 0.000000 0.000000 0.000000 0.000000 0.045921 0.000000
# 6 0.000000 0.000000 0.000000 0.000000 0.000000 0.043082
#
#
# Mechanical properties :
#
#
# Convention : Reuss Voigt Hill
#
# Bulk Modulus (GPa) = 31.06366 31.26055 31.16210
# Shear Modulus (GPa) = 21.38936 24.04509 22.71723
#
# Velocity S-wave (km/s) = 3.45603 3.66431 3.56170
# Velocity P-wave (km/s) = 5.76819 5.94637 5.85796
#
# Compressibility (1/GPa) = 0.03219196
#
# Stress axis : x y z
#
# Youngs Moduli (GPa) = 42.29284 42.29345 77.75882
#
# Poissons Ratio (x) = 0.55637 0.03199
# Poissons Ratio (y) = 0.55636 0.03205
# Poissons Ratio (z) = 0.01740 0.01743
#
# Static dielectric constant tensor:
#      x y z
#    x 3.167020 0.000000 0.000000 
#    y 0.000000 3.167030 0.000000 
#    z 0.000000 0.000000 3.450360 
# 
# 
# High freq. dielectric constant tensor:
#      x y z
#    x 1.670820 0.000000 0.000000 
#    y 0.000000 1.670820 0.000000 
#    z 0.000000 0.000000 1.711320 
# 
# From -- ./inp_files/1999.got.cif
#   From: 2010.03.12/outbox.cif.g09.slc.cpg/sg121_1_cif.got.tgz:1999.got - 2010.04.06 16:06:48.
