data_PCOD8311186
_publ_section_title
;
Structure prediction by ZEFSAII (Michael W. Deem and Ramdas Pophale) SiO2 
 PCOD8311186
Probable space group: I -4 C 2
;
_chemical_formula_sum "Si O2"
_cell_formula_units_Z 120
_cell_length_a 21.695368
_cell_length_b 21.695368
_cell_length_c 12.720476
_cell_angle_alpha 90.000000
_cell_angle_beta 90.000000
_cell_angle_gamma 90.000000
_cell_volume 5987.388035
_symmetry_space_group_name_H-M "I -4 C 2"
_symmetry_group_IT_number 120
_symmetry_cell_setting 'tetragonal'
loop_
_space_group_symop_operation_xyz
x,y,z
y,-x,-z
-x,-y,z
-y,x,-z
y,x,1/2-z
-y,-x,1/2-z
-x,y,1/2+z
x,-y,1/2+z
1/2+x,1/2+y,1/2+z
1/2+y,1/2-x,1/2-z
1/2-x,1/2-y,1/2+z
1/2-y,1/2+x,1/2-z
1/2+y,1/2+x,-z
1/2-y,1/2-x,-z
1/2-x,1/2+y,z
1/2+x,1/2-y,z
loop_
_atom_site_type_symbol
_atom_site_label
_atom_site_fract_x
_atom_site_fract_y
_atom_site_fract_z
Si Si1 0.023651 0.783585 0.343547
Si Si2 0.011223 0.696726 0.015716
Si Si3 0.156442 0.307911 0.320558
Si Si4 0.875783 0.296954 0.576883
Si Si5 0.893359 0.393359 0.000000
Si Si6 0.176469 0.891682 0.660082
Si Si7 0.767443 0.888000 0.852083
Si Si8 0.625657 0.332976 0.974670
O O1 0.071906 0.771004 0.252847
O O2 0.056201 0.826123 0.432279
O O3 0.003920 0.718813 0.396888
O O4 0.962365 0.817325 0.302368
O O5 0.035140 0.625200 0.019577
O O6 0.066445 0.740908 0.057980
O O7 0.949956 0.700786 0.084545
O O8 0.143130 0.309013 0.196312
O O9 0.120161 0.356406 0.392379
O O10 0.140936 0.241232 0.368651
O O11 0.227192 0.326899 0.333299
O O12 0.850179 0.350179 0.500000
O O13 0.852823 0.231436 0.529704
O O14 0.147162 0.852839 0.750000
O O15 0.130709 0.887113 0.560814
O O16 0.832173 0.856600 0.879234
#
# Coordination Sequence:
#
# PCOD8311186 Si02
#       8
#    16  16  16  16   8  16  16  16
#     4  11  23  41  62  91 127 170 217 258 329 386
#     4  10  21  39  63  93 126 172 214 266 316 394
#     4  11  21  39  62  96 132 163 204 266 325 400
#     4  11  24  40  61  98 135 168 213 266 335 394
#     4  10  20  38  65  92 128 168 222 260 316 381
#     4  12  23  38  65  92 124 165 208 262 323 391
#     4  11  23  40  65  94 130 170 211 265 331 389
#     4  11  24  40  62  94 128 165 211 269 322 392
#
# _framework density 20.042128000000002
#
# number of rings (size 3 to 8) (size 9 to 14) (size 15 to 20)
#    0.000    1.067    4.000    3.600    3.733    1.067 
#    0.000    0.333    0.000    5.200    0.000    0.000 
#    0.000    0.000    0.000    0.000    0.000    0.000 
#
# Total GULP energy -743456.805326 kJ/mol
# GULP energy per Si atom -12390.946755 kJ/mol
# Density = 1.999651 g / cm^3
# Si number density = 20.042128 Si / 1000 Ang^3
#
#
#
# Elastic Constant Matrix: (Units=GPa)
#
#
# Indices 1 2 3 4 5 6 
#
# 1 -54.8377 178.9737 16.3965 0.0000 0.0000 0.0000
# 2 178.9737 -54.7995 16.4085 0.0000 0.0000 0.0000
# 3 16.3965 16.4085 87.9948 0.0000 0.0000 0.0000
# 4 0.0000 0.0000 0.0000 27.0620 0.0000 0.0000
# 5 0.0000 0.0000 0.0000 0.0000 27.0605 0.0000
# 6 0.0000 0.0000 0.0000 0.0000 0.0000 25.1881
#
#
#
# Elastic Compliance Matrix: (Units=1/GPa)
#
#
# Indices 1 2 3 4 5 6 
#
# 1 0.002097 0.006374 -0.001579 0.000000 0.000000 0.000000
# 2 0.006374 0.002098 -0.001579 0.000000 0.000000 0.000000
# 3 -0.001579 -0.001579 0.011953 0.000000 0.000000 0.000000
# 4 0.000000 0.000000 0.000000 0.036952 0.000000 0.000000
# 5 0.000000 0.000000 0.000000 0.000000 0.036954 0.000000
# 6 0.000000 0.000000 0.000000 0.000000 0.000000 0.039701
#
#
# Mechanical properties :
#
#
# Convention : Reuss Voigt Hill
#
# Bulk Modulus (GPa) = 44.28735 44.65723 44.47229
# Shear Modulus (GPa) = 38.21192 0.30073 19.25633
#
# Velocity S-wave (km/s) = 4.37118 0.38778 3.10303
# Velocity P-wave (km/s) = 6.90082 4.74664 5.92250
#
# Compressibility (1/GPa) = 0.02257981
#
# Stress axis : x y z
#
# Youngs Moduli (GPa) = 476.96606 476.68833 83.66088
#
# Poissons Ratio (x) = -3.03865 0.13213
# Poissons Ratio (y) = -3.04042 0.13210
# Poissons Ratio (z) = 0.75329 0.75268
#
# Static dielectric constant tensor:
#      x y z
#    x 3.863700 0.000000 0.000000 
#    y 0.000000 3.863750 0.000000 
#    z 0.000000 0.000000 4.370350 
# 
# 
# High freq. dielectric constant tensor:
#      x y z
#    x 1.768240 0.000000 0.000000 
#    y 0.000000 1.768240 0.000000 
#    z 0.000000 0.000000 1.802740 
# 
# From -- ./inp_files/3720.got.cif
#   From: 2010.03.12/outbox.cif.g09.slc.cpg/sg120_2_cif.got.tgz:3720.got - 2010.04.06 16:00:44.
