data_PCOD8311524
_publ_section_title
;
Structure prediction by ZEFSAII (Michael W. Deem and Ramdas Pophale) SiO2 
 PCOD8311524
Probable space group: I -4 2 M
;
_chemical_formula_sum "Si O2"
_cell_formula_units_Z 112
_cell_length_a 14.764397
_cell_length_b 14.764397
_cell_length_c 24.113697
_cell_angle_alpha 90.000000
_cell_angle_beta 90.000000
_cell_angle_gamma 90.000000
_cell_volume 5256.482566
_symmetry_space_group_name_H-M "I -4 2 M"
_symmetry_group_IT_number 121
_symmetry_cell_setting 'tetragonal'
loop_
_space_group_symop_operation_xyz
x,y,z
y,-x,-z
-x,-y,z
-y,x,-z
x,-y,-z
-x,y,-z
-y,-x,z
y,x,z
1/2+x,1/2+y,1/2+z
1/2+y,1/2-x,1/2-z
1/2-x,1/2-y,1/2+z
1/2-y,1/2+x,1/2-z
1/2+x,1/2-y,1/2-z
1/2-x,1/2+y,1/2-z
1/2-y,1/2-x,1/2+z
1/2+y,1/2+x,1/2+z
loop_
_atom_site_type_symbol
_atom_site_label
_atom_site_fract_x
_atom_site_fract_y
_atom_site_fract_z
Si Si1 0.460856 0.177381 0.053926
Si Si2 0.001577 0.855197 0.811254
Si Si3 0.135903 0.280184 0.003337
Si Si4 0.271020 0.008464 0.907665
Si Si5 0.733768 0.585254 0.212590
Si Si6 0.425383 0.069132 0.660386
Si Si7 0.855365 0.999321 0.394559
O O1 0.355487 0.189094 0.039030
O O2 0.481473 0.116397 0.107027
O O3 0.507178 0.275706 0.060296
O O4 0.500000 0.126304 0.000000
O O5 0.105549 0.894452 0.809616
O O6 0.973194 0.819107 0.871994
O O7 0.980806 0.777437 0.765556
O O8 0.937516 0.937516 0.795009
O O9 0.202945 0.202945 0.985133
O O10 0.063301 0.241204 0.046209
O O11 0.092909 0.310809 0.943654
O O12 0.341307 0.974194 0.861440
O O13 0.684184 0.684184 0.220017
O O14 0.842676 0.595724 0.202222
O O15 0.687538 0.532923 0.162369
O O16 0.500000 0.000000 0.687148
O O17 0.930032 0.069969 0.416061
O O18 0.900764 0.900764 0.386423
#
# Coordination Sequence:
#
# PCOD8311524 Si02
#       7
#    16  16  16  16  16  16  16
#     4  10  20  33  53  78 110 152 197 241 293 351
#     4  10  20  37  62  89 117 149 188 238 297 360
#     4  10  20  35  56  82 116 156 196 242 293 351
#     4  10  21  36  57  86 117 152 197 242 293 353
#     4   9  19  37  60  85 114 152 197 245 301 364
#     4  10  21  39  60  82 114 155 202 248 301 355
#     4   9  17  30  50  78 112 149 193 242 291 351
#
# _framework density 21.307024999999999
#
# number of rings (size 3 to 8) (size 9 to 14) (size 15 to 20)
#    0.000    2.286    0.000    2.571    0.000    8.286 
#    2.571    0.714    0.000    5.143    0.000    0.000 
#    0.000    0.000    0.000    0.000    0.000    0.000 
#
# Total GULP energy -693775.039888 kJ/mol
# GULP energy per Si atom -12388.839998 kJ/mol
# Density = 2.125853 g / cm^3
# Si number density = 21.307025 Si / 1000 Ang^3
#
#
#
# Elastic Constant Matrix: (Units=GPa)
#
#
# Indices 1 2 3 4 5 6 
#
# 1 86.6896 39.1826 20.8733 0.0000 0.0000 0.0000
# 2 39.1826 86.6899 20.8733 0.0000 0.0000 0.0000
# 3 20.8733 20.8733 81.7881 0.0000 0.0000 0.0000
# 4 0.0000 0.0000 0.0000 25.3214 0.0000 0.0000
# 5 0.0000 0.0000 0.0000 0.0000 25.3212 0.0000
# 6 0.0000 0.0000 0.0000 0.0000 0.0000 31.8948
#
#
#
# Elastic Compliance Matrix: (Units=1/GPa)
#
#
# Indices 1 2 3 4 5 6 
#
# 1 0.014864 -0.006185 -0.002215 0.000000 0.000000 0.000000
# 2 -0.006185 0.014864 -0.002215 0.000000 0.000000 0.000000
# 3 -0.002215 -0.002215 0.013357 0.000000 0.000000 0.000000
# 4 0.000000 0.000000 0.000000 0.039492 0.000000 0.000000
# 5 0.000000 0.000000 0.000000 0.000000 0.039493 0.000000
# 6 0.000000 0.000000 0.000000 0.000000 0.000000 0.031353
#
#
# Mechanical properties :
#
#
# Convention : Reuss Voigt Hill
#
# Bulk Modulus (GPa) = 45.75493 46.33623 46.04558
# Shear Modulus (GPa) = 27.48166 28.12338 27.80252
#
# Velocity S-wave (km/s) = 3.59527 3.63700 3.61619
# Velocity P-wave (km/s) = 6.22538 6.27942 6.25246
#
# Compressibility (1/GPa) = 0.02185557
#
# Stress axis : x y z
#
# Youngs Moduli (GPa) = 67.27504 67.27530 74.86526
#
# Poissons Ratio (x) = 0.41611 0.16583
# Poissons Ratio (y) = 0.41611 0.16583
# Poissons Ratio (z) = 0.14902 0.14902
#
# Static dielectric constant tensor:
#      x y z
#    x 3.875620 0.000000 0.000000 
#    y 0.000000 3.875610 0.000000 
#    z 0.000000 0.000000 3.824320 
# 
# 
# High freq. dielectric constant tensor:
#      x y z
#    x 1.824460 0.000000 0.000000 
#    y 0.000000 1.824460 0.000000 
#    z 0.000000 0.000000 1.838060 
# 
# From -- ./inp_files/7173.got.cif
#   From: 2010.03.12/outbox.cif.g09.slc.cpg/sg121_4_cif.got.tgz:7173.got - 2010.04.06 16:06:48.
