data_PCOD8311898
_publ_section_title
;
Structure prediction by ZEFSAII (Michael W. Deem and Ramdas Pophale) SiO2 
 PCOD8311898
Probable space group: I -4 2 D
;
_chemical_formula_sum "Si O2"
_cell_formula_units_Z 88
_cell_length_a 17.370139
_cell_length_b 17.370139
_cell_length_c 13.403158
_cell_angle_alpha 90.000000
_cell_angle_beta 90.000000
_cell_angle_gamma 90.000000
_cell_volume 4044.024004
_symmetry_space_group_name_H-M "I -4 2 D"
_symmetry_group_IT_number 122
_symmetry_cell_setting 'tetragonal'
loop_
_space_group_symop_operation_xyz
x,y,z
y,-x,-z
-x,-y,z
-y,x,-z
x,1/2-y,1/4-z
-x,1/2+y,1/4-z
-y,1/2-x,1/4+z
y,1/2+x,1/4+z
1/2+x,1/2+y,1/2+z
1/2+y,1/2-x,1/2-z
1/2-x,1/2-y,1/2+z
1/2-y,1/2+x,1/2-z
1/2+x,-y,3/4-z
1/2-x,y,3/4-z
1/2-y,-x,3/4+z
1/2+y,x,3/4+z
loop_
_atom_site_type_symbol
_atom_site_label
_atom_site_fract_x
_atom_site_fract_y
_atom_site_fract_z
Si Si1 0.375913 0.860594 0.499555
Si Si2 0.952794 0.212565 0.927855
Si Si3 0.163008 0.609881 0.219753
Si Si4 0.183075 0.691147 0.539169
Si Si5 0.184719 0.486573 0.955467
Si Si6 0.750000 0.214754 0.375000
O O1 0.441143 0.800170 0.466490
O O2 0.378610 0.862918 0.618627
O O3 0.292231 0.833996 0.460252
O O4 0.383085 0.948272 0.454555
O O5 0.984026 0.221824 0.815672
O O6 0.018150 0.163416 0.988245
O O7 0.876638 0.158950 0.941732
O O8 0.253878 0.625475 0.215086
O O9 0.206196 0.750000 0.625000
O O10 0.099795 0.652589 0.563074
O O11 0.183715 0.736068 0.432330
O O12 0.250000 0.507543 0.875000
#
# Coordination Sequence:
#
# PCOD8311898 Si02
#       6
#    16  16  16  16  16   8
#     4  11  21  40  61  97 125 164 210 269 323 379
#     4  11  23  42  65  92 128 173 216 270 325 382
#     4  11  23  41  65  92 125 169 223 265 319 383
#     4  11  19  35  60  93 121 161 215 263 315 386
#     4  10  22  36  63  99 128 160 213 267 328 387
#     4  12  18  34  66  86 126 158 212 268 320 370
#
# _framework density 21.760504000000001
#
# number of rings (size 3 to 8) (size 9 to 14) (size 15 to 20)
#    0.000    1.091    6.364    0.545    0.000    0.364 
#    9.818    0.909    0.000    0.000    0.000    0.000 
#    0.000    0.000    0.000    0.000    0.000    0.000 
#
# Total GULP energy -545150.193006 kJ/mol
# GULP energy per Si atom -12389.777114 kJ/mol
# Density = 2.171098 g / cm^3
# Si number density = 21.760504 Si / 1000 Ang^3
#
#
#
# Elastic Constant Matrix: (Units=GPa)
#
#
# Indices 1 2 3 4 5 6 
#
# 1 108.3784 38.6302 32.5505 0.0000 0.0000 0.0000
# 2 38.6302 108.3784 32.5505 0.0000 0.0000 0.0000
# 3 32.5505 32.5505 87.1342 0.0000 0.0000 0.0000
# 4 0.0000 0.0000 0.0000 21.0117 0.0000 0.0000
# 5 0.0000 0.0000 0.0000 0.0000 21.0117 0.0000
# 6 0.0000 0.0000 0.0000 0.0000 0.0000 22.7016
#
#
#
# Elastic Compliance Matrix: (Units=1/GPa)
#
#
# Indices 1 2 3 4 5 6 
#
# 1 0.011244 -0.003093 -0.003045 0.000000 0.000000 0.000000
# 2 -0.003093 0.011244 -0.003045 0.000000 0.000000 0.000000
# 3 -0.003045 -0.003045 0.013751 0.000000 0.000000 0.000000
# 4 0.000000 0.000000 0.000000 0.047593 0.000000 0.000000
# 5 0.000000 0.000000 0.000000 0.000000 0.047593 0.000000
# 6 0.000000 0.000000 0.000000 0.000000 0.000000 0.044050
#
#
# Mechanical properties :
#
#
# Convention : Reuss Voigt Hill
#
# Bulk Modulus (GPa) = 55.94873 56.81703 56.38288
# Shear Modulus (GPa) = 25.02527 26.28899 25.65713
#
# Velocity S-wave (km/s) = 3.39489 3.47955 3.43748
# Velocity P-wave (km/s) = 6.41358 6.50461 6.45925
#
# Compressibility (1/GPa) = 0.01787351
#
# Stress axis : x y z
#
# Youngs Moduli (GPa) = 88.93644 88.93644 72.71957
#
# Poissons Ratio (x) = 0.27511 0.22142
# Poissons Ratio (y) = 0.27511 0.22142
# Poissons Ratio (z) = 0.27080 0.27080
#
# Static dielectric constant tensor:
#      x y z
#    x 3.870770 0.000000 0.000000 
#    y 0.000000 3.870770 0.000000 
#    z 0.000000 0.000000 4.001580 
# 
# 
# High freq. dielectric constant tensor:
#      x y z
#    x 1.838920 0.000000 0.000000 
#    y 0.000000 1.838920 0.000000 
#    z 0.000000 0.000000 1.866890 
# 
# From -- ./inp_files/5371.got.cif
#   From: 2010.03.12/outbox.cif.g09.slc.cpg/sg122_3_cif.got.tgz:5371.got - 2010.04.06 16:17:16.
