data_PCOD8311040
_publ_section_title
;
Structure prediction by ZEFSAII (Michael W. Deem and Ramdas Pophale) SiO2 
 PCOD8311040
Probable space group: I -4 M 2
;
_chemical_formula_sum "Si O2"
_cell_formula_units_Z 96
_cell_length_a 17.447564
_cell_length_b 17.447564
_cell_length_c 17.837258
_cell_angle_alpha 90.000000
_cell_angle_beta 90.000000
_cell_angle_gamma 90.000000
_cell_volume 5429.973301
_symmetry_space_group_name_H-M "I -4 M 2"
_symmetry_group_IT_number 119
_symmetry_cell_setting 'tetragonal'
loop_
_space_group_symop_operation_xyz
x,y,z
y,-x,-z
-x,-y,z
-y,x,-z
y,x,-z
-y,-x,-z
-x,y,z
x,-y,z
1/2+x,1/2+y,1/2+z
1/2+y,1/2-x,1/2-z
1/2-x,1/2-y,1/2+z
1/2-y,1/2+x,1/2-z
1/2+y,1/2+x,1/2-z
1/2-y,1/2-x,1/2-z
1/2-x,1/2+y,1/2+z
1/2+x,1/2-y,1/2+z
loop_
_atom_site_type_symbol
_atom_site_label
_atom_site_fract_x
_atom_site_fract_y
_atom_site_fract_z
Si Si1 0.910466 0.819213 0.326797
Si Si2 0.163814 0.084768 0.433284
Si Si3 0.203695 0.806230 0.803815
Si Si4 0.411028 0.825252 0.315558
Si Si5 0.306989 0.784563 0.935824
Si Si6 0.588380 0.160333 0.052978
O O1 0.888796 0.903460 0.359092
O O2 0.885305 0.814257 0.239972
O O3 0.859817 0.767829 0.382798
O O4 0.000000 0.799603 0.333258
O O5 0.142566 0.142566 0.500000
O O6 0.253517 0.096925 0.412960
O O7 0.149699 0.000000 0.464525
O O8 0.256139 0.756139 0.750000
O O9 0.127031 0.758614 0.822347
O O10 0.246283 0.827242 0.881608
O O11 0.500000 0.812682 0.299227
O O12 0.374824 0.874824 0.250000
O O13 0.399963 0.873542 0.391239
O O14 0.261178 0.738823 0.000000
O O15 0.364653 0.844973 0.974809
O O16 0.500000 0.138590 0.038658
#
# Coordination Sequence:
#
# PCOD8311040 Si02
#       6
#    16  16  16  16  16  16
#     4  11  20  32  50  78 111 140 176 217 260 313
#     4  11  20  30  48  78 114 145 171 204 257 327
#     4   9  20  35  55  75 101 142 184 217 256 320
#     4  11  22  36  52  73 103 141 181 222 266 320
#     4  11  17  34  57  78 101 136 178 221 264 313
#     4  11  20  32  54  81 106 136 171 216 274 327
#
# _framework density 17.679645000000001
#
# number of rings (size 3 to 8) (size 9 to 14) (size 15 to 20)
#    0.000    1.333    5.000    3.500    0.000    4.333 
#    0.000    0.833    0.000    0.000    0.000    0.000 
#    0.000   16.333    0.000    0.000    0.000    0.000 
#
# Total GULP energy -594849.976938 kJ/mol
# GULP energy per Si atom -12392.707853 kJ/mol
# Density = 1.763941 g / cm^3
# Si number density = 17.679645 Si / 1000 Ang^3
#
#
#
# Elastic Constant Matrix: (Units=GPa)
#
#
# Indices 1 2 3 4 5 6 
#
# 1 32.8432 44.7687 40.0976 0.0000 0.0000 0.0000
# 2 44.7687 32.8418 40.0979 0.0000 0.0000 0.0000
# 3 40.0976 40.0979 111.9158 0.0000 0.0000 0.0000
# 4 0.0000 0.0000 0.0000 18.5553 0.0000 0.0000
# 5 0.0000 0.0000 0.0000 0.0000 18.5551 0.0000
# 6 0.0000 0.0000 0.0000 0.0000 0.0000 12.8843
#
#
#
# Elastic Compliance Matrix: (Units=1/GPa)
#
#
# Indices 1 2 3 4 5 6 
#
# 1 -0.031694 0.052154 -0.007331 0.000000 0.000000 0.000000
# 2 0.052154 -0.031696 -0.007330 0.000000 0.000000 0.000000
# 3 -0.007331 -0.007330 0.014188 0.000000 0.000000 0.000000
# 4 0.000000 0.000000 0.000000 0.053893 0.000000 0.000000
# 5 0.000000 0.000000 0.000000 0.000000 0.053893 0.000000
# 6 0.000000 0.000000 0.000000 0.000000 0.000000 0.077614
#
#
# Mechanical properties :
#
#
# Convention : Reuss Voigt Hill
#
# Bulk Modulus (GPa) = 38.78196 47.50325 43.14261
# Shear Modulus (GPa) = 71.62708 13.50806 42.56757
#
# Velocity S-wave (km/s) = 6.37196 2.76714 4.91217
# Velocity P-wave (km/s) = 8.72464 6.09398 7.52516
#
# Compressibility (1/GPa) = 0.02578519
#
# Stress axis : x y z
#
# Youngs Moduli (GPa) = -31.55213 -31.54945 70.48298
#
# Poissons Ratio (x) = 1.64543 0.51669
# Poissons Ratio (y) = 1.64556 0.51661
# Poissons Ratio (z) = -0.23130 -0.23124
#
# Static dielectric constant tensor:
#      x y z
#    x 3.191780 0.000000 0.000000 
#    y 0.000000 3.191780 0.000000 
#    z 0.000000 0.000000 3.686170 
# 
# 
# High freq. dielectric constant tensor:
#      x y z
#    x 1.662010 0.000000 0.000000 
#    y 0.000000 1.662010 0.000000 
#    z 0.000000 0.000000 1.683320 
# 
# From -- ./inp_files/6658.got.cif
#   From: 2010.03.12/outbox.cif.g09.slc.cpg/sg119_4_cif.got.tgz:6658.got - 2010.04.14 02:25:26.
