data_PCOD8311621
_publ_section_title
;
Structure prediction by ZEFSAII (Michael W. Deem and Ramdas Pophale) SiO2 
 PCOD8311621
Probable space group: I -4 2 M
;
_chemical_formula_sum "Si O2"
_cell_formula_units_Z 96
_cell_length_a 15.222749
_cell_length_b 15.222749
_cell_length_c 19.496859
_cell_angle_alpha 90.000000
_cell_angle_beta 90.000000
_cell_angle_gamma 90.000000
_cell_volume 4518.047828
_symmetry_space_group_name_H-M "I -4 2 M"
_symmetry_group_IT_number 121
_symmetry_cell_setting 'tetragonal'
loop_
_space_group_symop_operation_xyz
x,y,z
y,-x,-z
-x,-y,z
-y,x,-z
x,-y,-z
-x,y,-z
-y,-x,z
y,x,z
1/2+x,1/2+y,1/2+z
1/2+y,1/2-x,1/2-z
1/2-x,1/2-y,1/2+z
1/2-y,1/2+x,1/2-z
1/2+x,1/2-y,1/2-z
1/2-x,1/2+y,1/2-z
1/2-y,1/2-x,1/2+z
1/2+y,1/2+x,1/2+z
loop_
_atom_site_type_symbol
_atom_site_label
_atom_site_fract_x
_atom_site_fract_y
_atom_site_fract_z
Si Si1 0.850751 0.385807 0.632956
Si Si2 0.642688 0.496689 0.808731
Si Si3 0.907174 0.767598 0.986814
Si Si4 0.274891 0.004451 0.421525
Si Si5 0.919071 0.365851 0.893757
Si Si6 0.229674 0.375064 0.741107
O O1 0.756590 0.394909 0.594026
O O2 0.896544 0.304020 0.594439
O O3 0.895917 0.481724 0.625365
O O4 0.851173 0.356288 0.712704
O O5 0.591507 0.408494 0.781502
O O6 0.572604 0.572604 0.821338
O O7 0.688237 0.473919 0.881032
O O8 0.720536 0.532508 0.758982
O O9 0.829908 0.829908 0.012477
O O10 0.911141 0.679191 0.032007
O O11 0.000000 0.817289 0.000000
O O12 0.249252 0.000000 0.500000
O O13 0.359674 0.950979 0.397194
O O14 0.882432 0.299388 0.836914
O O15 0.295157 0.295157 0.750483
#
# Coordination Sequence:
#
# PCOD8311621 Si02
#       6
#    16  16  16  16  16  16
#     4  10  22  39  60  84 122 162 199 246 311 377
#     4   9  21  42  63  88 126 167 208 254 310 378
#     4  10  21  39  61  84 115 156 201 252 307 363
#     4  11  22  39  61  93 123 162 203 252 314 374
#     4  11  23  38  59  91 122 156 206 256 308 371
#     4  10  22  40  61  90 126 163 208 260 311 375
#
# _framework density 21.248116
#
# number of rings (size 3 to 8) (size 9 to 14) (size 15 to 20)
#    0.000    1.833    1.667    1.500    4.667    3.500 
#    0.000    4.167    0.000    4.000    0.000    0.000 
#    0.000    0.000    0.000    0.000    0.000    0.000 
#
# Total GULP energy -594887.828895 kJ/mol
# GULP energy per Si atom -12393.496435 kJ/mol
# Density = 2.119975 g / cm^3
# Si number density = 21.248116 Si / 1000 Ang^3
#
#
#
# Elastic Constant Matrix: (Units=GPa)
#
#
# Indices 1 2 3 4 5 6 
#
# 1 71.0663 16.8221 9.0119 0.0000 0.0000 0.0000
# 2 16.8221 71.0671 9.0120 0.0000 0.0000 0.0000
# 3 9.0119 9.0120 82.8860 0.0000 0.0000 0.0000
# 4 0.0000 0.0000 0.0000 25.2480 0.0000 0.0000
# 5 0.0000 0.0000 0.0000 0.0000 25.2481 0.0000
# 6 0.0000 0.0000 0.0000 0.0000 0.0000 27.4973
#
#
#
# Elastic Compliance Matrix: (Units=1/GPa)
#
#
# Indices 1 2 3 4 5 6 
#
# 1 0.015036 -0.003399 -0.001265 0.000000 0.000000 0.000000
# 2 -0.003399 0.015036 -0.001265 0.000000 0.000000 0.000000
# 3 -0.001265 -0.001265 0.012340 0.000000 0.000000 0.000000
# 4 0.000000 0.000000 0.000000 0.039607 0.000000 0.000000
# 5 0.000000 0.000000 0.000000 0.000000 0.039607 0.000000
# 6 0.000000 0.000000 0.000000 0.000000 0.000000 0.036367
#
#
# Mechanical properties :
#
#
# Convention : Reuss Voigt Hill
#
# Bulk Modulus (GPa) = 32.72928 32.74569 32.73749
# Shear Modulus (GPa) = 27.77206 28.27690 28.02448
#
# Velocity S-wave (km/s) = 3.61922 3.65196 3.63563
# Velocity P-wave (km/s) = 5.73601 5.76429 5.75017
#
# Compressibility (1/GPa) = 0.03055368
#
# Stress axis : x y z
#
# Youngs Moduli (GPa) = 66.50552 66.50629 81.03783
#
# Poissons Ratio (x) = 0.22604 0.10254
# Poissons Ratio (y) = 0.22604 0.10254
# Poissons Ratio (z) = 0.08415 0.08415
#
# Static dielectric constant tensor:
#      x y z
#    x 3.824300 0.000000 0.000000 
#    y 0.000000 3.824300 0.000000 
#    z 0.000000 0.000000 3.735100 
# 
# 
# High freq. dielectric constant tensor:
#      x y z
#    x 1.829450 0.000000 0.000000 
#    y 0.000000 1.829450 0.000000 
#    z 0.000000 0.000000 1.828870 
# 
# From -- ./inp_files/6405.got.cif
#   From: 2010.03.12/outbox.cif.g09.slc.cpg/sg121_4_cif.got.tgz:6405.got - 2010.04.06 16:06:48.
