data_PCOD8311194
_publ_section_title
;
Structure prediction by ZEFSAII (Michael W. Deem and Ramdas Pophale) SiO2 
 PCOD8311194
Probable space group: I -4 C 2
;
_chemical_formula_sum "Si O2"
_cell_formula_units_Z 56
_cell_length_a 14.025377
_cell_length_b 14.025377
_cell_length_c 13.606922
_cell_angle_alpha 90.000000
_cell_angle_beta 90.000000
_cell_angle_gamma 90.000000
_cell_volume 2676.633955
_symmetry_space_group_name_H-M "I -4 C 2"
_symmetry_group_IT_number 120
_symmetry_cell_setting 'tetragonal'
loop_
_space_group_symop_operation_xyz
x,y,z
y,-x,-z
-x,-y,z
-y,x,-z
y,x,1/2-z
-y,-x,1/2-z
-x,y,1/2+z
x,-y,1/2+z
1/2+x,1/2+y,1/2+z
1/2+y,1/2-x,1/2-z
1/2-x,1/2-y,1/2+z
1/2-y,1/2+x,1/2-z
1/2+y,1/2+x,-z
1/2-y,1/2-x,-z
1/2-x,1/2+y,z
1/2+x,1/2-y,z
loop_
_atom_site_type_symbol
_atom_site_label
_atom_site_fract_x
_atom_site_fract_y
_atom_site_fract_z
Si Si1 0.356400 0.115779 0.607185
Si Si2 0.223577 0.289601 0.392024
Si Si3 0.771110 0.485470 0.774878
Si Si4 0.139299 0.860702 0.750000
O O1 0.403139 0.096862 0.500000
O O2 0.257262 0.172738 0.595183
O O3 0.437152 0.168694 0.667430
O O4 0.322924 0.021978 0.667615
O O5 0.183236 0.316765 0.500000
O O6 0.232113 0.383074 0.325388
O O7 0.157126 0.212195 0.339827
O O8 0.662160 0.528266 0.773720
#
# Coordination Sequence:
#
# PCOD8311194 Si02
#       4
#    16  16  16   8
#     4  10  23  39  61  91 124 164 208 259 316 375
#     4  10  20  40  62  85 124 166 205 256 313 376
#     4  11  20  40  63  90 127 163 204 260 314 373
#     4  10  22  40  59  93 124 164 206 260 314 376
#
# _framework density 20.921797999999999
#
# number of rings (size 3 to 8) (size 9 to 14) (size 15 to 20)
#    0.000    1.714    5.714    0.000    4.000    0.571 
#    0.000    4.286    0.000    0.000    0.000    0.000 
#    0.000    0.000    0.000    0.000    0.000    0.000 
#
# Total GULP energy -346866.250942 kJ/mol
# GULP energy per Si atom -12388.080391 kJ/mol
# Density = 2.087418 g / cm^3
# Si number density = 20.921798 Si / 1000 Ang^3
#
#
#
# Elastic Constant Matrix: (Units=GPa)
#
#
# Indices 1 2 3 4 5 6 
#
# 1 67.8619 35.9692 39.7903 0.0000 0.0000 0.0000
# 2 35.9692 67.8621 39.7897 0.0000 0.0000 0.0000
# 3 39.7903 39.7897 172.5123 0.0000 0.0000 0.0000
# 4 0.0000 0.0000 0.0000 20.7266 0.0000 0.0000
# 5 0.0000 0.0000 0.0000 0.0000 20.7274 0.0000
# 6 0.0000 0.0000 0.0000 0.0000 0.0000 21.5244
#
#
#
# Elastic Compliance Matrix: (Units=1/GPa)
#
#
# Indices 1 2 3 4 5 6 
#
# 1 0.021527 -0.009828 -0.002698 0.000000 0.000000 0.000000
# 2 -0.009828 0.021527 -0.002698 0.000000 0.000000 0.000000
# 3 -0.002698 -0.002698 0.007041 0.000000 0.000000 0.000000
# 4 0.000000 0.000000 0.000000 0.048247 0.000000 0.000000
# 5 0.000000 0.000000 0.000000 0.000000 0.048245 0.000000
# 6 0.000000 0.000000 0.000000 0.000000 0.000000 0.046459
#
#
# Mechanical properties :
#
#
# Convention : Reuss Voigt Hill
#
# Bulk Modulus (GPa) = 50.90054 59.92609 55.41332
# Shear Modulus (GPa) = 21.73482 25.44147 23.58815
#
# Velocity S-wave (km/s) = 3.22663 3.49094 3.36139
# Velocity P-wave (km/s) = 6.18573 6.70477 6.45048
#
# Compressibility (1/GPa) = 0.01964616
#
# Stress axis : x y z
#
# Youngs Moduli (GPa) = 46.45289 46.45325 142.01578
#
# Poissons Ratio (x) = 0.45654 0.38323
# Poissons Ratio (y) = 0.45654 0.38321
# Poissons Ratio (z) = 0.12535 0.12535
#
# Static dielectric constant tensor:
#      x y z
#    x 3.865550 0.000000 0.000000 
#    y 0.000000 3.865540 0.000000 
#    z 0.000000 0.000000 4.559940 
# 
# 
# High freq. dielectric constant tensor:
#      x y z
#    x 1.803370 0.000000 0.000000 
#    y 0.000000 1.803370 0.000000 
#    z 0.000000 0.000000 1.836570 
# 
# From -- ./inp_files/3215.got.cif
#   From: 2010.03.12/outbox.cif.g09.slc.cpg/sg120_2_cif.got.tgz:3215.got - 2010.04.06 16:00:44.
