data_PCOD8311346
_publ_section_title
;
Structure prediction by ZEFSAII (Michael W. Deem and Ramdas Pophale) SiO2 
 PCOD8311346
Probable space group: I -4 2 M
;
_chemical_formula_sum "Si O2"
_cell_formula_units_Z 104
_cell_length_a 21.919765
_cell_length_b 21.919765
_cell_length_c 13.680648
_cell_angle_alpha 90.000000
_cell_angle_beta 90.000000
_cell_angle_gamma 90.000000
_cell_volume 6573.224364
_symmetry_space_group_name_H-M "I -4 2 M"
_symmetry_group_IT_number 121
_symmetry_cell_setting 'tetragonal'
loop_
_space_group_symop_operation_xyz
x,y,z
y,-x,-z
-x,-y,z
-y,x,-z
x,-y,-z
-x,y,-z
-y,-x,z
y,x,z
1/2+x,1/2+y,1/2+z
1/2+y,1/2-x,1/2-z
1/2-x,1/2-y,1/2+z
1/2-y,1/2+x,1/2-z
1/2+x,1/2-y,1/2-z
1/2-x,1/2+y,1/2-z
1/2-y,1/2-x,1/2+z
1/2+y,1/2+x,1/2+z
loop_
_atom_site_type_symbol
_atom_site_label
_atom_site_fract_x
_atom_site_fract_y
_atom_site_fract_z
Si Si1 0.730027 0.369362 0.750877
Si Si2 0.823777 0.021443 0.347899
Si Si3 0.807969 0.093619 0.536624
Si Si4 0.220889 0.321349 0.062366
Si Si5 0.132371 0.233958 0.973224
Si Si6 0.809964 0.000000 0.000000
Si Si7 0.998382 0.097129 0.827581
O O1 0.664789 0.335212 0.766484
O O2 0.722580 0.440500 0.779025
O O3 0.780345 0.339160 0.822760
O O4 0.752094 0.362864 0.640463
O O5 0.839785 0.061099 0.443398
O O6 0.794987 0.956039 0.378737
O O7 0.884125 0.008472 0.284817
O O8 0.854302 0.145699 0.574997
O O9 0.742334 0.120991 0.503686
O O10 0.270012 0.270012 0.040433
O O11 0.156044 0.293371 0.031908
O O12 0.172250 0.172250 0.994438
O O13 0.062373 0.228395 0.007117
O O14 0.847455 0.994160 0.900909
O O15 0.931125 0.068876 0.838270
O O16 0.048398 0.048398 0.859332
#
# Coordination Sequence:
#
# PCOD8311346 Si02
#       7
#    16  16  16  16  16   8  16
#     4   9  16  30  49  65  89 125 159 189 236 293
#     4  10  17  28  46  65  90 125 156 193 238 282
#     4   9  17  29  46  68  93 118 156 204 244 286
#     4   8  16  31  49  68  88 117 155 199 246 293
#     4  10  19  33  50  67  90 122 159 196 241 287
#     4  12  22  33  46  64  90 125 166 206 232 268
#     4  11  21  31  42  59  89 130 171 200 224 258
#
# _framework density 15.821764
#
# number of rings (size 3 to 8) (size 9 to 14) (size 15 to 20)
#    0.000    2.308    1.538    4.154    0.000    0.615 
#    2.769    0.000    0.000    5.538    0.000    0.000 
#    0.000    9.846    0.000   11.077    0.000    0.154 
#
# Total GULP energy -644458.702962 kJ/mol
# GULP energy per Si atom -12393.436595 kJ/mol
# Density = 1.578575 g / cm^3
# Si number density = 15.821764 Si / 1000 Ang^3
#
#
#
# Elastic Constant Matrix: (Units=GPa)
#
#
# Indices 1 2 3 4 5 6 
#
# 1 71.9364 42.7448 31.1307 0.0000 0.0000 0.0000
# 2 42.7448 71.9355 31.1305 0.0000 0.0000 0.0000
# 3 31.1307 31.1305 67.1135 0.0000 0.0000 0.0000
# 4 0.0000 0.0000 0.0000 22.8017 0.0000 0.0000
# 5 0.0000 0.0000 0.0000 0.0000 22.8021 0.0000
# 6 0.0000 0.0000 0.0000 0.0000 0.0000 22.7758
#
#
#
# Elastic Compliance Matrix: (Units=1/GPa)
#
#
# Indices 1 2 3 4 5 6 
#
# 1 0.022956 -0.011301 -0.005406 0.000000 0.000000 0.000000
# 2 -0.011301 0.022956 -0.005406 0.000000 0.000000 0.000000
# 3 -0.005406 -0.005406 0.019915 0.000000 0.000000 0.000000
# 4 0.000000 0.000000 0.000000 0.043856 0.000000 0.000000
# 5 0.000000 0.000000 0.000000 0.000000 0.043856 0.000000
# 6 0.000000 0.000000 0.000000 0.000000 0.000000 0.043906
#
#
# Mechanical properties :
#
#
# Convention : Reuss Voigt Hill
#
# Bulk Modulus (GPa) = 46.29484 46.77750 46.53617
# Shear Modulus (GPa) = 20.09063 20.74121 20.41592
#
# Velocity S-wave (km/s) = 3.56731 3.62460 3.59607
# Velocity P-wave (km/s) = 6.80377 6.86633 6.83512
#
# Compressibility (1/GPa) = 0.02160068
#
# Stress axis : x y z
#
# Youngs Moduli (GPa) = 43.56207 43.56152 50.21245
#
# Poissons Ratio (x) = 0.49229 0.27145
# Poissons Ratio (y) = 0.49230 0.27146
# Poissons Ratio (z) = 0.23550 0.23550
#
# Static dielectric constant tensor:
#      x y z
#    x 2.941790 0.000000 0.000000 
#    y 0.000000 2.941790 0.000000 
#    z 0.000000 0.000000 3.094450 
# 
# 
# High freq. dielectric constant tensor:
#      x y z
#    x 1.576490 0.000000 0.000000 
#    y 0.000000 1.576490 0.000000 
#    z 0.000000 0.000000 1.617260 
# 
# From -- ./inp_files/4571.got.cif
#   From: 2010.03.12/outbox.cif.g09.slc.cpg/sg121_3_cif.got.tgz:4571.got - 2010.04.06 16:06:48.
