data_PCOD8311086
_publ_section_title
;
Structure prediction by ZEFSAII (Michael W. Deem and Ramdas Pophale) SiO2 
 PCOD8311086
Probable space group: I -4 M 2
;
_chemical_formula_sum "Si O2"
_cell_formula_units_Z 72
_cell_length_a 18.648588
_cell_length_b 18.648588
_cell_length_c 10.250593
_cell_angle_alpha 90.000000
_cell_angle_beta 90.000000
_cell_angle_gamma 90.000000
_cell_volume 3564.847030
_symmetry_space_group_name_H-M "I -4 M 2"
_symmetry_group_IT_number 119
_symmetry_cell_setting 'tetragonal'
loop_
_space_group_symop_operation_xyz
x,y,z
y,-x,-z
-x,-y,z
-y,x,-z
y,x,-z
-y,-x,-z
-x,y,z
x,-y,z
1/2+x,1/2+y,1/2+z
1/2+y,1/2-x,1/2-z
1/2-x,1/2-y,1/2+z
1/2-y,1/2+x,1/2-z
1/2+y,1/2+x,1/2-z
1/2-y,1/2-x,1/2-z
1/2-x,1/2+y,1/2+z
1/2+x,1/2-y,1/2+z
loop_
_atom_site_type_symbol
_atom_site_label
_atom_site_fract_x
_atom_site_fract_y
_atom_site_fract_z
Si Si1 0.150073 0.084226 0.370752
Si Si2 0.293890 0.706111 0.500000
Si Si3 0.306282 0.417713 0.306098
Si Si4 0.804070 0.352207 0.877687
Si Si5 0.333252 0.917820 0.643987
O O1 0.119758 0.119758 0.500000
O O2 0.107842 0.116862 0.247512
O O3 0.234267 0.099318 0.355383
O O4 0.136098 0.000000 0.374317
O O5 0.370798 0.714793 0.568806
O O6 0.283869 0.768263 0.392798
O O7 0.309967 0.500000 0.351888
O O8 0.248519 0.407187 0.190569
O O9 0.855822 0.355822 0.750000
O O10 0.845681 0.378383 0.006382
O O11 0.387233 0.887233 0.750000
O O12 0.352528 0.000000 0.623303
#
# Coordination Sequence:
#
# PCOD8311086 Si02
#       5
#    16   8  16  16  16
#     4  12  24  39  63  96 134 176 221 270 331 398
#     4  12  22  40  68  93 127 176 226 282 332 386
#     4  11  24  41  62  94 134 178 224 272 329 397
#     4  12  23  40  68 101 131 170 225 282 335 388
#     4  11  23  44  71  99 131 170 222 276 335 405
#
# _framework density 20.197220999999999
#
# number of rings (size 3 to 8) (size 9 to 14) (size 15 to 20)
#    0.000    0.444    7.778    1.333    0.000    2.667 
#    0.000    2.222    0.000    0.000    0.000    0.000 
#    0.000    0.000    0.000    0.000    0.000    0.000 
#
# Total GULP energy -446584.987011 kJ/mol
# GULP energy per Si atom -12405.138528 kJ/mol
# Density = 2.015125 g / cm^3
# Si number density = 20.197221 Si / 1000 Ang^3
#
#
#
# Elastic Constant Matrix: (Units=GPa)
#
#
# Indices 1 2 3 4 5 6 
#
# 1 94.0532 30.4101 43.1312 0.0000 0.0000 0.0000
# 2 30.4101 94.0525 43.1308 0.0000 0.0000 0.0000
# 3 43.1312 43.1308 116.8533 0.0000 0.0000 0.0000
# 4 0.0000 0.0000 0.0000 29.3632 0.0000 0.0000
# 5 0.0000 0.0000 0.0000 0.0000 29.3635 0.0000
# 6 0.0000 0.0000 0.0000 0.0000 0.0000 19.2808
#
#
#
# Elastic Compliance Matrix: (Units=1/GPa)
#
#
# Indices 1 2 3 4 5 6 
#
# 1 0.013255 -0.002458 -0.003985 0.000000 0.000000 0.000000
# 2 -0.002458 0.013255 -0.003985 0.000000 0.000000 0.000000
# 3 -0.003985 -0.003985 0.011499 0.000000 0.000000 0.000000
# 4 0.000000 0.000000 0.000000 0.034056 0.000000 0.000000
# 5 0.000000 0.000000 0.000000 0.000000 0.034056 0.000000
# 6 0.000000 0.000000 0.000000 0.000000 0.000000 0.051865
#
#
# Mechanical properties :
#
#
# Convention : Reuss Voigt Hill
#
# Bulk Modulus (GPa) = 58.30110 59.81147 59.05628
# Shear Modulus (GPa) = 27.09152 28.15396 27.62274
#
# Velocity S-wave (km/s) = 3.66642 3.73762 3.70219
# Velocity P-wave (km/s) = 6.84486 6.95014 6.89770
#
# Compressibility (1/GPa) = 0.01715233
#
# Stress axis : x y z
#
# Youngs Moduli (GPa) = 75.44594 75.44545 86.96032
#
# Poissons Ratio (x) = 0.18546 0.34654
# Poissons Ratio (y) = 0.18546 0.34654
# Poissons Ratio (z) = 0.30065 0.30065
#
# Static dielectric constant tensor:
#      x y z
#    x 3.641550 0.000000 0.000000 
#    y 0.000000 3.641570 0.000000 
#    z 0.000000 0.000000 3.692360 
# 
# 
# High freq. dielectric constant tensor:
#      x y z
#    x 1.780620 0.000000 0.000000 
#    y 0.000000 1.780620 0.000000 
#    z 0.000000 0.000000 1.792890 
# 
# From -- ./inp_files/3863.got.cif
#   From: 2010.03.12/outbox.cif.g09.slc.cpg/sg119_2_cif.got.tgz:3863.got - 2010.04.14 02:25:26.
