data_PCOD8311303
_publ_section_title
;
Structure prediction by ZEFSAII (Michael W. Deem and Ramdas Pophale) SiO2 
 PCOD8311303
Probable space group: I -4 C 2
;
_chemical_formula_sum "Si O2"
_cell_formula_units_Z 88
_cell_length_a 16.204193
_cell_length_b 16.204193
_cell_length_c 15.264578
_cell_angle_alpha 90.000000
_cell_angle_beta 90.000000
_cell_angle_gamma 90.000000
_cell_volume 4008.109860
_symmetry_space_group_name_H-M "I -4 C 2"
_symmetry_group_IT_number 120
_symmetry_cell_setting 'tetragonal'
loop_
_space_group_symop_operation_xyz
x,y,z
y,-x,-z
-x,-y,z
-y,x,-z
y,x,1/2-z
-y,-x,1/2-z
-x,y,1/2+z
x,-y,1/2+z
1/2+x,1/2+y,1/2+z
1/2+y,1/2-x,1/2-z
1/2-x,1/2-y,1/2+z
1/2-y,1/2+x,1/2-z
1/2+y,1/2+x,-z
1/2-y,1/2-x,-z
1/2-x,1/2+y,z
1/2+x,1/2-y,z
loop_
_atom_site_type_symbol
_atom_site_label
_atom_site_fract_x
_atom_site_fract_y
_atom_site_fract_z
Si Si1 0.657550 0.657550 0.750000
Si Si2 0.956757 0.880330 0.103715
Si Si3 0.693493 0.071237 0.167893
Si Si4 0.619265 0.173590 0.322312
Si Si5 0.556461 0.630172 0.409034
Si Si6 0.406324 0.906324 0.000000
Si Si7 0.402278 0.097723 0.000000
O O1 0.576913 0.667867 0.688233
O O2 0.733963 0.653275 0.684348
O O3 0.056098 0.880735 0.113657
O O4 0.911419 0.968184 0.106255
O O5 0.935364 0.839005 0.009952
O O6 0.670801 0.121180 0.253599
O O7 0.792085 0.072229 0.153149
O O8 0.647407 0.115651 0.085952
O O9 0.662363 0.979008 0.187466
O O10 0.639194 0.145215 0.419796
O O11 0.501688 0.887141 0.019202
#
# Coordination Sequence:
#
# PCOD8311303 Si02
#       7
#     8  16  16  16  16   8   8
#     4  12  24  45  64  98 140 171 222 290 330 394
#     4   9  20  41  68  97 131 173 221 274 336 417
#     4  11  22  43  67 108 135 179 224 285 338 409
#     4  11  25  44  66  96 139 177 230 278 341 400
#     4   9  19  41  70  98 130 174 224 273 342 404
#     4   9  20  36  73 100 130 174 225 274 343 402
#     4   9  20  46  65  90 132 188 227 273 332 408
#
# _framework density 21.955486000000001
#
# number of rings (size 3 to 8) (size 9 to 14) (size 15 to 20)
#    0.000    2.000    1.818    2.182    2.545    3.273 
#    6.545    0.000    4.000    0.000    0.000    0.000 
#    0.000    0.000    0.000    0.000    0.000    0.000 
#
# Total GULP energy -545440.881468 kJ/mol
# GULP energy per Si atom -12396.383670 kJ/mol
# Density = 2.190551 g / cm^3
# Si number density = 21.955486 Si / 1000 Ang^3
#
#
#
# Elastic Constant Matrix: (Units=GPa)
#
#
# Indices 1 2 3 4 5 6 
#
# 1 91.6143 35.5812 72.7268 0.0000 0.0000 0.0000
# 2 35.5812 91.6136 72.7266 0.0000 0.0000 0.0000
# 3 72.7268 72.7266 166.8606 0.0000 0.0000 0.0000
# 4 0.0000 0.0000 0.0000 28.1688 0.0000 0.0000
# 5 0.0000 0.0000 0.0000 0.0000 28.1687 0.0000
# 6 0.0000 0.0000 0.0000 0.0000 0.0000 19.8166
#
#
#
# Elastic Compliance Matrix: (Units=1/GPa)
#
#
# Indices 1 2 3 4 5 6 
#
# 1 0.016760 -0.001086 -0.006832 0.000000 0.000000 0.000000
# 2 -0.001086 0.016761 -0.006832 0.000000 0.000000 0.000000
# 3 -0.006832 -0.006832 0.011948 0.000000 0.000000 0.000000
# 4 0.000000 0.000000 0.000000 0.035500 0.000000 0.000000
# 5 0.000000 0.000000 0.000000 0.000000 0.035500 0.000000
# 6 0.000000 0.000000 0.000000 0.000000 0.000000 0.050463
#
#
# Mechanical properties :
#
#
# Convention : Reuss Voigt Hill
#
# Bulk Modulus (GPa) = 62.61710 79.12862 70.87286
# Shear Modulus (GPa) = 24.78253 26.50109 25.64181
#
# Velocity S-wave (km/s) = 3.36335 3.47801 3.42116
# Velocity P-wave (km/s) = 6.60793 7.22824 6.92504
#
# Compressibility (1/GPa) = 0.01597008
#
# Stress axis : x y z
#
# Youngs Moduli (GPa) = 59.66435 59.66386 83.69425
#
# Poissons Ratio (x) = 0.06481 0.57177
# Poissons Ratio (y) = 0.06481 0.57177
# Poissons Ratio (z) = 0.40761 0.40761
#
# Static dielectric constant tensor:
#      x y z
#    x 3.949020 0.000000 0.000000 
#    y 0.000000 3.949040 0.000000 
#    z 0.000000 0.000000 4.174740 
# 
# 
# High freq. dielectric constant tensor:
#      x y z
#    x 1.851160 0.000000 0.000000 
#    y 0.000000 1.851170 0.000000 
#    z 0.000000 0.000000 1.875350 
# 
# From -- ./inp_files/3557.got.cif
#   From: 2010.03.12/outbox.cif.g09.slc.cpg/sg120_2_cif.got.tgz:3557.got - 2010.04.06 16:00:44.
