data_PCOD8311601
_publ_section_title
;
Structure prediction by ZEFSAII (Michael W. Deem and Ramdas Pophale) SiO2 
 PCOD8311601
Probable space group: I -4 2 M
;
_chemical_formula_sum "Si O2"
_cell_formula_units_Z 96
_cell_length_a 19.942846
_cell_length_b 19.942846
_cell_length_c 12.035382
_cell_angle_alpha 90.000000
_cell_angle_beta 90.000000
_cell_angle_gamma 90.000000
_cell_volume 4786.677306
_symmetry_space_group_name_H-M "I -4 2 M"
_symmetry_group_IT_number 121
_symmetry_cell_setting 'tetragonal'
loop_
_space_group_symop_operation_xyz
x,y,z
y,-x,-z
-x,-y,z
-y,x,-z
x,-y,-z
-x,y,-z
-y,-x,z
y,x,z
1/2+x,1/2+y,1/2+z
1/2+y,1/2-x,1/2-z
1/2-x,1/2-y,1/2+z
1/2-y,1/2+x,1/2-z
1/2+x,1/2-y,1/2-z
1/2-x,1/2+y,1/2-z
1/2-y,1/2-x,1/2+z
1/2+y,1/2+x,1/2+z
loop_
_atom_site_type_symbol
_atom_site_label
_atom_site_fract_x
_atom_site_fract_y
_atom_site_fract_z
Si Si1 0.237367 0.135199 0.547577
Si Si2 0.184638 0.566618 0.553827
Si Si3 0.110096 0.001064 0.371061
Si Si4 0.104521 0.312632 0.343118
Si Si5 0.340128 0.237683 0.621178
Si Si6 0.749493 0.024948 0.274373
O O1 0.159616 0.159616 0.559351
O O2 0.249650 0.103462 0.427341
O O3 0.284199 0.199356 0.552125
O O4 0.260090 0.085795 0.642811
O O5 0.150187 0.500000 0.500000
O O6 0.125973 0.617240 0.597616
O O7 0.231199 0.593544 0.452913
O O8 0.237861 0.551160 0.650301
O O9 0.064003 0.935998 0.347386
O O10 0.174637 0.002877 0.289521
O O11 0.134863 0.000000 0.500000
O O12 0.067840 0.067840 0.347137
O O13 0.153747 0.296214 0.241865
O O14 0.028268 0.310692 0.298154
O O15 0.314947 0.314947 0.633643
#
# Coordination Sequence:
#
# PCOD8311601 Si02
#       6
#    16  16  16  16  16  16
#     4  10  21  36  59  93 121 148 198 257 318 375
#     4  11  24  44  62  88 128 171 212 263 324 393
#     4   9  19  36  58  89 129 167 206 257 316 383
#     4  11  22  39  64  89 126 162 207 265 314 372
#     4  10  21  38  62  92 123 159 201 259 320 375
#     4  12  22  37  64  91 121 164 207 257 317 383
#
# _framework density 20.055665000000001
#
# number of rings (size 3 to 8) (size 9 to 14) (size 15 to 20)
#    0.000    1.500    3.333    3.000    0.000    4.667 
#    0.000    0.000    0.000   16.500    0.000    1.167 
#    0.000    0.000    0.000    0.000    0.000    0.000 
#
# Total GULP energy -594773.358686 kJ/mol
# GULP energy per Si atom -12391.111639 kJ/mol
# Density = 2.001002 g / cm^3
# Si number density = 20.055665 Si / 1000 Ang^3
#
#
#
# Elastic Constant Matrix: (Units=GPa)
#
#
# Indices 1 2 3 4 5 6 
#
# 1 93.3736 41.5271 32.8814 0.0000 0.0000 0.0000
# 2 41.5271 93.3735 32.8814 0.0000 0.0000 0.0000
# 3 32.8814 32.8814 111.6907 0.0000 0.0000 0.0000
# 4 0.0000 0.0000 0.0000 26.1708 0.0000 0.0000
# 5 0.0000 0.0000 0.0000 0.0000 26.1708 0.0000
# 6 0.0000 0.0000 0.0000 0.0000 0.0000 21.5775
#
#
#
# Elastic Compliance Matrix: (Units=1/GPa)
#
#
# Indices 1 2 3 4 5 6 
#
# 1 0.013971 -0.005316 -0.002548 0.000000 0.000000 0.000000
# 2 -0.005316 0.013971 -0.002548 0.000000 0.000000 0.000000
# 3 -0.002548 -0.002548 0.010454 0.000000 0.000000 0.000000
# 4 0.000000 0.000000 0.000000 0.038210 0.000000 0.000000
# 5 0.000000 0.000000 0.000000 0.000000 0.038211 0.000000
# 6 0.000000 0.000000 0.000000 0.000000 0.000000 0.046345
#
#
# Mechanical properties :
#
#
# Convention : Reuss Voigt Hill
#
# Bulk Modulus (GPa) = 56.91028 57.00194 56.95611
# Shear Modulus (GPa) = 26.61786 27.52701 27.07244
#
# Velocity S-wave (km/s) = 3.64703 3.70879 3.67804
# Velocity P-wave (km/s) = 6.79501 6.84278 6.81894
#
# Compressibility (1/GPa) = 0.01757152
#
# Stress axis : x y z
#
# Youngs Moduli (GPa) = 71.57505 71.57492 95.66138
#
# Poissons Ratio (x) = 0.38052 0.24374
# Poissons Ratio (y) = 0.38052 0.24375
# Poissons Ratio (z) = 0.18237 0.18237
#
# Static dielectric constant tensor:
#      x y z
#    x 3.806400 0.000000 0.000000 
#    y 0.000000 3.806400 0.000000 
#    z 0.000000 0.000000 3.636370 
# 
# 
# High freq. dielectric constant tensor:
#      x y z
#    x 1.778350 0.000000 0.000000 
#    y 0.000000 1.778350 0.000000 
#    z 0.000000 0.000000 1.785330 
# 
# From -- ./inp_files/3285.got.cif
#   From: 2010.03.12/outbox.cif.g09.slc.cpg/sg121_2_cif.got.tgz:3285.got - 2010.04.06 16:06:48.
