data_PCOD8311131
_publ_section_title
;
Structure prediction by ZEFSAII (Michael W. Deem and Ramdas Pophale) SiO2 
 PCOD8311131
Probable space group: I -4 C 2
;
_chemical_formula_sum "Si O2"
_cell_formula_units_Z 96
_cell_length_a 19.237279
_cell_length_b 19.237279
_cell_length_c 15.185145
_cell_angle_alpha 90.000000
_cell_angle_beta 90.000000
_cell_angle_gamma 90.000000
_cell_volume 5619.610698
_symmetry_space_group_name_H-M "I -4 C 2"
_symmetry_group_IT_number 120
_symmetry_cell_setting 'tetragonal'
loop_
_space_group_symop_operation_xyz
x,y,z
y,-x,-z
-x,-y,z
-y,x,-z
y,x,1/2-z
-y,-x,1/2-z
-x,y,1/2+z
x,-y,1/2+z
1/2+x,1/2+y,1/2+z
1/2+y,1/2-x,1/2-z
1/2-x,1/2-y,1/2+z
1/2-y,1/2+x,1/2-z
1/2+y,1/2+x,-z
1/2-y,1/2-x,-z
1/2-x,1/2+y,z
1/2+x,1/2-y,z
loop_
_atom_site_type_symbol
_atom_site_label
_atom_site_fract_x
_atom_site_fract_y
_atom_site_fract_z
Si Si1 0.606355 0.036821 0.928498
Si Si2 0.761357 0.403811 0.041215
Si Si3 0.556526 0.244069 0.960213
Si Si4 0.348959 0.890405 0.376160
Si Si5 0.167580 0.638449 0.677127
Si Si6 0.269845 0.320526 0.933087
O O1 0.604973 0.093995 0.851063
O O2 0.608948 0.962522 0.881093
O O3 0.543420 0.043420 0.000000
O O4 0.672960 0.050354 0.987614
O O5 0.723891 0.479037 0.052849
O O6 0.834132 0.405958 0.093533
O O7 0.715540 0.343519 0.086160
O O8 0.780129 0.388818 0.938674
O O9 0.595244 0.230377 0.867778
O O10 0.605736 0.291484 0.022112
O O11 0.321277 0.872042 0.280198
O O12 0.170526 0.721370 0.653642
O O13 0.224331 0.275670 0.000000
#
# Coordination Sequence:
#
# PCOD8311131 Si02
#       6
#    16  16  16  16  16  16
#     4   8  16  33  47  63  95 139 164 199 252 302
#     4  10  19  33  48  70  99 129 165 212 263 300
#     4   8  17  32  51  66  95 134 160 206 260 310
#     4  10  19  29  49  72  98 125 174 215 239 296
#     4   9  18  30  51  69  98 129 176 208 251 302
#     4   9  16  34  51  71  95 132 164 206 264 311
#
# _framework density 17.083034000000001
#
# number of rings (size 3 to 8) (size 9 to 14) (size 15 to 20)
#    0.000    3.000    1.667    2.000    2.333    0.667 
#    0.000   16.667    0.000    0.500    0.000    0.000 
#    0.000    0.000    0.000    0.000    0.000    0.000 
#
# Total GULP energy -594715.173232 kJ/mol
# GULP energy per Si atom -12389.899442 kJ/mol
# Density = 1.704415 g / cm^3
# Si number density = 17.083034 Si / 1000 Ang^3
#
#
#
# Elastic Constant Matrix: (Units=GPa)
#
#
# Indices 1 2 3 4 5 6 
#
# 1 79.6021 35.0166 25.4214 0.0000 0.0000 0.0000
# 2 35.0166 79.6018 25.4215 0.0000 0.0000 0.0000
# 3 25.4214 25.4215 108.8134 0.0000 0.0000 0.0000
# 4 0.0000 0.0000 0.0000 12.9593 0.0000 0.0000
# 5 0.0000 0.0000 0.0000 0.0000 12.9593 0.0000
# 6 0.0000 0.0000 0.0000 0.0000 0.0000 20.6275
#
#
#
# Elastic Compliance Matrix: (Units=1/GPa)
#
#
# Indices 1 2 3 4 5 6 
#
# 1 0.016081 -0.006348 -0.002274 0.000000 0.000000 0.000000
# 2 -0.006348 0.016081 -0.002274 0.000000 0.000000 0.000000
# 3 -0.002274 -0.002274 0.010253 0.000000 0.000000 0.000000
# 4 0.000000 0.000000 0.000000 0.077165 0.000000 0.000000
# 5 0.000000 0.000000 0.000000 0.000000 0.077165 0.000000
# 6 0.000000 0.000000 0.000000 0.000000 0.000000 0.048479
#
#
# Mechanical properties :
#
#
# Convention : Reuss Voigt Hill
#
# Bulk Modulus (GPa) = 48.48870 48.85959 48.67415
# Shear Modulus (GPa) = 18.25557 21.45306 19.85431
#
# Velocity S-wave (km/s) = 3.27255 3.54759 3.41284
# Velocity P-wave (km/s) = 6.53645 6.74120 6.63962
#
# Compressibility (1/GPa) = 0.02062336
#
# Stress axis : x y z
#
# Youngs Moduli (GPa) = 62.18497 62.18467 97.53685
#
# Poissons Ratio (x) = 0.39474 0.22179
# Poissons Ratio (y) = 0.39474 0.22179
# Poissons Ratio (z) = 0.14140 0.14141
#
# Static dielectric constant tensor:
#      x y z
#    x 3.414490 0.000000 0.000000 
#    y 0.000000 3.414490 0.000000 
#    z 0.000000 0.000000 3.066150 
# 
# 
# High freq. dielectric constant tensor:
#      x y z
#    x 1.633030 0.000000 0.000000 
#    y 0.000000 1.633030 0.000000 
#    z 0.000000 0.000000 1.648910 
# 
# From -- ./inp_files/3624.got.cif
#   From: 2010.03.12/outbox.cif.g09.slc.cpg/sg120_2_cif.got.tgz:3624.got - 2010.04.06 16:00:44.
