data_PCOD8311976
_publ_section_title
;
Structure prediction by ZEFSAII (Michael W. Deem and Ramdas Pophale) SiO2 
 PCOD8311976
Probable space group: I -4 2 D
;
_chemical_formula_sum "Si O2"
_cell_formula_units_Z 40
_cell_length_a 7.541184
_cell_length_b 7.541184
_cell_length_c 31.056554
_cell_angle_alpha 90.000000
_cell_angle_beta 90.000000
_cell_angle_gamma 90.000000
_cell_volume 1766.169335
_symmetry_space_group_name_H-M "I -4 2 D"
_symmetry_group_IT_number 122
_symmetry_cell_setting 'tetragonal'
loop_
_space_group_symop_operation_xyz
x,y,z
y,-x,-z
-x,-y,z
-y,x,-z
x,1/2-y,1/4-z
-x,1/2+y,1/4-z
-y,1/2-x,1/4+z
y,1/2+x,1/4+z
1/2+x,1/2+y,1/2+z
1/2+y,1/2-x,1/2-z
1/2-x,1/2-y,1/2+z
1/2-y,1/2+x,1/2-z
1/2+x,-y,3/4-z
1/2-x,y,3/4-z
1/2-y,-x,3/4+z
1/2+y,x,3/4+z
loop_
_atom_site_type_symbol
_atom_site_label
_atom_site_fract_x
_atom_site_fract_y
_atom_site_fract_z
Si Si1 0.125808 0.244394 0.751722
Si Si2 0.151233 0.141861 0.916832
Si Si3 0.000000 0.000000 0.318971
O O1 0.221984 0.421913 0.735782
O O2 0.221010 0.150831 0.791779
O O3 0.128240 0.120340 0.710327
O O4 0.250000 0.065309 0.875000
O O5 0.095267 0.345752 0.903547
O O6 0.000000 0.000000 0.928297
#
# Coordination Sequence:
#
# PCOD8311976 Si02
#       3
#    16  16   8
#     4   9  21  42  67  95 128 178 230 286 342 420
#     4  11  27  42  65 102 138 183 229 297 357 420
#     4  10  24  42  70  94 133 184 229 286 338 430
#
# _framework density 22.647884999999999
#
# number of rings (size 3 to 8) (size 9 to 14) (size 15 to 20)
#    0.000    2.000    0.000    0.000   14.000    8.000 
#    0.000    0.000    0.000    0.000    0.000    0.000 
#    0.000    0.000    0.000    0.000    0.000    0.000 
#
# Total GULP energy -247879.557848 kJ/mol
# GULP energy per Si atom -12393.977892 kJ/mol
# Density = 2.259634 g / cm^3
# Si number density = 22.647885 Si / 1000 Ang^3
#
#
#
# Elastic Constant Matrix: (Units=GPa)
#
#
# Indices 1 2 3 4 5 6 
#
# 1 104.4980 48.6834 52.1100 0.0000 0.0000 0.0000
# 2 48.6834 104.4980 52.1100 0.0000 0.0000 0.0000
# 3 52.1100 52.1100 89.4228 0.0000 0.0000 0.0000
# 4 0.0000 0.0000 0.0000 24.3373 0.0000 0.0000
# 5 0.0000 0.0000 0.0000 0.0000 24.3373 0.0000
# 6 0.0000 0.0000 0.0000 0.0000 0.0000 43.6009
#
#
#
# Elastic Compliance Matrix: (Units=1/GPa)
#
#
# Indices 1 2 3 4 5 6 
#
# 1 0.014367 -0.003550 -0.006303 0.000000 0.000000 0.000000
# 2 -0.003550 0.014367 -0.006303 0.000000 0.000000 0.000000
# 3 -0.006303 -0.006303 0.018529 0.000000 0.000000 0.000000
# 4 0.000000 0.000000 0.000000 0.041089 0.000000 0.000000
# 5 0.000000 0.000000 0.000000 0.000000 0.041089 0.000000
# 6 0.000000 0.000000 0.000000 0.000000 0.000000 0.022935
#
#
# Mechanical properties :
#
#
# Convention : Reuss Voigt Hill
#
# Bulk Modulus (GPa) = 66.89220 67.13619 67.01419
# Shear Modulus (GPa) = 26.36126 28.15616 27.25871
#
# Velocity S-wave (km/s) = 3.41539 3.52975 3.47304
# Velocity P-wave (km/s) = 6.71960 6.80588 6.76288
#
# Compressibility (1/GPa) = 0.01494943
#
# Stress axis : x y z
#
# Youngs Moduli (GPa) = 69.60572 69.60573 53.96882
#
# Poissons Ratio (x) = 0.24709 0.34018
# Poissons Ratio (y) = 0.24709 0.34018
# Poissons Ratio (z) = 0.43875 0.43875
#
# Static dielectric constant tensor:
#      x y z
#    x 4.355820 0.000000 0.000000 
#    y 0.000000 4.355820 0.000000 
#    z 0.000000 0.000000 3.684640 
# 
# 
# High freq. dielectric constant tensor:
#      x y z
#    x 1.909020 0.000000 0.000000 
#    y 0.000000 1.909020 0.000000 
#    z 0.000000 0.000000 1.868640 
# 
# From -- ./inp_files/7640.got.cif
#   From: 2010.03.12/outbox.cif.g09.slc.cpg/sg122_4_cif.got.tgz:7640.got - 2010.04.06 16:17:16.
