data_PCOD8311664
_publ_section_title
;
Structure prediction by ZEFSAII (Michael W. Deem and Ramdas Pophale) SiO2 
 PCOD8311664
Probable space group: I -4 2 M
;
_chemical_formula_sum "Si O2"
_cell_formula_units_Z 60
_cell_length_a 13.186988
_cell_length_b 13.186988
_cell_length_c 16.461324
_cell_angle_alpha 90.000000
_cell_angle_beta 90.000000
_cell_angle_gamma 90.000000
_cell_volume 2862.569140
_symmetry_space_group_name_H-M "I -4 2 M"
_symmetry_group_IT_number 121
_symmetry_cell_setting 'tetragonal'
loop_
_space_group_symop_operation_xyz
x,y,z
y,-x,-z
-x,-y,z
-y,x,-z
x,-y,-z
-x,y,-z
-y,-x,z
y,x,z
1/2+x,1/2+y,1/2+z
1/2+y,1/2-x,1/2-z
1/2-x,1/2-y,1/2+z
1/2-y,1/2+x,1/2-z
1/2+x,1/2-y,1/2-z
1/2-x,1/2+y,1/2-z
1/2-y,1/2-x,1/2+z
1/2+y,1/2+x,1/2+z
loop_
_atom_site_type_symbol
_atom_site_label
_atom_site_fract_x
_atom_site_fract_y
_atom_site_fract_z
Si Si1 0.738146 0.261855 0.551783
Si Si2 0.111269 0.398341 0.032848
Si Si3 0.633650 0.925705 0.718875
Si Si4 0.845022 0.845022 0.781879
Si Si5 0.094993 0.905008 0.554100
Si Si6 0.000000 0.000000 0.708199
O O1 0.793000 0.344456 0.497502
O O2 0.681026 0.318975 0.625130
O O3 0.821721 0.178280 0.574169
O O4 0.108978 0.393425 0.128674
O O5 0.169317 0.500000 0.000000
O O6 0.000000 0.403912 0.000000
O O7 0.548105 0.872833 0.775152
O O8 0.743509 0.884545 0.740067
O O9 0.931019 0.931019 0.768431
O O10 0.000000 0.862734 0.500000
O O11 0.066739 0.933262 0.646428
#
# Coordination Sequence:
#
# PCOD8311664 Si02
#       6
#     8  16  16   8   8   4
#     4  12  24  41  68 100 130 182 234 270 346 424
#     4  11  23  41  65  94 134 173 219 280 338 408
#     4  11  24  43  67  99 137 178 235 292 354 423
#     4  12  27  41  68  99 139 187 232 296 359 423
#     4   9  22  40  71 106 141 172 226 304 363 410
#     4  10  27  44  62 102 145 178 226 292 368 419
#
# _framework density 20.960191999999999
#
# number of rings (size 3 to 8) (size 9 to 14) (size 15 to 20)
#    0.000    1.200    0.000    8.000   14.933    0.000 
#    0.000    4.000    0.000    0.000    0.000    0.000 
#    0.000    0.000    0.000    0.000    0.000    0.000 
#
# Total GULP energy -371813.072143 kJ/mol
# GULP energy per Si atom -12393.769071 kJ/mol
# Density = 2.091249 g / cm^3
# Si number density = 20.960192 Si / 1000 Ang^3
#
#
#
# Elastic Constant Matrix: (Units=GPa)
#
#
# Indices 1 2 3 4 5 6 
#
# 1 119.5546 86.0764 58.2949 0.0000 0.0000 0.0000
# 2 86.0764 119.5541 58.2957 0.0000 0.0000 0.0000
# 3 58.2949 58.2957 161.4867 0.0000 0.0000 0.0000
# 4 0.0000 0.0000 0.0000 30.9653 0.0000 0.0000
# 5 0.0000 0.0000 0.0000 0.0000 30.9695 0.0000
# 6 0.0000 0.0000 0.0000 0.0000 0.0000 44.4591
#
#
#
# Elastic Compliance Matrix: (Units=1/GPa)
#
#
# Indices 1 2 3 4 5 6 
#
# 1 0.017992 -0.011878 -0.002207 0.000000 0.000000 0.000000
# 2 -0.011878 0.017993 -0.002207 0.000000 0.000000 0.000000
# 3 -0.002207 -0.002207 0.007786 0.000000 0.000000 0.000000
# 4 0.000000 0.000000 0.000000 0.032294 0.000000 0.000000
# 5 0.000000 0.000000 0.000000 0.000000 0.032290 0.000000
# 6 0.000000 0.000000 0.000000 0.000000 0.000000 0.022493
#
#
# Mechanical properties :
#
#
# Convention : Reuss Voigt Hill
#
# Bulk Modulus (GPa) = 89.39705 89.54769 89.47237
# Shear Modulus (GPa) = 29.91118 34.47399 32.19259
#
# Velocity S-wave (km/s) = 3.78173 4.05993 3.92330
# Velocity P-wave (km/s) = 7.86207 8.04940 7.95629
#
# Compressibility (1/GPa) = 0.01118605
#
# Stress axis : x y z
#
# Youngs Moduli (GPa) = 55.57902 55.57841 128.43384
#
# Poissons Ratio (x) = 0.66015 0.28348
# Poissons Ratio (y) = 0.66016 0.28351
# Poissons Ratio (z) = 0.12267 0.12269
#
# Static dielectric constant tensor:
#      x y z
#    x 3.291730 0.000000 0.000000 
#    y 0.000000 3.291110 0.000000 
#    z 0.000000 0.000000 4.164130 
# 
# 
# High freq. dielectric constant tensor:
#      x y z
#    x 1.828410 0.000000 0.000000 
#    y 0.000000 1.828410 0.000000 
#    z 0.000000 0.000000 1.823930 
# 
# From -- ./inp_files/4122.got.cif
#   From: 2010.03.12/outbox.cif.g09.slc.cpg/sg121_3_cif.got.tgz:4122.got - 2010.04.06 16:06:48.
