data_PCOD8311174
_publ_section_title
;
Structure prediction by ZEFSAII (Michael W. Deem and Ramdas Pophale) SiO2 
 PCOD8311174
Probable space group: I -4 C 2
;
_chemical_formula_sum "Si O2"
_cell_formula_units_Z 88
_cell_length_a 13.961552
_cell_length_b 13.961552
_cell_length_c 20.309741
_cell_angle_alpha 90.000000
_cell_angle_beta 90.000000
_cell_angle_gamma 90.000000
_cell_volume 3958.874929
_symmetry_space_group_name_H-M "I -4 C 2"
_symmetry_group_IT_number 120
_symmetry_cell_setting 'tetragonal'
loop_
_space_group_symop_operation_xyz
x,y,z
y,-x,-z
-x,-y,z
-y,x,-z
y,x,1/2-z
-y,-x,1/2-z
-x,y,1/2+z
x,-y,1/2+z
1/2+x,1/2+y,1/2+z
1/2+y,1/2-x,1/2-z
1/2-x,1/2-y,1/2+z
1/2-y,1/2+x,1/2-z
1/2+y,1/2+x,-z
1/2-y,1/2-x,-z
1/2-x,1/2+y,z
1/2+x,1/2-y,z
loop_
_atom_site_type_symbol
_atom_site_label
_atom_site_fract_x
_atom_site_fract_y
_atom_site_fract_z
Si Si1 0.049661 0.795924 0.767114
Si Si2 0.344779 0.655222 0.750000
Si Si3 0.783014 0.338973 0.569814
Si Si4 0.848990 0.962312 0.495503
Si Si5 0.031429 0.295626 0.125958
Si Si6 0.181752 0.323137 0.356860
O O1 0.115304 0.884697 0.750000
O O2 0.038173 0.736394 0.700858
O O3 0.090840 0.732021 0.826906
O O4 0.945551 0.835425 0.788718
O O5 0.333811 0.737558 0.697744
O O6 0.830885 0.330885 0.500000
O O7 0.709398 0.427103 0.560785
O O8 0.874050 0.362902 0.617302
O O9 0.736012 0.235323 0.586056
O O10 0.791158 0.965130 0.426761
O O11 0.934295 0.887054 0.484059
O O12 0.929005 0.350043 0.117305
#
# Coordination Sequence:
#
# PCOD8311174 Si02
#       6
#    16   8  16  16  16  16
#     4  11  21  38  60  95 132 170 222 285 348 417
#     4  10  23  36  62  93 122 174 224 276 344 421
#     4  10  20  37  59  90 132 176 222 289 350 429
#     4  10  20  36  60 101 140 182 235 302 365 426
#     4  10  21  37  63  94 127 179 238 272 354 442
#     4  11  20  41  62  90 133 176 222 283 355 422
#
# _framework density 22.228536999999999
#
# number of rings (size 3 to 8) (size 9 to 14) (size 15 to 20)
#    0.000    1.636    4.545    0.273    0.000    1.455 
#    3.273    0.000    0.000   18.545    0.000    5.091 
#    0.000    0.000    0.000    0.000    0.000    0.000 
#
# Total GULP energy -545156.471408 kJ/mol
# GULP energy per Si atom -12389.919805 kJ/mol
# Density = 2.217794 g / cm^3
# Si number density = 22.228537 Si / 1000 Ang^3
#
#
#
# Elastic Constant Matrix: (Units=GPa)
#
#
# Indices 1 2 3 4 5 6 
#
# 1 92.2873 76.2028 9.9675 0.0000 0.0000 0.0000
# 2 76.2028 92.2934 9.9736 0.0000 0.0000 0.0000
# 3 9.9675 9.9736 48.4042 0.0000 0.0000 0.0000
# 4 0.0000 0.0000 0.0000 23.7191 0.0000 0.0000
# 5 0.0000 0.0000 0.0000 0.0000 23.7187 0.0000
# 6 0.0000 0.0000 0.0000 0.0000 0.0000 31.9020
#
#
#
# Elastic Compliance Matrix: (Units=1/GPa)
#
#
# Indices 1 2 3 4 5 6 
#
# 1 0.034122 -0.028038 -0.001249 0.000000 0.000000 0.000000
# 2 -0.028038 0.034121 -0.001257 0.000000 0.000000 0.000000
# 3 -0.001249 -0.001257 0.021176 0.000000 0.000000 0.000000
# 4 0.000000 0.000000 0.000000 0.042160 0.000000 0.000000
# 5 0.000000 0.000000 0.000000 0.000000 0.042161 0.000000
# 6 0.000000 0.000000 0.000000 0.000000 0.000000 0.031346
#
#
# Mechanical properties :
#
#
# Convention : Reuss Voigt Hill
#
# Bulk Modulus (GPa) = 35.29844 47.25250 41.27547
# Shear Modulus (GPa) = 18.14109 24.99070 21.56589
#
# Velocity S-wave (km/s) = 2.85988 3.35664 3.11817
# Velocity P-wave (km/s) = 5.17875 6.02714 5.61898
#
# Compressibility (1/GPa) = 0.02832987
#
# Stress axis : x y z
#
# Youngs Moduli (GPa) = 29.30649 29.30766 47.22422
#
# Poissons Ratio (x) = 0.82173 0.05900
# Poissons Ratio (y) = 0.82170 0.05935
# Poissons Ratio (z) = 0.03661 0.03683
#
# Static dielectric constant tensor:
#      x y z
#    x 4.845050 0.000000 0.000000 
#    y 0.000000 4.845010 0.000000 
#    z 0.000000 0.000000 3.348080 
# 
# 
# High freq. dielectric constant tensor:
#      x y z
#    x 1.870990 0.000000 0.000000 
#    y 0.000000 1.870990 0.000000 
#    z 0.000000 0.000000 1.875830 
# 
# From -- ./inp_files/5258.got.cif
#   From: 2010.03.12/outbox.cif.g09.slc.cpg/sg120_3_cif.got.tgz:5258.got - 2010.04.06 16:00:44.
