data_PCOD8311715
_publ_section_title
;
Structure prediction by ZEFSAII (Michael W. Deem and Ramdas Pophale) SiO2 
 PCOD8311715
Probable space group: I -4 2 M
;
_chemical_formula_sum "Si O2"
_cell_formula_units_Z 64
_cell_length_a 10.325725
_cell_length_b 10.325725
_cell_length_c 28.988751
_cell_angle_alpha 90.000000
_cell_angle_beta 90.000000
_cell_angle_gamma 90.000000
_cell_volume 3090.797931
_symmetry_space_group_name_H-M "I -4 2 M"
_symmetry_group_IT_number 121
_symmetry_cell_setting 'tetragonal'
loop_
_space_group_symop_operation_xyz
x,y,z
y,-x,-z
-x,-y,z
-y,x,-z
x,-y,-z
-x,y,-z
-y,-x,z
y,x,z
1/2+x,1/2+y,1/2+z
1/2+y,1/2-x,1/2-z
1/2-x,1/2-y,1/2+z
1/2-y,1/2+x,1/2-z
1/2+x,1/2-y,1/2-z
1/2-x,1/2+y,1/2-z
1/2-y,1/2-x,1/2+z
1/2+y,1/2+x,1/2+z
loop_
_atom_site_type_symbol
_atom_site_label
_atom_site_fract_x
_atom_site_fract_y
_atom_site_fract_z
Si Si1 0.175180 0.393497 0.136388
Si Si2 0.491138 0.290046 0.323431
Si Si3 0.506738 0.708847 0.778336
Si Si4 0.993379 0.788475 0.449232
O O1 0.289763 0.289763 0.136413
O O2 0.036395 0.320108 0.140266
O O3 0.187530 0.487717 0.180720
O O4 0.179915 0.477303 0.089470
O O5 0.598710 0.401291 0.319438
O O6 0.355310 0.355310 0.339451
O O7 0.480199 0.227818 0.272017
O O8 0.407780 0.592221 0.785856
O O9 0.652985 0.652985 0.781893
O O10 0.098969 0.901032 0.447357
O O11 0.000000 0.722785 0.500000
O O12 0.852576 0.852576 0.439854
#
# Coordination Sequence:
#
# PCOD8311715 Si02
#       4
#    16  16  16  16
#     4   9  14  20  34  52  72 112 159 187 223 276
#     4   8  14  23  33  49  76 109 147 191 233 273
#     4   8  13  21  33  50  73 104 148 195 227 260
#     4   8  13  20  30  49  80 115 153 196 232 266
#
# _framework density 20.706627000000001
#
# number of rings (size 3 to 8) (size 9 to 14) (size 15 to 20)
#    0.000    3.750    0.000    3.000    0.000    3.000 
#    0.000    0.000    0.000    0.750    0.000    0.000 
#    0.000    0.000    0.000   11.250    0.000  189.750 
#
# Total GULP energy -396466.682170 kJ/mol
# GULP energy per Si atom -12389.583818 kJ/mol
# Density = 2.065950 g / cm^3
# Si number density = 20.706627 Si / 1000 Ang^3
#
#
#
# Elastic Constant Matrix: (Units=GPa)
#
#
# Indices 1 2 3 4 5 6 
#
# 1 46.0257 37.5473 60.4883 0.0000 0.0000 0.0000
# 2 37.5473 46.0258 60.4883 0.0000 0.0000 0.0000
# 3 60.4883 60.4883 170.1791 0.0000 0.0000 0.0000
# 4 0.0000 0.0000 0.0000 15.3577 0.0000 0.0000
# 5 0.0000 0.0000 0.0000 0.0000 15.3576 0.0000
# 6 0.0000 0.0000 0.0000 0.0000 0.0000 24.6265
#
#
#
# Elastic Compliance Matrix: (Units=1/GPa)
#
#
# Indices 1 2 3 4 5 6 
#
# 1 0.071297 -0.046650 -0.008760 0.000000 0.000000 0.000000
# 2 -0.046650 0.071297 -0.008760 0.000000 0.000000 0.000000
# 3 -0.008760 -0.008760 0.012104 0.000000 0.000000 0.000000
# 4 0.000000 0.000000 0.000000 0.065114 0.000000 0.000000
# 5 0.000000 0.000000 0.000000 0.000000 0.065114 0.000000
# 6 0.000000 0.000000 0.000000 0.000000 0.000000 0.040607
#
#
# Mechanical properties :
#
#
# Convention : Reuss Voigt Hill
#
# Bulk Modulus (GPa) = 37.94259 64.36429 51.15344
# Shear Modulus (GPa) = 10.80709 17.98213 14.39461
#
# Velocity S-wave (km/s) = 2.28702 2.95010 2.63947
# Velocity P-wave (km/s) = 5.03365 6.53877 5.83494
#
# Compressibility (1/GPa) = 0.02635561
#
# Stress axis : x y z
#
# Youngs Moduli (GPa) = 14.02586 14.02589 82.61894
#
# Poissons Ratio (x) = 0.65431 0.72378
# Poissons Ratio (y) = 0.65431 0.72378
# Poissons Ratio (z) = 0.12287 0.12287
#
# Static dielectric constant tensor:
#      x y z
#    x 3.545130 0.000000 0.000000 
#    y 0.000000 3.545130 0.000000 
#    z 0.000000 0.000000 3.969420 
# 
# 
# High freq. dielectric constant tensor:
#      x y z
#    x 1.778720 0.000000 0.000000 
#    y 0.000000 1.778720 0.000000 
#    z 0.000000 0.000000 1.789000 
# 
# From -- ./inp_files/6910.got.cif
#   From: 2010.03.12/outbox.cif.g09.slc.cpg/sg121_4_cif.got.tgz:6910.got - 2010.04.06 16:06:48.
