data_PCOD8311821
_publ_section_title
;
Structure prediction by ZEFSAII (Michael W. Deem and Ramdas Pophale) SiO2 
 PCOD8311821
Probable space group: I -4 2 D
;
_chemical_formula_sum "Si O2"
_cell_formula_units_Z 80
_cell_length_a 17.260731
_cell_length_b 17.260731
_cell_length_c 12.849248
_cell_angle_alpha 90.000000
_cell_angle_beta 90.000000
_cell_angle_gamma 90.000000
_cell_volume 3828.212880
_symmetry_space_group_name_H-M "I -4 2 D"
_symmetry_group_IT_number 122
_symmetry_cell_setting 'tetragonal'
loop_
_space_group_symop_operation_xyz
x,y,z
y,-x,-z
-x,-y,z
-y,x,-z
x,1/2-y,1/4-z
-x,1/2+y,1/4-z
-y,1/2-x,1/4+z
y,1/2+x,1/4+z
1/2+x,1/2+y,1/2+z
1/2+y,1/2-x,1/2-z
1/2-x,1/2-y,1/2+z
1/2-y,1/2+x,1/2-z
1/2+x,-y,3/4-z
1/2-x,y,3/4-z
1/2-y,-x,3/4+z
1/2+y,x,3/4+z
loop_
_atom_site_type_symbol
_atom_site_label
_atom_site_fract_x
_atom_site_fract_y
_atom_site_fract_z
Si Si1 0.662677 0.903038 0.514690
Si Si2 0.908812 0.073529 0.975282
Si Si3 0.161772 0.961169 0.394181
Si Si4 0.949787 0.321232 0.844075
Si Si5 0.257873 0.931858 0.997132
O O1 0.616293 0.924623 0.617734
O O2 0.754685 0.900704 0.534742
O O3 0.637237 0.817597 0.477244
O O4 0.640114 0.966364 0.428733
O O5 0.828001 0.096799 0.032156
O O6 0.980873 0.093604 0.050098
O O7 0.250000 0.934410 0.375000
O O8 0.106214 0.889405 0.367964
O O9 0.147849 0.985148 0.514105
O O10 0.990451 0.284174 0.944666
O O11 0.250000 0.951066 0.875000
#
# Coordination Sequence:
#
# PCOD8311821 Si02
#       5
#    16  16  16  16  16
#     4  10  22  41  64  92 132 167 216 274 329 391
#     4  10  20  37  63  93 129 170 206 261 335 406
#     4  10  24  42  66  92 124 174 225 266 321 387
#     4  11  22  44  63  94 129 171 227 274 321 396
#     4  10  22  39  62  98 131 169 213 269 338 400
#
# _framework density 20.897479000000001
#
# number of rings (size 3 to 8) (size 9 to 14) (size 15 to 20)
#    0.000    1.800    2.000    1.200    0.000   11.600 
#    0.000    0.000    0.000    0.000    0.000    0.000 
#    0.000    0.000    0.000    0.000    0.000    0.000 
#
# Total GULP energy -495919.336353 kJ/mol
# GULP energy per Si atom -12397.983409 kJ/mol
# Density = 2.084992 g / cm^3
# Si number density = 20.897479 Si / 1000 Ang^3
#
#
#
# Elastic Constant Matrix: (Units=GPa)
#
#
# Indices 1 2 3 4 5 6 
#
# 1 114.7286 44.2852 31.8017 0.0000 0.0000 0.0000
# 2 44.2852 114.7286 31.8017 0.0000 0.0000 0.0000
# 3 31.8017 31.8017 70.9984 0.0000 0.0000 0.0000
# 4 0.0000 0.0000 0.0000 32.6541 0.0000 0.0000
# 5 0.0000 0.0000 0.0000 0.0000 32.6541 0.0000
# 6 0.0000 0.0000 0.0000 0.0000 0.0000 38.0862
#
#
#
# Elastic Compliance Matrix: (Units=1/GPa)
#
#
# Indices 1 2 3 4 5 6 
#
# 1 0.010929 -0.003267 -0.003432 0.000000 0.000000 0.000000
# 2 -0.003267 0.010929 -0.003432 0.000000 0.000000 0.000000
# 3 -0.003432 -0.003432 0.017159 0.000000 0.000000 0.000000
# 4 0.000000 0.000000 0.000000 0.030624 0.000000 0.000000
# 5 0.000000 0.000000 0.000000 0.000000 0.030624 0.000000
# 6 0.000000 0.000000 0.000000 0.000000 0.000000 0.026256
#
#
# Mechanical properties :
#
#
# Convention : Reuss Voigt Hill
#
# Bulk Modulus (GPa) = 53.31890 57.35919 55.33905
# Shear Modulus (GPa) = 32.67260 33.51668 33.09464
#
# Velocity S-wave (km/s) = 3.95836 4.00917 3.98385
# Velocity P-wave (km/s) = 6.81626 6.99562 6.90653
#
# Compressibility (1/GPa) = 0.01875508
#
# Stress axis : x y z
#
# Youngs Moduli (GPa) = 91.50311 91.50311 58.27814
#
# Poissons Ratio (x) = 0.29896 0.19999
# Poissons Ratio (y) = 0.29896 0.19999
# Poissons Ratio (z) = 0.31401 0.31401
#
# Static dielectric constant tensor:
#      x y z
#    x 4.033060 0.000000 0.000000 
#    y 0.000000 4.033060 0.000000 
#    z 0.000000 0.000000 3.664380 
# 
# 
# High freq. dielectric constant tensor:
#      x y z
#    x 1.821050 0.000000 0.000000 
#    y 0.000000 1.821050 0.000000 
#    z 0.000000 0.000000 1.808780 
# 
# From -- ./inp_files/5264.got.cif
#   From: 2010.03.12/outbox.cif.g09.slc.cpg/sg122_3_cif.got.tgz:5264.got - 2010.04.06 16:17:16.
