data_PCOD8311014
_publ_section_title
;
Structure prediction by ZEFSAII (Michael W. Deem and Ramdas Pophale) SiO2 
 PCOD8311014
Probable space group: I -4 M 2
;
_chemical_formula_sum "Si O2"
_cell_formula_units_Z 96
_cell_length_a 24.185633
_cell_length_b 24.185633
_cell_length_c 8.422254
_cell_angle_alpha 90.000000
_cell_angle_beta 90.000000
_cell_angle_gamma 90.000000
_cell_volume 4926.554049
_symmetry_space_group_name_H-M "I -4 M 2"
_symmetry_group_IT_number 119
_symmetry_cell_setting 'tetragonal'
loop_
_space_group_symop_operation_xyz
x,y,z
y,-x,-z
-x,-y,z
-y,x,-z
y,x,-z
-y,-x,-z
-x,y,z
x,-y,z
1/2+x,1/2+y,1/2+z
1/2+y,1/2-x,1/2-z
1/2-x,1/2-y,1/2+z
1/2-y,1/2+x,1/2-z
1/2+y,1/2+x,1/2-z
1/2-y,1/2-x,1/2-z
1/2-x,1/2+y,1/2+z
1/2+x,1/2-y,1/2+z
loop_
_atom_site_type_symbol
_atom_site_label
_atom_site_fract_x
_atom_site_fract_y
_atom_site_fract_z
Si Si1 0.274941 0.939025 0.093858
Si Si2 0.137053 0.436474 0.856324
Si Si3 0.064115 0.937210 0.685271
Si Si4 0.243893 0.810753 0.360861
Si Si5 0.831828 0.885167 0.145770
Si Si6 0.341140 0.151966 0.932984
O O1 0.304295 0.928094 0.264563
O O2 0.207488 0.936340 0.096695
O O3 0.290754 0.000000 0.034893
O O4 0.297740 0.896843 0.963304
O O5 0.125262 0.500000 0.894779
O O6 0.087415 0.412586 0.750000
O O7 0.135846 0.404509 0.026065
O O8 0.073734 0.926267 0.500000
O O9 0.097432 0.890983 0.782020
O O10 0.000000 0.931703 0.729225
O O11 0.084091 0.000000 0.728874
O O12 0.202975 0.797026 0.500000
O O13 0.257977 0.757977 0.250000
O O14 0.210377 0.855916 0.264490
O O15 0.300675 0.830216 0.438654
O O16 0.844511 0.844511 0.000000
O O17 0.332209 0.167792 0.750000
#
# Coordination Sequence:
#
# PCOD8311014 Si02
#       6
#    16  16  16  16  16  16
#     4  10  21  40  61  86 122 165 208 255 306 370
#     4   9  18  37  62  88 120 162 209 253 304 370
#     4   9  20  42  67  89 121 164 207 255 312 371
#     4  12  23  39  60  87 123 161 206 251 304 372
#     4  12  24  38  62  92 125 162 206 259 313 367
#     4  11  22  38  62  89 129 169 204 256 316 369
#
# _framework density 19.486236999999999
#
# number of rings (size 3 to 8) (size 9 to 14) (size 15 to 20)
#    0.000    1.500    3.333    3.000    2.333    2.167 
#    0.000    0.833    0.000    0.000    0.000    2.333 
#    0.000    0.000    0.000    0.000    0.000    0.000 
#
# Total GULP energy -594811.091549 kJ/mol
# GULP energy per Si atom -12391.897741 kJ/mol
# Density = 1.944189 g / cm^3
# Si number density = 19.486237 Si / 1000 Ang^3
#
#
#
# Elastic Constant Matrix: (Units=GPa)
#
#
# Indices 1 2 3 4 5 6 
#
# 1 122.1413 48.4697 41.0826 0.0000 0.0000 0.0000
# 2 48.4697 122.1377 41.0826 0.0000 0.0000 0.0000
# 3 41.0826 41.0826 92.0877 0.0000 0.0000 0.0000
# 4 0.0000 0.0000 0.0000 18.3386 0.0000 0.0000
# 5 0.0000 0.0000 0.0000 0.0000 18.3399 0.0000
# 6 0.0000 0.0000 0.0000 0.0000 0.0000 29.9923
#
#
#
# Elastic Compliance Matrix: (Units=1/GPa)
#
#
# Indices 1 2 3 4 5 6 
#
# 1 0.010520 -0.003054 -0.003330 0.000000 0.000000 0.000000
# 2 -0.003054 0.010520 -0.003331 0.000000 0.000000 0.000000
# 3 -0.003330 -0.003331 0.013831 0.000000 0.000000 0.000000
# 4 0.000000 0.000000 0.000000 0.054530 0.000000 0.000000
# 5 0.000000 0.000000 0.000000 0.000000 0.054526 0.000000
# 6 0.000000 0.000000 0.000000 0.000000 0.000000 0.033342
#
#
# Mechanical properties :
#
#
# Convention : Reuss Voigt Hill
#
# Bulk Modulus (GPa) = 64.76858 66.40405 65.58632
# Shear Modulus (GPa) = 24.77148 27.04961 25.91054
#
# Velocity S-wave (km/s) = 3.56930 3.72982 3.65044
# Velocity P-wave (km/s) = 7.09202 7.25948 7.17624
#
# Compressibility (1/GPa) = 0.01543958
#
# Stress axis : x y z
#
# Youngs Moduli (GPa) = 95.06149 95.05828 72.30238
#
# Poissons Ratio (x) = 0.29035 0.24079
# Poissons Ratio (y) = 0.29036 0.24080
# Poissons Ratio (z) = 0.31659 0.31659
#
# Static dielectric constant tensor:
#      x y z
#    x 3.691390 0.000000 0.000000 
#    y 0.000000 3.691400 0.000000 
#    z 0.000000 0.000000 3.350320 
# 
# 
# High freq. dielectric constant tensor:
#      x y z
#    x 1.762860 0.000000 0.000000 
#    y 0.000000 1.762860 0.000000 
#    z 0.000000 0.000000 1.744330 
# 
# From -- ./inp_files/2656.got.cif
#   From: 2010.03.12/outbox.cif.g09.slc.cpg/sg119_2_cif.got.tgz:2656.got - 2010.04.14 02:25:26.
