data_PCOD8311027
_publ_section_title
;
Structure prediction by ZEFSAII (Michael W. Deem and Ramdas Pophale) SiO2 
 PCOD8311027
Probable space group: I -4 M 2
;
_chemical_formula_sum "Si O2"
_cell_formula_units_Z 46
_cell_length_a 9.908517
_cell_length_b 9.908517
_cell_length_c 22.148800
_cell_angle_alpha 90.000000
_cell_angle_beta 90.000000
_cell_angle_gamma 90.000000
_cell_volume 2174.540593
_symmetry_space_group_name_H-M "I -4 M 2"
_symmetry_group_IT_number 119
_symmetry_cell_setting 'tetragonal'
loop_
_space_group_symop_operation_xyz
x,y,z
y,-x,-z
-x,-y,z
-y,x,-z
y,x,-z
-y,-x,-z
-x,y,z
x,-y,z
1/2+x,1/2+y,1/2+z
1/2+y,1/2-x,1/2-z
1/2-x,1/2-y,1/2+z
1/2-y,1/2+x,1/2-z
1/2+y,1/2+x,1/2-z
1/2-y,1/2-x,1/2-z
1/2-x,1/2+y,1/2+z
1/2+x,1/2-y,1/2+z
loop_
_atom_site_type_symbol
_atom_site_label
_atom_site_fract_x
_atom_site_fract_y
_atom_site_fract_z
Si Si1 0.000000 0.650578 0.582977
Si Si2 0.000000 0.300993 0.721084
Si Si3 0.210755 0.154343 0.066164
Si Si4 0.500000 0.000000 0.750000
Si Si5 0.745634 0.000000 0.843594
Si Si6 0.500000 0.500000 0.739641
O O1 0.138842 0.718908 0.560298
O O2 0.000000 0.500000 0.556088
O O3 0.000000 0.646932 0.654127
O O4 0.136891 0.363110 0.750000
O O5 0.000000 0.137766 0.721180
O O6 0.129855 0.250982 0.112168
O O7 0.212902 0.000000 0.092047
O O8 0.146686 0.146686 0.000000
O O9 0.376852 0.000000 0.796784
O O10 0.873628 0.000000 0.802522
#
# Coordination Sequence:
#
# PCOD8311027 Si02
#       6
#     8   8  16   2   8   4
#     4  10  22  39  64  99 126 168 218 274 347 402
#     4  11  22  41  64  91 129 169 218 270 326 406
#     4  11  22  42  70 101 133 176 237 298 354 417
#     4  12  36  48  60 108 156 208 228 278 412 448
#     4  12  26  47  69  94 144 184 238 287 347 448
#     4  12  26  38  65  96 127 178 222 278 340 404
#
# _framework density 21.153891000000002
#
# number of rings (size 3 to 8) (size 9 to 14) (size 15 to 20)
#    0.000    0.870    5.217    2.087    7.304    1.391 
#    0.000    1.739    0.000    0.000    0.000    0.000 
#    0.000    0.000    0.000    0.000    0.000    0.000 
#
# Total GULP energy -284993.623896 kJ/mol
# GULP energy per Si atom -12391.027126 kJ/mol
# Density = 2.110574 g / cm^3
# Si number density = 21.153891 Si / 1000 Ang^3
#
#
#
# Elastic Constant Matrix: (Units=GPa)
#
#
# Indices 1 2 3 4 5 6 
#
# 1 149.3241 43.8739 38.8623 0.0000 0.0000 0.0000
# 2 43.8739 149.3253 38.8627 0.0000 0.0000 0.0000
# 3 38.8623 38.8627 96.4004 0.0000 0.0000 0.0000
# 4 0.0000 0.0000 0.0000 -53.4199 0.0000 0.0000
# 5 0.0000 0.0000 0.0000 0.0000 -53.3779 0.0000
# 6 0.0000 0.0000 0.0000 0.0000 0.0000 -9.9887
#
#
#
# Elastic Compliance Matrix: (Units=1/GPa)
#
#
# Indices 1 2 3 4 5 6 
#
# 1 0.007831 -0.001653 -0.002491 0.000000 0.000000 0.000000
# 2 -0.001653 0.007831 -0.002491 0.000000 0.000000 0.000000
# 3 -0.002491 -0.002491 0.012381 0.000000 0.000000 0.000000
# 4 0.000000 0.000000 0.000000 -0.018720 0.000000 0.000000
# 5 0.000000 0.000000 0.000000 0.000000 -0.018734 0.000000
# 6 0.000000 0.000000 0.000000 0.000000 0.000000 -0.100113
#
#
# Mechanical properties :
#
#
# Convention : Reuss Voigt Hill
#
# Bulk Modulus (GPa) = 67.68112 70.91643 69.29878
# Shear Modulus (GPa) = -54.74509 -5.12722 -29.93616
#
# Velocity S-wave (km/s) = -5.09270 -1.55854 -3.76594
# Velocity P-wave (km/s) = 1.58642 5.50982 3.73104
#
# Compressibility (1/GPa) = 0.01477517
#
# Stress axis : x y z
#
# Youngs Moduli (GPa) = 127.70462 127.70548 80.76579
#
# Poissons Ratio (x) = 0.21104 0.20115
# Poissons Ratio (y) = 0.21104 0.20115
# Poissons Ratio (z) = 0.31806 0.31806
#
# Static dielectric constant tensor:
#      x y z
#    x 4.235710 0.000000 0.000000 
#    y 0.000000 4.235840 0.000000 
#    z 0.000000 0.000000 3.765140 
# 
# 
# High freq. dielectric constant tensor:
#      x y z
#    x 1.819980 0.000000 0.000000 
#    y 0.000000 1.819970 0.000000 
#    z 0.000000 0.000000 1.829900 
# 
# From -- ./inp_files/6099.got.cif
#   From: 2010.03.12/outbox.cif.g09.slc.cpg/sg119_4_cif.got.tgz:6099.got - 2010.04.14 02:25:26.
