data_PCOD8311783
_publ_section_title
;
Structure prediction by ZEFSAII (Michael W. Deem and Ramdas Pophale) SiO2 
 PCOD8311783
Probable space group: I -4 2 D
;
_chemical_formula_sum "Si O2"
_cell_formula_units_Z 96
_cell_length_a 23.187523
_cell_length_b 23.187523
_cell_length_c 9.457850
_cell_angle_alpha 90.000000
_cell_angle_beta 90.000000
_cell_angle_gamma 90.000000
_cell_volume 5085.119197
_symmetry_space_group_name_H-M "I -4 2 D"
_symmetry_group_IT_number 122
_symmetry_cell_setting 'tetragonal'
loop_
_space_group_symop_operation_xyz
x,y,z
y,-x,-z
-x,-y,z
-y,x,-z
x,1/2-y,1/4-z
-x,1/2+y,1/4-z
-y,1/2-x,1/4+z
y,1/2+x,1/4+z
1/2+x,1/2+y,1/2+z
1/2+y,1/2-x,1/2-z
1/2-x,1/2-y,1/2+z
1/2-y,1/2+x,1/2-z
1/2+x,-y,3/4-z
1/2-x,y,3/4-z
1/2-y,-x,3/4+z
1/2+y,x,3/4+z
loop_
_atom_site_type_symbol
_atom_site_label
_atom_site_fract_x
_atom_site_fract_y
_atom_site_fract_z
Si Si1 0.077263 0.166978 0.256518
Si Si2 0.799439 0.289894 0.256958
Si Si3 0.993139 0.807857 0.696274
Si Si4 0.091234 0.514172 0.727687
Si Si5 0.376365 0.793483 0.000863
Si Si6 0.918938 0.700872 0.301157
O O1 0.037713 0.118864 0.332063
O O2 0.144276 0.151663 0.281734
O O3 0.065704 0.231306 0.312908
O O4 0.060198 0.168958 0.091511
O O5 0.750000 0.293389 0.375000
O O6 0.855494 0.270097 0.346822
O O7 0.808928 0.351221 0.184571
O O8 0.784278 0.250000 0.125000
O O9 0.968118 0.750000 0.625000
O O10 0.997985 0.857945 0.584402
O O11 0.950630 0.829753 0.818908
O O12 0.055305 0.795560 0.762508
O O13 0.059397 0.453318 0.701884
O O14 0.356534 0.750000 0.125000
#
# Coordination Sequence:
#
# PCOD8311783 Si02
#       6
#    16  16  16  16  16  16
#     4  10  19  40  61  83 123 156 190 248 301 355
#     4  11  22  38  59  89 124 158 195 239 299 362
#     4  11  22  39  62  87 117 156 204 246 294 355
#     4  11  23  41  63  88 117 158 207 253 299 354
#     4  10  21  39  60  87 119 155 193 251 299 347
#     4  10  21  38  61  85 119 163 191 236 309 359
#
# _framework density 18.878612
#
# number of rings (size 3 to 8) (size 9 to 14) (size 15 to 20)
#    0.000    1.500    6.667    0.500    0.000    2.000 
#    9.000    0.000    0.000    2.000    0.000    0.000 
#    0.000    0.000    0.000    0.000    0.000    0.000 
#
# Total GULP energy -595035.432745 kJ/mol
# GULP energy per Si atom -12396.571516 kJ/mol
# Density = 1.883564 g / cm^3
# Si number density = 18.878612 Si / 1000 Ang^3
#
#
#
# Elastic Constant Matrix: (Units=GPa)
#
#
# Indices 1 2 3 4 5 6 
#
# 1 75.3168 17.6041 32.2322 0.0000 0.0000 0.0000
# 2 17.6041 75.3168 32.2322 0.0000 0.0000 0.0000
# 3 32.2322 32.2322 76.1872 0.0000 0.0000 0.0000
# 4 0.0000 0.0000 0.0000 31.8849 0.0000 0.0000
# 5 0.0000 0.0000 0.0000 0.0000 31.8849 0.0000
# 6 0.0000 0.0000 0.0000 0.0000 0.0000 23.1945
#
#
#
# Elastic Compliance Matrix: (Units=1/GPa)
#
#
# Indices 1 2 3 4 5 6 
#
# 1 0.016280 -0.001047 -0.006444 0.000000 0.000000 0.000000
# 2 -0.001047 0.016280 -0.006444 0.000000 0.000000 0.000000
# 3 -0.006444 -0.006444 0.018578 0.000000 0.000000 0.000000
# 4 0.000000 0.000000 0.000000 0.031363 0.000000 0.000000
# 5 0.000000 0.000000 0.000000 0.000000 0.031363 0.000000
# 6 0.000000 0.000000 0.000000 0.000000 0.000000 0.043114
#
#
# Mechanical properties :
#
#
# Convention : Reuss Voigt Hill
#
# Bulk Modulus (GPa) = 42.98104 43.43974 43.21039
# Shear Modulus (GPa) = 25.95984 27.04302 26.50143
#
# Velocity S-wave (km/s) = 3.71225 3.78890 3.75077
# Velocity P-wave (km/s) = 6.41801 6.49623 6.45724
#
# Compressibility (1/GPa) = 0.02326607
#
# Stress axis : x y z
#
# Youngs Moduli (GPa) = 61.42521 61.42521 53.82596
#
# Poissons Ratio (x) = 0.06433 0.34688
# Poissons Ratio (y) = 0.06433 0.34688
# Poissons Ratio (z) = 0.39585 0.39585
#
# Static dielectric constant tensor:
#      x y z
#    x 3.574100 0.000000 0.000000 
#    y 0.000000 3.574100 0.000000 
#    z 0.000000 0.000000 3.628800 
# 
# 
# High freq. dielectric constant tensor:
#      x y z
#    x 1.732290 0.000000 0.000000 
#    y 0.000000 1.732290 0.000000 
#    z 0.000000 0.000000 1.732380 
# 
# From -- ./inp_files/2898.got.cif
#   From: 2010.03.12/outbox.cif.g09.slc.cpg/sg122_2_cif.got.tgz:2898.got - 2010.04.06 16:17:16.
