data_PCOD8311995
_publ_section_title
;
Structure prediction by ZEFSAII (Michael W. Deem and Ramdas Pophale) SiO2 
 PCOD8311995
Probable space group: I -4 2 D
;
_chemical_formula_sum "Si O2"
_cell_formula_units_Z 80
_cell_length_a 14.532185
_cell_length_b 14.532185
_cell_length_c 18.599124
_cell_angle_alpha 90.000000
_cell_angle_beta 90.000000
_cell_angle_gamma 90.000000
_cell_volume 3927.844859
_symmetry_space_group_name_H-M "I -4 2 D"
_symmetry_group_IT_number 122
_symmetry_cell_setting 'tetragonal'
loop_
_space_group_symop_operation_xyz
x,y,z
y,-x,-z
-x,-y,z
-y,x,-z
x,1/2-y,1/4-z
-x,1/2+y,1/4-z
-y,1/2-x,1/4+z
y,1/2+x,1/4+z
1/2+x,1/2+y,1/2+z
1/2+y,1/2-x,1/2-z
1/2-x,1/2-y,1/2+z
1/2-y,1/2+x,1/2-z
1/2+x,-y,3/4-z
1/2-x,y,3/4-z
1/2-y,-x,3/4+z
1/2+y,x,3/4+z
loop_
_atom_site_type_symbol
_atom_site_label
_atom_site_fract_x
_atom_site_fract_y
_atom_site_fract_z
Si Si1 0.033055 0.127785 0.028743
Si Si2 0.572244 0.686926 0.781818
Si Si3 0.095908 0.739599 0.708423
Si Si4 0.730137 0.075705 0.192754
Si Si5 0.404740 0.052593 0.925215
O O1 0.978883 0.148122 0.102674
O O2 0.092530 0.212761 0.000949
O O3 0.959156 0.102710 0.965116
O O4 0.661259 0.626743 0.761623
O O5 0.550820 0.686397 0.866131
O O6 0.480169 0.650187 0.745022
O O7 0.069460 0.750000 0.625000
O O8 0.179582 0.668024 0.720696
O O9 0.006022 0.707736 0.751905
O O10 0.838131 0.091477 0.181842
O O11 0.500000 0.000000 0.926244
#
# Coordination Sequence:
#
# PCOD8311995 Si02
#       5
#    16  16  16  16  16
#     4  11  21  37  62  95 135 170 205 262 333 405
#     4  11  24  40  67  98 131 172 219 267 335 407
#     4  10  25  45  68  96 130 175 229 278 332 390
#     4  11  24  47  66  95 135 172 226 282 325 393
#     4  12  22  41  66  93 134 172 215 271 334 395
#
# _framework density 20.367404000000001
#
# number of rings (size 3 to 8) (size 9 to 14) (size 15 to 20)
#    0.000    1.000    6.000    0.600    2.800    3.600 
#    0.000    2.000    0.000    0.000    0.000    0.000 
#    0.000    0.000    0.000    0.000    0.000    0.000 
#
# Total GULP energy -495973.811870 kJ/mol
# GULP energy per Si atom -12399.345297 kJ/mol
# Density = 2.032105 g / cm^3
# Si number density = 20.367404 Si / 1000 Ang^3
#
#
#
# Elastic Constant Matrix: (Units=GPa)
#
#
# Indices 1 2 3 4 5 6 
#
# 1 81.3755 28.2501 50.0640 0.0000 0.0000 0.0000
# 2 28.2501 81.3755 50.0640 0.0000 0.0000 0.0000
# 3 50.0640 50.0640 94.7518 0.0000 0.0000 0.0000
# 4 0.0000 0.0000 0.0000 34.6476 0.0000 0.0000
# 5 0.0000 0.0000 0.0000 0.0000 34.6476 0.0000
# 6 0.0000 0.0000 0.0000 0.0000 0.0000 36.5055
#
#
#
# Elastic Compliance Matrix: (Units=1/GPa)
#
#
# Indices 1 2 3 4 5 6 
#
# 1 0.018227 -0.000597 -0.009315 0.000000 0.000000 0.000000
# 2 -0.000597 0.018227 -0.009315 0.000000 0.000000 0.000000
# 3 -0.009315 -0.009315 0.020398 0.000000 0.000000 0.000000
# 4 0.000000 0.000000 0.000000 0.028862 0.000000 0.000000
# 5 0.000000 0.000000 0.000000 0.000000 0.028862 0.000000
# 6 0.000000 0.000000 0.000000 0.000000 0.000000 0.027393
#
#
# Mechanical properties :
#
#
# Convention : Reuss Voigt Hill
#
# Bulk Modulus (GPa) = 54.35666 57.13990 55.74828
# Shear Modulus (GPa) = 26.80174 29.76843 28.28509
#
# Velocity S-wave (km/s) = 3.63149 3.82720 3.73063
# Velocity P-wave (km/s) = 6.65805 6.90257 6.78141
#
# Compressibility (1/GPa) = 0.01839701
#
# Stress axis : x y z
#
# Youngs Moduli (GPa) = 54.86437 54.86437 49.02519
#
# Poissons Ratio (x) = 0.03273 0.45668
# Poissons Ratio (y) = 0.03273 0.45668
# Poissons Ratio (z) = 0.51107 0.51107
#
# Static dielectric constant tensor:
#      x y z
#    x 3.706690 0.000000 0.000000 
#    y 0.000000 3.706690 0.000000 
#    z 0.000000 0.000000 3.949700 
# 
# 
# High freq. dielectric constant tensor:
#      x y z
#    x 1.795380 0.000000 0.000000 
#    y 0.000000 1.795380 0.000000 
#    z 0.000000 0.000000 1.799590 
# 
# From -- ./inp_files/7056.got.cif
#   From: 2010.03.12/outbox.cif.g09.slc.cpg/sg122_4_cif.got.tgz:7056.got - 2010.04.06 16:17:16.
