data_PCOD8311332
_publ_section_title
;
Structure prediction by ZEFSAII (Michael W. Deem and Ramdas Pophale) SiO2 
 PCOD8311332
Probable space group: I -4 C 2
;
_chemical_formula_sum "Si O2"
_cell_formula_units_Z 64
_cell_length_a 12.007495
_cell_length_b 12.007495
_cell_length_c 18.952649
_cell_angle_alpha 90.000000
_cell_angle_beta 90.000000
_cell_angle_gamma 90.000000
_cell_volume 2732.591723
_symmetry_space_group_name_H-M "I -4 C 2"
_symmetry_group_IT_number 120
_symmetry_cell_setting 'tetragonal'
loop_
_space_group_symop_operation_xyz
x,y,z
y,-x,-z
-x,-y,z
-y,x,-z
y,x,1/2-z
-y,-x,1/2-z
-x,y,1/2+z
x,-y,1/2+z
1/2+x,1/2+y,1/2+z
1/2+y,1/2-x,1/2-z
1/2-x,1/2-y,1/2+z
1/2-y,1/2+x,1/2-z
1/2+y,1/2+x,-z
1/2-y,1/2-x,-z
1/2-x,1/2+y,z
1/2+x,1/2-y,z
loop_
_atom_site_type_symbol
_atom_site_label
_atom_site_fract_x
_atom_site_fract_y
_atom_site_fract_z
Si Si1 0.236045 0.432930 0.341626
Si Si2 0.502013 0.180663 0.511342
Si Si3 0.122604 0.030461 0.599588
Si Si4 0.404541 0.254352 0.787859
O O1 0.214422 0.513663 0.407367
O O2 0.349266 0.367068 0.362171
O O3 0.237005 0.498451 0.268501
O O4 0.127850 0.353327 0.333546
O O5 0.623990 0.123990 0.500000
O O6 0.483086 0.290125 0.464171
O O7 0.405511 0.094490 0.500000
O O8 0.147795 0.940475 0.659700
O O9 0.000000 0.000000 0.570880
O O10 0.291150 0.291150 0.750000
#
# Coordination Sequence:
#
# PCOD8311332 Si02
#       4
#    16  16  16  16
#     4  12  29  45  80 113 152 204 251 323 388 463
#     4  11  28  52  77 111 152 202 261 317 383 463
#     4  12  27  50  78 111 156 202 258 321 386 464
#     4  12  26  49  75 114 152 200 258 315 385 467
#
# _framework density 23.420988999999999
#
# number of rings (size 3 to 8) (size 9 to 14) (size 15 to 20)
#    0.000    0.250    5.000    2.250   10.500    1.500 
#    0.000    0.000    0.000    0.000    0.000    0.000 
#    0.000    0.000    0.000    0.000    0.000    0.000 
#
# Total GULP energy -396757.991971 kJ/mol
# GULP energy per Si atom -12398.687249 kJ/mol
# Density = 2.336768 g / cm^3
# Si number density = 23.420989 Si / 1000 Ang^3
#
#
#
# Elastic Constant Matrix: (Units=GPa)
#
#
# Indices 1 2 3 4 5 6 
#
# 1 127.2701 63.9253 62.3290 0.0000 0.0000 0.0000
# 2 63.9253 127.2739 62.3318 0.0000 0.0000 0.0000
# 3 62.3290 62.3318 156.3399 0.0000 0.0000 0.0000
# 4 0.0000 0.0000 0.0000 46.1197 0.0000 0.0000
# 5 0.0000 0.0000 0.0000 0.0000 46.1247 0.0000
# 6 0.0000 0.0000 0.0000 0.0000 0.0000 39.9440
#
#
#
# Elastic Compliance Matrix: (Units=1/GPa)
#
#
# Indices 1 2 3 4 5 6 
#
# 1 0.011427 -0.004359 -0.002818 0.000000 0.000000 0.000000
# 2 -0.004359 0.011427 -0.002818 0.000000 0.000000 0.000000
# 3 -0.002818 -0.002818 0.008643 0.000000 0.000000 0.000000
# 4 0.000000 0.000000 0.000000 0.021683 0.000000 0.000000
# 5 0.000000 0.000000 0.000000 0.000000 0.021680 0.000000
# 6 0.000000 0.000000 0.000000 0.000000 0.000000 0.025035
#
#
# Mechanical properties :
#
#
# Convention : Reuss Voigt Hill
#
# Bulk Modulus (GPa) = 86.90291 87.56180 87.23235
# Shear Modulus (GPa) = 40.41398 41.25755 40.83576
#
# Velocity S-wave (km/s) = 4.15847 4.20165 4.18012
# Velocity P-wave (km/s) = 7.76160 7.81061 7.78615
#
# Compressibility (1/GPa) = 0.01150709
#
# Stress axis : x y z
#
# Youngs Moduli (GPa) = 87.51347 87.51491 115.70046
#
# Poissons Ratio (x) = 0.38152 0.32599
# Poissons Ratio (y) = 0.38151 0.32601
# Poissons Ratio (z) = 0.24657 0.24659
#
# Static dielectric constant tensor:
#      x y z
#    x 4.214640 0.000000 0.000000 
#    y 0.000000 4.214650 0.000000 
#    z 0.000000 0.000000 4.515430 
# 
# 
# High freq. dielectric constant tensor:
#      x y z
#    x 1.929790 0.000000 0.000000 
#    y 0.000000 1.929790 0.000000 
#    z 0.000000 0.000000 1.952380 
# 
# From -- ./inp_files/5007.got.cif
#   From: 2010.03.12/outbox.cif.g09.slc.cpg/sg120_3_cif.got.tgz:5007.got - 2010.04.06 16:00:44.
