data_PCOD8311064
_publ_section_title
;
Structure prediction by ZEFSAII (Michael W. Deem and Ramdas Pophale) SiO2 
 PCOD8311064
Probable space group: I -4 M 2
;
_chemical_formula_sum "Si O2"
_cell_formula_units_Z 64
_cell_length_a 14.119443
_cell_length_b 14.119443
_cell_length_c 17.811787
_cell_angle_alpha 90.000000
_cell_angle_beta 90.000000
_cell_angle_gamma 90.000000
_cell_volume 3550.934178
_symmetry_space_group_name_H-M "I -4 M 2"
_symmetry_group_IT_number 119
_symmetry_cell_setting 'tetragonal'
loop_
_space_group_symop_operation_xyz
x,y,z
y,-x,-z
-x,-y,z
-y,x,-z
y,x,-z
-y,-x,-z
-x,y,z
x,-y,z
1/2+x,1/2+y,1/2+z
1/2+y,1/2-x,1/2-z
1/2-x,1/2-y,1/2+z
1/2-y,1/2+x,1/2-z
1/2+y,1/2+x,1/2-z
1/2-y,1/2-x,1/2-z
1/2-x,1/2+y,1/2+z
1/2+x,1/2-y,1/2+z
loop_
_atom_site_type_symbol
_atom_site_label
_atom_site_fract_x
_atom_site_fract_y
_atom_site_fract_z
Si Si1 0.227282 0.890236 0.055670
Si Si2 0.108664 0.392992 0.055915
Si Si3 0.278265 0.762098 0.837937
Si Si4 0.607572 0.389640 0.914482
O O1 0.224644 0.828409 0.131327
O O2 0.210261 0.000000 0.076128
O O3 0.143960 0.856041 0.000000
O O4 0.329615 0.873549 0.017703
O O5 0.143175 0.500000 0.038149
O O6 0.163277 0.350819 0.126654
O O7 0.000000 0.391501 0.079513
O O8 0.276542 0.776542 0.750000
O O9 0.319016 0.658950 0.858038
O O10 0.500000 0.355624 0.899141
O O11 0.615540 0.500000 0.900386
O O12 0.636430 0.363571 0.000000
#
# Coordination Sequence:
#
# PCOD8311064 Si02
#       4
#    16  16  16  16
#     4   9  19  36  55  74  96 130 178 219 248 287
#     4   9  18  34  56  77  96 124 165 211 254 296
#     4  11  22  32  48  76 109 139 163 198 251 310
#     4   9  18  34  57  81 101 127 168 213 256 303
#
# _framework density 18.023425
#
# number of rings (size 3 to 8) (size 9 to 14) (size 15 to 20)
#    0.000    2.500    0.000    3.750    0.000    6.250 
#    0.000    1.250    0.000    0.000    0.000    1.750 
#    0.000    0.000    0.000    0.000    0.000    0.000 
#
# Total GULP energy -396789.773081 kJ/mol
# GULP energy per Si atom -12399.680409 kJ/mol
# Density = 1.798240 g / cm^3
# Si number density = 18.023425 Si / 1000 Ang^3
#
#
#
# Elastic Constant Matrix: (Units=GPa)
#
#
# Indices 1 2 3 4 5 6 
#
# 1 83.9563 32.2684 13.0825 0.0000 0.0000 0.0000
# 2 32.2684 83.9543 13.0816 0.0000 0.0000 0.0000
# 3 13.0825 13.0816 58.8527 0.0000 0.0000 0.0000
# 4 0.0000 0.0000 0.0000 15.5839 0.0000 0.0000
# 5 0.0000 0.0000 0.0000 0.0000 15.5841 0.0000
# 6 0.0000 0.0000 0.0000 0.0000 0.0000 30.0514
#
#
#
# Elastic Compliance Matrix: (Units=1/GPa)
#
#
# Indices 1 2 3 4 5 6 
#
# 1 0.014202 -0.005145 -0.002013 0.000000 0.000000 0.000000
# 2 -0.005145 0.014202 -0.002013 0.000000 0.000000 0.000000
# 3 -0.002013 -0.002013 0.017887 0.000000 0.000000 0.000000
# 4 0.000000 0.000000 0.000000 0.064169 0.000000 0.000000
# 5 0.000000 0.000000 0.000000 0.000000 0.064168 0.000000
# 6 0.000000 0.000000 0.000000 0.000000 0.000000 0.033276
#
#
# Mechanical properties :
#
#
# Convention : Reuss Voigt Hill
#
# Bulk Modulus (GPa) = 35.78065 38.18092 36.98079
# Shear Modulus (GPa) = 21.22572 23.46595 22.34584
#
# Velocity S-wave (km/s) = 3.43545 3.61220 3.52493
# Velocity P-wave (km/s) = 5.96924 6.21509 6.09340
#
# Compressibility (1/GPa) = 0.02794807
#
# Stress axis : x y z
#
# Youngs Moduli (GPa) = 70.41187 70.41041 55.90773
#
# Poissons Ratio (x) = 0.36226 0.11257
# Poissons Ratio (y) = 0.36227 0.11255
# Poissons Ratio (z) = 0.14177 0.14175
#
# Static dielectric constant tensor:
#      x y z
#    x 3.502390 0.000000 0.000000 
#    y 0.000000 3.502380 0.000000 
#    z 0.000000 0.000000 3.005610 
# 
# 
# High freq. dielectric constant tensor:
#      x y z
#    x 1.710490 0.000000 0.000000 
#    y 0.000000 1.710490 0.000000 
#    z 0.000000 0.000000 1.662040 
# 
# From -- ./inp_files/5063.got.cif
#   From: 2010.03.12/outbox.cif.g09.slc.cpg/sg119_3_cif.got.tgz:5063.got - 2010.04.14 02:25:26.
