data_PCOD8311241
_publ_section_title
;
Structure prediction by ZEFSAII (Michael W. Deem and Ramdas Pophale) SiO2 
 PCOD8311241
Probable space group: I -4 C 2
;
_chemical_formula_sum "Si O2"
_cell_formula_units_Z 44
_cell_length_a 13.720796
_cell_length_b 13.720796
_cell_length_c 10.088636
_cell_angle_alpha 90.000000
_cell_angle_beta 90.000000
_cell_angle_gamma 90.000000
_cell_volume 1899.289064
_symmetry_space_group_name_H-M "I -4 C 2"
_symmetry_group_IT_number 120
_symmetry_cell_setting 'tetragonal'
loop_
_space_group_symop_operation_xyz
x,y,z
y,-x,-z
-x,-y,z
-y,x,-z
y,x,1/2-z
-y,-x,1/2-z
-x,y,1/2+z
x,-y,1/2+z
1/2+x,1/2+y,1/2+z
1/2+y,1/2-x,1/2-z
1/2-x,1/2-y,1/2+z
1/2-y,1/2+x,1/2-z
1/2+y,1/2+x,-z
1/2-y,1/2-x,-z
1/2-x,1/2+y,z
1/2+x,1/2-y,z
loop_
_atom_site_type_symbol
_atom_site_label
_atom_site_fract_x
_atom_site_fract_y
_atom_site_fract_z
Si Si1 0.000000 0.000000 0.500000
Si Si2 0.177885 0.104224 0.387777
Si Si3 0.697317 0.197317 0.500000
Si Si4 0.632030 0.925161 0.248949
O O1 0.901260 0.980135 0.417181
O O2 0.152794 0.152794 0.250000
O O3 0.178454 0.185626 0.503984
O O4 0.287110 0.063439 0.365375
O O5 0.656819 0.149118 0.632033
O O6 0.532200 0.885215 0.314726
#
# Coordination Sequence:
#
# PCOD8311241 Si02
#       4
#     4  16   8  16
#     4  12  22  40  68  94 128 168 206 268 340 390
#     4  10  23  40  62  94 127 165 212 261 321 393
#     4  10  22  41  62  93 132 166 206 268 326 377
#     4  10  22  40  64  93 124 164 214 261 316 386
#
# _framework density 23.166564000000001
#
# number of rings (size 3 to 8) (size 9 to 14) (size 15 to 20)
#    0.000    1.818    0.000    2.727    0.000   11.636 
#    0.000   10.909    0.000    0.000    0.000    0.000 
#    0.000    0.000    0.000    0.000    0.000    0.000 
#
# Total GULP energy -272585.241066 kJ/mol
# GULP energy per Si atom -12390.238230 kJ/mol
# Density = 2.311384 g / cm^3
# Si number density = 23.166564 Si / 1000 Ang^3
#
#
#
# Elastic Constant Matrix: (Units=GPa)
#
#
# Indices 1 2 3 4 5 6 
#
# 1 168.8118 87.2752 48.2667 0.0000 0.0000 0.0000
# 2 87.2752 168.8118 48.2667 0.0000 0.0000 0.0000
# 3 48.2667 48.2667 65.8526 0.0000 0.0000 0.0000
# 4 0.0000 0.0000 0.0000 25.0718 0.0000 0.0000
# 5 0.0000 0.0000 0.0000 0.0000 25.0718 0.0000
# 6 0.0000 0.0000 0.0000 0.0000 0.0000 46.0772
#
#
#
# Elastic Compliance Matrix: (Units=1/GPa)
#
#
# Indices 1 2 3 4 5 6 
#
# 1 0.008830 -0.003434 -0.003955 0.000000 0.000000 0.000000
# 2 -0.003434 0.008830 -0.003955 0.000000 0.000000 0.000000
# 3 -0.003955 -0.003955 0.020983 0.000000 0.000000 0.000000
# 4 0.000000 0.000000 0.000000 0.039885 0.000000 0.000000
# 5 0.000000 0.000000 0.000000 0.000000 0.039885 0.000000
# 6 0.000000 0.000000 0.000000 0.000000 0.000000 0.021703
#
#
# Mechanical properties :
#
#
# Convention : Reuss Voigt Hill
#
# Bulk Modulus (GPa) = 62.67619 85.67705 74.17662
# Shear Modulus (GPa) = 29.74020 33.88867 31.81444
#
# Velocity S-wave (km/s) = 3.58684 3.82884 3.70981
# Velocity P-wave (km/s) = 6.65336 7.52397 7.10202
#
# Compressibility (1/GPa) = 0.01595502
#
# Stress axis : x y z
#
# Youngs Moduli (GPa) = 113.24944 113.24944 47.65815
#
# Poissons Ratio (x) = 0.38894 0.18848
# Poissons Ratio (y) = 0.38894 0.18848
# Poissons Ratio (z) = 0.44788 0.44788
#
# Static dielectric constant tensor:
#      x y z
#    x 4.579310 0.000000 0.000000 
#    y 0.000000 4.579310 0.000000 
#    z 0.000000 0.000000 3.738180 
# 
# 
# High freq. dielectric constant tensor:
#      x y z
#    x 1.931790 0.000000 0.000000 
#    y 0.000000 1.931790 0.000000 
#    z 0.000000 0.000000 1.877860 
# 
# From -- ./inp_files/815.got.cif
#   From: 2010.03.12/outbox.cif.g09.slc.cpg/sg120_1_cif.got.tgz:815.got - 2010.04.06 16:00:44.
