data_PCOD8311662
_publ_section_title
;
Structure prediction by ZEFSAII (Michael W. Deem and Ramdas Pophale) SiO2 
 PCOD8311662
Probable space group: I -4 2 M
;
_chemical_formula_sum "Si O2"
_cell_formula_units_Z 96
_cell_length_a 14.755778
_cell_length_b 14.755778
_cell_length_c 21.258933
_cell_angle_alpha 90.000000
_cell_angle_beta 90.000000
_cell_angle_gamma 90.000000
_cell_volume 4628.770927
_symmetry_space_group_name_H-M "I -4 2 M"
_symmetry_group_IT_number 121
_symmetry_cell_setting 'tetragonal'
loop_
_space_group_symop_operation_xyz
x,y,z
y,-x,-z
-x,-y,z
-y,x,-z
x,-y,-z
-x,y,-z
-y,-x,z
y,x,z
1/2+x,1/2+y,1/2+z
1/2+y,1/2-x,1/2-z
1/2-x,1/2-y,1/2+z
1/2-y,1/2+x,1/2-z
1/2+x,1/2-y,1/2-z
1/2-x,1/2+y,1/2-z
1/2-y,1/2-x,1/2+z
1/2+y,1/2+x,1/2+z
loop_
_atom_site_type_symbol
_atom_site_label
_atom_site_fract_x
_atom_site_fract_y
_atom_site_fract_z
Si Si1 0.493341 0.250704 0.144320
Si Si2 0.839974 0.589926 0.964368
Si Si3 0.078723 0.921278 0.148161
Si Si4 0.176384 0.319395 0.087343
Si Si5 0.072835 0.927166 0.292932
Si Si6 0.005725 0.359231 0.243061
Si Si7 0.722078 0.026995 0.112215
O O1 0.558118 0.238964 0.083805
O O2 0.400433 0.195317 0.135267
O O3 0.471711 0.353084 0.161679
O O4 0.544140 0.209833 0.205090
O O5 0.912270 0.653177 0.928700
O O6 0.882970 0.500000 0.000000
O O7 0.792837 0.651065 0.017365
O O8 0.102862 0.897139 0.221929
O O9 0.170979 0.949254 0.111211
O O10 0.000000 0.000000 0.141284
O O11 0.233862 0.233862 0.110097
O O12 0.072802 0.289946 0.085246
O O13 0.000000 0.000000 0.275795
O O14 0.085568 0.425595 0.222346
O O15 0.965712 0.307327 0.184071
#
# Coordination Sequence:
#
# PCOD8311662 Si02
#       7
#    16  16   8  16   8  16  16
#     4  11  21  42  65  97 130 168 218 273 337 408
#     4  10  25  42  67  96 130 168 224 289 337 397
#     4  11  26  44  65  96 140 181 228 276 342 428
#     4  11  24  41  65  88 127 173 224 272 331 398
#     4  11  24  42  65  96 140 181 214 274 348 418
#     4  11  21  35  63 101 134 160 205 274 351 404
#     4  12  23  42  67  95 132 176 221 280 344 403
#
# _framework density 20.739846
#
# number of rings (size 3 to 8) (size 9 to 14) (size 15 to 20)
#    0.000    1.000    5.833    1.000    1.167    5.333 
#    0.000    0.000    1.833    0.000    0.000    0.000 
#    0.000    0.000    0.000    0.000    0.000    0.000 
#
# Total GULP energy -594712.472093 kJ/mol
# GULP energy per Si atom -12389.843169 kJ/mol
# Density = 2.069264 g / cm^3
# Si number density = 20.739846 Si / 1000 Ang^3
#
#
#
# Elastic Constant Matrix: (Units=GPa)
#
#
# Indices 1 2 3 4 5 6 
#
# 1 38.3246 90.5653 29.4561 0.0000 0.0000 0.0000
# 2 90.5653 38.3220 29.4501 0.0000 0.0000 0.0000
# 3 29.4561 29.4501 92.8945 0.0000 0.0000 0.0000
# 4 0.0000 0.0000 0.0000 25.6541 0.0000 0.0000
# 5 0.0000 0.0000 0.0000 0.0000 25.6538 0.0000
# 6 0.0000 0.0000 0.0000 0.0000 0.0000 27.5635
#
#
#
# Elastic Compliance Matrix: (Units=1/GPa)
#
#
# Indices 1 2 3 4 5 6 
#
# 1 -0.005034 0.014108 -0.002876 0.000000 0.000000 0.000000
# 2 0.014108 -0.005034 -0.002877 0.000000 0.000000 0.000000
# 3 -0.002876 -0.002877 0.012589 0.000000 0.000000 0.000000
# 4 0.000000 0.000000 0.000000 0.038980 0.000000 0.000000
# 5 0.000000 0.000000 0.000000 0.000000 0.038981 0.000000
# 6 0.000000 0.000000 0.000000 0.000000 0.000000 0.036280
#
#
# Mechanical properties :
#
#
# Convention : Reuss Voigt Hill
#
# Bulk Modulus (GPa) = 52.00550 52.05379 52.02965
# Shear Modulus (GPa) = 46.96452 17.11223 32.03838
#
# Velocity S-wave (km/s) = 4.76380 2.87555 3.93463
# Velocity P-wave (km/s) = 7.44231 6.01482 6.76631
#
# Compressibility (1/GPa) = 0.01922874
#
# Stress axis : x y z
#
# Youngs Moduli (GPa) = -198.64010 -198.64825 79.43341
#
# Poissons Ratio (x) = 2.80244 0.22846
# Poissons Ratio (y) = 2.80233 0.22857
# Poissons Ratio (z) = -0.57132 -0.57161
#
# Static dielectric constant tensor:
#      x y z
#    x 3.661980 0.000000 0.000000 
#    y 0.000000 3.662010 0.000000 
#    z 0.000000 0.000000 3.927870 
# 
# 
# High freq. dielectric constant tensor:
#      x y z
#    x 1.803330 0.000000 0.000000 
#    y 0.000000 1.803330 0.000000 
#    z 0.000000 0.000000 1.825600 
# 
# From -- ./inp_files/6465.got.cif
#   From: 2010.03.12/outbox.cif.g09.slc.cpg/sg121_4_cif.got.tgz:6465.got - 2010.04.06 16:06:48.
