data_PCOD8311636
_publ_section_title
;
Structure prediction by ZEFSAII (Michael W. Deem and Ramdas Pophale) SiO2 
 PCOD8311636
Probable space group: I -4 2 M
;
_chemical_formula_sum "Si O2"
_cell_formula_units_Z 84
_cell_length_a 22.878122
_cell_length_b 22.878122
_cell_length_c 9.254121
_cell_angle_alpha 90.000000
_cell_angle_beta 90.000000
_cell_angle_gamma 90.000000
_cell_volume 4843.685279
_symmetry_space_group_name_H-M "I -4 2 M"
_symmetry_group_IT_number 121
_symmetry_cell_setting 'tetragonal'
loop_
_space_group_symop_operation_xyz
x,y,z
y,-x,-z
-x,-y,z
-y,x,-z
x,-y,-z
-x,y,-z
-y,-x,z
y,x,z
1/2+x,1/2+y,1/2+z
1/2+y,1/2-x,1/2-z
1/2-x,1/2-y,1/2+z
1/2-y,1/2+x,1/2-z
1/2+x,1/2-y,1/2-z
1/2-x,1/2+y,1/2-z
1/2-y,1/2-x,1/2+z
1/2+y,1/2+x,1/2+z
loop_
_atom_site_type_symbol
_atom_site_label
_atom_site_fract_x
_atom_site_fract_y
_atom_site_fract_z
Si Si1 0.958813 0.793195 0.623595
Si Si2 0.756238 0.339199 0.920511
Si Si3 0.000000 0.000000 0.000000
Si Si4 0.255558 0.840195 0.760802
Si Si5 0.288490 0.542938 0.383553
Si Si6 0.090051 0.090051 0.002211
Si Si7 0.915921 0.915921 0.655377
Si Si8 0.500000 0.500000 0.000000
O O1 0.903988 0.749753 0.647675
O O2 0.931993 0.855187 0.577828
O O3 0.000000 0.766552 0.500000
O O4 0.998508 0.806125 0.759842
O O5 0.697836 0.302165 0.887273
O O6 0.810788 0.309865 0.841237
O O7 0.768567 0.342616 0.090992
O O8 0.955246 0.044755 0.919287
O O9 0.195887 0.804114 0.791504
O O10 0.252632 0.905606 0.824794
O O11 0.256935 0.500000 0.500000
O O12 0.345415 0.573278 0.449709
O O13 0.087146 0.087146 0.828805
O O14 0.963061 0.963061 0.612312
#
# Coordination Sequence:
#
# PCOD8311636 Si02
#       8
#    16  16   2  16  16   8   8   2
#     4  12  23  38  58  82 115 153 198 245 291 340
#     4  10  22  39  60  83 111 149 195 249 299 353
#     4  12  18  36  44  66 104 150 204 244 274 302
#     4  10  22  39  60  83 112 149 198 247 300 350
#     4  12  24  37  58  82 116 158 197 248 288 343
#     4  12  23  36  51  75 111 155 208 246 278 323
#     4  12  23  36  51  77 108 158 207 244 282 331
#     4  12  26  36  52  74 108 162 210 252 296 326
#
# _framework density 17.342167
#
# number of rings (size 3 to 8) (size 9 to 14) (size 15 to 20)
#    0.000    0.762    7.619    0.286    2.667    1.524 
#    0.000    0.000    0.000    0.000    0.000    0.000 
#    0.000    4.571    0.000    0.000    0.000    0.000 
#
# Total GULP energy -520604.702721 kJ/mol
# GULP energy per Si atom -12395.350065 kJ/mol
# Density = 1.730270 g / cm^3
# Si number density = 17.342167 Si / 1000 Ang^3
#
#
#
# Elastic Constant Matrix: (Units=GPa)
#
#
# Indices 1 2 3 4 5 6 
#
# 1 84.1276 48.3575 25.3114 0.0000 0.0000 0.0000
# 2 48.3575 84.1266 25.3113 0.0000 0.0000 0.0000
# 3 25.3114 25.3113 71.5200 0.0000 0.0000 0.0000
# 4 0.0000 0.0000 0.0000 18.6946 0.0000 0.0000
# 5 0.0000 0.0000 0.0000 0.0000 18.6972 0.0000
# 6 0.0000 0.0000 0.0000 0.0000 0.0000 5.9872
#
#
#
# Elastic Compliance Matrix: (Units=1/GPa)
#
#
# Indices 1 2 3 4 5 6 
#
# 1 0.018342 -0.009614 -0.003089 0.000000 0.000000 0.000000
# 2 -0.009614 0.018343 -0.003089 0.000000 0.000000 0.000000
# 3 -0.003089 -0.003089 0.016169 0.000000 0.000000 0.000000
# 4 0.000000 0.000000 0.000000 0.053491 0.000000 0.000000
# 5 0.000000 0.000000 0.000000 0.000000 0.053484 0.000000
# 6 0.000000 0.000000 0.000000 0.000000 0.000000 0.167023
#
#
# Mechanical properties :
#
#
# Convention : Reuss Voigt Hill
#
# Bulk Modulus (GPa) = 47.01637 48.63720 47.82679
# Shear Modulus (GPa) = 13.67891 18.06206 15.87049
#
# Velocity S-wave (km/s) = 2.81154 3.23075 3.02841
# Velocity P-wave (km/s) = 6.14081 6.48255 6.31399
#
# Compressibility (1/GPa) = 0.02126919
#
# Stress axis : x y z
#
# Youngs Moduli (GPa) = 54.51842 54.51772 61.84849
#
# Poissons Ratio (x) = 0.52414 0.19105
# Poissons Ratio (y) = 0.52415 0.19105
# Poissons Ratio (z) = 0.16841 0.16841
#
# Static dielectric constant tensor:
#      x y z
#    x 3.180800 0.000000 0.000000 
#    y 0.000000 3.180800 0.000000 
#    z 0.000000 0.000000 3.640530 
# 
# 
# High freq. dielectric constant tensor:
#      x y z
#    x 1.649980 0.000000 0.000000 
#    y 0.000000 1.649980 0.000000 
#    z 0.000000 0.000000 1.681210 
# 
# From -- ./inp_files/1912.got.cif
#   From: 2010.03.12/outbox.cif.g09.slc.cpg/sg121_1_cif.got.tgz:1912.got - 2010.04.06 16:06:48.
