data_PCOD8311913
_publ_section_title
;
Structure prediction by ZEFSAII (Michael W. Deem and Ramdas Pophale) SiO2 
 PCOD8311913
Probable space group: I -4 2 D
;
_chemical_formula_sum "Si O2"
_cell_formula_units_Z 60
_cell_length_a 18.198136
_cell_length_b 18.198136
_cell_length_c 8.231233
_cell_angle_alpha 90.000000
_cell_angle_beta 90.000000
_cell_angle_gamma 90.000000
_cell_volume 2725.955162
_symmetry_space_group_name_H-M "I -4 2 D"
_symmetry_group_IT_number 122
_symmetry_cell_setting 'tetragonal'
loop_
_space_group_symop_operation_xyz
x,y,z
y,-x,-z
-x,-y,z
-y,x,-z
x,1/2-y,1/4-z
-x,1/2+y,1/4-z
-y,1/2-x,1/4+z
y,1/2+x,1/4+z
1/2+x,1/2+y,1/2+z
1/2+y,1/2-x,1/2-z
1/2-x,1/2-y,1/2+z
1/2-y,1/2+x,1/2-z
1/2+x,-y,3/4-z
1/2-x,y,3/4-z
1/2-y,-x,3/4+z
1/2+y,x,3/4+z
loop_
_atom_site_type_symbol
_atom_site_label
_atom_site_fract_x
_atom_site_fract_y
_atom_site_fract_z
Si Si1 0.000000 0.500000 0.750000
Si Si2 0.556099 0.606943 0.753585
Si Si3 0.827359 0.972110 0.042076
Si Si4 0.250000 0.346246 0.375000
Si Si5 0.749264 0.382112 0.182604
O O1 0.929129 0.494015 0.638558
O O2 0.498840 0.648968 0.637209
O O3 0.602449 0.547575 0.651139
O O4 0.610441 0.662405 0.852122
O O5 0.785882 0.040707 0.122686
O O6 0.775888 0.899435 0.023020
O O7 0.318103 0.291477 0.333169
O O8 0.750000 0.366056 0.375000
#
# Coordination Sequence:
#
# PCOD8311913 Si02
#       5
#     4  16  16   8  16
#     4  12  28  42  64  96 148 174 216 300 348 382
#     4  11  23  44  64 103 131 178 232 280 337 408
#     4  11  20  41  77  91 128 178 239 268 329 417
#     4  12  20  40  70 100 130 172 226 288 326 400
#     4  10  22  40  64 103 128 173 230 278 335 410
#
# _framework density 22.010634
#
# number of rings (size 3 to 8) (size 9 to 14) (size 15 to 20)
#    0.000    1.067    9.333    1.600    0.000    0.000 
#    9.600    0.000    0.000    0.000    0.000    0.000 
#    0.000    0.000    0.000    0.000    0.000    0.000 
#
# Total GULP energy -371694.512091 kJ/mol
# GULP energy per Si atom -12389.817070 kJ/mol
# Density = 2.196054 g / cm^3
# Si number density = 22.010634 Si / 1000 Ang^3
#
#
#
# Elastic Constant Matrix: (Units=GPa)
#
#
# Indices 1 2 3 4 5 6 
#
# 1 134.4724 54.8153 23.7588 0.0000 0.0000 0.0000
# 2 54.8153 134.4724 23.7588 0.0000 0.0000 0.0000
# 3 23.7588 23.7588 40.0749 0.0000 0.0000 0.0000
# 4 0.0000 0.0000 0.0000 21.7927 0.0000 0.0000
# 5 0.0000 0.0000 0.0000 0.0000 21.7927 0.0000
# 6 0.0000 0.0000 0.0000 0.0000 0.0000 55.2398
#
#
#
# Elastic Compliance Matrix: (Units=1/GPa)
#
#
# Indices 1 2 3 4 5 6 
#
# 1 0.009380 -0.003174 -0.003680 0.000000 0.000000 0.000000
# 2 -0.003174 0.009380 -0.003680 0.000000 0.000000 0.000000
# 3 -0.003680 -0.003680 0.029316 0.000000 0.000000 0.000000
# 4 0.000000 0.000000 0.000000 0.045887 0.000000 0.000000
# 5 0.000000 0.000000 0.000000 0.000000 0.045887 0.000000
# 6 0.000000 0.000000 0.000000 0.000000 0.000000 0.018103
#
#
# Mechanical properties :
#
#
# Convention : Reuss Voigt Hill
#
# Bulk Modulus (GPa) = 37.02200 57.07618 47.04909
# Shear Modulus (GPa) = 26.59248 33.54417 30.06832
#
# Velocity S-wave (km/s) = 3.47964 3.90808 3.70006
# Velocity P-wave (km/s) = 5.74460 6.80820 6.29889
#
# Compressibility (1/GPa) = 0.02701097
#
# Stress axis : x y z
#
# Youngs Moduli (GPa) = 106.60695 106.60695 34.11060
#
# Poissons Ratio (x) = 0.33832 0.12552
# Poissons Ratio (y) = 0.33832 0.12552
# Poissons Ratio (z) = 0.39228 0.39228
#
# Static dielectric constant tensor:
#      x y z
#    x 4.316890 0.000000 0.000000 
#    y 0.000000 4.316890 0.000000 
#    z 0.000000 0.000000 3.398300 
# 
# 
# High freq. dielectric constant tensor:
#      x y z
#    x 1.880450 0.000000 0.000000 
#    y 0.000000 1.880450 0.000000 
#    z 0.000000 0.000000 1.804590 
# 
# From -- ./inp_files/2328.got.cif
#   From: 2010.03.12/outbox.cif.g09.slc.cpg/sg122_2_cif.got.tgz:2328.got - 2010.04.06 16:17:16.
