data_PCOD8311149
_publ_section_title
;
Structure prediction by ZEFSAII (Michael W. Deem and Ramdas Pophale) SiO2 
 PCOD8311149
Probable space group: I -4 C 2
;
_chemical_formula_sum "Si O2"
_cell_formula_units_Z 64
_cell_length_a 11.900971
_cell_length_b 11.900971
_cell_length_c 23.487669
_cell_angle_alpha 90.000000
_cell_angle_beta 90.000000
_cell_angle_gamma 90.000000
_cell_volume 3326.631625
_symmetry_space_group_name_H-M "I -4 C 2"
_symmetry_group_IT_number 120
_symmetry_cell_setting 'tetragonal'
loop_
_space_group_symop_operation_xyz
x,y,z
y,-x,-z
-x,-y,z
-y,x,-z
y,x,1/2-z
-y,-x,1/2-z
-x,y,1/2+z
x,-y,1/2+z
1/2+x,1/2+y,1/2+z
1/2+y,1/2-x,1/2-z
1/2-x,1/2-y,1/2+z
1/2-y,1/2+x,1/2-z
1/2+y,1/2+x,-z
1/2-y,1/2-x,-z
1/2-x,1/2+y,z
1/2+x,1/2-y,z
loop_
_atom_site_type_symbol
_atom_site_label
_atom_site_fract_x
_atom_site_fract_y
_atom_site_fract_z
Si Si1 0.500000 0.000000 0.250000
Si Si2 0.837251 0.882775 0.082987
Si Si3 0.500000 0.500000 0.000000
Si Si4 0.970597 0.337914 0.591857
Si Si5 0.150521 0.469311 0.649175
Si Si6 0.641796 0.141796 0.500000
O O1 0.491566 0.115056 0.287440
O O2 0.897388 0.971817 0.041839
O O3 0.732605 0.833004 0.048532
O O4 0.920568 0.785225 0.103369
O O5 0.782862 0.941001 0.140026
O O6 0.072001 0.360454 0.636406
O O7 0.017714 0.345118 0.527371
O O8 0.877092 0.434402 0.602020
#
# Coordination Sequence:
#
# PCOD8311149 Si02
#       6
#     4  16   4  16  16   8
#     4   8  16  44  64  86 104 148 204 260 300 322
#     4  11  22  32  51  82 117 160 188 232 284 354
#     4  12  24  36  48  84 138 160 176 232 292 354
#     4   9  19  34  49  78 111 150 193 230 273 345
#     4   9  21  36  61  79 110 145 200 250 286 345
#     4  10  20  31  50  71 112 162 192 213 274 346
#
# _framework density 19.238679999999999
#
# number of rings (size 3 to 8) (size 9 to 14) (size 15 to 20)
#    0.000    2.500    2.500    0.000    3.500   10.000 
#    0.000    5.000    0.000    0.000    0.000    7.000 
#    0.000    0.000    0.000    0.000    0.000    0.000 
#
# Total GULP energy -396470.756874 kJ/mol
# GULP energy per Si atom -12389.711152 kJ/mol
# Density = 1.919489 g / cm^3
# Si number density = 19.238680 Si / 1000 Ang^3
#
#
#
# Elastic Constant Matrix: (Units=GPa)
#
#
# Indices 1 2 3 4 5 6 
#
# 1 79.2726 40.6421 31.4742 0.0000 0.0000 0.0000
# 2 40.6421 79.2726 31.4742 0.0000 0.0000 0.0000
# 3 31.4742 31.4742 85.8132 0.0000 0.0000 0.0000
# 4 0.0000 0.0000 0.0000 21.6585 0.0000 0.0000
# 5 0.0000 0.0000 0.0000 0.0000 21.6585 0.0000
# 6 0.0000 0.0000 0.0000 0.0000 0.0000 38.9187
#
#
#
# Elastic Compliance Matrix: (Units=1/GPa)
#
#
# Indices 1 2 3 4 5 6 
#
# 1 0.018107 -0.007779 -0.003788 0.000000 0.000000 0.000000
# 2 -0.007779 0.018107 -0.003788 0.000000 0.000000 0.000000
# 3 -0.003788 -0.003788 0.014432 0.000000 0.000000 0.000000
# 4 0.000000 0.000000 0.000000 0.046171 0.000000 0.000000
# 5 0.000000 0.000000 0.000000 0.000000 0.046171 0.000000
# 6 0.000000 0.000000 0.000000 0.000000 0.000000 0.025695
#
#
# Mechanical properties :
#
#
# Convention : Reuss Voigt Hill
#
# Bulk Modulus (GPa) = 50.16179 50.17105 50.16642
# Shear Modulus (GPa) = 24.26728 25.83165 25.04947
#
# Velocity S-wave (km/s) = 3.55544 3.66825 3.61229
# Velocity P-wave (km/s) = 6.55629 6.63900 6.59777
#
# Compressibility (1/GPa) = 0.01993549
#
# Stress axis : x y z
#
# Youngs Moduli (GPa) = 55.22721 55.22721 69.29099
#
# Poissons Ratio (x) = 0.42963 0.26247
# Poissons Ratio (y) = 0.42963 0.26247
# Poissons Ratio (z) = 0.20920 0.20920
#
# Static dielectric constant tensor:
#      x y z
#    x 3.541240 0.000000 0.000000 
#    y 0.000000 3.541240 0.000000 
#    z 0.000000 0.000000 3.416450 
# 
# 
# High freq. dielectric constant tensor:
#      x y z
#    x 1.736570 0.000000 0.000000 
#    y 0.000000 1.736570 0.000000 
#    z 0.000000 0.000000 1.719940 
# 
# From -- ./inp_files/5723.got.cif
#   From: 2010.03.12/outbox.cif.g09.slc.cpg/sg120_3_cif.got.tgz:5723.got - 2010.04.06 16:00:44.
