data_PCOD8311325
_publ_section_title
;
Structure prediction by ZEFSAII (Michael W. Deem and Ramdas Pophale) SiO2 
 PCOD8311325
Probable space group: I -4 C 2
;
_chemical_formula_sum "Si O2"
_cell_formula_units_Z 56
_cell_length_a 15.315086
_cell_length_b 15.315086
_cell_length_c 10.419689
_cell_angle_alpha 90.000000
_cell_angle_beta 90.000000
_cell_angle_gamma 90.000000
_cell_volume 2443.957427
_symmetry_space_group_name_H-M "I -4 C 2"
_symmetry_group_IT_number 120
_symmetry_cell_setting 'tetragonal'
loop_
_space_group_symop_operation_xyz
x,y,z
y,-x,-z
-x,-y,z
-y,x,-z
y,x,1/2-z
-y,-x,1/2-z
-x,y,1/2+z
x,-y,1/2+z
1/2+x,1/2+y,1/2+z
1/2+y,1/2-x,1/2-z
1/2-x,1/2-y,1/2+z
1/2-y,1/2+x,1/2-z
1/2+y,1/2+x,-z
1/2-y,1/2-x,-z
1/2-x,1/2+y,z
1/2+x,1/2-y,z
loop_
_atom_site_type_symbol
_atom_site_label
_atom_site_fract_x
_atom_site_fract_y
_atom_site_fract_z
Si Si1 0.673418 0.620999 0.390232
Si Si2 0.181204 0.923076 0.860897
Si Si3 0.544914 0.864520 0.769455
Si Si4 0.852173 0.647828 0.500000
O O1 0.650843 0.650843 0.250000
O O2 0.647489 0.519449 0.395044
O O3 0.627929 0.673644 0.505468
O O4 0.774481 0.646079 0.398616
O O5 0.122551 0.877450 0.750000
O O6 0.282231 0.929120 0.818013
O O7 0.444482 0.890085 0.759476
O O8 0.558310 0.842514 0.919628
#
# Coordination Sequence:
#
# PCOD8311325 Si02
#       4
#    16  16  16   8
#     4  12  29  47  75 113 151 202 257 316 377 458
#     4  12  26  52  80 108 156 205 259 316 378 458
#     4  11  26  50  80 113 150 197 255 323 393 459
#     4  12  26  51  70 114 148 193 254 308 392 452
#
# _framework density 22.913656
#
# number of rings (size 3 to 8) (size 9 to 14) (size 15 to 20)
#    0.000    0.286    5.714    1.714    4.000    5.714 
#    5.143    0.000    0.000    0.000    0.000    0.000 
#    0.000    0.000    0.000    0.000    0.000    0.000 
#
# Total GULP energy -347093.933509 kJ/mol
# GULP energy per Si atom -12396.211911 kJ/mol
# Density = 2.286150 g / cm^3
# Si number density = 22.913656 Si / 1000 Ang^3
#
#
#
# Elastic Constant Matrix: (Units=GPa)
#
#
# Indices 1 2 3 4 5 6 
#
# 1 174.6657 20.4217 58.8365 0.0000 0.0000 0.0000
# 2 20.4217 174.6697 58.8339 0.0000 0.0000 0.0000
# 3 58.8365 58.8339 180.2608 0.0000 0.0000 0.0000
# 4 0.0000 0.0000 0.0000 36.4251 0.0000 0.0000
# 5 0.0000 0.0000 0.0000 0.0000 36.4248 0.0000
# 6 0.0000 0.0000 0.0000 0.0000 0.0000 39.0237
#
#
#
# Elastic Compliance Matrix: (Units=1/GPa)
#
#
# Indices 1 2 3 4 5 6 
#
# 1 0.006433 -0.000050 -0.002083 0.000000 0.000000 0.000000
# 2 -0.000050 0.006433 -0.002083 0.000000 0.000000 0.000000
# 3 -0.002083 -0.002083 0.006907 0.000000 0.000000 0.000000
# 4 0.000000 0.000000 0.000000 0.027454 0.000000 0.000000
# 5 0.000000 0.000000 0.000000 0.000000 0.027454 0.000000
# 6 0.000000 0.000000 0.000000 0.000000 0.000000 0.025625
#
#
# Mechanical properties :
#
#
# Convention : Reuss Voigt Hill
#
# Bulk Modulus (GPa) = 88.18746 89.53116 88.85931
# Shear Modulus (GPa) = 44.43702 48.47500 46.45601
#
# Velocity S-wave (km/s) = 4.40855 4.60450 4.50759
# Velocity P-wave (km/s) = 8.03021 8.21137 8.12130
#
# Compressibility (1/GPa) = 0.01133948
#
# Stress axis : x y z
#
# Youngs Moduli (GPa) = 155.45216 155.45785 144.77367
#
# Poissons Ratio (x) = 0.00784 0.30159
# Poissons Ratio (y) = 0.00784 0.30157
# Poissons Ratio (z) = 0.32384 0.32382
#
# Static dielectric constant tensor:
#      x y z
#    x 4.310160 0.000000 0.000000 
#    y 0.000000 4.310110 0.000000 
#    z 0.000000 0.000000 4.227190 
# 
# 
# High freq. dielectric constant tensor:
#      x y z
#    x 1.915970 0.000000 0.000000 
#    y 0.000000 1.915970 0.000000 
#    z 0.000000 0.000000 1.925180 
# 
# From -- ./inp_files/2191.got.cif
#   From: 2010.03.12/outbox.cif.g09.slc.cpg/sg120_2_cif.got.tgz:2191.got - 2010.04.06 16:00:44.
