data_PCOD8311506
_publ_section_title
;
Structure prediction by ZEFSAII (Michael W. Deem and Ramdas Pophale) SiO2 
 PCOD8311506
Probable space group: I -4 2 M
;
_chemical_formula_sum "Si O2"
_cell_formula_units_Z 72
_cell_length_a 19.282516
_cell_length_b 19.282516
_cell_length_c 11.036807
_cell_angle_alpha 90.000000
_cell_angle_beta 90.000000
_cell_angle_gamma 90.000000
_cell_volume 4103.655066
_symmetry_space_group_name_H-M "I -4 2 M"
_symmetry_group_IT_number 121
_symmetry_cell_setting 'tetragonal'
loop_
_space_group_symop_operation_xyz
x,y,z
y,-x,-z
-x,-y,z
-y,x,-z
x,-y,-z
-x,y,-z
-y,-x,z
y,x,z
1/2+x,1/2+y,1/2+z
1/2+y,1/2-x,1/2-z
1/2-x,1/2-y,1/2+z
1/2-y,1/2+x,1/2-z
1/2+x,1/2-y,1/2-z
1/2-x,1/2+y,1/2-z
1/2-y,1/2-x,1/2+z
1/2+y,1/2+x,1/2+z
loop_
_atom_site_type_symbol
_atom_site_label
_atom_site_fract_x
_atom_site_fract_y
_atom_site_fract_z
Si Si1 0.336426 0.448475 0.250150
Si Si2 0.084963 0.802607 0.626661
Si Si3 0.135550 0.250193 0.121730
Si Si4 0.745671 0.140833 0.397668
Si Si5 0.209066 0.000000 0.000000
O O1 0.407607 0.407607 0.227385
O O2 0.331267 0.508195 0.149909
O O3 0.270060 0.397903 0.226059
O O4 0.338235 0.479232 0.385491
O O5 0.130303 0.869698 0.598364
O O6 0.113038 0.759990 0.740636
O O7 0.087908 0.750765 0.511350
O O8 0.187497 0.187497 0.081158
O O9 0.169229 0.326787 0.115343
O O10 0.067742 0.253634 0.035634
O O11 0.794471 0.205530 0.426078
#
# Coordination Sequence:
#
# PCOD8311506 Si02
#       5
#    16  16  16  16   8
#     4  10  20  33  50  74 105 141 175 210 258 317
#     4   9  18  32  48  73 104 133 174 216 252 305
#     4   9  18  31  49  73 103 137 170 216 265 311
#     4   9  18  31  51  73  99 136 176 219 264 302
#     4  10  20  32  48  75 109 132 172 214 258 324
#
# _framework density 17.545335999999999
#
# number of rings (size 3 to 8) (size 9 to 14) (size 15 to 20)
#    0.000    2.667    0.000    1.333    3.111    1.333 
#    0.000    0.000    0.000    8.333    0.000    3.111 
#    0.000    0.000    0.000    0.000    0.000    0.000 
#
# Total GULP energy -446156.116650 kJ/mol
# GULP energy per Si atom -12393.225463 kJ/mol
# Density = 1.750540 g / cm^3
# Si number density = 17.545336 Si / 1000 Ang^3
#
#
#
# Elastic Constant Matrix: (Units=GPa)
#
#
# Indices 1 2 3 4 5 6 
#
# 1 83.5262 61.9707 35.8914 0.0000 0.0000 0.0000
# 2 61.9707 83.5242 35.8929 0.0000 0.0000 0.0000
# 3 35.8914 35.8929 78.0300 0.0000 0.0000 0.0000
# 4 0.0000 0.0000 0.0000 21.4758 0.0000 0.0000
# 5 0.0000 0.0000 0.0000 0.0000 21.4766 0.0000
# 6 0.0000 0.0000 0.0000 0.0000 0.0000 26.5741
#
#
#
# Elastic Compliance Matrix: (Units=1/GPa)
#
#
# Indices 1 2 3 4 5 6 
#
# 1 0.027642 -0.018752 -0.004089 0.000000 0.000000 0.000000
# 2 -0.018752 0.027643 -0.004090 0.000000 0.000000 0.000000
# 3 -0.004089 -0.004090 0.016578 0.000000 0.000000 0.000000
# 4 0.000000 0.000000 0.000000 0.046564 0.000000 0.000000
# 5 0.000000 0.000000 0.000000 0.000000 0.046562 0.000000
# 6 0.000000 0.000000 0.000000 0.000000 0.000000 0.037631
#
#
# Mechanical properties :
#
#
# Convention : Reuss Voigt Hill
#
# Bulk Modulus (GPa) = 55.55228 56.95451 56.25339
# Shear Modulus (GPa) = 19.04896 21.32699 20.18798
#
# Velocity S-wave (km/s) = 3.29857 3.49024 3.39576
# Velocity P-wave (km/s) = 6.79987 6.98385 6.89248
#
# Compressibility (1/GPa) = 0.01800106
#
# Stress axis : x y z
#
# Youngs Moduli (GPa) = 36.17723 36.17536 60.32165
#
# Poissons Ratio (x) = 0.67835 0.24664
# Poissons Ratio (y) = 0.67838 0.24674
# Poissons Ratio (z) = 0.14792 0.14797
#
# Static dielectric constant tensor:
#      x y z
#    x 3.218140 0.000000 0.000000 
#    y 0.000000 3.218140 0.000000 
#    z 0.000000 0.000000 3.372080 
# 
# 
# High freq. dielectric constant tensor:
#      x y z
#    x 1.655390 0.000000 0.000000 
#    y 0.000000 1.655390 0.000000 
#    z 0.000000 0.000000 1.692170 
# 
# From -- ./inp_files/3017.got.cif
#   From: 2010.03.12/outbox.cif.g09.slc.cpg/sg121_2_cif.got.tgz:3017.got - 2010.04.06 16:06:48.
