data_PCOD8311481
_publ_section_title
;
Structure prediction by ZEFSAII (Michael W. Deem and Ramdas Pophale) SiO2 
 PCOD8311481
Probable space group: I -4 2 M
;
_chemical_formula_sum "Si O2"
_cell_formula_units_Z 80
_cell_length_a 28.336736
_cell_length_b 28.336736
_cell_length_c 5.059071
_cell_angle_alpha 90.000000
_cell_angle_beta 90.000000
_cell_angle_gamma 90.000000
_cell_volume 4062.285312
_symmetry_space_group_name_H-M "I -4 2 M"
_symmetry_group_IT_number 121
_symmetry_cell_setting 'tetragonal'
loop_
_space_group_symop_operation_xyz
x,y,z
y,-x,-z
-x,-y,z
-y,x,-z
x,-y,-z
-x,y,-z
-y,-x,z
y,x,z
1/2+x,1/2+y,1/2+z
1/2+y,1/2-x,1/2-z
1/2-x,1/2-y,1/2+z
1/2-y,1/2+x,1/2-z
1/2+x,1/2-y,1/2-z
1/2-x,1/2+y,1/2-z
1/2-y,1/2-x,1/2+z
1/2+y,1/2+x,1/2+z
loop_
_atom_site_type_symbol
_atom_site_label
_atom_site_fract_x
_atom_site_fract_y
_atom_site_fract_z
Si Si1 0.176664 0.898422 0.374599
Si Si2 0.632819 0.825782 0.486234
Si Si3 0.893847 0.970561 0.739348
Si Si4 0.444208 0.898306 0.463875
Si Si5 0.281546 0.358156 0.642386
O O1 0.135001 0.865000 0.479809
O O2 0.156546 0.951482 0.369747
O O3 0.217972 0.889171 0.587428
O O4 0.190827 0.886797 0.078254
O O5 0.644680 0.832764 0.178286
O O6 0.579526 0.845768 0.528290
O O7 0.643584 0.772173 0.556105
O O8 0.928212 0.928212 0.821926
O O9 0.917060 0.000000 0.500000
O O10 0.884410 0.000000 0.000000
O O11 0.500000 0.891984 0.500000
O O12 0.422660 0.932868 0.684912
O O13 0.305688 0.305688 0.674878
#
# Coordination Sequence:
#
# PCOD8311481 Si02
#       5
#    16  16  16  16  16
#     4   9  19  35  53  74 101 136 179 226 269 310
#     4  10  21  36  54  81 117 148 175 220 279 325
#     4  11  22  36  54  76 105 138 176 228 287 344
#     4  10  21  37  57  81 110 143 180 224 274 326
#     4  10  19  34  57  80 106 145 188 223 263 324
#
# _framework density 19.693349999999999
#
# number of rings (size 3 to 8) (size 9 to 14) (size 15 to 20)
#    0.000    2.000    0.000    3.600    0.000    6.400 
#    0.000    3.000    0.000    2.400    0.000    0.000 
#    0.000    0.000    0.000    0.000    0.000    0.000 
#
# Total GULP energy -495741.623684 kJ/mol
# GULP energy per Si atom -12393.540592 kJ/mol
# Density = 1.964853 g / cm^3
# Si number density = 19.693350 Si / 1000 Ang^3
#
#
#
# Elastic Constant Matrix: (Units=GPa)
#
#
# Indices 1 2 3 4 5 6 
#
# 1 85.0745 63.1288 14.5275 0.0000 0.0000 0.0000
# 2 63.1288 85.0729 14.5275 0.0000 0.0000 0.0000
# 3 14.5275 14.5275 93.4284 0.0000 0.0000 0.0000
# 4 0.0000 0.0000 0.0000 26.3328 0.0000 0.0000
# 5 0.0000 0.0000 0.0000 0.0000 26.3335 0.0000
# 6 0.0000 0.0000 0.0000 0.0000 0.0000 13.6858
#
#
#
# Elastic Compliance Matrix: (Units=1/GPa)
#
#
# Indices 1 2 3 4 5 6 
#
# 1 0.026264 -0.019304 -0.001082 0.000000 0.000000 0.000000
# 2 -0.019304 0.026264 -0.001082 0.000000 0.000000 0.000000
# 3 -0.001082 -0.001082 0.011040 0.000000 0.000000 0.000000
# 4 0.000000 0.000000 0.000000 0.037975 0.000000 0.000000
# 5 0.000000 0.000000 0.000000 0.000000 0.037974 0.000000
# 6 0.000000 0.000000 0.000000 0.000000 0.000000 0.073069
#
#
# Mechanical properties :
#
#
# Convention : Reuss Voigt Hill
#
# Bulk Modulus (GPa) = 48.47177 49.77147 49.12162
# Shear Modulus (GPa) = 19.05478 24.69654 21.87566
#
# Velocity S-wave (km/s) = 3.11396 3.54511 3.33650
# Velocity P-wave (km/s) = 6.13153 6.48731 6.31193
#
# Compressibility (1/GPa) = 0.02063057
#
# Stress axis : x y z
#
# Youngs Moduli (GPa) = 38.07513 38.07437 90.58025
#
# Poissons Ratio (x) = 0.73500 0.09802
# Poissons Ratio (y) = 0.73502 0.09803
# Poissons Ratio (z) = 0.04120 0.04120
#
# Static dielectric constant tensor:
#      x y z
#    x 3.587470 0.000000 0.000000 
#    y 0.000000 3.587500 0.000000 
#    z 0.000000 0.000000 3.923160 
# 
# 
# High freq. dielectric constant tensor:
#      x y z
#    x 1.750700 0.000000 0.000000 
#    y 0.000000 1.750700 0.000000 
#    z 0.000000 0.000000 1.793580 
# 
# From -- ./inp_files/583.got.cif
#   From: 2010.03.12/outbox.cif.g09.slc.cpg/sg121_1_cif.got.tgz:583.got - 2010.04.06 16:06:48.
