data_PCOD8311297
_publ_section_title
;
Structure prediction by ZEFSAII (Michael W. Deem and Ramdas Pophale) SiO2 
 PCOD8311297
Probable space group: I -4 C 2
;
_chemical_formula_sum "Si O2"
_cell_formula_units_Z 112
_cell_length_a 13.516102
_cell_length_b 13.516102
_cell_length_c 32.331709
_cell_angle_alpha 90.000000
_cell_angle_beta 90.000000
_cell_angle_gamma 90.000000
_cell_volume 5906.518688
_symmetry_space_group_name_H-M "I -4 C 2"
_symmetry_group_IT_number 120
_symmetry_cell_setting 'tetragonal'
loop_
_space_group_symop_operation_xyz
x,y,z
y,-x,-z
-x,-y,z
-y,x,-z
y,x,1/2-z
-y,-x,1/2-z
-x,y,1/2+z
x,-y,1/2+z
1/2+x,1/2+y,1/2+z
1/2+y,1/2-x,1/2-z
1/2-x,1/2-y,1/2+z
1/2-y,1/2+x,1/2-z
1/2+y,1/2+x,-z
1/2-y,1/2-x,-z
1/2-x,1/2+y,z
1/2+x,1/2-y,z
loop_
_atom_site_type_symbol
_atom_site_label
_atom_site_fract_x
_atom_site_fract_y
_atom_site_fract_z
Si Si1 0.089045 0.243948 0.669925
Si Si2 0.738126 0.605184 0.128329
Si Si3 0.861041 0.084647 0.954275
Si Si4 0.835957 0.998930 0.750235
Si Si5 0.393319 0.737150 0.128603
Si Si6 0.254615 0.410031 0.670768
Si Si7 0.911806 0.862836 0.954562
O O1 0.153451 0.146124 0.659760
O O2 0.018293 0.233321 0.710059
O O3 0.158453 0.340198 0.673899
O O4 0.010241 0.255463 0.632967
O O5 0.839673 0.660326 0.138077
O O6 0.756887 0.488734 0.133819
O O7 0.709563 0.627677 0.080909
O O8 0.795108 0.132459 0.918252
O O9 0.971528 0.123862 0.949690
O O10 0.858079 0.967061 0.948783
O O11 0.819256 0.113219 0.999810
O O12 0.897958 0.897958 0.750000
O O13 0.764785 0.021115 0.711483
O O14 0.906669 0.093332 0.750000
O O15 0.352605 0.654297 0.160930
#
# Coordination Sequence:
#
# PCOD8311297 Si02
#       7
#    16  16  16  16  16  16  16
#     4  11  24  40  61  90 119 151 199 251 296 353
#     4  11  22  37  60  86 119 161 200 242 295 361
#     4   9  17  31  56  88 117 149 196 254 303 346
#     4  11  22  38  64  91 112 152 199 244 294 353
#     4  11  22  37  60  86 119 161 200 242 295 361
#     4  11  24  40  61  90 119 151 199 251 296 353
#     4   9  17  31  56  88 117 149 196 254 303 346
#
# _framework density 18.962101000000001
#
# number of rings (size 3 to 8) (size 9 to 14) (size 15 to 20)
#    0.000    1.571    5.714    0.857    0.000    3.429 
#    0.000    0.000    0.000    0.857    0.000    2.000 
#    0.000    0.000    0.000    0.000    0.000    0.000 
#
# Total GULP energy -694059.274676 kJ/mol
# GULP energy per Si atom -12393.915619 kJ/mol
# Density = 1.891894 g / cm^3
# Si number density = 18.962101 Si / 1000 Ang^3
#
#
#
# Elastic Constant Matrix: (Units=GPa)
#
#
# Indices 1 2 3 4 5 6 
#
# 1 85.0834 44.5792 30.3005 0.0000 0.0000 0.0000
# 2 44.5792 85.0839 30.3005 0.0000 0.0000 0.0000
# 3 30.3005 30.3005 110.2864 0.0000 0.0000 0.0000
# 4 0.0000 0.0000 0.0000 24.2443 0.0000 0.0000
# 5 0.0000 0.0000 0.0000 0.0000 24.2443 0.0000
# 6 0.0000 0.0000 0.0000 0.0000 0.0000 10.9472
#
#
#
# Elastic Compliance Matrix: (Units=1/GPa)
#
#
# Indices 1 2 3 4 5 6 
#
# 1 0.016769 -0.007920 -0.002431 0.000000 0.000000 0.000000
# 2 -0.007920 0.016769 -0.002431 0.000000 0.000000 0.000000
# 3 -0.002431 -0.002431 0.010403 0.000000 0.000000 0.000000
# 4 0.000000 0.000000 0.000000 0.041247 0.000000 0.000000
# 5 0.000000 0.000000 0.000000 0.000000 0.041247 0.000000
# 6 0.000000 0.000000 0.000000 0.000000 0.000000 0.091348
#
#
# Mechanical properties :
#
#
# Convention : Reuss Voigt Hill
#
# Bulk Modulus (GPa) = 54.41913 54.53492 54.47702
# Shear Modulus (GPa) = 20.04238 23.57205 21.80722
#
# Velocity S-wave (km/s) = 3.25464 3.52961 3.39491
# Velocity P-wave (km/s) = 6.54864 6.74042 6.64522
#
# Compressibility (1/GPa) = 0.01837589
#
# Stress axis : x y z
#
# Youngs Moduli (GPa) = 59.63518 59.63557 96.12476
#
# Poissons Ratio (x) = 0.47232 0.23369
# Poissons Ratio (y) = 0.47231 0.23369
# Poissons Ratio (z) = 0.14498 0.14498
#
# Static dielectric constant tensor:
#      x y z
#    x 3.191060 0.000000 0.000000 
#    y 0.000000 3.191060 0.000000 
#    z 0.000000 0.000000 3.725500 
# 
# 
# High freq. dielectric constant tensor:
#      x y z
#    x 1.716650 0.000000 0.000000 
#    y 0.000000 1.716650 0.000000 
#    z 0.000000 0.000000 1.750150 
# 
# From -- ./inp_files/6679.got.cif
#   From: 2010.03.12/outbox.cif.g09.slc.cpg/sg120_4_cif.got.tgz:6679.got - 2010.04.06 16:00:44.
