data_PCOD8311564
_publ_section_title
;
Structure prediction by ZEFSAII (Michael W. Deem and Ramdas Pophale) SiO2 
 PCOD8311564
Probable space group: I -4 2 M
;
_chemical_formula_sum "Si O2"
_cell_formula_units_Z 88
_cell_length_a 12.013065
_cell_length_b 12.013065
_cell_length_c 31.083320
_cell_angle_alpha 90.000000
_cell_angle_beta 90.000000
_cell_angle_gamma 90.000000
_cell_volume 4485.749872
_symmetry_space_group_name_H-M "I -4 2 M"
_symmetry_group_IT_number 121
_symmetry_cell_setting 'tetragonal'
loop_
_space_group_symop_operation_xyz
x,y,z
y,-x,-z
-x,-y,z
-y,x,-z
x,-y,-z
-x,y,-z
-y,-x,z
y,x,z
1/2+x,1/2+y,1/2+z
1/2+y,1/2-x,1/2-z
1/2-x,1/2-y,1/2+z
1/2-y,1/2+x,1/2-z
1/2+x,1/2-y,1/2-z
1/2-x,1/2+y,1/2-z
1/2-y,1/2-x,1/2+z
1/2+y,1/2+x,1/2+z
loop_
_atom_site_type_symbol
_atom_site_label
_atom_site_fract_x
_atom_site_fract_y
_atom_site_fract_z
Si Si1 0.889549 0.710933 0.920046
Si Si2 0.259853 0.922524 0.859192
Si Si3 0.818531 0.000000 0.000000
Si Si4 0.822757 0.997675 0.688480
Si Si5 0.491108 0.876600 0.874501
Si Si6 0.672173 0.025502 0.762903
O O1 0.770075 0.770075 0.923038
O O2 0.870222 0.577275 0.914813
O O3 0.954683 0.760592 0.878540
O O4 0.964009 0.737263 0.961610
O O5 0.148004 0.851997 0.863364
O O6 0.360337 0.864509 0.887300
O O7 0.301304 0.930423 0.810296
O O8 0.896881 0.896881 0.014608
O O9 0.914825 0.085175 0.674283
O O10 0.789361 0.015701 0.738046
O O11 0.715526 0.021874 0.659920
O O12 0.873293 0.873293 0.682110
O O13 0.500000 0.000000 0.852738
O O14 0.595090 0.114297 0.737880
#
# Coordination Sequence:
#
# PCOD8311564 Si02
#       6
#    16  16   8  16  16  16
#     4  10  21  37  61  88 114 147 185 230 286 349
#     4  11  22  36  57  82 114 153 193 241 293 344
#     4   9  18  36  61  90 124 152 179 227 292 356
#     4  11  23  37  55  81 112 150 197 247 295 339
#     4  10  20  37  55  80 111 149 194 230 278 342
#     4  11  22  36  57  79 107 150 200 247 294 340
#
# _framework density 19.617678999999999
#
# number of rings (size 3 to 8) (size 9 to 14) (size 15 to 20)
#    0.000    1.545    1.818    4.364    2.545    2.545 
#    0.000    4.091    0.000    0.000    0.000    0.000 
#    0.000    0.000    0.000   43.091    0.000    0.000 
#
# Total GULP energy -545335.085915 kJ/mol
# GULP energy per Si atom -12393.979225 kJ/mol
# Density = 1.957303 g / cm^3
# Si number density = 19.617679 Si / 1000 Ang^3
#
#
#
# Elastic Constant Matrix: (Units=GPa)
#
#
# Indices 1 2 3 4 5 6 
#
# 1 86.2940 27.0878 34.7721 0.0000 0.0000 0.0000
# 2 27.0878 86.2917 34.7712 0.0000 0.0000 0.0000
# 3 34.7721 34.7712 76.1944 0.0000 0.0000 0.0000
# 4 0.0000 0.0000 0.0000 29.9531 0.0000 0.0000
# 5 0.0000 0.0000 0.0000 0.0000 29.9534 0.0000
# 6 0.0000 0.0000 0.0000 0.0000 0.0000 23.7189
#
#
#
# Elastic Compliance Matrix: (Units=1/GPa)
#
#
# Indices 1 2 3 4 5 6 
#
# 1 0.014569 -0.002321 -0.005590 0.000000 0.000000 0.000000
# 2 -0.002321 0.014569 -0.005589 0.000000 0.000000 0.000000
# 3 -0.005590 -0.005589 0.018226 0.000000 0.000000 0.000000
# 4 0.000000 0.000000 0.000000 0.033386 0.000000 0.000000
# 5 0.000000 0.000000 0.000000 0.000000 0.033385 0.000000
# 6 0.000000 0.000000 0.000000 0.000000 0.000000 0.042161
#
#
# Mechanical properties :
#
#
# Convention : Reuss Voigt Hill
#
# Bulk Modulus (GPa) = 49.10559 49.11582 49.11071
# Shear Modulus (GPa) = 26.30412 26.86835 26.58623
#
# Velocity S-wave (km/s) = 3.66572 3.70482 3.68532
# Velocity P-wave (km/s) = 6.55761 6.58725 6.57245
#
# Compressibility (1/GPa) = 0.02036428
#
# Stress axis : x y z
#
# Youngs Moduli (GPa) = 68.63795 68.63655 54.86689
#
# Poissons Ratio (x) = 0.15931 0.30668
# Poissons Ratio (y) = 0.15932 0.30668
# Poissons Ratio (z) = 0.38366 0.38364
#
# Static dielectric constant tensor:
#      x y z
#    x 3.778860 0.000000 0.000000 
#    y 0.000000 3.778870 0.000000 
#    z 0.000000 0.000000 3.304730 
# 
# 
# High freq. dielectric constant tensor:
#      x y z
#    x 1.769050 0.000000 0.000000 
#    y 0.000000 1.769050 0.000000 
#    z 0.000000 0.000000 1.729440 
# 
# From -- ./inp_files/8172.got.cif
#   From: 2010.03.12/outbox.cif.g09.slc.cpg/sg121_5_cif.got.tgz:8172.got - 2010.04.06 16:06:48.
