data_PCOD8311327
_publ_section_title
;
Structure prediction by ZEFSAII (Michael W. Deem and Ramdas Pophale) SiO2 
 PCOD8311327
Probable space group: I -4 C 2
;
_chemical_formula_sum "Si O2"
_cell_formula_units_Z 64
_cell_length_a 11.002842
_cell_length_b 11.002842
_cell_length_c 21.832734
_cell_angle_alpha 90.000000
_cell_angle_beta 90.000000
_cell_angle_gamma 90.000000
_cell_volume 2643.126060
_symmetry_space_group_name_H-M "I -4 C 2"
_symmetry_group_IT_number 120
_symmetry_cell_setting 'tetragonal'
loop_
_space_group_symop_operation_xyz
x,y,z
y,-x,-z
-x,-y,z
-y,x,-z
y,x,1/2-z
-y,-x,1/2-z
-x,y,1/2+z
x,-y,1/2+z
1/2+x,1/2+y,1/2+z
1/2+y,1/2-x,1/2-z
1/2-x,1/2-y,1/2+z
1/2-y,1/2+x,1/2-z
1/2+y,1/2+x,-z
1/2-y,1/2-x,-z
1/2-x,1/2+y,z
1/2+x,1/2-y,z
loop_
_atom_site_type_symbol
_atom_site_label
_atom_site_fract_x
_atom_site_fract_y
_atom_site_fract_z
Si Si1 0.083805 0.118876 0.182986
Si Si2 0.044835 0.375754 0.134534
Si Si3 0.247522 0.584713 0.965920
Si Si4 0.205000 0.040250 0.588643
O O1 0.141273 0.141273 0.250000
O O2 0.022851 0.250370 0.171188
O O3 0.178336 0.080947 0.128994
O O4 0.000000 0.000000 0.186449
O O5 0.186410 0.385963 0.119664
O O6 0.000000 0.500000 0.168877
O O7 0.963188 0.368082 0.072851
O O8 0.361035 0.595514 0.917982
O O9 0.210430 0.710430 0.000000
O O10 0.275852 0.487229 0.017586
#
# Coordination Sequence:
#
# PCOD8311327 Si02
#       4
#    16  16  16  16
#     4  11  26  53  79 105 150 206 270 331 387 470
#     4  12  26  48  76 112 155 202 256 327 399 482
#     4  12  23  41  71 112 155 200 244 319 400 488
#     4  12  25  43  72 109 152 197 256 314 400 471
#
# _framework density 24.213754000000002
#
# number of rings (size 3 to 8) (size 9 to 14) (size 15 to 20)
#    0.000    0.250    5.000    5.250    0.000    0.000 
#    9.000    0.000    0.000    0.000    0.000    0.000 
#    0.000    0.000    0.000    0.000    0.000    0.000 
#
# Total GULP energy -396451.839803 kJ/mol
# GULP energy per Si atom -12389.119994 kJ/mol
# Density = 2.415864 g / cm^3
# Si number density = 24.213754 Si / 1000 Ang^3
#
#
#
# Elastic Constant Matrix: (Units=GPa)
#
#
# Indices 1 2 3 4 5 6 
#
# 1 129.6006 31.8436 40.6252 0.0000 0.0000 0.0000
# 2 31.8436 129.6006 40.6252 0.0000 0.0000 0.0000
# 3 40.6252 40.6252 107.4273 0.0000 0.0000 0.0000
# 4 0.0000 0.0000 0.0000 17.3351 0.0000 0.0000
# 5 0.0000 0.0000 0.0000 0.0000 17.3351 0.0000
# 6 0.0000 0.0000 0.0000 0.0000 0.0000 45.3051
#
#
#
# Elastic Compliance Matrix: (Units=1/GPa)
#
#
# Indices 1 2 3 4 5 6 
#
# 1 0.008940 -0.001290 -0.002893 0.000000 0.000000 0.000000
# 2 -0.001290 0.008940 -0.002893 0.000000 0.000000 0.000000
# 3 -0.002893 -0.002893 0.011497 0.000000 0.000000 0.000000
# 4 0.000000 0.000000 0.000000 0.057687 0.000000 0.000000
# 5 0.000000 0.000000 0.000000 0.000000 0.057687 0.000000
# 6 0.000000 0.000000 0.000000 0.000000 0.000000 0.022073
#
#
# Mechanical properties :
#
#
# Convention : Reuss Voigt Hill
#
# Bulk Modulus (GPa) = 65.68210 65.86850 65.77530
# Shear Modulus (GPa) = 26.87477 32.89734 29.88606
#
# Velocity S-wave (km/s) = 3.33513 3.68995 3.51701
# Velocity P-wave (km/s) = 6.48194 6.73916 6.61180
#
# Compressibility (1/GPa) = 0.01522485
#
# Stress axis : x y z
#
# Youngs Moduli (GPa) = 111.86000 111.86000 86.98182
#
# Poissons Ratio (x) = 0.14427 0.25164
# Poissons Ratio (y) = 0.14427 0.25164
# Poissons Ratio (z) = 0.32361 0.32361
#
# Static dielectric constant tensor:
#      x y z
#    x 4.299610 0.000000 0.000000 
#    y 0.000000 4.299610 0.000000 
#    z 0.000000 0.000000 4.532390 
# 
# 
# High freq. dielectric constant tensor:
#      x y z
#    x 1.964340 0.000000 0.000000 
#    y 0.000000 1.964340 0.000000 
#    z 0.000000 0.000000 1.949640 
# 
# From -- ./inp_files/5006.got.cif
#   From: 2010.03.12/outbox.cif.g09.slc.cpg/sg120_3_cif.got.tgz:5006.got - 2010.04.06 16:00:44.
