data_PCOD8311363
_publ_section_title
;
Structure prediction by ZEFSAII (Michael W. Deem and Ramdas Pophale) SiO2 
 PCOD8311363
Probable space group: I -4 2 M
;
_chemical_formula_sum "Si O2"
_cell_formula_units_Z 48
_cell_length_a 10.081681
_cell_length_b 10.081681
_cell_length_c 18.396454
_cell_angle_alpha 90.000000
_cell_angle_beta 90.000000
_cell_angle_gamma 90.000000
_cell_volume 1869.820952
_symmetry_space_group_name_H-M "I -4 2 M"
_symmetry_group_IT_number 121
_symmetry_cell_setting 'tetragonal'
loop_
_space_group_symop_operation_xyz
x,y,z
y,-x,-z
-x,-y,z
-y,x,-z
x,-y,-z
-x,y,-z
-y,-x,z
y,x,z
1/2+x,1/2+y,1/2+z
1/2+y,1/2-x,1/2-z
1/2-x,1/2-y,1/2+z
1/2-y,1/2+x,1/2-z
1/2+x,1/2-y,1/2-z
1/2-x,1/2+y,1/2-z
1/2-y,1/2-x,1/2+z
1/2+y,1/2+x,1/2+z
loop_
_atom_site_type_symbol
_atom_site_label
_atom_site_fract_x
_atom_site_fract_y
_atom_site_fract_z
Si Si1 0.214212 0.008502 0.634511
Si Si2 0.213855 0.992738 0.793239
Si Si3 0.599998 0.821649 0.434307
O O1 0.099846 0.900155 0.646025
O O2 0.282846 0.020910 0.714534
O O3 0.316549 0.958591 0.573270
O O4 0.147458 0.147458 0.608469
O O5 0.157570 0.842431 0.798314
O O6 0.313407 0.014901 0.860066
O O7 0.093757 0.093757 0.802105
O O8 0.500000 0.834796 0.500000
O O9 0.694913 0.694913 0.446066
#
# Coordination Sequence:
#
# PCOD8311363 Si02
#       3
#    16  16  16
#     4   8  15  29  48  74 116 173 231 272 304 366
#     4   8  14  26  45  73 116 168 215 259 312 382
#     4  10  18  27  47  87 133 169 204 257 331 399
#
# _framework density 25.670908000000001
#
# number of rings (size 3 to 8) (size 9 to 14) (size 15 to 20)
#    0.000    3.333    0.000    3.000    0.000    1.667 
#    0.000    0.000    0.000    1.000    0.000   11.667 
#    0.000   46.000    0.000   60.000    0.000    0.000 
#
# Total GULP energy -297466.971401 kJ/mol
# GULP energy per Si atom -12394.457142 kJ/mol
# Density = 2.561248 g / cm^3
# Si number density = 25.670908 Si / 1000 Ang^3
#
#
#
# Elastic Constant Matrix: (Units=GPa)
#
#
# Indices 1 2 3 4 5 6 
#
# 1 90.8235 58.3605 85.3669 0.0000 0.0000 0.0000
# 2 58.3605 90.8240 85.3668 0.0000 0.0000 0.0000
# 3 85.3669 85.3668 182.8101 0.0000 0.0000 0.0000
# 4 0.0000 0.0000 0.0000 39.7024 0.0000 0.0000
# 5 0.0000 0.0000 0.0000 0.0000 39.7023 0.0000
# 6 0.0000 0.0000 0.0000 0.0000 0.0000 25.9840
#
#
#
# Elastic Compliance Matrix: (Units=1/GPa)
#
#
# Indices 1 2 3 4 5 6 
#
# 1 0.022601 -0.008203 -0.006723 0.000000 0.000000 0.000000
# 2 -0.008203 0.022601 -0.006723 0.000000 0.000000 0.000000
# 3 -0.006723 -0.006723 0.011749 0.000000 0.000000 0.000000
# 4 0.000000 0.000000 0.000000 0.025187 0.000000 0.000000
# 5 0.000000 0.000000 0.000000 0.000000 0.025187 0.000000
# 6 0.000000 0.000000 0.000000 0.000000 0.000000 0.038485
#
#
# Mechanical properties :
#
#
# Convention : Reuss Voigt Hill
#
# Bulk Modulus (GPa) = 73.25260 91.40511 82.32886
# Shear Modulus (GPa) = 25.81839 30.10197 27.96018
#
# Velocity S-wave (km/s) = 3.17479 3.42805 3.30385
# Velocity P-wave (km/s) = 6.48354 7.16607 6.83333
#
# Compressibility (1/GPa) = 0.01365139
#
# Stress axis : x y z
#
# Youngs Moduli (GPa) = 44.24612 44.24665 85.11214
#
# Poissons Ratio (x) = 0.36297 0.57223
# Poissons Ratio (y) = 0.36296 0.57222
# Poissons Ratio (z) = 0.29748 0.29747
#
# Static dielectric constant tensor:
#      x y z
#    x 4.739490 0.000000 0.000000 
#    y 0.000000 4.739470 0.000000 
#    z 0.000000 0.000000 4.603370 
# 
# 
# High freq. dielectric constant tensor:
#      x y z
#    x 2.012470 0.000000 0.000000 
#    y 0.000000 2.012470 0.000000 
#    z 0.000000 0.000000 2.023550 
# 
# From -- ./inp_files/4905.got.cif
#   From: 2010.03.12/outbox.cif.g09.slc.cpg/sg121_3_cif.got.tgz:4905.got - 2010.04.06 16:06:48.
