data_PCOD8311191
_publ_section_title
;
Structure prediction by ZEFSAII (Michael W. Deem and Ramdas Pophale) SiO2 
 PCOD8311191
Probable space group: I -4 C 2
;
_chemical_formula_sum "Si O2"
_cell_formula_units_Z 68
_cell_length_a 15.835522
_cell_length_b 15.835522
_cell_length_c 13.890027
_cell_angle_alpha 90.000000
_cell_angle_beta 90.000000
_cell_angle_gamma 90.000000
_cell_volume 3483.115356
_symmetry_space_group_name_H-M "I -4 C 2"
_symmetry_group_IT_number 120
_symmetry_cell_setting 'tetragonal'
loop_
_space_group_symop_operation_xyz
x,y,z
y,-x,-z
-x,-y,z
-y,x,-z
y,x,1/2-z
-y,-x,1/2-z
-x,y,1/2+z
x,-y,1/2+z
1/2+x,1/2+y,1/2+z
1/2+y,1/2-x,1/2-z
1/2-x,1/2-y,1/2+z
1/2-y,1/2+x,1/2-z
1/2+y,1/2+x,-z
1/2-y,1/2-x,-z
1/2-x,1/2+y,z
1/2+x,1/2-y,z
loop_
_atom_site_type_symbol
_atom_site_label
_atom_site_fract_x
_atom_site_fract_y
_atom_site_fract_z
Si Si1 0.902726 0.704473 0.425878
Si Si2 0.409421 0.203262 0.433862
Si Si3 0.500000 0.500000 0.500000
Si Si4 0.844312 0.714227 0.218975
Si Si5 0.606328 0.649867 0.564591
O O1 0.837566 0.662435 0.500000
O O2 0.892265 0.682556 0.313668
O O3 0.896913 0.804619 0.435804
O O4 0.995698 0.671316 0.450197
O O5 0.348695 0.151306 0.500000
O O6 0.373596 0.185643 0.328152
O O7 0.403113 0.301675 0.462987
O O8 0.534145 0.576841 0.568423
O O9 0.758682 0.758682 0.250000
O O10 0.899053 0.780770 0.152488
#
# Coordination Sequence:
#
# PCOD8311191 Si02
#       5
#    16  16   4  16  16
#     4  11  22  39  63  86 118 164 208 251 302 362
#     4  10  21  39  60  87 120 160 201 253 305 362
#     4  12  20  36  70 100 124 154 192 252 318 368
#     4   9  20  39  59  86 123 162 203 244 307 374
#     4  10  20  39  62  91 126 155 194 248 313 374
#
# _framework density 19.522753000000002
#
# number of rings (size 3 to 8) (size 9 to 14) (size 15 to 20)
#    0.000    1.882    2.353    3.529    0.000    4.235 
#    4.235    5.294    0.000    0.000    0.000    0.000 
#    0.000    0.000    0.000    0.000    0.000    0.000 
#
# Total GULP energy -421249.898252 kJ/mol
# GULP energy per Si atom -12389.702890 kJ/mol
# Density = 1.947832 g / cm^3
# Si number density = 19.522753 Si / 1000 Ang^3
#
#
#
# Elastic Constant Matrix: (Units=GPa)
#
#
# Indices 1 2 3 4 5 6 
#
# 1 81.1584 38.9262 36.2302 0.0000 0.0000 0.0000
# 2 38.9262 81.1496 36.2270 0.0000 0.0000 0.0000
# 3 36.2302 36.2270 84.4906 0.0000 0.0000 0.0000
# 4 0.0000 0.0000 0.0000 15.1592 0.0000 0.0000
# 5 0.0000 0.0000 0.0000 0.0000 15.1597 0.0000
# 6 0.0000 0.0000 0.0000 0.0000 0.0000 34.1998
#
#
#
# Elastic Compliance Matrix: (Units=1/GPa)
#
#
# Indices 1 2 3 4 5 6 
#
# 1 0.017457 -0.006223 -0.004817 0.000000 0.000000 0.000000
# 2 -0.006223 0.017459 -0.004817 0.000000 0.000000 0.000000
# 3 -0.004817 -0.004817 0.015967 0.000000 0.000000 0.000000
# 4 0.000000 0.000000 0.000000 0.065967 0.000000 0.000000
# 5 0.000000 0.000000 0.000000 0.000000 0.065965 0.000000
# 6 0.000000 0.000000 0.000000 0.000000 0.000000 0.029240
#
#
# Mechanical properties :
#
#
# Convention : Reuss Voigt Hill
#
# Bulk Modulus (GPa) = 52.17329 52.17392 52.17360
# Shear Modulus (GPa) = 19.98737 21.93141 20.95939
#
# Velocity S-wave (km/s) = 3.20316 3.35532 3.28012
# Velocity P-wave (km/s) = 6.36103 6.46479 6.41312
#
# Compressibility (1/GPa) = 0.01916690
#
# Stress axis : x y z
#
# Youngs Moduli (GPa) = 57.28365 57.27834 62.62998
#
# Poissons Ratio (x) = 0.35646 0.30171
# Poissons Ratio (y) = 0.35649 0.30170
# Poissons Ratio (z) = 0.27595 0.27592
#
# Static dielectric constant tensor:
#      x y z
#    x 3.721280 0.000000 0.000000 
#    y 0.000000 3.721280 0.000000 
#    z 0.000000 0.000000 4.594540 
# 
# 
# High freq. dielectric constant tensor:
#      x y z
#    x 1.756770 0.000000 0.000000 
#    y 0.000000 1.756770 0.000000 
#    z 0.000000 0.000000 1.754930 
# 
# From -- ./inp_files/3387.got.cif
#   From: 2010.03.12/outbox.cif.g09.slc.cpg/sg120_2_cif.got.tgz:3387.got - 2010.04.06 16:00:44.
