data_PCOD8311511
_publ_section_title
;
Structure prediction by ZEFSAII (Michael W. Deem and Ramdas Pophale) SiO2 
 PCOD8311511
Probable space group: I -4 2 M
;
_chemical_formula_sum "Si O2"
_cell_formula_units_Z 96
_cell_length_a 14.884013
_cell_length_b 14.884013
_cell_length_c 22.328311
_cell_angle_alpha 90.000000
_cell_angle_beta 90.000000
_cell_angle_gamma 90.000000
_cell_volume 4946.476543
_symmetry_space_group_name_H-M "I -4 2 M"
_symmetry_group_IT_number 121
_symmetry_cell_setting 'tetragonal'
loop_
_space_group_symop_operation_xyz
x,y,z
y,-x,-z
-x,-y,z
-y,x,-z
x,-y,-z
-x,y,-z
-y,-x,z
y,x,z
1/2+x,1/2+y,1/2+z
1/2+y,1/2-x,1/2-z
1/2-x,1/2-y,1/2+z
1/2-y,1/2+x,1/2-z
1/2+x,1/2-y,1/2-z
1/2-x,1/2+y,1/2-z
1/2-y,1/2-x,1/2+z
1/2+y,1/2+x,1/2+z
loop_
_atom_site_type_symbol
_atom_site_label
_atom_site_fract_x
_atom_site_fract_y
_atom_site_fract_z
Si Si1 0.334290 0.807930 0.636694
Si Si2 0.049015 0.812640 0.667569
Si Si3 0.109163 0.255588 0.736693
Si Si4 0.812298 0.332457 0.379861
Si Si5 0.993157 0.605389 0.929314
Si Si6 0.701230 0.438072 0.947008
O O1 0.288369 0.711632 0.618446
O O2 0.255776 0.877438 0.645434
O O3 0.389800 0.800418 0.698399
O O4 0.397667 0.849807 0.586158
O O5 0.096966 0.903035 0.691583
O O6 0.993278 0.768543 0.721479
O O7 0.988421 0.837474 0.610773
O O8 0.163087 0.163087 0.735866
O O9 0.152145 0.322679 0.687919
O O10 0.710428 0.289573 0.384452
O O11 0.825763 0.435894 0.398316
O O12 0.875362 0.281913 0.426845
O O13 0.000000 0.500000 0.907336
O O14 0.000000 0.608649 0.000000
O O15 0.620067 0.379934 0.974536
O O16 0.739055 0.500000 0.000000
#
# Coordination Sequence:
#
# PCOD8311511 Si02
#       6
#    16  16  16  16  16  16
#     4  10  23  41  59  84 118 155 193 244 308 358
#     4  10  20  34  56  81 112 152 187 228 289 358
#     4   9  19  37  57  82 116 147 185 236 288 353
#     4   9  20  37  58  82 113 155 194 235 293 351
#     4  11  24  39  60  89 119 153 199 253 291 343
#     4  10  20  32  52  83 119 153 185 226 278 350
#
# _framework density 19.407755000000002
#
# number of rings (size 3 to 8) (size 9 to 14) (size 15 to 20)
#    0.000    2.167    0.000    4.000    7.000    2.833 
#    0.000    0.000    0.000    1.500    0.000    1.167 
#    0.000    0.000    0.000    0.000    0.000    0.000 
#
# Total GULP energy -594931.799214 kJ/mol
# GULP energy per Si atom -12394.412484 kJ/mol
# Density = 1.936358 g / cm^3
# Si number density = 19.407755 Si / 1000 Ang^3
#
#
#
# Elastic Constant Matrix: (Units=GPa)
#
#
# Indices 1 2 3 4 5 6 
#
# 1 78.5601 16.3555 16.8407 0.0000 0.0000 0.0000
# 2 16.3555 78.5606 16.8385 0.0000 0.0000 0.0000
# 3 16.8407 16.8385 72.7298 0.0000 0.0000 0.0000
# 4 0.0000 0.0000 0.0000 16.1217 0.0000 0.0000
# 5 0.0000 0.0000 0.0000 0.0000 16.1184 0.0000
# 6 0.0000 0.0000 0.0000 0.0000 0.0000 20.4362
#
#
#
# Elastic Compliance Matrix: (Units=1/GPa)
#
#
# Indices 1 2 3 4 5 6 
#
# 1 0.013777 -0.002299 -0.002658 0.000000 0.000000 0.000000
# 2 -0.002299 0.013777 -0.002657 0.000000 0.000000 0.000000
# 3 -0.002658 -0.002657 0.014980 0.000000 0.000000 0.000000
# 4 0.000000 0.000000 0.000000 0.062028 0.000000 0.000000
# 5 0.000000 0.000000 0.000000 0.000000 0.062041 0.000000
# 6 0.000000 0.000000 0.000000 0.000000 0.000000 0.048933
#
#
# Mechanical properties :
#
#
# Convention : Reuss Voigt Hill
#
# Bulk Modulus (GPa) = 36.62105 36.65777 36.63941
# Shear Modulus (GPa) = 20.84490 22.52300 21.68395
#
# Velocity S-wave (km/s) = 3.28083 3.41033 3.34620
# Velocity P-wave (km/s) = 5.76732 5.86825 5.81800
#
# Compressibility (1/GPa) = 0.02730670
#
# Stress axis : x y z
#
# Youngs Moduli (GPa) = 72.58239 72.58389 66.75454
#
# Poissons Ratio (x) = 0.16684 0.17743
# Poissons Ratio (y) = 0.16684 0.17740
# Poissons Ratio (z) = 0.19292 0.19289
#
# Static dielectric constant tensor:
#      x y z
#    x 3.958710 0.000000 0.000000 
#    y 0.000000 3.958830 0.000000 
#    z 0.000000 0.000000 3.557440 
# 
# 
# High freq. dielectric constant tensor:
#      x y z
#    x 1.749740 0.000000 0.000000 
#    y 0.000000 1.749740 0.000000 
#    z 0.000000 0.000000 1.749640 
# 
# From -- ./inp_files/6410.got.cif
#   From: 2010.03.12/outbox.cif.g09.slc.cpg/sg121_4_cif.got.tgz:6410.got - 2010.04.06 16:06:48.
