data_PCOD8311549
_publ_section_title
;
Structure prediction by ZEFSAII (Michael W. Deem and Ramdas Pophale) SiO2 
 PCOD8311549
Probable space group: I -4 2 M
;
_chemical_formula_sum "Si O2"
_cell_formula_units_Z 112
_cell_length_a 18.562024
_cell_length_b 18.562024
_cell_length_c 18.534310
_cell_angle_alpha 90.000000
_cell_angle_beta 90.000000
_cell_angle_gamma 90.000000
_cell_volume 6385.973064
_symmetry_space_group_name_H-M "I -4 2 M"
_symmetry_group_IT_number 121
_symmetry_cell_setting 'tetragonal'
loop_
_space_group_symop_operation_xyz
x,y,z
y,-x,-z
-x,-y,z
-y,x,-z
x,-y,-z
-x,y,-z
-y,-x,z
y,x,z
1/2+x,1/2+y,1/2+z
1/2+y,1/2-x,1/2-z
1/2-x,1/2-y,1/2+z
1/2-y,1/2+x,1/2-z
1/2+x,1/2-y,1/2-z
1/2-x,1/2+y,1/2-z
1/2-y,1/2-x,1/2+z
1/2+y,1/2+x,1/2+z
loop_
_atom_site_type_symbol
_atom_site_label
_atom_site_fract_x
_atom_site_fract_y
_atom_site_fract_z
Si Si1 0.797524 0.428061 0.467978
Si Si2 0.552061 0.820326 0.194252
Si Si3 0.715445 0.167889 0.105872
Si Si4 0.070108 0.459007 0.073171
Si Si5 0.818664 0.607775 0.773438
Si Si6 0.075430 0.192090 0.782567
Si Si7 0.799649 0.914388 0.168560
O O1 0.761594 0.500000 0.500000
O O2 0.801737 0.366142 0.528378
O O3 0.876278 0.450509 0.439445
O O4 0.747594 0.403489 0.402904
O O5 0.540211 0.853394 0.115048
O O6 0.476978 0.828945 0.234108
O O7 0.611435 0.866377 0.233022
O O8 0.574162 0.735691 0.205370
O O9 0.758340 0.241661 0.092791
O O10 0.639865 0.185850 0.145767
O O11 0.760765 0.115016 0.156762
O O12 0.000000 0.500000 0.109713
O O13 0.087429 0.500000 0.000000
O O14 0.744666 0.625997 0.731941
O O15 0.116786 0.116786 0.769710
O O16 0.995767 0.178191 0.812196
O O17 0.874686 0.874686 0.156602
#
# Coordination Sequence:
#
# PCOD8311549 Si02
#       7
#    16  16  16  16  16  16  16
#     4  12  21  36  52  78 114 149 185 222 275 331
#     4  10  21  33  52  79 106 145 184 233 272 328
#     4  10  20  36  56  75 105 146 184 226 277 333
#     4  11  22  33  51  78 115 153 188 225 267 330
#     4  10  21  34  54  79 108 141 187 227 276 329
#     4   9  20  38  57  77 104 140 185 236 287 330
#     4  11  22  37  57  82 110 140 185 239 282 336
#
# _framework density 17.538440000000001
#
# number of rings (size 3 to 8) (size 9 to 14) (size 15 to 20)
#    0.000    1.571    4.286    1.714    2.000    0.857 
#    0.000    0.000    0.000    0.000    0.000    0.000 
#    0.000    0.000    0.000    0.000    0.000    0.000 
#
# Total GULP energy -693890.979010 kJ/mol
# GULP energy per Si atom -12390.910339 kJ/mol
# Density = 1.749852 g / cm^3
# Si number density = 17.538440 Si / 1000 Ang^3
#
#
#
# Elastic Constant Matrix: (Units=GPa)
#
#
# Indices 1 2 3 4 5 6 
#
# 1 98.7032 56.7828 37.6413 0.0000 0.0000 0.0000
# 2 56.7828 98.7023 37.6411 0.0000 0.0000 0.0000
# 3 37.6413 37.6411 80.9305 0.0000 0.0000 0.0000
# 4 0.0000 0.0000 0.0000 6.5133 0.0000 0.0000
# 5 0.0000 0.0000 0.0000 0.0000 6.5168 0.0000
# 6 0.0000 0.0000 0.0000 0.0000 0.0000 34.4157
#
#
#
# Elastic Compliance Matrix: (Units=1/GPa)
#
#
# Indices 1 2 3 4 5 6 
#
# 1 0.016078 -0.007777 -0.003861 0.000000 0.000000 0.000000
# 2 -0.007777 0.016078 -0.003861 0.000000 0.000000 0.000000
# 3 -0.003861 -0.003861 0.015948 0.000000 0.000000 0.000000
# 4 0.000000 0.000000 0.000000 0.153532 0.000000 0.000000
# 5 0.000000 0.000000 0.000000 0.000000 0.153449 0.000000
# 6 0.000000 0.000000 0.000000 0.000000 0.000000 0.029057
#
#
# Mechanical properties :
#
#
# Convention : Reuss Voigt Hill
#
# Bulk Modulus (GPa) = 58.45843 60.27402 59.36623
# Shear Modulus (GPa) = 11.88101 19.24055 15.56078
#
# Velocity S-wave (km/s) = 2.60557 3.31577 2.98189
# Velocity P-wave (km/s) = 6.51582 7.00718 6.76596
#
# Compressibility (1/GPa) = 0.01710617
#
# Stress axis : x y z
#
# Youngs Moduli (GPa) = 62.19762 62.19715 62.70550
#
# Poissons Ratio (x) = 0.48371 0.24209
# Poissons Ratio (y) = 0.48372 0.24209
# Poissons Ratio (z) = 0.24013 0.24012
#
# Static dielectric constant tensor:
#      x y z
#    x 3.413270 0.000000 0.000000 
#    y 0.000000 3.413270 0.000000 
#    z 0.000000 0.000000 3.396780 
# 
# 
# High freq. dielectric constant tensor:
#      x y z
#    x 1.676310 0.000000 0.000000 
#    y 0.000000 1.676310 0.000000 
#    z 0.000000 0.000000 1.666660 
# 
# From -- ./inp_files/6630.got.cif
#   From: 2010.03.12/outbox.cif.g09.slc.cpg/sg121_4_cif.got.tgz:6630.got - 2010.04.06 16:06:48.
