data_PCOD8311527
_publ_section_title
;
Structure prediction by ZEFSAII (Michael W. Deem and Ramdas Pophale) SiO2 
 PCOD8311527
Probable space group: I -4 2 M
;
_chemical_formula_sum "Si O2"
_cell_formula_units_Z 88
_cell_length_a 13.621461
_cell_length_b 13.621461
_cell_length_c 25.276672
_cell_angle_alpha 90.000000
_cell_angle_beta 90.000000
_cell_angle_gamma 90.000000
_cell_volume 4689.939879
_symmetry_space_group_name_H-M "I -4 2 M"
_symmetry_group_IT_number 121
_symmetry_cell_setting 'tetragonal'
loop_
_space_group_symop_operation_xyz
x,y,z
y,-x,-z
-x,-y,z
-y,x,-z
x,-y,-z
-x,y,-z
-y,-x,z
y,x,z
1/2+x,1/2+y,1/2+z
1/2+y,1/2-x,1/2-z
1/2-x,1/2-y,1/2+z
1/2-y,1/2+x,1/2-z
1/2+x,1/2-y,1/2-z
1/2-x,1/2+y,1/2-z
1/2-y,1/2-x,1/2+z
1/2+y,1/2+x,1/2+z
loop_
_atom_site_type_symbol
_atom_site_label
_atom_site_fract_x
_atom_site_fract_y
_atom_site_fract_z
Si Si1 0.719905 0.433515 0.330461
Si Si2 0.385684 0.026415 0.381069
Si Si3 0.330219 0.831778 0.925783
Si Si4 0.500000 0.767304 0.500000
Si Si5 0.254240 0.103638 0.900864
Si Si6 0.543883 0.850834 0.764092
O O1 0.610035 0.389966 0.332481
O O2 0.789188 0.376229 0.371418
O O3 0.722062 0.547204 0.347575
O O4 0.758486 0.420519 0.270598
O O5 0.388219 0.129723 0.411673
O O6 0.326553 0.039755 0.326198
O O7 0.500000 0.000000 0.369648
O O8 0.322819 0.947426 0.415098
O O9 0.270863 0.729138 0.938310
O O10 0.326327 0.908009 0.974602
O O11 0.453885 0.705689 0.548689
O O12 0.212755 0.212755 0.896884
O O13 0.437408 0.878818 0.742973
#
# Coordination Sequence:
#
# PCOD8311527 Si02
#       6
#    16  16  16   8  16  16
#     4  10  20  34  52  78 114 152 190 231 283 345
#     4  12  19  35  58  85 112 150 189 244 288 336
#     4  10  20  34  56  85 114 148 190 235 290 342
#     4  10  20  37  58  81 114 146 186 231 280 347
#     4  11  23  37  56  84 115 151 193 237 287 340
#     4  11  16  30  54  79 107 142 189 235 280 333
#
# _framework density 18.763566000000001
#
# number of rings (size 3 to 8) (size 9 to 14) (size 15 to 20)
#    0.000    1.273    9.091    0.545    0.000    3.273 
#    0.000    0.909    0.000    4.091    0.000    0.000 
#    0.000    2.909    0.000    0.000    0.000    0.000 
#
# Total GULP energy -545079.777652 kJ/mol
# GULP energy per Si atom -12388.176765 kJ/mol
# Density = 1.872086 g / cm^3
# Si number density = 18.763566 Si / 1000 Ang^3
#
#
#
# Elastic Constant Matrix: (Units=GPa)
#
#
# Indices 1 2 3 4 5 6 
#
# 1 82.8899 59.8241 31.8997 0.0000 0.0000 0.0000
# 2 59.8241 82.8892 31.8996 0.0000 0.0000 0.0000
# 3 31.8997 31.8996 81.1631 0.0000 0.0000 0.0000
# 4 0.0000 0.0000 0.0000 16.6212 0.0000 0.0000
# 5 0.0000 0.0000 0.0000 0.0000 16.6214 0.0000
# 6 0.0000 0.0000 0.0000 0.0000 0.0000 17.9190
#
#
#
# Elastic Compliance Matrix: (Units=1/GPa)
#
#
# Indices 1 2 3 4 5 6 
#
# 1 0.025928 -0.017427 -0.003341 0.000000 0.000000 0.000000
# 2 -0.017427 0.025928 -0.003341 0.000000 0.000000 0.000000
# 3 -0.003341 -0.003341 0.014947 0.000000 0.000000 0.000000
# 4 0.000000 0.000000 0.000000 0.060164 0.000000 0.000000
# 5 0.000000 0.000000 0.000000 0.000000 0.060163 0.000000
# 6 0.000000 0.000000 0.000000 0.000000 0.000000 0.055807
#
#
# Mechanical properties :
#
#
# Convention : Reuss Voigt Hill
#
# Bulk Modulus (GPa) = 53.80882 54.90988 54.35935
# Shear Modulus (GPa) = 16.81522 18.45358 17.63440
#
# Velocity S-wave (km/s) = 2.99685 3.13945 3.06898
# Velocity P-wave (km/s) = 6.38078 6.51684 6.44917
#
# Compressibility (1/GPa) = 0.01858431
#
# Stress axis : x y z
#
# Youngs Moduli (GPa) = 38.56892 38.56857 66.90253
#
# Poissons Ratio (x) = 0.67214 0.22352
# Poissons Ratio (y) = 0.67214 0.22352
# Poissons Ratio (z) = 0.12886 0.12886
#
# Static dielectric constant tensor:
#      x y z
#    x 3.284980 0.000000 0.000000 
#    y 0.000000 3.284990 0.000000 
#    z 0.000000 0.000000 3.625430 
# 
# 
# High freq. dielectric constant tensor:
#      x y z
#    x 1.694460 0.000000 0.000000 
#    y 0.000000 1.694460 0.000000 
#    z 0.000000 0.000000 1.739680 
# 
# From -- ./inp_files/7082.got.cif
#   From: 2010.03.12/outbox.cif.g09.slc.cpg/sg121_4_cif.got.tgz:7082.got - 2010.04.06 16:06:48.
