data_PCOD8311555
_publ_section_title
;
Structure prediction by ZEFSAII (Michael W. Deem and Ramdas Pophale) SiO2 
 PCOD8311555
Probable space group: I -4 2 M
;
_chemical_formula_sum "Si O2"
_cell_formula_units_Z 96
_cell_length_a 14.975793
_cell_length_b 14.975793
_cell_length_c 23.651299
_cell_angle_alpha 90.000000
_cell_angle_beta 90.000000
_cell_angle_gamma 90.000000
_cell_volume 5304.380324
_symmetry_space_group_name_H-M "I -4 2 M"
_symmetry_group_IT_number 121
_symmetry_cell_setting 'tetragonal'
loop_
_space_group_symop_operation_xyz
x,y,z
y,-x,-z
-x,-y,z
-y,x,-z
x,-y,-z
-x,y,-z
-y,-x,z
y,x,z
1/2+x,1/2+y,1/2+z
1/2+y,1/2-x,1/2-z
1/2-x,1/2-y,1/2+z
1/2-y,1/2+x,1/2-z
1/2+x,1/2-y,1/2-z
1/2-x,1/2+y,1/2-z
1/2-y,1/2-x,1/2+z
1/2+y,1/2+x,1/2+z
loop_
_atom_site_type_symbol
_atom_site_label
_atom_site_fract_x
_atom_site_fract_y
_atom_site_fract_z
Si Si1 0.218723 0.443768 0.115985
Si Si2 0.069975 0.930026 0.230700
Si Si3 0.201844 0.060331 0.203502
Si Si4 0.072378 0.072378 0.637156
Si Si5 0.632138 0.025308 0.728817
Si Si6 0.000000 0.353483 0.000000
Si Si7 0.639104 0.000000 0.500000
Si Si8 0.874850 0.263974 0.912242
O O1 0.325463 0.451449 0.121325
O O2 0.163110 0.493572 0.166152
O O3 0.184382 0.342629 0.114716
O O4 0.199485 0.483121 0.054291
O O5 0.065468 0.934533 0.297036
O O6 0.042525 0.831156 0.210423
O O7 0.000000 0.000000 0.203208
O O8 0.127769 0.127769 0.228655
O O9 0.287992 0.076307 0.241068
O O10 0.215505 0.075477 0.138088
O O11 0.000000 0.000000 0.610979
O O12 0.553246 0.098992 0.728237
O O13 0.043878 0.292203 0.047754
O O14 0.079594 0.416847 0.978547
O O15 0.806463 0.193538 0.942070
#
# Coordination Sequence:
#
# PCOD8311555 Si02
#       8
#    16   8  16   8  16   8   8  16
#     4  11  21  39  60  84 116 155 201 237 294 352
#     4   9  18  34  56  81 112 152 187 229 294 362
#     4  10  20  36  58  84 114 149 192 236 297 364
#     4  11  22  38  62  85 118 159 197 245 298 359
#     4  11  23  34  57  89 122 150 190 251 295 348
#     4   9  20  38  60  81 112 150 196 245 296 336
#     4   9  22  38  61  84 110 158 199 246 286 349
#     4  10  20  37  61  85 113 153 199 241 291 359
#
# _framework density 18.09825
#
# number of rings (size 3 to 8) (size 9 to 14) (size 15 to 20)
#    0.000    1.833    4.167    0.000    2.333    1.333 
#    4.500    0.000    0.000    0.000    0.000    0.000 
#    0.000    0.000    0.000    0.000    0.000    0.000 
#
# Total GULP energy -594646.201699 kJ/mol
# GULP energy per Si atom -12388.462535 kJ/mol
# Density = 1.805706 g / cm^3
# Si number density = 18.098250 Si / 1000 Ang^3
#
#
#
# Elastic Constant Matrix: (Units=GPa)
#
#
# Indices 1 2 3 4 5 6 
#
# 1 93.5005 53.0068 48.2697 0.0000 0.0000 0.0000
# 2 53.0068 93.4994 48.2700 0.0000 0.0000 0.0000
# 3 48.2697 48.2700 93.8963 0.0000 0.0000 0.0000
# 4 0.0000 0.0000 0.0000 28.6324 0.0000 0.0000
# 5 0.0000 0.0000 0.0000 0.0000 28.6326 0.0000
# 6 0.0000 0.0000 0.0000 0.0000 0.0000 23.7569
#
#
#
# Elastic Compliance Matrix: (Units=1/GPa)
#
#
# Indices 1 2 3 4 5 6 
#
# 1 0.017509 -0.007187 -0.005306 0.000000 0.000000 0.000000
# 2 -0.007187 0.017509 -0.005307 0.000000 0.000000 0.000000
# 3 -0.005306 -0.005307 0.016106 0.000000 0.000000 0.000000
# 4 0.000000 0.000000 0.000000 0.034925 0.000000 0.000000
# 5 0.000000 0.000000 0.000000 0.000000 0.034925 0.000000
# 6 0.000000 0.000000 0.000000 0.000000 0.000000 0.042093
#
#
# Mechanical properties :
#
#
# Convention : Reuss Voigt Hill
#
# Bulk Modulus (GPa) = 64.41357 64.44322 64.42840
# Shear Modulus (GPa) = 24.52890 24.96104 24.74497
#
# Velocity S-wave (km/s) = 3.68546 3.71778 3.70166
# Velocity P-wave (km/s) = 7.33338 7.35622 7.34481
#
# Compressibility (1/GPa) = 0.01552468
#
# Stress axis : x y z
#
# Youngs Moduli (GPa) = 57.11442 57.11326 62.08921
#
# Poissons Ratio (x) = 0.41045 0.32946
# Poissons Ratio (y) = 0.41046 0.32948
# Poissons Ratio (z) = 0.30307 0.30307
#
# Static dielectric constant tensor:
#      x y z
#    x 3.587740 0.000000 0.000000 
#    y 0.000000 3.587730 0.000000 
#    z 0.000000 0.000000 3.169030 
# 
# 
# High freq. dielectric constant tensor:
#      x y z
#    x 1.707830 0.000000 0.000000 
#    y 0.000000 1.707830 0.000000 
#    z 0.000000 0.000000 1.684500 
# 
# From -- ./inp_files/7164.got.cif
#   From: 2010.03.12/outbox.cif.g09.slc.cpg/sg121_4_cif.got.tgz:7164.got - 2010.04.06 16:06:48.
