data_PCOD8311809
_publ_section_title
;
Structure prediction by ZEFSAII (Michael W. Deem and Ramdas Pophale) SiO2 
 PCOD8311809
Probable space group: I -4 2 D
;
_chemical_formula_sum "Si O2"
_cell_formula_units_Z 88
_cell_length_a 11.716405
_cell_length_b 11.716405
_cell_length_c 33.307670
_cell_angle_alpha 90.000000
_cell_angle_beta 90.000000
_cell_angle_gamma 90.000000
_cell_volume 4572.281959
_symmetry_space_group_name_H-M "I -4 2 D"
_symmetry_group_IT_number 122
_symmetry_cell_setting 'tetragonal'
loop_
_space_group_symop_operation_xyz
x,y,z
y,-x,-z
-x,-y,z
-y,x,-z
x,1/2-y,1/4-z
-x,1/2+y,1/4-z
-y,1/2-x,1/4+z
y,1/2+x,1/4+z
1/2+x,1/2+y,1/2+z
1/2+y,1/2-x,1/2-z
1/2-x,1/2-y,1/2+z
1/2-y,1/2+x,1/2-z
1/2+x,-y,3/4-z
1/2-x,y,3/4-z
1/2-y,-x,3/4+z
1/2+y,x,3/4+z
loop_
_atom_site_type_symbol
_atom_site_label
_atom_site_fract_x
_atom_site_fract_y
_atom_site_fract_z
Si Si1 0.647533 0.750000 0.125000
Si Si2 0.195806 0.113305 0.755872
Si Si3 0.597553 0.153762 0.596287
Si Si4 0.842693 0.903248 0.161284
Si Si5 0.128546 0.994460 0.306752
Si Si6 0.642756 0.815434 0.502002
O O1 0.729971 0.848668 0.141652
O O2 0.562072 0.708516 0.159847
O O3 0.184993 0.138430 0.802343
O O4 0.076343 0.129318 0.734127
O O5 0.282980 0.204770 0.738285
O O6 0.236168 0.984255 0.748442
O O7 0.650967 0.250000 0.625000
O O8 0.460582 0.156300 0.601945
O O9 0.653105 0.031513 0.605884
O O10 0.840212 0.899630 0.209828
O O11 0.172449 0.117797 0.289865
O O12 0.000000 0.000000 0.324402
#
# Coordination Sequence:
#
# PCOD8311809 Si02
#       6
#     8  16  16  16  16  16
#     4  12  22  40  68  92 122 174 220 272 314 382
#     4  10  20  37  64  87 122 166 202 253 320 385
#     4  10  20  36  58  95 126 163 205 260 314 383
#     4  10  20  37  64  87 125 167 210 249 324 388
#     4  10  22  41  63  89 126 168 212 264 315 375
#     4  10  20  40  62  89 122 167 212 250 318 393
#
# _framework density 19.246406
#
# number of rings (size 3 to 8) (size 9 to 14) (size 15 to 20)
#    0.000    1.818    4.545    0.000    0.000    3.273 
#    4.909    0.000    0.000    0.000    0.000    0.000 
#    0.000    0.000    0.000    0.000    0.000    0.000 
#
# Total GULP energy -545273.848925 kJ/mol
# GULP energy per Si atom -12392.587476 kJ/mol
# Density = 1.920260 g / cm^3
# Si number density = 19.246406 Si / 1000 Ang^3
#
#
#
# Elastic Constant Matrix: (Units=GPa)
#
#
# Indices 1 2 3 4 5 6 
#
# 1 78.1397 47.6490 36.9711 0.0000 0.0000 0.0000
# 2 47.6490 78.1397 36.9711 0.0000 0.0000 0.0000
# 3 36.9711 36.9711 96.1220 0.0000 0.0000 0.0000
# 4 0.0000 0.0000 0.0000 24.6233 0.0000 0.0000
# 5 0.0000 0.0000 0.0000 0.0000 24.6233 0.0000
# 6 0.0000 0.0000 0.0000 0.0000 0.0000 33.0344
#
#
#
# Elastic Compliance Matrix: (Units=1/GPa)
#
#
# Indices 1 2 3 4 5 6 
#
# 1 0.021535 -0.011262 -0.003951 0.000000 0.000000 0.000000
# 2 -0.011262 0.021535 -0.003951 0.000000 0.000000 0.000000
# 3 -0.003951 -0.003951 0.013443 0.000000 0.000000 0.000000
# 4 0.000000 0.000000 0.000000 0.040612 0.000000 0.000000
# 5 0.000000 0.000000 0.000000 0.000000 0.040612 0.000000
# 6 0.000000 0.000000 0.000000 0.000000 0.000000 0.030272
#
#
# Mechanical properties :
#
#
# Convention : Reuss Voigt Hill
#
# Bulk Modulus (GPa) = 54.99519 55.06488 55.03004
# Shear Modulus (GPa) = 23.54082 25.17689 24.35886
#
# Velocity S-wave (km/s) = 3.50112 3.62074 3.56143
# Velocity P-wave (km/s) = 6.70672 6.79354 6.75027
#
# Compressibility (1/GPa) = 0.01818341
#
# Stress axis : x y z
#
# Youngs Moduli (GPa) = 46.43688 46.43688 74.38931
#
# Poissons Ratio (x) = 0.52298 0.29391
# Poissons Ratio (y) = 0.52298 0.29391
# Poissons Ratio (z) = 0.18347 0.18347
#
# Static dielectric constant tensor:
#      x y z
#    x 3.547470 0.000000 0.000000 
#    y 0.000000 3.547470 0.000000 
#    z 0.000000 0.000000 3.420370 
# 
# 
# High freq. dielectric constant tensor:
#      x y z
#    x 1.740730 0.000000 0.000000 
#    y 0.000000 1.740730 0.000000 
#    z 0.000000 0.000000 1.748870 
# 
# From -- ./inp_files/9517.got.cif
#   From: 2010.03.12/outbox.cif.g09.slc.cpg/sg122_5_cif.got.tgz:9517.got - 2010.04.06 16:17:16.
