data_PCOD8311277
_publ_section_title
;
Structure prediction by ZEFSAII (Michael W. Deem and Ramdas Pophale) SiO2 
 PCOD8311277
Probable space group: I -4 C 2
;
_chemical_formula_sum "Si O2"
_cell_formula_units_Z 88
_cell_length_a 11.297045
_cell_length_b 11.297045
_cell_length_c 28.457767
_cell_angle_alpha 90.000000
_cell_angle_beta 90.000000
_cell_angle_gamma 90.000000
_cell_volume 3631.872022
_symmetry_space_group_name_H-M "I -4 C 2"
_symmetry_group_IT_number 120
_symmetry_cell_setting 'tetragonal'
loop_
_space_group_symop_operation_xyz
x,y,z
y,-x,-z
-x,-y,z
-y,x,-z
y,x,1/2-z
-y,-x,1/2-z
-x,y,1/2+z
x,-y,1/2+z
1/2+x,1/2+y,1/2+z
1/2+y,1/2-x,1/2-z
1/2-x,1/2-y,1/2+z
1/2-y,1/2+x,1/2-z
1/2+y,1/2+x,-z
1/2-y,1/2-x,-z
1/2-x,1/2+y,z
1/2+x,1/2-y,z
loop_
_atom_site_type_symbol
_atom_site_label
_atom_site_fract_x
_atom_site_fract_y
_atom_site_fract_z
Si Si1 0.677630 0.568347 0.509769
Si Si2 0.500000 0.000000 0.365543
Si Si3 0.856244 0.683900 0.573405
Si Si4 0.582598 0.794242 0.300318
Si Si5 0.210972 0.932765 0.780910
Si Si6 0.579557 0.606224 0.137841
O O1 0.642603 0.430767 0.513174
O O2 0.726501 0.625722 0.559395
O O3 0.787065 0.574579 0.474264
O O4 0.592757 0.065918 0.398237
O O5 0.440664 0.092674 0.331690
O O6 0.849843 0.808964 0.601724
O O7 0.723308 0.807096 0.290744
O O8 0.516662 0.795885 0.250309
O O9 0.546351 0.676217 0.328280
O O10 0.093840 0.906161 0.750000
O O11 0.183599 0.992888 0.830275
O O12 0.500000 0.500000 0.113582
#
# Coordination Sequence:
#
# PCOD8311277 Si02
#       6
#    16   8  16  16  16  16
#     4  10  26  51  81 114 152 196 247 315 401 494
#     4  12  28  48  72 114 150 204 264 327 395 468
#     4  11  28  48  78 113 153 200 254 324 401 478
#     4  12  27  44  70 103 156 205 268 324 392 460
#     4  12  24  46  70 104 151 209 267 325 395 459
#     4  12  27  47  76 113 153 207 266 332 392 478
#
# _framework density 24.229928000000001
#
# number of rings (size 3 to 8) (size 9 to 14) (size 15 to 20)
#    0.000    0.545    3.636    2.727   10.182    2.909 
#    0.000    0.000    0.000    0.000    0.000    0.000 
#    0.000    0.000    0.000    0.000    0.000    0.000 
#
# Total GULP energy -545247.119456 kJ/mol
# GULP energy per Si atom -12391.979988 kJ/mol
# Density = 2.417478 g / cm^3
# Si number density = 24.229928 Si / 1000 Ang^3
#
#
#
# Elastic Constant Matrix: (Units=GPa)
#
#
# Indices 1 2 3 4 5 6 
#
# 1 104.2727 46.5213 39.0326 0.0000 0.0000 0.0000
# 2 46.5213 104.2719 39.0325 0.0000 0.0000 0.0000
# 3 39.0326 39.0325 101.3161 0.0000 0.0000 0.0000
# 4 0.0000 0.0000 0.0000 47.8846 0.0000 0.0000
# 5 0.0000 0.0000 0.0000 0.0000 47.8848 0.0000
# 6 0.0000 0.0000 0.0000 0.0000 0.0000 41.4969
#
#
#
# Elastic Compliance Matrix: (Units=1/GPa)
#
#
# Indices 1 2 3 4 5 6 
#
# 1 0.012800 -0.004516 -0.003191 0.000000 0.000000 0.000000
# 2 -0.004516 0.012800 -0.003191 0.000000 0.000000 0.000000
# 3 -0.003191 -0.003191 0.012329 0.000000 0.000000 0.000000
# 4 0.000000 0.000000 0.000000 0.020884 0.000000 0.000000
# 5 0.000000 0.000000 0.000000 0.000000 0.020883 0.000000
# 6 0.000000 0.000000 0.000000 0.000000 0.000000 0.024098
#
#
# Mechanical properties :
#
#
# Convention : Reuss Voigt Hill
#
# Bulk Modulus (GPa) = 61.99197 62.11485 62.05341
# Shear Modulus (GPa) = 38.17724 39.80489 38.99106
#
# Velocity S-wave (km/s) = 3.97372 4.05754 4.01585
# Velocity P-wave (km/s) = 6.83333 6.90237 6.86794
#
# Compressibility (1/GPa) = 0.01613112
#
# Stress axis : x y z
#
# Youngs Moduli (GPa) = 78.12698 78.12642 81.10915
#
# Poissons Ratio (x) = 0.35282 0.25885
# Poissons Ratio (y) = 0.35282 0.25885
# Poissons Ratio (z) = 0.24933 0.24933
#
# Static dielectric constant tensor:
#      x y z
#    x 4.470280 0.000000 0.000000 
#    y 0.000000 4.470280 0.000000 
#    z 0.000000 0.000000 4.515930 
# 
# 
# High freq. dielectric constant tensor:
#      x y z
#    x 1.963920 0.000000 0.000000 
#    y 0.000000 1.963920 0.000000 
#    z 0.000000 0.000000 1.973330 
# 
# From -- ./inp_files/6599.got.cif
#   From: 2010.03.12/outbox.cif.g09.slc.cpg/sg120_4_cif.got.tgz:6599.got - 2010.04.06 16:00:44.
