data_PCOD8311510
_publ_section_title
;
Structure prediction by ZEFSAII (Michael W. Deem and Ramdas Pophale) SiO2 
 PCOD8311510
Probable space group: I -4 2 M
;
_chemical_formula_sum "Si O2"
_cell_formula_units_Z 96
_cell_length_a 18.207981
_cell_length_b 18.207981
_cell_length_c 16.201032
_cell_angle_alpha 90.000000
_cell_angle_beta 90.000000
_cell_angle_gamma 90.000000
_cell_volume 5371.137408
_symmetry_space_group_name_H-M "I -4 2 M"
_symmetry_group_IT_number 121
_symmetry_cell_setting 'tetragonal'
loop_
_space_group_symop_operation_xyz
x,y,z
y,-x,-z
-x,-y,z
-y,x,-z
x,-y,-z
-x,y,-z
-y,-x,z
y,x,z
1/2+x,1/2+y,1/2+z
1/2+y,1/2-x,1/2-z
1/2-x,1/2-y,1/2+z
1/2-y,1/2+x,1/2-z
1/2+x,1/2-y,1/2-z
1/2-x,1/2+y,1/2-z
1/2-y,1/2-x,1/2+z
1/2+y,1/2+x,1/2+z
loop_
_atom_site_type_symbol
_atom_site_label
_atom_site_fract_x
_atom_site_fract_y
_atom_site_fract_z
Si Si1 0.317760 0.059425 0.649185
Si Si2 0.863492 0.417299 0.470297
Si Si3 0.418364 0.703517 0.521160
Si Si4 0.189554 0.601265 0.112113
Si Si5 0.694665 0.578506 0.013295
Si Si6 0.862154 0.256517 0.192770
O O1 0.393437 0.100045 0.618186
O O2 0.258461 0.074256 0.579447
O O3 0.285077 0.087139 0.734617
O O4 0.328175 0.972454 0.663758
O O5 0.879358 0.500000 0.500000
O O6 0.775615 0.402439 0.465464
O O7 0.901367 0.369386 0.539735
O O8 0.500000 0.673546 0.500000
O O9 0.359137 0.640864 0.498572
O O10 0.412385 0.726514 0.617517
O O11 0.185756 0.673726 0.166601
O O12 0.271208 0.602555 0.074266
O O13 0.635078 0.635078 0.045689
O O14 0.655880 0.500000 0.000000
O O15 0.807458 0.192542 0.223272
#
# Coordination Sequence:
#
# PCOD8311510 Si02
#       6
#    16  16  16  16  16  16
#     4  10  20  32  49  74 101 131 166 207 255 299
#     4   9  18  33  51  72 101 136 173 209 250 309
#     4   9  19  35  55  78 103 135 175 218 261 310
#     4   9  19  32  47  69  97 129 165 204 247 299
#     4   9  17  31  50  70  93 122 158 197 238 290
#     4  10  20  34  52  74 103 136 171 215 262 308
#
# _framework density 17.873308999999999
#
# number of rings (size 3 to 8) (size 9 to 14) (size 15 to 20)
#    0.000    2.667    0.000    2.500    0.000   10.333 
#    0.000    0.000    0.000    4.000    0.000    4.667 
#    0.000    0.000    0.000    0.000    0.000    0.000 
#
# Total GULP energy -594833.436284 kJ/mol
# GULP energy per Si atom -12392.363256 kJ/mol
# Density = 1.783263 g / cm^3
# Si number density = 17.873309 Si / 1000 Ang^3
#
#
#
# Elastic Constant Matrix: (Units=GPa)
#
#
# Indices 1 2 3 4 5 6 
#
# 1 85.9336 49.7297 20.5462 0.0000 0.0000 0.0000
# 2 49.7297 85.9360 20.5471 0.0000 0.0000 0.0000
# 3 20.5462 20.5471 46.7736 0.0000 0.0000 0.0000
# 4 0.0000 0.0000 0.0000 22.3307 0.0000 0.0000
# 5 0.0000 0.0000 0.0000 0.0000 22.3304 0.0000
# 6 0.0000 0.0000 0.0000 0.0000 0.0000 19.7714
#
#
#
# Elastic Compliance Matrix: (Units=1/GPa)
#
#
# Indices 1 2 3 4 5 6 
#
# 1 0.018062 -0.009559 -0.003735 0.000000 0.000000 0.000000
# 2 -0.009559 0.018061 -0.003735 0.000000 0.000000 0.000000
# 3 -0.003735 -0.003735 0.024661 0.000000 0.000000 0.000000
# 4 0.000000 0.000000 0.000000 0.044781 0.000000 0.000000
# 5 0.000000 0.000000 0.000000 0.000000 0.044782 0.000000
# 6 0.000000 0.000000 0.000000 0.000000 0.000000 0.050578
#
#
# Mechanical properties :
#
#
# Convention : Reuss Voigt Hill
#
# Bulk Modulus (GPa) = 37.41668 44.47658 40.94663
# Shear Modulus (GPa) = 20.50089 21.40784 20.95437
#
# Velocity S-wave (km/s) = 3.39043 3.46461 3.42772
# Velocity P-wave (km/s) = 6.02549 6.39868 6.21489
#
# Compressibility (1/GPa) = 0.02672605
#
# Stress axis : x y z
#
# Youngs Moduli (GPa) = 55.36604 55.36714 40.54997
#
# Poissons Ratio (x) = 0.52925 0.15144
# Poissons Ratio (y) = 0.52924 0.15146
# Poissons Ratio (z) = 0.20678 0.20680
#
# Static dielectric constant tensor:
#      x y z
#    x 3.517780 0.000000 0.000000 
#    y 0.000000 3.517770 0.000000 
#    z 0.000000 0.000000 3.556100 
# 
# 
# High freq. dielectric constant tensor:
#      x y z
#    x 1.692110 0.000000 0.000000 
#    y 0.000000 1.692110 0.000000 
#    z 0.000000 0.000000 1.670890 
# 
# From -- ./inp_files/5381.got.cif
#   From: 2010.03.12/outbox.cif.g09.slc.cpg/sg121_3_cif.got.tgz:5381.got - 2010.04.06 16:06:48.
