data_PCOD8311217
_publ_section_title
;
Structure prediction by ZEFSAII (Michael W. Deem and Ramdas Pophale) SiO2 
 PCOD8311217
Probable space group: I -4 C 2
;
_chemical_formula_sum "Si O2"
_cell_formula_units_Z 116
_cell_length_a 17.650844
_cell_length_b 17.650844
_cell_length_c 17.933540
_cell_angle_alpha 90.000000
_cell_angle_beta 90.000000
_cell_angle_gamma 90.000000
_cell_volume 5587.235525
_symmetry_space_group_name_H-M "I -4 C 2"
_symmetry_group_IT_number 120
_symmetry_cell_setting 'tetragonal'
loop_
_space_group_symop_operation_xyz
x,y,z
y,-x,-z
-x,-y,z
-y,x,-z
y,x,1/2-z
-y,-x,1/2-z
-x,y,1/2+z
x,-y,1/2+z
1/2+x,1/2+y,1/2+z
1/2+y,1/2-x,1/2-z
1/2-x,1/2-y,1/2+z
1/2-y,1/2+x,1/2-z
1/2+y,1/2+x,-z
1/2-y,1/2-x,-z
1/2-x,1/2+y,z
1/2+x,1/2-y,z
loop_
_atom_site_type_symbol
_atom_site_label
_atom_site_fract_x
_atom_site_fract_y
_atom_site_fract_z
Si Si1 0.197410 0.451573 0.547162
Si Si2 0.642059 0.511461 0.095209
Si Si3 0.582343 0.969854 0.637902
Si Si4 0.660217 0.974947 0.280651
Si Si5 0.500000 0.500000 0.500000
Si Si6 0.843334 0.108447 0.331075
Si Si7 0.831609 0.045436 0.755706
Si Si8 0.317195 0.110989 0.886015
O O1 0.282127 0.480204 0.558718
O O2 0.139623 0.518930 0.569299
O O3 0.179201 0.376617 0.597616
O O4 0.186194 0.439485 0.460177
O O5 0.571634 0.476466 0.050405
O O6 0.635001 0.602217 0.101295
O O7 0.638042 0.492122 0.181423
O O8 0.581459 0.881552 0.661264
O O9 0.500000 0.000000 0.614183
O O10 0.611109 0.021610 0.705946
O O11 0.741710 0.940435 0.259253
O O12 0.660447 0.058321 0.316513
O O13 0.854028 0.145972 0.250000
O O14 0.764914 0.141533 0.363592
O O15 0.849475 0.015689 0.322040
O O16 0.873667 0.126334 0.750000
#
# Coordination Sequence:
#
# PCOD8311217 Si02
#       8
#    16  16  16  16   4  16  16  16
#     4  11  23  39  62  94 134 168 209 267 336 404
#     4  11  22  40  63  92 121 169 220 262 324 395
#     4  12  20  37  65  95 123 165 215 274 320 397
#     4  11  20  37  64  91 126 164 216 269 327 387
#     4  12  24  36  66  92 120 180 224 266 320 408
#     4   9  20  40  67  95 126 169 216 276 325 391
#     4  10  21  38  63  93 127 159 217 280 327 381
#     4  10  22  40  61  96 130 171 209 268 340 397
#
# _framework density 20.761610000000001
#
# number of rings (size 3 to 8) (size 9 to 14) (size 15 to 20)
#    0.000    1.379    4.138    1.655    0.000    3.586 
#    0.000    2.069    0.000    3.310    0.000    0.000 
#    0.000    0.000    0.000    0.000    0.000    0.000 
#
# Total GULP energy -718630.370687 kJ/mol
# GULP energy per Si atom -12390.178805 kJ/mol
# Density = 2.071436 g / cm^3
# Si number density = 20.761610 Si / 1000 Ang^3
#
#
#
# Elastic Constant Matrix: (Units=GPa)
#
#
# Indices 1 2 3 4 5 6 
#
# 1 115.4982 51.0683 17.8334 0.0000 0.0000 0.0000
# 2 51.0683 115.4947 17.8350 0.0000 0.0000 0.0000
# 3 17.8334 17.8350 61.1278 0.0000 0.0000 0.0000
# 4 0.0000 0.0000 0.0000 26.4775 0.0000 0.0000
# 5 0.0000 0.0000 0.0000 0.0000 26.4764 0.0000
# 6 0.0000 0.0000 0.0000 0.0000 0.0000 24.7946
#
#
#
# Elastic Compliance Matrix: (Units=1/GPa)
#
#
# Indices 1 2 3 4 5 6 
#
# 1 0.010962 -0.004559 -0.001868 0.000000 0.000000 0.000000
# 2 -0.004559 0.010963 -0.001869 0.000000 0.000000 0.000000
# 3 -0.001868 -0.001869 0.017449 0.000000 0.000000 0.000000
# 4 0.000000 0.000000 0.000000 0.037768 0.000000 0.000000
# 5 0.000000 0.000000 0.000000 0.000000 0.037769 0.000000
# 6 0.000000 0.000000 0.000000 0.000000 0.000000 0.040331
#
#
# Mechanical properties :
#
#
# Convention : Reuss Voigt Hill
#
# Bulk Modulus (GPa) = 43.89124 51.73269 47.81196
# Shear Modulus (GPa) = 27.86630 29.24197 28.55414
#
# Velocity S-wave (km/s) = 3.66758 3.75702 3.71257
# Velocity P-wave (km/s) = 6.25471 6.61754 6.43868
#
# Compressibility (1/GPa) = 0.02278359
#
# Stress axis : x y z
#
# Youngs Moduli (GPa) = 91.22225 91.21859 57.30881
#
# Poissons Ratio (x) = 0.41584 0.10706
# Poissons Ratio (y) = 0.41586 0.10709
# Poissons Ratio (z) = 0.17041 0.17045
#
# Static dielectric constant tensor:
#      x y z
#    x 3.947770 0.000000 0.000000 
#    y 0.000000 3.947760 0.000000 
#    z 0.000000 0.000000 3.865070 
# 
# 
# High freq. dielectric constant tensor:
#      x y z
#    x 1.803980 0.000000 0.000000 
#    y 0.000000 1.803980 0.000000 
#    z 0.000000 0.000000 1.815780 
# 
# From -- ./inp_files/4597.got.cif
#   From: 2010.03.12/outbox.cif.g09.slc.cpg/sg120_3_cif.got.tgz:4597.got - 2010.04.06 16:00:44.
