data_PCOD8311680
_publ_section_title
;
Structure prediction by ZEFSAII (Michael W. Deem and Ramdas Pophale) SiO2 
 PCOD8311680
Probable space group: I -4 2 M
;
_chemical_formula_sum "Si O2"
_cell_formula_units_Z 96
_cell_length_a 17.785583
_cell_length_b 17.785583
_cell_length_c 17.785596
_cell_angle_alpha 90.000000
_cell_angle_beta 90.000000
_cell_angle_gamma 90.000000
_cell_volume 5626.063562
_symmetry_space_group_name_H-M "I -4 2 M"
_symmetry_group_IT_number 121
_symmetry_cell_setting 'tetragonal'
loop_
_space_group_symop_operation_xyz
x,y,z
y,-x,-z
-x,-y,z
-y,x,-z
x,-y,-z
-x,y,-z
-y,-x,z
y,x,z
1/2+x,1/2+y,1/2+z
1/2+y,1/2-x,1/2-z
1/2-x,1/2-y,1/2+z
1/2-y,1/2+x,1/2-z
1/2+x,1/2-y,1/2-z
1/2-x,1/2+y,1/2-z
1/2-y,1/2-x,1/2+z
1/2+y,1/2+x,1/2+z
loop_
_atom_site_type_symbol
_atom_site_label
_atom_site_fract_x
_atom_site_fract_y
_atom_site_fract_z
Si Si1 0.659729 0.097992 0.280218
Si Si2 0.845482 0.417460 0.534295
Si Si3 0.417460 0.034295 0.345481
Si Si4 0.154521 0.965703 0.917461
Si Si5 0.219780 0.659731 0.402009
Si Si6 0.219781 0.902009 0.159729
O O1 0.592884 0.097694 0.220560
O O2 0.660018 0.177494 0.322506
O O3 0.739575 0.085731 0.239575
O O4 0.645052 0.031029 0.339712
O O5 0.836755 0.500000 0.500000
O O6 0.926324 0.409106 0.573677
O O7 0.839714 0.354947 0.468972
O O8 0.779440 0.402306 0.592884
O O9 0.500000 0.000000 0.336753
O O10 0.073679 0.926322 0.909109
O O11 0.220561 0.907113 0.902308
O O12 0.160290 0.031026 0.854948
O O13 0.163250 0.000000 0.000000
O O14 0.260422 0.739579 0.414270
O O15 0.177493 0.822508 0.160016
#
# Coordination Sequence:
#
# PCOD8311680 Si02
#       6
#    16  16  16  16  16  16
#     4  11  21  35  52  74 104 140 175 212 254 303
#     4  11  21  33  53  78 105 135 169 210 258 309
#     4  11  21  33  53  78 105 135 169 210 258 309
#     4  11  21  33  53  78 105 135 169 210 258 309
#     4  11  21  35  52  74 104 140 175 212 254 303
#     4  11  21  35  52  74 104 140 175 212 254 303
#
# _framework density 17.06344
#
# number of rings (size 3 to 8) (size 9 to 14) (size 15 to 20)
#    0.000    1.000    5.000    3.500    0.000    3.500 
#    0.000    0.000    0.000    1.000    0.000    0.000 
#    0.000    0.000    0.000    0.000    0.000    1.000 
#
# Total GULP energy -595248.813626 kJ/mol
# GULP energy per Si atom -12401.016951 kJ/mol
# Density = 1.702460 g / cm^3
# Si number density = 17.063440 Si / 1000 Ang^3
#
#
#
# Elastic Constant Matrix: (Units=GPa)
#
#
# Indices 1 2 3 4 5 6 
#
# 1 92.7988 56.6142 56.6160 0.0000 0.0000 0.0000
# 2 56.6142 92.7993 56.6159 0.0000 0.0000 0.0000
# 3 56.6160 56.6159 92.8005 0.0000 0.0000 0.0000
# 4 0.0000 0.0000 0.0000 16.1455 0.0000 0.0000
# 5 0.0000 0.0000 0.0000 0.0000 16.1454 0.0000
# 6 0.0000 0.0000 0.0000 0.0000 0.0000 16.1437
#
#
#
# Elastic Compliance Matrix: (Units=1/GPa)
#
#
# Indices 1 2 3 4 5 6 
#
# 1 0.020042 -0.007594 -0.007595 0.000000 0.000000 0.000000
# 2 -0.007594 0.020042 -0.007594 0.000000 0.000000 0.000000
# 3 -0.007595 -0.007594 0.020042 0.000000 0.000000 0.000000
# 4 0.000000 0.000000 0.000000 0.061937 0.000000 0.000000
# 5 0.000000 0.000000 0.000000 0.000000 0.061937 0.000000
# 6 0.000000 0.000000 0.000000 0.000000 0.000000 0.061943
#
#
# Mechanical properties :
#
#
# Convention : Reuss Voigt Hill
#
# Bulk Modulus (GPa) = 68.67674 68.67674 68.67674
# Shear Modulus (GPa) = 16.87121 16.92377 16.89749
#
# Velocity S-wave (km/s) = 3.14783 3.15273 3.15028
# Velocity P-wave (km/s) = 7.31758 7.32039 7.31899
#
# Compressibility (1/GPa) = 0.01456097
#
# Stress axis : x y z
#
# Youngs Moduli (GPa) = 49.89477 49.89535 49.89444
#
# Poissons Ratio (x) = 0.37889 0.37893
# Poissons Ratio (y) = 0.37889 0.37892
# Poissons Ratio (z) = 0.37893 0.37892
#
# Static dielectric constant tensor:
#      x y z
#    x 3.320050 0.000000 0.000000 
#    y 0.000000 3.320060 0.000000 
#    z 0.000000 0.000000 3.320050 
# 
# 
# High freq. dielectric constant tensor:
#      x y z
#    x 1.653570 0.000000 0.000000 
#    y 0.000000 1.653570 0.000000 
#    z 0.000000 0.000000 1.653570 
# 
# From -- ./inp_files/5380.got.cif
#   From: 2010.03.12/outbox.cif.g09.slc.cpg/sg121_3_cif.got.tgz:5380.got - 2010.04.06 16:06:48.
