data_PCOD8311530
_publ_section_title
;
Structure prediction by ZEFSAII (Michael W. Deem and Ramdas Pophale) SiO2 
 PCOD8311530
Probable space group: I -4 2 M
;
_chemical_formula_sum "Si O2"
_cell_formula_units_Z 64
_cell_length_a 13.160915
_cell_length_b 13.160915
_cell_length_c 19.055734
_cell_angle_alpha 90.000000
_cell_angle_beta 90.000000
_cell_angle_gamma 90.000000
_cell_volume 3300.637658
_symmetry_space_group_name_H-M "I -4 2 M"
_symmetry_group_IT_number 121
_symmetry_cell_setting 'tetragonal'
loop_
_space_group_symop_operation_xyz
x,y,z
y,-x,-z
-x,-y,z
-y,x,-z
x,-y,-z
-x,y,-z
-y,-x,z
y,x,z
1/2+x,1/2+y,1/2+z
1/2+y,1/2-x,1/2-z
1/2-x,1/2-y,1/2+z
1/2-y,1/2+x,1/2-z
1/2+x,1/2-y,1/2-z
1/2-x,1/2+y,1/2-z
1/2-y,1/2-x,1/2+z
1/2+y,1/2+x,1/2+z
loop_
_atom_site_type_symbol
_atom_site_label
_atom_site_fract_x
_atom_site_fract_y
_atom_site_fract_z
Si Si1 0.177702 0.658055 0.787666
Si Si2 0.229121 0.069615 0.093711
Si Si3 0.298088 0.862134 0.049119
Si Si4 0.385426 0.958785 0.657744
O O1 0.286522 0.713479 0.780955
O O2 0.098466 0.727728 0.830347
O O3 0.132672 0.635362 0.711451
O O4 0.192323 0.551372 0.828840
O O5 0.116013 0.116013 0.083829
O O6 0.227022 0.948719 0.085216
O O7 0.304099 0.117730 0.034340
O O8 0.246434 0.753567 0.064835
O O9 0.411877 0.866235 0.080644
O O10 0.500000 0.000000 0.666821
#
# Coordination Sequence:
#
# PCOD8311530 Si02
#       4
#    16  16  16  16
#     4  11  21  35  55  78 111 143 179 233 283 333
#     4   9  19  34  52  82 117 149 186 226 277 335
#     4  10  20  34  54  81 115 151 187 229 279 333
#     4  12  20  36  56  84 107 141 187 232 281 332
#
# _framework density 19.390194000000001
#
# number of rings (size 3 to 8) (size 9 to 14) (size 15 to 20)
#    0.000    1.500    5.000    0.750    0.000    1.500 
#    0.000    2.500    0.000    4.500    0.000    0.000 
#    0.000   12.000    0.000    0.000    0.000    0.000 
#
# Total GULP energy -396705.497551 kJ/mol
# GULP energy per Si atom -12397.046798 kJ/mol
# Density = 1.934606 g / cm^3
# Si number density = 19.390194 Si / 1000 Ang^3
#
#
#
# Elastic Constant Matrix: (Units=GPa)
#
#
# Indices 1 2 3 4 5 6 
#
# 1 80.4762 35.0799 10.9713 0.0000 0.0000 0.0000
# 2 35.0799 80.4792 10.9724 0.0000 0.0000 0.0000
# 3 10.9713 10.9724 55.1921 0.0000 0.0000 0.0000
# 4 0.0000 0.0000 0.0000 26.5254 0.0000 0.0000
# 5 0.0000 0.0000 0.0000 0.0000 26.5250 0.0000
# 6 0.0000 0.0000 0.0000 0.0000 0.0000 35.4066
#
#
#
# Elastic Compliance Matrix: (Units=1/GPa)
#
#
# Indices 1 2 3 4 5 6 
#
# 1 0.015511 -0.006517 -0.001788 0.000000 0.000000 0.000000
# 2 -0.006517 0.015510 -0.001788 0.000000 0.000000 0.000000
# 3 -0.001788 -0.001788 0.018829 0.000000 0.000000 0.000000
# 4 0.000000 0.000000 0.000000 0.037700 0.000000 0.000000
# 5 0.000000 0.000000 0.000000 0.000000 0.037700 0.000000
# 6 0.000000 0.000000 0.000000 0.000000 0.000000 0.028243
#
#
# Mechanical properties :
#
#
# Convention : Reuss Voigt Hill
#
# Bulk Modulus (GPa) = 33.71028 36.68831 35.19929
# Shear Modulus (GPa) = 27.23802 28.29966 27.76884
#
# Velocity S-wave (km/s) = 3.75204 3.82446 3.78842
# Velocity P-wave (km/s) = 6.01609 6.20195 6.10973
#
# Compressibility (1/GPa) = 0.02966454
#
# Stress axis : x y z
#
# Youngs Moduli (GPa) = 64.47203 64.47414 53.10861
#
# Poissons Ratio (x) = 0.42019 0.09494
# Poissons Ratio (y) = 0.42017 0.09496
# Poissons Ratio (z) = 0.11525 0.11528
#
# Static dielectric constant tensor:
#      x y z
#    x 3.478870 0.000000 0.000000 
#    y 0.000000 3.478860 0.000000 
#    z 0.000000 0.000000 3.660270 
# 
# 
# High freq. dielectric constant tensor:
#      x y z
#    x 1.732310 0.000000 0.000000 
#    y 0.000000 1.732310 0.000000 
#    z 0.000000 0.000000 1.766140 
# 
# From -- ./inp_files/5072.got.cif
#   From: 2010.03.12/outbox.cif.g09.slc.cpg/sg121_3_cif.got.tgz:5072.got - 2010.04.06 16:06:48.
