data_PCOD8311288
_publ_section_title
;
Structure prediction by ZEFSAII (Michael W. Deem and Ramdas Pophale) SiO2 
 PCOD8311288
Probable space group: I -4 C 2
;
_chemical_formula_sum "Si O2"
_cell_formula_units_Z 112
_cell_length_a 13.813718
_cell_length_b 13.813718
_cell_length_c 27.479024
_cell_angle_alpha 90.000000
_cell_angle_beta 90.000000
_cell_angle_gamma 90.000000
_cell_volume 5243.514522
_symmetry_space_group_name_H-M "I -4 C 2"
_symmetry_group_IT_number 120
_symmetry_cell_setting 'tetragonal'
loop_
_space_group_symop_operation_xyz
x,y,z
y,-x,-z
-x,-y,z
-y,x,-z
y,x,1/2-z
-y,-x,1/2-z
-x,y,1/2+z
x,-y,1/2+z
1/2+x,1/2+y,1/2+z
1/2+y,1/2-x,1/2-z
1/2-x,1/2-y,1/2+z
1/2-y,1/2+x,1/2-z
1/2+y,1/2+x,-z
1/2-y,1/2-x,-z
1/2-x,1/2+y,z
1/2+x,1/2-y,z
loop_
_atom_site_type_symbol
_atom_site_label
_atom_site_fract_x
_atom_site_fract_y
_atom_site_fract_z
Si Si1 0.233203 0.656307 0.651404
Si Si2 0.507483 0.753978 0.922392
Si Si3 0.836623 0.878926 0.385243
Si Si4 0.901416 0.547821 0.408143
Si Si5 0.853791 0.549094 0.243231
Si Si6 0.226804 0.055959 0.833452
Si Si7 0.219286 0.575032 0.478544
O O1 0.216616 0.593034 0.603204
O O2 0.191319 0.762641 0.642706
O O3 0.176707 0.602439 0.694205
O O4 0.345573 0.667924 0.662474
O O5 0.557562 0.667891 0.891830
O O6 0.582586 0.842171 0.923531
O O7 0.483582 0.727093 0.978121
O O8 0.801100 0.901976 0.439491
O O9 0.848060 0.973434 0.351247
O O10 0.821772 0.544164 0.366348
O O11 0.866580 0.488881 0.455372
O O12 0.000000 0.500000 0.387740
O O13 0.889899 0.440326 0.231217
O O14 0.760546 0.543628 0.278002
O O15 0.173028 0.673028 0.500000
#
# Coordination Sequence:
#
# PCOD8311288 Si02
#       7
#    16  16  16  16  16  16  16
#     4  12  24  45  68  97 137 182 219 278 348 414
#     4  12  24  41  67  95 132 182 227 277 342 409
#     4  11  25  45  65  98 138 178 228 282 339 412
#     4  11  21  36  66  99 130 168 221 288 341 385
#     4  11  24  40  72 107 135 169 223 290 348 404
#     4  11  24  44  66  96 138 179 221 274 337 421
#     4  11  22  37  63  99 133 169 224 288 339 408
#
# _framework density 21.359721
#
# number of rings (size 3 to 8) (size 9 to 14) (size 15 to 20)
#    0.000    0.714    5.714    2.571    2.000    4.000 
#    0.000    0.714    0.000    1.714    0.000    0.000 
#    0.000    0.000    0.000    0.000    0.000    0.000 
#
# Total GULP energy -694616.436977 kJ/mol
# GULP energy per Si atom -12403.864946 kJ/mol
# Density = 2.131111 g / cm^3
# Si number density = 21.359721 Si / 1000 Ang^3
#
#
#
# Elastic Constant Matrix: (Units=GPa)
#
#
# Indices 1 2 3 4 5 6 
#
# 1 68.5755 21.2158 11.2424 0.0000 0.0000 0.0000
# 2 21.2158 68.5755 11.2424 0.0000 0.0000 0.0000
# 3 11.2424 11.2424 84.9693 0.0000 0.0000 0.0000
# 4 0.0000 0.0000 0.0000 28.4787 0.0000 0.0000
# 5 0.0000 0.0000 0.0000 0.0000 28.4787 0.0000
# 6 0.0000 0.0000 0.0000 0.0000 0.0000 40.0425
#
#
#
# Elastic Compliance Matrix: (Units=1/GPa)
#
#
# Indices 1 2 3 4 5 6 
#
# 1 0.016317 -0.004798 -0.001524 0.000000 0.000000 0.000000
# 2 -0.004798 0.016317 -0.001524 0.000000 0.000000 0.000000
# 3 -0.001524 -0.001524 0.012172 0.000000 0.000000 0.000000
# 4 0.000000 0.000000 0.000000 0.035114 0.000000 0.000000
# 5 0.000000 0.000000 0.000000 0.000000 0.035114 0.000000
# 6 0.000000 0.000000 0.000000 0.000000 0.000000 0.024973
#
#
# Mechanical properties :
#
#
# Convention : Reuss Voigt Hill
#
# Bulk Modulus (GPa) = 34.34865 34.39130 34.36997
# Shear Modulus (GPa) = 30.22896 31.29461 30.76179
#
# Velocity S-wave (km/s) = 3.76604 3.83184 3.79908
# Velocity P-wave (km/s) = 5.91833 5.97606 5.94727
#
# Compressibility (1/GPa) = 0.02911323
#
# Stress axis : x y z
#
# Youngs Moduli (GPa) = 61.28663 61.28663 82.15403
#
# Poissons Ratio (x) = 0.29407 0.12521
# Poissons Ratio (y) = 0.29407 0.12521
# Poissons Ratio (z) = 0.09340 0.09340
#
# Static dielectric constant tensor:
#      x y z
#    x 3.852910 0.000000 0.000000 
#    y 0.000000 3.852910 0.000000 
#    z 0.000000 0.000000 3.841850 
# 
# 
# High freq. dielectric constant tensor:
#      x y z
#    x 1.831650 0.000000 0.000000 
#    y 0.000000 1.831650 0.000000 
#    z 0.000000 0.000000 1.843040 
# 
# From -- ./inp_files/6281.got.cif
#   From: 2010.03.12/outbox.cif.g09.slc.cpg/sg120_4_cif.got.tgz:6281.got - 2010.04.06 16:00:44.
