data_PCOD8311639
_publ_section_title
;
Structure prediction by ZEFSAII (Michael W. Deem and Ramdas Pophale) SiO2 
 PCOD8311639
Probable space group: I -4 2 M
;
_chemical_formula_sum "Si O2"
_cell_formula_units_Z 60
_cell_length_a 14.707867
_cell_length_b 14.707867
_cell_length_c 14.833595
_cell_angle_alpha 90.000000
_cell_angle_beta 90.000000
_cell_angle_gamma 90.000000
_cell_volume 3208.823321
_symmetry_space_group_name_H-M "I -4 2 M"
_symmetry_group_IT_number 121
_symmetry_cell_setting 'tetragonal'
loop_
_space_group_symop_operation_xyz
x,y,z
y,-x,-z
-x,-y,z
-y,x,-z
x,-y,-z
-x,y,-z
-y,-x,z
y,x,z
1/2+x,1/2+y,1/2+z
1/2+y,1/2-x,1/2-z
1/2-x,1/2-y,1/2+z
1/2-y,1/2+x,1/2-z
1/2+x,1/2-y,1/2-z
1/2-x,1/2+y,1/2-z
1/2-y,1/2-x,1/2+z
1/2+y,1/2+x,1/2+z
loop_
_atom_site_type_symbol
_atom_site_label
_atom_site_fract_x
_atom_site_fract_y
_atom_site_fract_z
Si Si1 0.336561 0.663440 0.745589
Si Si2 0.374161 0.886070 0.623779
Si Si3 0.760889 0.491437 0.265197
Si Si4 0.000000 0.500000 0.000000
Si Si5 0.225256 0.225256 0.943450
Si Si6 0.802905 0.802905 0.153806
O O1 0.441202 0.682999 0.774837
O O2 0.328782 0.671219 0.635876
O O3 0.266422 0.733579 0.796011
O O4 0.441461 0.817769 0.672633
O O5 0.327643 0.958804 0.687787
O O6 0.435042 0.937543 0.555148
O O7 0.294762 0.831993 0.570923
O O8 0.719420 0.405942 0.317841
O O9 0.199032 0.199032 0.045439
#
# Coordination Sequence:
#
# PCOD8311639 Si02
#       6
#     8  16  16   4   8   8
#     4  10  24  41  59  97 125 163 214 257 311 380
#     4  11  22  38  59  94 126 164 213 261 317 376
#     4  11  21  42  64  87 129 168 209 261 321 374
#     4  12  24  30  56 100 120 158 216 268 306 380
#     4  10  22  40  61  88 129 161 208 252 320 379
#     4  12  22  41  66  89 126 174 198 271 319 367
#
# _framework density 18.698443000000001
#
# number of rings (size 3 to 8) (size 9 to 14) (size 15 to 20)
#    0.000    1.067    5.333    3.200    3.733    3.733 
#    0.000    0.000    0.000    6.400    0.000    0.000 
#    0.000    0.000    0.000    0.000    0.000    0.000 
#
# Total GULP energy -371741.924159 kJ/mol
# GULP energy per Si atom -12391.397472 kJ/mol
# Density = 1.865588 g / cm^3
# Si number density = 18.698443 Si / 1000 Ang^3
#
#
#
# Elastic Constant Matrix: (Units=GPa)
#
#
# Indices 1 2 3 4 5 6 
#
# 1 134.5999 73.4727 58.3691 0.0000 0.0000 0.0000
# 2 73.4727 134.5965 58.3683 0.0000 0.0000 0.0000
# 3 58.3691 58.3683 99.2069 0.0000 0.0001 0.0000
# 4 0.0000 0.0000 0.0000 -108.6801 0.0000 0.0000
# 5 0.0000 0.0000 0.0001 0.0000 -108.6374 0.0000
# 6 0.0000 0.0000 0.0000 0.0000 0.0000 49.7571
#
#
#
# Elastic Compliance Matrix: (Units=1/GPa)
#
#
# Indices 1 2 3 4 5 6 
#
# 1 0.011767 -0.004593 -0.004221 0.000000 0.000000 0.000000
# 2 -0.004593 0.011767 -0.004221 0.000000 0.000000 0.000000
# 3 -0.004221 -0.004221 0.015047 0.000000 0.000000 0.000000
# 4 0.000000 0.000000 0.000000 -0.009201 0.000000 0.000000
# 5 0.000000 0.000000 0.000000 0.000000 -0.009205 0.000000
# 6 0.000000 0.000000 0.000000 0.000000 0.000000 0.020098
#
#
# Mechanical properties :
#
#
# Convention : Reuss Voigt Hill
#
# Bulk Modulus (GPa) = 79.92756 83.20262 81.56509
# Shear Modulus (GPa) = 70.90985 -21.63253 24.63866
#
# Velocity S-wave (km/s) = 6.16484 -3.40504 3.63393
# Velocity P-wave (km/s) = 9.67016 5.39765 7.83092
#
# Compressibility (1/GPa) = 0.01251133
#
# Stress axis : x y z
#
# Youngs Moduli (GPa) = 84.98451 84.98238 66.45933
#
# Poissons Ratio (x) = 0.39031 0.28052
# Poissons Ratio (y) = 0.39032 0.28052
# Poissons Ratio (z) = 0.35872 0.35871
#
# Static dielectric constant tensor:
#      x y z
#    x 4.346850 0.000000 0.000000 
#    y 0.000000 4.346720 0.000000 
#    z 0.000000 0.000000 3.467410 
# 
# 
# High freq. dielectric constant tensor:
#      x y z
#    x 1.735010 0.000000 0.000000 
#    y 0.000000 1.735010 0.000000 
#    z 0.000000 0.000000 1.722390 
# 
# From -- ./inp_files/4124.got.cif
#   From: 2010.03.12/outbox.cif.g09.slc.cpg/sg121_3_cif.got.tgz:4124.got - 2010.04.06 16:06:48.
