data_PCOD8311891
_publ_section_title
;
Structure prediction by ZEFSAII (Michael W. Deem and Ramdas Pophale) SiO2 
 PCOD8311891
Probable space group: I -4 2 D
;
_chemical_formula_sum "Si O2"
_cell_formula_units_Z 48
_cell_length_a 19.564380
_cell_length_b 19.564380
_cell_length_c 5.694898
_cell_angle_alpha 90.000000
_cell_angle_beta 90.000000
_cell_angle_gamma 90.000000
_cell_volume 2179.807432
_symmetry_space_group_name_H-M "I -4 2 D"
_symmetry_group_IT_number 122
_symmetry_cell_setting 'tetragonal'
loop_
_space_group_symop_operation_xyz
x,y,z
y,-x,-z
-x,-y,z
-y,x,-z
x,1/2-y,1/4-z
-x,1/2+y,1/4-z
-y,1/2-x,1/4+z
y,1/2+x,1/4+z
1/2+x,1/2+y,1/2+z
1/2+y,1/2-x,1/2-z
1/2-x,1/2-y,1/2+z
1/2-y,1/2+x,1/2-z
1/2+x,-y,3/4-z
1/2-x,y,3/4-z
1/2-y,-x,3/4+z
1/2+y,x,3/4+z
loop_
_atom_site_type_symbol
_atom_site_label
_atom_site_fract_x
_atom_site_fract_y
_atom_site_fract_z
Si Si1 0.250000 0.033764 0.375000
Si Si2 0.710711 0.250000 0.625000
Si Si3 0.846633 0.896023 0.028224
Si Si4 0.026611 0.324593 0.014397
O O1 0.218544 0.083303 0.182572
O O2 0.189870 0.986315 0.487535
O O3 0.750000 0.249603 0.375000
O O4 0.666293 0.319893 0.631684
O O5 0.908899 0.873231 0.193980
O O6 0.865464 0.961446 0.869643
O O7 0.038500 0.250000 0.125000
#
# Coordination Sequence:
#
# PCOD8311891 Si02
#       4
#     8   8  16  16
#     4  10  21  44  68  98 147 188 240 300 366 463
#     4  12  25  44  76 110 143 182 250 312 372 453
#     4  11  23  45  65 103 138 187 243 302 370 443
#     4  10  23  43  67  96 139 188 237 304 366 444
#
# _framework density 22.020294
#
# number of rings (size 3 to 8) (size 9 to 14) (size 15 to 20)
#    0.000    1.333    5.000    2.000    0.000    6.000 
#   21.000    0.000    0.000    0.000    0.000    0.000 
#    0.000    0.000    0.000    0.000    0.000    0.000 
#
# Total GULP energy -297424.960282 kJ/mol
# GULP energy per Si atom -12392.706678 kJ/mol
# Density = 2.197018 g / cm^3
# Si number density = 22.020294 Si / 1000 Ang^3
#
#
#
# Elastic Constant Matrix: (Units=GPa)
#
#
# Indices 1 2 3 4 5 6 
#
# 1 106.4140 46.6157 34.5865 0.0000 0.0000 0.0000
# 2 46.6157 106.4140 34.5865 0.0000 0.0000 0.0000
# 3 34.5865 34.5865 110.3911 0.0000 0.0000 0.0000
# 4 0.0000 0.0000 0.0000 32.8745 0.0000 0.0000
# 5 0.0000 0.0000 0.0000 0.0000 32.8745 0.0000
# 6 0.0000 0.0000 0.0000 0.0000 0.0000 42.3733
#
#
#
# Elastic Compliance Matrix: (Units=1/GPa)
#
#
# Indices 1 2 3 4 5 6 
#
# 1 0.012168 -0.004555 -0.002385 0.000000 0.000000 0.000000
# 2 -0.004555 0.012168 -0.002385 0.000000 0.000000 0.000000
# 3 -0.002385 -0.002385 0.010553 0.000000 0.000000 0.000000
# 4 0.000000 0.000000 0.000000 0.030419 0.000000 0.000000
# 5 0.000000 0.000000 0.000000 0.000000 0.030419 0.000000
# 6 0.000000 0.000000 0.000000 0.000000 0.000000 0.023600
#
#
# Mechanical properties :
#
#
# Convention : Reuss Voigt Hill
#
# Bulk Modulus (GPa) = 61.58287 61.64405 61.61346
# Shear Modulus (GPa) = 34.87001 35.45315 35.16158
#
# Velocity S-wave (km/s) = 3.98369 4.01686 4.00031
# Velocity P-wave (km/s) = 7.01333 7.04049 7.02693
#
# Compressibility (1/GPa) = 0.01623828
#
# Stress axis : x y z
#
# Youngs Moduli (GPa) = 82.18381 82.18381 94.75725
#
# Poissons Ratio (x) = 0.37435 0.22601
# Poissons Ratio (y) = 0.37435 0.22601
# Poissons Ratio (z) = 0.19602 0.19602
#
# Static dielectric constant tensor:
#      x y z
#    x 3.906670 0.000000 0.000000 
#    y 0.000000 3.906670 0.000000 
#    z 0.000000 0.000000 4.314370 
# 
# 
# High freq. dielectric constant tensor:
#      x y z
#    x 1.856350 0.000000 0.000000 
#    y 0.000000 1.856350 0.000000 
#    z 0.000000 0.000000 1.870450 
# 
# From -- ./inp_files/720.got.cif
#   From: 2010.03.12/outbox.cif.g09.slc.cpg/sg122_1_cif.got.tgz:720.got - 2010.04.06 16:17:16.
