data_PCOD8311335
_publ_section_title
;
Structure prediction by ZEFSAII (Michael W. Deem and Ramdas Pophale) SiO2 
 PCOD8311335
Probable space group: I -4 C 2
;
_chemical_formula_sum "Si O2"
_cell_formula_units_Z 64
_cell_length_a 12.435935
_cell_length_b 12.435935
_cell_length_c 16.056870
_cell_angle_alpha 90.000000
_cell_angle_beta 90.000000
_cell_angle_gamma 90.000000
_cell_volume 2483.234756
_symmetry_space_group_name_H-M "I -4 C 2"
_symmetry_group_IT_number 120
_symmetry_cell_setting 'tetragonal'
loop_
_space_group_symop_operation_xyz
x,y,z
y,-x,-z
-x,-y,z
-y,x,-z
y,x,1/2-z
-y,-x,1/2-z
-x,y,1/2+z
x,-y,1/2+z
1/2+x,1/2+y,1/2+z
1/2+y,1/2-x,1/2-z
1/2-x,1/2-y,1/2+z
1/2-y,1/2+x,1/2-z
1/2+y,1/2+x,-z
1/2-y,1/2-x,-z
1/2-x,1/2+y,z
1/2+x,1/2-y,z
loop_
_atom_site_type_symbol
_atom_site_label
_atom_site_fract_x
_atom_site_fract_y
_atom_site_fract_z
Si Si1 0.021345 0.879183 0.368634
Si Si2 0.207628 0.623534 0.731373
Si Si3 0.780565 0.892651 0.986282
Si Si4 0.121943 0.509942 0.380199
O O1 0.032026 0.797678 0.290773
O O2 0.136571 0.873279 0.412523
O O3 0.926377 0.843283 0.430362
O O4 0.000000 0.000000 0.337130
O O5 0.262497 0.737504 0.750000
O O6 0.141001 0.582168 0.810594
O O7 0.128303 0.644272 0.654396
O O8 0.698668 0.988091 0.959326
O O9 0.717795 0.782206 0.000000
O O10 0.000000 0.500000 0.410566
#
# Coordination Sequence:
#
# PCOD8311335 Si02
#       4
#    16  16  16  16
#     4  12  27  50  74 111 154 196 260 316 375 466
#     4  12  26  45  77 110 147 201 245 312 385 440
#     4  12  27  46  77 109 149 203 247 317 381 445
#     4  12  26  51  74 110 153 192 258 312 370 464
#
# _framework density 25.772835000000001
#
# number of rings (size 3 to 8) (size 9 to 14) (size 15 to 20)
#    0.000    0.000    7.500    1.500    3.500    5.000 
#    0.000    0.000    0.000    0.000    0.000    0.000 
#    0.000    0.000    0.000    0.000    0.000    0.000 
#
# Total GULP energy -397083.984908 kJ/mol
# GULP energy per Si atom -12408.874528 kJ/mol
# Density = 2.571418 g / cm^3
# Si number density = 25.772835 Si / 1000 Ang^3
#
#
#
# Elastic Constant Matrix: (Units=GPa)
#
#
# Indices 1 2 3 4 5 6 
#
# 1 128.2158 9.7029 -2.9596 0.0000 0.0000 0.0000
# 2 9.7029 128.2167 -2.9594 0.0000 0.0000 0.0000
# 3 -2.9596 -2.9594 33.1539 0.0000 0.0000 0.0000
# 4 0.0000 0.0000 0.0000 28.2663 0.0000 0.0000
# 5 0.0000 0.0000 0.0000 0.0000 28.2662 0.0000
# 6 0.0000 0.0000 0.0000 0.0000 0.0000 54.0814
#
#
#
# Elastic Compliance Matrix: (Units=1/GPa)
#
#
# Indices 1 2 3 4 5 6 
#
# 1 0.007858 -0.000580 0.000650 0.000000 0.000000 0.000000
# 2 -0.000580 0.007858 0.000650 0.000000 0.000000 0.000000
# 3 0.000650 0.000650 0.030278 0.000000 0.000000 0.000000
# 4 0.000000 0.000000 0.000000 0.035378 0.000000 0.000000
# 5 0.000000 0.000000 0.000000 0.000000 0.035378 0.000000
# 6 0.000000 0.000000 0.000000 0.000000 0.000000 0.018491
#
#
# Mechanical properties :
#
#
# Convention : Reuss Voigt Hill
#
# Bulk Modulus (GPa) = 21.08178 33.01711 27.04944
# Shear Modulus (GPa) = 33.41956 41.17630 37.29793
#
# Velocity S-wave (km/s) = 3.60487 4.00141 3.80831
# Velocity P-wave (km/s) = 5.05217 5.84697 5.46404
#
# Compressibility (1/GPa) = 0.04743433
#
# Stress axis : x y z
#
# Youngs Moduli (GPa) = 127.25530 127.25622 33.02684
#
# Poissons Ratio (x) = 0.07377 -0.02146
# Poissons Ratio (y) = 0.07377 -0.02146
# Poissons Ratio (z) = -0.08268 -0.08268
#
# Static dielectric constant tensor:
#      x y z
#    x 4.741050 0.000000 0.000000 
#    y 0.000000 4.741050 0.000000 
#    z 0.000000 0.000000 4.527500 
# 
# 
# High freq. dielectric constant tensor:
#      x y z
#    x 2.039110 0.000000 0.000000 
#    y 0.000000 2.039110 0.000000 
#    z 0.000000 0.000000 2.024230 
# 
# From -- ./inp_files/5001.got.cif
#   From: 2010.03.12/outbox.cif.g09.slc.cpg/sg120_3_cif.got.tgz:5001.got - 2010.04.06 16:00:44.
