data_PCOD8311903
_publ_section_title
;
Structure prediction by ZEFSAII (Michael W. Deem and Ramdas Pophale) SiO2 
 PCOD8311903
Probable space group: I -4 2 D
;
_chemical_formula_sum "Si O2"
_cell_formula_units_Z 96
_cell_length_a 14.229626
_cell_length_b 14.229626
_cell_length_c 20.867144
_cell_angle_alpha 90.000000
_cell_angle_beta 90.000000
_cell_angle_gamma 90.000000
_cell_volume 4225.226395
_symmetry_space_group_name_H-M "I -4 2 D"
_symmetry_group_IT_number 122
_symmetry_cell_setting 'tetragonal'
loop_
_space_group_symop_operation_xyz
x,y,z
y,-x,-z
-x,-y,z
-y,x,-z
x,1/2-y,1/4-z
-x,1/2+y,1/4-z
-y,1/2-x,1/4+z
y,1/2+x,1/4+z
1/2+x,1/2+y,1/2+z
1/2+y,1/2-x,1/2-z
1/2-x,1/2-y,1/2+z
1/2-y,1/2+x,1/2-z
1/2+x,-y,3/4-z
1/2-x,y,3/4-z
1/2-y,-x,3/4+z
1/2+y,x,3/4+z
loop_
_atom_site_type_symbol
_atom_site_label
_atom_site_fract_x
_atom_site_fract_y
_atom_site_fract_z
Si Si1 0.191610 0.463043 0.439734
Si Si2 0.324809 0.726419 0.921582
Si Si3 0.212604 0.975115 0.630825
Si Si4 0.710307 0.096333 0.507017
Si Si5 0.145099 0.518999 0.228443
Si Si6 0.112478 0.096541 0.254922
O O1 0.250000 0.462663 0.375000
O O2 0.175942 0.357441 0.462965
O O3 0.253906 0.521052 0.489941
O O4 0.100345 0.531681 0.447705
O O5 0.250000 0.778524 0.875000
O O6 0.413761 0.692409 0.878674
O O7 0.271315 0.634357 0.948251
O O8 0.349135 0.794925 0.980283
O O9 0.324064 0.964495 0.654579
O O10 0.212532 0.929308 0.560904
O O11 0.135585 0.925264 0.676328
O O12 0.643737 0.010820 0.484123
O O13 0.081731 0.599608 0.258188
#
# Coordination Sequence:
#
# PCOD8311903 Si02
#       6
#    16  16  16  16  16  16
#     4  11  23  35  66 102 140 180 223 290 353 425
#     4  11  24  43  72 101 139 184 235 289 351 430
#     4  10  24  44  71 102 141 182 239 288 352 430
#     4  11  25  44  69 103 139 188 242 293 350 416
#     4  10  22  38  62 100 141 179 215 273 352 428
#     4  10  24  45  71  99 142 186 234 296 361 420
#
# _framework density 22.720676999999998
#
# number of rings (size 3 to 8) (size 9 to 14) (size 15 to 20)
#    0.000    1.500    0.000    4.000   16.333    0.000 
#    6.000    0.000    7.333    0.000    0.000    0.000 
#    0.000    0.000    0.000    0.000    0.000    0.000 
#
# Total GULP energy -594709.340727 kJ/mol
# GULP energy per Si atom -12389.777932 kJ/mol
# Density = 2.266896 g / cm^3
# Si number density = 22.720677 Si / 1000 Ang^3
#
#
#
# Elastic Constant Matrix: (Units=GPa)
#
#
# Indices 1 2 3 4 5 6 
#
# 1 92.5837 27.9689 36.4508 0.0000 0.0000 0.0000
# 2 27.9689 92.5837 36.4508 0.0000 0.0000 0.0000
# 3 36.4508 36.4508 73.7142 0.0000 0.0000 0.0000
# 4 0.0000 0.0000 0.0000 38.5256 0.0000 0.0000
# 5 0.0000 0.0000 0.0000 0.0000 38.5256 0.0000
# 6 0.0000 0.0000 0.0000 0.0000 0.0000 47.4093
#
#
#
# Elastic Compliance Matrix: (Units=1/GPa)
#
#
# Indices 1 2 3 4 5 6 
#
# 1 0.013655 -0.001821 -0.005852 0.000000 0.000000 0.000000
# 2 -0.001821 0.013655 -0.005852 0.000000 0.000000 0.000000
# 3 -0.005852 -0.005852 0.019353 0.000000 0.000000 0.000000
# 4 0.000000 0.000000 0.000000 0.025957 0.000000 0.000000
# 5 0.000000 0.000000 0.000000 0.000000 0.025957 0.000000
# 6 0.000000 0.000000 0.000000 0.000000 0.000000 0.021093
#
#
# Mechanical properties :
#
#
# Convention : Reuss Voigt Hill
#
# Bulk Modulus (GPa) = 50.98406 51.18032 51.08219
# Shear Modulus (GPa) = 32.62495 35.42617 34.02556
#
# Velocity S-wave (km/s) = 3.79346 3.95296 3.87403
# Velocity P-wave (km/s) = 6.45564 6.58857 6.52245
#
# Compressibility (1/GPa) = 0.01961397
#
# Stress axis : x y z
#
# Youngs Moduli (GPa) = 73.23286 73.23286 51.67127
#
# Poissons Ratio (x) = 0.13338 0.30236
# Poissons Ratio (y) = 0.13338 0.30236
# Poissons Ratio (z) = 0.42854 0.42854
#
# Static dielectric constant tensor:
#      x y z
#    x 4.096870 0.000000 0.000000 
#    y 0.000000 4.096870 0.000000 
#    z 0.000000 0.000000 2.884040 
# 
# 
# High freq. dielectric constant tensor:
#      x y z
#    x 1.895830 0.000000 0.000000 
#    y 0.000000 1.895830 0.000000 
#    z 0.000000 0.000000 1.895570 
# 
# From -- ./inp_files/7294.got.cif
#   From: 2010.03.12/outbox.cif.g09.slc.cpg/sg122_4_cif.got.tgz:7294.got - 2010.04.06 16:17:16.
