data_PCOD8311690
_publ_section_title
;
Structure prediction by ZEFSAII (Michael W. Deem and Ramdas Pophale) SiO2 
 PCOD8311690
Probable space group: I -4 2 M
;
_chemical_formula_sum "Si O2"
_cell_formula_units_Z 48
_cell_length_a 10.686279
_cell_length_b 10.686279
_cell_length_c 21.886329
_cell_angle_alpha 90.000000
_cell_angle_beta 90.000000
_cell_angle_gamma 90.000000
_cell_volume 2499.343458
_symmetry_space_group_name_H-M "I -4 2 M"
_symmetry_group_IT_number 121
_symmetry_cell_setting 'tetragonal'
loop_
_space_group_symop_operation_xyz
x,y,z
y,-x,-z
-x,-y,z
-y,x,-z
x,-y,-z
-x,y,-z
-y,-x,z
y,x,z
1/2+x,1/2+y,1/2+z
1/2+y,1/2-x,1/2-z
1/2-x,1/2-y,1/2+z
1/2-y,1/2+x,1/2-z
1/2+x,1/2-y,1/2-z
1/2-x,1/2+y,1/2-z
1/2-y,1/2-x,1/2+z
1/2+y,1/2+x,1/2+z
loop_
_atom_site_type_symbol
_atom_site_label
_atom_site_fract_x
_atom_site_fract_y
_atom_site_fract_z
Si Si1 0.001027 0.804659 0.779426
Si Si2 0.702819 0.503856 0.070235
Si Si3 0.379439 0.076070 0.326684
O O1 0.115048 0.884953 0.809948
O O2 0.059852 0.724875 0.724878
O O3 0.928216 0.719970 0.829712
O O4 0.900354 0.900354 0.750532
O O5 0.603404 0.396597 0.084690
O O6 0.638520 0.638520 0.085233
O O7 0.826340 0.475908 0.109571
O O8 0.744802 0.500000 0.000000
O O9 0.500000 0.000000 0.306991
#
# Coordination Sequence:
#
# PCOD8311690 Si02
#       3
#    16  16  16
#     4  11  22  36  55  80 115 154 189 233 288 343
#     4   9  19  37  61  87 115 150 191 236 286 339
#     4  12  22  35  55  83 116 153 187 239 285 339
#
# _framework density 19.205044999999998
#
# number of rings (size 3 to 8) (size 9 to 14) (size 15 to 20)
#    0.000    1.333    3.333    5.000    0.000    4.667 
#    0.000    0.000    0.000    0.000    0.000    0.000 
#    0.000   10.667    0.000    0.000    0.000    0.000 
#
# Total GULP energy -297413.047170 kJ/mol
# GULP energy per Si atom -12392.210299 kJ/mol
# Density = 1.916133 g / cm^3
# Si number density = 19.205045 Si / 1000 Ang^3
#
#
#
# Elastic Constant Matrix: (Units=GPa)
#
#
# Indices 1 2 3 4 5 6 
#
# 1 123.4879 70.1028 43.9595 0.0000 0.0000 0.0000
# 2 70.1028 123.4885 43.9597 0.0000 0.0000 0.0000
# 3 43.9595 43.9597 79.3623 0.0000 0.0000 0.0000
# 4 0.0000 0.0000 0.0000 17.0154 0.0000 0.0000
# 5 0.0000 0.0000 0.0000 0.0000 17.0152 0.0000
# 6 0.0000 0.0000 0.0000 0.0000 0.0000 46.1138
#
#
#
# Elastic Compliance Matrix: (Units=1/GPa)
#
#
# Indices 1 2 3 4 5 6 
#
# 1 0.012817 -0.005915 -0.003823 0.000000 0.000000 0.000000
# 2 -0.005915 0.012817 -0.003823 0.000000 0.000000 0.000000
# 3 -0.003823 -0.003823 0.016836 0.000000 0.000000 0.000000
# 4 0.000000 0.000000 0.000000 0.058770 0.000000 0.000000
# 5 0.000000 0.000000 0.000000 0.000000 0.058771 0.000000
# 6 0.000000 0.000000 0.000000 0.000000 0.000000 0.021685
#
#
# Mechanical properties :
#
#
# Convention : Reuss Voigt Hill
#
# Bulk Modulus (GPa) = 65.15817 71.37583 68.26700
# Shear Modulus (GPa) = 23.37179 27.25000 25.31089
#
# Velocity S-wave (km/s) = 3.49228 3.77091 3.63427
# Velocity P-wave (km/s) = 7.08962 7.49704 7.29617
#
# Compressibility (1/GPa) = 0.01534727
#
# Stress axis : x y z
#
# Youngs Moduli (GPa) = 78.02299 78.02335 59.39809
#
# Poissons Ratio (x) = 0.46151 0.22707
# Poissons Ratio (y) = 0.46151 0.22707
# Poissons Ratio (z) = 0.29828 0.29828
#
# Static dielectric constant tensor:
#      x y z
#    x 3.873440 0.000000 0.000000 
#    y 0.000000 3.873430 0.000000 
#    z 0.000000 0.000000 3.232690 
# 
# 
# High freq. dielectric constant tensor:
#      x y z
#    x 1.758190 0.000000 0.000000 
#    y 0.000000 1.758190 0.000000 
#    z 0.000000 0.000000 1.703680 
# 
# From -- ./inp_files/5830.got.cif
#   From: 2010.03.12/outbox.cif.g09.slc.cpg/sg121_3_cif.got.tgz:5830.got - 2010.04.06 16:06:48.
