data_PCOD8311882
_publ_section_title
;
Structure prediction by ZEFSAII (Michael W. Deem and Ramdas Pophale) SiO2 
 PCOD8311882
Probable space group: I -4 2 D
;
_chemical_formula_sum "Si O2"
_cell_formula_units_Z 76
_cell_length_a 17.980022
_cell_length_b 17.980022
_cell_length_c 11.564689
_cell_angle_alpha 90.000000
_cell_angle_beta 90.000000
_cell_angle_gamma 90.000000
_cell_volume 3738.646435
_symmetry_space_group_name_H-M "I -4 2 D"
_symmetry_group_IT_number 122
_symmetry_cell_setting 'tetragonal'
loop_
_space_group_symop_operation_xyz
x,y,z
y,-x,-z
-x,-y,z
-y,x,-z
x,1/2-y,1/4-z
-x,1/2+y,1/4-z
-y,1/2-x,1/4+z
y,1/2+x,1/4+z
1/2+x,1/2+y,1/2+z
1/2+y,1/2-x,1/2-z
1/2-x,1/2-y,1/2+z
1/2-y,1/2+x,1/2-z
1/2+x,-y,3/4-z
1/2-x,y,3/4-z
1/2-y,-x,3/4+z
1/2+y,x,3/4+z
loop_
_atom_site_type_symbol
_atom_site_label
_atom_site_fract_x
_atom_site_fract_y
_atom_site_fract_z
Si Si1 0.500000 0.500000 0.500000
Si Si2 0.329120 0.641611 0.727994
Si Si3 0.379281 0.167338 0.235562
Si Si4 0.250000 0.058809 0.875000
Si Si5 0.279243 0.031504 0.253337
Si Si6 0.840092 0.499815 0.170989
O O1 0.475966 0.572582 0.424027
O O2 0.242856 0.667315 0.737525
O O3 0.350223 0.605723 0.850704
O O4 0.386258 0.708436 0.712913
O O5 0.338148 0.585221 0.621136
O O6 0.330497 0.100811 0.285299
O O7 0.460697 0.173940 0.297181
O O8 0.305226 0.007152 0.799834
O O9 0.250000 0.000650 0.375000
O O10 0.209668 0.049722 0.167843
#
# Coordination Sequence:
#
# PCOD8311882 Si02
#       6
#     4  16  16   8  16  16
#     4  12  24  44  64 100 138 176 204 268 336 398
#     4  10  21  42  62  90 127 174 209 271 319 380
#     4  10  21  41  65  89 131 166 214 265 326 376
#     4  12  22  40  68  92 130 174 224 262 326 398
#     4  11  22  43  64  96 128 166 214 272 316 390
#     4  11  23  43  66  92 135 171 215 269 328 389
#
# _framework density 20.328212000000001
#
# number of rings (size 3 to 8) (size 9 to 14) (size 15 to 20)
#    0.000    1.263    8.421    0.000    1.474    0.421 
#   11.368    2.105    0.000    0.000    0.000    0.000 
#    0.000    0.000    0.000    0.000    0.000    0.000 
#
# Total GULP energy -470802.229480 kJ/mol
# GULP energy per Si atom -12389.532355 kJ/mol
# Density = 2.028194 g / cm^3
# Si number density = 20.328212 Si / 1000 Ang^3
#
#
#
# Elastic Constant Matrix: (Units=GPa)
#
#
# Indices 1 2 3 4 5 6 
#
# 1 102.0947 39.3045 25.1107 0.0000 0.0000 0.0000
# 2 39.3045 102.0947 25.1107 0.0000 0.0000 0.0000
# 3 25.1107 25.1107 75.3073 0.0000 0.0000 0.0000
# 4 0.0000 0.0000 0.0000 25.2893 0.0000 0.0000
# 5 0.0000 0.0000 0.0000 0.0000 25.2893 0.0000
# 6 0.0000 0.0000 0.0000 0.0000 0.0000 33.4627
#
#
#
# Elastic Compliance Matrix: (Units=1/GPa)
#
#
# Indices 1 2 3 4 5 6 
#
# 1 0.011974 -0.003952 -0.002675 0.000000 0.000000 0.000000
# 2 -0.003952 0.011974 -0.002675 0.000000 0.000000 0.000000
# 3 -0.002675 -0.002675 0.015063 0.000000 0.000000 0.000000
# 4 0.000000 0.000000 0.000000 0.039542 0.000000 0.000000
# 5 0.000000 0.000000 0.000000 0.000000 0.039542 0.000000
# 6 0.000000 0.000000 0.000000 0.000000 0.000000 0.029884
#
#
# Mechanical properties :
#
#
# Convention : Reuss Voigt Hill
#
# Bulk Modulus (GPa) = 49.00164 50.94981 49.97573
# Shear Modulus (GPa) = 28.83738 29.47299 29.15518
#
# Velocity S-wave (km/s) = 3.77050 3.81183 3.79122
# Velocity P-wave (km/s) = 6.56606 6.67019 6.61833
#
# Compressibility (1/GPa) = 0.02040748
#
# Stress axis : x y z
#
# Youngs Moduli (GPa) = 83.51322 83.51322 66.38866
#
# Poissons Ratio (x) = 0.33004 0.17759
# Poissons Ratio (y) = 0.33004 0.17759
# Poissons Ratio (z) = 0.22339 0.22339
#
# Static dielectric constant tensor:
#      x y z
#    x 3.752850 0.000000 0.000000 
#    y 0.000000 3.752850 0.000000 
#    z 0.000000 0.000000 3.667420 
# 
# 
# High freq. dielectric constant tensor:
#      x y z
#    x 1.788900 0.000000 0.000000 
#    y 0.000000 1.788900 0.000000 
#    z 0.000000 0.000000 1.785280 
# 
# From -- ./inp_files/4358.got.cif
#   From: 2010.03.12/outbox.cif.g09.slc.cpg/sg122_3_cif.got.tgz:4358.got - 2010.04.06 16:17:16.
