data_PCOD8311848
_publ_section_title
;
Structure prediction by ZEFSAII (Michael W. Deem and Ramdas Pophale) SiO2 
 PCOD8311848
Probable space group: I -4 2 D
;
_chemical_formula_sum "Si O2"
_cell_formula_units_Z 80
_cell_length_a 13.355769
_cell_length_b 13.355769
_cell_length_c 20.740529
_cell_angle_alpha 90.000000
_cell_angle_beta 90.000000
_cell_angle_gamma 90.000000
_cell_volume 3699.624331
_symmetry_space_group_name_H-M "I -4 2 D"
_symmetry_group_IT_number 122
_symmetry_cell_setting 'tetragonal'
loop_
_space_group_symop_operation_xyz
x,y,z
y,-x,-z
-x,-y,z
-y,x,-z
x,1/2-y,1/4-z
-x,1/2+y,1/4-z
-y,1/2-x,1/4+z
y,1/2+x,1/4+z
1/2+x,1/2+y,1/2+z
1/2+y,1/2-x,1/2-z
1/2-x,1/2-y,1/2+z
1/2-y,1/2+x,1/2-z
1/2+x,-y,3/4-z
1/2-x,y,3/4-z
1/2-y,-x,3/4+z
1/2+y,x,3/4+z
loop_
_atom_site_type_symbol
_atom_site_label
_atom_site_fract_x
_atom_site_fract_y
_atom_site_fract_z
Si Si1 0.808353 0.145244 0.465066
Si Si2 0.856989 0.134375 0.608513
Si Si3 0.245282 0.499887 0.551494
Si Si4 0.149564 0.203926 0.057483
Si Si5 0.115344 0.569220 0.910148
O O1 0.860408 0.115507 0.531900
O O2 0.761887 0.255300 0.471946
O O3 0.885257 0.139463 0.404950
O O4 0.723858 0.063398 0.444966
O O5 0.851537 0.250000 0.625000
O O6 0.760307 0.079756 0.639448
O O7 0.956502 0.083442 0.640684
O O8 0.325135 0.413045 0.566272
O O9 0.281857 0.554302 0.487503
O O10 0.131618 0.456534 0.541474
O O11 0.117692 0.250000 0.125000
#
# Coordination Sequence:
#
# PCOD8311848 Si02
#       5
#    16  16  16  16  16
#     4  10  20  40  68  93 140 193 211 284 375 419
#     4  12  23  38  69 109 142 180 234 291 359 441
#     4  11  25  44  69 102 138 188 247 292 361 438
#     4  11  23  48  75  94 140 189 242 307 363 421
#     4  10  22  42  63 101 142 182 237 284 345 444
#
# _framework density 21.623818
#
# number of rings (size 3 to 8) (size 9 to 14) (size 15 to 20)
#    0.000    1.200    8.000    0.600    2.800    2.000 
#    7.200    0.000    0.000    0.000    0.000    0.000 
#    0.000    0.000    0.000    0.000    0.000    0.000 
#
# Total GULP energy -495845.127285 kJ/mol
# GULP energy per Si atom -12396.128182 kJ/mol
# Density = 2.157460 g / cm^3
# Si number density = 21.623818 Si / 1000 Ang^3
#
#
#
# Elastic Constant Matrix: (Units=GPa)
#
#
# Indices 1 2 3 4 5 6 
#
# 1 100.1309 49.1440 57.9427 0.0000 0.0000 0.0000
# 2 49.1440 100.1309 57.9427 0.0000 0.0000 0.0000
# 3 57.9427 57.9427 123.9090 0.0000 0.0000 0.0000
# 4 0.0000 0.0000 0.0000 40.7110 0.0000 0.0000
# 5 0.0000 0.0000 0.0000 0.0000 40.7110 0.0000
# 6 0.0000 0.0000 0.0000 0.0000 0.0000 32.0375
#
#
#
# Elastic Compliance Matrix: (Units=1/GPa)
#
#
# Indices 1 2 3 4 5 6 
#
# 1 0.015065 -0.004548 -0.004918 0.000000 0.000000 0.000000
# 2 -0.004548 0.015065 -0.004918 0.000000 0.000000 0.000000
# 3 -0.004918 -0.004918 0.012670 0.000000 0.000000 0.000000
# 4 0.000000 0.000000 0.000000 0.024563 0.000000 0.000000
# 5 0.000000 0.000000 0.000000 0.000000 0.024563 0.000000
# 6 0.000000 0.000000 0.000000 0.000000 0.000000 0.031213
#
#
# Mechanical properties :
#
#
# Convention : Reuss Voigt Hill
#
# Bulk Modulus (GPa) = 71.26566 72.69217 71.97891
# Shear Modulus (GPa) = 31.93150 33.30134 32.61642
#
# Velocity S-wave (km/s) = 3.84693 3.92858 3.88797
# Velocity P-wave (km/s) = 7.26364 7.36668 7.31534
#
# Compressibility (1/GPa) = 0.01403200
#
# Stress axis : x y z
#
# Youngs Moduli (GPa) = 66.37927 66.37927 78.92685
#
# Poissons Ratio (x) = 0.30189 0.38816
# Poissons Ratio (y) = 0.30189 0.38816
# Poissons Ratio (z) = 0.32645 0.32645
#
# Static dielectric constant tensor:
#      x y z
#    x 3.923950 0.000000 0.000000 
#    y 0.000000 3.923950 0.000000 
#    z 0.000000 0.000000 3.807270 
# 
# 
# High freq. dielectric constant tensor:
#      x y z
#    x 1.848440 0.000000 0.000000 
#    y 0.000000 1.848440 0.000000 
#    z 0.000000 0.000000 1.835760 
# 
# From -- ./inp_files/7087.got.cif
#   From: 2010.03.12/outbox.cif.g09.slc.cpg/sg122_4_cif.got.tgz:7087.got - 2010.04.06 16:17:16.
