data_PCOD8311573
_publ_section_title
;
Structure prediction by ZEFSAII (Michael W. Deem and Ramdas Pophale) SiO2 
 PCOD8311573
Probable space group: I -4 2 M
;
_chemical_formula_sum "Si O2"
_cell_formula_units_Z 32
_cell_length_a 10.162658
_cell_length_b 10.162658
_cell_length_c 12.658027
_cell_angle_alpha 90.000000
_cell_angle_beta 90.000000
_cell_angle_gamma 90.000000
_cell_volume 1307.316188
_symmetry_space_group_name_H-M "I -4 2 M"
_symmetry_group_IT_number 121
_symmetry_cell_setting 'tetragonal'
loop_
_space_group_symop_operation_xyz
x,y,z
y,-x,-z
-x,-y,z
-y,x,-z
x,-y,-z
-x,y,-z
-y,-x,z
y,x,z
1/2+x,1/2+y,1/2+z
1/2+y,1/2-x,1/2-z
1/2-x,1/2-y,1/2+z
1/2-y,1/2+x,1/2-z
1/2+x,1/2-y,1/2-z
1/2-x,1/2+y,1/2-z
1/2-y,1/2-x,1/2+z
1/2+y,1/2+x,1/2+z
loop_
_atom_site_type_symbol
_atom_site_label
_atom_site_fract_x
_atom_site_fract_y
_atom_site_fract_z
Si Si1 0.503465 0.289020 0.800409
Si Si2 0.822655 0.391104 0.586785
O O1 0.629517 0.370484 0.843268
O O2 0.385647 0.385647 0.767102
O O3 0.538732 0.207543 0.697097
O O4 0.455928 0.193441 0.894682
O O5 0.851281 0.500000 0.500000
O O6 0.700660 0.299341 0.551302
#
# Coordination Sequence:
#
# PCOD8311573 Si02
#       2
#    16  16
#     4   9  19  37  62  97 140 178 218 276 339 395
#     4  10  20  37  67 101 131 172 226 278 331 397
#
# _framework density 24.477629
#
# number of rings (size 3 to 8) (size 9 to 14) (size 15 to 20)
#    0.000    2.500    0.000    1.500    0.000    3.500 
#    0.000    5.000    0.000   21.000    0.000   31.500 
#    0.000    0.000    0.000    0.000    0.000    0.000 
#
# Total GULP energy -198449.452340 kJ/mol
# GULP energy per Si atom -12403.090771 kJ/mol
# Density = 2.442192 g / cm^3
# Si number density = 24.477629 Si / 1000 Ang^3
#
#
#
# Elastic Constant Matrix: (Units=GPa)
#
#
# Indices 1 2 3 4 5 6 
#
# 1 147.3628 89.2166 88.6265 0.0000 0.0000 0.0000
# 2 89.2166 147.3632 88.6250 0.0000 0.0000 0.0000
# 3 88.6265 88.6250 109.7755 0.0000 0.0000 0.0000
# 4 0.0000 0.0000 0.0000 41.9500 0.0000 0.0000
# 5 0.0000 0.0000 0.0000 0.0000 41.9504 0.0000
# 6 0.0000 0.0000 0.0000 0.0000 0.0000 30.4962
#
#
#
# Elastic Compliance Matrix: (Units=1/GPa)
#
#
# Indices 1 2 3 4 5 6 
#
# 1 0.013948 -0.003250 -0.008637 0.000000 0.000000 0.000000
# 2 -0.003250 0.013948 -0.008636 0.000000 0.000000 0.000000
# 3 -0.008637 -0.008636 0.023055 0.000000 0.000000 0.000000
# 4 0.000000 0.000000 0.000000 0.023838 0.000000 0.000000
# 5 0.000000 0.000000 0.000000 0.000000 0.023838 0.000000
# 6 0.000000 0.000000 0.000000 0.000000 0.000000 0.032791
#
#
# Mechanical properties :
#
#
# Convention : Reuss Voigt Hill
#
# Bulk Modulus (GPa) = 100.97254 104.15974 102.56614
# Shear Modulus (GPa) = 28.44704 32.08154 30.26429
#
# Velocity S-wave (km/s) = 3.41275 3.62421 3.52007
# Velocity P-wave (km/s) = 7.54120 7.75620 7.64945
#
# Compressibility (1/GPa) = 0.00990368
#
# Stress axis : x y z
#
# Youngs Moduli (GPa) = 71.69437 71.69697 43.37477
#
# Poissons Ratio (x) = 0.23302 0.37463
# Poissons Ratio (y) = 0.23302 0.37460
# Poissons Ratio (z) = 0.61922 0.61920
#
# Static dielectric constant tensor:
#      x y z
#    x 4.834430 0.000000 0.000000 
#    y 0.000000 4.834440 0.000000 
#    z 0.000000 0.000000 4.083380 
# 
# 
# High freq. dielectric constant tensor:
#      x y z
#    x 1.990040 0.000000 0.000000 
#    y 0.000000 1.990040 0.000000 
#    z 0.000000 0.000000 1.951970 
# 
# From -- ./inp_files/2318.got.cif
#   From: 2010.03.12/outbox.cif.g09.slc.cpg/sg121_2_cif.got.tgz:2318.got - 2010.04.06 16:06:48.
