data_PCOD8311751
_publ_section_title
;
Structure prediction by ZEFSAII (Michael W. Deem and Ramdas Pophale) SiO2 
 PCOD8311751
Probable space group: I -4 2 D
;
_chemical_formula_sum "Si O2"
_cell_formula_units_Z 64
_cell_length_a 10.484855
_cell_length_b 10.484855
_cell_length_c 30.670081
_cell_angle_alpha 90.000000
_cell_angle_beta 90.000000
_cell_angle_gamma 90.000000
_cell_volume 3371.628999
_symmetry_space_group_name_H-M "I -4 2 D"
_symmetry_group_IT_number 122
_symmetry_cell_setting 'tetragonal'
loop_
_space_group_symop_operation_xyz
x,y,z
y,-x,-z
-x,-y,z
-y,x,-z
x,1/2-y,1/4-z
-x,1/2+y,1/4-z
-y,1/2-x,1/4+z
y,1/2+x,1/4+z
1/2+x,1/2+y,1/2+z
1/2+y,1/2-x,1/2-z
1/2-x,1/2-y,1/2+z
1/2-y,1/2+x,1/2-z
1/2+x,-y,3/4-z
1/2-x,y,3/4-z
1/2-y,-x,3/4+z
1/2+y,x,3/4+z
loop_
_atom_site_type_symbol
_atom_site_label
_atom_site_fract_x
_atom_site_fract_y
_atom_site_fract_z
Si Si1 0.714486 0.418941 0.709417
Si Si2 0.040032 0.631986 0.656402
Si Si3 0.808149 0.197195 0.458749
Si Si4 0.250000 0.643822 0.375000
Si Si5 0.500000 0.000000 0.901477
O O1 0.818935 0.375862 0.674586
O O2 0.711520 0.321160 0.750415
O O3 0.729960 0.565487 0.725027
O O4 0.585129 0.410950 0.682522
O O5 0.026015 0.750000 0.625000
O O6 0.000000 0.500000 0.631676
O O7 0.944522 0.647837 0.696608
O O8 0.742455 0.269369 0.418347
O O9 0.387256 0.569340 0.376522
#
# Coordination Sequence:
#
# PCOD8311751 Si02
#       5
#    16  16  16   8   8
#     4  10  20  36  60  85 120 152 197 249 309 355
#     4  10  20  34  58  92 117 145 191 254 311 354
#     4  10  18  36  61  90 114 146 191 262 312 344
#     4  10  22  42  62  84 126 164 204 248 304 372
#     4  10  24  42  56  85 126 176 200 239 300 378
#
# _framework density 18.981922000000001
#
# number of rings (size 3 to 8) (size 9 to 14) (size 15 to 20)
#    0.000    2.000    3.750    0.000    1.750    0.000 
#    2.250    5.000    0.000    0.000    0.000    0.000 
#    0.000    0.000    0.000    0.000    0.000    0.000 
#
# Total GULP energy -396447.679529 kJ/mol
# GULP energy per Si atom -12388.989985 kJ/mol
# Density = 1.893872 g / cm^3
# Si number density = 18.981922 Si / 1000 Ang^3
#
#
#
# Elastic Constant Matrix: (Units=GPa)
#
#
# Indices 1 2 3 4 5 6 
#
# 1 96.9819 23.5440 44.9426 0.0000 0.0000 0.0000
# 2 23.5440 96.9819 44.9426 0.0000 0.0000 0.0000
# 3 44.9426 44.9426 99.0208 0.0000 0.0000 0.0000
# 4 0.0000 0.0000 0.0000 17.7878 0.0000 0.0000
# 5 0.0000 0.0000 0.0000 0.0000 17.7878 0.0000
# 6 0.0000 0.0000 0.0000 0.0000 0.0000 30.2383
#
#
#
# Elastic Compliance Matrix: (Units=1/GPa)
#
#
# Indices 1 2 3 4 5 6 
#
# 1 0.013080 -0.000537 -0.005693 0.000000 0.000000 0.000000
# 2 -0.000537 0.013080 -0.005693 0.000000 0.000000 0.000000
# 3 -0.005693 -0.005693 0.015266 0.000000 0.000000 0.000000
# 4 0.000000 0.000000 0.000000 0.056218 0.000000 0.000000
# 5 0.000000 0.000000 0.000000 0.000000 0.056218 0.000000
# 6 0.000000 0.000000 0.000000 0.000000 0.000000 0.033071
#
#
# Mechanical properties :
#
#
# Convention : Reuss Voigt Hill
#
# Bulk Modulus (GPa) = 56.88086 57.76034 57.32060
# Shear Modulus (GPa) = 23.07997 25.13315 24.10656
#
# Velocity S-wave (km/s) = 3.49075 3.64271 3.56754
# Velocity P-wave (km/s) = 6.80279 6.94173 6.87261
#
# Compressibility (1/GPa) = 0.01758060
#
# Stress axis : x y z
#
# Youngs Moduli (GPa) = 76.45462 76.45463 65.50381
#
# Poissons Ratio (x) = 0.04108 0.37289
# Poissons Ratio (y) = 0.04108 0.37289
# Poissons Ratio (z) = 0.43523 0.43523
#
# Static dielectric constant tensor:
#      x y z
#    x 3.598880 0.000000 0.000000 
#    y 0.000000 3.598880 0.000000 
#    z 0.000000 0.000000 3.259070 
# 
# 
# High freq. dielectric constant tensor:
#      x y z
#    x 1.734900 0.000000 0.000000 
#    y 0.000000 1.734900 0.000000 
#    z 0.000000 0.000000 1.721560 
# 
# From -- ./inp_files/7868.got.cif
#   From: 2010.03.12/outbox.cif.g09.slc.cpg/sg122_4_cif.got.tgz:7868.got - 2010.04.06 16:17:16.
