data_PCOD8311560
_publ_section_title
;
Structure prediction by ZEFSAII (Michael W. Deem and Ramdas Pophale) SiO2 
 PCOD8311560
Probable space group: I -4 2 M
;
_chemical_formula_sum "Si O2"
_cell_formula_units_Z 72
_cell_length_a 19.751840
_cell_length_b 19.751840
_cell_length_c 9.701769
_cell_angle_alpha 90.000000
_cell_angle_beta 90.000000
_cell_angle_gamma 90.000000
_cell_volume 3785.001428
_symmetry_space_group_name_H-M "I -4 2 M"
_symmetry_group_IT_number 121
_symmetry_cell_setting 'tetragonal'
loop_
_space_group_symop_operation_xyz
x,y,z
y,-x,-z
-x,-y,z
-y,x,-z
x,-y,-z
-x,y,-z
-y,-x,z
y,x,z
1/2+x,1/2+y,1/2+z
1/2+y,1/2-x,1/2-z
1/2-x,1/2-y,1/2+z
1/2-y,1/2+x,1/2-z
1/2+x,1/2-y,1/2-z
1/2-x,1/2+y,1/2-z
1/2-y,1/2-x,1/2+z
1/2+y,1/2+x,1/2+z
loop_
_atom_site_type_symbol
_atom_site_label
_atom_site_fract_x
_atom_site_fract_y
_atom_site_fract_z
Si Si1 0.475918 0.185241 0.654613
Si Si2 0.580662 0.688423 0.790753
Si Si3 0.117615 0.342463 0.737320
Si Si4 0.218920 0.673607 0.029649
Si Si5 0.109370 0.000000 0.500000
O O1 0.500000 0.173808 0.500000
O O2 0.445733 0.261356 0.671443
O O3 0.420422 0.129377 0.695652
O O4 0.538051 0.173154 0.759074
O O5 0.631962 0.631962 0.726946
O O6 0.618551 0.731057 0.907218
O O7 0.516903 0.653513 0.865142
O O8 0.148781 0.324948 0.886646
O O9 0.153968 0.294376 0.627466
O O10 0.252085 0.747916 0.031540
O O11 0.064331 0.935670 0.457601
#
# Coordination Sequence:
#
# PCOD8311560 Si02
#       5
#    16  16  16  16   8
#     4  11  23  42  58  85 120 153 205 250 301 362
#     4   9  19  35  58  85 117 155 194 245 303 351
#     4  11  22  39  61  85 118 161 194 248 299 357
#     4  10  20  36  59  88 117 150 198 249 299 350
#     4   9  16  30  54  84 116 151 198 244 288 355
#
# _framework density 19.022449000000002
#
# number of rings (size 3 to 8) (size 9 to 14) (size 15 to 20)
#    0.000    1.889    2.222    2.000    0.000    4.000 
#    0.000    3.333    0.000    0.000    0.000    0.000 
#    0.000    0.000    0.000    0.000    0.000    0.000 
#
# Total GULP energy -446485.823252 kJ/mol
# GULP energy per Si atom -12402.383979 kJ/mol
# Density = 1.897915 g / cm^3
# Si number density = 19.022449 Si / 1000 Ang^3
#
#
#
# Elastic Constant Matrix: (Units=GPa)
#
#
# Indices 1 2 3 4 5 6 
#
# 1 100.6974 41.3244 22.6087 0.0000 0.0000 0.0000
# 2 41.3244 100.6963 22.6080 0.0000 0.0000 0.0000
# 3 22.6087 22.6080 64.8464 0.0000 0.0000 0.0000
# 4 0.0000 0.0000 0.0000 22.5930 0.0000 0.0000
# 5 0.0000 0.0000 0.0000 0.0000 22.5945 0.0000
# 6 0.0000 0.0000 0.0000 0.0000 0.0000 24.7608
#
#
#
# Elastic Compliance Matrix: (Units=1/GPa)
#
#
# Indices 1 2 3 4 5 6 
#
# 1 0.012382 -0.004461 -0.002761 0.000000 0.000000 0.000000
# 2 -0.004461 0.012382 -0.002761 0.000000 0.000000 0.000000
# 3 -0.002761 -0.002761 0.017347 0.000000 0.000000 0.000000
# 4 0.000000 0.000000 0.000000 0.044261 0.000000 0.000000
# 5 0.000000 0.000000 0.000000 0.000000 0.044259 0.000000
# 6 0.000000 0.000000 0.000000 0.000000 0.000000 0.040386
#
#
# Mechanical properties :
#
#
# Convention : Reuss Voigt Hill
#
# Bulk Modulus (GPa) = 45.16363 48.81360 46.98861
# Shear Modulus (GPa) = 25.20607 25.96958 25.58782
#
# Velocity S-wave (km/s) = 3.64410 3.69888 3.67159
# Velocity P-wave (km/s) = 6.44203 6.63016 6.53677
#
# Compressibility (1/GPa) = 0.02214171
#
# Stress axis : x y z
#
# Youngs Moduli (GPa) = 80.76525 80.76472 57.64830
#
# Poissons Ratio (x) = 0.36031 0.15919
# Poissons Ratio (y) = 0.36031 0.15919
# Poissons Ratio (z) = 0.22303 0.22302
#
# Static dielectric constant tensor:
#      x y z
#    x 3.660910 0.000000 0.000000 
#    y 0.000000 3.660910 0.000000 
#    z 0.000000 0.000000 3.259710 
# 
# 
# High freq. dielectric constant tensor:
#      x y z
#    x 1.745260 0.000000 0.000000 
#    y 0.000000 1.745260 0.000000 
#    z 0.000000 0.000000 1.724060 
# 
# From -- ./inp_files/1680.got.cif
#   From: 2010.03.12/outbox.cif.g09.slc.cpg/sg121_1_cif.got.tgz:1680.got - 2010.04.06 16:06:48.
