data_PCOD8311865
_publ_section_title
;
Structure prediction by ZEFSAII (Michael W. Deem and Ramdas Pophale) SiO2 
 PCOD8311865
Probable space group: I -4 2 D
;
_chemical_formula_sum "Si O2"
_cell_formula_units_Z 120
_cell_length_a 20.557837
_cell_length_b 20.557837
_cell_length_c 13.824778
_cell_angle_alpha 90.000000
_cell_angle_beta 90.000000
_cell_angle_gamma 90.000000
_cell_volume 5842.692131
_symmetry_space_group_name_H-M "I -4 2 D"
_symmetry_group_IT_number 122
_symmetry_cell_setting 'tetragonal'
loop_
_space_group_symop_operation_xyz
x,y,z
y,-x,-z
-x,-y,z
-y,x,-z
x,1/2-y,1/4-z
-x,1/2+y,1/4-z
-y,1/2-x,1/4+z
y,1/2+x,1/4+z
1/2+x,1/2+y,1/2+z
1/2+y,1/2-x,1/2-z
1/2-x,1/2-y,1/2+z
1/2-y,1/2+x,1/2-z
1/2+x,-y,3/4-z
1/2-x,y,3/4-z
1/2-y,-x,3/4+z
1/2+y,x,3/4+z
loop_
_atom_site_type_symbol
_atom_site_label
_atom_site_fract_x
_atom_site_fract_y
_atom_site_fract_z
Si Si1 0.628027 0.671611 0.312074
Si Si2 0.231665 0.761118 0.515837
Si Si3 0.681379 0.352590 0.469690
Si Si4 0.250000 0.967551 0.875000
Si Si5 0.606790 0.239093 0.912043
Si Si6 0.901079 0.010147 0.541785
Si Si7 0.516214 0.745398 0.015407
Si Si8 0.158647 0.041437 0.724756
O O1 0.686121 0.711045 0.259085
O O2 0.647050 0.653959 0.421755
O O3 0.563514 0.714439 0.305430
O O4 0.617088 0.602391 0.262169
O O5 0.208664 0.750000 0.625000
O O6 0.256337 0.694503 0.468173
O O7 0.168373 0.779457 0.453406
O O8 0.705651 0.424261 0.445077
O O9 0.626585 0.326818 0.394805
O O10 0.196313 0.006792 0.813090
O O11 0.565830 0.284341 0.842964
O O12 0.556289 0.224683 0.999561
O O13 0.892816 0.000480 0.659370
O O14 0.928958 0.946958 0.484832
O O15 0.830121 0.024868 0.504442
O O16 0.538566 0.750000 0.125000
#
# Coordination Sequence:
#
# PCOD8311865 Si02
#       8
#    16  16  16   8  16  16  16  16
#     4  11  24  39  63  96 131 173 222 274 352 411
#     4  10  21  36  63  95 129 167 209 281 341 401
#     4  11  21  39  63  95 129 168 217 276 335 408
#     4  12  24  42  62 100 132 174 224 270 350 420
#     4  11  21  39  59  95 128 168 210 271 342 395
#     4  10  23  44  65  89 128 180 229 277 338 415
#     4  11  25  38  61  96 130 169 219 283 339 412
#     4  11  24  40  66  91 132 178 216 274 344 421
#
# _framework density 20.538478000000001
#
# number of rings (size 3 to 8) (size 9 to 14) (size 15 to 20)
#    0.000    1.200    2.667    3.600    6.533    1.067 
#    0.000    0.000    0.000    0.000    0.000    1.867 
#    0.000    0.000    0.000    0.000    0.000    0.000 
#
# Total GULP energy -743687.775295 kJ/mol
# GULP energy per Si atom -12394.796255 kJ/mol
# Density = 2.049173 g / cm^3
# Si number density = 20.538478 Si / 1000 Ang^3
#
#
#
# Elastic Constant Matrix: (Units=GPa)
#
#
# Indices 1 2 3 4 5 6 
#
# 1 88.0213 27.1850 30.7724 0.0000 0.0000 0.0000
# 2 27.1850 88.0213 30.7724 0.0000 0.0000 0.0000
# 3 30.7724 30.7724 93.4854 0.0000 0.0000 0.0000
# 4 0.0000 0.0000 0.0000 41.3514 0.0000 0.0000
# 5 0.0000 0.0000 0.0000 0.0000 41.3514 0.0000
# 6 0.0000 0.0000 0.0000 0.0000 0.0000 34.7231
#
#
#
# Elastic Compliance Matrix: (Units=1/GPa)
#
#
# Indices 1 2 3 4 5 6 
#
# 1 0.013485 -0.002953 -0.003467 0.000000 0.000000 0.000000
# 2 -0.002953 0.013485 -0.003467 0.000000 0.000000 0.000000
# 3 -0.003467 -0.003467 0.012979 0.000000 0.000000 0.000000
# 4 0.000000 0.000000 0.000000 0.024183 0.000000 0.000000
# 5 0.000000 0.000000 0.000000 0.000000 0.024183 0.000000
# 6 0.000000 0.000000 0.000000 0.000000 0.000000 0.028799
#
#
# Mechanical properties :
#
#
# Convention : Reuss Voigt Hill
#
# Bulk Modulus (GPa) = 49.56366 49.66532 49.61449
# Shear Modulus (GPa) = 34.81599 35.53841 35.17720
#
# Velocity S-wave (km/s) = 4.12170 4.16424 4.14302
# Velocity P-wave (km/s) = 6.84366 6.88152 6.86261
#
# Compressibility (1/GPa) = 0.02017607
#
# Stress axis : x y z
#
# Youngs Moduli (GPa) = 74.15737 74.15737 77.04634
#
# Poissons Ratio (x) = 0.21897 0.26711
# Poissons Ratio (y) = 0.21897 0.26711
# Poissons Ratio (z) = 0.25709 0.25709
#
# Static dielectric constant tensor:
#      x y z
#    x 3.729940 0.000000 0.000000 
#    y 0.000000 3.729940 0.000000 
#    z 0.000000 0.000000 4.714490 
# 
# 
# High freq. dielectric constant tensor:
#      x y z
#    x 1.792680 0.000000 0.000000 
#    y 0.000000 1.792680 0.000000 
#    z 0.000000 0.000000 1.823290 
# 
# From -- ./inp_files/5590.got.cif
#   From: 2010.03.12/outbox.cif.g09.slc.cpg/sg122_3_cif.got.tgz:5590.got - 2010.04.06 16:17:16.
