data_PCOD8311206
_publ_section_title
;
Structure prediction by ZEFSAII (Michael W. Deem and Ramdas Pophale) SiO2 
 PCOD8311206
Probable space group: I -4 C 2
;
_chemical_formula_sum "Si O2"
_cell_formula_units_Z 80
_cell_length_a 13.696515
_cell_length_b 13.696515
_cell_length_c 21.422063
_cell_angle_alpha 90.000000
_cell_angle_beta 90.000000
_cell_angle_gamma 90.000000
_cell_volume 4018.661693
_symmetry_space_group_name_H-M "I -4 C 2"
_symmetry_group_IT_number 120
_symmetry_cell_setting 'tetragonal'
loop_
_space_group_symop_operation_xyz
x,y,z
y,-x,-z
-x,-y,z
-y,x,-z
y,x,1/2-z
-y,-x,1/2-z
-x,y,1/2+z
x,-y,1/2+z
1/2+x,1/2+y,1/2+z
1/2+y,1/2-x,1/2-z
1/2-x,1/2-y,1/2+z
1/2-y,1/2+x,1/2-z
1/2+y,1/2+x,-z
1/2-y,1/2-x,-z
1/2-x,1/2+y,z
1/2+x,1/2-y,z
loop_
_atom_site_type_symbol
_atom_site_label
_atom_site_fract_x
_atom_site_fract_y
_atom_site_fract_z
Si Si1 0.119394 0.224941 0.069977
Si Si2 0.418319 0.759871 0.626517
Si Si3 1.000000 0.657116 0.750000
Si Si4 0.724941 0.380606 0.569977
Si Si5 0.918319 0.740129 0.373483
O O1 0.171924 0.328076 0.078953
O O2 0.162963 0.148400 0.120494
O O3 0.006026 0.245639 0.078856
O O4 0.136273 0.183650 0.000000
O O5 0.460506 0.772032 0.696063
O O6 0.351600 0.662963 0.620494
O O7 0.355055 0.855055 0.607282
O O8 0.088246 0.588246 0.725013
O O9 0.039494 0.727968 0.803937
O O10 0.745639 0.493974 0.578856
#
# Coordination Sequence:
#
# PCOD8311206 Si02
#       5
#    16  16  16  16  16
#     4  10  21  36  56  82 111 149 191 228 279 336
#     4  10  21  37  56  81 114 146 185 235 277 328
#     4   9  18  34  58  85 112 148 188 225 278 337
#     4  10  21  36  56  82 111 149 191 228 279 336
#     4  10  21  37  56  81 114 146 185 235 277 328
#
# _framework density 19.907124
#
# number of rings (size 3 to 8) (size 9 to 14) (size 15 to 20)
#    0.000    2.200    0.000    2.400    0.000    7.200 
#    0.000   10.000    0.000    2.400    0.000    0.000 
#    0.000    0.000    0.000    0.000    0.000    0.000 
#
# Total GULP energy -495915.114211 kJ/mol
# GULP energy per Si atom -12397.877855 kJ/mol
# Density = 1.986181 g / cm^3
# Si number density = 19.907124 Si / 1000 Ang^3
#
#
#
# Elastic Constant Matrix: (Units=GPa)
#
#
# Indices 1 2 3 4 5 6 
#
# 1 118.0178 52.8343 47.5983 0.0000 0.0000 0.0000
# 2 52.8343 118.0178 47.5983 0.0000 0.0000 0.0000
# 3 47.5983 47.5983 84.2290 0.0000 0.0000 0.0000
# 4 0.0000 0.0000 0.0000 34.5573 0.0000 0.0000
# 5 0.0000 0.0000 0.0000 0.0000 34.5573 0.0000
# 6 0.0000 0.0000 0.0000 0.0000 0.0000 21.1531
#
#
#
# Elastic Compliance Matrix: (Units=1/GPa)
#
#
# Indices 1 2 3 4 5 6 
#
# 1 0.011942 -0.003399 -0.004828 0.000000 0.000000 0.000000
# 2 -0.003399 0.011942 -0.004828 0.000000 0.000000 0.000000
# 3 -0.004828 -0.004828 0.017329 0.000000 0.000000 0.000000
# 4 0.000000 0.000000 0.000000 0.028937 0.000000 0.000000
# 5 0.000000 0.000000 0.000000 0.000000 0.028937 0.000000
# 6 0.000000 0.000000 0.000000 0.000000 0.000000 0.047274
#
#
# Mechanical properties :
#
#
# Convention : Reuss Voigt Hill
#
# Bulk Modulus (GPa) = 66.20812 68.48072 67.34442
# Shear Modulus (GPa) = 28.16809 29.53578 28.85193
#
# Velocity S-wave (km/s) = 3.76570 3.85603 3.81113
# Velocity P-wave (km/s) = 7.22759 7.36886 7.29857
#
# Compressibility (1/GPa) = 0.01510389
#
# Stress axis : x y z
#
# Youngs Moduli (GPa) = 83.73723 83.73723 57.70783
#
# Poissons Ratio (x) = 0.28464 0.27859
# Poissons Ratio (y) = 0.28464 0.27859
# Poissons Ratio (z) = 0.40425 0.40425
#
# Static dielectric constant tensor:
#      x y z
#    x 3.601370 0.000000 0.000000 
#    y 0.000000 3.601370 0.000000 
#    z 0.000000 0.000000 3.464140 
# 
# 
# High freq. dielectric constant tensor:
#      x y z
#    x 1.774630 0.000000 0.000000 
#    y 0.000000 1.774630 0.000000 
#    z 0.000000 0.000000 1.767900 
# 
# From -- ./inp_files/5187.got.cif
#   From: 2010.03.12/outbox.cif.g09.slc.cpg/sg120_3_cif.got.tgz:5187.got - 2010.04.06 16:00:44.
