data_PCOD8311822
_publ_section_title
;
Structure prediction by ZEFSAII (Michael W. Deem and Ramdas Pophale) SiO2 
 PCOD8311822
Probable space group: I -4 2 D
;
_chemical_formula_sum "Si O2"
_cell_formula_units_Z 96
_cell_length_a 25.741247
_cell_length_b 25.741247
_cell_length_c 7.302738
_cell_angle_alpha 90.000000
_cell_angle_beta 90.000000
_cell_angle_gamma 90.000000
_cell_volume 4838.880350
_symmetry_space_group_name_H-M "I -4 2 D"
_symmetry_group_IT_number 122
_symmetry_cell_setting 'tetragonal'
loop_
_space_group_symop_operation_xyz
x,y,z
y,-x,-z
-x,-y,z
-y,x,-z
x,1/2-y,1/4-z
-x,1/2+y,1/4-z
-y,1/2-x,1/4+z
y,1/2+x,1/4+z
1/2+x,1/2+y,1/2+z
1/2+y,1/2-x,1/2-z
1/2-x,1/2-y,1/2+z
1/2-y,1/2+x,1/2-z
1/2+x,-y,3/4-z
1/2-x,y,3/4-z
1/2-y,-x,3/4+z
1/2+y,x,3/4+z
loop_
_atom_site_type_symbol
_atom_site_label
_atom_site_fract_x
_atom_site_fract_y
_atom_site_fract_z
Si Si1 0.620344 0.040727 0.101746
Si Si2 0.750000 0.581026 0.375000
Si Si3 0.004856 0.173296 0.003982
Si Si4 0.616776 0.795775 0.271109
Si Si5 0.461660 0.871880 0.107631
Si Si6 0.795620 0.621323 0.736546
Si Si7 0.908897 0.750000 0.125000
O O1 0.671998 0.063351 0.201458
O O2 0.580340 0.085648 0.047638
O O3 0.599499 0.997904 0.243295
O O4 0.631399 0.010568 0.914223
O O5 0.794501 0.547140 0.282707
O O6 0.773504 0.616506 0.533106
O O7 0.055576 0.209788 0.009270
O O8 0.998432 0.144512 0.810739
O O9 0.663875 0.832126 0.214211
O O10 0.629249 0.774646 0.474960
O O11 0.608167 0.750000 0.125000
O O12 0.432216 0.822182 0.194874
O O13 0.750000 0.637105 0.875000
#
# Coordination Sequence:
#
# PCOD8311822 Si02
#       7
#    16   8  16  16  16  16   8
#     4  10  23  39  62  93 119 163 204 248 309 363
#     4  11  20  38  66  90 116 152 210 254 295 362
#     4  10  20  37  64  91 116 155 204 257 300 353
#     4  10  22  41  60  91 124 162 202 247 307 361
#     4  11  22  40  62  87 129 156 204 256 303 367
#     4  11  23  39  62  91 121 161 204 252 306 358
#     4   9  20  38  64  90 118 158 210 248 299 368
#
# _framework density 19.839300999999999
#
# number of rings (size 3 to 8) (size 9 to 14) (size 15 to 20)
#    0.000    1.667    3.333    1.000    0.000    3.667 
#    6.000    0.000    0.000    0.000    0.000    0.000 
#    0.000    0.000    0.000    0.000    0.000    0.000 
#
# Total GULP energy -595198.227659 kJ/mol
# GULP energy per Si atom -12399.963076 kJ/mol
# Density = 1.979415 g / cm^3
# Si number density = 19.839301 Si / 1000 Ang^3
#
#
#
# Elastic Constant Matrix: (Units=GPa)
#
#
# Indices 1 2 3 4 5 6 
#
# 1 66.9987 22.5878 51.5008 0.0000 0.0000 0.0000
# 2 22.5878 66.9987 51.5008 0.0000 0.0000 0.0000
# 3 51.5008 51.5008 144.7755 0.0000 0.0000 0.0000
# 4 0.0000 0.0000 0.0000 31.9452 0.0000 0.0000
# 5 0.0000 0.0000 0.0000 0.0000 31.9452 0.0000
# 6 0.0000 0.0000 0.0000 0.0000 0.0000 8.2448
#
#
#
# Elastic Compliance Matrix: (Units=1/GPa)
#
#
# Indices 1 2 3 4 5 6 
#
# 1 0.020702 -0.001815 -0.006719 0.000000 0.000000 0.000000
# 2 -0.001815 0.020702 -0.006719 0.000000 0.000000 0.000000
# 3 -0.006719 -0.006719 0.011687 0.000000 0.000000 0.000000
# 4 0.000000 0.000000 0.000000 0.031304 0.000000 0.000000
# 5 0.000000 0.000000 0.000000 0.000000 0.031304 0.000000
# 6 0.000000 0.000000 0.000000 0.000000 0.000000 0.121289
#
#
# Mechanical properties :
#
#
# Convention : Reuss Voigt Hill
#
# Bulk Modulus (GPa) = 44.27356 58.88351 51.57853
# Shear Modulus (GPa) = 18.18040 24.63926 21.40983
#
# Velocity S-wave (km/s) = 3.03047 3.52794 3.28862
# Velocity P-wave (km/s) = 5.88298 6.80734 6.36197
#
# Compressibility (1/GPa) = 0.02258685
#
# Stress axis : x y z
#
# Youngs Moduli (GPa) = 48.30430 48.30430 85.56282
#
# Poissons Ratio (x) = 0.08767 0.57487
# Poissons Ratio (y) = 0.08767 0.57487
# Poissons Ratio (z) = 0.32454 0.32454
#
# Static dielectric constant tensor:
#      x y z
#    x 3.469960 0.000000 0.000000 
#    y 0.000000 3.469960 0.000000 
#    z 0.000000 0.000000 3.661520 
# 
# 
# High freq. dielectric constant tensor:
#      x y z
#    x 1.763290 0.000000 0.000000 
#    y 0.000000 1.763290 0.000000 
#    z 0.000000 0.000000 1.787410 
# 
# From -- ./inp_files/1472.got.cif
#   From: 2010.03.12/outbox.cif.g09.slc.cpg/sg122_1_cif.got.tgz:1472.got - 2010.04.06 16:17:16.
