data_PCOD8311350
_publ_section_title
;
Structure prediction by ZEFSAII (Michael W. Deem and Ramdas Pophale) SiO2 
 PCOD8311350
Probable space group: I -4 2 M
;
_chemical_formula_sum "Si O2"
_cell_formula_units_Z 56
_cell_length_a 14.159448
_cell_length_b 14.159448
_cell_length_c 17.742123
_cell_angle_alpha 90.000000
_cell_angle_beta 90.000000
_cell_angle_gamma 90.000000
_cell_volume 3557.117667
_symmetry_space_group_name_H-M "I -4 2 M"
_symmetry_group_IT_number 121
_symmetry_cell_setting 'tetragonal'
loop_
_space_group_symop_operation_xyz
x,y,z
y,-x,-z
-x,-y,z
-y,x,-z
x,-y,-z
-x,y,-z
-y,-x,z
y,x,z
1/2+x,1/2+y,1/2+z
1/2+y,1/2-x,1/2-z
1/2-x,1/2-y,1/2+z
1/2-y,1/2+x,1/2-z
1/2+x,1/2-y,1/2-z
1/2-x,1/2+y,1/2-z
1/2-y,1/2-x,1/2+z
1/2+y,1/2+x,1/2+z
loop_
_atom_site_type_symbol
_atom_site_label
_atom_site_fract_x
_atom_site_fract_y
_atom_site_fract_z
Si Si1 0.240867 0.396883 0.125983
Si Si2 0.347554 0.500000 0.000000
Si Si3 0.890149 0.472346 0.418079
Si Si4 0.852295 0.536631 0.266589
O O1 0.301962 0.301962 0.124472
O O2 0.138469 0.374765 0.092604
O O3 0.234982 0.434222 0.212677
O O4 0.285379 0.477896 0.073502
O O5 0.410662 0.589339 0.023021
O O6 0.852241 0.500000 0.500000
O O7 0.827601 0.529215 0.355804
O O8 0.000000 0.500000 0.406799
O O9 0.886270 0.433699 0.241589
#
# Coordination Sequence:
#
# PCOD8311350 Si02
#       4
#    16   8  16  16
#     4  10  19  30  46  73 102 125 162 210 239 283
#     4   9  18  32  47  66  98 134 159 190 250 309
#     4  10  17  29  52  70  89 127 164 192 240 297
#     4   9  15  29  46  66  91 125 161 188 237 290
#
# _framework density 15.743084
#
# number of rings (size 3 to 8) (size 9 to 14) (size 15 to 20)
#    0.000    2.429    5.714    1.714    0.000    0.000 
#    0.000    7.143    0.000    0.000    0.000    0.000 
#    0.000    9.714    0.000    0.000    0.000    0.000 
#
# Total GULP energy -346960.104908 kJ/mol
# GULP energy per Si atom -12391.432318 kJ/mol
# Density = 1.570725 g / cm^3
# Si number density = 15.743084 Si / 1000 Ang^3
#
#
#
# Elastic Constant Matrix: (Units=GPa)
#
#
# Indices 1 2 3 4 5 6 
#
# 1 68.2395 32.2516 50.9376 0.0000 0.0000 0.0000
# 2 32.2516 68.2389 50.9376 0.0000 0.0000 0.0000
# 3 50.9376 50.9376 185.1938 0.0000 0.0000 0.0000
# 4 0.0000 0.0000 0.0000 25.3531 0.0000 0.0000
# 5 0.0000 0.0000 0.0000 0.0000 25.3532 0.0000
# 6 0.0000 0.0000 0.0000 0.0000 0.0000 12.2953
#
#
#
# Elastic Compliance Matrix: (Units=1/GPa)
#
#
# Indices 1 2 3 4 5 6 
#
# 1 0.020793 -0.006994 -0.003795 0.000000 0.000000 0.000000
# 2 -0.006994 0.020793 -0.003795 0.000000 0.000000 0.000000
# 3 -0.003795 -0.003795 0.007488 0.000000 0.000000 0.000000
# 4 0.000000 0.000000 0.000000 0.039443 0.000000 0.000000
# 5 0.000000 0.000000 0.000000 0.000000 0.039443 0.000000
# 6 0.000000 0.000000 0.000000 0.000000 0.000000 0.081332
#
#
# Mechanical properties :
#
#
# Convention : Reuss Voigt Hill
#
# Bulk Modulus (GPa) = 50.24181 65.54731 57.89456
# Shear Modulus (GPa) = 20.40016 25.10333 22.75175
#
# Velocity S-wave (km/s) = 3.60365 3.99753 3.80569
# Velocity P-wave (km/s) = 7.02125 7.93933 7.49436
#
# Compressibility (1/GPa) = 0.01990374
#
# Stress axis : x y z
#
# Youngs Moduli (GPa) = 48.09320 48.09272 133.55442
#
# Poissons Ratio (x) = 0.33637 0.50688
# Poissons Ratio (y) = 0.33638 0.50689
# Poissons Ratio (z) = 0.18253 0.18253
#
# Static dielectric constant tensor:
#      x y z
#    x 2.795670 0.000000 0.000000 
#    y 0.000000 2.795670 0.000000 
#    z 0.000000 0.000000 3.534000 
# 
# 
# High freq. dielectric constant tensor:
#      x y z
#    x 1.574500 0.000000 0.000000 
#    y 0.000000 1.574500 0.000000 
#    z 0.000000 0.000000 1.625590 
# 
# From -- ./inp_files/4975.got.cif
#   From: 2010.03.12/outbox.cif.g09.slc.cpg/sg121_3_cif.got.tgz:4975.got - 2010.04.06 16:06:48.
