data_PCOD8311552
_publ_section_title
;
Structure prediction by ZEFSAII (Michael W. Deem and Ramdas Pophale) SiO2 
 PCOD8311552
Probable space group: I -4 2 M
;
_chemical_formula_sum "Si O2"
_cell_formula_units_Z 96
_cell_length_a 22.256831
_cell_length_b 22.256831
_cell_length_c 9.475854
_cell_angle_alpha 90.000000
_cell_angle_beta 90.000000
_cell_angle_gamma 90.000000
_cell_volume 4694.020878
_symmetry_space_group_name_H-M "I -4 2 M"
_symmetry_group_IT_number 121
_symmetry_cell_setting 'tetragonal'
loop_
_space_group_symop_operation_xyz
x,y,z
y,-x,-z
-x,-y,z
-y,x,-z
x,-y,-z
-x,y,-z
-y,-x,z
y,x,z
1/2+x,1/2+y,1/2+z
1/2+y,1/2-x,1/2-z
1/2-x,1/2-y,1/2+z
1/2-y,1/2+x,1/2-z
1/2+x,1/2-y,1/2-z
1/2-x,1/2+y,1/2-z
1/2-y,1/2-x,1/2+z
1/2+y,1/2+x,1/2+z
loop_
_atom_site_type_symbol
_atom_site_label
_atom_site_fract_x
_atom_site_fract_y
_atom_site_fract_z
Si Si1 0.271755 0.271755 0.495913
Si Si2 0.487137 0.178263 0.746025
Si Si3 0.405766 0.737858 0.426132
Si Si4 0.000000 0.403809 0.500000
Si Si5 0.804273 0.195728 0.310965
Si Si6 0.000000 0.403905 0.000000
Si Si7 0.971264 0.877188 0.150623
Si Si8 0.712803 0.561162 0.259416
O O1 0.252175 0.335301 0.558403
O O2 0.223013 0.223013 0.546226
O O3 0.273769 0.273769 0.325965
O O4 0.428810 0.206922 0.669291
O O5 0.470770 0.136088 0.876669
O O6 0.521500 0.137412 0.630380
O O7 0.527430 0.231639 0.813550
O O8 0.420068 0.673995 0.355167
O O9 0.437781 0.734422 0.577977
O O10 0.054798 0.445021 0.555081
O O11 0.875153 0.205633 0.312914
O O12 0.937799 0.937799 0.208561
O O13 0.024542 0.850727 0.251106
O O14 0.000000 0.893311 0.000000
#
# Coordination Sequence:
#
# PCOD8311552 Si02
#       8
#     8  16  16   8   8   8  16  16
#     4  10  20  36  58  82 112 150 194 234 284 340
#     4  11  20  40  60  82 111 151 191 232 294 344
#     4   9  17  35  58  79 107 152 188 228 287 347
#     4  11  26  36  58  86 110 142 195 250 276 340
#     4  10  22  38  55  86 118 152 191 238 282 338
#     4  11  22  42  56  78 116 152 183 234 304 340
#     4   9  16  27  50  81 113 143 181 230 278 339
#     4   9  19  36  57  78 117 155 179 232 294 337
#
# _framework density 20.451550000000001
#
# number of rings (size 3 to 8) (size 9 to 14) (size 15 to 20)
#    0.000    2.167    2.500    2.000    3.500    4.167 
#    3.000    0.000    0.000    0.000    0.000    0.000 
#    0.000    0.000    0.000    3.833    0.000    0.000 
#
# Total GULP energy -594871.614868 kJ/mol
# GULP energy per Si atom -12393.158643 kJ/mol
# Density = 2.040500 g / cm^3
# Si number density = 20.451550 Si / 1000 Ang^3
#
#
#
# Elastic Constant Matrix: (Units=GPa)
#
#
# Indices 1 2 3 4 5 6 
#
# 1 97.6449 48.0798 16.3041 0.0000 0.0000 0.0000
# 2 48.0798 97.6453 16.3039 0.0000 0.0000 0.0000
# 3 16.3041 16.3039 38.4223 0.0000 0.0000 0.0000
# 4 0.0000 0.0000 0.0000 21.3837 0.0000 0.0000
# 5 0.0000 0.0000 0.0000 0.0000 21.3837 0.0000
# 6 0.0000 0.0000 0.0000 0.0000 0.0000 31.2017
#
#
#
# Elastic Compliance Matrix: (Units=1/GPa)
#
#
# Indices 1 2 3 4 5 6 
#
# 1 0.013879 -0.006297 -0.003217 0.000000 0.000000 0.000000
# 2 -0.006297 0.013879 -0.003217 0.000000 0.000000 0.000000
# 3 -0.003217 -0.003217 0.028757 0.000000 0.000000 0.000000
# 4 0.000000 0.000000 0.000000 0.046765 0.000000 0.000000
# 5 0.000000 0.000000 0.000000 0.000000 0.046765 0.000000
# 6 0.000000 0.000000 0.000000 0.000000 0.000000 0.032050
#
#
# Mechanical properties :
#
#
# Convention : Reuss Voigt Hill
#
# Bulk Modulus (GPa) = 32.20422 43.89869 38.05146
# Shear Modulus (GPa) = 22.94560 24.99548 23.97054
#
# Velocity S-wave (km/s) = 3.35318 3.49976 3.42726
# Velocity P-wave (km/s) = 5.54730 6.15162 5.85726
#
# Compressibility (1/GPa) = 0.03105183
#
# Stress axis : x y z
#
# Youngs Moduli (GPa) = 72.05217 72.05260 34.77406
#
# Poissons Ratio (x) = 0.45369 0.11188
# Poissons Ratio (y) = 0.45368 0.11188
# Poissons Ratio (z) = 0.23183 0.23182
#
# Static dielectric constant tensor:
#      x y z
#    x 3.736990 0.000000 0.000000 
#    y 0.000000 3.737010 0.000000 
#    z 0.000000 0.000000 3.224930 
# 
# 
# High freq. dielectric constant tensor:
#      x y z
#    x 1.803090 0.000000 0.000000 
#    y 0.000000 1.803090 0.000000 
#    z 0.000000 0.000000 1.746540 
# 
# From -- ./inp_files/2012.got.cif
#   From: 2010.03.12/outbox.cif.g09.slc.cpg/sg121_2_cif.got.tgz:2012.got - 2010.04.06 16:06:48.
