data_PCOD8311089
_publ_section_title
;
Structure prediction by ZEFSAII (Michael W. Deem and Ramdas Pophale) SiO2 
 PCOD8311089
Probable space group: I -4 M 2
;
_chemical_formula_sum "Si O2"
_cell_formula_units_Z 36
_cell_length_a 15.775310
_cell_length_b 15.775310
_cell_length_c 6.069294
_cell_angle_alpha 90.000000
_cell_angle_beta 90.000000
_cell_angle_gamma 90.000000
_cell_volume 1510.406967
_symmetry_space_group_name_H-M "I -4 M 2"
_symmetry_group_IT_number 119
_symmetry_cell_setting 'tetragonal'
loop_
_space_group_symop_operation_xyz
x,y,z
y,-x,-z
-x,-y,z
-y,x,-z
y,x,-z
-y,-x,-z
-x,y,z
x,-y,z
1/2+x,1/2+y,1/2+z
1/2+y,1/2-x,1/2-z
1/2-x,1/2-y,1/2+z
1/2-y,1/2+x,1/2-z
1/2+y,1/2+x,1/2-z
1/2-y,1/2-x,1/2-z
1/2-x,1/2+y,1/2+z
1/2+x,1/2-y,1/2+z
loop_
_atom_site_type_symbol
_atom_site_label
_atom_site_fract_x
_atom_site_fract_y
_atom_site_fract_z
Si Si1 0.000000 0.182268 0.672746
Si Si2 0.500000 0.000000 0.750000
Si Si3 0.500000 0.814819 0.777470
Si Si4 0.269413 0.861594 0.071055
Si Si5 0.000000 0.000000 0.500000
O O1 0.000000 0.240231 0.454771
O O2 0.916026 0.197503 0.811656
O O3 0.000000 0.082977 0.645042
O O4 0.500000 0.089846 0.885805
O O5 0.585551 0.807648 0.631967
O O6 0.343321 0.843321 0.250000
O O7 0.227728 0.772273 0.000000
#
# Coordination Sequence:
#
# PCOD8311089 Si02
#       5
#     8   2   8  16   2
#     4  11  25  47  67 104 144 192 247 306 379 446
#     4  12  24  40  78 100 140 190 236 312 358 448
#     4  11  25  47  67 104 144 192 247 306 379 446
#     4  11  26  42  70 101 140 192 244 305 370 447
#     4  12  24  40  78 100 140 190 236 312 358 448
#
# _framework density 23.834637000000001
#
# number of rings (size 3 to 8) (size 9 to 14) (size 15 to 20)
#    0.000    0.889    0.000    5.333   12.444    3.556 
#    0.000    8.889    0.000    0.000    0.000    0.000 
#    0.000    0.000    0.000    0.000    0.000    0.000 
#
# Total GULP energy -223107.433913 kJ/mol
# GULP energy per Si atom -12394.857440 kJ/mol
# Density = 2.378039 g / cm^3
# Si number density = 23.834637 Si / 1000 Ang^3
#
#
#
# Elastic Constant Matrix: (Units=GPa)
#
#
# Indices 1 2 3 4 5 6 
#
# 1 153.3612 21.3126 32.7223 0.0000 0.0000 0.0000
# 2 21.3126 153.3635 32.7225 0.0000 0.0000 0.0000
# 3 32.7223 32.7225 92.2564 0.0000 0.0000 0.0000
# 4 0.0000 0.0000 0.0000 8.3108 0.0000 0.0000
# 5 0.0000 0.0000 0.0000 0.0000 8.3157 0.0000
# 6 0.0000 0.0000 0.0000 0.0000 0.0000 22.6262
#
#
#
# Elastic Compliance Matrix: (Units=1/GPa)
#
#
# Indices 1 2 3 4 5 6 
#
# 1 0.007088 -0.000485 -0.002342 0.000000 0.000000 0.000000
# 2 -0.000485 0.007088 -0.002342 0.000000 0.000000 0.000000
# 3 -0.002342 -0.002342 0.012501 0.000000 0.000000 0.000000
# 4 0.000000 0.000000 0.000000 0.120325 0.000000 0.000000
# 5 0.000000 0.000000 0.000000 0.000000 0.120254 0.000000
# 6 0.000000 0.000000 0.000000 0.000000 0.000000 0.044197
#
#
# Mechanical properties :
#
#
# Convention : Reuss Voigt Hill
#
# Bulk Modulus (GPa) = 61.20668 63.61066 62.40867
# Shear Modulus (GPa) = 15.27951 28.66545 21.97248
#
# Velocity S-wave (km/s) = 2.53467 3.47173 3.03953
# Velocity P-wave (km/s) = 5.85675 6.54346 6.20960
#
# Compressibility (1/GPa) = 0.01633809
#
# Stress axis : x y z
#
# Youngs Moduli (GPa) = 141.09033 141.09248 79.99637
#
# Poissons Ratio (x) = 0.06847 0.18733
# Poissons Ratio (y) = 0.06847 0.18733
# Poissons Ratio (z) = 0.33040 0.33040
#
# Static dielectric constant tensor:
#      x y z
#    x 4.532140 0.000000 0.000000 
#    y 0.000000 4.532140 0.000000 
#    z 0.000000 0.000000 4.239980 
# 
# 
# High freq. dielectric constant tensor:
#      x y z
#    x 1.963520 0.000000 0.000000 
#    y 0.000000 1.963520 0.000000 
#    z 0.000000 0.000000 1.929050 
# 
# From -- ./inp_files/314.got.cif
#   From: 2010.03.12/outbox.cif.g09.slc.cpg/sg119_1_cif.got.tgz:314.got - 2010.04.14 02:25:26.
