data_PCOD8311512
_publ_section_title
;
Structure prediction by ZEFSAII (Michael W. Deem and Ramdas Pophale) SiO2 
 PCOD8311512
Probable space group: I -4 2 M
;
_chemical_formula_sum "Si O2"
_cell_formula_units_Z 104
_cell_length_a 21.357160
_cell_length_b 21.357160
_cell_length_c 14.807466
_cell_angle_alpha 90.000000
_cell_angle_beta 90.000000
_cell_angle_gamma 90.000000
_cell_volume 6754.104046
_symmetry_space_group_name_H-M "I -4 2 M"
_symmetry_group_IT_number 121
_symmetry_cell_setting 'tetragonal'
loop_
_space_group_symop_operation_xyz
x,y,z
y,-x,-z
-x,-y,z
-y,x,-z
x,-y,-z
-x,y,-z
-y,-x,z
y,x,z
1/2+x,1/2+y,1/2+z
1/2+y,1/2-x,1/2-z
1/2-x,1/2-y,1/2+z
1/2-y,1/2+x,1/2-z
1/2+x,1/2-y,1/2-z
1/2-x,1/2+y,1/2-z
1/2-y,1/2-x,1/2+z
1/2+y,1/2+x,1/2+z
loop_
_atom_site_type_symbol
_atom_site_label
_atom_site_fract_x
_atom_site_fract_y
_atom_site_fract_z
Si Si1 0.281013 0.613730 0.801034
Si Si2 0.847933 0.742928 0.394322
Si Si3 0.929247 0.175457 0.486189
Si Si4 0.213452 0.318871 0.702038
Si Si5 0.315946 0.419893 0.385701
Si Si6 0.158600 0.264223 0.006392
Si Si7 0.000000 0.100896 0.000000
O O1 0.332529 0.667472 0.801492
O O2 0.212732 0.645012 0.796380
O O3 0.288787 0.568155 0.714269
O O4 0.288325 0.573461 0.891177
O O5 0.791989 0.791989 0.395619
O O6 0.909460 0.775120 0.436238
O O7 0.862126 0.721335 0.291227
O O8 0.826050 0.683750 0.454781
O O9 0.885822 0.114179 0.487928
O O10 0.000000 0.152774 0.500000
O O11 0.265293 0.265293 0.703115
O O12 0.219450 0.359433 0.610171
O O13 0.359605 0.359605 0.381594
O O14 0.260722 0.404061 0.456947
O O15 0.355315 0.480707 0.416138
O O16 0.212235 0.212235 0.005841
O O17 0.058086 0.058086 0.032786
#
# Coordination Sequence:
#
# PCOD8311512 Si02
#       7
#    16  16  16  16  16  16   8
#     4   9  15  26  45  62  78 104 141 181 228 280
#     4   9  15  25  42  63  84 105 138 184 233 285
#     4  10  20  33  45  59  84 124 168 201 224 252
#     4   9  14  22  40  65  86 101 122 167 234 295
#     4   9  16  27  43  61  78 105 145 186 228 270
#     4   9  14  22  40  64  84  99 126 174 232 291
#     4   9  18  32  44  54  80 122 163 196 216 236
#
# _framework density 15.398046000000001
#
# number of rings (size 3 to 8) (size 9 to 14) (size 15 to 20)
#    0.000    2.846    3.077    0.000    0.000    0.154 
#    2.769    0.769    0.000    2.769    0.000    0.000 
#    0.000    0.000    0.000    0.692    1.538    0.308 
#
# Total GULP energy -644419.370461 kJ/mol
# GULP energy per Si atom -12392.680201 kJ/mol
# Density = 1.536300 g / cm^3
# Si number density = 15.398046 Si / 1000 Ang^3
#
#
#
# Elastic Constant Matrix: (Units=GPa)
#
#
# Indices 1 2 3 4 5 6 
#
# 1 41.1139 34.2793 35.3983 0.0000 0.0000 0.0000
# 2 34.2793 41.1142 35.3985 0.0000 0.0000 0.0000
# 3 35.3983 35.3985 148.7774 0.0000 0.0000 0.0000
# 4 0.0000 0.0000 0.0000 14.5511 0.0000 0.0000
# 5 0.0000 0.0000 0.0000 0.0000 14.5509 0.0000
# 6 0.0000 0.0000 0.0000 0.0000 0.0000 13.0839
#
#
#
# Elastic Compliance Matrix: (Units=1/GPa)
#
#
# Indices 1 2 3 4 5 6 
#
# 1 0.081696 -0.064616 -0.004064 0.000000 0.000000 0.000000
# 2 -0.064616 0.081695 -0.004064 0.000000 0.000000 0.000000
# 3 -0.004064 -0.004064 0.008655 0.000000 0.000000 0.000000
# 4 0.000000 0.000000 0.000000 0.068723 0.000000 0.000000
# 5 0.000000 0.000000 0.000000 0.000000 0.068724 0.000000
# 6 0.000000 0.000000 0.000000 0.000000 0.000000 0.076430
#
#
# Mechanical properties :
#
#
# Convention : Reuss Voigt Hill
#
# Bulk Modulus (GPa) = 37.65105 49.01755 43.33430
# Shear Modulus (GPa) = 9.25475 16.83248 13.04361
#
# Velocity S-wave (km/s) = 2.45426 3.30988 2.91365
# Velocity P-wave (km/s) = 5.70404 6.81981 6.28673
#
# Compressibility (1/GPa) = 0.02655968
#
# Stress axis : x y z
#
# Youngs Moduli (GPa) = 12.24053 12.24061 115.53715
#
# Poissons Ratio (x) = 0.79094 0.46951
# Poissons Ratio (y) = 0.79093 0.46952
# Poissons Ratio (z) = 0.04974 0.04974
#
# Static dielectric constant tensor:
#      x y z
#    x 2.598020 0.000000 0.000000 
#    y 0.000000 2.598020 0.000000 
#    z 0.000000 0.000000 3.395180 
# 
# 
# High freq. dielectric constant tensor:
#      x y z
#    x 1.543060 0.000000 0.000000 
#    y 0.000000 1.543060 0.000000 
#    z 0.000000 0.000000 1.611170 
# 
# From -- ./inp_files/4557.got.cif
#   From: 2010.03.12/outbox.cif.g09.slc.cpg/sg121_3_cif.got.tgz:4557.got - 2010.04.06 16:06:48.
