data_PCOD8311324
_publ_section_title
;
Structure prediction by ZEFSAII (Michael W. Deem and Ramdas Pophale) SiO2 
 PCOD8311324
Probable space group: I -4 C 2
;
_chemical_formula_sum "Si O2"
_cell_formula_units_Z 56
_cell_length_a 10.005849
_cell_length_b 10.005849
_cell_length_c 24.657318
_cell_angle_alpha 90.000000
_cell_angle_beta 90.000000
_cell_angle_gamma 90.000000
_cell_volume 2468.617057
_symmetry_space_group_name_H-M "I -4 C 2"
_symmetry_group_IT_number 120
_symmetry_cell_setting 'tetragonal'
loop_
_space_group_symop_operation_xyz
x,y,z
y,-x,-z
-x,-y,z
-y,x,-z
y,x,1/2-z
-y,-x,1/2-z
-x,y,1/2+z
x,-y,1/2+z
1/2+x,1/2+y,1/2+z
1/2+y,1/2-x,1/2-z
1/2-x,1/2-y,1/2+z
1/2-y,1/2+x,1/2-z
1/2+y,1/2+x,-z
1/2-y,1/2-x,-z
1/2-x,1/2+y,z
1/2+x,1/2-y,z
loop_
_atom_site_type_symbol
_atom_site_label
_atom_site_fract_x
_atom_site_fract_y
_atom_site_fract_z
Si Si1 0.500000 0.500000 0.500000
Si Si2 0.522685 0.359993 0.193832
Si Si3 0.000000 0.500000 0.500000
Si Si4 0.000854 0.753979 0.925997
Si Si5 0.228048 0.749153 0.146018
O O1 0.550550 0.379639 0.461579
O O2 0.500000 0.500000 0.159370
O O3 0.585495 0.414506 0.250000
O O4 0.623025 0.250039 0.170250
O O5 0.380578 0.281734 0.193635
O O6 0.993894 0.370256 0.464413
O O7 0.100518 0.712266 0.877611
O O8 0.854967 0.785641 0.902086
#
# Coordination Sequence:
#
# PCOD8311324 Si02
#       5
#     4  16   4  16  16
#     4  12  24  44  68 108 150 196 232 312 364 424
#     4  11  26  47  73 105 146 183 240 303 366 429
#     4  12  24  40  60 104 138 188 252 296 352 436
#     4  12  24  42  70 103 147 192 247 297 367 436
#     4  12  24  47  73 106 142 198 237 301 368 437
#
# _framework density 22.684767000000001
#
# number of rings (size 3 to 8) (size 9 to 14) (size 15 to 20)
#    0.000    0.286    2.857    6.857    4.000    0.000 
#    0.000    0.000    0.000    0.000    0.000    0.000 
#    0.000    0.000    0.000    0.000    0.000    0.000 
#
# Total GULP energy -346952.848544 kJ/mol
# GULP energy per Si atom -12391.173162 kJ/mol
# Density = 2.263314 g / cm^3
# Si number density = 22.684767 Si / 1000 Ang^3
#
#
#
# Elastic Constant Matrix: (Units=GPa)
#
#
# Indices 1 2 3 4 5 6 
#
# 1 133.4197 40.7004 35.5320 0.0000 0.0000 0.0000
# 2 40.7004 133.4195 35.5319 0.0000 0.0000 0.0000
# 3 35.5320 35.5319 78.3968 0.0000 0.0000 0.0000
# 4 0.0000 0.0000 0.0000 41.1087 0.0000 0.0000
# 5 0.0000 0.0000 0.0000 0.0000 41.1081 0.0000
# 6 0.0000 0.0000 0.0000 0.0000 0.0000 48.4170
#
#
#
# Elastic Compliance Matrix: (Units=1/GPa)
#
#
# Indices 1 2 3 4 5 6 
#
# 1 0.008916 -0.001869 -0.003194 0.000000 0.000000 0.000000
# 2 -0.001869 0.008916 -0.003194 0.000000 0.000000 0.000000
# 3 -0.003194 -0.003194 0.015651 0.000000 0.000000 0.000000
# 4 0.000000 0.000000 0.000000 0.024326 0.000000 0.000000
# 5 0.000000 0.000000 0.000000 0.000000 0.024326 0.000000
# 6 0.000000 0.000000 0.000000 0.000000 0.000000 0.020654
#
#
# Mechanical properties :
#
#
# Convention : Reuss Voigt Hill
#
# Bulk Modulus (GPa) = 58.93137 63.19604 61.06371
# Shear Modulus (GPa) = 40.01336 41.69155 40.85245
#
# Velocity S-wave (km/s) = 4.20442 4.29168 4.24828
# Velocity P-wave (km/s) = 7.04303 7.24409 7.14427
#
# Compressibility (1/GPa) = 0.01696889
#
# Stress axis : x y z
#
# Youngs Moduli (GPa) = 112.15865 112.15859 63.89508
#
# Poissons Ratio (x) = 0.20966 0.20407
# Poissons Ratio (y) = 0.20966 0.20407
# Poissons Ratio (z) = 0.35821 0.35821
#
# Static dielectric constant tensor:
#      x y z
#    x 4.432230 0.000000 0.000000 
#    y 0.000000 4.432240 0.000000 
#    z 0.000000 0.000000 4.120710 
# 
# 
# High freq. dielectric constant tensor:
#      x y z
#    x 1.906990 0.000000 0.000000 
#    y 0.000000 1.906990 0.000000 
#    z 0.000000 0.000000 1.888440 
# 
# From -- ./inp_files/5646.got.cif
#   From: 2010.03.12/outbox.cif.g09.slc.cpg/sg120_3_cif.got.tgz:5646.got - 2010.04.06 16:00:44.
