data_PCOD8311599
_publ_section_title
;
Structure prediction by ZEFSAII (Michael W. Deem and Ramdas Pophale) SiO2 
 PCOD8311599
Probable space group: I -4 2 M
;
_chemical_formula_sum "Si O2"
_cell_formula_units_Z 80
_cell_length_a 13.771320
_cell_length_b 13.771320
_cell_length_c 21.858805
_cell_angle_alpha 90.000000
_cell_angle_beta 90.000000
_cell_angle_gamma 90.000000
_cell_volume 4145.506073
_symmetry_space_group_name_H-M "I -4 2 M"
_symmetry_group_IT_number 121
_symmetry_cell_setting 'tetragonal'
loop_
_space_group_symop_operation_xyz
x,y,z
y,-x,-z
-x,-y,z
-y,x,-z
x,-y,-z
-x,y,-z
-y,-x,z
y,x,z
1/2+x,1/2+y,1/2+z
1/2+y,1/2-x,1/2-z
1/2-x,1/2-y,1/2+z
1/2-y,1/2+x,1/2-z
1/2+x,1/2-y,1/2-z
1/2-x,1/2+y,1/2-z
1/2-y,1/2-x,1/2+z
1/2+y,1/2+x,1/2+z
loop_
_atom_site_type_symbol
_atom_site_label
_atom_site_fract_x
_atom_site_fract_y
_atom_site_fract_z
Si Si1 0.487385 0.884772 0.108026
Si Si2 0.711779 0.443802 0.348145
Si Si3 0.155759 0.491819 0.760936
Si Si4 0.828667 0.321573 0.942146
Si Si5 0.116968 0.730860 0.069129
O O1 0.509465 0.819206 0.168036
O O2 0.561939 0.843552 0.056503
O O3 0.379224 0.867502 0.087591
O O4 0.500000 0.000000 0.121184
O O5 0.604427 0.395574 0.342684
O O6 0.749099 0.474173 0.280687
O O7 0.787182 0.366759 0.375987
O O8 0.710923 0.533051 0.395558
O O9 0.102036 0.586277 0.735452
O O10 0.716862 0.283139 0.949989
O O11 0.895869 0.272070 0.995073
O O12 0.216217 0.783784 0.086741
#
# Coordination Sequence:
#
# PCOD8311599 Si02
#       5
#    16  16  16  16  16
#     4  12  20  35  62  86 115 152 199 253 301 345
#     4  11  22  36  55  83 120 161 198 236 293 359
#     4  11  17  34  55  82 114 146 191 248 296 340
#     4  10  21  36  57  87 117 148 193 244 299 355
#     4  11  23  37  56  85 118 155 199 245 298 361
#
# _framework density 19.298006000000001
#
# number of rings (size 3 to 8) (size 9 to 14) (size 15 to 20)
#    0.000    1.000    8.000    1.200    0.000    2.000 
#    0.000    1.000    0.000    4.200    0.000    2.800 
#    0.000    0.000    0.000    0.000    0.000    0.000 
#
# Total GULP energy -495590.874435 kJ/mol
# GULP energy per Si atom -12389.771861 kJ/mol
# Density = 1.925408 g / cm^3
# Si number density = 19.298006 Si / 1000 Ang^3
#
#
#
# Elastic Constant Matrix: (Units=GPa)
#
#
# Indices 1 2 3 4 5 6 
#
# 1 90.7744 58.1890 46.8938 0.0000 0.0000 0.0000
# 2 58.1890 90.7766 46.8930 0.0000 0.0000 0.0000
# 3 46.8938 46.8930 95.5904 0.0000 0.0000 0.0000
# 4 0.0000 0.0000 0.0000 23.3732 0.0000 0.0000
# 5 0.0000 0.0000 0.0000 0.0000 23.3738 0.0000
# 6 0.0000 0.0000 0.0000 0.0000 0.0000 26.8969
#
#
#
# Elastic Compliance Matrix: (Units=1/GPa)
#
#
# Indices 1 2 3 4 5 6 
#
# 1 0.020201 -0.010487 -0.004765 0.000000 0.000000 0.000000
# 2 -0.010487 0.020200 -0.004764 0.000000 0.000000 0.000000
# 3 -0.004765 -0.004764 0.015136 0.000000 0.000000 0.000000
# 4 0.000000 0.000000 0.000000 0.042784 0.000000 0.000000
# 5 0.000000 0.000000 0.000000 0.000000 0.042783 0.000000
# 6 0.000000 0.000000 0.000000 0.000000 0.000000 0.037179
#
#
# Mechanical properties :
#
#
# Convention : Reuss Voigt Hill
#
# Bulk Modulus (GPa) = 64.50472 64.56589 64.53531
# Shear Modulus (GPa) = 22.37295 23.07316 22.72305
#
# Velocity S-wave (km/s) = 3.40860 3.46153 3.43517
# Velocity P-wave (km/s) = 6.99926 7.03606 7.01768
#
# Compressibility (1/GPa) = 0.01550274
#
# Stress axis : x y z
#
# Youngs Moduli (GPa) = 49.50330 49.50543 66.06666
#
# Poissons Ratio (x) = 0.51918 0.31482
# Poissons Ratio (y) = 0.51916 0.31477
# Poissons Ratio (z) = 0.23589 0.23587
#
# Static dielectric constant tensor:
#      x y z
#    x 3.416890 0.000000 0.000000 
#    y 0.000000 3.416900 0.000000 
#    z 0.000000 0.000000 3.829460 
# 
# 
# High freq. dielectric constant tensor:
#      x y z
#    x 1.723620 0.000000 0.000000 
#    y 0.000000 1.723620 0.000000 
#    z 0.000000 0.000000 1.766300 
# 
# From -- ./inp_files/6211.got.cif
#   From: 2010.03.12/outbox.cif.g09.slc.cpg/sg121_4_cif.got.tgz:6211.got - 2010.04.06 16:06:48.
