data_PCOD8311509
_publ_section_title
;
Structure prediction by ZEFSAII (Michael W. Deem and Ramdas Pophale) SiO2 
 PCOD8311509
Probable space group: I -4 2 M
;
_chemical_formula_sum "Si O2"
_cell_formula_units_Z 88
_cell_length_a 31.539554
_cell_length_b 31.539554
_cell_length_c 5.032303
_cell_angle_alpha 90.000000
_cell_angle_beta 90.000000
_cell_angle_gamma 90.000000
_cell_volume 5005.850531
_symmetry_space_group_name_H-M "I -4 2 M"
_symmetry_group_IT_number 121
_symmetry_cell_setting 'tetragonal'
loop_
_space_group_symop_operation_xyz
x,y,z
y,-x,-z
-x,-y,z
-y,x,-z
x,-y,-z
-x,y,-z
-y,-x,z
y,x,z
1/2+x,1/2+y,1/2+z
1/2+y,1/2-x,1/2-z
1/2-x,1/2-y,1/2+z
1/2-y,1/2+x,1/2-z
1/2+x,1/2-y,1/2-z
1/2-x,1/2+y,1/2-z
1/2-y,1/2-x,1/2+z
1/2+y,1/2+x,1/2+z
loop_
_atom_site_type_symbol
_atom_site_label
_atom_site_fract_x
_atom_site_fract_y
_atom_site_fract_z
Si Si1 0.228615 0.000000 0.500000
Si Si2 0.697885 0.630397 0.790057
Si Si3 0.708486 0.043646 0.885095
Si Si4 0.815152 0.277965 0.744611
Si Si5 0.614640 0.150833 0.222490
Si Si6 0.922448 0.218319 0.197999
O O1 0.256689 0.965972 0.659966
O O2 0.201622 0.969389 0.299227
O O3 0.651946 0.651946 0.827422
O O4 0.731260 0.666468 0.703597
O O5 0.693064 0.594329 0.561401
O O6 0.713873 0.611537 0.068447
O O7 0.668022 0.067398 0.766653
O O8 0.732034 0.071536 0.114480
O O9 0.690345 0.000000 0.000000
O O10 0.789474 0.281246 0.471205
O O11 0.854732 0.309259 0.746409
O O12 0.627781 0.115987 0.440209
#
# Coordination Sequence:
#
# PCOD8311509 Si02
#       6
#     8  16  16  16  16  16
#     4  10  20  36  62  80 100 132 173 251 258 330
#     4  12  24  36  51  70 106 144 182 229 263 316
#     4  10  21  34  58  79 103 133 172 228 274 330
#     4  10  20  32  49  66  92 136 189 231 259 296
#     4  10  21  32  50  74 105 136 166 215 277 325
#     4  11  21  37  54  77 102 129 187 219 282 312
#
# _framework density 17.579429000000001
#
# number of rings (size 3 to 8) (size 9 to 14) (size 15 to 20)
#    0.000    1.455    3.636    1.636   10.182    0.727 
#    0.000    0.000    0.000    0.000    0.000    0.000 
#    0.000    2.182    0.000    0.000    0.000   31.818 
#
# Total GULP energy -545430.886221 kJ/mol
# GULP energy per Si atom -12396.156505 kJ/mol
# Density = 1.753942 g / cm^3
# Si number density = 17.579429 Si / 1000 Ang^3
#
#
#
# Elastic Constant Matrix: (Units=GPa)
#
#
# Indices 1 2 3 4 5 6 
#
# 1 62.6135 31.1760 20.0399 0.0000 0.0000 0.0000
# 2 31.1760 62.6135 20.0399 0.0000 0.0000 0.0000
# 3 20.0399 20.0399 86.0414 0.0000 0.0000 0.0000
# 4 0.0000 0.0000 0.0000 21.2084 0.0000 0.0000
# 5 0.0000 0.0000 0.0000 0.0000 21.2084 0.0000
# 6 0.0000 0.0000 0.0000 0.0000 0.0000 18.6023
#
#
#
# Elastic Compliance Matrix: (Units=1/GPa)
#
#
# Indices 1 2 3 4 5 6 
#
# 1 0.021825 -0.009984 -0.002758 0.000000 0.000000 0.000000
# 2 -0.009984 0.021825 -0.002758 0.000000 0.000000 0.000000
# 3 -0.002758 -0.002758 0.012907 0.000000 0.000000 0.000000
# 4 0.000000 0.000000 0.000000 0.047151 0.000000 0.000000
# 5 0.000000 0.000000 0.000000 0.000000 0.047151 0.000000
# 6 0.000000 0.000000 0.000000 0.000000 0.000000 0.053757
#
#
# Mechanical properties :
#
#
# Convention : Reuss Voigt Hill
#
# Bulk Modulus (GPa) = 39.12808 39.30887 39.21847
# Shear Modulus (GPa) = 20.48053 21.53802 21.00927
#
# Velocity S-wave (km/s) = 3.41695 3.50406 3.46078
# Velocity P-wave (km/s) = 6.15416 6.22740 6.19089
#
# Compressibility (1/GPa) = 0.02555709
#
# Stress axis : x y z
#
# Youngs Moduli (GPa) = 45.81927 45.81927 77.47761
#
# Poissons Ratio (x) = 0.45747 0.21367
# Poissons Ratio (y) = 0.45747 0.21367
# Poissons Ratio (z) = 0.12636 0.12636
#
# Static dielectric constant tensor:
#      x y z
#    x 3.095190 0.000000 0.000000 
#    y 0.000000 3.095190 0.000000 
#    z 0.000000 0.000000 3.655640 
# 
# 
# High freq. dielectric constant tensor:
#      x y z
#    x 1.642320 0.000000 0.000000 
#    y 0.000000 1.642320 0.000000 
#    z 0.000000 0.000000 1.709130 
# 
# From -- ./inp_files/657.got.cif
#   From: 2010.03.12/outbox.cif.g09.slc.cpg/sg121_1_cif.got.tgz:657.got - 2010.04.06 16:06:48.
