data_PCOD8311029
_publ_section_title
;
Structure prediction by ZEFSAII (Michael W. Deem and Ramdas Pophale) SiO2 
 PCOD8311029
Probable space group: I -4 M 2
;
_chemical_formula_sum "Si O2"
_cell_formula_units_Z 96
_cell_length_a 15.486198
_cell_length_b 15.486198
_cell_length_c 18.753743
_cell_angle_alpha 90.000000
_cell_angle_beta 90.000000
_cell_angle_gamma 90.000000
_cell_volume 4497.566314
_symmetry_space_group_name_H-M "I -4 M 2"
_symmetry_group_IT_number 119
_symmetry_cell_setting 'tetragonal'
loop_
_space_group_symop_operation_xyz
x,y,z
y,-x,-z
-x,-y,z
-y,x,-z
y,x,-z
-y,-x,-z
-x,y,z
x,-y,z
1/2+x,1/2+y,1/2+z
1/2+y,1/2-x,1/2-z
1/2-x,1/2-y,1/2+z
1/2-y,1/2+x,1/2-z
1/2+y,1/2+x,1/2-z
1/2-y,1/2-x,1/2-z
1/2-x,1/2+y,1/2+z
1/2+x,1/2-y,1/2+z
loop_
_atom_site_type_symbol
_atom_site_label
_atom_site_fract_x
_atom_site_fract_y
_atom_site_fract_z
Si Si1 0.328996 0.698378 0.211953
Si Si2 0.900441 0.218577 0.552792
Si Si3 0.903992 0.328898 0.315942
Si Si4 0.404748 0.758107 0.592574
Si Si5 0.811042 0.906457 0.147271
Si Si6 0.095340 0.659243 0.948364
O O1 0.275940 0.775940 0.250000
O O2 0.366456 0.712883 0.133457
O O3 0.267918 0.613887 0.211481
O O4 0.406269 0.680312 0.266842
O O5 0.838340 0.161661 0.500000
O O6 0.901366 0.321823 0.535899
O O7 0.000000 0.186013 0.545580
O O8 0.894796 0.394796 0.250000
O O9 0.835125 0.345919 0.377760
O O10 0.000000 0.336345 0.347994
O O11 0.500000 0.768318 0.625649
O O12 0.368921 0.665499 0.611408
O O13 0.405705 0.765658 0.507699
O O14 0.710235 0.892584 0.125944
O O15 0.843244 0.000000 0.120736
O O16 0.000000 0.611023 0.949559
#
# Coordination Sequence:
#
# PCOD8311029 Si02
#       6
#    16  16  16  16  16  16
#     4  11  21  41  67  95 128 171 226 284 344 409
#     4  12  26  45  70 100 141 189 237 289 347 416
#     4  11  22  37  61  89 123 167 216 276 339 403
#     4  11  22  37  56  87 127 165 209 264 330 407
#     4  11  21  38  63  90 120 164 219 274 339 408
#     4  10  22  40  66  94 126 167 217 279 350 418
#
# _framework density 21.344878000000001
#
# number of rings (size 3 to 8) (size 9 to 14) (size 15 to 20)
#    0.000    1.000    5.000    3.500    0.000    4.667 
#    0.000    1.667    0.000    6.000    0.000    0.000 
#    0.000    0.000    0.000    0.000    0.000    0.000 
#
# Total GULP energy -594701.159621 kJ/mol
# GULP energy per Si atom -12389.607492 kJ/mol
# Density = 2.129630 g / cm^3
# Si number density = 21.344878 Si / 1000 Ang^3
#
#
#
# Elastic Constant Matrix: (Units=GPa)
#
#
# Indices 1 2 3 4 5 6 
#
# 1 131.4948 41.9404 33.1965 0.0000 0.0000 0.0000
# 2 41.9404 131.4934 33.1960 0.0000 0.0000 0.0000
# 3 33.1965 33.1960 94.7717 0.0000 0.0000 0.0000
# 4 0.0000 0.0000 0.0000 13.7119 0.0000 0.0000
# 5 0.0000 0.0000 0.0000 0.0000 13.7118 0.0000
# 6 0.0000 0.0000 0.0000 0.0000 0.0000 14.8358
#
#
#
# Elastic Compliance Matrix: (Units=1/GPa)
#
#
# Indices 1 2 3 4 5 6 
#
# 1 0.008913 -0.002254 -0.002332 0.000000 0.000000 0.000000
# 2 -0.002254 0.008913 -0.002332 0.000000 0.000000 0.000000
# 3 -0.002332 -0.002332 0.012186 0.000000 0.000000 0.000000
# 4 0.000000 0.000000 0.000000 0.072929 0.000000 0.000000
# 5 0.000000 0.000000 0.000000 0.000000 0.072930 0.000000
# 6 0.000000 0.000000 0.000000 0.000000 0.000000 0.067404
#
#
# Mechanical properties :
#
#
# Convention : Reuss Voigt Hill
#
# Bulk Modulus (GPa) = 61.82946 63.82508 62.82727
# Shear Modulus (GPa) = 19.04741 25.08037 22.06389
#
# Velocity S-wave (km/s) = 2.99049 3.43156 3.21859
# Velocity P-wave (km/s) = 6.39951 6.75777 6.58108
#
# Compressibility (1/GPa) = 0.01617352
#
# Stress axis : x y z
#
# Youngs Moduli (GPa) = 112.20104 112.20016 82.06388
#
# Poissons Ratio (x) = 0.25289 0.19141
# Poissons Ratio (y) = 0.25289 0.19140
# Poissons Ratio (z) = 0.26170 0.26169
#
# Static dielectric constant tensor:
#      x y z
#    x 3.805960 0.000000 0.000000 
#    y 0.000000 3.805960 0.000000 
#    z 0.000000 0.000000 4.144560 
# 
# 
# High freq. dielectric constant tensor:
#      x y z
#    x 1.823930 0.000000 0.000000 
#    y 0.000000 1.823930 0.000000 
#    z 0.000000 0.000000 1.850980 
# 
# From -- ./inp_files/7770.got.cif
#   From: 2010.03.12/outbox.cif.g09.slc.cpg/sg119_4_cif.got.tgz:7770.got - 2010.04.14 02:25:26.
