data_PCOD8311207
_publ_section_title
;
Structure prediction by ZEFSAII (Michael W. Deem and Ramdas Pophale) SiO2 
 PCOD8311207
Probable space group: I -4 C 2
;
_chemical_formula_sum "Si O2"
_cell_formula_units_Z 96
_cell_length_a 24.736306
_cell_length_b 24.736306
_cell_length_c 8.842811
_cell_angle_alpha 90.000000
_cell_angle_beta 90.000000
_cell_angle_gamma 90.000000
_cell_volume 5410.781945
_symmetry_space_group_name_H-M "I -4 C 2"
_symmetry_group_IT_number 120
_symmetry_cell_setting 'tetragonal'
loop_
_space_group_symop_operation_xyz
x,y,z
y,-x,-z
-x,-y,z
-y,x,-z
y,x,1/2-z
-y,-x,1/2-z
-x,y,1/2+z
x,-y,1/2+z
1/2+x,1/2+y,1/2+z
1/2+y,1/2-x,1/2-z
1/2-x,1/2-y,1/2+z
1/2-y,1/2+x,1/2-z
1/2+y,1/2+x,-z
1/2-y,1/2-x,-z
1/2-x,1/2+y,z
1/2+x,1/2-y,z
loop_
_atom_site_type_symbol
_atom_site_label
_atom_site_fract_x
_atom_site_fract_y
_atom_site_fract_z
Si Si1 0.112547 0.932513 0.612064
Si Si2 0.271937 0.551664 0.795227
Si Si3 0.756637 0.835709 0.669025
Si Si4 0.666947 0.251869 0.184228
Si Si5 0.387183 0.449026 0.143760
Si Si6 0.732789 0.561028 0.651558
O O1 0.071062 0.928939 0.750000
O O2 0.097826 0.888665 0.483778
O O3 0.171145 0.922221 0.682452
O O4 0.109484 0.994516 0.553717
O O5 0.242859 0.604242 0.727673
O O6 0.334856 0.556004 0.750293
O O7 0.248840 0.495082 0.730648
O O8 0.260160 0.553221 0.972997
O O9 0.809742 0.809742 0.750000
O O10 0.704970 0.799707 0.709543
O O11 0.765336 0.841643 0.490912
O O12 0.694582 0.305419 0.250000
O O13 0.611243 0.235745 0.271490
O O14 0.439325 0.439325 0.250000
#
# Coordination Sequence:
#
# PCOD8311207 Si02
#       6
#    16  16  16  16  16  16
#     4  11  24  33  50  67  91 129 173 225 272 320
#     4  11  23  36  55  74 103 138 175 220 268 325
#     4  10  21  36  57  82 109 139 175 222 271 322
#     4  10  21  36  56  83 109 138 177 221 271 324
#     4  11  22  37  47  68  92 128 177 224 276 318
#     4  11  23  37  54  76 102 138 175 219 267 325
#
# _framework density 17.742353000000001
#
# number of rings (size 3 to 8) (size 9 to 14) (size 15 to 20)
#    0.000    1.333    1.667    4.000   11.667    4.000 
#    0.000    0.000    0.000    0.000    0.000    0.000 
#    0.000    0.667    0.000    7.000    0.000    3.000 
#
# Total GULP energy -594886.740545 kJ/mol
# GULP energy per Si atom -12393.473761 kJ/mol
# Density = 1.770197 g / cm^3
# Si number density = 17.742353 Si / 1000 Ang^3
#
#
#
# Elastic Constant Matrix: (Units=GPa)
#
#
# Indices 1 2 3 4 5 6 
#
# 1 85.3585 29.7886 42.5862 0.0000 0.0000 0.0000
# 2 29.7886 85.3577 42.5847 0.0000 0.0000 0.0000
# 3 42.5862 42.5847 131.9083 0.0000 0.0000 0.0000
# 4 0.0000 0.0000 0.0000 28.1787 0.0000 0.0000
# 5 0.0000 0.0000 0.0000 0.0000 28.1791 0.0000
# 6 0.0000 0.0000 0.0000 0.0000 0.0000 20.5248
#
#
#
# Elastic Compliance Matrix: (Units=1/GPa)
#
#
# Indices 1 2 3 4 5 6 
#
# 1 0.014702 -0.003293 -0.003683 0.000000 0.000000 0.000000
# 2 -0.003293 0.014702 -0.003683 0.000000 0.000000 0.000000
# 3 -0.003683 -0.003683 0.009959 0.000000 0.000000 0.000000
# 4 0.000000 0.000000 0.000000 0.035488 0.000000 0.000000
# 5 0.000000 0.000000 0.000000 0.000000 0.035487 0.000000
# 6 0.000000 0.000000 0.000000 0.000000 0.000000 0.048722
#
#
# Mechanical properties :
#
#
# Convention : Reuss Voigt Hill
#
# Bulk Modulus (GPa) = 55.41982 59.17151 57.29566
# Shear Modulus (GPa) = 26.82478 27.88751 27.35614
#
# Velocity S-wave (km/s) = 3.89254 3.96890 3.93091
# Velocity P-wave (km/s) = 7.17678 7.37738 7.27777
#
# Compressibility (1/GPa) = 0.01804409
#
# Stress axis : x y z
#
# Youngs Moduli (GPa) = 68.01671 68.01691 100.40891
#
# Poissons Ratio (x) = 0.22400 0.36985
# Poissons Ratio (y) = 0.22399 0.36983
# Poissons Ratio (z) = 0.25053 0.25052
#
# Static dielectric constant tensor:
#      x y z
#    x 3.169460 0.000000 0.000000 
#    y 0.000000 3.169470 0.000000 
#    z 0.000000 0.000000 3.437320 
# 
# 
# High freq. dielectric constant tensor:
#      x y z
#    x 1.658680 0.000000 0.000000 
#    y 0.000000 1.658680 0.000000 
#    z 0.000000 0.000000 1.711430 
# 
# From -- ./inp_files/1560.got.cif
#   From: 2010.03.12/outbox.cif.g09.slc.cpg/sg120_1_cif.got.tgz:1560.got - 2010.04.06 16:00:44.
