data_PCOD8311787
_publ_section_title
;
Structure prediction by ZEFSAII (Michael W. Deem and Ramdas Pophale) SiO2 
 PCOD8311787
Probable space group: I -4 2 D
;
_chemical_formula_sum "Si O2"
_cell_formula_units_Z 116
_cell_length_a 17.494828
_cell_length_b 17.494828
_cell_length_c 19.094374
_cell_angle_alpha 90.000000
_cell_angle_beta 90.000000
_cell_angle_gamma 90.000000
_cell_volume 5844.196085
_symmetry_space_group_name_H-M "I -4 2 D"
_symmetry_group_IT_number 122
_symmetry_cell_setting 'tetragonal'
loop_
_space_group_symop_operation_xyz
x,y,z
y,-x,-z
-x,-y,z
-y,x,-z
x,1/2-y,1/4-z
-x,1/2+y,1/4-z
-y,1/2-x,1/4+z
y,1/2+x,1/4+z
1/2+x,1/2+y,1/2+z
1/2+y,1/2-x,1/2-z
1/2-x,1/2-y,1/2+z
1/2-y,1/2+x,1/2-z
1/2+x,-y,3/4-z
1/2-x,y,3/4-z
1/2-y,-x,3/4+z
1/2+y,x,3/4+z
loop_
_atom_site_type_symbol
_atom_site_label
_atom_site_fract_x
_atom_site_fract_y
_atom_site_fract_z
Si Si1 0.500000 0.000000 0.750000
Si Si2 0.455090 0.295395 0.722000
Si Si3 0.299614 0.062610 0.207086
Si Si4 0.243646 0.400878 0.191053
Si Si5 0.157916 0.609755 0.692167
Si Si6 0.776417 0.273208 0.052064
Si Si7 0.572564 0.864584 0.675909
Si Si8 0.125634 0.826167 0.701431
O O1 0.509088 0.923466 0.703924
O O2 0.534202 0.282477 0.761920
O O3 0.415272 0.211595 0.722803
O O4 0.464198 0.332391 0.645561
O O5 0.406075 0.359243 0.760976
O O6 0.280357 0.105002 0.134988
O O7 0.369239 0.111273 0.238509
O O8 0.224769 0.060287 0.259285
O O9 0.332984 0.980429 0.187234
O O10 0.261443 0.324242 0.232642
O O11 0.153035 0.409489 0.175445
O O12 0.245707 0.639878 0.692809
O O13 0.108787 0.650257 0.629005
O O14 0.819830 0.250000 0.125000
O O15 0.701191 0.223324 0.043852
#
# Coordination Sequence:
#
# PCOD8311787 Si02
#       8
#     4  16  16  16  16  16  16  16
#     4  12  24  44  60  96 136 184 206 252 336 412
#     4  11  22  38  62  93 129 169 209 261 315 378
#     4  11  23  41  68  91 123 163 215 263 321 390
#     4  12  22  38  63  94 123 168 212 262 314 379
#     4  10  23  43  64  90 121 165 208 271 326 381
#     4   9  21  37  61  91 123 157 207 259 307 374
#     4  11  24  38  63  93 135 168 211 258 311 394
#     4  10  19  41  65  89 124 162 209 262 323 375
#
# _framework density 19.848751
#
# number of rings (size 3 to 8) (size 9 to 14) (size 15 to 20)
#    0.000    1.379    5.517    1.241    1.931    2.483 
#    7.448    0.000    0.000    0.000    0.000    0.000 
#    0.000    0.000    0.000    0.000    0.000    0.000 
#
# Total GULP energy -718684.665273 kJ/mol
# GULP energy per Si atom -12391.114918 kJ/mol
# Density = 1.980357 g / cm^3
# Si number density = 19.848751 Si / 1000 Ang^3
#
#
#
# Elastic Constant Matrix: (Units=GPa)
#
#
# Indices 1 2 3 4 5 6 
#
# 1 69.8344 25.7100 40.9164 0.0000 0.0000 0.0000
# 2 25.7100 69.8344 40.9164 0.0000 0.0000 0.0000
# 3 40.9164 40.9164 128.1077 0.0000 0.0000 0.0000
# 4 0.0000 0.0000 0.0000 33.8949 0.0000 0.0000
# 5 0.0000 0.0000 0.0000 0.0000 33.8949 0.0000
# 6 0.0000 0.0000 0.0000 0.0000 0.0000 26.0175
#
#
#
# Elastic Compliance Matrix: (Units=1/GPa)
#
#
# Indices 1 2 3 4 5 6 
#
# 1 0.018535 -0.004128 -0.004602 0.000000 0.000000 0.000000
# 2 -0.004128 0.018535 -0.004602 0.000000 0.000000 0.000000
# 3 -0.004602 -0.004602 0.010745 0.000000 0.000000 0.000000
# 4 0.000000 0.000000 0.000000 0.029503 0.000000 0.000000
# 5 0.000000 0.000000 0.000000 0.000000 0.029503 0.000000
# 6 0.000000 0.000000 0.000000 0.000000 0.000000 0.038436
#
#
# Mechanical properties :
#
#
# Convention : Reuss Voigt Hill
#
# Bulk Modulus (GPa) = 47.27243 53.65133 50.46188
# Shear Modulus (GPa) = 27.93742 29.44369 28.69055
#
# Velocity S-wave (km/s) = 3.75576 3.85567 3.80604
# Velocity P-wave (km/s) = 6.53266 6.84912 6.69276
#
# Compressibility (1/GPa) = 0.02115398
#
# Stress axis : x y z
#
# Youngs Moduli (GPa) = 53.95077 53.95078 93.06323
#
# Poissons Ratio (x) = 0.22270 0.42824
# Poissons Ratio (y) = 0.22270 0.42824
# Poissons Ratio (z) = 0.24826 0.24826
#
# Static dielectric constant tensor:
#      x y z
#    x 3.593250 0.000000 0.000000 
#    y 0.000000 3.593250 0.000000 
#    z 0.000000 0.000000 3.995870 
# 
# 
# High freq. dielectric constant tensor:
#      x y z
#    x 1.758170 0.000000 0.000000 
#    y 0.000000 1.758170 0.000000 
#    z 0.000000 0.000000 1.790210 
# 
# From -- ./inp_files/6436.got.cif
#   From: 2010.03.12/outbox.cif.g09.slc.cpg/sg122_4_cif.got.tgz:6436.got - 2010.04.06 16:17:16.
