data_PCOD8311743
_publ_section_title
;
Structure prediction by ZEFSAII (Michael W. Deem and Ramdas Pophale) SiO2 
 PCOD8311743
Probable space group: I -4 2 D
;
_chemical_formula_sum "Si O2"
_cell_formula_units_Z 72
_cell_length_a 13.045314
_cell_length_b 13.045314
_cell_length_c 19.028133
_cell_angle_alpha 90.000000
_cell_angle_beta 90.000000
_cell_angle_gamma 90.000000
_cell_volume 3238.211810
_symmetry_space_group_name_H-M "I -4 2 D"
_symmetry_group_IT_number 122
_symmetry_cell_setting 'tetragonal'
loop_
_space_group_symop_operation_xyz
x,y,z
y,-x,-z
-x,-y,z
-y,x,-z
x,1/2-y,1/4-z
-x,1/2+y,1/4-z
-y,1/2-x,1/4+z
y,1/2+x,1/4+z
1/2+x,1/2+y,1/2+z
1/2+y,1/2-x,1/2-z
1/2-x,1/2-y,1/2+z
1/2-y,1/2+x,1/2-z
1/2+x,-y,3/4-z
1/2-x,y,3/4-z
1/2-y,-x,3/4+z
1/2+y,x,3/4+z
loop_
_atom_site_type_symbol
_atom_site_label
_atom_site_fract_x
_atom_site_fract_y
_atom_site_fract_z
Si Si1 0.370040 0.679587 0.366170
Si Si2 0.145164 0.129243 0.723261
Si Si3 0.500000 0.000000 0.567982
Si Si4 0.009733 0.117247 0.600522
Si Si5 0.845884 0.177847 0.509180
O O1 0.250000 0.650384 0.375000
O O2 0.409538 0.757451 0.427104
O O3 0.446565 0.583054 0.368834
O O4 0.384085 0.727516 0.288509
O O5 0.063171 0.174949 0.666530
O O6 0.181436 0.223559 0.771843
O O7 0.094107 0.042120 0.770811
O O8 0.073213 0.122800 0.529110
O O9 0.900398 0.172151 0.585230
O O10 0.000000 0.000000 0.625810
#
# Coordination Sequence:
#
# PCOD8311743 Si02
#       5
#    16  16   8  16  16
#     4   9  22  42  59  86 124 155 202 257 304 354
#     4  10  23  35  55  92 123 152 203 249 290 360
#     4  12  22  38  68  86 114 170 208 240 302 368
#     4  11  17  29  50  84 121 151 186 230 291 355
#     4  10  18  34  55  79 120 162 181 242 310 346
#
# _framework density 22.234493000000001
#
# number of rings (size 3 to 8) (size 9 to 14) (size 15 to 20)
#    0.000    1.778    3.333    3.333    3.111    0.000 
#    0.000    4.444    0.000    2.667    0.000    0.000 
#    0.000    0.000    0.000    0.000    0.000    0.000 
#
# Total GULP energy -446248.359663 kJ/mol
# GULP energy per Si atom -12395.787768 kJ/mol
# Density = 2.218389 g / cm^3
# Si number density = 22.234493 Si / 1000 Ang^3
#
#
#
# Elastic Constant Matrix: (Units=GPa)
#
#
# Indices 1 2 3 4 5 6 
#
# 1 114.2842 62.1478 41.6478 0.0000 0.0000 0.0000
# 2 62.1478 114.2842 41.6478 0.0000 0.0000 0.0000
# 3 41.6478 41.6478 57.2717 0.0000 0.0000 0.0000
# 4 0.0000 0.0000 0.0000 24.6110 0.0000 0.0000
# 5 0.0000 0.0000 0.0000 0.0000 24.6110 0.0000
# 6 0.0000 0.0000 0.0000 0.0000 0.0000 43.6004
#
#
#
# Elastic Compliance Matrix: (Units=1/GPa)
#
#
# Indices 1 2 3 4 5 6 
#
# 1 0.013906 -0.005275 -0.006277 0.000000 0.000000 0.000000
# 2 -0.005275 0.013906 -0.006277 0.000000 0.000000 0.000000
# 3 -0.006277 -0.006277 0.026589 0.000000 0.000000 0.000000
# 4 0.000000 0.000000 0.000000 0.040632 0.000000 0.000000
# 5 0.000000 0.000000 0.000000 0.000000 0.040632 0.000000
# 6 0.000000 0.000000 0.000000 0.000000 0.000000 0.022936
#
#
# Mechanical properties :
#
#
# Convention : Reuss Voigt Hill
#
# Bulk Modulus (GPa) = 53.34666 64.08076 58.71371
# Shear Modulus (GPa) = 24.93706 27.92426 26.43066
#
# Velocity S-wave (km/s) = 3.35259 3.54771 3.45153
# Velocity P-wave (km/s) = 6.24750 6.75756 6.50753
#
# Compressibility (1/GPa) = 0.01874532
#
# Stress axis : x y z
#
# Youngs Moduli (GPa) = 71.91248 71.91248 37.60928
#
# Poissons Ratio (x) = 0.37931 0.23606
# Poissons Ratio (y) = 0.37931 0.23606
# Poissons Ratio (z) = 0.45136 0.45136
#
# Static dielectric constant tensor:
#      x y z
#    x 3.958990 0.000000 0.000000 
#    y 0.000000 3.958990 0.000000 
#    z 0.000000 0.000000 3.583850 
# 
# 
# High freq. dielectric constant tensor:
#      x y z
#    x 1.873640 0.000000 0.000000 
#    y 0.000000 1.873640 0.000000 
#    z 0.000000 0.000000 1.838870 
# 
# From -- ./inp_files/6138.got.cif
#   From: 2010.03.12/outbox.cif.g09.slc.cpg/sg122_4_cif.got.tgz:6138.got - 2010.04.06 16:17:16.
