data_PCOD8311929
_publ_section_title
;
Structure prediction by ZEFSAII (Michael W. Deem and Ramdas Pophale) SiO2 
 PCOD8311929
Probable space group: I -4 2 D
;
_chemical_formula_sum "Si O2"
_cell_formula_units_Z 112
_cell_length_a 28.439161
_cell_length_b 28.439161
_cell_length_c 6.378359
_cell_angle_alpha 90.000000
_cell_angle_beta 90.000000
_cell_angle_gamma 90.000000
_cell_volume 5158.726686
_symmetry_space_group_name_H-M "I -4 2 D"
_symmetry_group_IT_number 122
_symmetry_cell_setting 'tetragonal'
loop_
_space_group_symop_operation_xyz
x,y,z
y,-x,-z
-x,-y,z
-y,x,-z
x,1/2-y,1/4-z
-x,1/2+y,1/4-z
-y,1/2-x,1/4+z
y,1/2+x,1/4+z
1/2+x,1/2+y,1/2+z
1/2+y,1/2-x,1/2-z
1/2-x,1/2-y,1/2+z
1/2-y,1/2+x,1/2-z
1/2+x,-y,3/4-z
1/2-x,y,3/4-z
1/2-y,-x,3/4+z
1/2+y,x,3/4+z
loop_
_atom_site_type_symbol
_atom_site_label
_atom_site_fract_x
_atom_site_fract_y
_atom_site_fract_z
Si Si1 0.128832 0.318217 0.099355
Si Si2 0.104629 0.582802 0.111145
Si Si3 0.706400 0.469496 0.241479
Si Si4 0.133182 0.014380 0.028343
Si Si5 0.801114 0.540664 0.850219
Si Si6 0.369465 0.843930 0.302680
Si Si7 0.288510 0.803325 0.552184
O O1 0.102840 0.358911 0.222967
O O2 0.161726 0.284761 0.246027
O O3 0.087268 0.288494 0.986744
O O4 0.159754 0.343081 0.919583
O O5 0.104092 0.526063 0.097203
O O6 0.052707 0.598536 0.180493
O O7 0.123498 0.602799 0.887925
O O8 0.750000 0.490203 0.375000
O O9 0.658269 0.487760 0.339634
O O10 0.706371 0.489344 0.005115
O O11 0.171142 0.037583 0.182407
O O12 0.750000 0.563478 0.875000
O O13 0.826560 0.577113 0.697871
O O14 0.340681 0.810523 0.461175
O O15 0.280748 0.750000 0.625000
O O16 0.250000 0.817227 0.375000
#
# Coordination Sequence:
#
# PCOD8311929 Si02
#       7
#    16  16  16  16  16  16  16
#     4  10  24  44  66  95 129 179 220 287 340 407
#     4  10  22  42  66  94 131 173 219 274 339 408
#     4  11  23  40  65  94 132 166 217 283 344 401
#     4  11  22  42  63  95 132 171 220 272 336 409
#     4  12  24  38  67 100 132 171 222 284 345 409
#     4  11  24  43  69  96 132 179 225 283 346 405
#     4  11  29  45  67  97 136 184 239 281 341 419
#
# _framework density 21.710782999999999
#
# number of rings (size 3 to 8) (size 9 to 14) (size 15 to 20)
#    0.000    1.143    4.286    0.857    6.000    0.857 
#    0.000    0.000    0.000    0.000    0.000    0.000 
#    0.000    0.000    0.000    0.000    0.000    0.000 
#
# Total GULP energy -694195.861586 kJ/mol
# GULP energy per Si atom -12396.354671 kJ/mol
# Density = 2.166137 g / cm^3
# Si number density = 21.710783 Si / 1000 Ang^3
#
#
#
# Elastic Constant Matrix: (Units=GPa)
#
#
# Indices 1 2 3 4 5 6 
#
# 1 94.3438 24.0218 24.2901 0.0000 0.0000 0.0000
# 2 24.0218 94.3438 24.2901 0.0000 0.0000 0.0000
# 3 24.2901 24.2901 85.7789 0.0000 0.0000 0.0000
# 4 0.0000 0.0000 0.0000 32.5287 0.0000 0.0000
# 5 0.0000 0.0000 0.0000 0.0000 32.5287 0.0000
# 6 0.0000 0.0000 0.0000 0.0000 0.0000 24.0420
#
#
#
# Elastic Compliance Matrix: (Units=1/GPa)
#
#
# Indices 1 2 3 4 5 6 
#
# 1 0.011890 -0.002330 -0.002707 0.000000 0.000000 0.000000
# 2 -0.002330 0.011890 -0.002707 0.000000 0.000000 0.000000
# 3 -0.002707 -0.002707 0.013191 0.000000 0.000000 0.000000
# 4 0.000000 0.000000 0.000000 0.030742 0.000000 0.000000
# 5 0.000000 0.000000 0.000000 0.000000 0.030742 0.000000
# 6 0.000000 0.000000 0.000000 0.000000 0.000000 0.041594
#
#
# Mechanical properties :
#
#
# Convention : Reuss Voigt Hill
#
# Bulk Modulus (GPa) = 46.55068 46.63004 46.59036
# Shear Modulus (GPa) = 30.73176 31.27749 31.00463
#
# Velocity S-wave (km/s) = 3.76640 3.79970 3.78309
# Velocity P-wave (km/s) = 6.35627 6.38551 6.37091
#
# Compressibility (1/GPa) = 0.02148196
#
# Stress axis : x y z
#
# Youngs Moduli (GPa) = 84.10534 84.10534 75.80963
#
# Poissons Ratio (x) = 0.19600 0.20521
# Poissons Ratio (y) = 0.19600 0.20521
# Poissons Ratio (z) = 0.22767 0.22767
#
# Static dielectric constant tensor:
#      x y z
#    x 3.980670 0.000000 0.000000 
#    y 0.000000 3.980670 0.000000 
#    z 0.000000 0.000000 3.876630 
# 
# 
# High freq. dielectric constant tensor:
#      x y z
#    x 1.851870 0.000000 0.000000 
#    y 0.000000 1.851870 0.000000 
#    z 0.000000 0.000000 1.853540 
# 
# From -- ./inp_files/1525.got.cif
#   From: 2010.03.12/outbox.cif.g09.slc.cpg/sg122_1_cif.got.tgz:1525.got - 2010.04.06 16:17:16.
