data_PCOD8311874
_publ_section_title
;
Structure prediction by ZEFSAII (Michael W. Deem and Ramdas Pophale) SiO2 
 PCOD8311874
Probable space group: I -4 2 D
;
_chemical_formula_sum "Si O2"
_cell_formula_units_Z 120
_cell_length_a 14.841983
_cell_length_b 14.841983
_cell_length_c 28.953672
_cell_angle_alpha 90.000000
_cell_angle_beta 90.000000
_cell_angle_gamma 90.000000
_cell_volume 6378.043983
_symmetry_space_group_name_H-M "I -4 2 D"
_symmetry_group_IT_number 122
_symmetry_cell_setting 'tetragonal'
loop_
_space_group_symop_operation_xyz
x,y,z
y,-x,-z
-x,-y,z
-y,x,-z
x,1/2-y,1/4-z
-x,1/2+y,1/4-z
-y,1/2-x,1/4+z
y,1/2+x,1/4+z
1/2+x,1/2+y,1/2+z
1/2+y,1/2-x,1/2-z
1/2-x,1/2-y,1/2+z
1/2-y,1/2+x,1/2-z
1/2+x,-y,3/4-z
1/2-x,y,3/4-z
1/2-y,-x,3/4+z
1/2+y,x,3/4+z
loop_
_atom_site_type_symbol
_atom_site_label
_atom_site_fract_x
_atom_site_fract_y
_atom_site_fract_z
Si Si1 0.566638 0.243185 0.285390
Si Si2 0.750000 0.114419 0.375000
Si Si3 0.744713 0.902873 0.638208
Si Si4 0.949801 0.913101 0.215927
Si Si5 0.852175 0.455514 0.365550
Si Si6 0.444000 0.613958 0.523551
Si Si7 0.229366 0.602315 0.775718
Si Si8 0.793087 0.914712 0.735422
O O1 0.541904 0.249094 0.340196
O O2 0.589617 0.344867 0.269523
O O3 0.478277 0.205841 0.259370
O O4 0.651789 0.179162 0.274092
O O5 0.829996 0.178761 0.362601
O O6 0.769318 0.058476 0.422180
O O7 0.649264 0.855514 0.648387
O O8 0.771001 0.956083 0.684626
O O9 0.966913 0.911861 0.161172
O O10 0.998208 0.828347 0.238074
O O11 0.000000 0.000000 0.236678
O O12 0.750000 0.484013 0.375000
O O13 0.892031 0.520129 0.326049
O O14 0.526682 0.616017 0.486629
O O15 0.385729 0.702861 0.513109
O O16 0.326796 0.643215 0.762850
#
# Coordination Sequence:
#
# PCOD8311874 Si02
#       8
#    16   8  16  16  16  16  16  16
#     4  10  22  39  64  88 113 151 195 248 300 351
#     4   8  16  32  60  84 106 144 194 248 272 346
#     4   9  18  33  58  82 110 149 197 236 285 341
#     4  11  23  37  58  87 119 154 195 241 290 348
#     4  11  20  34  56  82 111 154 199 236 284 341
#     4  11  24  35  50  83 117 157 191 237 285 336
#     4  10  21  39  62  89 115 147 198 245 302 349
#     4  11  21  37  58  82 120 153 196 239 283 348
#
# _framework density 18.814544000000001
#
# number of rings (size 3 to 8) (size 9 to 14) (size 15 to 20)
#    0.000    1.733    4.667    0.000    5.600    0.267 
#    0.000    1.333    0.000    1.600    0.000    0.000 
#    0.000    0.000    0.000    0.000    0.000    0.000 
#
# Total GULP energy -743379.433911 kJ/mol
# GULP energy per Si atom -12389.657232 kJ/mol
# Density = 1.877172 g / cm^3
# Si number density = 18.814544 Si / 1000 Ang^3
#
#
#
# Elastic Constant Matrix: (Units=GPa)
#
#
# Indices 1 2 3 4 5 6 
#
# 1 71.6673 16.8033 29.3410 0.0000 0.0000 0.0000
# 2 16.8033 71.6673 29.3410 0.0000 0.0000 0.0000
# 3 29.3410 29.3410 104.9082 0.0000 0.0000 0.0000
# 4 0.0000 0.0000 0.0000 25.7444 0.0000 0.0000
# 5 0.0000 0.0000 0.0000 0.0000 25.7444 0.0000
# 6 0.0000 0.0000 0.0000 0.0000 0.0000 30.0113
#
#
#
# Elastic Compliance Matrix: (Units=1/GPa)
#
#
# Indices 1 2 3 4 5 6 
#
# 1 0.016052 -0.002175 -0.003881 0.000000 0.000000 0.000000
# 2 -0.002175 0.016052 -0.003881 0.000000 0.000000 0.000000
# 3 -0.003881 -0.003881 0.011703 0.000000 0.000000 0.000000
# 4 0.000000 0.000000 0.000000 0.038843 0.000000 0.000000
# 5 0.000000 0.000000 0.000000 0.000000 0.038843 0.000000
# 6 0.000000 0.000000 0.000000 0.000000 0.000000 0.033321
#
#
# Mechanical properties :
#
#
# Convention : Reuss Voigt Hill
#
# Bulk Modulus (GPa) = 41.78300 44.35707 43.07004
# Shear Modulus (GPa) = 27.37212 27.81719 27.59465
#
# Velocity S-wave (km/s) = 3.81837 3.84929 3.83386
# Velocity P-wave (km/s) = 6.45724 6.58659 6.52224
#
# Compressibility (1/GPa) = 0.02393318
#
# Stress axis : x y z
#
# Youngs Moduli (GPa) = 62.29646 62.29646 85.44651
#
# Poissons Ratio (x) = 0.13547 0.33165
# Poissons Ratio (y) = 0.13547 0.33165
# Poissons Ratio (z) = 0.24179 0.24179
#
# Static dielectric constant tensor:
#      x y z
#    x 3.287310 0.000000 0.000000 
#    y 0.000000 3.287310 0.000000 
#    z 0.000000 0.000000 3.879210 
# 
# 
# High freq. dielectric constant tensor:
#      x y z
#    x 1.715330 0.000000 0.000000 
#    y 0.000000 1.715330 0.000000 
#    z 0.000000 0.000000 1.741850 
# 
# From -- ./inp_files/9732.got.cif
#   From: 2010.03.12/outbox.cif.g09.slc.cpg/sg122_5_cif.got.tgz:9732.got - 2010.04.06 16:17:16.
