data_PCOD8311364
_publ_section_title
;
Structure prediction by ZEFSAII (Michael W. Deem and Ramdas Pophale) SiO2 
 PCOD8311364
Probable space group: I -4 2 M
;
_chemical_formula_sum "Si O2"
_cell_formula_units_Z 88
_cell_length_a 14.027577
_cell_length_b 14.027577
_cell_length_c 24.306287
_cell_angle_alpha 90.000000
_cell_angle_beta 90.000000
_cell_angle_gamma 90.000000
_cell_volume 4782.818982
_symmetry_space_group_name_H-M "I -4 2 M"
_symmetry_group_IT_number 121
_symmetry_cell_setting 'tetragonal'
loop_
_space_group_symop_operation_xyz
x,y,z
y,-x,-z
-x,-y,z
-y,x,-z
x,-y,-z
-x,y,-z
-y,-x,z
y,x,z
1/2+x,1/2+y,1/2+z
1/2+y,1/2-x,1/2-z
1/2-x,1/2-y,1/2+z
1/2-y,1/2+x,1/2-z
1/2+x,1/2-y,1/2-z
1/2-x,1/2+y,1/2-z
1/2-y,1/2-x,1/2+z
1/2+y,1/2+x,1/2+z
loop_
_atom_site_type_symbol
_atom_site_label
_atom_site_fract_x
_atom_site_fract_y
_atom_site_fract_z
Si Si1 0.919692 0.240447 0.606086
Si Si2 0.222711 0.621693 0.644717
Si Si3 0.651174 0.496697 0.793972
Si Si4 0.500000 0.657113 0.000000
Si Si5 0.607748 0.891864 0.247725
Si Si6 0.427220 0.725625 0.321125
O O1 0.840151 0.159850 0.610361
O O2 0.863620 0.342369 0.605064
O O3 0.988590 0.232534 0.659582
O O4 0.981980 0.226832 0.551377
O O5 0.317611 0.682390 0.635285
O O6 0.184640 0.637082 0.706631
O O7 0.250252 0.510339 0.634299
O O8 0.612192 0.387809 0.794600
O O9 0.565005 0.565005 0.809980
O O10 0.688088 0.520648 0.733467
O O11 0.591268 0.591268 0.013126
O O12 0.499014 0.877087 0.229141
O O13 0.676075 0.873547 0.194953
O O14 0.352298 0.647703 0.344654
#
# Coordination Sequence:
#
# PCOD8311364 Si02
#       6
#    16  16  16   8  16  16
#     4   9  16  26  39  58  86 122 165 209 255 300
#     4  10  18  28  42  61  90 128 167 206 247 295
#     4   9  15  23  36  55  82 116 158 208 252 289
#     4   9  16  26  42  62  86 123 174 224 260 299
#     4   9  17  28  42  59  83 122 165 202 243 294
#     4  10  18  28  42  61  89 127 172 214 248 286
#
# _framework density 18.399190000000001
#
# number of rings (size 3 to 8) (size 9 to 14) (size 15 to 20)
#    0.000    2.636    1.818    1.636    0.000    3.273 
#    0.000    0.000    0.000    0.000    0.000    0.000 
#    0.000   11.636    0.000    3.636    0.000   34.364 
#
# Total GULP energy -545092.693819 kJ/mol
# GULP energy per Si atom -12388.470314 kJ/mol
# Density = 1.835731 g / cm^3
# Si number density = 18.399190 Si / 1000 Ang^3
#
#
#
# Elastic Constant Matrix: (Units=GPa)
#
#
# Indices 1 2 3 4 5 6 
#
# 1 83.3362 33.8383 13.6458 0.0000 0.0000 0.0000
# 2 33.8383 83.3382 13.6450 0.0000 0.0000 0.0000
# 3 13.6458 13.6450 31.3242 0.0000 0.0000 0.0000
# 4 0.0000 0.0000 0.0000 15.4938 0.0000 0.0000
# 5 0.0000 0.0000 0.0000 0.0000 15.4936 0.0000
# 6 0.0000 0.0000 0.0000 0.0000 0.0000 35.3061
#
#
#
# Elastic Compliance Matrix: (Units=1/GPa)
#
#
# Indices 1 2 3 4 5 6 
#
# 1 0.014850 -0.005352 -0.004138 0.000000 0.000000 0.000000
# 2 -0.005352 0.014850 -0.004137 0.000000 0.000000 0.000000
# 3 -0.004138 -0.004137 0.035529 0.000000 0.000000 0.000000
# 4 0.000000 0.000000 0.000000 0.064542 0.000000 0.000000
# 5 0.000000 0.000000 0.000000 0.000000 0.064543 0.000000
# 6 0.000000 0.000000 0.000000 0.000000 0.000000 0.028324
#
#
# Mechanical properties :
#
#
# Convention : Reuss Voigt Hill
#
# Bulk Modulus (GPa) = 26.33324 35.58409 30.95866
# Shear Modulus (GPa) = 19.04395 22.38332 20.71363
#
# Velocity S-wave (km/s) = 3.22070 3.49167 3.35892
# Velocity P-wave (km/s) = 5.30790 5.96974 5.64852
#
# Compressibility (1/GPa) = 0.03797482
#
# Stress axis : x y z
#
# Youngs Moduli (GPa) = 67.33812 67.34051 28.14613
#
# Poissons Ratio (x) = 0.36043 0.11646
# Poissons Ratio (y) = 0.36042 0.11644
# Poissons Ratio (z) = 0.27863 0.27859
#
# Static dielectric constant tensor:
#      x y z
#    x 3.693310 0.000000 0.000000 
#    y 0.000000 3.693300 0.000000 
#    z 0.000000 0.000000 2.909970 
# 
# 
# High freq. dielectric constant tensor:
#      x y z
#    x 1.716940 0.000000 0.000000 
#    y 0.000000 1.716940 0.000000 
#    z 0.000000 0.000000 1.634930 
# 
# From -- ./inp_files/7079.got.cif
#   From: 2010.03.12/outbox.cif.g09.slc.cpg/sg121_4_cif.got.tgz:7079.got - 2010.04.06 16:06:48.
