data_PCOD8311983
_publ_section_title
;
Structure prediction by ZEFSAII (Michael W. Deem and Ramdas Pophale) SiO2 
 PCOD8311983
Probable space group: I -4 2 D
;
_chemical_formula_sum "Si O2"
_cell_formula_units_Z 96
_cell_length_a 15.320721
_cell_length_b 15.320721
_cell_length_c 19.747066
_cell_angle_alpha 90.000000
_cell_angle_beta 90.000000
_cell_angle_gamma 90.000000
_cell_volume 4635.120035
_symmetry_space_group_name_H-M "I -4 2 D"
_symmetry_group_IT_number 122
_symmetry_cell_setting 'tetragonal'
loop_
_space_group_symop_operation_xyz
x,y,z
y,-x,-z
-x,-y,z
-y,x,-z
x,1/2-y,1/4-z
-x,1/2+y,1/4-z
-y,1/2-x,1/4+z
y,1/2+x,1/4+z
1/2+x,1/2+y,1/2+z
1/2+y,1/2-x,1/2-z
1/2-x,1/2-y,1/2+z
1/2-y,1/2+x,1/2-z
1/2+x,-y,3/4-z
1/2-x,y,3/4-z
1/2-y,-x,3/4+z
1/2+y,x,3/4+z
loop_
_atom_site_type_symbol
_atom_site_label
_atom_site_fract_x
_atom_site_fract_y
_atom_site_fract_z
Si Si1 0.657904 0.448657 0.912460
Si Si2 0.048441 0.908658 0.917573
Si Si3 0.187013 0.603695 0.216562
Si Si4 0.373983 0.607882 0.272931
Si Si5 0.618704 0.194077 0.234551
Si Si6 0.000000 0.500000 0.569888
Si Si7 0.250000 0.254310 0.875000
O O1 0.750000 0.458252 0.875000
O O2 0.648507 0.527906 0.965273
O O3 0.574980 0.452386 0.863092
O O4 0.658681 0.356797 0.951632
O O5 0.107167 0.908456 0.851155
O O6 0.976368 0.831437 0.915141
O O7 0.106701 0.888085 0.982634
O O8 0.000000 0.000000 0.925722
O O9 0.273115 0.588020 0.260323
O O10 0.193032 0.691437 0.172269
O O11 0.398371 0.706025 0.253328
O O12 0.427006 0.541598 0.227051
O O13 0.684600 0.187505 0.170855
#
# Coordination Sequence:
#
# PCOD8311983 Si02
#       7
#    16  16  16  16  16   8   8
#     4  12  24  42  72 104 144 185 244 290 368 432
#     4  12  24  46  66 100 136 182 236 290 342 413
#     4  11  24  45  70  96 138 181 233 291 345 413
#     4  11  26  45  70  99 142 181 236 289 354 419
#     4  11  24  45  68 105 143 182 229 302 340 435
#     4  12  24  47  68 105 138 194 226 298 364 424
#     4  10  24  44  68  98 142 184 234 286 352 406
#
# _framework density 20.711438000000001
#
# number of rings (size 3 to 8) (size 9 to 14) (size 15 to 20)
#    0.000    0.667    5.000    2.500    4.667    4.000 
#    0.000    0.000    0.000    0.000    0.000    0.000 
#    0.000    0.000    0.000    0.000    0.000    0.000 
#
# Total GULP energy -595437.332208 kJ/mol
# GULP energy per Si atom -12404.944421 kJ/mol
# Density = 2.066430 g / cm^3
# Si number density = 20.711438 Si / 1000 Ang^3
#
#
#
# Elastic Constant Matrix: (Units=GPa)
#
#
# Indices 1 2 3 4 5 6 
#
# 1 107.1152 49.4223 48.0014 0.0000 0.0000 0.0000
# 2 49.4223 107.1152 48.0014 0.0000 0.0000 0.0000
# 3 48.0014 48.0014 119.2737 0.0000 0.0000 0.0000
# 4 0.0000 0.0000 0.0000 42.0527 0.0000 0.0000
# 5 0.0000 0.0000 0.0000 0.0000 42.0527 0.0000
# 6 0.0000 0.0000 0.0000 0.0000 0.0000 34.8611
#
#
#
# Elastic Compliance Matrix: (Units=1/GPa)
#
#
# Indices 1 2 3 4 5 6 
#
# 1 0.012907 -0.004426 -0.003413 0.000000 0.000000 0.000000
# 2 -0.004426 0.012907 -0.003413 0.000000 0.000000 0.000000
# 3 -0.003413 -0.003413 0.011132 0.000000 0.000000 0.000000
# 4 0.000000 0.000000 0.000000 0.023780 0.000000 0.000000
# 5 0.000000 0.000000 0.000000 0.000000 0.023780 0.000000
# 6 0.000000 0.000000 0.000000 0.000000 0.000000 0.028685
#
#
# Mechanical properties :
#
#
# Convention : Reuss Voigt Hill
#
# Bulk Modulus (GPa) = 69.24654 69.37271 69.30962
# Shear Modulus (GPa) = 35.58469 36.33191 35.95830
#
# Velocity S-wave (km/s) = 4.14952 4.19286 4.17124
# Velocity P-wave (km/s) = 7.51429 7.55034 7.53234
#
# Compressibility (1/GPa) = 0.01444115
#
# Stress axis : x y z
#
# Youngs Moduli (GPa) = 77.47492 77.47493 89.83499
#
# Poissons Ratio (x) = 0.34288 0.30664
# Poissons Ratio (y) = 0.34288 0.30664
# Poissons Ratio (z) = 0.26445 0.26445
#
# Static dielectric constant tensor:
#      x y z
#    x 3.821400 0.000000 0.000000 
#    y 0.000000 3.821400 0.000000 
#    z 0.000000 0.000000 3.962410 
# 
# 
# High freq. dielectric constant tensor:
#      x y z
#    x 1.817710 0.000000 0.000000 
#    y 0.000000 1.817710 0.000000 
#    z 0.000000 0.000000 1.823490 
# 
# From -- ./inp_files/7334.got.cif
#   From: 2010.03.12/outbox.cif.g09.slc.cpg/sg122_4_cif.got.tgz:7334.got - 2010.04.06 16:17:16.
