data_PCOD8311482
_publ_section_title
;
Structure prediction by ZEFSAII (Michael W. Deem and Ramdas Pophale) SiO2 
 PCOD8311482
Probable space group: I -4 2 M
;
_chemical_formula_sum "Si O2"
_cell_formula_units_Z 88
_cell_length_a 13.330002
_cell_length_b 13.330002
_cell_length_c 27.067207
_cell_angle_alpha 90.000000
_cell_angle_beta 90.000000
_cell_angle_gamma 90.000000
_cell_volume 4809.543681
_symmetry_space_group_name_H-M "I -4 2 M"
_symmetry_group_IT_number 121
_symmetry_cell_setting 'tetragonal'
loop_
_space_group_symop_operation_xyz
x,y,z
y,-x,-z
-x,-y,z
-y,x,-z
x,-y,-z
-x,y,-z
-y,-x,z
y,x,z
1/2+x,1/2+y,1/2+z
1/2+y,1/2-x,1/2-z
1/2-x,1/2-y,1/2+z
1/2-y,1/2+x,1/2-z
1/2+x,1/2-y,1/2-z
1/2-x,1/2+y,1/2-z
1/2-y,1/2-x,1/2+z
1/2+y,1/2+x,1/2+z
loop_
_atom_site_type_symbol
_atom_site_label
_atom_site_fract_x
_atom_site_fract_y
_atom_site_fract_z
Si Si1 0.000000 0.165808 0.000000
Si Si2 0.774400 0.390445 0.867330
Si Si3 0.163140 0.994326 0.554065
Si Si4 0.654322 0.975019 0.734847
Si Si5 0.001945 0.835229 0.804210
Si Si6 0.927462 0.235519 0.902283
O O1 0.008074 0.239155 0.047482
O O2 0.098312 0.098312 0.992384
O O3 0.681976 0.318025 0.851141
O O4 0.739388 0.482569 0.901605
O O5 0.831709 0.435441 0.820548
O O6 0.852828 0.329056 0.900468
O O7 0.076189 0.076189 0.553529
O O8 0.216447 0.000000 0.500000
O O9 0.115427 0.884574 0.563778
O O10 0.584525 0.897312 0.765186
O O11 0.764194 0.981483 0.757976
O O12 0.107801 0.892199 0.795580
O O13 0.003609 0.766593 0.853378
O O14 0.912982 0.912982 0.809399
O O15 0.869922 0.130078 0.902914
#
# Coordination Sequence:
#
# PCOD8311482 Si02
#       6
#     8  16  16  16  16  16
#     4   9  16  28  50  78 109 144 180 220 269 329
#     4  10  19  34  57  80 108 145 184 227 277 329
#     4   8  15  30  53  80 109 140 176 222 274 325
#     4  11  23  38  55  76 108 151 187 227 279 335
#     4  10  20  35  57  82 107 138 184 236 279 326
#     4   9  17  31  51  78 109 142 178 219 272 327
#
# _framework density 18.296953999999999
#
# number of rings (size 3 to 8) (size 9 to 14) (size 15 to 20)
#    0.000    2.455    1.818    1.636    0.000    3.636 
#    0.000    3.636    0.000    2.182    0.000    0.000 
#    0.000    0.000    0.000    0.000    0.000    0.000 
#
# Total GULP energy -545516.005577 kJ/mol
# GULP energy per Si atom -12398.091036 kJ/mol
# Density = 1.825531 g / cm^3
# Si number density = 18.296954 Si / 1000 Ang^3
#
#
#
# Elastic Constant Matrix: (Units=GPa)
#
#
# Indices 1 2 3 4 5 6 
#
# 1 68.3443 29.5776 41.3160 0.0000 0.0000 0.0000
# 2 29.5776 68.3454 41.3160 0.0000 0.0000 0.0000
# 3 41.3160 41.3160 114.3569 0.0000 0.0000 0.0000
# 4 0.0000 0.0000 0.0000 25.2143 0.0000 0.0000
# 5 0.0000 0.0000 0.0000 0.0000 25.2142 0.0000
# 6 0.0000 0.0000 0.0000 0.0000 0.0000 19.6898
#
#
#
# Elastic Compliance Matrix: (Units=1/GPa)
#
#
# Indices 1 2 3 4 5 6 
#
# 1 0.020243 -0.005552 -0.005308 0.000000 0.000000 0.000000
# 2 -0.005552 0.020243 -0.005308 0.000000 0.000000 0.000000
# 3 -0.005308 -0.005308 0.012580 0.000000 0.000000 0.000000
# 4 0.000000 0.000000 0.000000 0.039660 0.000000 0.000000
# 5 0.000000 0.000000 0.000000 0.000000 0.039660 0.000000
# 6 0.000000 0.000000 0.000000 0.000000 0.000000 0.050788
#
#
# Mechanical properties :
#
#
# Convention : Reuss Voigt Hill
#
# Bulk Modulus (GPa) = 48.23683 52.82955 50.53319
# Shear Modulus (GPa) = 22.48007 23.27945 22.87976
#
# Velocity S-wave (km/s) = 3.50898 3.57082 3.54003
# Velocity P-wave (km/s) = 6.54506 6.77769 6.66239
#
# Compressibility (1/GPa) = 0.02073105
#
# Stress axis : x y z
#
# Youngs Moduli (GPa) = 49.39913 49.40013 79.49231
#
# Poissons Ratio (x) = 0.27427 0.42193
# Poissons Ratio (y) = 0.27426 0.42192
# Poissons Ratio (z) = 0.26220 0.26220
#
# Static dielectric constant tensor:
#      x y z
#    x 3.285530 0.000000 0.000000 
#    y 0.000000 3.285520 0.000000 
#    z 0.000000 0.000000 3.523540 
# 
# 
# High freq. dielectric constant tensor:
#      x y z
#    x 1.690630 0.000000 0.000000 
#    y 0.000000 1.690630 0.000000 
#    z 0.000000 0.000000 1.715670 
# 
# From -- ./inp_files/8240.got.cif
#   From: 2010.03.12/outbox.cif.g09.slc.cpg/sg121_5_cif.got.tgz:8240.got - 2010.04.06 16:06:48.
