data_PCOD8311356
_publ_section_title
;
Structure prediction by ZEFSAII (Michael W. Deem and Ramdas Pophale) SiO2 
 PCOD8311356
Probable space group: I -4 2 M
;
_chemical_formula_sum "Si O2"
_cell_formula_units_Z 96
_cell_length_a 20.435324
_cell_length_b 20.435324
_cell_length_c 13.002191
_cell_angle_alpha 90.000000
_cell_angle_beta 90.000000
_cell_angle_gamma 90.000000
_cell_volume 5429.747038
_symmetry_space_group_name_H-M "I -4 2 M"
_symmetry_group_IT_number 121
_symmetry_cell_setting 'tetragonal'
loop_
_space_group_symop_operation_xyz
x,y,z
y,-x,-z
-x,-y,z
-y,x,-z
x,-y,-z
-x,y,-z
-y,-x,z
y,x,z
1/2+x,1/2+y,1/2+z
1/2+y,1/2-x,1/2-z
1/2-x,1/2-y,1/2+z
1/2-y,1/2+x,1/2-z
1/2+x,1/2-y,1/2-z
1/2-x,1/2+y,1/2-z
1/2-y,1/2-x,1/2+z
1/2+y,1/2+x,1/2+z
loop_
_atom_site_type_symbol
_atom_site_label
_atom_site_fract_x
_atom_site_fract_y
_atom_site_fract_z
Si Si1 0.725894 0.998903 0.616407
Si Si2 0.168778 0.727133 0.908566
Si Si3 0.127868 0.767003 0.305798
Si Si4 0.816697 0.378830 0.616764
Si Si5 0.475685 0.101612 0.260198
Si Si6 0.132886 0.759841 0.689425
O O1 0.775884 0.939239 0.633234
O O2 0.659782 0.989585 0.681311
O O3 0.702051 0.000000 0.500000
O O4 0.770907 0.060453 0.647076
O O5 0.217788 0.782213 0.953679
O O6 0.209883 0.667270 0.863022
O O7 0.127909 0.755988 0.813086
O O8 0.118358 0.703939 0.996789
O O9 0.164607 0.835394 0.306848
O O10 0.112489 0.746867 0.188322
O O11 0.869745 0.436014 0.641116
O O12 0.844790 0.307156 0.637054
O O13 0.545261 0.069688 0.293259
O O14 0.182166 0.817835 0.655299
#
# Coordination Sequence:
#
# PCOD8311356 Si02
#       6
#    16  16  16  16  16  16
#     4  11  22  36  54  75 106 142 186 221 264 327
#     4   9  17  31  55  82 104 131 176 233 283 315
#     4   9  19  32  51  77 104 132 171 226 271 320
#     4  10  17  32  57  75 101 136 180 224 269 317
#     4  10  21  38  51  71 111 151 186 219 256 319
#     4  10  20  35  54  79 106 131 174 230 278 318
#
# _framework density 17.680382999999999
#
# number of rings (size 3 to 8) (size 9 to 14) (size 15 to 20)
#    0.000    2.167    1.667    3.500    0.000    2.000 
#    0.000    6.667    0.000    0.500    0.000    1.167 
#    0.000    0.000    0.000    9.333    0.000    0.000 
#
# Total GULP energy -594946.388331 kJ/mol
# GULP energy per Si atom -12394.716424 kJ/mol
# Density = 1.764014 g / cm^3
# Si number density = 17.680383 Si / 1000 Ang^3
#
#
#
# Elastic Constant Matrix: (Units=GPa)
#
#
# Indices 1 2 3 4 5 6 
#
# 1 87.4443 43.6919 22.4469 0.0000 0.0000 0.0000
# 2 43.6919 87.4497 22.4489 0.0000 0.0000 0.0000
# 3 22.4469 22.4489 80.9744 0.0000 0.0000 0.0000
# 4 0.0000 0.0000 0.0000 17.3427 0.0000 0.0000
# 5 0.0000 0.0000 0.0000 0.0000 17.3435 0.0000
# 6 0.0000 0.0000 0.0000 0.0000 0.0000 26.4719
#
#
#
# Elastic Compliance Matrix: (Units=1/GPa)
#
#
# Indices 1 2 3 4 5 6 
#
# 1 0.015640 -0.007215 -0.002335 0.000000 0.000000 0.000000
# 2 -0.007215 0.015639 -0.002336 0.000000 0.000000 0.000000
# 3 -0.002335 -0.002336 0.013645 0.000000 0.000000 0.000000
# 4 0.000000 0.000000 0.000000 0.057661 0.000000 0.000000
# 5 0.000000 0.000000 0.000000 0.000000 0.057659 0.000000
# 6 0.000000 0.000000 0.000000 0.000000 0.000000 0.037776
#
#
# Mechanical properties :
#
#
# Convention : Reuss Voigt Hill
#
# Bulk Modulus (GPa) = 47.27626 48.11599 47.69613
# Shear Modulus (GPa) = 21.84910 23.38366 22.61638
#
# Velocity S-wave (km/s) = 3.51918 3.64067 3.58044
# Velocity P-wave (km/s) = 6.58106 6.70418 6.64290
#
# Compressibility (1/GPa) = 0.02115226
#
# Stress axis : x y z
#
# Youngs Moduli (GPa) = 63.93779 63.94114 73.28932
#
# Poissons Ratio (x) = 0.46131 0.17116
# Poissons Ratio (y) = 0.46129 0.17119
# Poissons Ratio (z) = 0.14932 0.14935
#
# Static dielectric constant tensor:
#      x y z
#    x 3.320940 0.000000 0.000000 
#    y 0.000000 3.320950 0.000000 
#    z 0.000000 0.000000 3.320680 
# 
# 
# High freq. dielectric constant tensor:
#      x y z
#    x 1.665400 0.000000 0.000000 
#    y 0.000000 1.665400 0.000000 
#    z 0.000000 0.000000 1.682870 
# 
# From -- ./inp_files/3291.got.cif
#   From: 2010.03.12/outbox.cif.g09.slc.cpg/sg121_2_cif.got.tgz:3291.got - 2010.04.06 16:06:48.
