data_PCOD8311434
_publ_section_title
;
Structure prediction by ZEFSAII (Michael W. Deem and Ramdas Pophale) SiO2 
 PCOD8311434
Probable space group: I -4 2 M
;
_chemical_formula_sum "Si O2"
_cell_formula_units_Z 104
_cell_length_a 21.084761
_cell_length_b 21.084761
_cell_length_c 13.919538
_cell_angle_alpha 90.000000
_cell_angle_beta 90.000000
_cell_angle_gamma 90.000000
_cell_volume 6188.169288
_symmetry_space_group_name_H-M "I -4 2 M"
_symmetry_group_IT_number 121
_symmetry_cell_setting 'tetragonal'
loop_
_space_group_symop_operation_xyz
x,y,z
y,-x,-z
-x,-y,z
-y,x,-z
x,-y,-z
-x,y,-z
-y,-x,z
y,x,z
1/2+x,1/2+y,1/2+z
1/2+y,1/2-x,1/2-z
1/2-x,1/2-y,1/2+z
1/2-y,1/2+x,1/2-z
1/2+x,1/2-y,1/2-z
1/2-x,1/2+y,1/2-z
1/2-y,1/2-x,1/2+z
1/2+y,1/2+x,1/2+z
loop_
_atom_site_type_symbol
_atom_site_label
_atom_site_fract_x
_atom_site_fract_y
_atom_site_fract_z
Si Si1 0.874941 0.228083 0.063248
Si Si2 0.734684 0.630118 0.656474
Si Si3 0.551971 0.448030 0.121919
Si Si4 0.497041 0.317958 0.342420
Si Si5 0.838045 0.000000 0.500000
Si Si6 0.086162 0.191815 0.659282
Si Si7 0.324021 0.218656 0.255075
Si Si8 0.449065 0.550936 0.348141
O O1 0.836813 0.163188 0.086561
O O2 0.949443 0.213906 0.080334
O O3 0.849086 0.283225 0.134933
O O4 0.862516 0.251774 0.955935
O O5 0.671014 0.671014 0.680453
O O6 0.727344 0.556327 0.681952
O O7 0.795631 0.651966 0.719171
O O8 0.500000 0.500000 0.091086
O O9 0.619828 0.466111 0.080264
O O10 0.557790 0.442211 0.234704
O O11 0.459417 0.332618 0.244611
O O12 0.527759 0.381442 0.389333
O O13 0.794960 0.950535 0.559321
O O14 0.136272 0.136272 0.640612
O O15 0.118055 0.258421 0.687775
O O16 0.268218 0.268218 0.242220
O O17 0.500000 0.500000 0.381409
#
# Coordination Sequence:
#
# PCOD8311434 Si02
#       8
#    16  16   8  16   8  16  16   8
#     4   9  18  33  52  67  92 130 163 196 241 290
#     4  10  19  33  49  69  94 121 167 209 243 276
#     4  11  18  24  36  57  89 131 175 203 232 272
#     4  11  19  30  45  69  95 130 165 203 236 280
#     4  12  17  26  40  62  92 128 171 206 238 288
#     4  10  19  31  46  65  95 135 167 199 247 296
#     4   8  17  34  50  64  86 125 165 201 244 290
#     4  11  20  28  40  61  95 141 175 203 236 273
#
# _framework density 16.806263000000001
#
# number of rings (size 3 to 8) (size 9 to 14) (size 15 to 20)
#    0.000    2.000    3.846    2.769    0.000    0.000 
#    2.769    0.000    0.000    0.000    0.000    0.000 
#    0.000    9.846    1.231    0.000    0.000    0.000 
#
# Total GULP energy -644620.148612 kJ/mol
# GULP energy per Si atom -12396.541319 kJ/mol
# Density = 1.676801 g / cm^3
# Si number density = 16.806263 Si / 1000 Ang^3
#
#
#
# Elastic Constant Matrix: (Units=GPa)
#
#
# Indices 1 2 3 4 5 6 
#
# 1 59.3244 34.7833 11.7368 0.0000 0.0000 0.0000
# 2 34.7833 59.3245 11.7366 0.0000 0.0000 0.0000
# 3 11.7368 11.7366 43.1598 0.0000 0.0000 0.0000
# 4 0.0000 0.0000 0.0000 -1.4538 0.0000 0.0000
# 5 0.0000 0.0000 0.0000 0.0000 -1.5629 0.0000
# 6 0.0000 0.0000 0.0000 0.0000 0.0000 25.5356
#
#
#
# Elastic Compliance Matrix: (Units=1/GPa)
#
#
# Indices 1 2 3 4 5 6 
#
# 1 0.026074 -0.014674 -0.003100 0.000000 0.000000 0.000000
# 2 -0.014674 0.026074 -0.003100 0.000000 0.000000 0.000000
# 3 -0.003100 -0.003100 0.024856 0.000000 0.000000 0.000000
# 4 0.000000 0.000000 0.000000 -0.687855 0.000000 0.000000
# 5 0.000000 0.000000 0.000000 0.000000 -0.639841 0.000000
# 6 0.000000 0.000000 0.000000 0.000000 0.000000 0.039161
#
#
# Mechanical properties :
#
#
# Convention : Reuss Voigt Hill
#
# Bulk Modulus (GPa) = 28.36499 30.92470 29.64484
# Shear Modulus (GPa) = -4.31767 11.40724 3.54479
#
# Velocity S-wave (km/s) = -1.60457 2.60811 1.45389
# Velocity P-wave (km/s) = 3.67170 5.24502 4.52723
#
# Compressibility (1/GPa) = 0.03525473
#
# Stress axis : x y z
#
# Youngs Moduli (GPa) = 38.35281 38.35298 40.23227
#
# Poissons Ratio (x) = 0.56280 0.12472
# Poissons Ratio (y) = 0.56280 0.12471
# Poissons Ratio (z) = 0.11889 0.11889
#
# Static dielectric constant tensor:
#      x y z
#    x 3.812920 0.000000 0.000000 
#    y 0.000000 3.816750 0.000000 
#    z 0.000000 0.000000 3.209530 
# 
# 
# High freq. dielectric constant tensor:
#      x y z
#    x 1.613700 0.000000 0.000000 
#    y 0.000000 1.613700 0.000000 
#    z 0.000000 0.000000 1.657990 
# 
# From -- ./inp_files/4602.got.cif
#   From: 2010.03.12/outbox.cif.g09.slc.cpg/sg121_3_cif.got.tgz:4602.got - 2010.04.06 16:06:48.
