data_PCOD8311533
_publ_section_title
;
Structure prediction by ZEFSAII (Michael W. Deem and Ramdas Pophale) SiO2 
 PCOD8311533
Probable space group: I -4 2 M
;
_chemical_formula_sum "Si O2"
_cell_formula_units_Z 80
_cell_length_a 11.208654
_cell_length_b 11.208654
_cell_length_c 30.745043
_cell_angle_alpha 90.000000
_cell_angle_beta 90.000000
_cell_angle_gamma 90.000000
_cell_volume 3862.620411
_symmetry_space_group_name_H-M "I -4 2 M"
_symmetry_group_IT_number 121
_symmetry_cell_setting 'tetragonal'
loop_
_space_group_symop_operation_xyz
x,y,z
y,-x,-z
-x,-y,z
-y,x,-z
x,-y,-z
-x,y,-z
-y,-x,z
y,x,z
1/2+x,1/2+y,1/2+z
1/2+y,1/2-x,1/2-z
1/2-x,1/2-y,1/2+z
1/2-y,1/2+x,1/2-z
1/2+x,1/2-y,1/2-z
1/2-x,1/2+y,1/2-z
1/2-y,1/2-x,1/2+z
1/2+y,1/2+x,1/2+z
loop_
_atom_site_type_symbol
_atom_site_label
_atom_site_fract_x
_atom_site_fract_y
_atom_site_fract_z
Si Si1 0.488054 0.139166 0.188537
Si Si2 0.661133 0.855179 0.388519
Si Si3 0.002607 0.189647 0.234590
Si Si4 0.425834 0.236014 0.643538
Si Si5 0.004734 0.193119 0.549843
O O1 0.597094 0.190159 0.159938
O O2 0.487706 0.193555 0.236445
O O3 0.365366 0.163351 0.162053
O O4 0.500000 0.000000 0.194677
O O5 0.740283 0.740283 0.399457
O O6 0.520556 0.816238 0.392032
O O7 0.692293 0.965508 0.421299
O O8 0.131272 0.131272 0.244230
O O9 0.992373 0.218520 0.183637
O O10 0.899336 0.100665 0.248554
O O11 0.344391 0.344391 0.624331
O O12 0.911027 0.088974 0.558859
O O13 0.000000 0.234894 0.500000
O O14 0.137032 0.137032 0.560865
#
# Coordination Sequence:
#
# PCOD8311533 Si02
#       5
#    16  16  16  16  16
#     4  10  22  34  51  74 104 140 183 236 291 335
#     4  10  20  34  56  83 112 147 188 230 280 344
#     4  10  21  36  53  72  96 135 188 240 284 324
#     4  10  22  36  51  73 108 154 197 234 279 333
#     4   8  15  30  54  86 121 149 175 221 291 360
#
# _framework density 20.711328000000002
#
# number of rings (size 3 to 8) (size 9 to 14) (size 15 to 20)
#    0.000    2.400    0.000    2.400    5.600    2.800 
#    0.000    2.000    0.000    5.400    0.000    0.000 
#    0.000    8.000    0.000   28.000    0.000    0.400 
#
# Total GULP energy -495677.284651 kJ/mol
# GULP energy per Si atom -12391.932116 kJ/mol
# Density = 2.066419 g / cm^3
# Si number density = 20.711328 Si / 1000 Ang^3
#
#
#
# Elastic Constant Matrix: (Units=GPa)
#
#
# Indices 1 2 3 4 5 6 
#
# 1 91.3728 44.8665 38.8432 0.0000 0.0000 0.0000
# 2 44.8665 91.3729 38.8429 0.0000 0.0000 0.0000
# 3 38.8432 38.8429 60.3109 0.0000 0.0000 0.0000
# 4 0.0000 0.0000 0.0000 25.2666 0.0000 0.0000
# 5 0.0000 0.0000 0.0000 0.0000 25.2666 0.0000
# 6 0.0000 0.0000 0.0000 0.0000 0.0000 34.6598
#
#
#
# Elastic Compliance Matrix: (Units=1/GPa)
#
#
# Indices 1 2 3 4 5 6 
#
# 1 0.016551 -0.004951 -0.007471 0.000000 0.000000 0.000000
# 2 -0.004951 0.016551 -0.007471 0.000000 0.000000 0.000000
# 3 -0.007471 -0.007471 0.026204 0.000000 0.000000 0.000000
# 4 0.000000 0.000000 0.000000 0.039578 0.000000 0.000000
# 5 0.000000 0.000000 0.000000 0.000000 0.039578 0.000000
# 6 0.000000 0.000000 0.000000 0.000000 0.000000 0.028852
#
#
# Mechanical properties :
#
#
# Convention : Reuss Voigt Hill
#
# Bulk Modulus (GPa) = 51.22875 54.24019 52.73447
# Shear Modulus (GPa) = 23.40739 25.07220 24.23979
#
# Velocity S-wave (km/s) = 3.36545 3.48308 3.42477
# Velocity P-wave (km/s) = 6.31586 6.51316 6.41527
#
# Compressibility (1/GPa) = 0.01952029
#
# Stress axis : x y z
#
# Youngs Moduli (GPa) = 60.41803 60.41846 38.16186
#
# Poissons Ratio (x) = 0.29914 0.28511
# Poissons Ratio (y) = 0.29914 0.28511
# Poissons Ratio (z) = 0.45139 0.45138
#
# Static dielectric constant tensor:
#      x y z
#    x 3.976170 0.000000 0.000000 
#    y 0.000000 3.976170 0.000000 
#    z 0.000000 0.000000 3.518770 
# 
# 
# High freq. dielectric constant tensor:
#      x y z
#    x 1.810440 0.000000 0.000000 
#    y 0.000000 1.810440 0.000000 
#    z 0.000000 0.000000 1.766310 
# 
# From -- ./inp_files/8052.got.cif
#   From: 2010.03.12/outbox.cif.g09.slc.cpg/sg121_5_cif.got.tgz:8052.got - 2010.04.06 16:06:48.
