data_PCOD8311270
_publ_section_title
;
Structure prediction by ZEFSAII (Michael W. Deem and Ramdas Pophale) SiO2 
 PCOD8311270
Probable space group: I -4 C 2
;
_chemical_formula_sum "Si O2"
_cell_formula_units_Z 60
_cell_length_a 13.709446
_cell_length_b 13.709446
_cell_length_c 14.843223
_cell_angle_alpha 90.000000
_cell_angle_beta 90.000000
_cell_angle_gamma 90.000000
_cell_volume 2789.767578
_symmetry_space_group_name_H-M "I -4 C 2"
_symmetry_group_IT_number 120
_symmetry_cell_setting 'tetragonal'
loop_
_space_group_symop_operation_xyz
x,y,z
y,-x,-z
-x,-y,z
-y,x,-z
y,x,1/2-z
-y,-x,1/2-z
-x,y,1/2+z
x,-y,1/2+z
1/2+x,1/2+y,1/2+z
1/2+y,1/2-x,1/2-z
1/2-x,1/2-y,1/2+z
1/2-y,1/2+x,1/2-z
1/2+y,1/2+x,-z
1/2-y,1/2-x,-z
1/2-x,1/2+y,z
1/2+x,1/2-y,z
loop_
_atom_site_type_symbol
_atom_site_label
_atom_site_fract_x
_atom_site_fract_y
_atom_site_fract_z
Si Si1 0.339333 0.839333 0.500000
Si Si2 0.757034 0.712591 0.847701
Si Si3 0.014092 0.770510 0.558487
Si Si4 0.859777 0.915300 0.622338
Si Si5 0.500000 0.500000 0.250000
O O1 0.311896 0.771461 0.415582
O O2 0.452845 0.822206 0.521785
O O3 0.707466 0.707466 0.750000
O O4 0.771942 0.604191 0.885810
O O5 0.864139 0.762192 0.839159
O O6 0.046290 0.840107 0.477007
O O7 0.945675 0.834868 0.622402
O O8 0.901386 0.000486 0.687857
#
# Coordination Sequence:
#
# PCOD8311270 Si02
#       5
#     8  16  16  16   4
#     4  10  24  44  63 101 138 196 250 292 382 442
#     4  11  22  43  66  99 148 188 233 308 371 434
#     4  11  21  43  67  93 145 191 233 299 372 435
#     4  11  23  39  63 105 135 180 234 301 367 418
#     4  12  24  34  64 108 134 164 246 294 358 452
#
# _framework density 21.507169000000001
#
# number of rings (size 3 to 8) (size 9 to 14) (size 15 to 20)
#    0.000    1.067    6.667    1.600    1.867    0.000 
#    0.000    2.667    0.000    0.000    0.000    0.000 
#    0.000    0.000    0.000    0.000    0.000    0.000 
#
# Total GULP energy -371996.233999 kJ/mol
# GULP energy per Si atom -12399.874467 kJ/mol
# Density = 2.145822 g / cm^3
# Si number density = 21.507169 Si / 1000 Ang^3
#
#
#
# Elastic Constant Matrix: (Units=GPa)
#
#
# Indices 1 2 3 4 5 6 
#
# 1 128.6845 71.8924 50.2913 0.0000 0.0000 0.0000
# 2 71.8924 128.6845 50.2912 0.0000 0.0000 0.0000
# 3 50.2913 50.2912 147.1242 0.0000 0.0000 0.0000
# 4 0.0000 0.0000 0.0000 28.2313 0.0000 0.0000
# 5 0.0000 0.0000 0.0000 0.0000 28.2313 0.0000
# 6 0.0000 0.0000 0.0000 0.0000 0.0000 42.6911
#
#
#
# Elastic Compliance Matrix: (Units=1/GPa)
#
#
# Indices 1 2 3 4 5 6 
#
# 1 0.011813 -0.005796 -0.002057 0.000000 0.000000 0.000000
# 2 -0.005796 0.011813 -0.002057 0.000000 0.000000 0.000000
# 3 -0.002057 -0.002057 0.008203 0.000000 0.000000 0.000000
# 4 0.000000 0.000000 0.000000 0.035422 0.000000 0.000000
# 5 0.000000 0.000000 0.000000 0.000000 0.035422 0.000000
# 6 0.000000 0.000000 0.000000 0.000000 0.000000 0.023424
#
#
# Mechanical properties :
#
#
# Convention : Reuss Voigt Hill
#
# Bulk Modulus (GPa) = 83.26387 83.27143 83.26765
# Shear Modulus (GPa) = 33.35175 35.29863 34.32519
#
# Velocity S-wave (km/s) = 3.94220 4.05563 3.99932
# Velocity P-wave (km/s) = 7.71491 7.79313 7.75412
#
# Compressibility (1/GPa) = 0.01201001
#
# Stress axis : x y z
#
# Youngs Moduli (GPa) = 84.65568 84.65568 121.90486
#
# Poissons Ratio (x) = 0.49062 0.25073
# Poissons Ratio (y) = 0.49062 0.25073
# Poissons Ratio (z) = 0.17412 0.17412
#
# Static dielectric constant tensor:
#      x y z
#    x 3.963830 0.000000 0.000000 
#    y 0.000000 3.963830 0.000000 
#    z 0.000000 0.000000 4.008560 
# 
# 
# High freq. dielectric constant tensor:
#      x y z
#    x 1.830670 0.000000 0.000000 
#    y 0.000000 1.830670 0.000000 
#    z 0.000000 0.000000 1.857240 
# 
# From -- ./inp_files/3324.got.cif
#   From: 2010.03.12/outbox.cif.g09.slc.cpg/sg120_2_cif.got.tgz:3324.got - 2010.04.06 16:00:44.
