data_PCOD8311419
_publ_section_title
;
Structure prediction by ZEFSAII (Michael W. Deem and Ramdas Pophale) SiO2 
 PCOD8311419
Probable space group: I -4 2 M
;
_chemical_formula_sum "Si O2"
_cell_formula_units_Z 96
_cell_length_a 26.945077
_cell_length_b 26.945077
_cell_length_c 9.506705
_cell_angle_alpha 90.000000
_cell_angle_beta 90.000000
_cell_angle_gamma 90.000000
_cell_volume 6902.221237
_symmetry_space_group_name_H-M "I -4 2 M"
_symmetry_group_IT_number 121
_symmetry_cell_setting 'tetragonal'
loop_
_space_group_symop_operation_xyz
x,y,z
y,-x,-z
-x,-y,z
-y,x,-z
x,-y,-z
-x,y,-z
-y,-x,z
y,x,z
1/2+x,1/2+y,1/2+z
1/2+y,1/2-x,1/2-z
1/2-x,1/2-y,1/2+z
1/2-y,1/2+x,1/2-z
1/2+x,1/2-y,1/2-z
1/2-x,1/2+y,1/2-z
1/2-y,1/2-x,1/2+z
1/2+y,1/2+x,1/2+z
loop_
_atom_site_type_symbol
_atom_site_label
_atom_site_fract_x
_atom_site_fract_y
_atom_site_fract_z
Si Si1 0.612562 0.693761 0.358067
Si Si2 0.173535 0.256505 0.360266
Si Si3 0.393464 0.312236 0.684721
Si Si4 0.078679 0.003017 0.351877
Si Si5 0.320394 0.237713 0.177575
Si Si6 0.164632 0.995225 0.161889
O O1 0.641641 0.641641 0.326582
O O2 0.615813 0.705260 0.524499
O O3 0.636424 0.738201 0.270671
O O4 0.554952 0.695447 0.307924
O O5 0.219606 0.219606 0.367482
O O6 0.126523 0.229204 0.291470
O O7 0.188170 0.302862 0.260004
O O8 0.160500 0.274845 0.519171
O O9 0.364902 0.364902 0.709636
O O10 0.452417 0.314552 0.720951
O O11 0.058650 0.058650 0.321160
O O12 0.111352 0.984432 0.225254
O O13 0.108975 0.000000 0.500000
O O14 0.032689 0.967312 0.370421
O O15 0.274587 0.274587 0.163995
O O16 0.154814 0.000000 0.000000
#
# Coordination Sequence:
#
# PCOD8311419 Si02
#       6
#    16  16  16  16  16  16
#     4   9  17  28  40  55  76 100 127 160 196 232
#     4   9  16  26  41  59  76  94 118 150 189 231
#     4   9  17  28  40  55  76 100 127 160 196 232
#     4   9  18  30  40  50  66  90 122 162 205 241
#     4   9  16  26  41  59  76  94 118 150 189 231
#     4  10  19  29  41  56  74  98 128 161 195 230
#
# _framework density 13.908566
#
# number of rings (size 3 to 8) (size 9 to 14) (size 15 to 20)
#    0.000    2.833    0.000    2.500    0.000    7.333 
#    0.000    4.167    0.000    0.000    0.000    0.000 
#    0.000    0.000    0.000    0.000    0.000    0.833 
#
# Total GULP energy -594629.156371 kJ/mol
# GULP energy per Si atom -12388.107424 kJ/mol
# Density = 1.387691 g / cm^3
# Si number density = 13.908566 Si / 1000 Ang^3
#
#
#
# Elastic Constant Matrix: (Units=GPa)
#
#
# Indices 1 2 3 4 5 6 
#
# 1 51.9545 33.8295 39.0328 0.0000 0.0000 0.0000
# 2 33.8295 51.9541 39.0328 0.0000 0.0000 0.0000
# 3 39.0328 39.0328 59.4134 0.0000 0.0000 0.0000
# 4 0.0000 0.0000 0.0000 17.9686 0.0000 0.0000
# 5 0.0000 0.0000 0.0000 0.0000 17.9684 0.0000
# 6 0.0000 0.0000 0.0000 0.0000 0.0000 9.3782
#
#
#
# Elastic Compliance Matrix: (Units=1/GPa)
#
#
# Indices 1 2 3 4 5 6 
#
# 1 0.042080 -0.013092 -0.019044 0.000000 0.000000 0.000000
# 2 -0.013092 0.042081 -0.019044 0.000000 0.000000 0.000000
# 3 -0.019044 -0.019044 0.041854 0.000000 0.000000 0.000000
# 4 0.000000 0.000000 0.000000 0.055653 0.000000 0.000000
# 5 0.000000 0.000000 0.000000 0.000000 0.055653 0.000000
# 6 0.000000 0.000000 0.000000 0.000000 0.000000 0.106630
#
#
# Mechanical properties :
#
#
# Convention : Reuss Voigt Hill
#
# Bulk Modulus (GPa) = 42.27749 43.01245 42.64497
# Shear Modulus (GPa) = 11.00842 12.49151 11.74996
#
# Velocity S-wave (km/s) = 2.81639 3.00011 2.90970
# Velocity P-wave (km/s) = 6.40615 6.55692 6.48197
#
# Compressibility (1/GPa) = 0.02365325
#
# Stress axis : x y z
#
# Youngs Moduli (GPa) = 23.76413 23.76382 23.89244
#
# Poissons Ratio (x) = 0.31113 0.45501
# Poissons Ratio (y) = 0.31113 0.45502
# Poissons Ratio (z) = 0.45257 0.45257
#
# Static dielectric constant tensor:
#      x y z
#    x 2.645130 0.000000 0.000000 
#    y 0.000000 2.645140 0.000000 
#    z 0.000000 0.000000 2.981520 
# 
# 
# High freq. dielectric constant tensor:
#      x y z
#    x 1.495360 0.000000 0.000000 
#    y 0.000000 1.495360 0.000000 
#    z 0.000000 0.000000 1.548500 
# 
# From -- ./inp_files/2051.got.cif
#   From: 2010.03.12/outbox.cif.g09.slc.cpg/sg121_2_cif.got.tgz:2051.got - 2010.04.06 16:06:48.
