data_PCOD8311931
_publ_section_title
;
Structure prediction by ZEFSAII (Michael W. Deem and Ramdas Pophale) SiO2 
 PCOD8311931
Probable space group: I -4 2 D
;
_chemical_formula_sum "Si O2"
_cell_formula_units_Z 88
_cell_length_a 12.161243
_cell_length_b 12.161243
_cell_length_c 29.816583
_cell_angle_alpha 90.000000
_cell_angle_beta 90.000000
_cell_angle_gamma 90.000000
_cell_volume 4409.748329
_symmetry_space_group_name_H-M "I -4 2 D"
_symmetry_group_IT_number 122
_symmetry_cell_setting 'tetragonal'
loop_
_space_group_symop_operation_xyz
x,y,z
y,-x,-z
-x,-y,z
-y,x,-z
x,1/2-y,1/4-z
-x,1/2+y,1/4-z
-y,1/2-x,1/4+z
y,1/2+x,1/4+z
1/2+x,1/2+y,1/2+z
1/2+y,1/2-x,1/2-z
1/2-x,1/2-y,1/2+z
1/2-y,1/2+x,1/2-z
1/2+x,-y,3/4-z
1/2-x,y,3/4-z
1/2-y,-x,3/4+z
1/2+y,x,3/4+z
loop_
_atom_site_type_symbol
_atom_site_label
_atom_site_fract_x
_atom_site_fract_y
_atom_site_fract_z
Si Si1 0.366206 0.812965 0.899043
Si Si2 0.000000 0.000000 0.895346
Si Si3 0.962531 0.733386 0.700639
Si Si4 0.753695 0.817134 0.247866
Si Si5 0.104595 0.114768 0.975622
Si Si6 0.091738 0.919130 0.371494
O O1 0.250000 0.806784 0.875000
O O2 0.429834 0.922800 0.886873
O O3 0.342924 0.816060 0.951871
O O4 0.439607 0.706306 0.884903
O O5 0.084171 0.072802 0.925037
O O6 0.875972 0.705576 0.740174
O O7 0.906943 0.825065 0.669642
O O8 0.980449 0.632133 0.666741
O O9 0.078612 0.769011 0.720200
O O10 0.809239 0.714106 0.273187
O O11 0.986329 0.152745 0.995193
O O12 0.000000 0.000000 0.352209
#
# Coordination Sequence:
#
# PCOD8311931 Si02
#       6
#    16   8  16  16  16  16
#     4  11  21  45  64  88 133 170 207 258 331 381
#     4  10  23  40  66  94 118 176 206 256 322 381
#     4  10  24  40  63  94 126 168 208 261 321 366
#     4  11  23  41  63  96 128 163 214 264 312 379
#     4   9  20  39  65  88 122 165 208 258 320 371
#     4  10  22  42  67  89 125 175 211 254 321 391
#
# _framework density 19.955787999999998
#
# number of rings (size 3 to 8) (size 9 to 14) (size 15 to 20)
#    0.000    2.000    3.636    2.182    7.636    0.000 
#    8.182    0.000    0.000    0.000    0.000    0.000 
#    0.000    0.000    0.000    0.000    0.000    0.000 
#
# Total GULP energy -545458.831619 kJ/mol
# GULP energy per Si atom -12396.791628 kJ/mol
# Density = 1.991037 g / cm^3
# Si number density = 19.955788 Si / 1000 Ang^3
#
#
#
# Elastic Constant Matrix: (Units=GPa)
#
#
# Indices 1 2 3 4 5 6 
#
# 1 94.0145 45.9705 28.1890 0.0000 0.0000 0.0000
# 2 45.9705 94.0145 28.1890 0.0000 0.0000 0.0000
# 3 28.1890 28.1890 70.3871 0.0000 0.0000 0.0000
# 4 0.0000 0.0000 0.0000 14.8097 0.0000 0.0000
# 5 0.0000 0.0000 0.0000 0.0000 14.8097 0.0000
# 6 0.0000 0.0000 0.0000 0.0000 0.0000 38.2127
#
#
#
# Elastic Compliance Matrix: (Units=1/GPa)
#
#
# Indices 1 2 3 4 5 6 
#
# 1 0.014666 -0.006148 -0.003411 0.000000 0.000000 0.000000
# 2 -0.006148 0.014666 -0.003411 0.000000 0.000000 0.000000
# 3 -0.003411 -0.003411 0.016939 0.000000 0.000000 0.000000
# 4 0.000000 0.000000 0.000000 0.067523 0.000000 0.000000
# 5 0.000000 0.000000 0.000000 0.000000 0.067523 0.000000
# 6 0.000000 0.000000 0.000000 0.000000 0.000000 0.026169
#
#
# Mechanical properties :
#
#
# Convention : Reuss Voigt Hill
#
# Bulk Modulus (GPa) = 49.18891 51.45698 50.32294
# Shear Modulus (GPa) = 20.81557 23.97092 22.39324
#
# Velocity S-wave (km/s) = 3.23319 3.46960 3.35347
# Velocity P-wave (km/s) = 6.21614 6.47242 6.34558
#
# Compressibility (1/GPa) = 0.02032979
#
# Stress axis : x y z
#
# Youngs Moduli (GPa) = 68.18565 68.18565 59.03419
#
# Poissons Ratio (x) = 0.41923 0.20137
# Poissons Ratio (y) = 0.41923 0.20137
# Poissons Ratio (z) = 0.23259 0.23259
#
# Static dielectric constant tensor:
#      x y z
#    x 3.619540 0.000000 0.000000 
#    y 0.000000 3.619540 0.000000 
#    z 0.000000 0.000000 3.672180 
# 
# 
# High freq. dielectric constant tensor:
#      x y z
#    x 1.771530 0.000000 0.000000 
#    y 0.000000 1.771530 0.000000 
#    z 0.000000 0.000000 1.778040 
# 
# From -- ./inp_files/9526.got.cif
#   From: 2010.03.12/outbox.cif.g09.slc.cpg/sg122_5_cif.got.tgz:9526.got - 2010.04.06 16:17:16.
