data_PCOD8311068
_publ_section_title
;
Structure prediction by ZEFSAII (Michael W. Deem and Ramdas Pophale) SiO2 
 PCOD8311068
Probable space group: I -4 M 2
;
_chemical_formula_sum "Si O2"
_cell_formula_units_Z 64
_cell_length_a 18.018566
_cell_length_b 18.018566
_cell_length_c 10.238779
_cell_angle_alpha 90.000000
_cell_angle_beta 90.000000
_cell_angle_gamma 90.000000
_cell_volume 3324.211279
_symmetry_space_group_name_H-M "I -4 M 2"
_symmetry_group_IT_number 119
_symmetry_cell_setting 'tetragonal'
loop_
_space_group_symop_operation_xyz
x,y,z
y,-x,-z
-x,-y,z
-y,x,-z
y,x,-z
-y,-x,-z
-x,y,z
x,-y,z
1/2+x,1/2+y,1/2+z
1/2+y,1/2-x,1/2-z
1/2-x,1/2-y,1/2+z
1/2-y,1/2+x,1/2-z
1/2+y,1/2+x,1/2-z
1/2-y,1/2-x,1/2-z
1/2-x,1/2+y,1/2+z
1/2+x,1/2-y,1/2+z
loop_
_atom_site_type_symbol
_atom_site_label
_atom_site_fract_x
_atom_site_fract_y
_atom_site_fract_z
Si Si1 0.824832 0.329413 0.891305
Si Si2 0.413151 0.674828 0.101275
Si Si3 0.587074 0.177758 0.646454
Si Si4 0.658035 0.332110 0.640740
O O1 0.856498 0.356498 0.750000
O O2 0.751363 0.372692 0.934720
O O3 0.804477 0.242779 0.874613
O O4 0.886986 0.342750 0.000182
O O5 0.500000 0.687233 0.088910
O O6 0.394331 0.649196 0.248677
O O7 0.388116 0.611885 0.000000
O O8 0.500000 0.167469 0.653951
O O9 0.622713 0.122713 0.750000
O O10 0.608375 0.262064 0.681519
O O11 0.633519 0.366482 0.500000
#
# Coordination Sequence:
#
# PCOD8311068 Si02
#       4
#    16  16  16  16
#     4   9  19  37  60  84 108 135 179 233 277 320
#     4  11  22  36  56  82 112 146 182 221 268 322
#     4  11  22  36  56  82 112 146 182 221 268 322
#     4   9  19  37  60  84 108 135 179 233 277 320
#
# _framework density 19.252687000000002
#
# number of rings (size 3 to 8) (size 9 to 14) (size 15 to 20)
#    0.000    2.000    0.000    6.000    0.000   13.500 
#    0.000    0.000    0.000    0.000    0.000   10.500 
#    0.000    0.000    0.000    0.000    0.000    0.000 
#
# Total GULP energy -396805.396815 kJ/mol
# GULP energy per Si atom -12400.168650 kJ/mol
# Density = 1.920887 g / cm^3
# Si number density = 19.252687 Si / 1000 Ang^3
#
#
#
# Elastic Constant Matrix: (Units=GPa)
#
#
# Indices 1 2 3 4 5 6 
#
# 1 35.8307 30.8497 33.5584 0.0000 0.0000 0.0000
# 2 30.8497 35.8203 33.5654 0.0000 0.0000 0.0000
# 3 33.5584 33.5654 111.0242 0.0000 0.0000 0.0000
# 4 0.0000 0.0000 0.0000 12.1962 0.0000 0.0000
# 5 0.0000 0.0000 0.0000 0.0000 12.1957 0.0000
# 6 0.0000 0.0000 0.0000 0.0000 0.0000 2.9472
#
#
#
# Elastic Compliance Matrix: (Units=1/GPa)
#
#
# Indices 1 2 3 4 5 6 
#
# 1 0.111234 -0.089706 -0.006501 0.000000 0.000000 0.000000
# 2 -0.089706 0.111297 -0.006533 0.000000 0.000000 0.000000
# 3 -0.006501 -0.006533 0.012947 0.000000 0.000000 0.000000
# 4 0.000000 0.000000 0.000000 0.081993 0.000000 0.000000
# 5 0.000000 0.000000 0.000000 0.000000 0.081996 0.000000
# 6 0.000000 0.000000 0.000000 0.000000 0.000000 0.339308
#
#
# Mechanical properties :
#
#
# Convention : Reuss Voigt Hill
#
# Bulk Modulus (GPa) = 33.33694 42.06915 37.70305
# Shear Modulus (GPa) = 5.23968 11.11458 8.17713
#
# Velocity S-wave (km/s) = 1.65150 2.40531 2.06313
# Velocity P-wave (km/s) = 4.58145 5.44174 5.03002
#
# Compressibility (1/GPa) = 0.02999675
#
# Stress axis : x y z
#
# Youngs Moduli (GPa) = 8.99006 8.98495 77.23640
#
# Poissons Ratio (x) = 0.80601 0.50214
# Poissons Ratio (y) = 0.80647 0.50459
# Poissons Ratio (z) = 0.05845 0.05870
#
# Static dielectric constant tensor:
#      x y z
#    x 3.228980 0.000000 0.000000 
#    y 0.000000 3.228980 0.000000 
#    z 0.000000 0.000000 4.643620 
# 
# 
# High freq. dielectric constant tensor:
#      x y z
#    x 1.723030 0.000000 0.000000 
#    y 0.000000 1.723030 0.000000 
#    z 0.000000 0.000000 1.779290 
# 
# From -- ./inp_files/3717.got.cif
#   From: 2010.03.12/outbox.cif.g09.slc.cpg/sg119_2_cif.got.tgz:3717.got - 2010.04.14 02:25:26.
