data_PCOD8311770
_publ_section_title
;
Structure prediction by ZEFSAII (Michael W. Deem and Ramdas Pophale) SiO2 
 PCOD8311770
Probable space group: I -4 2 D
;
_chemical_formula_sum "Si O2"
_cell_formula_units_Z 80
_cell_length_a 17.244134
_cell_length_b 17.244134
_cell_length_c 14.082524
_cell_angle_alpha 90.000000
_cell_angle_beta 90.000000
_cell_angle_gamma 90.000000
_cell_volume 4187.581553
_symmetry_space_group_name_H-M "I -4 2 D"
_symmetry_group_IT_number 122
_symmetry_cell_setting 'tetragonal'
loop_
_space_group_symop_operation_xyz
x,y,z
y,-x,-z
-x,-y,z
-y,x,-z
x,1/2-y,1/4-z
-x,1/2+y,1/4-z
-y,1/2-x,1/4+z
y,1/2+x,1/4+z
1/2+x,1/2+y,1/2+z
1/2+y,1/2-x,1/2-z
1/2-x,1/2-y,1/2+z
1/2-y,1/2+x,1/2-z
1/2+x,-y,3/4-z
1/2-x,y,3/4-z
1/2-y,-x,3/4+z
1/2+y,x,3/4+z
loop_
_atom_site_type_symbol
_atom_site_label
_atom_site_fract_x
_atom_site_fract_y
_atom_site_fract_z
Si Si1 0.218083 0.840422 0.100491
Si Si2 0.786654 0.590021 0.773985
Si Si3 0.714340 0.410447 0.975858
Si Si4 0.342972 0.175844 0.567949
Si Si5 0.418087 0.405876 0.518825
O O1 0.225701 0.750000 0.125000
O O2 0.220320 0.890146 0.196618
O O3 0.289840 0.869718 0.033805
O O4 0.136325 0.857147 0.050245
O O5 0.750000 0.614050 0.875000
O O6 0.807651 0.500278 0.770887
O O7 0.864832 0.636434 0.752341
O O8 0.724673 0.612492 0.693157
O O9 0.750000 0.386404 0.875000
O O10 0.309420 0.250000 0.625000
O O11 0.411995 0.132545 0.625681
O O12 0.394629 0.495726 0.521603
#
# Coordination Sequence:
#
# PCOD8311770 Si02
#       5
#    16  16  16  16  16
#     4  11  21  38  64  89 119 156 211 244 297 366
#     4  11  21  39  60  85 124 156 205 253 305 356
#     4  11  23  38  61  89 117 164 203 252 301 357
#     4  10  19  36  66  84 117 159 191 247 303 348
#     4  10  23  41  60  92 129 156 194 251 311 367
#
# _framework density 19.104105000000001
#
# number of rings (size 3 to 8) (size 9 to 14) (size 15 to 20)
#    0.000    1.400    4.000    1.800    2.800    2.800 
#    3.600    0.000    0.000    0.000    0.000    0.000 
#    0.000    0.000    0.000    0.000    0.000    0.000 
#
# Total GULP energy -495894.931033 kJ/mol
# GULP energy per Si atom -12397.373276 kJ/mol
# Density = 1.906062 g / cm^3
# Si number density = 19.104105 Si / 1000 Ang^3
#
#
#
# Elastic Constant Matrix: (Units=GPa)
#
#
# Indices 1 2 3 4 5 6 
#
# 1 101.6130 55.2106 52.9418 0.0000 0.0000 0.0000
# 2 55.2106 101.6130 52.9418 0.0000 0.0000 0.0000
# 3 52.9418 52.9418 127.5159 0.0000 0.0000 0.0000
# 4 0.0000 0.0000 0.0000 30.8621 0.0000 0.0000
# 5 0.0000 0.0000 0.0000 0.0000 30.8621 0.0000
# 6 0.0000 0.0000 0.0000 0.0000 0.0000 26.3615
#
#
#
# Elastic Compliance Matrix: (Units=1/GPa)
#
#
# Indices 1 2 3 4 5 6 
#
# 1 0.015205 -0.006345 -0.003679 0.000000 0.000000 0.000000
# 2 -0.006345 0.015205 -0.003679 0.000000 0.000000 0.000000
# 3 -0.003679 -0.003679 0.010897 0.000000 0.000000 0.000000
# 4 0.000000 0.000000 0.000000 0.032402 0.000000 0.000000
# 5 0.000000 0.000000 0.000000 0.000000 0.032402 0.000000
# 6 0.000000 0.000000 0.000000 0.000000 0.000000 0.037934
#
#
# Mechanical properties :
#
#
# Convention : Reuss Voigt Hill
#
# Bulk Modulus (GPa) = 71.92747 72.54782 72.23764
# Shear Modulus (GPa) = 28.39535 28.92698 28.66116
#
# Velocity S-wave (km/s) = 3.85950 3.89546 3.87752
# Velocity P-wave (km/s) = 7.58901 7.63481 7.61194
#
# Compressibility (1/GPa) = 0.01390289
#
# Stress axis : x y z
#
# Youngs Moduli (GPa) = 65.76589 65.76589 91.77083
#
# Poissons Ratio (x) = 0.41730 0.33759
# Poissons Ratio (y) = 0.41730 0.33759
# Poissons Ratio (z) = 0.24193 0.24193
#
# Static dielectric constant tensor:
#      x y z
#    x 3.401890 0.000000 0.000000 
#    y 0.000000 3.401890 0.000000 
#    z 0.000000 0.000000 3.890840 
# 
# 
# High freq. dielectric constant tensor:
#      x y z
#    x 1.735760 0.000000 0.000000 
#    y 0.000000 1.735760 0.000000 
#    z 0.000000 0.000000 1.756440 
# 
# From -- ./inp_files/5310.got.cif
#   From: 2010.03.12/outbox.cif.g09.slc.cpg/sg122_3_cif.got.tgz:5310.got - 2010.04.06 16:17:16.
