data_PCOD8311796
_publ_section_title
;
Structure prediction by ZEFSAII (Michael W. Deem and Ramdas Pophale) SiO2 
 PCOD8311796
Probable space group: I -4 2 D
;
_chemical_formula_sum "Si O2"
_cell_formula_units_Z 112
_cell_length_a 16.501685
_cell_length_b 16.501685
_cell_length_c 20.991485
_cell_angle_alpha 90.000000
_cell_angle_beta 90.000000
_cell_angle_gamma 90.000000
_cell_volume 5716.099082
_symmetry_space_group_name_H-M "I -4 2 D"
_symmetry_group_IT_number 122
_symmetry_cell_setting 'tetragonal'
loop_
_space_group_symop_operation_xyz
x,y,z
y,-x,-z
-x,-y,z
-y,x,-z
x,1/2-y,1/4-z
-x,1/2+y,1/4-z
-y,1/2-x,1/4+z
y,1/2+x,1/4+z
1/2+x,1/2+y,1/2+z
1/2+y,1/2-x,1/2-z
1/2-x,1/2-y,1/2+z
1/2-y,1/2+x,1/2-z
1/2+x,-y,3/4-z
1/2-x,y,3/4-z
1/2-y,-x,3/4+z
1/2+y,x,3/4+z
loop_
_atom_site_type_symbol
_atom_site_label
_atom_site_fract_x
_atom_site_fract_y
_atom_site_fract_z
Si Si1 0.584245 0.888101 0.408544
Si Si2 0.164348 0.413668 0.381076
Si Si3 0.982724 0.384856 0.717727
Si Si4 0.549029 0.424109 0.747624
Si Si5 0.472409 0.801012 0.000305
Si Si6 0.783436 0.027579 0.115441
Si Si7 0.132547 0.490271 0.256321
O O1 0.596460 0.954214 0.353692
O O2 0.494696 0.901055 0.436862
O O3 0.654206 0.897227 0.463474
O O4 0.581846 0.797886 0.379846
O O5 0.250000 0.366239 0.375000
O O6 0.151990 0.455624 0.449825
O O7 0.088903 0.356615 0.372178
O O8 0.169642 0.482651 0.326755
O O9 0.921473 0.427366 0.768903
O O10 0.985079 0.288233 0.722213
O O11 0.500000 0.500000 0.716209
O O12 0.642040 0.449056 0.763583
O O13 0.462361 0.790599 0.923393
O O14 0.795800 0.985338 0.046793
O O15 0.074491 0.414355 0.244017
#
# Coordination Sequence:
#
# PCOD8311796 Si02
#       7
#    16  16  16  16  16  16  16
#     4  11  22  40  64  90 121 167 206 258 317 382
#     4  10  20  34  54  87 115 156 198 248 303 369
#     4  11  24  40  63  89 120 157 209 262 313 374
#     4   9  21  35  62  87 117 156 205 249 300 374
#     4  10  22  38  60  90 117 158 205 254 311 369
#     4  10  21  39  55  87 123 156 198 262 307 369
#     4   9  19  32  58  83 114 154 201 250 306 370
#
# _framework density 19.593782999999998
#
# number of rings (size 3 to 8) (size 9 to 14) (size 15 to 20)
#    0.000    2.000    1.429    1.286   14.000    1.143 
#    0.000    0.000    0.000    0.000    0.000    0.000 
#    0.000    0.000    0.000    0.000    0.000    0.000 
#
# Total GULP energy -693842.535501 kJ/mol
# GULP energy per Si atom -12390.045277 kJ/mol
# Density = 1.954919 g / cm^3
# Si number density = 19.593783 Si / 1000 Ang^3
#
#
#
# Elastic Constant Matrix: (Units=GPa)
#
#
# Indices 1 2 3 4 5 6 
#
# 1 95.6638 12.6915 42.4348 0.0000 0.0000 0.0000
# 2 12.6915 95.6638 42.4348 0.0000 0.0000 0.0000
# 3 42.4348 42.4348 137.7624 0.0000 0.0000 0.0000
# 4 0.0000 0.0000 0.0000 29.9281 0.0000 0.0000
# 5 0.0000 0.0000 0.0000 0.0000 29.9281 0.0000
# 6 0.0000 0.0000 0.0000 0.0000 0.0000 10.6696
#
#
#
# Elastic Compliance Matrix: (Units=1/GPa)
#
#
# Indices 1 2 3 4 5 6 
#
# 1 0.012108 0.000056 -0.003747 0.000000 0.000000 0.000000
# 2 0.000056 0.012108 -0.003747 0.000000 0.000000 0.000000
# 3 -0.003747 -0.003747 0.009567 0.000000 0.000000 0.000000
# 4 0.000000 0.000000 0.000000 0.033413 0.000000 0.000000
# 5 0.000000 0.000000 0.000000 0.000000 0.033413 0.000000
# 6 0.000000 0.000000 0.000000 0.000000 0.000000 0.093724
#
#
# Mechanical properties :
#
#
# Convention : Reuss Voigt Hill
#
# Bulk Modulus (GPa) = 52.88979 58.24582 55.56781
# Shear Modulus (GPa) = 23.20057 29.54042 26.37049
#
# Velocity S-wave (km/s) = 3.44478 3.88705 3.67258
# Velocity P-wave (km/s) = 6.54780 7.06659 6.81214
#
# Compressibility (1/GPa) = 0.01890724
#
# Stress axis : x y z
#
# Youngs Moduli (GPa) = 82.59092 82.59092 104.52515
#
# Poissons Ratio (x) = -0.00460 0.39163
# Poissons Ratio (y) = -0.00460 0.39163
# Poissons Ratio (z) = 0.30945 0.30945
#
# Static dielectric constant tensor:
#      x y z
#    x 3.529070 0.000000 0.000000 
#    y 0.000000 3.529070 0.000000 
#    z 0.000000 0.000000 4.103870 
# 
# 
# High freq. dielectric constant tensor:
#      x y z
#    x 1.745740 0.000000 0.000000 
#    y 0.000000 1.745740 0.000000 
#    z 0.000000 0.000000 1.781320 
# 
# From -- ./inp_files/7448.got.cif
#   From: 2010.03.12/outbox.cif.g09.slc.cpg/sg122_4_cif.got.tgz:7448.got - 2010.04.06 16:17:16.
