data_PCOD8311797
_publ_section_title
;
Structure prediction by ZEFSAII (Michael W. Deem and Ramdas Pophale) SiO2 
 PCOD8311797
Probable space group: I -4 2 D
;
_chemical_formula_sum "Si O2"
_cell_formula_units_Z 120
_cell_length_a 26.680042
_cell_length_b 26.680042
_cell_length_c 9.249652
_cell_angle_alpha 90.000000
_cell_angle_beta 90.000000
_cell_angle_gamma 90.000000
_cell_volume 6584.130215
_symmetry_space_group_name_H-M "I -4 2 D"
_symmetry_group_IT_number 122
_symmetry_cell_setting 'tetragonal'
loop_
_space_group_symop_operation_xyz
x,y,z
y,-x,-z
-x,-y,z
-y,x,-z
x,1/2-y,1/4-z
-x,1/2+y,1/4-z
-y,1/2-x,1/4+z
y,1/2+x,1/4+z
1/2+x,1/2+y,1/2+z
1/2+y,1/2-x,1/2-z
1/2-x,1/2-y,1/2+z
1/2-y,1/2+x,1/2-z
1/2+x,-y,3/4-z
1/2-x,y,3/4-z
1/2-y,-x,3/4+z
1/2+y,x,3/4+z
loop_
_atom_site_type_symbol
_atom_site_label
_atom_site_fract_x
_atom_site_fract_y
_atom_site_fract_z
Si Si1 0.646457 0.750000 0.125000
Si Si2 0.661787 0.409882 0.012450
Si Si3 0.081505 0.632911 0.526203
Si Si4 0.119409 0.402869 0.493579
Si Si5 0.757604 0.902961 0.213845
Si Si6 0.834271 0.208363 0.238587
Si Si7 0.024873 0.668555 0.798936
Si Si8 0.446236 0.938467 0.766852
O O1 0.613504 0.716246 0.016540
O O2 0.681094 0.716986 0.226662
O O3 0.630843 0.408400 0.863330
O O4 0.633136 0.380325 0.140398
O O5 0.670706 0.465843 0.065446
O O6 0.087736 0.683642 0.431257
O O7 0.039005 0.642522 0.646724
O O8 0.064295 0.588488 0.419910
O O9 0.168310 0.374764 0.430762
O O10 0.135384 0.454901 0.568188
O O11 0.083203 0.411575 0.359440
O O12 0.750000 0.884174 0.375000
O O13 0.725085 0.953473 0.188782
O O14 0.736091 0.856722 0.126368
O O15 0.820878 0.250000 0.125000
O O16 0.503528 0.931842 0.717542
#
# Coordination Sequence:
#
# PCOD8311797 Si02
#       8
#     8  16  16  16  16  16  16  16
#     4  10  22  32  52  84 108 138 172 228 282 320
#     4  10  20  35  54  79 112 137 175 230 279 317
#     4  10  20  34  55  81 105 142 184 227 269 320
#     4   9  19  36  53  77 106 139 179 218 267 318
#     4   9  18  33  57  80 100 135 190 220 254 323
#     4  10  20  36  55  75 103 142 175 215 264 324
#     4   9  18  33  56  79 102 139 181 225 266 322
#     4  11  22  35  53  79 110 145 180 217 270 329
#
# _framework density 18.225642000000001
#
# number of rings (size 3 to 8) (size 9 to 14) (size 15 to 20)
#    0.000    2.267    0.000    4.800    2.800    1.600 
#    0.000    0.000    0.000    8.800    0.000    0.000 
#    0.000    0.000    0.000    0.000    0.000    0.000 
#
# Total GULP energy -743929.228672 kJ/mol
# GULP energy per Si atom -12398.820478 kJ/mol
# Density = 1.818416 g / cm^3
# Si number density = 18.225642 Si / 1000 Ang^3
#
#
#
# Elastic Constant Matrix: (Units=GPa)
#
#
# Indices 1 2 3 4 5 6 
#
# 1 104.9409 36.5056 26.9903 0.0000 0.0000 0.0000
# 2 36.5056 104.9409 26.9903 0.0000 0.0000 0.0000
# 3 26.9903 26.9903 53.7514 0.0000 0.0000 0.0000
# 4 0.0000 0.0000 0.0000 25.7442 0.0000 0.0000
# 5 0.0000 0.0000 0.0000 0.0000 25.7442 0.0000
# 6 0.0000 0.0000 0.0000 0.0000 0.0000 20.3541
#
#
#
# Elastic Compliance Matrix: (Units=1/GPa)
#
#
# Indices 1 2 3 4 5 6 
#
# 1 0.011679 -0.002933 -0.004392 0.000000 0.000000 0.000000
# 2 -0.002933 0.011679 -0.004392 0.000000 0.000000 0.000000
# 3 -0.004392 -0.004392 0.023014 0.000000 0.000000 0.000000
# 4 0.000000 0.000000 0.000000 0.038844 0.000000 0.000000
# 5 0.000000 0.000000 0.000000 0.000000 0.038844 0.000000
# 6 0.000000 0.000000 0.000000 0.000000 0.000000 0.049130
#
#
# Mechanical properties :
#
#
# Convention : Reuss Voigt Hill
#
# Bulk Modulus (GPa) = 43.59229 49.40061 46.49645
# Shear Modulus (GPa) = 24.47748 25.91163 25.19456
#
# Velocity S-wave (km/s) = 3.66871 3.77465 3.72206
# Velocity P-wave (km/s) = 6.47425 6.79420 6.63615
#
# Compressibility (1/GPa) = 0.02293983
#
# Stress axis : x y z
#
# Youngs Moduli (GPa) = 85.62347 85.62347 43.45108
#
# Poissons Ratio (x) = 0.25116 0.19082
# Poissons Ratio (y) = 0.25116 0.19082
# Poissons Ratio (z) = 0.37602 0.37602
#
# Static dielectric constant tensor:
#      x y z
#    x 3.408770 0.000000 0.000000 
#    y 0.000000 3.408770 0.000000 
#    z 0.000000 0.000000 3.177510 
# 
# 
# High freq. dielectric constant tensor:
#      x y z
#    x 1.709210 0.000000 0.000000 
#    y 0.000000 1.709210 0.000000 
#    z 0.000000 0.000000 1.698560 
# 
# From -- ./inp_files/3111.got.cif
#   From: 2010.03.12/outbox.cif.g09.slc.cpg/sg122_2_cif.got.tgz:3111.got - 2010.04.06 16:17:16.
