data_PCOD8311850
_publ_section_title
;
Structure prediction by ZEFSAII (Michael W. Deem and Ramdas Pophale) SiO2 
 PCOD8311850
Probable space group: I -4 2 D
;
_chemical_formula_sum "Si O2"
_cell_formula_units_Z 80
_cell_length_a 18.432573
_cell_length_b 18.432573
_cell_length_c 11.989593
_cell_angle_alpha 90.000000
_cell_angle_beta 90.000000
_cell_angle_gamma 90.000000
_cell_volume 4073.581089
_symmetry_space_group_name_H-M "I -4 2 D"
_symmetry_group_IT_number 122
_symmetry_cell_setting 'tetragonal'
loop_
_space_group_symop_operation_xyz
x,y,z
y,-x,-z
-x,-y,z
-y,x,-z
x,1/2-y,1/4-z
-x,1/2+y,1/4-z
-y,1/2-x,1/4+z
y,1/2+x,1/4+z
1/2+x,1/2+y,1/2+z
1/2+y,1/2-x,1/2-z
1/2-x,1/2-y,1/2+z
1/2-y,1/2+x,1/2-z
1/2+x,-y,3/4-z
1/2-x,y,3/4-z
1/2-y,-x,3/4+z
1/2+y,x,3/4+z
loop_
_atom_site_type_symbol
_atom_site_label
_atom_site_fract_x
_atom_site_fract_y
_atom_site_fract_z
Si Si1 0.917614 0.018685 0.792151
Si Si2 0.391938 0.834337 0.621022
Si Si3 0.948379 0.085583 0.445254
Si Si4 0.854570 0.667152 0.145480
Si Si5 0.166935 0.815230 0.363768
O O1 0.870978 0.970126 0.876427
O O2 0.901569 0.996966 0.664737
O O3 0.890540 0.100674 0.819445
O O4 0.000000 0.000000 0.822686
O O5 0.405727 0.750000 0.625000
O O6 0.345184 0.865694 0.722846
O O7 0.351554 0.850454 0.505535
O O8 0.884911 0.145420 0.454762
O O9 0.004841 0.088844 0.550483
O O10 0.878656 0.750000 0.125000
O O11 0.769998 0.654466 0.117954
O O12 0.250000 0.836685 0.375000
#
# Coordination Sequence:
#
# PCOD8311850 Si02
#       5
#    16  16  16  16  16
#     4  11  22  37  58  86 120 156 201 244 304 367
#     4   9  20  38  58  84 121 154 192 251 304 350
#     4  10  20  42  59  82 126 159 193 260 314 357
#     4  10  22  39  61  89 124 160 206 256 305 372
#     4   9  20  41  64  89 117 160 208 252 309 373
#
# _framework density 19.638739999999999
#
# number of rings (size 3 to 8) (size 9 to 14) (size 15 to 20)
#    0.000    2.200    2.000    0.600    2.800    1.600 
#    7.200    3.000    0.000    0.000    0.000    0.000 
#    0.000    0.000    0.000    0.000    0.000    0.000 
#
# Total GULP energy -495691.713184 kJ/mol
# GULP energy per Si atom -12392.292830 kJ/mol
# Density = 1.959404 g / cm^3
# Si number density = 19.638740 Si / 1000 Ang^3
#
#
#
# Elastic Constant Matrix: (Units=GPa)
#
#
# Indices 1 2 3 4 5 6 
#
# 1 94.0876 59.5404 40.8832 0.0000 0.0000 0.0000
# 2 59.5404 94.0876 40.8832 0.0000 0.0000 0.0000
# 3 40.8832 40.8832 62.1299 0.0000 0.0000 0.0000
# 4 0.0000 0.0000 0.0000 178.8528 0.0000 0.0000
# 5 0.0000 0.0000 0.0000 0.0000 178.8528 0.0000
# 6 0.0000 0.0000 0.0000 0.0000 0.0000 41.2494
#
#
#
# Elastic Compliance Matrix: (Units=1/GPa)
#
#
# Indices 1 2 3 4 5 6 
#
# 1 0.019482 -0.009464 -0.006592 0.000000 0.000000 0.000000
# 2 -0.009464 0.019482 -0.006592 0.000000 0.000000 0.000000
# 3 -0.006592 -0.006592 0.024771 0.000000 0.000000 0.000000
# 4 0.000000 0.000000 0.000000 0.005591 0.000000 0.000000
# 5 0.000000 0.000000 0.000000 0.000000 0.005591 0.000000
# 6 0.000000 0.000000 0.000000 0.000000 0.000000 0.024243
#
#
# Mechanical properties :
#
#
# Convention : Reuss Voigt Hill
#
# Bulk Modulus (GPa) = 54.23476 59.21316 56.72396
# Shear Modulus (GPa) = 33.20024 87.05756 60.12890
#
# Velocity S-wave (km/s) = 4.11609 6.66526 5.53931
# Velocity P-wave (km/s) = 7.08983 9.45785 8.35813
#
# Compressibility (1/GPa) = 0.01843836
#
# Stress axis : x y z
#
# Youngs Moduli (GPa) = 51.33001 51.33001 40.37038
#
# Poissons Ratio (x) = 0.48579 0.26612
# Poissons Ratio (y) = 0.48579 0.26612
# Poissons Ratio (z) = 0.33836 0.33836
#
# Static dielectric constant tensor:
#      x y z
#    x 3.278920 0.000000 0.000000 
#    y 0.000000 3.278920 0.000000 
#    z 0.000000 0.000000 3.711440 
# 
# 
# High freq. dielectric constant tensor:
#      x y z
#    x 1.766740 0.000000 0.000000 
#    y 0.000000 1.766740 0.000000 
#    z 0.000000 0.000000 1.755090 
# 
# From -- ./inp_files/5279.got.cif
#   From: 2010.03.12/outbox.cif.g09.slc.cpg/sg122_3_cif.got.tgz:5279.got - 2010.04.06 16:17:16.
