data_PCOD8311738
_publ_section_title
;
Structure prediction by ZEFSAII (Michael W. Deem and Ramdas Pophale) SiO2 
 PCOD8311738
Probable space group: I -4 2 D
;
_chemical_formula_sum "Si O2"
_cell_formula_units_Z 112
_cell_length_a 15.233429
_cell_length_b 15.233429
_cell_length_c 28.916792
_cell_angle_alpha 90.000000
_cell_angle_beta 90.000000
_cell_angle_gamma 90.000000
_cell_volume 6710.354385
_symmetry_space_group_name_H-M "I -4 2 D"
_symmetry_group_IT_number 122
_symmetry_cell_setting 'tetragonal'
loop_
_space_group_symop_operation_xyz
x,y,z
y,-x,-z
-x,-y,z
-y,x,-z
x,1/2-y,1/4-z
-x,1/2+y,1/4-z
-y,1/2-x,1/4+z
y,1/2+x,1/4+z
1/2+x,1/2+y,1/2+z
1/2+y,1/2-x,1/2-z
1/2-x,1/2-y,1/2+z
1/2-y,1/2+x,1/2-z
1/2+x,-y,3/4-z
1/2-x,y,3/4-z
1/2-y,-x,3/4+z
1/2+y,x,3/4+z
loop_
_atom_site_type_symbol
_atom_site_label
_atom_site_fract_x
_atom_site_fract_y
_atom_site_fract_z
Si Si1 0.200118 0.788556 0.328619
Si Si2 0.633293 0.708024 0.721396
Si Si3 0.274826 0.008378 0.648441
Si Si4 0.025285 0.598344 0.434292
Si Si5 0.862745 0.466529 0.242792
Si Si6 0.942682 0.889506 0.717471
Si Si7 0.572801 0.877476 0.441639
O O1 0.250000 0.815276 0.375000
O O2 0.258152 0.727017 0.295865
O O3 0.185534 0.876669 0.298930
O O4 0.110797 0.741995 0.343993
O O5 0.601210 0.630952 0.687383
O O6 0.563790 0.788176 0.720897
O O7 0.640688 0.672444 0.774232
O O8 0.327803 0.970345 0.691196
O O9 0.182085 0.952879 0.646903
O O10 0.331252 0.991167 0.602900
O O11 0.000000 0.500000 0.419103
O O12 0.980879 0.629645 0.481897
O O13 0.895276 0.560414 0.259628
O O14 0.024595 0.891465 0.680378
O O15 0.892134 0.982290 0.720695
#
# Coordination Sequence:
#
# PCOD8311738 Si02
#       7
#    16  16  16  16  16  16  16
#     4  11  20  32  54  83 101 128 179 236 270 308
#     4  10  18  32  50  75 106 134 175 225 259 305
#     4  10  20  31  50  76 110 140 183 219 255 311
#     4  11  20  32  53  80 108 142 184 219 266 322
#     4  10  20  31  46  70 110 157 180 203 258 313
#     4   9  17  34  56  73  94 140 184 216 269 330
#     4   8  16  34  53  72  96 143 178 211 261 323
#
# _framework density 16.690622999999999
#
# number of rings (size 3 to 8) (size 9 to 14) (size 15 to 20)
#    0.000    2.143    5.714    0.000    2.000    0.000 
#    0.000    0.000    6.286    2.571    0.000    0.000 
#    0.000    0.000    0.000    0.000    0.000    0.000 
#
# Total GULP energy -693996.219271 kJ/mol
# GULP energy per Si atom -12392.789630 kJ/mol
# Density = 1.665263 g / cm^3
# Si number density = 16.690623 Si / 1000 Ang^3
#
#
#
# Elastic Constant Matrix: (Units=GPa)
#
#
# Indices 1 2 3 4 5 6 
#
# 1 105.0880 61.2128 49.8306 0.0000 0.0000 0.0000
# 2 61.2128 105.0880 49.8306 0.0000 0.0000 0.0000
# 3 49.8306 49.8306 80.9307 0.0000 0.0000 0.0000
# 4 0.0000 0.0000 0.0000 20.4613 0.0000 0.0000
# 5 0.0000 0.0000 0.0000 0.0000 20.4613 0.0000
# 6 0.0000 0.0000 0.0000 0.0000 0.0000 29.0962
#
#
#
# Elastic Compliance Matrix: (Units=1/GPa)
#
#
# Indices 1 2 3 4 5 6 
#
# 1 0.016161 -0.006631 -0.005867 0.000000 0.000000 0.000000
# 2 -0.006631 0.016161 -0.005867 0.000000 0.000000 0.000000
# 3 -0.005867 -0.005867 0.019582 0.000000 0.000000 0.000000
# 4 0.000000 0.000000 0.000000 0.048873 0.000000 0.000000
# 5 0.000000 0.000000 0.000000 0.000000 0.048873 0.000000
# 6 0.000000 0.000000 0.000000 0.000000 0.000000 0.034369
#
#
# Mechanical properties :
#
#
# Convention : Reuss Voigt Hill
#
# Bulk Modulus (GPa) = 65.91646 68.09497 67.00571
# Shear Modulus (GPa) = 22.14286 22.68597 22.41441
#
# Velocity S-wave (km/s) = 3.64629 3.69074 3.66858
# Velocity P-wave (km/s) = 7.57008 7.68433 7.62742
#
# Compressibility (1/GPa) = 0.01517072
#
# Stress axis : x y z
#
# Youngs Moduli (GPa) = 61.87850 61.87850 51.06804
#
# Poissons Ratio (x) = 0.41033 0.29964
# Poissons Ratio (y) = 0.41033 0.29964
# Poissons Ratio (z) = 0.36307 0.36307
#
# Static dielectric constant tensor:
#      x y z
#    x 3.342590 0.000000 0.000000 
#    y 0.000000 3.342590 0.000000 
#    z 0.000000 0.000000 2.929090 
# 
# 
# High freq. dielectric constant tensor:
#      x y z
#    x 1.643000 0.000000 0.000000 
#    y 0.000000 1.643000 0.000000 
#    z 0.000000 0.000000 1.614530 
# 
# From -- ./inp_files/9668.got.cif
#   From: 2010.03.12/outbox.cif.g09.slc.cpg/sg122_5_cif.got.tgz:9668.got - 2010.04.06 16:17:16.
