data_PCOD8311792
_publ_section_title
;
Structure prediction by ZEFSAII (Michael W. Deem and Ramdas Pophale) SiO2 
 PCOD8311792
Probable space group: I -4 2 D
;
_chemical_formula_sum "Si O2"
_cell_formula_units_Z 64
_cell_length_a 14.517223
_cell_length_b 14.517223
_cell_length_c 16.155232
_cell_angle_alpha 90.000000
_cell_angle_beta 90.000000
_cell_angle_gamma 90.000000
_cell_volume 3404.711325
_symmetry_space_group_name_H-M "I -4 2 D"
_symmetry_group_IT_number 122
_symmetry_cell_setting 'tetragonal'
loop_
_space_group_symop_operation_xyz
x,y,z
y,-x,-z
-x,-y,z
-y,x,-z
x,1/2-y,1/4-z
-x,1/2+y,1/4-z
-y,1/2-x,1/4+z
y,1/2+x,1/4+z
1/2+x,1/2+y,1/2+z
1/2+y,1/2-x,1/2-z
1/2-x,1/2-y,1/2+z
1/2-y,1/2+x,1/2-z
1/2+x,-y,3/4-z
1/2-x,y,3/4-z
1/2-y,-x,3/4+z
1/2+y,x,3/4+z
loop_
_atom_site_type_symbol
_atom_site_label
_atom_site_fract_x
_atom_site_fract_y
_atom_site_fract_z
Si Si1 0.146721 0.015595 0.016909
Si Si2 0.500000 0.500000 0.804269
Si Si3 0.405975 0.750000 0.625000
Si Si4 0.561222 0.831457 0.936524
Si Si5 0.032818 0.375002 0.794467
O O1 0.176351 0.012070 0.112060
O O2 0.100669 0.921599 0.988842
O O3 0.232016 0.030814 0.955351
O O4 0.587113 0.469624 0.748135
O O5 0.530217 0.588182 0.860215
O O6 0.344797 0.837559 0.601340
O O7 0.560104 0.729912 0.974673
O O8 0.109037 0.432488 0.744535
#
# Coordination Sequence:
#
# PCOD8311792 Si02
#       5
#    16   8   8  16  16
#     4   9  18  33  51  74 107 143 176 219 276 336
#     4  10  21  38  59  82 112 150 186 236 297 344
#     4  10  20  32  50  82 112 140 184 230 276 340
#     4  11  20  34  58  82 110 147 189 236 290 343
#     4   9  22  40  57  80 109 147 194 237 286 351
#
# _framework density 18.797481999999999
#
# number of rings (size 3 to 8) (size 9 to 14) (size 15 to 20)
#    0.000    2.500    0.000    4.500    0.000    6.000 
#    0.000    2.500    0.000    0.000    0.000    0.000 
#    0.000    0.000    0.000    0.000    0.000    0.000 
#
# Total GULP energy -396542.240242 kJ/mol
# GULP energy per Si atom -12391.945008 kJ/mol
# Density = 1.875470 g / cm^3
# Si number density = 18.797482 Si / 1000 Ang^3
#
#
#
# Elastic Constant Matrix: (Units=GPa)
#
#
# Indices 1 2 3 4 5 6 
#
# 1 116.5787 34.9161 53.1288 0.0000 0.0000 0.0000
# 2 34.9161 116.5787 53.1288 0.0000 0.0000 0.0000
# 3 53.1288 53.1288 123.9960 0.0000 0.0000 0.0000
# 4 0.0000 0.0000 0.0000 25.6398 0.0000 0.0000
# 5 0.0000 0.0000 0.0000 0.0000 25.6398 0.0000
# 6 0.0000 0.0000 0.0000 0.0000 0.0000 -57.2581
#
#
#
# Elastic Compliance Matrix: (Units=1/GPa)
#
#
# Indices 1 2 3 4 5 6 
#
# 1 0.010841 -0.001404 -0.004043 0.000000 0.000000 0.000000
# 2 -0.001404 0.010841 -0.004043 0.000000 0.000000 0.000000
# 3 -0.004043 -0.004043 0.011530 0.000000 0.000000 0.000000
# 4 0.000000 0.000000 0.000000 0.039002 0.000000 0.000000
# 5 0.000000 0.000000 0.000000 0.000000 0.039002 0.000000
# 6 0.000000 0.000000 0.000000 0.000000 0.000000 -0.017465
#
#
# Mechanical properties :
#
#
# Convention : Reuss Voigt Hill
#
# Bulk Modulus (GPa) = 70.27493 71.05567 70.66530
# Shear Modulus (GPa) = 42.56160 13.20297 27.88228
#
# Velocity S-wave (km/s) = 4.76354 2.65312 3.85554
# Velocity P-wave (km/s) = 8.22931 6.87518 7.58253
#
# Compressibility (1/GPa) = 0.01422983
#
# Stress axis : x y z
#
# Youngs Moduli (GPa) = 92.24049 92.24049 86.73177
#
# Poissons Ratio (x) = 0.12953 0.35070
# Poissons Ratio (y) = 0.12953 0.35070
# Poissons Ratio (z) = 0.37297 0.37297
#
# Static dielectric constant tensor:
#      x y z
#    x 3.326670 0.000000 0.000000 
#    y 0.000000 3.326670 0.000000 
#    z 0.000000 0.000000 4.142070 
# 
# 
# High freq. dielectric constant tensor:
#      x y z
#    x 1.722280 0.000000 0.000000 
#    y 0.000000 1.722280 0.000000 
#    z 0.000000 0.000000 1.744510 
# 
# From -- ./inp_files/6076.got.cif
#   From: 2010.03.12/outbox.cif.g09.slc.cpg/sg122_4_cif.got.tgz:6076.got - 2010.04.06 16:17:16.
