data_PCOD8311587
_publ_section_title
;
Structure prediction by ZEFSAII (Michael W. Deem and Ramdas Pophale) SiO2 
 PCOD8311587
Probable space group: I -4 2 M
;
_chemical_formula_sum "Si O2"
_cell_formula_units_Z 42
_cell_length_a 14.468261
_cell_length_b 14.468261
_cell_length_c 9.112571
_cell_angle_alpha 90.000000
_cell_angle_beta 90.000000
_cell_angle_gamma 90.000000
_cell_volume 1907.539740
_symmetry_space_group_name_H-M "I -4 2 M"
_symmetry_group_IT_number 121
_symmetry_cell_setting 'tetragonal'
loop_
_space_group_symop_operation_xyz
x,y,z
y,-x,-z
-x,-y,z
-y,x,-z
x,-y,-z
-x,y,-z
-y,-x,z
y,x,z
1/2+x,1/2+y,1/2+z
1/2+y,1/2-x,1/2-z
1/2-x,1/2-y,1/2+z
1/2-y,1/2+x,1/2-z
1/2+x,1/2-y,1/2-z
1/2-x,1/2+y,1/2-z
1/2-y,1/2-x,1/2+z
1/2+y,1/2+x,1/2+z
loop_
_atom_site_type_symbol
_atom_site_label
_atom_site_fract_x
_atom_site_fract_y
_atom_site_fract_z
Si Si1 0.500000 0.500000 0.500000
Si Si2 0.929147 0.929147 0.282557
Si Si3 0.303797 0.852677 0.399529
Si Si4 0.947650 0.722772 0.303556
O O1 0.435728 0.435728 0.603881
O O2 0.955764 0.829743 0.339706
O O3 0.000000 0.000000 0.358238
O O4 0.211740 0.788261 0.378734
O O5 0.319823 0.884051 0.566762
O O6 0.394819 0.795995 0.349187
O O7 0.308122 0.945660 0.299781
#
# Coordination Sequence:
#
# PCOD8311587 Si02
#       4
#     2   8  16  16
#     4   8  24  32  60  98 136 160 232 266 352 384
#     4  10  20  42  61 104 134 178 222 286 348 410
#     4  11  23  44  67 101 137 185 232 289 346 417
#     4  11  24  42  70  98 139 185 233 282 352 408
#
# _framework density 22.017890000000001
#
# number of rings (size 3 to 8) (size 9 to 14) (size 15 to 20)
#    0.571    0.762    3.810    1.143    0.000    5.333 
#    0.000    3.810    0.000    0.000    0.000    0.000 
#    0.000    0.000    0.000    0.000    0.000    0.000 
#
# Total GULP energy -260192.563664 kJ/mol
# GULP energy per Si atom -12390.122079 kJ/mol
# Density = 2.196778 g / cm^3
# Si number density = 22.017890 Si / 1000 Ang^3
#
#
#
# Elastic Constant Matrix: (Units=GPa)
#
#
# Indices 1 2 3 4 5 6 
#
# 1 109.0723 25.2275 13.8595 0.0000 0.0000 0.0000
# 2 25.2275 109.0722 13.8604 0.0000 0.0000 0.0000
# 3 13.8595 13.8604 63.0528 0.0000 0.0000 0.0000
# 4 0.0000 0.0000 0.0000 33.6915 0.0000 0.0000
# 5 0.0000 0.0000 0.0000 0.0000 33.6943 0.0000
# 6 0.0000 0.0000 0.0000 0.0000 0.0000 30.3551
#
#
#
# Elastic Compliance Matrix: (Units=1/GPa)
#
#
# Indices 1 2 3 4 5 6 
#
# 1 0.009863 -0.002063 -0.001714 0.000000 0.000000 0.000000
# 2 -0.002063 0.009863 -0.001715 0.000000 0.000000 0.000000
# 3 -0.001714 -0.001715 0.016613 0.000000 0.000000 0.000000
# 4 0.000000 0.000000 0.000000 0.029681 0.000000 0.000000
# 5 0.000000 0.000000 0.000000 0.000000 0.029679 0.000000
# 6 0.000000 0.000000 0.000000 0.000000 0.000000 0.032943
#
#
# Mechanical properties :
#
#
# Convention : Reuss Voigt Hill
#
# Bulk Modulus (GPa) = 39.43968 43.01023 41.22496
# Shear Modulus (GPa) = 33.76551 34.76484 34.26517
#
# Velocity S-wave (km/s) = 3.92030 3.97789 3.94920
# Velocity P-wave (km/s) = 6.20025 6.37768 6.28959
#
# Compressibility (1/GPa) = 0.02535518
#
# Stress axis : x y z
#
# Youngs Moduli (GPa) = 101.38558 101.38506 60.19202
#
# Poissons Ratio (x) = 0.20920 0.10320
# Poissons Ratio (y) = 0.20920 0.10321
# Poissons Ratio (z) = 0.17382 0.17384
#
# Static dielectric constant tensor:
#      x y z
#    x 4.180270 0.000000 0.000000 
#    y 0.000000 4.180200 0.000000 
#    z 0.000000 0.000000 3.717620 
# 
# 
# High freq. dielectric constant tensor:
#      x y z
#    x 1.867390 0.000000 0.000000 
#    y 0.000000 1.867390 0.000000 
#    z 0.000000 0.000000 1.858780 
# 
# From -- ./inp_files/1053.got.cif
#   From: 2010.03.12/outbox.cif.g09.slc.cpg/sg121_1_cif.got.tgz:1053.got - 2010.04.06 16:06:48.
