data_PCOD8311214
_publ_section_title
;
Structure prediction by ZEFSAII (Michael W. Deem and Ramdas Pophale) SiO2 
 PCOD8311214
Probable space group: I -4 C 2
;
_chemical_formula_sum "Si O2"
_cell_formula_units_Z 96
_cell_length_a 17.708948
_cell_length_b 17.708948
_cell_length_c 16.186568
_cell_angle_alpha 90.000000
_cell_angle_beta 90.000000
_cell_angle_gamma 90.000000
_cell_volume 5076.218429
_symmetry_space_group_name_H-M "I -4 C 2"
_symmetry_group_IT_number 120
_symmetry_cell_setting 'tetragonal'
loop_
_space_group_symop_operation_xyz
x,y,z
y,-x,-z
-x,-y,z
-y,x,-z
y,x,1/2-z
-y,-x,1/2-z
-x,y,1/2+z
x,-y,1/2+z
1/2+x,1/2+y,1/2+z
1/2+y,1/2-x,1/2-z
1/2-x,1/2-y,1/2+z
1/2-y,1/2+x,1/2-z
1/2+y,1/2+x,-z
1/2-y,1/2-x,-z
1/2-x,1/2+y,z
1/2+x,1/2-y,z
loop_
_atom_site_type_symbol
_atom_site_label
_atom_site_fract_x
_atom_site_fract_y
_atom_site_fract_z
Si Si1 0.334420 0.346653 0.654234
Si Si2 0.225177 0.442366 0.032026
Si Si3 0.596086 0.073393 0.732737
Si Si4 0.107909 0.049056 0.481385
Si Si5 0.320585 0.895691 0.575995
Si Si6 0.855495 0.680904 0.125132
O O1 0.356528 0.356528 0.750000
O O2 0.407151 0.378855 0.604856
O O3 0.258763 0.386513 0.623043
O O4 0.313667 0.259977 0.636525
O O5 0.181988 0.520360 0.041859
O O6 0.205699 0.383147 0.104260
O O7 0.315781 0.447834 0.034636
O O8 0.190384 0.416508 0.945999
O O9 0.517066 0.100780 0.769886
O O10 0.610781 0.108048 0.641829
O O11 0.662793 0.101707 0.790811
O O12 0.039470 0.087617 0.533532
O O13 0.337410 0.837410 0.500000
#
# Coordination Sequence:
#
# PCOD8311214 Si02
#       6
#    16  16  16  16  16  16
#     4  11  23  40  64  89 125 164 204 255 316 364
#     4  10  21  39  63  88 122 163 202 255 310 370
#     4  11  22  39  59  87 126 161 200 250 305 365
#     4  10  21  39  65  90 120 159 208 258 311 372
#     4  12  24  39  62  93 123 160 210 253 306 375
#     4  10  21  38  61  89 121 162 204 249 307 368
#
# _framework density 18.911715000000001
#
# number of rings (size 3 to 8) (size 9 to 14) (size 15 to 20)
#    0.000    1.333    5.000    1.000    4.667    0.000 
#    0.000    1.667    3.667    0.000    0.000    0.000 
#    0.000    0.000    0.000    0.000    0.000    0.000 
#
# Total GULP energy -595021.680655 kJ/mol
# GULP energy per Si atom -12396.285014 kJ/mol
# Density = 1.886867 g / cm^3
# Si number density = 18.911715 Si / 1000 Ang^3
#
#
#
# Elastic Constant Matrix: (Units=GPa)
#
#
# Indices 1 2 3 4 5 6 
#
# 1 81.9886 28.1018 35.4272 0.0000 0.0000 0.0000
# 2 28.1018 81.9886 35.4272 0.0000 0.0000 0.0000
# 3 35.4272 35.4272 108.7829 0.0000 0.0000 0.0000
# 4 0.0000 0.0000 0.0000 25.8584 0.0000 0.0000
# 5 0.0000 0.0000 0.0000 0.0000 25.8584 0.0000
# 6 0.0000 0.0000 0.0000 0.0000 0.0000 24.0311
#
#
#
# Elastic Compliance Matrix: (Units=1/GPa)
#
#
# Indices 1 2 3 4 5 6 
#
# 1 0.015025 -0.003533 -0.003743 0.000000 0.000000 0.000000
# 2 -0.003533 0.015025 -0.003743 0.000000 0.000000 0.000000
# 3 -0.003743 -0.003743 0.011630 0.000000 0.000000 0.000000
# 4 0.000000 0.000000 0.000000 0.038672 0.000000 0.000000
# 5 0.000000 0.000000 0.000000 0.000000 0.038672 0.000000
# 6 0.000000 0.000000 0.000000 0.000000 0.000000 0.041613
#
#
# Mechanical properties :
#
#
# Convention : Reuss Voigt Hill
#
# Bulk Modulus (GPa) = 50.90568 52.29693 51.60131
# Shear Modulus (GPa) = 26.42415 26.73652 26.58034
#
# Velocity S-wave (km/s) = 3.74202 3.76407 3.75306
# Velocity P-wave (km/s) = 6.75620 6.82673 6.79156
#
# Compressibility (1/GPa) = 0.01964417
#
# Stress axis : x y z
#
# Youngs Moduli (GPa) = 66.55654 66.55654 85.98189
#
# Poissons Ratio (x) = 0.23512 0.32180
# Poissons Ratio (y) = 0.23512 0.32180
# Poissons Ratio (z) = 0.24910 0.24910
#
# Static dielectric constant tensor:
#      x y z
#    x 3.557820 0.000000 0.000000 
#    y 0.000000 3.557820 0.000000 
#    z 0.000000 0.000000 3.458250 
# 
# 
# High freq. dielectric constant tensor:
#      x y z
#    x 1.740220 0.000000 0.000000 
#    y 0.000000 1.740220 0.000000 
#    z 0.000000 0.000000 1.729750 
# 
# From -- ./inp_files/4456.got.cif
#   From: 2010.03.12/outbox.cif.g09.slc.cpg/sg120_3_cif.got.tgz:4456.got - 2010.04.06 16:00:44.
