data_PCOD8311119
_publ_section_title
;
Structure prediction by ZEFSAII (Michael W. Deem and Ramdas Pophale) SiO2 
 PCOD8311119
Probable space group: I -4 C 2
;
_chemical_formula_sum "Si O2"
_cell_formula_units_Z 112
_cell_length_a 14.957124
_cell_length_b 14.957124
_cell_length_c 24.357070
_cell_angle_alpha 90.000000
_cell_angle_beta 90.000000
_cell_angle_gamma 90.000000
_cell_volume 5449.055515
_symmetry_space_group_name_H-M "I -4 C 2"
_symmetry_group_IT_number 120
_symmetry_cell_setting 'tetragonal'
loop_
_space_group_symop_operation_xyz
x,y,z
y,-x,-z
-x,-y,z
-y,x,-z
y,x,1/2-z
-y,-x,1/2-z
-x,y,1/2+z
x,-y,1/2+z
1/2+x,1/2+y,1/2+z
1/2+y,1/2-x,1/2-z
1/2-x,1/2-y,1/2+z
1/2-y,1/2+x,1/2-z
1/2+y,1/2+x,-z
1/2-y,1/2-x,-z
1/2-x,1/2+y,z
1/2+x,1/2-y,z
loop_
_atom_site_type_symbol
_atom_site_label
_atom_site_fract_x
_atom_site_fract_y
_atom_site_fract_z
Si Si1 0.647346 0.767235 0.345511
Si Si2 0.686584 0.380966 0.307151
Si Si3 0.420348 0.448382 0.609469
Si Si4 0.133018 0.439683 0.247197
Si Si5 0.466468 0.306258 0.048843
Si Si6 0.732654 0.577594 0.333613
Si Si7 0.799183 0.915389 0.546731
O O1 0.728269 0.833310 0.333317
O O2 0.567474 0.803010 0.306342
O O3 0.665859 0.662505 0.331587
O O4 0.624523 0.774969 0.410981
O O5 0.664728 0.335273 0.250000
O O6 0.606614 0.359941 0.348597
O O7 0.694758 0.489147 0.302833
O O8 0.500000 0.500000 0.641898
O O9 0.471020 0.390200 0.563455
O O10 0.354305 0.515866 0.582142
O O11 0.115493 0.542633 0.261675
O O12 0.178323 0.394786 0.300866
O O13 0.449010 0.245858 0.103025
O O14 0.369047 0.338495 0.025918
O O15 0.526652 0.254216 0.002877
#
# Coordination Sequence:
#
# PCOD8311119 Si02
#       7
#    16  16  16  16  16  16  16
#     4  11  24  39  64  94 124 169 213 268 322 379
#     4  11  23  41  56  87 134 163 201 267 325 380
#     4   9  19  33  56  89 117 157 201 249 317 391
#     4  11  23  42  67  88 119 172 221 259 308 383
#     4   9  17  33  57  87 123 160 200 257 317 378
#     4  10  22  40  61  89 126 162 208 261 325 379
#     4  10  18  32  60  88 122 163 208 253 319 389
#
# _framework density 20.554020999999999
#
# number of rings (size 3 to 8) (size 9 to 14) (size 15 to 20)
#    0.000    1.857    2.857    2.143    2.000    0.286 
#    5.143    2.857    0.000    2.571    0.000    2.000 
#    0.000    0.000    0.000    0.000    0.000    0.000 
#
# Total GULP energy -693749.801619 kJ/mol
# GULP energy per Si atom -12388.389315 kJ/mol
# Density = 2.050724 g / cm^3
# Si number density = 20.554021 Si / 1000 Ang^3
#
#
#
# Elastic Constant Matrix: (Units=GPa)
#
#
# Indices 1 2 3 4 5 6 
#
# 1 68.6908 20.0304 39.8821 0.0000 0.0000 0.0000
# 2 20.0304 68.6911 39.8819 0.0000 0.0000 0.0000
# 3 39.8821 39.8819 122.9736 0.0000 0.0000 0.0000
# 4 0.0000 0.0000 0.0000 24.0602 0.0000 0.0000
# 5 0.0000 0.0000 0.0000 0.0000 24.0584 0.0000
# 6 0.0000 0.0000 0.0000 0.0000 0.0000 17.1984
#
#
#
# Elastic Compliance Matrix: (Units=1/GPa)
#
#
# Indices 1 2 3 4 5 6 
#
# 1 0.018230 -0.002320 -0.005160 0.000000 0.000000 0.000000
# 2 -0.002320 0.018230 -0.005160 0.000000 0.000000 0.000000
# 3 -0.005160 -0.005160 0.011479 0.000000 0.000000 0.000000
# 4 0.000000 0.000000 0.000000 0.041562 0.000000 0.000000
# 5 0.000000 0.000000 0.000000 0.000000 0.041565 0.000000
# 6 0.000000 0.000000 0.000000 0.000000 0.000000 0.058145
#
#
# Mechanical properties :
#
#
# Convention : Reuss Voigt Hill
#
# Bulk Modulus (GPa) = 44.13161 51.10491 47.61826
# Shear Modulus (GPa) = 22.51795 23.76750 23.14272
#
# Velocity S-wave (km/s) = 3.31350 3.40419 3.35915
# Velocity P-wave (km/s) = 6.01304 6.35367 6.18570
#
# Compressibility (1/GPa) = 0.02265950
#
# Stress axis : x y z
#
# Youngs Moduli (GPa) = 54.85336 54.85379 87.11811
#
# Poissons Ratio (x) = 0.12727 0.44952
# Poissons Ratio (y) = 0.12727 0.44952
# Poissons Ratio (z) = 0.28304 0.28304
#
# Static dielectric constant tensor:
#      x y z
#    x 3.822570 0.000000 0.000000 
#    y 0.000000 3.822570 0.000000 
#    z 0.000000 0.000000 4.536800 
# 
# 
# High freq. dielectric constant tensor:
#      x y z
#    x 1.786770 0.000000 0.000000 
#    y 0.000000 1.786770 0.000000 
#    z 0.000000 0.000000 1.802530 
# 
# From -- ./inp_files/6303.got.cif
#   From: 2010.03.12/outbox.cif.g09.slc.cpg/sg120_4_cif.got.tgz:6303.got - 2010.04.06 16:00:44.
