data_PCOD8311716
_publ_section_title
;
Structure prediction by ZEFSAII (Michael W. Deem and Ramdas Pophale) SiO2 
 PCOD8311716
Probable space group: I -4 2 M
;
_chemical_formula_sum "Si O2"
_cell_formula_units_Z 56
_cell_length_a 10.218951
_cell_length_b 10.218951
_cell_length_c 23.649103
_cell_angle_alpha 90.000000
_cell_angle_beta 90.000000
_cell_angle_gamma 90.000000
_cell_volume 2469.603922
_symmetry_space_group_name_H-M "I -4 2 M"
_symmetry_group_IT_number 121
_symmetry_cell_setting 'tetragonal'
loop_
_space_group_symop_operation_xyz
x,y,z
y,-x,-z
-x,-y,z
-y,x,-z
x,-y,-z
-x,y,-z
-y,-x,z
y,x,z
1/2+x,1/2+y,1/2+z
1/2+y,1/2-x,1/2-z
1/2-x,1/2-y,1/2+z
1/2-y,1/2+x,1/2-z
1/2+x,1/2-y,1/2-z
1/2-x,1/2+y,1/2-z
1/2-y,1/2-x,1/2+z
1/2+y,1/2+x,1/2+z
loop_
_atom_site_type_symbol
_atom_site_label
_atom_site_fract_x
_atom_site_fract_y
_atom_site_fract_z
Si Si1 0.788996 0.992921 0.716811
Si Si2 0.000000 0.783780 0.500000
Si Si3 0.677843 0.102298 0.610604
Si Si4 0.490967 0.287862 0.658727
O O1 0.845218 0.845218 0.713491
O O2 0.724175 0.020917 0.778347
O O3 0.685736 0.008998 0.665757
O O4 0.906582 0.093419 0.707661
O O5 0.018409 0.688167 0.553567
O O6 0.873679 0.873679 0.511405
O O7 0.795393 0.204608 0.611751
O O8 0.537826 0.177794 0.613844
O O9 0.599607 0.400394 0.664254
O O10 0.354061 0.354061 0.638736
#
# Coordination Sequence:
#
# PCOD8311716 Si02
#       4
#    16   8  16  16
#     4   8  13  22  37  58  88 129 173 214 258 311
#     4   9  16  24  36  62 104 149 186 217 252 305
#     4   9  15  23  38  61  95 139 178 212 258 315
#     4   8  14  24  38  59  91 131 175 224 271 313
#
# _framework density 22.675701
#
# number of rings (size 3 to 8) (size 9 to 14) (size 15 to 20)
#    0.000    3.571    0.000    2.571    0.000    3.429 
#    0.000    0.000    0.000    0.857    0.000    0.000 
#    0.000   11.429    0.000   82.000    0.000  209.571 
#
# Total GULP energy -346970.563579 kJ/mol
# GULP energy per Si atom -12391.805842 kJ/mol
# Density = 2.262409 g / cm^3
# Si number density = 22.675701 Si / 1000 Ang^3
#
#
#
# Elastic Constant Matrix: (Units=GPa)
#
#
# Indices 1 2 3 4 5 6 
#
# 1 56.2123 39.7575 65.1525 0.0000 0.0000 0.0000
# 2 39.7575 56.2127 65.1526 0.0000 0.0000 0.0000
# 3 65.1525 65.1526 163.5377 0.0000 0.0000 0.0000
# 4 0.0000 0.0000 0.0000 23.7807 0.0000 0.0000
# 5 0.0000 0.0000 0.0000 0.0000 23.7807 0.0000
# 6 0.0000 0.0000 0.0000 0.0000 0.0000 26.1871
#
#
#
# Elastic Compliance Matrix: (Units=1/GPa)
#
#
# Indices 1 2 3 4 5 6 
#
# 1 0.041735 -0.019037 -0.009043 0.000000 0.000000 0.000000
# 2 -0.019037 0.041735 -0.009043 0.000000 0.000000 0.000000
# 3 -0.009043 -0.009043 0.013320 0.000000 0.000000 0.000000
# 4 0.000000 0.000000 0.000000 0.042051 0.000000 0.000000
# 5 0.000000 0.000000 0.000000 0.000000 0.042051 0.000000
# 6 0.000000 0.000000 0.000000 0.000000 0.000000 0.038187
#
#
# Mechanical properties :
#
#
# Convention : Reuss Voigt Hill
#
# Bulk Modulus (GPa) = 44.35614 68.45420 56.40517
# Shear Modulus (GPa) = 16.62027 21.80970 19.21498
#
# Velocity S-wave (km/s) = 2.71025 3.10467 2.91414
# Velocity P-wave (km/s) = 5.42195 6.56550 6.02094
#
# Compressibility (1/GPa) = 0.02254479
#
# Stress axis : x y z
#
# Youngs Moduli (GPa) = 23.96076 23.96096 75.07555
#
# Poissons Ratio (x) = 0.45614 0.67889
# Poissons Ratio (y) = 0.45614 0.67888
# Poissons Ratio (z) = 0.21667 0.21667
#
# Static dielectric constant tensor:
#      x y z
#    x 3.926290 0.000000 0.000000 
#    y 0.000000 3.926280 0.000000 
#    z 0.000000 0.000000 4.052730 
# 
# 
# High freq. dielectric constant tensor:
#      x y z
#    x 1.874460 0.000000 0.000000 
#    y 0.000000 1.874460 0.000000 
#    z 0.000000 0.000000 1.868640 
# 
# From -- ./inp_files/6027.got.cif
#   From: 2010.03.12/outbox.cif.g09.slc.cpg/sg121_4_cif.got.tgz:6027.got - 2010.04.06 16:06:48.
