data_PCOD8311201
_publ_section_title
;
Structure prediction by ZEFSAII (Michael W. Deem and Ramdas Pophale) SiO2 
 PCOD8311201
Probable space group: I -4 C 2
;
_chemical_formula_sum "Si O2"
_cell_formula_units_Z 96
_cell_length_a 24.960653
_cell_length_b 24.960653
_cell_length_c 9.310362
_cell_angle_alpha 90.000000
_cell_angle_beta 90.000000
_cell_angle_gamma 90.000000
_cell_volume 5800.673923
_symmetry_space_group_name_H-M "I -4 C 2"
_symmetry_group_IT_number 120
_symmetry_cell_setting 'tetragonal'
loop_
_space_group_symop_operation_xyz
x,y,z
y,-x,-z
-x,-y,z
-y,x,-z
y,x,1/2-z
-y,-x,1/2-z
-x,y,1/2+z
x,-y,1/2+z
1/2+x,1/2+y,1/2+z
1/2+y,1/2-x,1/2-z
1/2-x,1/2-y,1/2+z
1/2-y,1/2+x,1/2-z
1/2+y,1/2+x,-z
1/2-y,1/2-x,-z
1/2-x,1/2+y,z
1/2+x,1/2-y,z
loop_
_atom_site_type_symbol
_atom_site_label
_atom_site_fract_x
_atom_site_fract_y
_atom_site_fract_z
Si Si1 0.166273 0.740776 0.910679
Si Si2 0.450555 0.271929 0.876887
Si Si3 0.555119 0.722396 0.537778
Si Si4 0.053661 0.109054 0.372512
Si Si5 0.889787 0.936168 0.619916
Si Si6 0.172640 0.748845 0.577061
O O1 0.101558 0.738847 0.929993
O O2 0.177397 0.734358 0.743355
O O3 0.194848 0.796787 0.959306
O O4 0.191374 0.691374 0.000000
O O5 0.459819 0.276323 0.705818
O O6 0.437695 0.331268 0.931885
O O7 0.505473 0.249970 0.951308
O O8 0.566061 0.663976 0.473110
O O9 0.611724 0.752066 0.519639
O O10 0.097124 0.097124 0.250000
O O11 0.061466 0.071950 0.510469
O O12 0.994295 0.101879 0.308082
O O13 0.892804 0.892804 0.750000
O O14 0.199636 0.699636 0.500000
#
# Coordination Sequence:
#
# PCOD8311201 Si02
#       6
#    16  16  16  16  16  16
#     4   9  18  33  53  75  98 131 164 204 255 297
#     4  10  21  34  53  69  98 130 162 204 250 304
#     4  10  21  36  50  72  97 129 165 202 252 302
#     4  11  21  35  47  61  88 122 163 211 259 294
#     4  11  23  33  46  66  86 121 170 212 258 301
#     4   9  18  34  51  75 102 127 163 209 252 296
#
# _framework density 16.549800999999999
#
# number of rings (size 3 to 8) (size 9 to 14) (size 15 to 20)
#    0.000    2.000    1.667    2.000    9.333    3.333 
#    6.000    0.000    0.000    0.000    0.000    0.000 
#    0.000    0.667    0.000    7.333    0.000    5.333 
#
# Total GULP energy -594708.178400 kJ/mol
# GULP energy per Si atom -12389.753717 kJ/mol
# Density = 1.651213 g / cm^3
# Si number density = 16.549801 Si / 1000 Ang^3
#
#
#
# Elastic Constant Matrix: (Units=GPa)
#
#
# Indices 1 2 3 4 5 6 
#
# 1 92.4929 52.1975 46.8265 0.0000 0.0000 0.0000
# 2 52.1975 92.4929 46.8265 0.0000 0.0000 0.0000
# 3 46.8265 46.8265 74.7709 0.0000 0.0000 0.0000
# 4 0.0000 0.0000 0.0000 27.4060 0.0000 0.0000
# 5 0.0000 0.0000 0.0000 0.0000 27.4060 0.0000
# 6 0.0000 0.0000 0.0000 0.0000 0.0000 23.0320
#
#
#
# Elastic Compliance Matrix: (Units=1/GPa)
#
#
# Indices 1 2 3 4 5 6 
#
# 1 0.018220 -0.006597 -0.007279 0.000000 0.000000 0.000000
# 2 -0.006597 0.018220 -0.007279 0.000000 0.000000 0.000000
# 3 -0.007279 -0.007279 0.022491 0.000000 0.000000 0.000000
# 4 0.000000 0.000000 0.000000 0.036488 0.000000 0.000000
# 5 0.000000 0.000000 0.000000 0.000000 0.036488 0.000000
# 6 0.000000 0.000000 0.000000 0.000000 0.000000 0.043418
#
#
# Mechanical properties :
#
#
# Convention : Reuss Voigt Hill
#
# Bulk Modulus (GPa) = 60.16473 61.27305 60.71889
# Shear Modulus (GPa) = 22.40390 23.16252 22.78321
#
# Velocity S-wave (km/s) = 3.68329 3.74513 3.71434
# Velocity P-wave (km/s) = 7.38387 7.47029 7.42720
#
# Compressibility (1/GPa) = 0.01662103
#
# Stress axis : x y z
#
# Youngs Moduli (GPa) = 54.88560 54.88560 44.46177
#
# Poissons Ratio (x) = 0.36208 0.32363
# Poissons Ratio (y) = 0.36208 0.32363
# Poissons Ratio (z) = 0.39951 0.39951
#
# Static dielectric constant tensor:
#      x y z
#    x 3.002630 0.000000 0.000000 
#    y 0.000000 3.002630 0.000000 
#    z 0.000000 0.000000 3.176730 
# 
# 
# High freq. dielectric constant tensor:
#      x y z
#    x 1.609800 0.000000 0.000000 
#    y 0.000000 1.609800 0.000000 
#    z 0.000000 0.000000 1.649150 
# 
# From -- ./inp_files/1510.got.cif
#   From: 2010.03.12/outbox.cif.g09.slc.cpg/sg120_1_cif.got.tgz:1510.got - 2010.04.06 16:00:44.
