data_PCOD8311748
_publ_section_title
;
Structure prediction by ZEFSAII (Michael W. Deem and Ramdas Pophale) SiO2 
 PCOD8311748
Probable space group: I -4 2 D
;
_chemical_formula_sum "Si O2"
_cell_formula_units_Z 80
_cell_length_a 17.435290
_cell_length_b 17.435290
_cell_length_c 14.320475
_cell_angle_alpha 90.000000
_cell_angle_beta 90.000000
_cell_angle_gamma 90.000000
_cell_volume 4353.271706
_symmetry_space_group_name_H-M "I -4 2 D"
_symmetry_group_IT_number 122
_symmetry_cell_setting 'tetragonal'
loop_
_space_group_symop_operation_xyz
x,y,z
y,-x,-z
-x,-y,z
-y,x,-z
x,1/2-y,1/4-z
-x,1/2+y,1/4-z
-y,1/2-x,1/4+z
y,1/2+x,1/4+z
1/2+x,1/2+y,1/2+z
1/2+y,1/2-x,1/2-z
1/2-x,1/2-y,1/2+z
1/2-y,1/2+x,1/2-z
1/2+x,-y,3/4-z
1/2-x,y,3/4-z
1/2-y,-x,3/4+z
1/2+y,x,3/4+z
loop_
_atom_site_type_symbol
_atom_site_label
_atom_site_fract_x
_atom_site_fract_y
_atom_site_fract_z
Si Si1 0.802005 0.567565 0.196684
Si Si2 0.396585 0.934054 0.260316
Si Si3 0.572794 0.741737 0.343222
Si Si4 0.916959 0.804635 0.041877
Si Si5 0.159457 0.328340 0.574543
O O1 0.783287 0.516805 0.104229
O O2 0.882442 0.611614 0.186954
O O3 0.809517 0.509826 0.285442
O O4 0.734602 0.628619 0.211490
O O5 0.475502 0.902517 0.216766
O O6 0.330551 0.918896 0.184440
O O7 0.380417 0.891011 0.356968
O O8 0.615474 0.728936 0.443039
O O9 0.608306 0.687174 0.265695
O O10 0.890718 0.750000 0.125000
O O11 0.184922 0.250000 0.625000
#
# Coordination Sequence:
#
# PCOD8311748 Si02
#       5
#    16  16  16  16  16
#     4  10  22  41  57  85 117 154 203 249 291 367
#     4  10  18  35  60  90 123 154 189 242 300 361
#     4   9  22  36  57  89 111 158 195 237 302 348
#     4  10  23  38  61  81 117 156 200 247 294 344
#     4  10  20  37  62  85 122 153 192 247 299 361
#
# _framework density 18.376982999999999
#
# number of rings (size 3 to 8) (size 9 to 14) (size 15 to 20)
#    1.200    1.000    2.000    0.600    2.800    2.000 
#    0.000    0.000    0.000    0.000    0.000    0.000 
#    0.000    0.000    0.000    0.000    0.000    0.000 
#
# Total GULP energy -495777.940993 kJ/mol
# GULP energy per Si atom -12394.448525 kJ/mol
# Density = 1.833516 g / cm^3
# Si number density = 18.376983 Si / 1000 Ang^3
#
#
#
# Elastic Constant Matrix: (Units=GPa)
#
#
# Indices 1 2 3 4 5 6 
#
# 1 97.5298 51.3664 30.7262 0.0000 0.0000 0.0000
# 2 51.3664 97.5298 30.7262 0.0000 0.0000 0.0000
# 3 30.7262 30.7262 87.0933 0.0000 0.0000 0.0000
# 4 0.0000 0.0000 0.0000 24.0640 0.0000 0.0000
# 5 0.0000 0.0000 0.0000 0.0000 24.0640 0.0000
# 6 0.0000 0.0000 0.0000 0.0000 0.0000 35.5785
#
#
#
# Elastic Compliance Matrix: (Units=1/GPa)
#
#
# Indices 1 2 3 4 5 6 
#
# 1 0.014761 -0.006901 -0.002773 0.000000 0.000000 0.000000
# 2 -0.006901 0.014761 -0.002773 0.000000 0.000000 0.000000
# 3 -0.002773 -0.002773 0.013439 0.000000 0.000000 0.000000
# 4 0.000000 0.000000 0.000000 0.041556 0.000000 0.000000
# 5 0.000000 0.000000 0.000000 0.000000 0.041556 0.000000
# 6 0.000000 0.000000 0.000000 0.000000 0.000000 0.028107
#
#
# Mechanical properties :
#
#
# Convention : Reuss Voigt Hill
#
# Bulk Modulus (GPa) = 55.34907 56.42119 55.88513
# Shear Modulus (GPa) = 27.01291 28.03026 27.52159
#
# Velocity S-wave (km/s) = 3.83813 3.90974 3.87410
# Velocity P-wave (km/s) = 7.05873 7.15193 7.10549
#
# Compressibility (1/GPa) = 0.01806715
#
# Stress axis : x y z
#
# Youngs Moduli (GPa) = 67.74416 67.74416 74.41202
#
# Poissons Ratio (x) = 0.46749 0.20636
# Poissons Ratio (y) = 0.46749 0.20636
# Poissons Ratio (z) = 0.18787 0.18787
#
# Static dielectric constant tensor:
#      x y z
#    x 3.330330 0.000000 0.000000 
#    y 0.000000 3.330330 0.000000 
#    z 0.000000 0.000000 3.220860 
# 
# 
# High freq. dielectric constant tensor:
#      x y z
#    x 1.713750 0.000000 0.000000 
#    y 0.000000 1.713750 0.000000 
#    z 0.000000 0.000000 1.700210 
# 
# From -- ./inp_files/5308.got.cif
#   From: 2010.03.12/outbox.cif.g09.slc.cpg/sg122_3_cif.got.tgz:5308.got - 2010.04.06 16:17:16.
