data_PCOD8311706
_publ_section_title
;
Structure prediction by ZEFSAII (Michael W. Deem and Ramdas Pophale) SiO2 
 PCOD8311706
Probable space group: I -4 2 M
;
_chemical_formula_sum "Si O2"
_cell_formula_units_Z 58
_cell_length_a 11.137071
_cell_length_b 11.137071
_cell_length_c 22.545703
_cell_angle_alpha 90.000000
_cell_angle_beta 90.000000
_cell_angle_gamma 90.000000
_cell_volume 2796.441627
_symmetry_space_group_name_H-M "I -4 2 M"
_symmetry_group_IT_number 121
_symmetry_cell_setting 'tetragonal'
loop_
_space_group_symop_operation_xyz
x,y,z
y,-x,-z
-x,-y,z
-y,x,-z
x,-y,-z
-x,y,-z
-y,-x,z
y,x,z
1/2+x,1/2+y,1/2+z
1/2+y,1/2-x,1/2-z
1/2-x,1/2-y,1/2+z
1/2-y,1/2+x,1/2-z
1/2+x,1/2-y,1/2-z
1/2-x,1/2+y,1/2-z
1/2-y,1/2-x,1/2+z
1/2+y,1/2+x,1/2+z
loop_
_atom_site_type_symbol
_atom_site_label
_atom_site_fract_x
_atom_site_fract_y
_atom_site_fract_z
Si Si1 0.176712 0.499478 0.226946
Si Si2 0.000000 0.000000 0.000000
Si Si3 0.595017 0.404984 0.288499
Si Si4 0.000000 0.803191 0.500000
Si Si5 0.334119 0.334119 0.582754
Si Si6 0.560805 0.870745 0.095687
O O1 0.120003 0.404632 0.273786
O O2 0.309763 0.528212 0.247117
O O3 0.177194 0.439086 0.162695
O O4 0.082218 0.917783 0.957706
O O5 0.500000 0.500000 0.311695
O O6 0.651322 0.348679 0.346794
O O7 0.019288 0.720819 0.557669
O O8 0.117856 0.882145 0.491424
O O9 0.195903 0.368595 0.569332
O O10 0.500000 0.000000 0.089952
#
# Coordination Sequence:
#
# PCOD8311706 Si02
#       6
#    16   2   8   8   8  16
#     4  11  23  46  69 101 139 181 226 282 346 422
#     4  12  32  48  68 104 132 196 236 286 352 400
#     4  12  26  40  70 105 139 183 224 289 351 410
#     4  11  27  46  68 102 139 177 236 290 344 421
#     4  12  26  50  69  98 149 177 242 291 335 427
#     4  12  25  47  73  99 138 186 233 288 355 411
#
# _framework density 20.740645000000001
#
# number of rings (size 3 to 8) (size 9 to 14) (size 15 to 20)
#    0.000    0.414    7.586    0.414    9.655    0.000 
#    0.000    0.000    0.000    0.000    0.000    0.000 
#    0.000    0.000    0.000    0.000    0.000    0.000 
#
# Total GULP energy -359706.719391 kJ/mol
# GULP energy per Si atom -12403.679979 kJ/mol
# Density = 2.069344 g / cm^3
# Si number density = 20.740645 Si / 1000 Ang^3
#
#
#
# Elastic Constant Matrix: (Units=GPa)
#
#
# Indices 1 2 3 4 5 6 
#
# 1 97.3641 35.6768 34.0602 0.0000 0.0000 0.0000
# 2 35.6768 97.3640 34.0600 0.0000 0.0000 0.0000
# 3 34.0602 34.0600 103.5728 0.0000 0.0000 0.0000
# 4 0.0000 0.0000 0.0000 30.6262 0.0000 0.0000
# 5 0.0000 0.0000 0.0000 0.0000 30.6249 0.0000
# 6 0.0000 0.0000 0.0000 0.0000 0.0000 26.8864
#
#
#
# Elastic Compliance Matrix: (Units=1/GPa)
#
#
# Indices 1 2 3 4 5 6 
#
# 1 0.012625 -0.003586 -0.002972 0.000000 0.000000 0.000000
# 2 -0.003586 0.012625 -0.002972 0.000000 0.000000 0.000000
# 3 -0.002972 -0.002972 0.011610 0.000000 0.000000 0.000000
# 4 0.000000 0.000000 0.000000 0.032652 0.000000 0.000000
# 5 0.000000 0.000000 0.000000 0.000000 0.032653 0.000000
# 6 0.000000 0.000000 0.000000 0.000000 0.000000 0.037194
#
#
# Mechanical properties :
#
#
# Convention : Reuss Voigt Hill
#
# Bulk Modulus (GPa) = 56.18758 56.21055 56.19906
# Shear Modulus (GPa) = 30.42256 30.59442 30.50849
#
# Velocity S-wave (km/s) = 3.83405 3.84486 3.83946
# Velocity P-wave (km/s) = 6.83734 6.84625 6.84180
#
# Compressibility (1/GPa) = 0.01779753
#
# Stress axis : x y z
#
# Youngs Moduli (GPa) = 79.21045 79.21045 86.13320
#
# Poissons Ratio (x) = 0.28407 0.25601
# Poissons Ratio (y) = 0.28407 0.25601
# Poissons Ratio (z) = 0.23544 0.23544
#
# Static dielectric constant tensor:
#      x y z
#    x 3.798950 0.000000 0.000000 
#    y 0.000000 3.798950 0.000000 
#    z 0.000000 0.000000 3.768180 
# 
# 
# High freq. dielectric constant tensor:
#      x y z
#    x 1.819460 0.000000 0.000000 
#    y 0.000000 1.819460 0.000000 
#    z 0.000000 0.000000 1.813600 
# 
# From -- ./inp_files/6089.got.cif
#   From: 2010.03.12/outbox.cif.g09.slc.cpg/sg121_4_cif.got.tgz:6089.got - 2010.04.06 16:06:48.
