data_PCOD8311101
_publ_section_title
;
Structure prediction by ZEFSAII (Michael W. Deem and Ramdas Pophale) SiO2 
 PCOD8311101
Probable space group: I -4 M 2
;
_chemical_formula_sum "Si O2"
_cell_formula_units_Z 96
_cell_length_a 28.824811
_cell_length_b 28.824811
_cell_length_c 9.152490
_cell_angle_alpha 90.000000
_cell_angle_beta 90.000000
_cell_angle_gamma 90.000000
_cell_volume 7604.526888
_symmetry_space_group_name_H-M "I -4 M 2"
_symmetry_group_IT_number 119
_symmetry_cell_setting 'tetragonal'
loop_
_space_group_symop_operation_xyz
x,y,z
y,-x,-z
-x,-y,z
-y,x,-z
y,x,-z
-y,-x,-z
-x,y,z
x,-y,z
1/2+x,1/2+y,1/2+z
1/2+y,1/2-x,1/2-z
1/2-x,1/2-y,1/2+z
1/2-y,1/2+x,1/2-z
1/2+y,1/2+x,1/2-z
1/2-y,1/2-x,1/2-z
1/2-x,1/2+y,1/2+z
1/2+x,1/2-y,1/2+z
loop_
_atom_site_type_symbol
_atom_site_label
_atom_site_fract_x
_atom_site_fract_y
_atom_site_fract_z
Si Si1 0.806182 0.615732 0.585150
Si Si2 0.321026 0.742784 0.584718
Si Si3 0.693818 0.115731 0.414851
Si Si4 0.821026 0.757217 0.415281
Si Si5 0.127924 0.552984 0.419821
Si Si6 0.447016 0.872076 0.919820
O O1 0.761137 0.632885 0.496378
O O2 0.844121 0.655879 0.583642
O O3 0.791243 0.603482 0.750000
O O4 0.827346 0.570164 0.509355
O O5 0.302401 0.697600 0.500000
O O6 0.282138 0.782139 0.584767
O O7 0.333914 0.728749 0.749999
O O8 0.738864 0.132885 0.503623
O O9 0.672655 0.070164 0.490646
O O10 0.802402 0.802402 0.500000
O O11 0.117413 0.500000 0.461248
O O12 0.139844 0.559077 0.250000
O O13 0.082282 0.582283 0.462404
O O14 0.500000 0.882587 0.961248
#
# Coordination Sequence:
#
# PCOD8311101 Si02
#       6
#    16  16  16  16  16  16
#     4   9  16  25  36  49  65  84 105 129 159 196
#     4   9  15  22  33  49  68  87 105 124 148 182
#     4   9  16  25  36  49  65  84 105 129 159 196
#     4   9  15  22  33  49  68  87 105 124 148 182
#     4   9  17  28  40  52  65  82 106 138 177 218
#     4   9  17  28  40  52  65  82 106 138 177 218
#
# _framework density 12.624059000000001
#
# number of rings (size 3 to 8) (size 9 to 14) (size 15 to 20)
#    0.000    3.000    0.000    2.000    0.000    9.000 
#    0.000    1.667    0.000    0.000    0.000    4.667 
#    0.000    0.000    0.000    0.000    0.000    0.000 
#
# Total GULP energy -595113.224251 kJ/mol
# GULP energy per Si atom -12398.192172 kJ/mol
# Density = 1.259533 g / cm^3
# Si number density = 12.624059 Si / 1000 Ang^3
#
#
#
# Elastic Constant Matrix: (Units=GPa)
#
#
# Indices 1 2 3 4 5 6 
#
# 1 48.5581 47.5703 42.1292 0.0000 0.0000 0.0000
# 2 47.5703 48.5586 42.1295 0.0000 0.0000 0.0000
# 3 42.1292 42.1295 103.1051 0.0000 0.0000 0.0000
# 4 0.0000 0.0000 0.0000 17.1507 0.0000 0.0000
# 5 0.0000 0.0000 0.0000 0.0000 17.1506 0.0000
# 6 0.0000 0.0000 0.0000 0.0000 0.0000 16.1691
#
#
#
# Elastic Compliance Matrix: (Units=1/GPa)
#
#
# Indices 1 2 3 4 5 6 
#
# 1 0.514125 -0.497914 -0.006622 0.000000 0.000000 0.000000
# 2 -0.497914 0.514119 -0.006623 0.000000 0.000000 0.000000
# 3 -0.006622 -0.006623 0.015111 0.000000 0.000000 0.000000
# 4 0.000000 0.000000 0.000000 0.058307 0.000000 0.000000
# 5 0.000000 0.000000 0.000000 0.000000 0.058307 0.000000
# 6 0.000000 0.000000 0.000000 0.000000 0.000000 0.061847
#
#
# Mechanical properties :
#
#
# Convention : Reuss Voigt Hill
#
# Bulk Modulus (GPa) = 47.53788 51.54219 49.54004
# Shear Modulus (GPa) = 2.22109 14.65361 8.43735
#
# Velocity S-wave (km/s) = 1.32787 3.41070 2.58806
# Velocity P-wave (km/s) = 6.33161 7.51184 6.94683
#
# Compressibility (1/GPa) = 0.02103586
#
# Stress axis : x y z
#
# Youngs Moduli (GPa) = 1.94505 1.94507 66.17784
#
# Poissons Ratio (x) = 0.96848 0.43825
# Poissons Ratio (y) = 0.96847 0.43827
# Poissons Ratio (z) = 0.01288 0.01288
#
# Static dielectric constant tensor:
#      x y z
#    x 2.359320 0.000000 0.000000 
#    y 0.000000 2.359320 0.000000 
#    z 0.000000 0.000000 2.771360 
# 
# 
# High freq. dielectric constant tensor:
#      x y z
#    x 1.439740 0.000000 0.000000 
#    y 0.000000 1.439740 0.000000 
#    z 0.000000 0.000000 1.497500 
# 
# From -- ./inp_files/2819.got.cif
#   From: 2010.03.12/outbox.cif.g09.slc.cpg/sg119_2_cif.got.tgz:2819.got - 2010.04.14 02:25:26.
