data_PCOD8311917
_publ_section_title
;
Structure prediction by ZEFSAII (Michael W. Deem and Ramdas Pophale) SiO2 
 PCOD8311917
Probable space group: I -4 2 D
;
_chemical_formula_sum "Si O2"
_cell_formula_units_Z 48
_cell_length_a 9.034175
_cell_length_b 9.034175
_cell_length_c 31.457526
_cell_angle_alpha 90.000000
_cell_angle_beta 90.000000
_cell_angle_gamma 90.000000
_cell_volume 2567.447443
_symmetry_space_group_name_H-M "I -4 2 D"
_symmetry_group_IT_number 122
_symmetry_cell_setting 'tetragonal'
loop_
_space_group_symop_operation_xyz
x,y,z
y,-x,-z
-x,-y,z
-y,x,-z
x,1/2-y,1/4-z
-x,1/2+y,1/4-z
-y,1/2-x,1/4+z
y,1/2+x,1/4+z
1/2+x,1/2+y,1/2+z
1/2+y,1/2-x,1/2-z
1/2-x,1/2-y,1/2+z
1/2-y,1/2+x,1/2-z
1/2+x,-y,3/4-z
1/2-x,y,3/4-z
1/2-y,-x,3/4+z
1/2+y,x,3/4+z
loop_
_atom_site_type_symbol
_atom_site_label
_atom_site_fract_x
_atom_site_fract_y
_atom_site_fract_z
Si Si1 0.360841 0.407644 0.341045
Si Si2 0.741651 0.971453 0.750213
Si Si3 0.750000 0.878858 0.375000
Si Si4 0.000000 0.000000 0.317170
O O1 0.500000 0.500000 0.355246
O O2 0.250000 0.478942 0.375000
O O3 0.331863 0.437907 0.292171
O O4 0.362322 0.228330 0.348006
O O5 0.626479 0.840069 0.742521
O O6 0.852461 0.979719 0.710607
O O7 0.851607 0.982137 0.345308
#
# Coordination Sequence:
#
# PCOD8311917 Si02
#       4
#    16  16   8   8
#     4  10  22  40  66  98 126 169 231 273 328 394
#     4  11  23  41  67  96 128 174 227 274 331 396
#     4  10  26  42  62 100 132 184 218 266 352 384
#     4  12  24  46  64  97 144 174 219 280 336 412
#
# _framework density 18.695612000000001
#
# number of rings (size 3 to 8) (size 9 to 14) (size 15 to 20)
#    1.000    0.333    5.000    0.000    9.333    2.667 
#    0.000    0.000    0.000    0.000    0.000    0.000 
#    0.000    0.000    0.000    0.000    0.000    0.000 
#
# Total GULP energy -297339.535838 kJ/mol
# GULP energy per Si atom -12389.147327 kJ/mol
# Density = 1.865306 g / cm^3
# Si number density = 18.695612 Si / 1000 Ang^3
#
#
#
# Elastic Constant Matrix: (Units=GPa)
#
#
# Indices 1 2 3 4 5 6 
#
# 1 89.9465 37.9945 41.0748 0.0000 0.0000 0.0000
# 2 37.9945 89.9465 41.0748 0.0000 0.0000 0.0000
# 3 41.0748 41.0748 119.1317 0.0000 0.0000 0.0000
# 4 0.0000 0.0000 0.0000 42.8005 0.0000 0.0000
# 5 0.0000 0.0000 0.0000 0.0000 42.8005 0.0000
# 6 0.0000 0.0000 0.0000 0.0000 0.0000 35.1733
#
#
#
# Elastic Compliance Matrix: (Units=1/GPa)
#
#
# Indices 1 2 3 4 5 6 
#
# 1 0.014643 -0.004605 -0.003461 0.000000 0.000000 0.000000
# 2 -0.004605 0.014643 -0.003461 0.000000 0.000000 0.000000
# 3 -0.003461 -0.003461 0.010781 0.000000 0.000000 0.000000
# 4 0.000000 0.000000 0.000000 0.023364 0.000000 0.000000
# 5 0.000000 0.000000 0.000000 0.000000 0.023364 0.000000
# 6 0.000000 0.000000 0.000000 0.000000 0.000000 0.028431
#
#
# Mechanical properties :
#
#
# Convention : Reuss Voigt Hill
#
# Bulk Modulus (GPa) = 58.77783 59.92365 59.35074
# Shear Modulus (GPa) = 34.73372 36.08025 35.40699
#
# Velocity S-wave (km/s) = 4.31496 4.39780 4.35658
# Velocity P-wave (km/s) = 7.50552 7.60982 7.55785
#
# Compressibility (1/GPa) = 0.01701322
#
# Stress axis : x y z
#
# Youngs Moduli (GPa) = 68.28975 68.28976 92.75801
#
# Poissons Ratio (x) = 0.31448 0.32104
# Poissons Ratio (y) = 0.31448 0.32104
# Poissons Ratio (z) = 0.23636 0.23636
#
# Static dielectric constant tensor:
#      x y z
#    x 3.162590 0.000000 0.000000 
#    y 0.000000 3.162590 0.000000 
#    z 0.000000 0.000000 3.484080 
# 
# 
# High freq. dielectric constant tensor:
#      x y z
#    x 1.723590 0.000000 0.000000 
#    y 0.000000 1.723590 0.000000 
#    z 0.000000 0.000000 1.740650 
# 
# From -- ./inp_files/9136.got.cif
#   From: 2010.03.12/outbox.cif.g09.slc.cpg/sg122_5_cif.got.tgz:9136.got - 2010.04.06 16:17:16.
