data_PCOD8311187
_publ_section_title
;
Structure prediction by ZEFSAII (Michael W. Deem and Ramdas Pophale) SiO2 
 PCOD8311187
Probable space group: I -4 C 2
;
_chemical_formula_sum "Si O2"
_cell_formula_units_Z 96
_cell_length_a 22.539339
_cell_length_b 22.539339
_cell_length_c 9.127563
_cell_angle_alpha 90.000000
_cell_angle_beta 90.000000
_cell_angle_gamma 90.000000
_cell_volume 4637.001008
_symmetry_space_group_name_H-M "I -4 C 2"
_symmetry_group_IT_number 120
_symmetry_cell_setting 'tetragonal'
loop_
_space_group_symop_operation_xyz
x,y,z
y,-x,-z
-x,-y,z
-y,x,-z
y,x,1/2-z
-y,-x,1/2-z
-x,y,1/2+z
x,-y,1/2+z
1/2+x,1/2+y,1/2+z
1/2+y,1/2-x,1/2-z
1/2-x,1/2-y,1/2+z
1/2-y,1/2+x,1/2-z
1/2+y,1/2+x,-z
1/2-y,1/2-x,-z
1/2-x,1/2+y,z
1/2+x,1/2-y,z
loop_
_atom_site_type_symbol
_atom_site_label
_atom_site_fract_x
_atom_site_fract_y
_atom_site_fract_z
Si Si1 0.787694 0.375450 0.578853
Si Si2 0.907373 0.483358 0.211685
Si Si3 0.875626 0.712105 0.579165
Si Si4 0.841114 0.841391 0.923612
Si Si5 0.504382 0.171869 0.038282
Si Si6 0.062459 0.061780 0.927149
O O1 0.839547 0.339547 0.500000
O O2 0.793487 0.361885 0.749790
O O3 0.723554 0.357377 0.515660
O O4 0.793005 0.445593 0.550396
O O5 0.953623 0.431162 0.232013
O O6 0.890177 0.488569 0.042546
O O7 0.847288 0.470273 0.303131
O O8 0.841430 0.658571 0.500000
O O9 0.855123 0.775493 0.515648
O O10 0.945820 0.711276 0.550235
O O11 0.841200 0.841200 0.750000
O O12 0.888531 0.890205 0.976448
O O13 0.056336 0.056336 0.750000
O O14 0.000612 0.081960 0.000898
#
# Coordination Sequence:
#
# PCOD8311187 Si02
#       6
#    16  16  16  16  16  16
#     4  11  24  43  66  91 125 166 210 260 315 371
#     4  11  22  38  58  86 122 164 205 258 310 362
#     4  11  24  43  66  91 125 166 210 260 315 371
#     4   9  22  43  66  94 127 162 203 256 319 375
#     4  12  24  37  62  88 123 162 214 258 308 368
#     4  10  20  38  65  92 129 164 200 253 312 378
#
# _framework density 20.703035
#
# number of rings (size 3 to 8) (size 9 to 14) (size 15 to 20)
#    0.000    1.333    1.667    4.500    4.667    1.333 
#    0.000    3.333    0.000    0.000    0.000    0.000 
#    0.000    0.000    0.000    0.000    0.000    0.000 
#
# Total GULP energy -595269.657144 kJ/mol
# GULP energy per Si atom -12401.451190 kJ/mol
# Density = 2.065591 g / cm^3
# Si number density = 20.703035 Si / 1000 Ang^3
#
#
#
# Elastic Constant Matrix: (Units=GPa)
#
#
# Indices 1 2 3 4 5 6 
#
# 1 101.1345 41.2383 29.4788 0.0000 0.0000 0.0000
# 2 41.2383 101.1385 29.4791 0.0000 0.0000 0.0000
# 3 29.4788 29.4791 74.6504 0.0000 0.0000 0.0000
# 4 0.0000 0.0000 0.0000 22.6786 0.0000 0.0000
# 5 0.0000 0.0000 0.0000 0.0000 22.6778 0.0000
# 6 0.0000 0.0000 0.0000 0.0000 0.0000 32.6186
#
#
#
# Elastic Compliance Matrix: (Units=1/GPa)
#
#
# Indices 1 2 3 4 5 6 
#
# 1 0.012546 -0.004149 -0.003316 0.000000 0.000000 0.000000
# 2 -0.004149 0.012546 -0.003316 0.000000 0.000000 0.000000
# 3 -0.003316 -0.003316 0.016015 0.000000 0.000000 0.000000
# 4 0.000000 0.000000 0.000000 0.044094 0.000000 0.000000
# 5 0.000000 0.000000 0.000000 0.000000 0.044096 0.000000
# 6 0.000000 0.000000 0.000000 0.000000 0.000000 0.030657
#
#
# Mechanical properties :
#
#
# Convention : Reuss Voigt Hill
#
# Bulk Modulus (GPa) = 51.16442 53.03510 52.09976
# Shear Modulus (GPa) = 26.59139 27.37680 26.98409
#
# Velocity S-wave (km/s) = 3.58777 3.64037 3.61416
# Velocity P-wave (km/s) = 6.47533 6.58349 6.52964
#
# Compressibility (1/GPa) = 0.01954483
#
# Stress axis : x y z
#
# Youngs Moduli (GPa) = 79.70557 79.70893 62.44302
#
# Poissons Ratio (x) = 0.33072 0.20706
# Poissons Ratio (y) = 0.33071 0.20705
# Poissons Ratio (z) = 0.26430 0.26430
#
# Static dielectric constant tensor:
#      x y z
#    x 3.819320 0.000000 0.000000 
#    y 0.000000 3.819320 0.000000 
#    z 0.000000 0.000000 3.681990 
# 
# 
# High freq. dielectric constant tensor:
#      x y z
#    x 1.813720 0.000000 0.000000 
#    y 0.000000 1.813720 0.000000 
#    z 0.000000 0.000000 1.805970 
# 
# From -- ./inp_files/1520.got.cif
#   From: 2010.03.12/outbox.cif.g09.slc.cpg/sg120_1_cif.got.tgz:1520.got - 2010.04.06 16:00:44.
