data_PCOD8311633
_publ_section_title
;
Structure prediction by ZEFSAII (Michael W. Deem and Ramdas Pophale) SiO2 
 PCOD8311633
Probable space group: I -4 2 M
;
_chemical_formula_sum "Si O2"
_cell_formula_units_Z 64
_cell_length_a 16.152052
_cell_length_b 16.152052
_cell_length_c 12.168645
_cell_angle_alpha 90.000000
_cell_angle_beta 90.000000
_cell_angle_gamma 90.000000
_cell_volume 3174.662995
_symmetry_space_group_name_H-M "I -4 2 M"
_symmetry_group_IT_number 121
_symmetry_cell_setting 'tetragonal'
loop_
_space_group_symop_operation_xyz
x,y,z
y,-x,-z
-x,-y,z
-y,x,-z
x,-y,-z
-x,y,-z
-y,-x,z
y,x,z
1/2+x,1/2+y,1/2+z
1/2+y,1/2-x,1/2-z
1/2-x,1/2-y,1/2+z
1/2-y,1/2+x,1/2-z
1/2+x,1/2-y,1/2-z
1/2-x,1/2+y,1/2-z
1/2-y,1/2-x,1/2+z
1/2+y,1/2+x,1/2+z
loop_
_atom_site_type_symbol
_atom_site_label
_atom_site_fract_x
_atom_site_fract_y
_atom_site_fract_z
Si Si1 0.308508 0.960303 0.762938
Si Si2 0.068746 0.389688 0.579900
Si Si3 0.815644 0.051690 0.107753
Si Si4 0.177562 0.309812 0.409264
O O1 0.366809 0.957488 0.872653
O O2 0.305530 0.870295 0.706925
O O3 0.346418 0.028548 0.684270
O O4 0.215678 0.987921 0.798335
O O5 0.114211 0.318603 0.509864
O O6 0.000000 0.432085 0.500000
O O7 0.896955 0.103046 0.146032
O O8 0.740083 0.113821 0.086463
O O9 0.838978 0.000000 0.000000
O O10 0.223671 0.223671 0.426429
#
# Coordination Sequence:
#
# PCOD8311633 Si02
#       4
#    16  16  16  16
#     4  11  21  40  59  94 123 162 203 253 321 382
#     4  10  22  38  57  90 128 156 196 255 322 376
#     4  11  23  40  61  89 126 168 213 258 305 370
#     4  10  22  40  63  88 121 163 210 259 312 374
#
# _framework density 20.159618999999999
#
# number of rings (size 3 to 8) (size 9 to 14) (size 15 to 20)
#    0.000    1.500    5.000    0.000    0.000    3.750 
#    4.500    0.000    0.000    0.000    0.000    0.000 
#    0.000    0.000    0.000    0.000    0.000    0.000 
#
# Total GULP energy -396761.566511 kJ/mol
# GULP energy per Si atom -12398.798953 kJ/mol
# Density = 2.011374 g / cm^3
# Si number density = 20.159619 Si / 1000 Ang^3
#
#
#
# Elastic Constant Matrix: (Units=GPa)
#
#
# Indices 1 2 3 4 5 6 
#
# 1 90.8958 62.0850 46.4201 0.0000 0.0000 0.0000
# 2 62.0850 90.8950 46.4196 0.0000 0.0000 0.0000
# 3 46.4201 46.4196 110.0931 0.0000 0.0000 0.0000
# 4 0.0000 0.0000 0.0000 21.5330 0.0000 0.0000
# 5 0.0000 0.0000 0.0000 0.0000 21.5331 0.0000
# 6 0.0000 0.0000 0.0000 0.0000 0.0000 42.8362
#
#
#
# Elastic Compliance Matrix: (Units=1/GPa)
#
#
# Indices 1 2 3 4 5 6 
#
# 1 0.021747 -0.012963 -0.003704 0.000000 0.000000 0.000000
# 2 -0.012963 0.021747 -0.003704 0.000000 0.000000 0.000000
# 3 -0.003704 -0.003704 0.012207 0.000000 0.000000 0.000000
# 4 0.000000 0.000000 0.000000 0.046440 0.000000 0.000000
# 5 0.000000 0.000000 0.000000 0.000000 0.046440 0.000000
# 6 0.000000 0.000000 0.000000 0.000000 0.000000 0.023345
#
#
# Mechanical properties :
#
#
# Convention : Reuss Voigt Hill
#
# Bulk Modulus (GPa) = 66.84447 66.85926 66.85187
# Shear Modulus (GPa) = 22.97226 26.31107 24.64167
#
# Velocity S-wave (km/s) = 3.37934 3.61659 3.49997
# Velocity P-wave (km/s) = 6.96105 7.11875 7.04034
#
# Compressibility (1/GPa) = 0.01496010
#
# Stress axis : x y z
#
# Youngs Moduli (GPa) = 45.98318 45.98294 81.92213
#
# Poissons Ratio (x) = 0.59605 0.30344
# Poissons Ratio (y) = 0.59606 0.30343
# Poissons Ratio (z) = 0.17032 0.17032
#
# Static dielectric constant tensor:
#      x y z
#    x 3.696160 0.000000 0.000000 
#    y 0.000000 3.696150 0.000000 
#    z 0.000000 0.000000 3.778360 
# 
# 
# High freq. dielectric constant tensor:
#      x y z
#    x 1.778920 0.000000 0.000000 
#    y 0.000000 1.778920 0.000000 
#    z 0.000000 0.000000 1.790260 
# 
# From -- ./inp_files/2918.got.cif
#   From: 2010.03.12/outbox.cif.g09.slc.cpg/sg121_2_cif.got.tgz:2918.got - 2010.04.06 16:06:48.
