data_PCOD8311545
_publ_section_title
;
Structure prediction by ZEFSAII (Michael W. Deem and Ramdas Pophale) SiO2 
 PCOD8311545
Probable space group: I -4 2 M
;
_chemical_formula_sum "Si O2"
_cell_formula_units_Z 96
_cell_length_a 14.016968
_cell_length_b 14.016968
_cell_length_c 22.036762
_cell_angle_alpha 90.000000
_cell_angle_beta 90.000000
_cell_angle_gamma 90.000000
_cell_volume 4329.681450
_symmetry_space_group_name_H-M "I -4 2 M"
_symmetry_group_IT_number 121
_symmetry_cell_setting 'tetragonal'
loop_
_space_group_symop_operation_xyz
x,y,z
y,-x,-z
-x,-y,z
-y,x,-z
x,-y,-z
-x,y,-z
-y,-x,z
y,x,z
1/2+x,1/2+y,1/2+z
1/2+y,1/2-x,1/2-z
1/2-x,1/2-y,1/2+z
1/2-y,1/2+x,1/2-z
1/2+x,1/2-y,1/2-z
1/2-x,1/2+y,1/2-z
1/2-y,1/2-x,1/2+z
1/2+y,1/2+x,1/2+z
loop_
_atom_site_type_symbol
_atom_site_label
_atom_site_fract_x
_atom_site_fract_y
_atom_site_fract_z
Si Si1 0.415744 0.255916 0.951614
Si Si2 0.622105 0.912926 0.740233
Si Si3 0.231658 0.614520 0.500115
Si Si4 0.225514 0.625172 0.362367
Si Si5 0.503374 0.347201 0.840097
Si Si6 0.301000 0.547213 0.705505
O O1 0.344747 0.344747 0.963872
O O2 0.468966 0.263849 0.886169
O O3 0.500000 0.257323 0.000000
O O4 0.352830 0.157254 0.956870
O O5 0.526196 0.876176 0.770436
O O6 0.635399 0.873255 0.672884
O O7 0.708709 0.884070 0.785282
O O8 0.242300 0.500000 0.500000
O O9 0.333006 0.666995 0.515766
O O10 0.201394 0.640400 0.432039
O O11 0.293289 0.706711 0.336649
O O12 0.279580 0.525296 0.349045
O O13 0.611936 0.388065 0.852140
O O14 0.434443 0.434443 0.850652
O O15 0.494403 0.313446 0.770278
O O16 0.393000 0.607001 0.685573
#
# Coordination Sequence:
#
# PCOD8311545 Si02
#       6
#    16  16  16  16  16  16
#     4  10  21  38  61  92 126 165 210 259 317 389
#     4   9  19  37  55  84 120 160 196 239 292 369
#     4  10  24  46  66  89 121 166 223 278 325 376
#     4  10  21  39  64  87 116 158 204 256 314 370
#     4   9  18  33  56  90 130 166 202 255 321 388
#     4  10  20  35  59  92 125 159 200 249 311 378
#
# _framework density 22.172533000000001
#
# number of rings (size 3 to 8) (size 9 to 14) (size 15 to 20)
#    0.000    2.333    0.000    1.500    2.333    3.000 
#   15.000    1.667    0.000    0.000    0.000    0.000 
#    0.000    0.000    0.000    0.000    0.000    0.000 
#
# Total GULP energy -594706.844277 kJ/mol
# GULP energy per Si atom -12389.725922 kJ/mol
# Density = 2.212207 g / cm^3
# Si number density = 22.172533 Si / 1000 Ang^3
#
#
#
# Elastic Constant Matrix: (Units=GPa)
#
#
# Indices 1 2 3 4 5 6 
#
# 1 76.6216 40.5505 13.2270 0.0000 0.0000 0.0000
# 2 40.5505 76.6290 13.2328 0.0000 0.0000 0.0000
# 3 13.2270 13.2328 46.0862 0.0000 0.0000 0.0000
# 4 0.0000 0.0000 0.0000 28.9604 0.0000 0.0000
# 5 0.0000 0.0000 0.0000 0.0000 28.9606 0.0000
# 6 0.0000 0.0000 0.0000 0.0000 0.0000 -3.6612
#
#
#
# Elastic Compliance Matrix: (Units=1/GPa)
#
#
# Indices 1 2 3 4 5 6 
#
# 1 0.018423 -0.009297 -0.002618 0.000000 0.000000 0.000000
# 2 -0.009297 0.018422 -0.002621 0.000000 0.000000 0.000000
# 3 -0.002618 -0.002621 0.023203 0.000000 0.000000 0.000000
# 4 0.000000 0.000000 0.000000 0.034530 0.000000 0.000000
# 5 0.000000 0.000000 0.000000 0.000000 0.034530 0.000000
# 6 0.000000 0.000000 0.000000 0.000000 0.000000 -0.273135
#
#
# Mechanical properties :
#
#
# Convention : Reuss Voigt Hill
#
# Bulk Modulus (GPa) = 32.28390 37.03970 34.66180
# Shear Modulus (GPa) = -47.78813 19.67373 -14.05720
#
# Velocity S-wave (km/s) = -4.64754 2.98199 -2.52065
# Velocity P-wave (km/s) = 3.76930 5.34770 2.68237
#
# Compressibility (1/GPa) = 0.03097519
#
# Stress axis : x y z
#
# Youngs Moduli (GPa) = 54.27863 54.28158 43.09869
#
# Poissons Ratio (x) = 0.50467 0.11284
# Poissons Ratio (y) = 0.50464 0.11298
# Poissons Ratio (z) = 0.14211 0.14229
#
# Static dielectric constant tensor:
#      x y z
#    x 4.213250 0.000000 0.000000 
#    y 0.000000 4.213250 0.000000 
#    z 0.000000 0.000000 3.825620 
# 
# 
# High freq. dielectric constant tensor:
#      x y z
#    x 1.876730 0.000000 0.000000 
#    y 0.000000 1.876730 0.000000 
#    z 0.000000 0.000000 1.856070 
# 
# From -- ./inp_files/6424.got.cif
#   From: 2010.03.12/outbox.cif.g09.slc.cpg/sg121_4_cif.got.tgz:6424.got - 2010.04.06 16:06:48.
