data_PCOD8311794
_publ_section_title
;
Structure prediction by ZEFSAII (Michael W. Deem and Ramdas Pophale) SiO2 
 PCOD8311794
Probable space group: I -4 2 D
;
_chemical_formula_sum "Si O2"
_cell_formula_units_Z 88
_cell_length_a 16.144025
_cell_length_b 16.144025
_cell_length_c 15.766182
_cell_angle_alpha 90.000000
_cell_angle_beta 90.000000
_cell_angle_gamma 90.000000
_cell_volume 4109.132813
_symmetry_space_group_name_H-M "I -4 2 D"
_symmetry_group_IT_number 122
_symmetry_cell_setting 'tetragonal'
loop_
_space_group_symop_operation_xyz
x,y,z
y,-x,-z
-x,-y,z
-y,x,-z
x,1/2-y,1/4-z
-x,1/2+y,1/4-z
-y,1/2-x,1/4+z
y,1/2+x,1/4+z
1/2+x,1/2+y,1/2+z
1/2+y,1/2-x,1/2-z
1/2-x,1/2-y,1/2+z
1/2-y,1/2+x,1/2-z
1/2+x,-y,3/4-z
1/2-x,y,3/4-z
1/2-y,-x,3/4+z
1/2+y,x,3/4+z
loop_
_atom_site_type_symbol
_atom_site_label
_atom_site_fract_x
_atom_site_fract_y
_atom_site_fract_z
Si Si1 0.013868 0.626552 0.728238
Si Si2 0.485725 0.750000 0.625000
Si Si3 0.871088 0.954427 0.010603
Si Si4 0.959582 0.862541 0.268489
Si Si5 0.533163 0.622496 0.207250
Si Si6 0.237667 0.993198 0.154615
O O1 0.941019 0.585413 0.786625
O O2 0.974349 0.655663 0.638950
O O3 0.048435 0.703154 0.783564
O O4 0.428597 0.695038 0.561829
O O5 0.541530 0.685756 0.679026
O O6 0.826124 0.949170 0.101843
O O7 0.895492 0.050294 0.993220
O O8 0.049004 0.901434 0.290251
O O9 0.938486 0.793618 0.340356
O O10 0.897145 0.938865 0.263276
O O11 0.564974 0.688644 0.277431
#
# Coordination Sequence:
#
# PCOD8311794 Si02
#       6
#    16   8  16  16  16  16
#     4  11  19  37  60  87 113 142 192 250 281 338
#     4  10  20  32  58  88 118 140 184 246 280 324
#     4  10  21  39  60  85 113 149 199 236 273 337
#     4  10  20  37  56  90 111 147 196 240 275 339
#     4  11  20  36  63  81 116 149 194 239 288 332
#     4  11  21  33  60  89 111 148 188 241 293 328
#
# _framework density 21.415709
#
# number of rings (size 3 to 8) (size 9 to 14) (size 15 to 20)
#    0.000    1.455    3.636    3.818    0.000    2.909 
#    0.000    0.000    0.000   32.727    0.000    0.000 
#    0.000    0.000    0.000    0.000    0.000    0.000 
#
# Total GULP energy -545085.207350 kJ/mol
# GULP energy per Si atom -12388.300167 kJ/mol
# Density = 2.136697 g / cm^3
# Si number density = 21.415709 Si / 1000 Ang^3
#
#
#
# Elastic Constant Matrix: (Units=GPa)
#
#
# Indices 1 2 3 4 5 6 
#
# 1 85.6625 7.6889 36.0721 0.0000 0.0000 0.0000
# 2 7.6889 85.6625 36.0721 0.0000 0.0000 0.0000
# 3 36.0721 36.0721 162.4993 0.0000 0.0000 0.0000
# 4 0.0000 0.0000 0.0000 37.0195 0.0000 0.0000
# 5 0.0000 0.0000 0.0000 0.0000 37.0195 0.0000
# 6 0.0000 0.0000 0.0000 0.0000 0.0000 8.2038
#
#
#
# Elastic Compliance Matrix: (Units=1/GPa)
#
#
# Indices 1 2 3 4 5 6 
#
# 1 0.012878 0.000053 -0.002870 0.000000 0.000000 0.000000
# 2 0.000053 0.012878 -0.002870 0.000000 0.000000 0.000000
# 3 -0.002870 -0.002870 0.007428 0.000000 0.000000 0.000000
# 4 0.000000 0.000000 0.000000 0.027013 0.000000 0.000000
# 5 0.000000 0.000000 0.000000 0.000000 0.027013 0.000000
# 6 0.000000 0.000000 0.000000 0.000000 0.000000 0.121895
#
#
# Mechanical properties :
#
#
# Convention : Reuss Voigt Hill
#
# Bulk Modulus (GPa) = 45.85517 54.83226 50.34372
# Shear Modulus (GPa) = 21.95399 33.38129 27.66764
#
# Velocity S-wave (km/s) = 3.20525 3.95236 3.59824
# Velocity P-wave (km/s) = 5.92930 6.81818 6.38921
#
# Compressibility (1/GPa) = 0.02180779
#
# Stress axis : x y z
#
# Youngs Moduli (GPa) = 77.65377 77.65377 134.62193
#
# Poissons Ratio (x) = -0.00410 0.38641
# Poissons Ratio (y) = -0.00410 0.38641
# Poissons Ratio (z) = 0.22289 0.22289
#
# Static dielectric constant tensor:
#      x y z
#    x 3.664000 0.000000 0.000000 
#    y 0.000000 3.664000 0.000000 
#    z 0.000000 0.000000 4.211070 
# 
# 
# High freq. dielectric constant tensor:
#      x y z
#    x 1.803230 0.000000 0.000000 
#    y 0.000000 1.803230 0.000000 
#    z 0.000000 0.000000 1.882050 
# 
# From -- ./inp_files/5392.got.cif
#   From: 2010.03.12/outbox.cif.g09.slc.cpg/sg122_3_cif.got.tgz:5392.got - 2010.04.06 16:17:16.
