data_PCOD8311925
_publ_section_title
;
Structure prediction by ZEFSAII (Michael W. Deem and Ramdas Pophale) SiO2 
 PCOD8311925
Probable space group: I -4 2 D
;
_chemical_formula_sum "Si O2"
_cell_formula_units_Z 88
_cell_length_a 14.261450
_cell_length_b 14.261450
_cell_length_c 19.415924
_cell_angle_alpha 90.000000
_cell_angle_beta 90.000000
_cell_angle_gamma 90.000000
_cell_volume 3948.984514
_symmetry_space_group_name_H-M "I -4 2 D"
_symmetry_group_IT_number 122
_symmetry_cell_setting 'tetragonal'
loop_
_space_group_symop_operation_xyz
x,y,z
y,-x,-z
-x,-y,z
-y,x,-z
x,1/2-y,1/4-z
-x,1/2+y,1/4-z
-y,1/2-x,1/4+z
y,1/2+x,1/4+z
1/2+x,1/2+y,1/2+z
1/2+y,1/2-x,1/2-z
1/2-x,1/2-y,1/2+z
1/2-y,1/2+x,1/2-z
1/2+x,-y,3/4-z
1/2-x,y,3/4-z
1/2-y,-x,3/4+z
1/2+y,x,3/4+z
loop_
_atom_site_type_symbol
_atom_site_label
_atom_site_fract_x
_atom_site_fract_y
_atom_site_fract_z
Si Si1 0.250000 0.033282 0.875000
Si Si2 0.919044 0.932838 0.787944
Si Si3 0.299885 0.464775 0.809030
Si Si4 0.674441 0.041708 0.082748
Si Si5 0.135031 0.451937 0.725071
Si Si6 0.034533 0.349505 0.251069
O O1 0.160777 0.095205 0.845206
O O2 0.287154 0.962081 0.817286
O O3 0.960697 0.846073 0.744288
O O4 0.866002 0.996773 0.734808
O O5 0.000000 0.000000 0.822134
O O6 0.250000 0.515493 0.875000
O O7 0.364659 0.385652 0.844031
O O8 0.225614 0.407892 0.761809
O O9 0.656900 0.972164 0.145850
O O10 0.785791 0.057963 0.068879
O O11 0.047503 0.383356 0.731525
O O12 0.929498 0.388842 0.257735
#
# Coordination Sequence:
#
# PCOD8311925 Si02
#       6
#     8  16  16  16  16  16
#     4  10  22  42  66 102 120 172 240 264 328 410
#     4   9  21  38  67  92 130 172 213 277 329 397
#     4  11  21  40  64  97 134 173 217 268 342 391
#     4  10  22  42  62  99 131 164 227 271 320 402
#     4  11  23  39  66  93 130 174 211 267 330 401
#     4  10  24  44  70  93 133 179 219 273 336 402
#
# _framework density 22.284210000000002
#
# number of rings (size 3 to 8) (size 9 to 14) (size 15 to 20)
#    0.000    1.818    1.818    1.091   10.182    2.909 
#    8.182    0.000    8.000    0.000    0.000    0.000 
#    0.000    0.000    0.000    0.000    0.000    0.000 
#
# Total GULP energy -545131.597473 kJ/mol
# GULP energy per Si atom -12389.354488 kJ/mol
# Density = 2.223349 g / cm^3
# Si number density = 22.284210 Si / 1000 Ang^3
#
#
#
# Elastic Constant Matrix: (Units=GPa)
#
#
# Indices 1 2 3 4 5 6 
#
# 1 84.8955 18.2138 27.0817 0.0000 0.0000 0.0000
# 2 18.2138 84.8955 27.0817 0.0000 0.0000 0.0000
# 3 27.0817 27.0817 92.6849 0.0000 0.0000 0.0000
# 4 0.0000 0.0000 0.0000 26.4133 0.0000 0.0000
# 5 0.0000 0.0000 0.0000 0.0000 26.4133 0.0000
# 6 0.0000 0.0000 0.0000 0.0000 0.0000 15.1977
#
#
#
# Elastic Compliance Matrix: (Units=1/GPa)
#
#
# Indices 1 2 3 4 5 6 
#
# 1 0.013227 -0.001770 -0.003348 0.000000 0.000000 0.000000
# 2 -0.001770 0.013227 -0.003348 0.000000 0.000000 0.000000
# 3 -0.003348 -0.003348 0.012746 0.000000 0.000000 0.000000
# 4 0.000000 0.000000 0.000000 0.037860 0.000000 0.000000
# 5 0.000000 0.000000 0.000000 0.000000 0.037860 0.000000
# 6 0.000000 0.000000 0.000000 0.000000 0.000000 0.065799
#
#
# Mechanical properties :
#
#
# Convention : Reuss Voigt Hill
#
# Bulk Modulus (GPa) = 44.90556 45.24782 45.07669
# Shear Modulus (GPa) = 24.38179 26.27811 25.32995
#
# Velocity S-wave (km/s) = 3.31135 3.43771 3.37512
# Velocity P-wave (km/s) = 5.90043 6.00884 5.95488
#
# Compressibility (1/GPa) = 0.02226896
#
# Stress axis : x y z
#
# Youngs Moduli (GPa) = 75.60419 75.60420 78.45891
#
# Poissons Ratio (x) = 0.13381 0.26265
# Poissons Ratio (y) = 0.13381 0.26265
# Poissons Ratio (z) = 0.25309 0.25309
#
# Static dielectric constant tensor:
#      x y z
#    x 4.527440 0.000000 0.000000 
#    y 0.000000 4.527440 0.000000 
#    z 0.000000 0.000000 4.249500 
# 
# 
# High freq. dielectric constant tensor:
#      x y z
#    x 1.863340 0.000000 0.000000 
#    y 0.000000 1.863340 0.000000 
#    z 0.000000 0.000000 1.898900 
# 
# From -- ./inp_files/7199.got.cif
#   From: 2010.03.12/outbox.cif.g09.slc.cpg/sg122_4_cif.got.tgz:7199.got - 2010.04.06 16:17:16.
