data_PCOD8311157
_publ_section_title
;
Structure prediction by ZEFSAII (Michael W. Deem and Ramdas Pophale) SiO2 
 PCOD8311157
Probable space group: I -4 C 2
;
_chemical_formula_sum "Si O2"
_cell_formula_units_Z 96
_cell_length_a 24.187331
_cell_length_b 24.187331
_cell_length_c 8.801959
_cell_angle_alpha 90.000000
_cell_angle_beta 90.000000
_cell_angle_gamma 90.000000
_cell_volume 5149.383500
_symmetry_space_group_name_H-M "I -4 C 2"
_symmetry_group_IT_number 120
_symmetry_cell_setting 'tetragonal'
loop_
_space_group_symop_operation_xyz
x,y,z
y,-x,-z
-x,-y,z
-y,x,-z
y,x,1/2-z
-y,-x,1/2-z
-x,y,1/2+z
x,-y,1/2+z
1/2+x,1/2+y,1/2+z
1/2+y,1/2-x,1/2-z
1/2-x,1/2-y,1/2+z
1/2-y,1/2+x,1/2-z
1/2+y,1/2+x,-z
1/2-y,1/2-x,-z
1/2-x,1/2+y,z
1/2+x,1/2-y,z
loop_
_atom_site_type_symbol
_atom_site_label
_atom_site_fract_x
_atom_site_fract_y
_atom_site_fract_z
Si Si1 0.638691 0.941530 0.071107
Si Si2 0.941530 0.361310 0.571107
Si Si3 0.352001 0.771955 0.428388
Si Si4 0.559210 0.559210 0.567512
Si Si5 0.352002 0.228044 0.571612
Si Si6 0.351681 0.351682 0.929885
O O1 0.631109 0.946387 0.250000
O O2 0.689936 0.903181 0.023509
O O3 0.582389 0.917612 0.000000
O O4 0.652189 0.000000 0.000000
O O5 0.917613 0.417613 0.500000
O O6 0.903181 0.310065 0.523509
O O7 0.295486 0.795486 0.500000
O O8 0.342386 0.771486 0.250000
O O9 0.365610 0.710267 0.487807
O O10 0.577083 0.500000 0.500000
O O11 0.555865 0.555865 0.750000
O O12 0.604022 0.604022 0.507699
O O13 0.295487 0.204514 0.500000
O O14 0.365611 0.289733 0.512194
O O15 0.354266 0.354266 0.750000
#
# Coordination Sequence:
#
# PCOD8311157 Si02
#       6
#    16  16  16  16  16  16
#     4  10  20  34  52  74 101 133 169 209 252 298
#     4  10  20  34  52  74 101 133 169 209 252 298
#     4   9  18  33  52  75 104 135 166 204 250 297
#     4  10  20  36  55  74 101 134 168 209 254 298
#     4   9  18  33  52  75 104 135 166 204 250 297
#     4   9  18  33  54  78 103 134 169 204 247 299
#
# _framework density 18.643007000000001
#
# number of rings (size 3 to 8) (size 9 to 14) (size 15 to 20)
#    0.000    2.500    0.000    2.500    0.000    3.000 
#    0.000    5.000    0.000    0.000    0.000    0.000 
#    0.000    0.000    0.000    0.000    0.000    0.000 
#
# Total GULP energy -595164.931898 kJ/mol
# GULP energy per Si atom -12399.269415 kJ/mol
# Density = 1.860057 g / cm^3
# Si number density = 18.643007 Si / 1000 Ang^3
#
#
#
# Elastic Constant Matrix: (Units=GPa)
#
#
# Indices 1 2 3 4 5 6 
#
# 1 145.1871 84.9743 36.7850 0.0000 0.0000 0.0000
# 2 84.9743 145.1910 36.7861 0.0000 0.0000 0.0000
# 3 36.7850 36.7861 53.8748 0.0000 0.0000 0.0000
# 4 0.0000 0.0000 0.0000 25.8546 0.0000 0.0000
# 5 0.0000 0.0000 0.0000 0.0000 25.8551 0.0000
# 6 0.0000 0.0000 0.0000 0.0000 0.0000 31.4669
#
#
#
# Elastic Compliance Matrix: (Units=1/GPa)
#
#
# Indices 1 2 3 4 5 6 
#
# 1 0.011083 -0.005525 -0.003795 0.000000 0.000000 0.000000
# 2 -0.005525 0.011082 -0.003795 0.000000 0.000000 0.000000
# 3 -0.003795 -0.003795 0.023744 0.000000 0.000000 0.000000
# 4 0.000000 0.000000 0.000000 0.038678 0.000000 0.000000
# 5 0.000000 0.000000 0.000000 0.000000 0.038677 0.000000
# 6 0.000000 0.000000 0.000000 0.000000 0.000000 0.031779
#
#
# Mechanical properties :
#
#
# Convention : Reuss Voigt Hill
#
# Bulk Modulus (GPa) = 50.81311 73.48264 62.14788
# Shear Modulus (GPa) = 26.61958 29.01583 27.81771
#
# Velocity S-wave (km/s) = 3.78280 3.94939 3.86699
# Velocity P-wave (km/s) = 6.81135 7.76519 7.30386
#
# Compressibility (1/GPa) = 0.01967996
#
# Stress axis : x y z
#
# Youngs Moduli (GPa) = 90.23151 90.23337 42.11644
#
# Poissons Ratio (x) = 0.49852 0.15982
# Poissons Ratio (y) = 0.49851 0.15983
# Poissons Ratio (z) = 0.34240 0.34243
#
# Static dielectric constant tensor:
#      x y z
#    x 3.658730 0.000000 0.000000 
#    y 0.000000 3.658750 0.000000 
#    z 0.000000 0.000000 3.299620 
# 
# 
# High freq. dielectric constant tensor:
#      x y z
#    x 1.728380 0.000000 0.000000 
#    y 0.000000 1.728380 0.000000 
#    z 0.000000 0.000000 1.712400 
# 
# From -- ./inp_files/1544.got.cif
#   From: 2010.03.12/outbox.cif.g09.slc.cpg/sg120_1_cif.got.tgz:1544.got - 2010.04.06 16:00:44.
