data_PCOD8311374
_publ_section_title
;
Structure prediction by ZEFSAII (Michael W. Deem and Ramdas Pophale) SiO2 
 PCOD8311374
Probable space group: I -4 2 M
;
_chemical_formula_sum "Si O2"
_cell_formula_units_Z 96
_cell_length_a 16.380028
_cell_length_b 16.380028
_cell_length_c 19.489104
_cell_angle_alpha 90.000000
_cell_angle_beta 90.000000
_cell_angle_gamma 90.000000
_cell_volume 5229.030232
_symmetry_space_group_name_H-M "I -4 2 M"
_symmetry_group_IT_number 121
_symmetry_cell_setting 'tetragonal'
loop_
_space_group_symop_operation_xyz
x,y,z
y,-x,-z
-x,-y,z
-y,x,-z
x,-y,-z
-x,y,-z
-y,-x,z
y,x,z
1/2+x,1/2+y,1/2+z
1/2+y,1/2-x,1/2-z
1/2-x,1/2-y,1/2+z
1/2-y,1/2+x,1/2-z
1/2+x,1/2-y,1/2-z
1/2-x,1/2+y,1/2-z
1/2-y,1/2-x,1/2+z
1/2+y,1/2+x,1/2+z
loop_
_atom_site_type_symbol
_atom_site_label
_atom_site_fract_x
_atom_site_fract_y
_atom_site_fract_z
Si Si1 0.946759 0.817642 0.369625
Si Si2 0.738917 0.398807 0.657126
Si Si3 0.331827 0.200539 0.939905
Si Si4 0.192077 0.328978 0.211744
Si Si5 0.109031 0.754104 0.423536
Si Si6 0.196225 0.937139 0.786116
O O1 0.902067 0.902067 0.392113
O O2 0.882790 0.743530 0.378922
O O3 0.971953 0.823144 0.289782
O O4 0.023999 0.803164 0.418598
O O5 0.666684 0.333317 0.656537
O O6 0.797703 0.385587 0.590269
O O7 0.795823 0.389229 0.724259
O O8 0.699638 0.489028 0.659020
O O9 0.253139 0.253139 0.959434
O O10 0.387209 0.195507 0.008898
O O11 0.262687 0.262687 0.212663
O O12 0.195915 0.381869 0.142243
O O13 0.105305 0.284430 0.214639
O O14 0.179074 0.820927 0.427943
O O15 0.125363 0.874637 0.809914
#
# Coordination Sequence:
#
# PCOD8311374 Si02
#       6
#    16  16  16  16  16  16
#     4  10  18  29  48  76 109 140 171 214 272 330
#     4  10  18  32  53  74 101 140 182 225 268 320
#     4   9  18  32  49  70  99 140 183 215 257 319
#     4   9  17  31  49  71 100 136 178 218 260 317
#     4  10  19  31  49  74 104 141 183 225 265 318
#     4  10  19  31  51  79 108 136 171 223 279 326
#
# _framework density 18.359044999999998
#
# number of rings (size 3 to 8) (size 9 to 14) (size 15 to 20)
#    0.000    2.333    3.333    0.500    0.000    0.667 
#    0.000    2.500    0.000    6.500    0.000    2.333 
#    0.000    6.667    0.000    0.000    0.000    0.333 
#
# Total GULP energy -594887.430457 kJ/mol
# GULP energy per Si atom -12393.488135 kJ/mol
# Density = 1.831726 g / cm^3
# Si number density = 18.359045 Si / 1000 Ang^3
#
#
#
# Elastic Constant Matrix: (Units=GPa)
#
#
# Indices 1 2 3 4 5 6 
#
# 1 63.6232 48.9108 43.6309 0.0000 0.0000 0.0000
# 2 48.9108 63.6166 43.6309 0.0000 0.0000 0.0000
# 3 43.6309 43.6309 92.4007 0.0000 0.0000 0.0000
# 4 0.0000 0.0000 0.0000 27.0278 0.0000 0.0000
# 5 0.0000 0.0000 0.0000 0.0000 27.0280 0.0000
# 6 0.0000 0.0000 0.0000 0.0000 0.0000 20.8767
#
#
#
# Elastic Compliance Matrix: (Units=1/GPa)
#
#
# Indices 1 2 3 4 5 6 
#
# 1 0.040999 -0.026983 -0.006619 0.000000 0.000000 0.000000
# 2 -0.026983 0.041006 -0.006622 0.000000 0.000000 0.000000
# 3 -0.006619 -0.006622 0.017074 0.000000 0.000000 0.000000
# 4 0.000000 0.000000 0.000000 0.036999 0.000000 0.000000
# 5 0.000000 0.000000 0.000000 0.000000 0.036999 0.000000
# 6 0.000000 0.000000 0.000000 0.000000 0.000000 0.047900
#
#
# Mechanical properties :
#
#
# Convention : Reuss Voigt Hill
#
# Bulk Modulus (GPa) = 53.66570 54.66508 54.16539
# Shear Modulus (GPa) = 16.25305 20.55103 18.40204
#
# Velocity S-wave (km/s) = 2.97861 3.34937 3.16941
# Velocity P-wave (km/s) = 6.41281 6.69312 6.55446
#
# Compressibility (1/GPa) = 0.01863388
#
# Stress axis : x y z
#
# Youngs Moduli (GPa) = 24.39055 24.38682 58.56717
#
# Poissons Ratio (x) = 0.65802 0.38764
# Poissons Ratio (y) = 0.65812 0.38781
# Poissons Ratio (z) = 0.16143 0.16148
#
# Static dielectric constant tensor:
#      x y z
#    x 3.187700 0.000000 0.000000 
#    y 0.000000 3.187710 0.000000 
#    z 0.000000 0.000000 3.567250 
# 
# 
# High freq. dielectric constant tensor:
#      x y z
#    x 1.685250 0.000000 0.000000 
#    y 0.000000 1.685250 0.000000 
#    z 0.000000 0.000000 1.708040 
# 
# From -- ./inp_files/5385.got.cif
#   From: 2010.03.12/outbox.cif.g09.slc.cpg/sg121_3_cif.got.tgz:5385.got - 2010.04.06 16:06:48.
