data_PCOD8311221
_publ_section_title
;
Structure prediction by ZEFSAII (Michael W. Deem and Ramdas Pophale) SiO2 
 PCOD8311221
Probable space group: I -4 C 2
;
_chemical_formula_sum "Si O2"
_cell_formula_units_Z 88
_cell_length_a 12.570746
_cell_length_b 12.570746
_cell_length_c 25.582844
_cell_angle_alpha 90.000000
_cell_angle_beta 90.000000
_cell_angle_gamma 90.000000
_cell_volume 4042.694514
_symmetry_space_group_name_H-M "I -4 C 2"
_symmetry_group_IT_number 120
_symmetry_cell_setting 'tetragonal'
loop_
_space_group_symop_operation_xyz
x,y,z
y,-x,-z
-x,-y,z
-y,x,-z
y,x,1/2-z
-y,-x,1/2-z
-x,y,1/2+z
x,-y,1/2+z
1/2+x,1/2+y,1/2+z
1/2+y,1/2-x,1/2-z
1/2-x,1/2-y,1/2+z
1/2-y,1/2+x,1/2-z
1/2+y,1/2+x,-z
1/2-y,1/2-x,-z
1/2-x,1/2+y,z
1/2+x,1/2-y,z
loop_
_atom_site_type_symbol
_atom_site_label
_atom_site_fract_x
_atom_site_fract_y
_atom_site_fract_z
Si Si1 0.905187 0.753819 0.353169
Si Si2 0.590494 0.909507 0.000000
Si Si3 0.953370 0.224019 0.636891
Si Si4 0.666688 0.039547 0.754034
Si Si5 0.335957 0.088336 0.578269
Si Si6 0.353182 0.733107 0.576660
O O1 0.876172 0.875508 0.363421
O O2 0.908493 0.737098 0.291286
O O3 0.810570 0.687885 0.378311
O O4 0.015874 0.719556 0.378404
O O5 0.591496 0.799083 0.030706
O O6 0.596855 0.017532 0.036228
O O7 0.979573 0.260687 0.695551
O O8 0.916490 0.329681 0.605176
O O9 0.053738 0.171397 0.607311
O O10 0.571322 0.120178 0.767534
O O11 0.237640 0.155338 0.553002
#
# Coordination Sequence:
#
# PCOD8311221 Si02
#       6
#    16   8  16  16  16  16
#     4  10  21  39  60  90 128 170 207 264 321 384
#     4  10  24  41  68  93 122 162 214 267 336 372
#     4  11  22  38  62  89 129 172 209 261 330 375
#     4  11  20  34  63  92 126 165 218 270 319 384
#     4  10  23  42  63  91 124 160 214 265 317 395
#     4  10  23  41  62  91 124 160 209 266 325 389
#
# _framework density 21.767661
#
# number of rings (size 3 to 8) (size 9 to 14) (size 15 to 20)
#    0.000    1.636    3.636    0.545    0.000    9.455 
#    0.000    0.909    0.000    2.182    0.000    0.000 
#    0.000    0.000    0.000    0.000    0.000    0.000 
#
# Total GULP energy -545350.838780 kJ/mol
# GULP energy per Si atom -12394.337245 kJ/mol
# Density = 2.171812 g / cm^3
# Si number density = 21.767661 Si / 1000 Ang^3
#
#
#
# Elastic Constant Matrix: (Units=GPa)
#
#
# Indices 1 2 3 4 5 6 
#
# 1 71.4934 23.6884 22.8890 0.0000 0.0000 0.0000
# 2 23.6884 71.4936 22.8885 0.0000 0.0000 0.0000
# 3 22.8890 22.8885 101.5559 0.0000 0.0000 0.0000
# 4 0.0000 0.0000 0.0000 23.4243 0.0000 0.0000
# 5 0.0000 0.0000 0.0000 0.0000 23.4244 0.0000
# 6 0.0000 0.0000 0.0000 0.0000 0.0000 29.5849
#
#
#
# Elastic Compliance Matrix: (Units=1/GPa)
#
#
# Indices 1 2 3 4 5 6 
#
# 1 0.016351 -0.004567 -0.002656 0.000000 0.000000 0.000000
# 2 -0.004567 0.016351 -0.002656 0.000000 0.000000 0.000000
# 3 -0.002656 -0.002656 0.011044 0.000000 0.000000 0.000000
# 4 0.000000 0.000000 0.000000 0.042691 0.000000 0.000000
# 5 0.000000 0.000000 0.000000 0.000000 0.042691 0.000000
# 6 0.000000 0.000000 0.000000 0.000000 0.000000 0.033801
#
#
# Mechanical properties :
#
#
# Convention : Reuss Voigt Hill
#
# Bulk Modulus (GPa) = 41.68786 42.60830 42.14808
# Shear Modulus (GPa) = 26.22169 26.95851 26.59010
#
# Velocity S-wave (km/s) = 3.47452 3.52300 3.49885
# Velocity P-wave (km/s) = 5.94048 6.01376 5.97723
#
# Compressibility (1/GPa) = 0.02398780
#
# Stress axis : x y z
#
# Youngs Moduli (GPa) = 61.15864 61.15898 90.54763
#
# Poissons Ratio (x) = 0.27934 0.24048
# Poissons Ratio (y) = 0.27934 0.24047
# Poissons Ratio (z) = 0.16243 0.16242
#
# Static dielectric constant tensor:
#      x y z
#    x 4.082670 0.000000 0.000000 
#    y 0.000000 4.082670 0.000000 
#    z 0.000000 0.000000 3.934570 
# 
# 
# High freq. dielectric constant tensor:
#      x y z
#    x 1.852900 0.000000 0.000000 
#    y 0.000000 1.852900 0.000000 
#    z 0.000000 0.000000 1.862160 
# 
# From -- ./inp_files/6565.got.cif
#   From: 2010.03.12/outbox.cif.g09.slc.cpg/sg120_4_cif.got.tgz:6565.got - 2010.04.06 16:00:44.
