data_PCOD8311460
_publ_section_title
;
Structure prediction by ZEFSAII (Michael W. Deem and Ramdas Pophale) SiO2 
 PCOD8311460
Probable space group: I -4 2 M
;
_chemical_formula_sum "Si O2"
_cell_formula_units_Z 112
_cell_length_a 18.011286
_cell_length_b 18.011286
_cell_length_c 18.309027
_cell_angle_alpha 90.000000
_cell_angle_beta 90.000000
_cell_angle_gamma 90.000000
_cell_volume 5939.565965
_symmetry_space_group_name_H-M "I -4 2 M"
_symmetry_group_IT_number 121
_symmetry_cell_setting 'tetragonal'
loop_
_space_group_symop_operation_xyz
x,y,z
y,-x,-z
-x,-y,z
-y,x,-z
x,-y,-z
-x,y,-z
-y,-x,z
y,x,z
1/2+x,1/2+y,1/2+z
1/2+y,1/2-x,1/2-z
1/2-x,1/2-y,1/2+z
1/2-y,1/2+x,1/2-z
1/2+x,1/2-y,1/2-z
1/2-x,1/2+y,1/2-z
1/2-y,1/2-x,1/2+z
1/2+y,1/2+x,1/2+z
loop_
_atom_site_type_symbol
_atom_site_label
_atom_site_fract_x
_atom_site_fract_y
_atom_site_fract_z
Si Si1 0.083370 0.201944 0.345329
Si Si2 0.302459 0.582969 0.672012
Si Si3 0.802459 0.082969 0.827987
Si Si4 0.645876 0.860339 0.164085
Si Si5 0.145876 0.360339 0.335915
Si Si6 0.500000 0.914068 0.580093
Si Si7 0.798056 0.916630 0.654671
O O1 0.136736 0.136736 0.376691
O O2 0.079223 0.196075 0.258819
O O3 0.116717 0.282058 0.367222
O O4 1.000000 0.193203 0.378084
O O5 0.377061 0.622940 0.643094
O O6 0.297778 0.500000 0.638838
O O7 0.233136 0.632622 0.646637
O O8 0.303926 0.579223 0.758818
O O9 0.877062 0.122939 0.856905
O O10 0.733136 0.132622 0.853363
O O11 0.631054 0.868947 0.250000
O O12 0.616718 0.782058 0.132779
O O13 0.604758 0.926801 0.124767
O O14 0.104758 0.426801 0.375232
O O15 0.500000 0.874612 0.500000
O O16 0.500000 0.000000 0.566771
O O17 0.863264 0.863264 0.623309
#
# Coordination Sequence:
#
# PCOD8311460 Si02
#       7
#    16  16  16  16  16  16  16
#     4   9  17  28  45  73 106 138 175 220 269 313
#     4   9  16  27  44  72 104 135 175 223 269 308
#     4   9  16  27  44  72 104 135 175 223 269 308
#     4  10  19  32  53  76 101 137 179 219 259 316
#     4  10  19  32  53  76 101 137 179 219 259 316
#     4  11  24  36  50  78 111 139 169 215 266 313
#     4   9  17  28  45  73 106 138 175 220 269 313
#
# _framework density 18.856597000000001
#
# number of rings (size 3 to 8) (size 9 to 14) (size 15 to 20)
#    0.000    2.429    1.429    1.714    4.000    4.000 
#    0.000    2.857    0.000    3.429    0.000    0.000 
#    0.000    1.143    0.000    6.000    0.000    5.714 
#
# Total GULP energy -694121.781121 kJ/mol
# GULP energy per Si atom -12395.031806 kJ/mol
# Density = 1.881368 g / cm^3
# Si number density = 18.856597 Si / 1000 Ang^3
#
#
#
# Elastic Constant Matrix: (Units=GPa)
#
#
# Indices 1 2 3 4 5 6 
#
# 1 160.6864 103.7640 21.1029 0.0000 0.0000 0.0000
# 2 103.7640 160.6921 21.1043 0.0000 0.0000 0.0000
# 3 21.1029 21.1043 24.9510 0.0000 0.0000 0.0000
# 4 0.0000 0.0000 0.0000 4.4118 0.0000 0.0000
# 5 0.0000 0.0000 0.0000 0.0000 4.4123 0.0000
# 6 0.0000 0.0000 0.0000 0.0000 0.0000 38.0388
#
#
#
# Elastic Compliance Matrix: (Units=1/GPa)
#
#
# Indices 1 2 3 4 5 6 
#
# 1 0.010969 -0.006598 -0.003697 0.000000 0.000000 0.000000
# 2 -0.006598 0.010969 -0.003698 0.000000 0.000000 0.000000
# 3 -0.003697 -0.003698 0.046333 0.000000 0.000000 0.000000
# 4 0.000000 0.000000 0.000000 0.226662 0.000000 0.000000
# 5 0.000000 0.000000 0.000000 0.000000 0.226637 0.000000
# 6 0.000000 0.000000 0.000000 0.000000 0.000000 0.026289
#
#
# Mechanical properties :
#
#
# Convention : Reuss Voigt Hill
#
# Bulk Modulus (GPa) = 24.82225 70.91911 47.87068
# Shear Modulus (GPa) = 8.48502 22.72982 15.60742
#
# Velocity S-wave (km/s) = 2.12357 3.47566 2.88008
# Velocity P-wave (km/s) = 4.38235 7.33473 6.04166
#
# Compressibility (1/GPa) = 0.04028643
#
# Stress axis : x y z
#
# Youngs Moduli (GPa) = 91.16328 91.16548 21.58282
#
# Poissons Ratio (x) = 0.60148 0.07979
# Poissons Ratio (y) = 0.60147 0.07981
# Poissons Ratio (z) = 0.33704 0.33711
#
# Static dielectric constant tensor:
#      x y z
#    x 3.611610 0.000000 0.000000 
#    y 0.000000 3.611560 0.000000 
#    z 0.000000 0.000000 2.939080 
# 
# 
# High freq. dielectric constant tensor:
#      x y z
#    x 1.745840 0.000000 0.000000 
#    y 0.000000 1.745840 0.000000 
#    z 0.000000 0.000000 1.659230 
# 
# From -- ./inp_files/6634.got.cif
#   From: 2010.03.12/outbox.cif.g09.slc.cpg/sg121_4_cif.got.tgz:6634.got - 2010.04.06 16:06:48.
