data_PCOD8311569
_publ_section_title
;
Structure prediction by ZEFSAII (Michael W. Deem and Ramdas Pophale) SiO2 
 PCOD8311569
Probable space group: I -4 2 M
;
_chemical_formula_sum "Si O2"
_cell_formula_units_Z 56
_cell_length_a 13.961777
_cell_length_b 13.961777
_cell_length_c 14.793755
_cell_angle_alpha 90.000000
_cell_angle_beta 90.000000
_cell_angle_gamma 90.000000
_cell_volume 2883.764666
_symmetry_space_group_name_H-M "I -4 2 M"
_symmetry_group_IT_number 121
_symmetry_cell_setting 'tetragonal'
loop_
_space_group_symop_operation_xyz
x,y,z
y,-x,-z
-x,-y,z
-y,x,-z
x,-y,-z
-x,y,-z
-y,-x,z
y,x,z
1/2+x,1/2+y,1/2+z
1/2+y,1/2-x,1/2-z
1/2-x,1/2-y,1/2+z
1/2-y,1/2+x,1/2-z
1/2+x,1/2-y,1/2-z
1/2-x,1/2+y,1/2-z
1/2-y,1/2-x,1/2+z
1/2+y,1/2+x,1/2+z
loop_
_atom_site_type_symbol
_atom_site_label
_atom_site_fract_x
_atom_site_fract_y
_atom_site_fract_z
Si Si1 0.923850 0.368877 0.733729
Si Si2 0.739837 0.903120 0.453470
Si Si3 0.152194 0.000000 0.000000
Si Si4 0.134158 0.286908 0.088952
O O1 0.879530 0.473411 0.716330
O O2 0.926177 0.303662 0.645032
O O3 0.857335 0.320700 0.808750
O O4 0.826534 0.826534 0.444555
O O5 0.647841 0.870677 0.514413
O O6 0.780970 0.000000 0.500000
O O7 0.221990 0.961271 0.921735
O O8 0.085188 0.914813 0.039968
O O9 0.226297 0.226297 0.066799
#
# Coordination Sequence:
#
# PCOD8311569 Si02
#       4
#    16  16   8  16
#     4  11  22  37  60  92 121 157 203 258 308 369
#     4  11  23  42  64  88 125 168 211 258 309 367
#     4   9  18  34  57  86 118 154 195 244 308 371
#     4  10  20  37  59  85 120 158 199 252 308 365
#
# _framework density 19.419060000000002
#
# number of rings (size 3 to 8) (size 9 to 14) (size 15 to 20)
#    0.000    1.571    2.857    2.571    0.000    0.286 
#    0.000    2.857    0.000    3.429    0.000    0.000 
#    0.000    0.000    0.000    0.000    0.000    0.000 
#
# Total GULP energy -346911.662128 kJ/mol
# GULP energy per Si atom -12389.702219 kJ/mol
# Density = 1.937486 g / cm^3
# Si number density = 19.419060 Si / 1000 Ang^3
#
#
#
# Elastic Constant Matrix: (Units=GPa)
#
#
# Indices 1 2 3 4 5 6 
#
# 1 89.7361 35.7343 39.1053 0.0000 0.0000 0.0000
# 2 35.7343 89.7365 39.1052 0.0000 0.0000 0.0000
# 3 39.1053 39.1052 122.5466 0.0000 0.0000 0.0000
# 4 0.0000 0.0000 0.0000 31.7857 0.0000 0.0000
# 5 0.0000 0.0000 0.0000 0.0000 31.7859 0.0000
# 6 0.0000 0.0000 0.0000 0.0000 0.0000 -1.2327
#
#
#
# Elastic Compliance Matrix: (Units=1/GPa)
#
#
# Indices 1 2 3 4 5 6 
#
# 1 0.014233 -0.004284 -0.003175 0.000000 0.000000 0.000000
# 2 -0.004284 0.014233 -0.003175 0.000000 0.000000 0.000000
# 3 -0.003175 -0.003175 0.010186 0.000000 0.000000 0.000000
# 4 0.000000 0.000000 0.000000 0.031461 0.000000 0.000000
# 5 0.000000 0.000000 0.000000 0.000000 0.031461 0.000000
# 6 0.000000 0.000000 0.000000 0.000000 0.000000 -0.811216
#
#
# Mechanical properties :
#
#
# Convention : Reuss Voigt Hill
#
# Bulk Modulus (GPa) = 57.52028 58.87875 58.19952
# Shear Modulus (GPa) = -7.32516 25.00607 8.84045
#
# Velocity S-wave (km/s) = -1.94431 3.59236 2.13596
# Velocity P-wave (km/s) = 4.96431 6.89874 6.00987
#
# Compressibility (1/GPa) = 0.01738517
#
# Stress axis : x y z
#
# Youngs Moduli (GPa) = 70.25718 70.25760 98.17084
#
# Poissons Ratio (x) = 0.30101 0.31167
# Poissons Ratio (y) = 0.30101 0.31167
# Poissons Ratio (z) = 0.22305 0.22305
#
# Static dielectric constant tensor:
#      x y z
#    x 3.664940 0.000000 0.000000 
#    y 0.000000 3.664940 0.000000 
#    z 0.000000 0.000000 3.247840 
# 
# 
# High freq. dielectric constant tensor:
#      x y z
#    x 1.760080 0.000000 0.000000 
#    y 0.000000 1.760080 0.000000 
#    z 0.000000 0.000000 1.746400 
# 
# From -- ./inp_files/2744.got.cif
#   From: 2010.03.12/outbox.cif.g09.slc.cpg/sg121_2_cif.got.tgz:2744.got - 2010.04.06 16:06:48.
