data_PCOD8311135
_publ_section_title
;
Structure prediction by ZEFSAII (Michael W. Deem and Ramdas Pophale) SiO2 
 PCOD8311135
Probable space group: I -4 C 2
;
_chemical_formula_sum "Si O2"
_cell_formula_units_Z 112
_cell_length_a 18.691739
_cell_length_b 18.691739
_cell_length_c 18.821021
_cell_angle_alpha 90.000000
_cell_angle_beta 90.000000
_cell_angle_gamma 90.000000
_cell_volume 6575.709149
_symmetry_space_group_name_H-M "I -4 C 2"
_symmetry_group_IT_number 120
_symmetry_cell_setting 'tetragonal'
loop_
_space_group_symop_operation_xyz
x,y,z
y,-x,-z
-x,-y,z
-y,x,-z
y,x,1/2-z
-y,-x,1/2-z
-x,y,1/2+z
x,-y,1/2+z
1/2+x,1/2+y,1/2+z
1/2+y,1/2-x,1/2-z
1/2-x,1/2-y,1/2+z
1/2-y,1/2+x,1/2-z
1/2+y,1/2+x,-z
1/2-y,1/2-x,-z
1/2-x,1/2+y,z
1/2+x,1/2-y,z
loop_
_atom_site_type_symbol
_atom_site_label
_atom_site_fract_x
_atom_site_fract_y
_atom_site_fract_z
Si Si1 0.653432 0.093661 0.316433
Si Si2 0.083391 0.497722 0.127054
Si Si3 0.295164 0.802163 0.795614
Si Si4 0.256590 0.334579 0.054216
Si Si5 0.657720 0.061890 0.848588
Si Si6 0.730592 0.125498 0.460437
Si Si7 0.523236 0.195022 0.993049
O O1 0.567362 0.106363 0.326263
O O2 0.689786 0.134843 0.252188
O O3 0.698567 0.119149 0.382977
O O4 0.667859 0.009916 0.304122
O O5 0.095560 0.421920 0.168299
O O6 0.127762 0.497574 0.054765
O O7 0.000000 0.500000 0.106402
O O8 0.228896 0.771105 0.750000
O O9 0.311834 0.754685 0.864152
O O10 0.280135 0.883145 0.823410
O O11 0.336940 0.308614 0.036962
O O12 0.247455 0.419593 0.044596
O O13 0.200853 0.299148 0.000000
O O14 0.662807 0.051305 0.933004
O O15 0.673941 0.173941 0.500000
O O16 0.741717 0.048147 0.495907
#
# Coordination Sequence:
#
# PCOD8311135 Si02
#       7
#    16  16  16  16  16  16  16
#     4  10  22  34  50  80 114 147 182 223 271 336
#     4  10  19  32  52  82 117 149 185 220 270 330
#     4  12  23  37  53  75 111 155 186 231 277 325
#     4  11  21  38  55  78 108 145 189 231 277 332
#     4  10  22  34  50  78 113 149 185 223 274 331
#     4  10  20  34  55  81 109 140 183 230 270 327
#     4  11  19  34  58  80 105 148 190 228 275 334
#
# _framework density 17.032382999999999
#
# number of rings (size 3 to 8) (size 9 to 14) (size 15 to 20)
#    0.000    1.429    5.714    0.429    2.000    2.857 
#    0.000    0.000    0.000    0.429    0.000    0.000 
#    0.000    0.571    0.000    0.000    0.000    0.000 
#
# Total GULP energy -693954.122787 kJ/mol
# GULP energy per Si atom -12392.037907 kJ/mol
# Density = 1.699362 g / cm^3
# Si number density = 17.032383 Si / 1000 Ang^3
#
#
#
# Elastic Constant Matrix: (Units=GPa)
#
#
# Indices 1 2 3 4 5 6 
#
# 1 89.6510 56.5822 33.8993 0.0000 0.0000 0.0000
# 2 56.5822 89.6492 33.8985 0.0000 0.0000 0.0000
# 3 33.8993 33.8985 67.1241 0.0000 0.0000 0.0000
# 4 0.0000 0.0000 0.0000 26.7854 0.0000 0.0000
# 5 0.0000 0.0000 0.0000 0.0000 26.7858 0.0000
# 6 0.0000 0.0000 0.0000 0.0000 0.0000 23.8086
#
#
#
# Elastic Compliance Matrix: (Units=1/GPa)
#
#
# Indices 1 2 3 4 5 6 
#
# 1 0.019585 -0.010656 -0.004510 0.000000 0.000000 0.000000
# 2 -0.010656 0.019585 -0.004509 0.000000 0.000000 0.000000
# 3 -0.004510 -0.004509 0.019452 0.000000 0.000000 0.000000
# 4 0.000000 0.000000 0.000000 0.037334 0.000000 0.000000
# 5 0.000000 0.000000 0.000000 0.000000 0.037333 0.000000
# 6 0.000000 0.000000 0.000000 0.000000 0.000000 0.042002
#
#
# Mechanical properties :
#
#
# Convention : Reuss Voigt Hill
#
# Bulk Modulus (GPa) = 51.88560 55.02048 53.45304
# Shear Modulus (GPa) = 22.61783 23.61224 23.11504
#
# Velocity S-wave (km/s) = 3.64803 3.72736 3.68791
# Velocity P-wave (km/s) = 6.94789 7.13428 7.04170
#
# Compressibility (1/GPa) = 0.01927317
#
# Stress axis : x y z
#
# Youngs Moduli (GPa) = 51.05991 51.05924 51.40749
#
# Poissons Ratio (x) = 0.54408 0.23182
# Poissons Ratio (y) = 0.54409 0.23181
# Poissons Ratio (z) = 0.23025 0.23024
#
# Static dielectric constant tensor:
#      x y z
#    x 3.332580 0.000000 0.000000 
#    y 0.000000 3.332590 0.000000 
#    z 0.000000 0.000000 3.353990 
# 
# 
# High freq. dielectric constant tensor:
#      x y z
#    x 1.637010 0.000000 0.000000 
#    y 0.000000 1.637010 0.000000 
#    z 0.000000 0.000000 1.677840 
# 
# From -- ./inp_files/5504.got.cif
#   From: 2010.03.12/outbox.cif.g09.slc.cpg/sg120_3_cif.got.tgz:5504.got - 2010.04.06 16:00:44.
