data_PCOD8311171
_publ_section_title
;
Structure prediction by ZEFSAII (Michael W. Deem and Ramdas Pophale) SiO2 
 PCOD8311171
Probable space group: I -4 C 2
;
_chemical_formula_sum "Si O2"
_cell_formula_units_Z 120
_cell_length_a 14.641046
_cell_length_b 14.641046
_cell_length_c 30.494975
_cell_angle_alpha 90.000000
_cell_angle_beta 90.000000
_cell_angle_gamma 90.000000
_cell_volume 6536.909793
_symmetry_space_group_name_H-M "I -4 C 2"
_symmetry_group_IT_number 120
_symmetry_cell_setting 'tetragonal'
loop_
_space_group_symop_operation_xyz
x,y,z
y,-x,-z
-x,-y,z
-y,x,-z
y,x,1/2-z
-y,-x,1/2-z
-x,y,1/2+z
x,-y,1/2+z
1/2+x,1/2+y,1/2+z
1/2+y,1/2-x,1/2-z
1/2-x,1/2-y,1/2+z
1/2-y,1/2+x,1/2-z
1/2+y,1/2+x,-z
1/2-y,1/2-x,-z
1/2-x,1/2+y,z
1/2+x,1/2-y,z
loop_
_atom_site_type_symbol
_atom_site_label
_atom_site_fract_x
_atom_site_fract_y
_atom_site_fract_z
Si Si1 0.357568 0.004590 0.256674
Si Si2 0.419101 0.378129 0.549394
Si Si3 0.152576 0.217216 0.867685
Si Si4 0.416861 0.583140 0.750000
Si Si5 0.910130 0.876157 0.951362
Si Si6 0.140210 0.195165 0.136718
Si Si7 0.805472 0.025320 0.691747
Si Si8 0.052755 0.226917 0.677289
O O1 0.410844 0.923495 0.232298
O O2 0.273748 0.039454 0.227300
O O3 0.327936 0.967436 0.304577
O O4 0.390798 0.343116 0.501032
O O5 0.393986 0.483325 0.555135
O O6 0.526886 0.360796 0.557491
O O7 0.360611 0.322948 0.584837
O O8 0.124781 0.202717 0.918520
O O9 0.206621 0.311184 0.858189
O O10 0.061904 0.215320 0.838460
O O11 0.223044 0.134892 0.857219
O O12 0.506490 0.596734 0.781923
O O13 0.328756 0.586039 0.780421
O O14 0.038569 0.189687 0.155172
O O15 0.193237 0.115973 0.162857
#
# Coordination Sequence:
#
# PCOD8311171 Si02
#       8
#    16  16  16   8  16  16  16  16
#     4  10  20  36  54  70 103 152 188 219 255 304
#     4   9  18  33  56  84 103 143 172 217 272 327
#     4  11  21  34  55  81 110 143 168 228 270 314
#     4   8  20  33  52  68  98 144 160 213 284 298
#     4   9  17  34  57  79 113 135 174 218 271 323
#     4  12  22  32  56  81 107 141 179 217 278 319
#     4  10  21  36  51  79 109 133 185 225 265 325
#     4  10  21  36  51  79 109 133 185 225 265 325
#
# _framework density 18.357298
#
# number of rings (size 3 to 8) (size 9 to 14) (size 15 to 20)
#    0.000    2.000    2.667    2.400    0.000    5.333 
#    0.000    5.333    0.000    0.000    0.000    0.000 
#    0.000    4.267    0.000    0.000    0.000    0.000 
#
# Total GULP energy -743479.707041 kJ/mol
# GULP energy per Si atom -12391.328451 kJ/mol
# Density = 1.831552 g / cm^3
# Si number density = 18.357298 Si / 1000 Ang^3
#
#
#
# Elastic Constant Matrix: (Units=GPa)
#
#
# Indices 1 2 3 4 5 6 
#
# 1 48.4522 10.3735 18.9695 0.0000 0.0000 0.0000
# 2 10.3735 48.4524 18.9702 0.0000 0.0000 0.0000
# 3 18.9695 18.9702 90.1629 0.0000 0.0000 0.0000
# 4 0.0000 0.0000 0.0000 22.4327 0.0000 0.0000
# 5 0.0000 0.0000 0.0000 0.0000 22.4327 0.0000
# 6 0.0000 0.0000 0.0000 0.0000 0.0000 26.8643
#
#
#
# Elastic Compliance Matrix: (Units=1/GPa)
#
#
# Indices 1 2 3 4 5 6 
#
# 1 0.022965 -0.003297 -0.004138 0.000000 0.000000 0.000000
# 2 -0.003297 0.022965 -0.004138 0.000000 0.000000 0.000000
# 3 -0.004138 -0.004138 0.012832 0.000000 0.000000 0.000000
# 4 0.000000 0.000000 0.000000 0.044578 0.000000 0.000000
# 5 0.000000 0.000000 0.000000 0.000000 0.044578 0.000000
# 6 0.000000 0.000000 0.000000 0.000000 0.000000 0.037224
#
#
# Mechanical properties :
#
#
# Convention : Reuss Voigt Hill
#
# Bulk Modulus (GPa) = 28.07699 31.52153 29.79926
# Shear Modulus (GPa) = 22.71085 23.59624 23.15355
#
# Velocity S-wave (km/s) = 3.52114 3.58912 3.55529
# Velocity P-wave (km/s) = 5.64439 5.86380 5.75514
#
# Compressibility (1/GPa) = 0.03561635
#
# Stress axis : x y z
#
# Youngs Moduli (GPa) = 43.54497 43.54493 77.92824
#
# Poissons Ratio (x) = 0.14355 0.32247
# Poissons Ratio (y) = 0.14355 0.32248
# Poissons Ratio (z) = 0.18019 0.18020
#
# Static dielectric constant tensor:
#      x y z
#    x 3.263850 0.000000 0.000000 
#    y 0.000000 3.263840 0.000000 
#    z 0.000000 0.000000 3.589610 
# 
# 
# High freq. dielectric constant tensor:
#      x y z
#    x 1.695740 0.000000 0.000000 
#    y 0.000000 1.695740 0.000000 
#    z 0.000000 0.000000 1.718740 
# 
# From -- ./inp_files/6732.got.cif
#   From: 2010.03.12/outbox.cif.g09.slc.cpg/sg120_4_cif.got.tgz:6732.got - 2010.04.06 16:00:44.
