data_PCOD8311521
_publ_section_title
;
Structure prediction by ZEFSAII (Michael W. Deem and Ramdas Pophale) SiO2 
 PCOD8311521
Probable space group: I -4 2 M
;
_chemical_formula_sum "Si O2"
_cell_formula_units_Z 120
_cell_length_a 15.069669
_cell_length_b 15.069669
_cell_length_c 28.508666
_cell_angle_alpha 90.000000
_cell_angle_beta 90.000000
_cell_angle_gamma 90.000000
_cell_volume 6474.173332
_symmetry_space_group_name_H-M "I -4 2 M"
_symmetry_group_IT_number 121
_symmetry_cell_setting 'tetragonal'
loop_
_space_group_symop_operation_xyz
x,y,z
y,-x,-z
-x,-y,z
-y,x,-z
x,-y,-z
-x,y,-z
-y,-x,z
y,x,z
1/2+x,1/2+y,1/2+z
1/2+y,1/2-x,1/2-z
1/2-x,1/2-y,1/2+z
1/2-y,1/2+x,1/2-z
1/2+x,1/2-y,1/2-z
1/2-x,1/2+y,1/2-z
1/2-y,1/2-x,1/2+z
1/2+y,1/2+x,1/2+z
loop_
_atom_site_type_symbol
_atom_site_label
_atom_site_fract_x
_atom_site_fract_y
_atom_site_fract_z
Si Si1 0.500000 0.363420 0.500000
Si Si2 0.778089 0.468824 0.427137
Si Si3 0.815611 0.673744 0.434288
Si Si4 0.748591 0.894357 0.340722
Si Si5 0.226127 0.084355 0.624972
Si Si6 0.133338 0.720748 0.836071
Si Si7 0.433560 0.869444 0.246315
Si Si8 0.651286 0.795168 0.036359
O O1 0.422629 0.422629 0.477449
O O2 0.457319 0.309754 0.542466
O O3 0.813483 0.567952 0.433887
O O4 0.760053 0.445772 0.372940
O O5 0.847001 0.398046 0.448417
O O6 0.716420 0.716420 0.434290
O O7 0.868244 0.703879 0.389210
O O8 0.868296 0.708477 0.480692
O O9 0.826857 0.826857 0.326102
O O10 0.672332 0.896207 0.301558
O O11 0.788310 0.991558 0.349129
O O12 0.134342 0.134342 0.633910
O O13 0.307766 0.137747 0.647710
O O14 0.246590 0.076507 0.568603
O O15 0.191401 0.808600 0.829993
O O16 0.086353 0.699913 0.787238
O O17 0.538774 0.883589 0.243327
O O18 0.745355 0.745355 0.048168
#
# Coordination Sequence:
#
# PCOD8311521 Si02
#       8
#     8  16  16  16  16  16  16  16
#     4  11  20  28  46  78 115 152 192 234 269 324
#     4  11  18  31  52  77 109 150 195 229 275 332
#     4  10  20  33  51  79 118 155 188 233 280 335
#     4  11  23  39  59  86 116 148 187 231 291 346
#     4   9  19  37  60  83 109 143 188 234 275 333
#     4  10  20  36  58  81 108 147 191 234 282 342
#     4  11  22  39  61  86 114 146 185 238 288 336
#     4   9  17  32  54  79 110 152 193 228 275 332
#
# _framework density 18.535184999999998
#
# number of rings (size 3 to 8) (size 9 to 14) (size 15 to 20)
#    0.000    1.800    2.667    3.600    0.000    0.800 
#    0.000    0.000    0.000    4.000    0.000    3.733 
#    0.000    0.000    0.000    0.000    0.000    0.000 
#
# Total GULP energy -743731.882322 kJ/mol
# GULP energy per Si atom -12395.531372 kJ/mol
# Density = 1.849300 g / cm^3
# Si number density = 18.535185 Si / 1000 Ang^3
#
#
#
# Elastic Constant Matrix: (Units=GPa)
#
#
# Indices 1 2 3 4 5 6 
#
# 1 60.6782 15.6086 17.1570 0.0000 0.0000 0.0000
# 2 15.6086 60.6773 17.1566 0.0000 0.0000 0.0000
# 3 17.1570 17.1566 109.6577 0.0000 0.0000 0.0000
# 4 0.0000 0.0000 0.0000 28.3285 0.0000 0.0000
# 5 0.0000 0.0000 0.0000 0.0000 28.3279 0.0000
# 6 0.0000 0.0000 0.0000 0.0000 0.0000 19.1389
#
#
#
# Elastic Compliance Matrix: (Units=1/GPa)
#
#
# Indices 1 2 3 4 5 6 
#
# 1 0.018144 -0.004044 -0.002206 0.000000 0.000000 0.000000
# 2 -0.004044 0.018145 -0.002206 0.000000 0.000000 0.000000
# 3 -0.002206 -0.002206 0.009810 0.000000 0.000000 0.000000
# 4 0.000000 0.000000 0.000000 0.035300 0.000000 0.000000
# 5 0.000000 0.000000 0.000000 0.000000 0.035301 0.000000
# 6 0.000000 0.000000 0.000000 0.000000 0.000000 0.052250
#
#
# Mechanical properties :
#
#
# Convention : Reuss Voigt Hill
#
# Bulk Modulus (GPa) = 34.26231 36.76194 35.51213
# Shear Modulus (GPa) = 25.56365 27.23178 26.39772
#
# Velocity S-wave (km/s) = 3.71778 3.83717 3.77794
# Velocity P-wave (km/s) = 6.07901 6.28557 6.18315
#
# Compressibility (1/GPa) = 0.02918659
#
# Stress axis : x y z
#
# Youngs Moduli (GPa) = 55.11356 55.11284 101.94059
#
# Poissons Ratio (x) = 0.22286 0.22490
# Poissons Ratio (y) = 0.22286 0.22490
# Poissons Ratio (z) = 0.12159 0.12159
#
# Static dielectric constant tensor:
#      x y z
#    x 3.338520 0.000000 0.000000 
#    y 0.000000 3.338520 0.000000 
#    z 0.000000 0.000000 3.596600 
# 
# 
# High freq. dielectric constant tensor:
#      x y z
#    x 1.707090 0.000000 0.000000 
#    y 0.000000 1.707090 0.000000 
#    z 0.000000 0.000000 1.730520 
# 
# From -- ./inp_files/8452.got.cif
#   From: 2010.03.12/outbox.cif.g09.slc.cpg/sg121_5_cif.got.tgz:8452.got - 2010.04.06 16:06:48.
