data_PCOD8311063
_publ_section_title
;
Structure prediction by ZEFSAII (Michael W. Deem and Ramdas Pophale) SiO2 
 PCOD8311063
Probable space group: I -4 M 2
;
_chemical_formula_sum "Si O2"
_cell_formula_units_Z 80
_cell_length_a 11.469126
_cell_length_b 11.469126
_cell_length_c 30.423231
_cell_angle_alpha 90.000000
_cell_angle_beta 90.000000
_cell_angle_gamma 90.000000
_cell_volume 4001.897702
_symmetry_space_group_name_H-M "I -4 M 2"
_symmetry_group_IT_number 119
_symmetry_cell_setting 'tetragonal'
loop_
_space_group_symop_operation_xyz
x,y,z
y,-x,-z
-x,-y,z
-y,x,-z
y,x,-z
-y,-x,-z
-x,y,z
x,-y,z
1/2+x,1/2+y,1/2+z
1/2+y,1/2-x,1/2-z
1/2-x,1/2-y,1/2+z
1/2-y,1/2+x,1/2-z
1/2+y,1/2+x,1/2-z
1/2-y,1/2-x,1/2-z
1/2-x,1/2+y,1/2+z
1/2+x,1/2-y,1/2+z
loop_
_atom_site_type_symbol
_atom_site_label
_atom_site_fract_x
_atom_site_fract_y
_atom_site_fract_z
Si Si1 0.631979 0.500000 0.435490
Si Si2 0.868922 0.000000 0.832162
Si Si3 0.761816 0.228135 0.201367
Si Si4 0.137659 0.866403 0.373885
Si Si5 0.770416 0.750428 0.951768
Si Si6 0.863105 0.500000 0.580775
Si Si7 0.137807 0.500000 0.680806
O O1 0.500000 0.500000 0.455420
O O2 0.620426 0.500000 0.383787
O O3 0.704934 0.611741 0.450856
O O4 0.796221 0.111678 0.817887
O O5 0.000000 0.000000 0.811529
O O6 0.779732 0.279732 0.250000
O O7 0.692275 0.318168 0.170815
O O8 0.686814 0.111336 0.205619
O O9 0.178121 0.790593 0.415484
O O10 0.000000 0.866114 0.372788
O O11 0.185243 0.000000 0.377138
O O12 0.888763 0.681149 0.944783
O O13 0.719803 0.719803 0.000000
O O14 0.814184 0.500000 0.630615
O O15 0.000000 0.500000 0.581895
O O16 0.000000 0.500000 0.683061
#
# Coordination Sequence:
#
# PCOD8311063 Si02
#       7
#     8   8  16  16  16   8   8
#     4  11  21  39  65  99 140 172 208 263 333 401
#     4  11  22  43  69  99 137 177 212 266 335 397
#     4  12  26  42  67 102 135 172 221 271 327 395
#     4  11  26  48  69  92 131 179 224 274 330 390
#     4  12  24  41  66 101 131 170 219 271 330 396
#     4  11  21  40  66  94 131 166 212 277 337 383
#     4  11  22  38  66 102 136 165 208 278 341 381
#
# _framework density 19.990516
#
# number of rings (size 3 to 8) (size 9 to 14) (size 15 to 20)
#    0.000    0.600    6.000    1.800    4.200    1.600 
#    0.000    3.000    0.000    0.000    0.000    0.000 
#    0.000    0.000    0.000    0.000    0.000    0.000 
#
# Total GULP energy -496169.991876 kJ/mol
# GULP energy per Si atom -12404.249797 kJ/mol
# Density = 1.994502 g / cm^3
# Si number density = 19.990516 Si / 1000 Ang^3
#
#
#
# Elastic Constant Matrix: (Units=GPa)
#
#
# Indices 1 2 3 4 5 6 
#
# 1 95.4885 38.8341 30.9174 0.0000 0.0000 0.0000
# 2 38.8341 95.4885 30.9174 0.0000 0.0000 0.0000
# 3 30.9174 30.9174 129.1476 0.0000 0.0000 0.0000
# 4 0.0000 0.0000 0.0000 -27.3541 0.0001 0.0000
# 5 0.0000 0.0000 0.0000 0.0001 -27.3540 0.0000
# 6 0.0000 0.0000 0.0000 0.0000 0.0000 50.1616
#
#
#
# Elastic Compliance Matrix: (Units=1/GPa)
#
#
# Indices 1 2 3 4 5 6 
#
# 1 0.013009 -0.004642 -0.002003 0.000000 0.000000 0.000000
# 2 -0.004642 0.013009 -0.002003 0.000000 0.000000 0.000000
# 3 -0.002003 -0.002003 0.008702 0.000000 0.000000 0.000000
# 4 0.000000 0.000000 0.000000 -0.036558 0.000000 0.000000
# 5 0.000000 0.000000 0.000000 0.000000 -0.036558 0.000000
# 6 0.000000 0.000000 0.000000 0.000000 0.000000 0.019936
#
#
# Mechanical properties :
#
#
# Convention : Reuss Voigt Hill
#
# Bulk Modulus (GPa) = 57.39274 57.94028 57.66651
# Shear Modulus (GPa) = 1076.66265 13.72108 545.19186
#
# Velocity S-wave (km/s) = 23.23265 2.62273 16.53231
# Velocity P-wave (km/s) = 27.35776 6.18210 19.83262
#
# Compressibility (1/GPa) = 0.01742381
#
# Stress axis : x y z
#
# Youngs Moduli (GPa) = 76.87074 76.87074 114.91494
#
# Poissons Ratio (x) = 0.35684 0.23017
# Poissons Ratio (y) = 0.35684 0.23017
# Poissons Ratio (z) = 0.15397 0.15397
#
# Static dielectric constant tensor:
#      x y z
#    x 5.356120 0.000000 0.000000 
#    y 0.000000 5.356130 0.000000 
#    z 0.000000 0.000000 3.849080 
# 
# 
# High freq. dielectric constant tensor:
#      x y z
#    x 1.782550 0.000000 0.000000 
#    y 0.000000 1.782550 0.000000 
#    z 0.000000 0.000000 1.789730 
# 
# From -- ./inp_files/10219.got.cif
#   From: 2010.03.12/outbox.cif.g09.slc.cpg/sg119_6_cif.got.tgz:10219.got - 2010.04.14 02:25:26.
