data_PCOD8311049
_publ_section_title
;
Structure prediction by ZEFSAII (Michael W. Deem and Ramdas Pophale) SiO2 
 PCOD8311049
Probable space group: I -4 M 2
;
_chemical_formula_sum "Si O2"
_cell_formula_units_Z 96
_cell_length_a 14.085502
_cell_length_b 14.085502
_cell_length_c 21.676422
_cell_angle_alpha 90.000000
_cell_angle_beta 90.000000
_cell_angle_gamma 90.000000
_cell_volume 4300.631748
_symmetry_space_group_name_H-M "I -4 M 2"
_symmetry_group_IT_number 119
_symmetry_cell_setting 'tetragonal'
loop_
_space_group_symop_operation_xyz
x,y,z
y,-x,-z
-x,-y,z
-y,x,-z
y,x,-z
-y,-x,-z
-x,y,z
x,-y,z
1/2+x,1/2+y,1/2+z
1/2+y,1/2-x,1/2-z
1/2-x,1/2-y,1/2+z
1/2-y,1/2+x,1/2-z
1/2+y,1/2+x,1/2-z
1/2-y,1/2-x,1/2-z
1/2-x,1/2+y,1/2+z
1/2+x,1/2-y,1/2+z
loop_
_atom_site_type_symbol
_atom_site_label
_atom_site_fract_x
_atom_site_fract_y
_atom_site_fract_z
Si Si1 0.889227 0.392674 0.519074
Si Si2 0.603463 0.799094 0.350993
Si Si3 0.749836 0.896007 0.586170
Si Si4 0.355875 0.609546 0.292482
Si Si5 0.138232 0.398918 0.315918
Si Si6 0.291286 0.391065 0.833952
O O1 0.875384 0.500000 0.493604
O O2 0.821434 0.376358 0.577493
O O3 0.854350 0.315647 0.468551
O O4 0.000000 0.376249 0.536428
O O5 0.500000 0.842186 0.332311
O O6 0.595672 0.685434 0.338638
O O7 0.689038 0.848322 0.312751
O O8 0.683522 0.910187 0.645697
O O9 0.837007 0.827716 0.604206
O O10 0.790043 0.000000 0.568485
O O11 0.388061 0.500000 0.305290
O O12 0.246599 0.625799 0.304180
O O13 0.381308 0.634488 0.221815
O O14 0.126158 0.500000 0.350768
O O15 0.089503 0.410498 0.250000
O O16 0.278696 0.500000 0.852792
#
# Coordination Sequence:
#
# PCOD8311049 Si02
#       6
#    16  16  16  16  16  16
#     4   9  20  40  67 100 135 174 224 283 338 384
#     4  11  23  43  70  96 127 172 225 274 324 386
#     4  11  22  39  64  95 133 175 219 266 329 401
#     4  11  23  42  66  96 136 175 211 261 332 403
#     4  11  20  34  58  91 131 170 212 264 321 387
#     4  12  25  42  65  96 136 176 219 273 336 402
#
# _framework density 22.322301
#
# number of rings (size 3 to 8) (size 9 to 14) (size 15 to 20)
#    0.000    1.167    3.333    3.000    0.000    5.833 
#    0.000    0.833    0.000    5.000    0.000    4.667 
#    0.000    0.000    0.000    0.000    0.000    0.000 
#
# Total GULP energy -594856.127103 kJ/mol
# GULP energy per Si atom -12392.835981 kJ/mol
# Density = 2.227149 g / cm^3
# Si number density = 22.322301 Si / 1000 Ang^3
#
#
#
# Elastic Constant Matrix: (Units=GPa)
#
#
# Indices 1 2 3 4 5 6 
#
# 1 139.8567 45.7322 34.4933 0.0000 0.0000 0.0000
# 2 45.7322 139.8572 34.4933 0.0000 0.0000 0.0000
# 3 34.4933 34.4933 91.4371 0.0000 0.0000 0.0000
# 4 0.0000 0.0000 0.0000 32.3806 0.0000 0.0000
# 5 0.0000 0.0000 0.0000 0.0000 32.3805 0.0000
# 6 0.0000 0.0000 0.0000 0.0000 0.0000 15.2619
#
#
#
# Elastic Compliance Matrix: (Units=1/GPa)
#
#
# Indices 1 2 3 4 5 6 
#
# 1 0.008446 -0.002179 -0.002364 0.000000 0.000000 0.000000
# 2 -0.002179 0.008446 -0.002364 0.000000 0.000000 0.000000
# 3 -0.002364 -0.002364 0.012720 0.000000 0.000000 0.000000
# 4 0.000000 0.000000 0.000000 0.030883 0.000000 0.000000
# 5 0.000000 0.000000 0.000000 0.000000 0.030883 0.000000
# 6 0.000000 0.000000 0.000000 0.000000 0.000000 0.065523
#
#
# Mechanical properties :
#
#
# Convention : Reuss Voigt Hill
#
# Bulk Modulus (GPa) = 63.30057 66.73207 65.01632
# Shear Modulus (GPa) = 28.41244 33.10007 30.75626
#
# Velocity S-wave (km/s) = 3.57154 3.85492 3.71594
# Velocity P-wave (km/s) = 6.73995 7.05504 6.89930
#
# Compressibility (1/GPa) = 0.01579765
#
# Stress axis : x y z
#
# Youngs Moduli (GPa) = 118.40439 118.40477 78.61534
#
# Poissons Ratio (x) = 0.25795 0.18586
# Poissons Ratio (y) = 0.25795 0.18586
# Poissons Ratio (z) = 0.27993 0.27993
#
# Static dielectric constant tensor:
#      x y z
#    x 4.194980 0.000000 0.000000 
#    y 0.000000 4.194990 0.000000 
#    z 0.000000 0.000000 3.825190 
# 
# 
# High freq. dielectric constant tensor:
#      x y z
#    x 1.885210 0.000000 0.000000 
#    y 0.000000 1.885210 0.000000 
#    z 0.000000 0.000000 1.855670 
# 
# From -- ./inp_files/7756.got.cif
#   From: 2010.03.12/outbox.cif.g09.slc.cpg/sg119_4_cif.got.tgz:7756.got - 2010.04.14 02:25:26.
