data_PCOD8311437
_publ_section_title
;
Structure prediction by ZEFSAII (Michael W. Deem and Ramdas Pophale) SiO2 
 PCOD8311437
Probable space group: I -4 2 M
;
_chemical_formula_sum "Si O2"
_cell_formula_units_Z 112
_cell_length_a 16.942986
_cell_length_b 16.942986
_cell_length_c 23.270142
_cell_angle_alpha 90.000000
_cell_angle_beta 90.000000
_cell_angle_gamma 90.000000
_cell_volume 6680.038068
_symmetry_space_group_name_H-M "I -4 2 M"
_symmetry_group_IT_number 121
_symmetry_cell_setting 'tetragonal'
loop_
_space_group_symop_operation_xyz
x,y,z
y,-x,-z
-x,-y,z
-y,x,-z
x,-y,-z
-x,y,-z
-y,-x,z
y,x,z
1/2+x,1/2+y,1/2+z
1/2+y,1/2-x,1/2-z
1/2-x,1/2-y,1/2+z
1/2-y,1/2+x,1/2-z
1/2+x,1/2-y,1/2-z
1/2-x,1/2+y,1/2-z
1/2-y,1/2-x,1/2+z
1/2+y,1/2+x,1/2+z
loop_
_atom_site_type_symbol
_atom_site_label
_atom_site_fract_x
_atom_site_fract_y
_atom_site_fract_z
Si Si1 0.221740 0.902927 0.941969
Si Si2 0.874170 0.000148 0.431857
Si Si3 0.637565 0.098859 0.128801
Si Si4 0.797810 0.077534 0.073114
Si Si5 0.307321 0.010154 0.431696
Si Si6 0.621326 0.915822 0.124020
Si Si7 0.096531 0.584050 0.250743
O O1 0.165528 0.834473 0.918802
O O2 0.306635 0.890146 0.915137
O O3 0.182719 0.985204 0.922872
O O4 0.232667 0.899093 0.010155
O O5 0.920948 0.079053 0.410413
O O6 0.783440 0.000058 0.409877
O O7 0.873078 0.000000 0.500000
O O8 0.922027 0.922027 0.410321
O O9 0.730319 0.100973 0.117520
O O10 0.596439 0.160697 0.085622
O O11 0.629941 0.127802 0.194824
O O12 0.602828 0.009910 0.119605
O O13 0.877495 0.122506 0.089861
O O14 0.365039 0.951466 0.398267
O O15 0.314067 0.000000 0.500000
O O16 0.642776 0.894927 0.190429
O O17 0.106319 0.492983 0.235169
#
# Coordination Sequence:
#
# PCOD8311437 Si02
#       7
#    16  16  16  16  16  16  16
#     4   9  18  32  49  70  97 127 159 199 249 297
#     4   8  16  32  50  68  95 131 166 198 236 284
#     4  10  19  31  47  71 100 131 160 199 244 293
#     4   9  18  32  49  70  97 127 159 199 249 297
#     4  11  20  28  46  77 105 129 161 198 240 297
#     4  10  19  31  47  71 100 131 160 199 244 293
#     4   9  16  30  49  66  92 130 171 196 227 278
#
# _framework density 16.766372
#
# number of rings (size 3 to 8) (size 9 to 14) (size 15 to 20)
#    0.000    2.571    1.429    1.714    0.000    3.714 
#    0.000    5.000    0.000    0.000    0.000    0.000 
#    0.000    0.000    0.000    0.000    0.000    0.000 
#
# Total GULP energy -694122.703542 kJ/mol
# GULP energy per Si atom -12395.048278 kJ/mol
# Density = 1.672821 g / cm^3
# Si number density = 16.766372 Si / 1000 Ang^3
#
#
#
# Elastic Constant Matrix: (Units=GPa)
#
#
# Indices 1 2 3 4 5 6 
#
# 1 51.6842 18.1321 7.9102 0.0000 0.0000 0.0000
# 2 18.1321 51.6902 7.9129 0.0000 0.0000 0.0000
# 3 7.9102 7.9129 56.0939 0.0000 0.0000 0.0000
# 4 0.0000 0.0000 0.0000 11.0760 0.0000 0.0000
# 5 0.0000 0.0000 0.0000 0.0000 11.0757 0.0000
# 6 0.0000 0.0000 0.0000 0.0000 0.0000 19.1465
#
#
#
# Elastic Compliance Matrix: (Units=1/GPa)
#
#
# Indices 1 2 3 4 5 6 
#
# 1 0.022300 -0.007503 -0.002086 0.000000 0.000000 0.000000
# 2 -0.007503 0.022298 -0.002087 0.000000 0.000000 0.000000
# 3 -0.002086 -0.002087 0.018416 0.000000 0.000000 0.000000
# 4 0.000000 0.000000 0.000000 0.090285 0.000000 0.000000
# 5 0.000000 0.000000 0.000000 0.000000 0.090288 0.000000
# 6 0.000000 0.000000 0.000000 0.000000 0.000000 0.052229
#
#
# Mechanical properties :
#
#
# Convention : Reuss Voigt Hill
#
# Bulk Modulus (GPa) = 25.21433 25.26429 25.23931
# Shear Modulus (GPa) = 15.04266 16.62719 15.83493
#
# Velocity S-wave (km/s) = 2.99857 3.15254 3.07652
# Velocity P-wave (km/s) = 5.20190 5.32471 5.26366
#
# Compressibility (1/GPa) = 0.03965999
#
# Stress axis : x y z
#
# Youngs Moduli (GPa) = 44.84342 44.84805 54.30092
#
# Poissons Ratio (x) = 0.33650 0.11328
# Poissons Ratio (y) = 0.33646 0.11334
# Poissons Ratio (z) = 0.09355 0.09361
#
# Static dielectric constant tensor:
#      x y z
#    x 3.171180 0.000000 0.000000 
#    y 0.000000 3.171180 0.000000 
#    z 0.000000 0.000000 3.324190 
# 
# 
# High freq. dielectric constant tensor:
#      x y z
#    x 1.636800 0.000000 0.000000 
#    y 0.000000 1.636800 0.000000 
#    z 0.000000 0.000000 1.630310 
# 
# From -- ./inp_files/6624.got.cif
#   From: 2010.03.12/outbox.cif.g09.slc.cpg/sg121_4_cif.got.tgz:6624.got - 2010.04.06 16:06:48.
