data_PCOD8311505
_publ_section_title
;
Structure prediction by ZEFSAII (Michael W. Deem and Ramdas Pophale) SiO2 
 PCOD8311505
Probable space group: I -4 2 M
;
_chemical_formula_sum "Si O2"
_cell_formula_units_Z 96
_cell_length_a 25.161323
_cell_length_b 25.161323
_cell_length_c 9.213448
_cell_angle_alpha 90.000000
_cell_angle_beta 90.000000
_cell_angle_gamma 90.000000
_cell_volume 5832.961835
_symmetry_space_group_name_H-M "I -4 2 M"
_symmetry_group_IT_number 121
_symmetry_cell_setting 'tetragonal'
loop_
_space_group_symop_operation_xyz
x,y,z
y,-x,-z
-x,-y,z
-y,x,-z
x,-y,-z
-x,y,-z
-y,-x,z
y,x,z
1/2+x,1/2+y,1/2+z
1/2+y,1/2-x,1/2-z
1/2-x,1/2-y,1/2+z
1/2-y,1/2+x,1/2-z
1/2+x,1/2-y,1/2-z
1/2-x,1/2+y,1/2-z
1/2-y,1/2-x,1/2+z
1/2+y,1/2+x,1/2+z
loop_
_atom_site_type_symbol
_atom_site_label
_atom_site_fract_x
_atom_site_fract_y
_atom_site_fract_z
Si Si1 0.220391 0.220391 0.629121
Si Si2 0.296790 0.703211 0.206296
Si Si3 0.951668 0.622492 0.926703
Si Si4 0.596458 0.243539 0.172792
Si Si5 0.892646 0.738801 0.657368
Si Si6 0.882818 0.368748 0.795062
Si Si7 0.489675 0.236550 0.342435
O O1 0.263469 0.263469 0.677287
O O2 0.220972 0.220972 0.454740
O O3 0.162961 0.233787 0.694331
O O4 0.359377 0.714711 0.230917
O O5 0.916842 0.591878 0.804571
O O6 0.982113 0.672851 0.855173
O O7 0.912716 0.641611 0.055036
O O8 0.000000 0.587625 0.000000
O O9 0.618258 0.184480 0.201131
O O10 0.540071 0.252352 0.246709
O O11 0.587568 0.252682 0.002963
O O12 0.886696 0.676185 0.671776
O O13 0.936653 0.760842 0.769839
O O14 0.500000 0.262227 0.500000
#
# Coordination Sequence:
#
# PCOD8311505 Si02
#       7
#     8   8  16  16  16  16  16
#     4  10  20  32  46  76 110 137 168 199 262 314
#     4  10  22  30  50  74 112 141 162 209 258 322
#     4  10  20  33  48  74  88 123 166 221 259 305
#     4  11  19  34  48  76 102 134 170 206 257 310
#     4  10  21  32  50  74 102 137 166 209 254 309
#     4  11  18  30  51  70  95 123 165 208 255 303
#     4  10  20  33  53  71  97 126 179 216 247 305
#
# _framework density 16.458192
#
# number of rings (size 3 to 8) (size 9 to 14) (size 15 to 20)
#    0.000    1.667    6.667    0.500    0.000    1.333 
#    0.000    0.833    0.000    1.500    0.000    0.000 
#    0.000    0.667    0.000    7.667    0.000    3.000 
#
# Total GULP energy -594881.502577 kJ/mol
# GULP energy per Si atom -12393.364637 kJ/mol
# Density = 1.642073 g / cm^3
# Si number density = 16.458192 Si / 1000 Ang^3
#
#
#
# Elastic Constant Matrix: (Units=GPa)
#
#
# Indices 1 2 3 4 5 6 
#
# 1 58.6778 36.9098 20.0705 0.0000 0.0000 0.0000
# 2 36.9098 58.6783 20.0716 0.0000 0.0000 0.0000
# 3 20.0705 20.0716 58.6468 0.0000 0.0000 0.0000
# 4 0.0000 0.0000 0.0000 22.2346 0.0000 0.0000
# 5 0.0000 0.0000 0.0000 0.0000 22.2347 0.0000
# 6 0.0000 0.0000 0.0000 0.0000 0.0000 13.2230
#
#
#
# Elastic Compliance Matrix: (Units=1/GPa)
#
#
# Indices 1 2 3 4 5 6 
#
# 1 0.029078 -0.016860 -0.004181 0.000000 0.000000 0.000000
# 2 -0.016860 0.029078 -0.004182 0.000000 0.000000 0.000000
# 3 -0.004181 -0.004182 0.019913 0.000000 0.000000 0.000000
# 4 0.000000 0.000000 0.000000 0.044975 0.000000 0.000000
# 5 0.000000 0.000000 0.000000 0.000000 0.044975 0.000000
# 6 0.000000 0.000000 0.000000 0.000000 0.000000 0.075626
#
#
# Mechanical properties :
#
#
# Convention : Reuss Voigt Hill
#
# Bulk Modulus (GPa) = 36.20155 36.67851 36.44003
# Shear Modulus (GPa) = 16.48542 18.13520 17.31031
#
# Velocity S-wave (km/s) = 3.16833 3.32308 3.24663
# Velocity P-wave (km/s) = 5.95216 6.08753 6.02023
#
# Compressibility (1/GPa) = 0.02762312
#
# Stress axis : x y z
#
# Youngs Moduli (GPa) = 34.39045 34.39023 50.21792
#
# Poissons Ratio (x) = 0.57983 0.20995
# Poissons Ratio (y) = 0.57984 0.21000
# Poissons Ratio (z) = 0.14378 0.14381
#
# Static dielectric constant tensor:
#      x y z
#    x 3.052720 0.000000 0.000000 
#    y 0.000000 3.052730 0.000000 
#    z 0.000000 0.000000 3.373620 
# 
# 
# High freq. dielectric constant tensor:
#      x y z
#    x 1.604690 0.000000 0.000000 
#    y 0.000000 1.604690 0.000000 
#    z 0.000000 0.000000 1.652000 
# 
# From -- ./inp_files/1977.got.cif
#   From: 2010.03.12/outbox.cif.g09.slc.cpg/sg121_1_cif.got.tgz:1977.got - 2010.04.06 16:06:48.
