data_PCOD8311370
_publ_section_title
;
Structure prediction by ZEFSAII (Michael W. Deem and Ramdas Pophale) SiO2 
 PCOD8311370
Probable space group: I -4 2 M
;
_chemical_formula_sum "Si O2"
_cell_formula_units_Z 96
_cell_length_a 13.381628
_cell_length_b 13.381628
_cell_length_c 32.250233
_cell_angle_alpha 90.000000
_cell_angle_beta 90.000000
_cell_angle_gamma 90.000000
_cell_volume 5774.983689
_symmetry_space_group_name_H-M "I -4 2 M"
_symmetry_group_IT_number 121
_symmetry_cell_setting 'tetragonal'
loop_
_space_group_symop_operation_xyz
x,y,z
y,-x,-z
-x,-y,z
-y,x,-z
x,-y,-z
-x,y,-z
-y,-x,z
y,x,z
1/2+x,1/2+y,1/2+z
1/2+y,1/2-x,1/2-z
1/2-x,1/2-y,1/2+z
1/2-y,1/2+x,1/2-z
1/2+x,1/2-y,1/2-z
1/2-x,1/2+y,1/2-z
1/2-y,1/2-x,1/2+z
1/2+y,1/2+x,1/2+z
loop_
_atom_site_type_symbol
_atom_site_label
_atom_site_fract_x
_atom_site_fract_y
_atom_site_fract_z
Si Si1 0.723592 0.994567 0.627490
Si Si2 0.700601 0.139065 0.837780
Si Si3 0.836662 0.003834 0.454116
Si Si4 0.995767 0.842734 0.707035
Si Si5 0.055467 0.397167 0.828252
Si Si6 0.639061 0.801098 0.757438
O O1 0.690522 0.879601 0.632555
O O2 0.751799 0.012662 0.579979
O O3 0.815774 0.010942 0.658611
O O4 0.637611 0.076093 0.637056
O O5 0.811362 0.188638 0.845345
O O6 0.666808 0.156040 0.790038
O O7 0.689989 0.019515 0.845673
O O8 0.889708 0.110293 0.446435
O O9 0.787377 0.000000 0.500000
O O10 0.917325 0.917325 0.450631
O O11 0.065154 0.934847 0.718031
O O12 0.028612 0.749644 0.736041
O O13 0.880597 0.880597 0.715301
O O14 0.102245 0.353140 0.786289
O O15 0.000000 0.500000 0.816482
O O16 0.722246 0.722246 0.772364
#
# Coordination Sequence:
#
# PCOD8311370 Si02
#       6
#    16  16  16  16  16  16
#     4  10  18  29  45  68  92 123 161 196 235 291
#     4  10  20  31  44  62  86 121 166 210 247 290
#     4   9  17  29  48  76 107 133 154 185 240 308
#     4   9  16  26  41  62  88 117 149 192 242 285
#     4   9  20  30  47  65  89 125 162 201 249 286
#     4   9  19  31  43  64  89 117 160 206 247 290
#
# _framework density 16.623422999999999
#
# number of rings (size 3 to 8) (size 9 to 14) (size 15 to 20)
#    0.000    2.667    0.000    2.500    7.000    2.000 
#    0.000    0.000    0.000    5.000    0.000    0.000 
#    0.000    0.000    0.000    1.500    0.000   30.667 
#
# Total GULP energy -594748.975006 kJ/mol
# GULP energy per Si atom -12390.603646 kJ/mol
# Density = 1.658559 g / cm^3
# Si number density = 16.623423 Si / 1000 Ang^3
#
#
#
# Elastic Constant Matrix: (Units=GPa)
#
#
# Indices 1 2 3 4 5 6 
#
# 1 62.3543 22.4175 17.9715 0.0000 0.0000 0.0000
# 2 22.4175 62.3538 17.9713 0.0000 0.0000 0.0000
# 3 17.9715 17.9713 84.0177 0.0000 0.0000 0.0000
# 4 0.0000 0.0000 0.0000 21.1589 0.0000 0.0000
# 5 0.0000 0.0000 0.0000 0.0000 21.1590 0.0000
# 6 0.0000 0.0000 0.0000 0.0000 0.0000 32.1657
#
#
#
# Elastic Compliance Matrix: (Units=1/GPa)
#
#
# Indices 1 2 3 4 5 6 
#
# 1 0.019006 -0.006033 -0.002775 0.000000 0.000000 0.000000
# 2 -0.006033 0.019006 -0.002775 0.000000 0.000000 0.000000
# 3 -0.002775 -0.002775 0.013089 0.000000 0.000000 0.000000
# 4 0.000000 0.000000 0.000000 0.047261 0.000000 0.000000
# 5 0.000000 0.000000 0.000000 0.000000 0.047261 0.000000
# 6 0.000000 0.000000 0.000000 0.000000 0.000000 0.031089
#
#
# Mechanical properties :
#
#
# Convention : Reuss Voigt Hill
#
# Bulk Modulus (GPa) = 35.79660 36.16072 35.97866
# Shear Modulus (GPa) = 23.90149 24.92109 24.41129
#
# Velocity S-wave (km/s) = 3.79597 3.87609 3.83624
# Velocity P-wave (km/s) = 6.38695 6.46778 6.42749
#
# Compressibility (1/GPa) = 0.02793562
#
# Stress axis : x y z
#
# Youngs Moduli (GPa) = 52.61419 52.61387 76.39793
#
# Poissons Ratio (x) = 0.31744 0.21200
# Poissons Ratio (y) = 0.31744 0.21200
# Poissons Ratio (z) = 0.14600 0.14600
#
# Static dielectric constant tensor:
#      x y z
#    x 3.308400 0.000000 0.000000 
#    y 0.000000 3.308380 0.000000 
#    z 0.000000 0.000000 2.842640 
# 
# 
# High freq. dielectric constant tensor:
#      x y z
#    x 1.636900 0.000000 0.000000 
#    y 0.000000 1.636900 0.000000 
#    z 0.000000 0.000000 1.597120 
# 
# From -- ./inp_files/8343.got.cif
#   From: 2010.03.12/outbox.cif.g09.slc.cpg/sg121_5_cif.got.tgz:8343.got - 2010.04.06 16:06:48.
