data_PCOD8311872
_publ_section_title
;
Structure prediction by ZEFSAII (Michael W. Deem and Ramdas Pophale) SiO2 
 PCOD8311872
Probable space group: I -4 2 D
;
_chemical_formula_sum "Si O2"
_cell_formula_units_Z 96
_cell_length_a 22.967342
_cell_length_b 22.967342
_cell_length_c 8.070755
_cell_angle_alpha 90.000000
_cell_angle_beta 90.000000
_cell_angle_gamma 90.000000
_cell_volume 4257.313566
_symmetry_space_group_name_H-M "I -4 2 D"
_symmetry_group_IT_number 122
_symmetry_cell_setting 'tetragonal'
loop_
_space_group_symop_operation_xyz
x,y,z
y,-x,-z
-x,-y,z
-y,x,-z
x,1/2-y,1/4-z
-x,1/2+y,1/4-z
-y,1/2-x,1/4+z
y,1/2+x,1/4+z
1/2+x,1/2+y,1/2+z
1/2+y,1/2-x,1/2-z
1/2-x,1/2-y,1/2+z
1/2-y,1/2+x,1/2-z
1/2+x,-y,3/4-z
1/2-x,y,3/4-z
1/2-y,-x,3/4+z
1/2+y,x,3/4+z
loop_
_atom_site_type_symbol
_atom_site_label
_atom_site_fract_x
_atom_site_fract_y
_atom_site_fract_z
Si Si1 0.683978 0.879610 0.818592
Si Si2 0.931038 0.951659 0.427289
Si Si3 0.376349 0.664141 0.920041
Si Si4 0.347483 0.015690 0.586778
Si Si5 0.555965 0.250000 0.125000
Si Si6 0.750000 0.371566 0.875000
Si Si7 0.290785 0.591360 0.531396
O O1 0.750000 0.866653 0.875000
O O2 0.674230 0.928813 0.686042
O O3 0.653921 0.820644 0.748330
O O4 0.650564 0.899534 0.985502
O O5 0.888773 0.897770 0.465751
O O6 0.911944 0.977287 0.245747
O O7 0.997160 0.927457 0.431822
O O8 0.306324 0.668491 0.909945
O O9 0.401074 0.725906 0.981642
O O10 0.301687 0.013530 0.434221
O O11 0.341265 0.958373 0.700845
O O12 0.743207 0.409668 0.706958
O O13 0.250000 0.575735 0.375000
#
# Coordination Sequence:
#
# PCOD8311872 Si02
#       7
#    16  16  16  16   8   8  16
#     4  11  23  44  61  97 140 176 227 285 351 424
#     4  10  22  41  68  99 134 177 229 289 356 431
#     4  10  22  41  65  96 133 179 227 285 344 419
#     4  11  23  43  67  98 133 175 235 284 355 418
#     4  10  21  38  68  94 126 178 227 282 346 404
#     4  10  23  44  62 100 138 180 235 280 352 418
#     4  11  26  43  70 103 140 187 237 295 353 425
#
# _framework density 22.549430999999998
#
# number of rings (size 3 to 8) (size 9 to 14) (size 15 to 20)
#    0.000    1.500    1.667    3.000    4.667    2.667 
#   12.000    0.000    0.000    2.000    0.000    0.000 
#    0.000    0.000    0.000    0.000    0.000    0.000 
#
# Total GULP energy -594789.943535 kJ/mol
# GULP energy per Si atom -12391.457157 kJ/mol
# Density = 2.249811 g / cm^3
# Si number density = 22.549431 Si / 1000 Ang^3
#
#
#
# Elastic Constant Matrix: (Units=GPa)
#
#
# Indices 1 2 3 4 5 6 
#
# 1 99.5331 40.9748 27.6580 0.0000 0.0000 0.0000
# 2 40.9748 99.5331 27.6580 0.0000 0.0000 0.0000
# 3 27.6580 27.6580 93.6321 0.0000 0.0000 0.0000
# 4 0.0000 0.0000 0.0000 36.8951 0.0000 0.0000
# 5 0.0000 0.0000 0.0000 0.0000 36.8951 0.0000
# 6 0.0000 0.0000 0.0000 0.0000 0.0000 24.0500
#
#
#
# Elastic Compliance Matrix: (Units=1/GPa)
#
#
# Indices 1 2 3 4 5 6 
#
# 1 0.012565 -0.004512 -0.002379 0.000000 0.000000 0.000000
# 2 -0.004512 0.012565 -0.002379 0.000000 0.000000 0.000000
# 3 -0.002379 -0.002379 0.012086 0.000000 0.000000 0.000000
# 4 0.000000 0.000000 0.000000 0.027104 0.000000 0.000000
# 5 0.000000 0.000000 0.000000 0.000000 0.027104 0.000000
# 6 0.000000 0.000000 0.000000 0.000000 0.000000 0.041580
#
#
# Mechanical properties :
#
#
# Convention : Reuss Voigt Hill
#
# Bulk Modulus (GPa) = 53.54200 53.91997 53.73099
# Shear Modulus (GPa) = 31.69195 32.66189 32.17692
#
# Velocity S-wave (km/s) = 3.75299 3.80999 3.78160
# Velocity P-wave (km/s) = 6.52501 6.58168 6.55341
#
# Compressibility (1/GPa) = 0.01867692
#
# Stress axis : x y z
#
# Youngs Moduli (GPa) = 79.58429 79.58429 82.74349
#
# Poissons Ratio (x) = 0.35906 0.19684
# Poissons Ratio (y) = 0.35906 0.19684
# Poissons Ratio (z) = 0.18933 0.18933
#
# Static dielectric constant tensor:
#      x y z
#    x 4.017260 0.000000 0.000000 
#    y 0.000000 4.017260 0.000000 
#    z 0.000000 0.000000 4.250000 
# 
# 
# High freq. dielectric constant tensor:
#      x y z
#    x 1.881380 0.000000 0.000000 
#    y 0.000000 1.881380 0.000000 
#    z 0.000000 0.000000 1.889510 
# 
# From -- ./inp_files/2959.got.cif
#   From: 2010.03.12/outbox.cif.g09.slc.cpg/sg122_2_cif.got.tgz:2959.got - 2010.04.06 16:17:16.
