data_PCOD8311376
_publ_section_title
;
Structure prediction by ZEFSAII (Michael W. Deem and Ramdas Pophale) SiO2 
 PCOD8311376
Probable space group: I -4 2 M
;
_chemical_formula_sum "Si O2"
_cell_formula_units_Z 80
_cell_length_a 13.329854
_cell_length_b 13.329854
_cell_length_c 25.606067
_cell_angle_alpha 90.000000
_cell_angle_beta 90.000000
_cell_angle_gamma 90.000000
_cell_volume 4549.814211
_symmetry_space_group_name_H-M "I -4 2 M"
_symmetry_group_IT_number 121
_symmetry_cell_setting 'tetragonal'
loop_
_space_group_symop_operation_xyz
x,y,z
y,-x,-z
-x,-y,z
-y,x,-z
x,-y,-z
-x,y,-z
-y,-x,z
y,x,z
1/2+x,1/2+y,1/2+z
1/2+y,1/2-x,1/2-z
1/2-x,1/2-y,1/2+z
1/2-y,1/2+x,1/2-z
1/2+x,1/2-y,1/2-z
1/2-x,1/2+y,1/2-z
1/2-y,1/2-x,1/2+z
1/2+y,1/2+x,1/2+z
loop_
_atom_site_type_symbol
_atom_site_label
_atom_site_fract_x
_atom_site_fract_y
_atom_site_fract_z
Si Si1 0.103109 0.551432 0.447433
Si Si2 0.721125 0.560788 0.048410
Si Si3 0.283093 0.440574 0.161355
Si Si4 0.021663 0.335811 0.247778
Si Si5 0.274430 0.114406 0.144882
O O1 0.143682 0.500000 0.500000
O O2 0.078806 0.663810 0.463779
O O3 0.190867 0.545488 0.403958
O O4 0.000000 0.500000 0.426656
O O5 0.668741 0.668741 0.052599
O O6 0.703648 0.504938 0.104691
O O7 0.673332 0.500000 0.000000
O O8 0.386794 0.386794 0.179452
O O9 0.244721 0.518153 0.204966
O O10 0.198655 0.357528 0.152367
O O11 0.108747 0.415587 0.260268
O O12 0.044912 0.271612 0.196147
O O13 0.165420 0.165420 0.135630
#
# Coordination Sequence:
#
# PCOD8311376 Si02
#       5
#    16  16  16  16  16
#     4  10  18  29  51  78  98 129 171 215 256 297
#     4  10  19  32  49  73 108 142 170 207 257 316
#     4   8  16  30  47  68  99 132 163 205 255 300
#     4   9  17  26  47  75  97 127 167 208 244 294
#     4   9  18  30  46  71 105 133 159 206 263 303
#
# _framework density 17.583134999999999
#
# number of rings (size 3 to 8) (size 9 to 14) (size 15 to 20)
#    0.000    2.800    2.000    1.800    8.400    0.200 
#    0.000    1.000    0.000    9.000    0.000    0.000 
#    0.000    3.600    0.000    0.000    0.000    0.000 
#
# Total GULP energy -495686.610912 kJ/mol
# GULP energy per Si atom -12392.165273 kJ/mol
# Density = 1.754312 g / cm^3
# Si number density = 17.583135 Si / 1000 Ang^3
#
#
#
# Elastic Constant Matrix: (Units=GPa)
#
#
# Indices 1 2 3 4 5 6 
#
# 1 55.0940 36.5960 57.2183 0.0000 0.0000 0.0000
# 2 36.5960 55.0940 57.2183 0.0000 0.0000 0.0000
# 3 57.2183 57.2183 181.4566 0.0000 0.0000 0.0000
# 4 0.0000 0.0000 0.0000 14.9206 0.0000 0.0000
# 5 0.0000 0.0000 0.0000 0.0000 14.9206 0.0000
# 6 0.0000 0.0000 0.0000 0.0000 0.0000 21.2957
#
#
#
# Elastic Compliance Matrix: (Units=1/GPa)
#
#
# Indices 1 2 3 4 5 6 
#
# 1 0.036022 -0.018038 -0.005671 0.000000 0.000000 0.000000
# 2 -0.018038 0.036022 -0.005671 0.000000 0.000000 0.000000
# 3 -0.005671 -0.005671 0.009087 0.000000 0.000000 0.000000
# 4 0.000000 0.000000 0.000000 0.067021 0.000000 0.000000
# 5 0.000000 0.000000 0.000000 0.000000 0.067021 0.000000
# 6 0.000000 0.000000 0.000000 0.000000 0.000000 0.046958
#
#
# Mechanical properties :
#
#
# Convention : Reuss Voigt Hill
#
# Bulk Modulus (GPa) = 44.69889 65.96776 55.33333
# Shear Modulus (GPa) = 15.22771 19.60150 17.41460
#
# Velocity S-wave (km/s) = 2.94605 3.34247 3.15050
# Velocity P-wave (km/s) = 6.08678 7.24536 6.69119
#
# Compressibility (1/GPa) = 0.02237192
#
# Stress axis : x y z
#
# Youngs Moduli (GPa) = 27.76078 27.76078 110.04333
#
# Poissons Ratio (x) = 0.50075 0.62404
# Poissons Ratio (y) = 0.50075 0.62404
# Poissons Ratio (z) = 0.15743 0.15743
#
# Static dielectric constant tensor:
#      x y z
#    x 3.099070 0.000000 0.000000 
#    y 0.000000 3.099070 0.000000 
#    z 0.000000 0.000000 3.782320 
# 
# 
# High freq. dielectric constant tensor:
#      x y z
#    x 1.648080 0.000000 0.000000 
#    y 0.000000 1.648080 0.000000 
#    z 0.000000 0.000000 1.697380 
# 
# From -- ./inp_files/7009.got.cif
#   From: 2010.03.12/outbox.cif.g09.slc.cpg/sg121_4_cif.got.tgz:7009.got - 2010.04.06 16:06:48.
