data_PCOD8311987
_publ_section_title
;
Structure prediction by ZEFSAII (Michael W. Deem and Ramdas Pophale) SiO2 
 PCOD8311987
Probable space group: I -4 2 D
;
_chemical_formula_sum "Si O2"
_cell_formula_units_Z 88
_cell_length_a 13.490636
_cell_length_b 13.490636
_cell_length_c 22.500505
_cell_angle_alpha 90.000000
_cell_angle_beta 90.000000
_cell_angle_gamma 90.000000
_cell_volume 4095.030252
_symmetry_space_group_name_H-M "I -4 2 D"
_symmetry_group_IT_number 122
_symmetry_cell_setting 'tetragonal'
loop_
_space_group_symop_operation_xyz
x,y,z
y,-x,-z
-x,-y,z
-y,x,-z
x,1/2-y,1/4-z
-x,1/2+y,1/4-z
-y,1/2-x,1/4+z
y,1/2+x,1/4+z
1/2+x,1/2+y,1/2+z
1/2+y,1/2-x,1/2-z
1/2-x,1/2-y,1/2+z
1/2-y,1/2+x,1/2-z
1/2+x,-y,3/4-z
1/2-x,y,3/4-z
1/2-y,-x,3/4+z
1/2+y,x,3/4+z
loop_
_atom_site_type_symbol
_atom_site_label
_atom_site_fract_x
_atom_site_fract_y
_atom_site_fract_z
Si Si1 0.138669 0.049164 0.395757
Si Si2 0.500000 0.500000 0.000000
Si Si3 0.182236 0.058179 0.768823
Si Si4 0.750000 0.425920 0.375000
Si Si5 0.363235 0.278821 0.353419
Si Si6 0.000000 0.500000 0.545979
Si Si7 0.500000 0.500000 0.500000
Si Si8 0.836164 0.561593 0.170025
O O1 0.250000 0.035807 0.375000
O O2 0.109310 0.164283 0.403465
O O3 0.098730 0.999842 0.457515
O O4 0.092516 0.993861 0.339704
O O5 0.134018 0.160757 0.792088
O O6 0.244594 0.088533 0.711439
O O7 0.244540 0.997831 0.817779
O O8 0.094390 0.988109 0.746347
O O9 0.652392 0.354488 0.374071
O O10 0.250000 0.292777 0.375000
O O11 0.450162 0.326514 0.393924
O O12 0.430441 0.566362 0.459469
#
# Coordination Sequence:
#
# PCOD8311987 Si02
#       8
#    16   4  16   8  16   8   4  16
#     4  10  24  46  73 101 136 183 233 292 362 422
#     4  10  24  48  72 106 140 176 234 292 350 428
#     4  12  24  43  67 100 138 188 231 293 361 421
#     4  12  26  42  66 108 142 184 238 294 370 420
#     4  11  23  44  68 101 139 185 236 289 359 431
#     4  11  24  46  68  96 141 177 243 288 348 444
#     4  12  20  38  72  86 132 182 216 292 356 398
#     4  12  24  44  67 101 141 181 238 296 353 432
#
# _framework density 21.489464999999999
#
# number of rings (size 3 to 8) (size 9 to 14) (size 15 to 20)
#    0.000    0.727    4.545    3.273    2.545    0.000 
#    4.909    0.000    0.000    0.000    0.000    0.000 
#    0.000    0.000    0.000    0.000    0.000    0.000 
#
# Total GULP energy -545111.585470 kJ/mol
# GULP energy per Si atom -12388.899670 kJ/mol
# Density = 2.144055 g / cm^3
# Si number density = 21.489465 Si / 1000 Ang^3
#
#
#
# Elastic Constant Matrix: (Units=GPa)
#
#
# Indices 1 2 3 4 5 6 
#
# 1 112.5635 24.8021 40.4448 0.0000 0.0000 0.0000
# 2 24.8021 112.5635 40.4448 0.0000 0.0000 0.0000
# 3 40.4448 40.4448 66.1338 0.0000 0.0000 0.0000
# 4 0.0000 0.0000 0.0000 21.1459 0.0000 0.0000
# 5 0.0000 0.0000 0.0000 0.0000 21.1459 0.0000
# 6 0.0000 0.0000 0.0000 0.0000 0.0000 25.6749
#
#
#
# Elastic Compliance Matrix: (Units=1/GPa)
#
#
# Indices 1 2 3 4 5 6 
#
# 1 0.011386 -0.000009 -0.006958 0.000000 0.000000 0.000000
# 2 -0.000009 0.011386 -0.006958 0.000000 0.000000 0.000000
# 3 -0.006958 -0.006958 0.023631 0.000000 0.000000 0.000000
# 4 0.000000 0.000000 0.000000 0.047290 0.000000 0.000000
# 5 0.000000 0.000000 0.000000 0.000000 0.047290 0.000000
# 6 0.000000 0.000000 0.000000 0.000000 0.000000 0.038949
#
#
# Mechanical properties :
#
#
# Convention : Reuss Voigt Hill
#
# Bulk Modulus (GPa) = 53.89641 55.84933 54.87287
# Shear Modulus (GPa) = 23.36832 25.96464 24.66648
#
# Velocity S-wave (km/s) = 3.30120 3.47976 3.39166
# Velocity P-wave (km/s) = 6.29805 6.49543 6.39750
#
# Compressibility (1/GPa) = 0.01855411
#
# Stress axis : x y z
#
# Youngs Moduli (GPa) = 87.82905 87.82905 42.31737
#
# Poissons Ratio (x) = 0.00077 0.29443
# Poissons Ratio (y) = 0.00077 0.29443
# Poissons Ratio (z) = 0.61109 0.61109
#
# Static dielectric constant tensor:
#      x y z
#    x 3.789990 0.000000 0.000000 
#    y 0.000000 3.789990 0.000000 
#    z 0.000000 0.000000 4.023880 
# 
# 
# High freq. dielectric constant tensor:
#      x y z
#    x 1.848180 0.000000 0.000000 
#    y 0.000000 1.848180 0.000000 
#    z 0.000000 0.000000 1.841730 
# 
# From -- ./inp_files/8028.got.cif
#   From: 2010.03.12/outbox.cif.g09.slc.cpg/sg122_5_cif.got.tgz:8028.got - 2010.04.06 16:17:16.
