data_PCOD8311218
_publ_section_title
;
Structure prediction by ZEFSAII (Michael W. Deem and Ramdas Pophale) SiO2 
 PCOD8311218
Probable space group: I -4 C 2
;
_chemical_formula_sum "Si O2"
_cell_formula_units_Z 112
_cell_length_a 15.055346
_cell_length_b 15.055346
_cell_length_c 25.201030
_cell_angle_alpha 90.000000
_cell_angle_beta 90.000000
_cell_angle_gamma 90.000000
_cell_volume 5712.152231
_symmetry_space_group_name_H-M "I -4 C 2"
_symmetry_group_IT_number 120
_symmetry_cell_setting 'tetragonal'
loop_
_space_group_symop_operation_xyz
x,y,z
y,-x,-z
-x,-y,z
-y,x,-z
y,x,1/2-z
-y,-x,1/2-z
-x,y,1/2+z
x,-y,1/2+z
1/2+x,1/2+y,1/2+z
1/2+y,1/2-x,1/2-z
1/2-x,1/2-y,1/2+z
1/2-y,1/2+x,1/2-z
1/2+y,1/2+x,-z
1/2-y,1/2-x,-z
1/2-x,1/2+y,z
1/2+x,1/2-y,z
loop_
_atom_site_type_symbol
_atom_site_label
_atom_site_fract_x
_atom_site_fract_y
_atom_site_fract_z
Si Si1 0.433782 0.077069 0.062120
Si Si2 0.364642 0.480782 0.013353
Si Si3 0.191518 0.583680 0.457715
Si Si4 0.327022 0.256617 0.801680
Si Si5 0.745029 0.530945 0.612521
Si Si6 0.606214 0.094616 0.760154
Si Si7 0.341609 0.191397 0.358440
O O1 0.491105 0.166553 0.072032
O O2 0.340116 0.069228 0.092071
O O3 0.500000 0.000000 0.081636
O O4 0.418189 0.081812 0.000000
O O5 0.329379 0.527772 0.066803
O O6 0.406859 0.558539 0.976254
O O7 0.285218 0.427963 0.985605
O O8 0.114265 0.614265 0.500000
O O9 0.198278 0.660750 0.414423
O O10 0.321737 0.321737 0.750000
O O11 0.404618 0.290802 0.841091
O O12 0.344866 0.157409 0.781880
O O13 0.233380 0.247862 0.831776
O O14 0.753062 0.431362 0.634401
O O15 0.505129 0.123571 0.756995
O O16 0.639185 0.107521 0.820305
#
# Coordination Sequence:
#
# PCOD8311218 Si02
#       7
#    16  16  16  16  16  16  16
#     4  11  18  33  57  93 136 162 191 258 324 382
#     4  11  25  44  62  87 134 183 220 259 305 391
#     4  12  21  39  62  98 138 164 209 267 322 395
#     4  10  24  42  60  93 129 164 216 275 326 389
#     4  12  22  40  66  93 128 173 216 267 328 391
#     4  10  21  38  64  92 123 161 209 272 335 388
#     4  11  22  38  63  93 128 168 205 269 330 392
#
# _framework density 19.607322
#
# number of rings (size 3 to 8) (size 9 to 14) (size 15 to 20)
#    0.000    1.000    7.143    0.857    2.000    1.143 
#    2.571    0.000    0.000    0.000    0.000    0.000 
#    0.000    0.000    0.000    0.000    0.000    0.000 
#
# Total GULP energy -694099.722586 kJ/mol
# GULP energy per Si atom -12394.637903 kJ/mol
# Density = 1.956269 g / cm^3
# Si number density = 19.607322 Si / 1000 Ang^3
#
#
#
# Elastic Constant Matrix: (Units=GPa)
#
#
# Indices 1 2 3 4 5 6 
#
# 1 97.8984 61.4333 47.6006 0.0000 0.0000 0.0000
# 2 61.4333 97.8981 47.6004 0.0000 0.0000 0.0000
# 3 47.6006 47.6004 107.9197 0.0000 0.0000 0.0000
# 4 0.0000 0.0000 0.0000 24.4934 0.0000 0.0000
# 5 0.0000 0.0000 0.0000 0.0000 24.4932 0.0000
# 6 0.0000 0.0000 0.0000 0.0000 0.0000 30.4088
#
#
#
# Elastic Compliance Matrix: (Units=1/GPa)
#
#
# Indices 1 2 3 4 5 6 
#
# 1 0.017973 -0.009451 -0.003759 0.000000 0.000000 0.000000
# 2 -0.009451 0.017973 -0.003759 0.000000 0.000000 0.000000
# 3 -0.003759 -0.003759 0.012582 0.000000 0.000000 0.000000
# 4 0.000000 0.000000 0.000000 0.040827 0.000000 0.000000
# 5 0.000000 0.000000 0.000000 0.000000 0.040828 0.000000
# 6 0.000000 0.000000 0.000000 0.000000 0.000000 0.032885
#
#
# Mechanical properties :
#
#
# Convention : Reuss Voigt Hill
#
# Bulk Modulus (GPa) = 68.53639 68.55386 68.54512
# Shear Modulus (GPa) = 24.76859 25.68455 25.22657
#
# Velocity S-wave (km/s) = 3.55805 3.62325 3.59080
# Velocity P-wave (km/s) = 7.20486 7.24867 7.22680
#
# Compressibility (1/GPa) = 0.01459079
#
# Stress axis : x y z
#
# Youngs Moduli (GPa) = 55.63944 55.63929 79.47828
#
# Poissons Ratio (x) = 0.52583 0.29875
# Poissons Ratio (y) = 0.52583 0.29875
# Poissons Ratio (z) = 0.20914 0.20914
#
# Static dielectric constant tensor:
#      x y z
#    x 3.623250 0.000000 0.000000 
#    y 0.000000 3.623240 0.000000 
#    z 0.000000 0.000000 3.798930 
# 
# 
# High freq. dielectric constant tensor:
#      x y z
#    x 1.756230 0.000000 0.000000 
#    y 0.000000 1.756230 0.000000 
#    z 0.000000 0.000000 1.768660 
# 
# From -- ./inp_files/5929.got.cif
#   From: 2010.03.12/outbox.cif.g09.slc.cpg/sg120_3_cif.got.tgz:5929.got - 2010.04.06 16:00:44.
