data_PCOD8311876
_publ_section_title
;
Structure prediction by ZEFSAII (Michael W. Deem and Ramdas Pophale) SiO2 
 PCOD8311876
Probable space group: I -4 2 D
;
_chemical_formula_sum "Si O2"
_cell_formula_units_Z 56
_cell_length_a 10.441677
_cell_length_b 10.441677
_cell_length_c 26.044976
_cell_angle_alpha 90.000000
_cell_angle_beta 90.000000
_cell_angle_gamma 90.000000
_cell_volume 2839.647754
_symmetry_space_group_name_H-M "I -4 2 D"
_symmetry_group_IT_number 122
_symmetry_cell_setting 'tetragonal'
loop_
_space_group_symop_operation_xyz
x,y,z
y,-x,-z
-x,-y,z
-y,x,-z
x,1/2-y,1/4-z
-x,1/2+y,1/4-z
-y,1/2-x,1/4+z
y,1/2+x,1/4+z
1/2+x,1/2+y,1/2+z
1/2+y,1/2-x,1/2-z
1/2-x,1/2-y,1/2+z
1/2-y,1/2+x,1/2-z
1/2+x,-y,3/4-z
1/2-x,y,3/4-z
1/2-y,-x,3/4+z
1/2+y,x,3/4+z
loop_
_atom_site_type_symbol
_atom_site_label
_atom_site_fract_x
_atom_site_fract_y
_atom_site_fract_z
Si Si1 0.430151 0.271242 0.938004
Si Si2 0.500000 0.000000 0.601668
Si Si3 0.294251 0.651623 0.951030
Si Si4 0.127946 0.250000 0.125000
Si Si5 0.934588 0.250000 0.625000
O O1 0.465208 0.123239 0.931683
O O2 0.553592 0.360521 0.944986
O O3 0.363928 0.336234 0.888532
O O4 0.341550 0.267957 0.988476
O O5 0.538222 0.873999 0.633908
O O6 0.248339 0.783874 0.925633
O O7 0.225499 0.528256 0.924121
#
# Coordination Sequence:
#
# PCOD8311876 Si02
#       5
#    16   8  16   8   8
#     4  11  21  40  63  91 134 168 218 279 339 396
#     4  10  22  42  60  85 130 176 215 270 326 404
#     4  10  21  39  63  97 128 162 220 285 332 399
#     4   9  21  42  60  88 127 171 216 270 334 407
#     4  11  21  34  66  96 125 173 204 270 352 379
#
# _framework density 19.720756999999999
#
# number of rings (size 3 to 8) (size 9 to 14) (size 15 to 20)
#    0.000    1.714    2.857    1.714    0.000    0.000 
#   15.429    2.857    0.000    1.714    0.000    0.000 
#    0.000    0.000    0.000    0.000    0.000    0.000 
#
# Total GULP energy -346920.695138 kJ/mol
# GULP energy per Si atom -12390.024826 kJ/mol
# Density = 1.967587 g / cm^3
# Si number density = 19.720757 Si / 1000 Ang^3
#
#
#
# Elastic Constant Matrix: (Units=GPa)
#
#
# Indices 1 2 3 4 5 6 
#
# 1 126.0832 58.5737 47.6999 0.0000 0.0000 0.0000
# 2 58.5737 126.0832 47.6999 0.0000 0.0000 0.0000
# 3 47.6999 47.6999 90.6597 0.0000 0.0000 0.0000
# 4 0.0000 0.0000 0.0000 23.4158 0.0000 0.0000
# 5 0.0000 0.0000 0.0000 0.0000 23.4158 0.0000
# 6 0.0000 0.0000 0.0000 0.0000 0.0000 37.5523
#
#
#
# Elastic Compliance Matrix: (Units=1/GPa)
#
#
# Indices 1 2 3 4 5 6 
#
# 1 0.011125 -0.003688 -0.003913 0.000000 0.000000 0.000000
# 2 -0.003688 0.011125 -0.003913 0.000000 0.000000 0.000000
# 3 -0.003913 -0.003913 0.015148 0.000000 0.000000 0.000000
# 4 0.000000 0.000000 0.000000 0.042706 0.000000 0.000000
# 5 0.000000 0.000000 0.000000 0.000000 0.042706 0.000000
# 6 0.000000 0.000000 0.000000 0.000000 0.000000 0.026630
#
#
# Mechanical properties :
#
#
# Convention : Reuss Voigt Hill
#
# Bulk Modulus (GPa) = 69.58906 72.30815 70.94861
# Shear Modulus (GPa) = 28.20767 29.46697 28.83732
#
# Velocity S-wave (km/s) = 3.78611 3.86970 3.82813
# Velocity P-wave (km/s) = 7.38083 7.53072 7.45615
#
# Compressibility (1/GPa) = 0.01437007
#
# Stress axis : x y z
#
# Youngs Moduli (GPa) = 89.88879 89.88879 66.01630
#
# Poissons Ratio (x) = 0.33150 0.25832
# Poissons Ratio (y) = 0.33150 0.25832
# Poissons Ratio (z) = 0.35173 0.35173
#
# Static dielectric constant tensor:
#      x y z
#    x 3.752650 0.000000 0.000000 
#    y 0.000000 3.752650 0.000000 
#    z 0.000000 0.000000 3.466860 
# 
# 
# High freq. dielectric constant tensor:
#      x y z
#    x 1.775000 0.000000 0.000000 
#    y 0.000000 1.775000 0.000000 
#    z 0.000000 0.000000 1.747150 
# 
# From -- ./inp_files/7774.got.cif
#   From: 2010.03.12/outbox.cif.g09.slc.cpg/sg122_4_cif.got.tgz:7774.got - 2010.04.06 16:17:16.
