data_PCOD8311696
_publ_section_title
;
Structure prediction by ZEFSAII (Michael W. Deem and Ramdas Pophale) SiO2 
 PCOD8311696
Probable space group: I -4 2 M
;
_chemical_formula_sum "Si O2"
_cell_formula_units_Z 48
_cell_length_a 18.426784
_cell_length_b 18.426784
_cell_length_c 7.137241
_cell_angle_alpha 90.000000
_cell_angle_beta 90.000000
_cell_angle_gamma 90.000000
_cell_volume 2423.424263
_symmetry_space_group_name_H-M "I -4 2 M"
_symmetry_group_IT_number 121
_symmetry_cell_setting 'tetragonal'
loop_
_space_group_symop_operation_xyz
x,y,z
y,-x,-z
-x,-y,z
-y,x,-z
x,-y,-z
-x,y,-z
-y,-x,z
y,x,z
1/2+x,1/2+y,1/2+z
1/2+y,1/2-x,1/2-z
1/2-x,1/2-y,1/2+z
1/2-y,1/2+x,1/2-z
1/2+x,1/2-y,1/2-z
1/2-x,1/2+y,1/2-z
1/2-y,1/2-x,1/2+z
1/2+y,1/2+x,1/2+z
loop_
_atom_site_type_symbol
_atom_site_label
_atom_site_fract_x
_atom_site_fract_y
_atom_site_fract_z
Si Si1 0.216638 0.422333 0.040237
Si Si2 0.927433 0.811968 0.883626
Si Si3 0.661035 0.777045 0.668729
O O1 0.285245 0.441625 0.171917
O O2 0.165092 0.364308 0.145336
O O3 0.176697 0.500000 0.000000
O O4 0.244242 0.387141 0.847139
O O5 0.890384 0.890384 0.876937
O O6 0.875392 0.753313 0.981835
O O7 0.000000 0.820375 0.000000
O O8 0.741265 0.741265 0.692787
#
# Coordination Sequence:
#
# PCOD8311696 Si02
#       3
#    16  16  16
#     4  12  23  38  65  98 130 164 214 277 328 379
#     4  11  23  40  63  92 129 171 217 271 329 390
#     4  11  22  39  64  93 125 170 225 270 314 381
#
# _framework density 19.806685000000002
#
# number of rings (size 3 to 8) (size 9 to 14) (size 15 to 20)
#    0.000    0.667    6.667    3.000    0.000    0.333 
#    0.000    0.000    0.000    8.000    0.000    0.000 
#    0.000    0.000    0.000    0.000    0.000    0.000 
#
# Total GULP energy -297556.770554 kJ/mol
# GULP energy per Si atom -12398.198773 kJ/mol
# Density = 1.976160 g / cm^3
# Si number density = 19.806685 Si / 1000 Ang^3
#
#
#
# Elastic Constant Matrix: (Units=GPa)
#
#
# Indices 1 2 3 4 5 6 
#
# 1 125.8654 55.1246 34.7554 0.0000 0.0000 0.0000
# 2 55.1246 125.8654 34.7554 0.0000 0.0000 0.0000
# 3 34.7554 34.7554 120.2807 0.0000 0.0000 0.0000
# 4 0.0000 0.0000 0.0000 26.9316 0.0000 0.0000
# 5 0.0000 0.0000 0.0000 0.0000 26.9316 0.0000
# 6 0.0000 0.0000 0.0000 0.0000 0.0000 17.7284
#
#
#
# Elastic Compliance Matrix: (Units=1/GPa)
#
#
# Indices 1 2 3 4 5 6 
#
# 1 0.010175 -0.003961 -0.001796 0.000000 0.000000 0.000000
# 2 -0.003961 0.010175 -0.001796 0.000000 0.000000 0.000000
# 3 -0.001796 -0.001796 0.009352 0.000000 0.000000 0.000000
# 4 0.000000 0.000000 0.000000 0.037131 0.000000 0.000000
# 5 0.000000 0.000000 0.000000 0.000000 0.037131 0.000000
# 6 0.000000 0.000000 0.000000 0.000000 0.000000 0.056407
#
#
# Mechanical properties :
#
#
# Convention : Reuss Voigt Hill
#
# Bulk Modulus (GPa) = 68.50157 69.03139 68.76648
# Shear Modulus (GPa) = 27.72509 30.81006 29.26758
#
# Velocity S-wave (km/s) = 3.74543 3.94831 3.84821
# Velocity P-wave (km/s) = 7.30510 7.46417 7.38506
#
# Compressibility (1/GPa) = 0.01459821
#
# Stress axis : x y z
#
# Youngs Moduli (GPa) = 98.27542 98.27542 106.93254
#
# Poissons Ratio (x) = 0.38923 0.19203
# Poissons Ratio (y) = 0.38923 0.19203
# Poissons Ratio (z) = 0.17648 0.17648
#
# Static dielectric constant tensor:
#      x y z
#    x 3.501210 0.000000 0.000000 
#    y 0.000000 3.501210 0.000000 
#    z 0.000000 0.000000 3.917250 
# 
# 
# High freq. dielectric constant tensor:
#      x y z
#    x 1.751880 0.000000 0.000000 
#    y 0.000000 1.751880 0.000000 
#    z 0.000000 0.000000 1.805660 
# 
# From -- ./inp_files/1153.got.cif
#   From: 2010.03.12/outbox.cif.g09.slc.cpg/sg121_1_cif.got.tgz:1153.got - 2010.04.06 16:06:48.
