data_PCOD8311212
_publ_section_title
;
Structure prediction by ZEFSAII (Michael W. Deem and Ramdas Pophale) SiO2 
 PCOD8311212
Probable space group: I -4 C 2
;
_chemical_formula_sum "Si O2"
_cell_formula_units_Z 108
_cell_length_a 13.782715
_cell_length_b 13.782715
_cell_length_c 28.112996
_cell_angle_alpha 90.000000
_cell_angle_beta 90.000000
_cell_angle_gamma 90.000000
_cell_volume 5340.435603
_symmetry_space_group_name_H-M "I -4 C 2"
_symmetry_group_IT_number 120
_symmetry_cell_setting 'tetragonal'
loop_
_space_group_symop_operation_xyz
x,y,z
y,-x,-z
-x,-y,z
-y,x,-z
y,x,1/2-z
-y,-x,1/2-z
-x,y,1/2+z
x,-y,1/2+z
1/2+x,1/2+y,1/2+z
1/2+y,1/2-x,1/2-z
1/2-x,1/2-y,1/2+z
1/2-y,1/2+x,1/2-z
1/2+y,1/2+x,-z
1/2-y,1/2-x,-z
1/2-x,1/2+y,z
1/2+x,1/2-y,z
loop_
_atom_site_type_symbol
_atom_site_label
_atom_site_fract_x
_atom_site_fract_y
_atom_site_fract_z
Si Si1 0.000000 0.000000 0.000000
Si Si2 0.246211 0.378758 0.778088
Si Si3 0.266152 0.579009 0.734002
Si Si4 0.794528 0.622648 0.882464
Si Si5 0.159546 0.340455 0.500000
Si Si6 0.558588 0.906671 0.094149
Si Si7 0.734535 0.013946 0.128800
Si Si8 0.387362 0.345567 0.945165
O O1 0.054171 0.078112 0.032496
O O2 0.338006 0.338006 0.750000
O O3 0.244026 0.493580 0.770788
O O4 0.146776 0.328169 0.761408
O O5 0.259867 0.353754 0.833368
O O6 0.362876 0.637125 0.750000
O O7 0.278387 0.532579 0.681242
O O8 0.831489 0.511710 0.879217
O O9 0.883578 0.696463 0.892025
O O10 0.717687 0.636582 0.923397
O O11 0.139182 0.404973 0.454323
O O12 0.269523 0.366662 0.512997
O O13 0.500000 0.000000 0.077702
O O14 0.645412 0.936416 0.130330
O O15 0.814028 0.969386 0.093146
#
# Coordination Sequence:
#
# PCOD8311212 Si02
#       8
#     4  16  16  16   8  16  16  16
#     4  12  28  40  56  96 126 156 220 256 316 384
#     4  10  22  39  60  91 127 158 212 252 308 380
#     4  10  22  39  61  94 122 166 205 260 311 375
#     4  10  21  39  62  92 118 168 201 257 322 368
#     4  10  21  38  60  88 111 170 204 254 328 368
#     4   9  18  36  61  89 118 150 210 263 308 376
#     4   9  21  40  63  89 125 159 212 257 311 377
#     4  11  24  41  61  87 128 167 205 269 313 388
#
# _framework density 20.223071000000001
#
# number of rings (size 3 to 8) (size 9 to 14) (size 15 to 20)
#    0.000    2.074    0.000    2.000    4.148    1.778 
#    8.000    0.000    0.000    0.000    0.000    0.000 
#    0.000    0.000    0.000    0.000    0.000    0.000 
#
# Total GULP energy -669559.948923 kJ/mol
# GULP energy per Si atom -12399.258313 kJ/mol
# Density = 2.017704 g / cm^3
# Si number density = 20.223071 Si / 1000 Ang^3
#
#
#
# Elastic Constant Matrix: (Units=GPa)
#
#
# Indices 1 2 3 4 5 6 
#
# 1 94.2344 38.1551 42.9990 0.0000 0.0000 0.0000
# 2 38.1551 94.2345 42.9991 0.0000 0.0000 0.0000
# 3 42.9990 42.9991 90.8489 0.0000 0.0000 0.0000
# 4 0.0000 0.0000 0.0000 32.0397 0.0000 0.0000
# 5 0.0000 0.0000 0.0000 0.0000 32.0405 0.0000
# 6 0.0000 0.0000 0.0000 0.0000 0.0000 25.8055
#
#
#
# Elastic Compliance Matrix: (Units=1/GPa)
#
#
# Indices 1 2 3 4 5 6 
#
# 1 0.014369 -0.003463 -0.005162 0.000000 0.000000 0.000000
# 2 -0.003463 0.014369 -0.005162 0.000000 0.000000 0.000000
# 3 -0.005162 -0.005162 0.015894 0.000000 0.000000 0.000000
# 4 0.000000 0.000000 0.000000 0.031211 0.000000 0.000000
# 5 0.000000 0.000000 0.000000 0.000000 0.031211 0.000000
# 6 0.000000 0.000000 0.000000 0.000000 0.000000 0.038751
#
#
# Mechanical properties :
#
#
# Convention : Reuss Voigt Hill
#
# Bulk Modulus (GPa) = 58.62156 58.62489 58.62323
# Shear Modulus (GPa) = 27.92269 28.32143 28.12206
#
# Velocity S-wave (km/s) = 3.71985 3.74632 3.73311
# Velocity P-wave (km/s) = 6.89204 6.91124 6.90165
#
# Compressibility (1/GPa) = 0.01705857
#
# Stress axis : x y z
#
# Youngs Moduli (GPa) = 69.59275 69.59275 62.91740
#
# Poissons Ratio (x) = 0.24097 0.32479
# Poissons Ratio (y) = 0.24097 0.32479
# Poissons Ratio (z) = 0.35925 0.35925
#
# Static dielectric constant tensor:
#      x y z
#    x 3.647840 0.000000 0.000000 
#    y 0.000000 3.647840 0.000000 
#    z 0.000000 0.000000 3.634740 
# 
# 
# High freq. dielectric constant tensor:
#      x y z
#    x 1.791890 0.000000 0.000000 
#    y 0.000000 1.791890 0.000000 
#    z 0.000000 0.000000 1.789330 
# 
# From -- ./inp_files/5949.got.cif
#   From: 2010.03.12/outbox.cif.g09.slc.cpg/sg120_3_cif.got.tgz:5949.got - 2010.04.06 16:00:44.
