data_PCOD8311103
_publ_section_title
;
Structure prediction by ZEFSAII (Michael W. Deem and Ramdas Pophale) SiO2 
 PCOD8311103
Probable space group: I -4 M 2
;
_chemical_formula_sum "Si O2"
_cell_formula_units_Z 80
_cell_length_a 13.616049
_cell_length_b 13.616049
_cell_length_c 25.842731
_cell_angle_alpha 90.000000
_cell_angle_beta 90.000000
_cell_angle_gamma 90.000000
_cell_volume 4791.159382
_symmetry_space_group_name_H-M "I -4 M 2"
_symmetry_group_IT_number 119
_symmetry_cell_setting 'tetragonal'
loop_
_space_group_symop_operation_xyz
x,y,z
y,-x,-z
-x,-y,z
-y,x,-z
y,x,-z
-y,-x,-z
-x,y,z
x,-y,z
1/2+x,1/2+y,1/2+z
1/2+y,1/2-x,1/2-z
1/2-x,1/2-y,1/2+z
1/2-y,1/2+x,1/2-z
1/2+y,1/2+x,1/2-z
1/2-y,1/2-x,1/2-z
1/2-x,1/2+y,1/2+z
1/2+x,1/2-y,1/2+z
loop_
_atom_site_type_symbol
_atom_site_label
_atom_site_fract_x
_atom_site_fract_y
_atom_site_fract_z
Si Si1 0.885874 0.765902 0.726367
Si Si2 0.887416 0.386079 0.558107
Si Si3 0.748338 0.114978 0.785282
Si Si4 0.111899 0.242397 0.467686
Si Si5 0.229709 0.752676 0.628025
O O1 0.827336 0.672665 0.750000
O O2 0.851396 0.864799 0.755966
O O3 0.859355 0.781187 0.666312
O O4 0.000000 0.747125 0.734306
O O5 0.866604 0.500000 0.552704
O O6 0.869583 0.339952 0.501535
O O7 0.807647 0.345140 0.598787
O O8 0.000000 0.364676 0.576302
O O9 0.660521 0.160521 0.750000
O O10 0.758999 0.168568 0.840731
O O11 0.729730 0.000000 0.793702
O O12 0.149382 0.149382 0.500000
O O13 0.162775 0.251642 0.412635
O O14 0.000000 0.223948 0.455014
#
# Coordination Sequence:
#
# PCOD8311103 Si02
#       5
#    16  16  16  16  16
#     4   9  19  34  51  73 101 130 160 197 243 294
#     4   9  17  30  49  72  97 124 155 194 240 287
#     4   9  20  36  51  70  97 129 165 203 244 288
#     4   9  18  32  47  67  96 126 156 192 234 283
#     4   9  18  31  50  72  96 124 159 199 238 283
#
# _framework density 16.697420999999999
#
# number of rings (size 3 to 8) (size 9 to 14) (size 15 to 20)
#    0.000    3.400    0.000    0.600    0.000    9.000 
#    0.000    0.000    0.000    0.000    0.000    0.000 
#    0.000    0.000    0.000    0.000    0.000    0.000 
#
# Total GULP energy -495697.864849 kJ/mol
# GULP energy per Si atom -12392.446621 kJ/mol
# Density = 1.665942 g / cm^3
# Si number density = 16.697421 Si / 1000 Ang^3
#
#
#
# Elastic Constant Matrix: (Units=GPa)
#
#
# Indices 1 2 3 4 5 6 
#
# 1 107.7889 72.5727 59.4027 0.0000 0.0000 0.0000
# 2 72.5727 107.7904 59.4033 0.0000 0.0000 0.0000
# 3 59.4027 59.4033 126.6361 0.0000 0.0000 0.0000
# 4 0.0000 0.0000 0.0000 15.7330 0.0000 0.0000
# 5 0.0000 0.0000 0.0000 0.0000 15.7329 0.0000
# 6 0.0000 0.0000 0.0000 0.0000 0.0000 14.0530
#
#
#
# Elastic Compliance Matrix: (Units=1/GPa)
#
#
# Indices 1 2 3 4 5 6 
#
# 1 0.018210 -0.010186 -0.003764 0.000000 0.000000 0.000000
# 2 -0.010186 0.018209 -0.003764 0.000000 0.000000 0.000000
# 3 -0.003764 -0.003764 0.011428 0.000000 0.000000 0.000000
# 4 0.000000 0.000000 0.000000 0.063560 0.000000 0.000000
# 5 0.000000 0.000000 0.000000 0.000000 0.063561 0.000000
# 6 0.000000 0.000000 0.000000 0.000000 0.000000 0.071159
#
#
# Mechanical properties :
#
#
# Convention : Reuss Voigt Hill
#
# Bulk Modulus (GPa) = 80.51599 80.55253 80.53426
# Shear Modulus (GPa) = 17.50124 19.15958 18.33041
#
# Velocity S-wave (km/s) = 3.24101 3.39109 3.31690
# Velocity P-wave (km/s) = 7.89499 7.97997 7.93759
#
# Compressibility (1/GPa) = 0.01241989
#
# Stress axis : x y z
#
# Youngs Moduli (GPa) = 54.91604 54.91667 87.50692
#
# Poissons Ratio (x) = 0.55938 0.32935
# Poissons Ratio (y) = 0.55937 0.32935
# Poissons Ratio (z) = 0.20669 0.20669
#
# Static dielectric constant tensor:
#      x y z
#    x 3.056010 0.000000 0.000000 
#    y 0.000000 3.056010 0.000000 
#    z 0.000000 0.000000 3.336380 
# 
# 
# High freq. dielectric constant tensor:
#      x y z
#    x 1.632420 0.000000 0.000000 
#    y 0.000000 1.632420 0.000000 
#    z 0.000000 0.000000 1.654870 
# 
# From -- ./inp_files/8620.got.cif
#   From: 2010.03.12/outbox.cif.g09.slc.cpg/sg119_5_cif.got.tgz:8620.got - 2010.04.14 02:25:26.
