data_PCOD8311407
_publ_section_title
;
Structure prediction by ZEFSAII (Michael W. Deem and Ramdas Pophale) SiO2 
 PCOD8311407
Probable space group: I -4 2 M
;
_chemical_formula_sum "Si O2"
_cell_formula_units_Z 88
_cell_length_a 13.392264
_cell_length_b 13.392264
_cell_length_c 28.691339
_cell_angle_alpha 90.000000
_cell_angle_beta 90.000000
_cell_angle_gamma 90.000000
_cell_volume 5145.870122
_symmetry_space_group_name_H-M "I -4 2 M"
_symmetry_group_IT_number 121
_symmetry_cell_setting 'tetragonal'
loop_
_space_group_symop_operation_xyz
x,y,z
y,-x,-z
-x,-y,z
-y,x,-z
x,-y,-z
-x,y,-z
-y,-x,z
y,x,z
1/2+x,1/2+y,1/2+z
1/2+y,1/2-x,1/2-z
1/2-x,1/2-y,1/2+z
1/2-y,1/2+x,1/2-z
1/2+x,1/2-y,1/2-z
1/2-x,1/2+y,1/2-z
1/2-y,1/2-x,1/2+z
1/2+y,1/2+x,1/2+z
loop_
_atom_site_type_symbol
_atom_site_label
_atom_site_fract_x
_atom_site_fract_y
_atom_site_fract_z
Si Si1 0.738152 0.417710 0.337280
Si Si2 0.603725 0.963296 0.421504
Si Si3 0.321198 0.837005 0.931105
Si Si4 0.500000 0.845619 0.500000
Si Si5 0.301695 0.140950 0.846897
Si Si6 0.592450 0.867836 0.751723
O O1 0.623476 0.376525 0.335445
O O2 0.795160 0.362282 0.378420
O O3 0.744273 0.535473 0.345978
O O4 0.790774 0.386120 0.289369
O O5 0.577169 0.912205 0.470460
O O6 0.652739 0.887203 0.385635
O O7 0.500000 0.000000 0.397657
O O8 0.675029 0.058306 0.432831
O O9 0.265215 0.734786 0.946484
O O10 0.283337 0.928512 0.964851
O O11 0.221128 0.221128 0.861574
O O12 0.347581 0.167084 0.796967
O O13 0.476050 0.870631 0.765190
#
# Coordination Sequence:
#
# PCOD8311407 Si02
#       6
#    16  16  16   8  16  16
#     4  10  19  33  49  71 105 140 173 214 262 320
#     4  10  18  34  55  75 105 135 174 230 261 309
#     4  10  19  32  55  79 101 137 178 215 263 316
#     4  10  19  34  54  77 108 137 176 226 268 307
#     4  11  21  32  51  79 107 139 178 222 274 321
#     4   9  18  30  52  77 101 132 177 229 267 311
#
# _framework density 17.101092999999999
#
# number of rings (size 3 to 8) (size 9 to 14) (size 15 to 20)
#    0.000    2.000    3.636    4.091    2.545    1.091 
#    0.000    0.000    0.000    0.818    0.000    0.000 
#    0.000    0.000    0.000    0.000    0.000    0.000 
#
# Total GULP energy -545294.810123 kJ/mol
# GULP energy per Si atom -12393.063866 kJ/mol
# Density = 1.706217 g / cm^3
# Si number density = 17.101093 Si / 1000 Ang^3
#
#
#
# Elastic Constant Matrix: (Units=GPa)
#
#
# Indices 1 2 3 4 5 6 
#
# 1 79.3743 51.9561 30.4969 0.0000 0.0000 0.0000
# 2 51.9561 79.3734 30.4967 0.0000 0.0000 0.0000
# 3 30.4969 30.4967 82.7755 0.0000 0.0000 0.0000
# 4 0.0000 0.0000 0.0000 13.1963 0.0000 0.0000
# 5 0.0000 0.0000 0.0000 0.0000 13.1953 0.0000
# 6 0.0000 0.0000 0.0000 0.0000 0.0000 39.1377
#
#
#
# Elastic Compliance Matrix: (Units=1/GPa)
#
#
# Indices 1 2 3 4 5 6 
#
# 1 0.022829 -0.013643 -0.003384 0.000000 0.000000 0.000000
# 2 -0.013643 0.022830 -0.003384 0.000000 0.000000 0.000000
# 3 -0.003384 -0.003384 0.014575 0.000000 0.000000 0.000000
# 4 0.000000 0.000000 0.000000 0.075779 0.000000 0.000000
# 5 0.000000 0.000000 0.000000 0.000000 0.075785 0.000000
# 6 0.000000 0.000000 0.000000 0.000000 0.000000 0.025551
#
#
# Mechanical properties :
#
#
# Convention : Reuss Voigt Hill
#
# Bulk Modulus (GPa) = 51.52154 51.93586 51.72870
# Shear Modulus (GPa) = 17.56593 21.67743 19.62168
#
# Velocity S-wave (km/s) = 3.20844 3.56421 3.39099
# Velocity P-wave (km/s) = 6.62710 6.88287 6.75620
#
# Compressibility (1/GPa) = 0.01940936
#
# Stress axis : x y z
#
# Youngs Moduli (GPa) = 43.80327 43.80278 68.61183
#
# Poissons Ratio (x) = 0.59761 0.23221
# Poissons Ratio (y) = 0.59762 0.23222
# Poissons Ratio (z) = 0.14825 0.14825
#
# Static dielectric constant tensor:
#      x y z
#    x 3.207550 0.000000 0.000000 
#    y 0.000000 3.207550 0.000000 
#    z 0.000000 0.000000 3.315130 
# 
# 
# High freq. dielectric constant tensor:
#      x y z
#    x 1.638060 0.000000 0.000000 
#    y 0.000000 1.638060 0.000000 
#    z 0.000000 0.000000 1.678830 
# 
# From -- ./inp_files/7083.got.cif
#   From: 2010.03.12/outbox.cif.g09.slc.cpg/sg121_4_cif.got.tgz:7083.got - 2010.04.06 16:06:48.
