data_PCOD8311265
_publ_section_title
;
Structure prediction by ZEFSAII (Michael W. Deem and Ramdas Pophale) SiO2 
 PCOD8311265
Probable space group: I -4 C 2
;
_chemical_formula_sum "Si O2"
_cell_formula_units_Z 48
_cell_length_a 10.303243
_cell_length_b 10.303243
_cell_length_c 22.438284
_cell_angle_alpha 90.000000
_cell_angle_beta 90.000000
_cell_angle_gamma 90.000000
_cell_volume 2381.976793
_symmetry_space_group_name_H-M "I -4 C 2"
_symmetry_group_IT_number 120
_symmetry_cell_setting 'tetragonal'
loop_
_space_group_symop_operation_xyz
x,y,z
y,-x,-z
-x,-y,z
-y,x,-z
y,x,1/2-z
-y,-x,1/2-z
-x,y,1/2+z
x,-y,1/2+z
1/2+x,1/2+y,1/2+z
1/2+y,1/2-x,1/2-z
1/2-x,1/2-y,1/2+z
1/2-y,1/2+x,1/2-z
1/2+y,1/2+x,-z
1/2-y,1/2-x,-z
1/2-x,1/2+y,z
1/2+x,1/2-y,z
loop_
_atom_site_type_symbol
_atom_site_label
_atom_site_fract_x
_atom_site_fract_y
_atom_site_fract_z
Si Si1 0.388988 0.594705 0.151835
Si Si2 0.867273 0.842081 0.478867
Si Si3 0.522772 0.791240 0.746051
O O1 0.500000 0.500000 0.128541
O O2 0.314885 0.634158 0.092095
O O3 0.305165 0.510898 0.198382
O O4 0.445154 0.721446 0.184234
O O5 0.765271 0.734730 0.500000
O O6 0.011599 0.818481 0.505795
O O7 0.387430 0.861459 0.736991
#
# Coordination Sequence:
#
# PCOD8311265 Si02
#       3
#    16  16  16
#     4  11  24  41  69  88 133 164 216 262 335 375
#     4  11  26  47  70 100 133 177 226 277 335 401
#     4  10  24  39  63  97 126 168 213 264 318 385
#
# _framework density 20.151329
#
# number of rings (size 3 to 8) (size 9 to 14) (size 15 to 20)
#    0.000    1.333    3.333    2.000   18.667    0.667 
#    0.000    0.000    0.000    0.000    0.000    0.000 
#    0.000    0.000    0.000    0.000    0.000    0.000 
#
# Total GULP energy -297603.187179 kJ/mol
# GULP energy per Si atom -12400.132799 kJ/mol
# Density = 2.010546 g / cm^3
# Si number density = 20.151329 Si / 1000 Ang^3
#
#
#
# Elastic Constant Matrix: (Units=GPa)
#
#
# Indices 1 2 3 4 5 6 
#
# 1 81.6391 27.2608 6.7128 0.0000 0.0000 0.0000
# 2 27.2608 81.6421 6.7130 0.0000 0.0000 0.0000
# 3 6.7128 6.7130 128.1387 0.0000 0.0000 0.0000
# 4 0.0000 0.0000 0.0000 21.9933 0.0000 0.0000
# 5 0.0000 0.0000 0.0000 0.0000 21.9933 0.0000
# 6 0.0000 0.0000 0.0000 0.0000 0.0000 37.9741
#
#
#
# Elastic Compliance Matrix: (Units=1/GPa)
#
#
# Indices 1 2 3 4 5 6 
#
# 1 0.013816 -0.004573 -0.000484 0.000000 0.000000 0.000000
# 2 -0.004573 0.013815 -0.000484 0.000000 0.000000 0.000000
# 3 -0.000484 -0.000484 0.007855 0.000000 0.000000 0.000000
# 4 0.000000 0.000000 0.000000 0.045468 0.000000 0.000000
# 5 0.000000 0.000000 0.000000 0.000000 0.045468 0.000000
# 6 0.000000 0.000000 0.000000 0.000000 0.000000 0.026334
#
#
# Mechanical properties :
#
#
# Convention : Reuss Voigt Hill
#
# Bulk Modulus (GPa) = 40.97914 41.42145 41.20030
# Shear Modulus (GPa) = 29.07406 33.10769 31.09088
#
# Velocity S-wave (km/s) = 3.80252 4.05773 3.93220
# Velocity P-wave (km/s) = 6.29752 6.52330 6.41140
#
# Compressibility (1/GPa) = 0.02440266
#
# Stress axis : x y z
#
# Youngs Moduli (GPa) = 72.37987 72.38249 127.31111
#
# Poissons Ratio (x) = 0.33104 0.06164
# Poissons Ratio (y) = 0.33102 0.06164
# Poissons Ratio (z) = 0.03504 0.03505
#
# Static dielectric constant tensor:
#      x y z
#    x 3.733120 0.000000 0.000000 
#    y 0.000000 3.733120 0.000000 
#    z 0.000000 0.000000 3.707450 
# 
# 
# High freq. dielectric constant tensor:
#      x y z
#    x 1.789770 0.000000 0.000000 
#    y 0.000000 1.789770 0.000000 
#    z 0.000000 0.000000 1.799480 
# 
# From -- ./inp_files/4860.got.cif
#   From: 2010.03.12/outbox.cif.g09.slc.cpg/sg120_3_cif.got.tgz:4860.got - 2010.04.06 16:00:44.
