data_PCOD8311603
_publ_section_title
;
Structure prediction by ZEFSAII (Michael W. Deem and Ramdas Pophale) SiO2 
 PCOD8311603
Probable space group: I -4 2 M
;
_chemical_formula_sum "Si O2"
_cell_formula_units_Z 80
_cell_length_a 28.337353
_cell_length_b 28.337353
_cell_length_c 5.045493
_cell_angle_alpha 90.000000
_cell_angle_beta 90.000000
_cell_angle_gamma 90.000000
_cell_volume 4051.559008
_symmetry_space_group_name_H-M "I -4 2 M"
_symmetry_group_IT_number 121
_symmetry_cell_setting 'tetragonal'
loop_
_space_group_symop_operation_xyz
x,y,z
y,-x,-z
-x,-y,z
-y,x,-z
x,-y,-z
-x,y,-z
-y,-x,z
y,x,z
1/2+x,1/2+y,1/2+z
1/2+y,1/2-x,1/2-z
1/2-x,1/2-y,1/2+z
1/2-y,1/2+x,1/2-z
1/2+x,1/2-y,1/2-z
1/2-x,1/2+y,1/2-z
1/2-y,1/2-x,1/2+z
1/2+y,1/2+x,1/2+z
loop_
_atom_site_type_symbol
_atom_site_label
_atom_site_fract_x
_atom_site_fract_y
_atom_site_fract_z
Si Si1 0.674317 0.867537 0.481577
Si Si2 0.500000 0.361893 0.500000
Si Si3 0.101232 0.555615 0.964440
Si Si4 0.326165 0.400869 0.497608
Si Si5 0.216936 0.141450 0.495442
Si Si6 0.924072 0.000000 0.500000
O O1 0.645876 0.832384 0.674874
O O2 0.653405 0.920385 0.522887
O O3 0.728290 0.860875 0.564402
O O4 0.544107 0.328699 0.432958
O O5 0.514722 0.393067 0.750302
O O6 0.077243 0.566222 0.683149
O O7 0.108014 0.500000 0.000000
O O8 0.377555 0.377555 0.542380
O O9 0.309449 0.393418 0.197404
O O10 0.289189 0.377012 0.697257
O O11 0.194323 0.194323 0.523913
O O12 0.955613 0.044388 0.585171
#
# Coordination Sequence:
#
# PCOD8311603 Si02
#       6
#    16   8  16  16  16   8
#     4  10  21  38  60  85 118 149 186 238 289 338
#     4  12  22  37  56  78 108 148 194 228 287 360
#     4  10  21  37  57  85 118 155 194 234 283 331
#     4  10  21  37  55  78 111 147 183 236 287 336
#     4  10  21  38  59  83 114 148 189 237 288 346
#     4  11  22  34  52  78 104 136 186 244 292 338
#
# _framework density 19.745486
#
# number of rings (size 3 to 8) (size 9 to 14) (size 15 to 20)
#    0.000    1.700    0.000    4.800    0.000    4.400 
#    3.600    0.000    0.000    0.000    0.000    0.000 
#    0.000    0.000    0.000    0.000    0.000    0.000 
#
# Total GULP energy -496075.098077 kJ/mol
# GULP energy per Si atom -12401.877452 kJ/mol
# Density = 1.970054 g / cm^3
# Si number density = 19.745486 Si / 1000 Ang^3
#
#
#
# Elastic Constant Matrix: (Units=GPa)
#
#
# Indices 1 2 3 4 5 6 
#
# 1 127.3388 45.8118 9.0553 0.0000 0.0000 0.0000
# 2 45.8118 127.3385 9.0556 0.0000 0.0000 0.0000
# 3 9.0553 9.0556 83.3677 0.0000 0.0000 0.0000
# 4 0.0000 0.0000 0.0000 23.3947 0.0000 0.0000
# 5 0.0000 0.0000 0.0000 0.0000 23.3948 0.0000
# 6 0.0000 0.0000 0.0000 0.0000 0.0000 10.0914
#
#
#
# Elastic Compliance Matrix: (Units=1/GPa)
#
#
# Indices 1 2 3 4 5 6 
#
# 1 0.009054 -0.003212 -0.000635 0.000000 0.000000 0.000000
# 2 -0.003212 0.009054 -0.000635 0.000000 0.000000 0.000000
# 3 -0.000635 -0.000635 0.012133 0.000000 0.000000 0.000000
# 4 0.000000 0.000000 0.000000 0.042745 0.000000 0.000000
# 5 0.000000 0.000000 0.000000 0.000000 0.042745 0.000000
# 6 0.000000 0.000000 0.000000 0.000000 0.000000 0.099094
#
#
# Mechanical properties :
#
#
# Convention : Reuss Voigt Hill
#
# Bulk Modulus (GPa) = 46.99651 51.76559 49.38105
# Shear Modulus (GPa) = 21.65638 29.65101 25.65369
#
# Velocity S-wave (km/s) = 3.31535 3.87933 3.60838
# Velocity P-wave (km/s) = 6.20550 6.80727 6.51334
#
# Compressibility (1/GPa) = 0.02127817
#
# Stress axis : x y z
#
# Youngs Moduli (GPa) = 110.45104 110.45076 82.42057
#
# Poissons Ratio (x) = 0.35478 0.05230
# Poissons Ratio (y) = 0.35478 0.05230
# Poissons Ratio (z) = 0.07008 0.07009
#
# Static dielectric constant tensor:
#      x y z
#    x 3.407540 0.000000 0.000000 
#    y 0.000000 3.407530 0.000000 
#    z 0.000000 0.000000 3.838710 
# 
# 
# High freq. dielectric constant tensor:
#      x y z
#    x 1.756830 0.000000 0.000000 
#    y 0.000000 1.756830 0.000000 
#    z 0.000000 0.000000 1.791540 
# 
# From -- ./inp_files/597.got.cif
#   From: 2010.03.12/outbox.cif.g09.slc.cpg/sg121_1_cif.got.tgz:597.got - 2010.04.06 16:06:48.
