data_PCOD8311074
_publ_section_title
;
Structure prediction by ZEFSAII (Michael W. Deem and Ramdas Pophale) SiO2 
 PCOD8311074
Probable space group: I -4 M 2
;
_chemical_formula_sum "Si O2"
_cell_formula_units_Z 60
_cell_length_a 14.170426
_cell_length_b 14.170426
_cell_length_c 14.481464
_cell_angle_alpha 90.000000
_cell_angle_beta 90.000000
_cell_angle_gamma 90.000000
_cell_volume 2907.892062
_symmetry_space_group_name_H-M "I -4 M 2"
_symmetry_group_IT_number 119
_symmetry_cell_setting 'tetragonal'
loop_
_space_group_symop_operation_xyz
x,y,z
y,-x,-z
-x,-y,z
-y,x,-z
y,x,-z
-y,-x,-z
-x,y,z
x,-y,z
1/2+x,1/2+y,1/2+z
1/2+y,1/2-x,1/2-z
1/2-x,1/2-y,1/2+z
1/2-y,1/2+x,1/2-z
1/2+y,1/2+x,1/2-z
1/2-y,1/2-x,1/2-z
1/2-x,1/2+y,1/2+z
1/2+x,1/2-y,1/2+z
loop_
_atom_site_type_symbol
_atom_site_label
_atom_site_fract_x
_atom_site_fract_y
_atom_site_fract_z
Si Si1 0.798356 0.500000 0.337041
Si Si2 0.000000 0.842670 0.333324
Si Si3 0.000000 0.500000 0.250000
Si Si4 0.000000 0.804099 0.893650
Si Si5 0.500000 0.500000 0.500000
Si Si6 0.000000 0.718723 0.511849
Si Si7 0.152444 0.000000 0.314408
Si Si8 0.202852 0.351804 0.491239
O O1 0.738209 0.500000 0.243898
O O2 0.772426 0.593723 0.395761
O O3 0.908703 0.500000 0.314780
O O4 0.000000 0.798494 0.434186
O O5 0.092487 0.905362 0.324727
O O6 0.000000 0.800627 0.784647
O O7 0.092220 0.748258 0.924461
O O8 0.000000 0.910388 0.932852
O O9 0.090707 0.652293 0.501165
O O10 0.000000 0.764913 0.611787
O O11 0.247019 0.247019 0.500000
#
# Coordination Sequence:
#
# PCOD8311074 Si02
#       8
#     8   8   2   8   2   8   8  16
#     4  11  23  39  67  98 124 159 209 281 336 381
#     4  11  22  40  67  93 127 165 218 279 321 368
#     4  12  24  40  60  92 132 166 208 252 340 392
#     4  11  24  39  72  99 130 160 205 281 332 385
#     4  12  20  44  72 108 134 144 212 292 356 364
#     4  12  26  42  59  87 138 184 217 245 300 400
#     4  11  24  40  64  96 125 172 219 263 319 374
#     4  11  23  41  65  95 129 169 213 265 326 378
#
# _framework density 20.633503000000001
#
# number of rings (size 3 to 8) (size 9 to 14) (size 15 to 20)
#    0.000    0.800    1.333    7.200    3.733    3.733 
#    0.000    5.333    0.000    3.200    0.000    0.000 
#    0.000    0.000    0.000    0.000    0.000    0.000 
#
# Total GULP energy -372143.189749 kJ/mol
# GULP energy per Si atom -12404.772992 kJ/mol
# Density = 2.058654 g / cm^3
# Si number density = 20.633503 Si / 1000 Ang^3
#
#
#
# Elastic Constant Matrix: (Units=GPa)
#
#
# Indices 1 2 3 4 5 6 
#
# 1 118.8346 42.7393 37.6819 0.0000 0.0000 0.0000
# 2 42.7393 118.8347 37.6819 0.0000 0.0000 0.0000
# 3 37.6819 37.6819 154.8580 0.0000 0.0000 0.0000
# 4 0.0000 0.0000 0.0000 23.2966 0.0000 0.0000
# 5 0.0000 0.0000 0.0000 0.0000 23.2965 0.0000
# 6 0.0000 0.0000 0.0000 0.0000 0.0000 62.6731
#
#
#
# Elastic Compliance Matrix: (Units=1/GPa)
#
#
# Indices 1 2 3 4 5 6 
#
# 1 0.010061 -0.003080 -0.001699 0.000000 0.000000 0.000000
# 2 -0.003080 0.010061 -0.001699 0.000000 0.000000 0.000000
# 3 -0.001699 -0.001699 0.007284 0.000000 0.000000 0.000000
# 4 0.000000 0.000000 0.000000 0.042925 0.000000 0.000000
# 5 0.000000 0.000000 0.000000 0.000000 0.042925 0.000000
# 6 0.000000 0.000000 0.000000 0.000000 0.000000 0.015956
#
#
# Mechanical properties :
#
#
# Convention : Reuss Voigt Hill
#
# Bulk Modulus (GPa) = 69.19454 69.85927 69.52691
# Shear Modulus (GPa) = 34.01703 40.14818 37.08260
#
# Velocity S-wave (km/s) = 4.06474 4.41588 4.24394
# Velocity P-wave (km/s) = 7.45904 7.74149 7.60158
#
# Compressibility (1/GPa) = 0.01445201
#
# Stress axis : x y z
#
# Youngs Moduli (GPa) = 99.38914 99.38916 137.28182
#
# Poissons Ratio (x) = 0.30611 0.23322
# Poissons Ratio (y) = 0.30611 0.23322
# Poissons Ratio (z) = 0.16884 0.16884
#
# Static dielectric constant tensor:
#      x y z
#    x 3.878240 0.000000 0.000000 
#    y 0.000000 3.878240 0.000000 
#    z 0.000000 0.000000 3.780580 
# 
# 
# High freq. dielectric constant tensor:
#      x y z
#    x 1.816710 0.000000 0.000000 
#    y 0.000000 1.816710 0.000000 
#    z 0.000000 0.000000 1.813680 
# 
# From -- ./inp_files/5159.got.cif
#   From: 2010.03.12/outbox.cif.g09.slc.cpg/sg119_3_cif.got.tgz:5159.got - 2010.04.14 02:25:26.
