data_PCOD8311978
_publ_section_title
;
Structure prediction by ZEFSAII (Michael W. Deem and Ramdas Pophale) SiO2 
 PCOD8311978
Probable space group: I -4 2 D
;
_chemical_formula_sum "Si O2"
_cell_formula_units_Z 32
_cell_length_a 14.905919
_cell_length_b 14.905919
_cell_length_c 6.632879
_cell_angle_alpha 90.000000
_cell_angle_beta 90.000000
_cell_angle_gamma 90.000000
_cell_volume 1473.735647
_symmetry_space_group_name_H-M "I -4 2 D"
_symmetry_group_IT_number 122
_symmetry_cell_setting 'tetragonal'
loop_
_space_group_symop_operation_xyz
x,y,z
y,-x,-z
-x,-y,z
-y,x,-z
x,1/2-y,1/4-z
-x,1/2+y,1/4-z
-y,1/2-x,1/4+z
y,1/2+x,1/4+z
1/2+x,1/2+y,1/2+z
1/2+y,1/2-x,1/2-z
1/2-x,1/2-y,1/2+z
1/2-y,1/2+x,1/2-z
1/2+x,-y,3/4-z
1/2-x,y,3/4-z
1/2-y,-x,3/4+z
1/2+y,x,3/4+z
loop_
_atom_site_type_symbol
_atom_site_label
_atom_site_fract_x
_atom_site_fract_y
_atom_site_fract_z
Si Si1 0.221754 0.149664 0.098532
Si Si2 0.386005 0.418332 0.929818
O O1 0.183306 0.250000 0.125000
O O2 0.314455 0.147324 0.220732
O O3 0.144117 0.082898 0.191791
O O4 0.250000 0.120365 0.875000
O O5 0.378138 0.516038 0.030872
#
# Coordination Sequence:
#
# PCOD8311978 Si02
#       2
#    16  16
#     4  11  23  40  68  97 135 177 229 285 348 411
#     4  10  24  43  65  97 138 177 228 286 348 422
#
# _framework density 21.713529999999999
#
# number of rings (size 3 to 8) (size 9 to 14) (size 15 to 20)
#    0.000    1.500    5.000    0.000    7.000    6.000 
#    0.000    5.000    0.000    0.000    0.000    0.000 
#    0.000    0.000    0.000    0.000    0.000    0.000 
#
# Total GULP energy -198237.225035 kJ/mol
# GULP energy per Si atom -12389.826565 kJ/mol
# Density = 2.166411 g / cm^3
# Si number density = 21.713530 Si / 1000 Ang^3
#
#
#
# Elastic Constant Matrix: (Units=GPa)
#
#
# Indices 1 2 3 4 5 6 
#
# 1 103.8888 25.0788 48.2361 0.0000 0.0000 0.0000
# 2 25.0788 103.8888 48.2361 0.0000 0.0000 0.0000
# 3 48.2361 48.2361 173.7781 0.0000 0.0000 0.0000
# 4 0.0000 0.0000 0.0000 32.8217 0.0000 0.0000
# 5 0.0000 0.0000 0.0000 0.0000 32.8217 0.0000
# 6 0.0000 0.0000 0.0000 0.0000 0.0000 29.1475
#
#
#
# Elastic Compliance Matrix: (Units=1/GPa)
#
#
# Indices 1 2 3 4 5 6 
#
# 1 0.011237 -0.001452 -0.002716 0.000000 0.000000 0.000000
# 2 -0.001452 0.011237 -0.002716 0.000000 0.000000 0.000000
# 3 -0.002716 -0.002716 0.007262 0.000000 0.000000 0.000000
# 4 0.000000 0.000000 0.000000 0.030468 0.000000 0.000000
# 5 0.000000 0.000000 0.000000 0.000000 0.030468 0.000000
# 6 0.000000 0.000000 0.000000 0.000000 0.000000 0.034308
#
#
# Mechanical properties :
#
#
# Convention : Reuss Voigt Hill
#
# Bulk Modulus (GPa) = 62.62199 69.40642 66.01420
# Shear Modulus (GPa) = 34.70500 36.29182 35.49841
#
# Velocity S-wave (km/s) = 4.00223 4.09270 4.04772
# Velocity P-wave (km/s) = 7.08941 7.37344 7.23282
#
# Compressibility (1/GPa) = 0.01596883
#
# Stress axis : x y z
#
# Youngs Moduli (GPa) = 88.98986 88.98986 137.69593
#
# Poissons Ratio (x) = 0.12917 0.37402
# Poissons Ratio (y) = 0.12917 0.37402
# Poissons Ratio (z) = 0.24172 0.24172
#
# Static dielectric constant tensor:
#      x y z
#    x 3.786360 0.000000 0.000000 
#    y 0.000000 3.786360 0.000000 
#    z 0.000000 0.000000 4.844260 
# 
# 
# High freq. dielectric constant tensor:
#      x y z
#    x 1.844080 0.000000 0.000000 
#    y 0.000000 1.844080 0.000000 
#    z 0.000000 0.000000 1.861480 
# 
# From -- ./inp_files/1691.got.cif
#   From: 2010.03.12/outbox.cif.g09.slc.cpg/sg122_1_cif.got.tgz:1691.got - 2010.04.06 16:17:16.
