data_PCOD8311354
_publ_section_title
;
Structure prediction by ZEFSAII (Michael W. Deem and Ramdas Pophale) SiO2 
 PCOD8311354
Probable space group: I -4 2 M
;
_chemical_formula_sum "Si O2"
_cell_formula_units_Z 72
_cell_length_a 13.286262
_cell_length_b 13.286262
_cell_length_c 21.654969
_cell_angle_alpha 90.000000
_cell_angle_beta 90.000000
_cell_angle_gamma 90.000000
_cell_volume 3822.638161
_symmetry_space_group_name_H-M "I -4 2 M"
_symmetry_group_IT_number 121
_symmetry_cell_setting 'tetragonal'
loop_
_space_group_symop_operation_xyz
x,y,z
y,-x,-z
-x,-y,z
-y,x,-z
x,-y,-z
-x,y,-z
-y,-x,z
y,x,z
1/2+x,1/2+y,1/2+z
1/2+y,1/2-x,1/2-z
1/2-x,1/2-y,1/2+z
1/2-y,1/2+x,1/2-z
1/2+x,1/2-y,1/2-z
1/2-x,1/2+y,1/2-z
1/2-y,1/2-x,1/2+z
1/2+y,1/2+x,1/2+z
loop_
_atom_site_type_symbol
_atom_site_label
_atom_site_fract_x
_atom_site_fract_y
_atom_site_fract_z
Si Si1 0.732724 0.000000 0.000000
Si Si2 0.658331 0.497812 0.383111
Si Si3 0.246259 0.919373 0.230901
Si Si4 0.443313 0.105055 0.941006
Si Si5 0.730336 0.899853 0.319888
O O1 0.799356 0.049875 0.946186
O O2 0.668736 0.915456 0.965069
O O3 0.581855 0.418146 0.353151
O O4 0.602177 0.602177 0.399525
O O5 0.744752 0.517101 0.332724
O O6 0.145042 0.854959 0.237380
O O7 0.343969 0.848359 0.225680
O O8 0.245911 0.993680 0.288741
O O9 0.431979 0.182739 0.885238
O O10 0.500000 0.000000 0.922102
O O11 0.500000 0.154900 0.000000
O O12 0.829503 0.829503 0.329568
#
# Coordination Sequence:
#
# PCOD8311354 Si02
#       5
#     8  16  16  16  16
#     4  10  17  31  52  78 112 148 194 235 283 346
#     4  10  19  31  50  80 117 152 184 228 293 355
#     4  10  23  39  58  88 121 156 201 249 301 358
#     4   9  21  38  58  83 115 155 197 242 297 346
#     4  11  23  39  63  90 119 160 204 248 300 358
#
# _framework density 18.835160999999999
#
# number of rings (size 3 to 8) (size 9 to 14) (size 15 to 20)
#    0.000    2.222    2.222    1.333    3.111    3.111 
#    0.000    1.111    0.000    1.333    0.000    0.000 
#    0.000    0.000    0.000    0.000    0.000    0.000 
#
# Total GULP energy -446135.883520 kJ/mol
# GULP energy per Si atom -12392.663431 kJ/mol
# Density = 1.879229 g / cm^3
# Si number density = 18.835161 Si / 1000 Ang^3
#
#
#
# Elastic Constant Matrix: (Units=GPa)
#
#
# Indices 1 2 3 4 5 6 
#
# 1 79.5247 26.8446 49.6294 0.0000 0.0000 0.0000
# 2 26.8446 79.5236 49.6297 0.0000 0.0000 0.0000
# 3 49.6294 49.6297 133.8104 0.0000 0.0000 0.0000
# 4 0.0000 0.0000 0.0000 36.6245 0.0000 0.0000
# 5 0.0000 0.0000 0.0000 0.0000 36.6247 0.0000
# 6 0.0000 0.0000 0.0000 0.0000 0.0000 20.0081
#
#
#
# Elastic Compliance Matrix: (Units=1/GPa)
#
#
# Indices 1 2 3 4 5 6 
#
# 1 0.016680 -0.002303 -0.005332 0.000000 0.000000 0.000000
# 2 -0.002303 0.016680 -0.005333 0.000000 0.000000 0.000000
# 3 -0.005332 -0.005333 0.011429 0.000000 0.000000 0.000000
# 4 0.000000 0.000000 0.000000 0.027304 0.000000 0.000000
# 5 0.000000 0.000000 0.000000 0.000000 0.027304 0.000000
# 6 0.000000 0.000000 0.000000 0.000000 0.000000 0.049980
#
#
# Mechanical properties :
#
#
# Convention : Reuss Voigt Hill
#
# Bulk Modulus (GPa) = 53.04033 60.56290 56.80162
# Shear Modulus (GPa) = 27.53356 29.76845 28.65100
#
# Velocity S-wave (km/s) = 3.82752 3.97983 3.90442
# Velocity P-wave (km/s) = 6.91047 7.30361 7.10976
#
# Compressibility (1/GPa) = 0.01885358
#
# Stress axis : x y z
#
# Youngs Moduli (GPa) = 59.95272 59.95135 87.49798
#
# Poissons Ratio (x) = 0.13805 0.46657
# Poissons Ratio (y) = 0.13805 0.46659
# Poissons Ratio (z) = 0.31969 0.31969
#
# Static dielectric constant tensor:
#      x y z
#    x 3.417530 0.000000 0.000000 
#    y 0.000000 3.417530 0.000000 
#    z 0.000000 0.000000 3.507740 
# 
# 
# High freq. dielectric constant tensor:
#      x y z
#    x 1.722020 0.000000 0.000000 
#    y 0.000000 1.722020 0.000000 
#    z 0.000000 0.000000 1.735870 
# 
# From -- ./inp_files/5188.got.cif
#   From: 2010.03.12/outbox.cif.g09.slc.cpg/sg121_3_cif.got.tgz:5188.got - 2010.04.06 16:06:48.
