data_PCOD8311916
_publ_section_title
;
Structure prediction by ZEFSAII (Michael W. Deem and Ramdas Pophale) SiO2 
 PCOD8311916
Probable space group: I -4 2 D
;
_chemical_formula_sum "Si O2"
_cell_formula_units_Z 64
_cell_length_a 11.794794
_cell_length_b 11.794794
_cell_length_c 24.249062
_cell_angle_alpha 90.000000
_cell_angle_beta 90.000000
_cell_angle_gamma 90.000000
_cell_volume 3373.460772
_symmetry_space_group_name_H-M "I -4 2 D"
_symmetry_group_IT_number 122
_symmetry_cell_setting 'tetragonal'
loop_
_space_group_symop_operation_xyz
x,y,z
y,-x,-z
-x,-y,z
-y,x,-z
x,1/2-y,1/4-z
-x,1/2+y,1/4-z
-y,1/2-x,1/4+z
y,1/2+x,1/4+z
1/2+x,1/2+y,1/2+z
1/2+y,1/2-x,1/2-z
1/2-x,1/2-y,1/2+z
1/2-y,1/2+x,1/2-z
1/2+x,-y,3/4-z
1/2-x,y,3/4-z
1/2-y,-x,3/4+z
1/2+y,x,3/4+z
loop_
_atom_site_type_symbol
_atom_site_label
_atom_site_fract_x
_atom_site_fract_y
_atom_site_fract_z
Si Si1 0.995017 0.657846 0.779041
Si Si2 0.817007 0.621337 0.609993
Si Si3 0.081371 0.100440 0.750183
Si Si4 0.451579 0.824974 0.764974
O O1 0.119145 0.416111 0.769066
O O2 0.050078 0.637145 0.838557
O O3 0.967726 0.789058 0.778568
O O4 0.786088 0.750000 0.625000
O O5 0.920152 0.619856 0.565939
O O6 0.705037 0.566729 0.580115
O O7 0.210265 0.073425 0.770187
O O8 0.000000 0.000000 0.768721
O O9 0.580041 0.863839 0.755270
#
# Coordination Sequence:
#
# PCOD8311916 Si02
#       4
#    16  16  16  16
#     4  11  23  40  66  97 129 170 215 271 336 386
#     4  10  22  40  65  97 134 173 213 277 326 386
#     4  10  24  38  65  90 135 167 222 264 327 389
#     4   9  21  44  64  88 132 175 217 273 320 381
#
# _framework density 18.971615
#
# number of rings (size 3 to 8) (size 9 to 14) (size 15 to 20)
#    1.500    0.500    2.500    0.000   10.500    0.000 
#    4.500    3.750    0.000    0.000    0.000    0.000 
#    0.000    0.000    0.000    0.000    0.000    0.000 
#
# Total GULP energy -396453.388042 kJ/mol
# GULP energy per Si atom -12389.168376 kJ/mol
# Density = 1.892843 g / cm^3
# Si number density = 18.971615 Si / 1000 Ang^3
#
#
#
# Elastic Constant Matrix: (Units=GPa)
#
#
# Indices 1 2 3 4 5 6 
#
# 1 108.1594 48.9570 0.3419 0.0000 0.0000 0.0000
# 2 48.9570 108.1594 0.3419 0.0000 0.0000 0.0000
# 3 0.3419 0.3419 41.5078 0.0000 0.0000 0.0000
# 4 0.0000 0.0000 0.0000 31.2125 0.0000 0.0000
# 5 0.0000 0.0000 0.0000 0.0000 31.2125 0.0000
# 6 0.0000 0.0000 0.0000 0.0000 0.0000 31.4042
#
#
#
# Elastic Compliance Matrix: (Units=1/GPa)
#
#
# Indices 1 2 3 4 5 6 
#
# 1 0.011628 -0.005263 -0.000052 0.000000 0.000000 0.000000
# 2 -0.005263 0.011628 -0.000052 0.000000 0.000000 0.000000
# 3 -0.000052 -0.000052 0.024093 0.000000 0.000000 0.000000
# 4 0.000000 0.000000 0.000000 0.032038 0.000000 0.000000
# 5 0.000000 0.000000 0.000000 0.000000 0.032038 0.000000
# 6 0.000000 0.000000 0.000000 0.000000 0.000000 0.031843
#
#
# Mechanical properties :
#
#
# Convention : Reuss Voigt Hill
#
# Bulk Modulus (GPa) = 27.31281 39.67870 33.49576
# Shear Modulus (GPa) = 30.08264 32.64491 31.36378
#
# Velocity S-wave (km/s) = 3.98636 4.15266 4.07036
# Velocity P-wave (km/s) = 5.96792 6.62970 6.30750
#
# Compressibility (1/GPa) = 0.03661286
#
# Stress axis : x y z
#
# Youngs Moduli (GPa) = 85.99879 85.99879 41.50631
#
# Poissons Ratio (x) = 0.45262 0.00218
# Poissons Ratio (y) = 0.45262 0.00218
# Poissons Ratio (z) = 0.00451 0.00451
#
# Static dielectric constant tensor:
#      x y z
#    x 3.410900 0.000000 0.000000 
#    y 0.000000 3.410900 0.000000 
#    z 0.000000 0.000000 3.240650 
# 
# 
# High freq. dielectric constant tensor:
#      x y z
#    x 1.740000 0.000000 0.000000 
#    y 0.000000 1.740000 0.000000 
#    z 0.000000 0.000000 1.713380 
# 
# From -- ./inp_files/7827.got.cif
#   From: 2010.03.12/outbox.cif.g09.slc.cpg/sg122_4_cif.got.tgz:7827.got - 2010.04.06 16:17:16.
