data_PCOD8311602
_publ_section_title
;
Structure prediction by ZEFSAII (Michael W. Deem and Ramdas Pophale) SiO2 
 PCOD8311602
Probable space group: I -4 2 M
;
_chemical_formula_sum "Si O2"
_cell_formula_units_Z 68
_cell_length_a 17.357002
_cell_length_b 17.357002
_cell_length_c 12.550057
_cell_angle_alpha 90.000000
_cell_angle_beta 90.000000
_cell_angle_gamma 90.000000
_cell_volume 3780.899428
_symmetry_space_group_name_H-M "I -4 2 M"
_symmetry_group_IT_number 121
_symmetry_cell_setting 'tetragonal'
loop_
_space_group_symop_operation_xyz
x,y,z
y,-x,-z
-x,-y,z
-y,x,-z
x,-y,-z
-x,y,-z
-y,-x,z
y,x,z
1/2+x,1/2+y,1/2+z
1/2+y,1/2-x,1/2-z
1/2-x,1/2-y,1/2+z
1/2-y,1/2+x,1/2-z
1/2+x,1/2-y,1/2-z
1/2-x,1/2+y,1/2-z
1/2-y,1/2-x,1/2+z
1/2+y,1/2+x,1/2+z
loop_
_atom_site_type_symbol
_atom_site_label
_atom_site_fract_x
_atom_site_fract_y
_atom_site_fract_z
Si Si1 0.174103 0.294594 0.972555
Si Si2 0.500000 0.000000 0.500000
Si Si3 0.062953 0.638170 0.870973
Si Si4 0.916243 0.789505 0.550046
Si Si5 0.089242 0.699412 0.234258
O O1 0.225299 0.225299 0.020322
O O2 0.151409 0.272200 0.852291
O O3 0.097104 0.303474 0.041626
O O4 0.223828 0.373524 0.980537
O O5 0.550737 0.054543 0.424561
O O6 0.120660 0.625415 0.775272
O O7 0.989013 0.679992 0.825667
O O8 0.869680 0.869680 0.546262
O O9 0.922765 0.762140 0.673160
O O10 0.000000 0.803614 0.500000
#
# Coordination Sequence:
#
# PCOD8311602 Si02
#       5
#    16   4  16  16  16
#     4  10  21  37  54  78 110 146 185 225 271 332
#     4  12  20  34  48  84 114 148 172 214 284 320
#     4  11  22  32  54  80 115 146 179 223 274 332
#     4  10  22  37  57  78 105 141 182 233 280 325
#     4  11  20  35  55  81 109 148 180 223 270 339
#
# _framework density 17.985139
#
# number of rings (size 3 to 8) (size 9 to 14) (size 15 to 20)
#    0.000    1.412    2.353    3.529    6.588    1.176 
#    0.000    1.176    0.000    0.000    0.000    0.000 
#    0.000    1.882    0.000    0.000    0.000    0.000 
#
# Total GULP energy -421545.881466 kJ/mol
# GULP energy per Si atom -12398.408278 kJ/mol
# Density = 1.794420 g / cm^3
# Si number density = 17.985139 Si / 1000 Ang^3
#
#
#
# Elastic Constant Matrix: (Units=GPa)
#
#
# Indices 1 2 3 4 5 6 
#
# 1 77.7719 33.5629 56.1611 0.0000 0.0000 0.0000
# 2 33.5629 77.7719 56.1611 0.0000 0.0000 0.0000
# 3 56.1611 56.1611 117.2323 0.0000 0.0000 0.0000
# 4 0.0000 0.0000 0.0000 25.8673 0.0000 0.0000
# 5 0.0000 0.0000 0.0000 0.0000 25.8673 0.0000
# 6 0.0000 0.0000 0.0000 0.0000 0.0000 28.7595
#
#
#
# Elastic Compliance Matrix: (Units=1/GPa)
#
#
# Indices 1 2 3 4 5 6 
#
# 1 0.020002 -0.002618 -0.008328 0.000000 0.000000 0.000000
# 2 -0.002618 0.020002 -0.008328 0.000000 0.000000 0.000000
# 3 -0.008328 -0.008328 0.016509 0.000000 0.000000 0.000000
# 4 0.000000 0.000000 0.000000 0.038659 0.000000 0.000000
# 5 0.000000 0.000000 0.000000 0.000000 0.038659 0.000000
# 6 0.000000 0.000000 0.000000 0.000000 0.000000 0.034771
#
#
# Mechanical properties :
#
#
# Convention : Reuss Voigt Hill
#
# Bulk Modulus (GPa) = 55.66335 62.72734 59.19535
# Shear Modulus (GPa) = 23.45912 24.55820 24.00866
#
# Velocity S-wave (km/s) = 3.61551 3.69924 3.65761
# Velocity P-wave (km/s) = 6.96032 7.29375 7.12899
#
# Compressibility (1/GPa) = 0.01796514
#
# Stress axis : x y z
#
# Youngs Moduli (GPa) = 49.99589 49.99589 60.57320
#
# Poissons Ratio (x) = 0.13090 0.50443
# Poissons Ratio (y) = 0.13090 0.50443
# Poissons Ratio (z) = 0.41635 0.41635
#
# Static dielectric constant tensor:
#      x y z
#    x 3.225800 0.000000 0.000000 
#    y 0.000000 3.225800 0.000000 
#    z 0.000000 0.000000 3.552710 
# 
# 
# High freq. dielectric constant tensor:
#      x y z
#    x 1.687230 0.000000 0.000000 
#    y 0.000000 1.687230 0.000000 
#    z 0.000000 0.000000 1.711690 
# 
# From -- ./inp_files/3032.got.cif
#   From: 2010.03.12/outbox.cif.g09.slc.cpg/sg121_2_cif.got.tgz:3032.got - 2010.04.06 16:06:48.
