data_PCOD8311860
_publ_section_title
;
Structure prediction by ZEFSAII (Michael W. Deem and Ramdas Pophale) SiO2 
 PCOD8311860
Probable space group: I -4 2 D
;
_chemical_formula_sum "Si O2"
_cell_formula_units_Z 68
_cell_length_a 12.711551
_cell_length_b 12.711551
_cell_length_c 19.370613
_cell_angle_alpha 90.000000
_cell_angle_beta 90.000000
_cell_angle_gamma 90.000000
_cell_volume 3129.972004
_symmetry_space_group_name_H-M "I -4 2 D"
_symmetry_group_IT_number 122
_symmetry_cell_setting 'tetragonal'
loop_
_space_group_symop_operation_xyz
x,y,z
y,-x,-z
-x,-y,z
-y,x,-z
x,1/2-y,1/4-z
-x,1/2+y,1/4-z
-y,1/2-x,1/4+z
y,1/2+x,1/4+z
1/2+x,1/2+y,1/2+z
1/2+y,1/2-x,1/2-z
1/2-x,1/2-y,1/2+z
1/2-y,1/2+x,1/2-z
1/2+x,-y,3/4-z
1/2-x,y,3/4-z
1/2-y,-x,3/4+z
1/2+y,x,3/4+z
loop_
_atom_site_type_symbol
_atom_site_label
_atom_site_fract_x
_atom_site_fract_y
_atom_site_fract_z
Si Si1 0.138501 0.426214 0.724530
Si Si2 0.569417 0.355052 0.815861
Si Si3 0.560604 0.366195 0.252469
Si Si4 0.500000 0.000000 0.750000
Si Si5 0.126477 0.369285 0.151055
O O1 0.052158 0.366467 0.768576
O O2 0.116134 0.406494 0.644622
O O3 0.250840 0.386827 0.753391
O O4 0.447333 0.369466 0.792503
O O5 0.636054 0.438685 0.771256
O O6 0.608482 0.235538 0.807570
O O7 0.557222 0.390433 0.334162
O O8 0.600367 0.034598 0.795808
O O9 0.117852 0.250000 0.125000
#
# Coordination Sequence:
#
# PCOD8311860 Si02
#       5
#    16  16  16   4  16
#     4  10  21  34  56  93 126 172 220 262 321 386
#     4  10  22  39  62  90 128 168 209 272 324 372
#     4  10  21  39  63  90 130 170 210 268 324 380
#     4  12  24  44  72  92 128 168 210 272 320 396
#     4  11  25  43  68  98 126 170 217 267 327 392
#
# _framework density 21.725434
#
# number of rings (size 3 to 8) (size 9 to 14) (size 15 to 20)
#    0.000    1.647    0.000    5.647    6.588    2.824 
#    0.000    0.000    0.000    0.000    0.000    0.000 
#    0.000    0.000    0.000    0.000    0.000    0.000 
#
# Total GULP energy -421336.229415 kJ/mol
# GULP energy per Si atom -12392.242042 kJ/mol
# Density = 2.167599 g / cm^3
# Si number density = 21.725434 Si / 1000 Ang^3
#
#
#
# Elastic Constant Matrix: (Units=GPa)
#
#
# Indices 1 2 3 4 5 6 
#
# 1 98.2242 26.6459 38.2321 0.0000 0.0000 0.0000
# 2 26.6459 98.2242 38.2321 0.0000 0.0000 0.0000
# 3 38.2321 38.2321 84.3598 0.0000 0.0000 0.0000
# 4 0.0000 0.0000 0.0000 37.6855 0.0000 0.0000
# 5 0.0000 0.0000 0.0000 0.0000 37.6855 0.0000
# 6 0.0000 0.0000 0.0000 0.0000 0.0000 15.4489
#
#
#
# Elastic Compliance Matrix: (Units=1/GPa)
#
#
# Indices 1 2 3 4 5 6 
#
# 1 0.012528 -0.001443 -0.005024 0.000000 0.000000 0.000000
# 2 -0.001443 0.012528 -0.005024 0.000000 0.000000 0.000000
# 3 -0.005024 -0.005024 0.016407 0.000000 0.000000 0.000000
# 4 0.000000 0.000000 0.000000 0.026535 0.000000 0.000000
# 5 0.000000 0.000000 0.000000 0.000000 0.026535 0.000000
# 6 0.000000 0.000000 0.000000 0.000000 0.000000 0.064729
#
#
# Mechanical properties :
#
#
# Convention : Reuss Voigt Hill
#
# Bulk Modulus (GPa) = 54.10608 54.11428 54.11018
# Shear Modulus (GPa) = 26.53876 30.01054 28.27465
#
# Velocity S-wave (km/s) = 3.49886 3.72069 3.61148
# Velocity P-wave (km/s) = 6.42505 6.58941 6.50775
#
# Compressibility (1/GPa) = 0.01848221
#
# Stress axis : x y z
#
# Youngs Moduli (GPa) = 79.82377 79.82377 60.94837
#
# Poissons Ratio (x) = 0.11520 0.30617
# Poissons Ratio (y) = 0.11520 0.30617
# Poissons Ratio (z) = 0.40100 0.40100
#
# Static dielectric constant tensor:
#      x y z
#    x 3.910650 0.000000 0.000000 
#    y 0.000000 3.910650 0.000000 
#    z 0.000000 0.000000 4.003850 
# 
# 
# High freq. dielectric constant tensor:
#      x y z
#    x 1.849780 0.000000 0.000000 
#    y 0.000000 1.849780 0.000000 
#    z 0.000000 0.000000 1.857510 
# 
# From -- ./inp_files/7029.got.cif
#   From: 2010.03.12/outbox.cif.g09.slc.cpg/sg122_4_cif.got.tgz:7029.got - 2010.04.06 16:17:16.
