data_PCOD8311234
_publ_section_title
;
Structure prediction by ZEFSAII (Michael W. Deem and Ramdas Pophale) SiO2 
 PCOD8311234
Probable space group: I -4 C 2
;
_chemical_formula_sum "Si O2"
_cell_formula_units_Z 64
_cell_length_a 19.237578
_cell_length_b 19.237578
_cell_length_c 9.422639
_cell_angle_alpha 90.000000
_cell_angle_beta 90.000000
_cell_angle_gamma 90.000000
_cell_volume 3487.171770
_symmetry_space_group_name_H-M "I -4 C 2"
_symmetry_group_IT_number 120
_symmetry_cell_setting 'tetragonal'
loop_
_space_group_symop_operation_xyz
x,y,z
y,-x,-z
-x,-y,z
-y,x,-z
y,x,1/2-z
-y,-x,1/2-z
-x,y,1/2+z
x,-y,1/2+z
1/2+x,1/2+y,1/2+z
1/2+y,1/2-x,1/2-z
1/2-x,1/2-y,1/2+z
1/2-y,1/2+x,1/2-z
1/2+y,1/2+x,-z
1/2-y,1/2-x,-z
1/2-x,1/2+y,z
1/2+x,1/2-y,z
loop_
_atom_site_type_symbol
_atom_site_label
_atom_site_fract_x
_atom_site_fract_y
_atom_site_fract_z
Si Si1 0.257731 0.855615 0.915572
Si Si2 0.294406 0.502073 0.967937
Si Si3 0.643853 0.241923 0.416179
Si Si4 0.997607 0.889100 0.282766
O O1 0.186435 0.813086 0.940176
O O2 0.276898 0.859404 0.749648
O O3 0.320374 0.820374 0.000000
O O4 0.250017 0.931859 0.983538
O O5 0.249160 0.567058 0.019201
O O6 0.366967 0.498055 0.053985
O O7 0.318045 0.508668 0.804694
O O8 0.679088 0.179088 0.500000
O O9 0.921905 0.921905 0.250000
O O10 0.057008 0.942993 0.250000
#
# Coordination Sequence:
#
# PCOD8311234 Si02
#       4
#    16  16  16  16
#     4  10  22  39  59  85 116 154 202 249 294 348
#     4  12  22  37  58  83 118 158 198 244 292 350
#     4  10  22  39  59  85 116 154 202 249 294 348
#     4  11  22  34  52  82 120 159 194 230 282 353
#
# _framework density 18.352982000000001
#
# number of rings (size 3 to 8) (size 9 to 14) (size 15 to 20)
#    0.000    1.250    2.500    4.500    3.500    2.000 
#    0.000    0.000    0.000    0.750    0.000    3.500 
#    0.000    0.000    0.000    0.000    0.000    0.000 
#
# Total GULP energy -396925.112590 kJ/mol
# GULP energy per Si atom -12403.909768 kJ/mol
# Density = 1.831121 g / cm^3
# Si number density = 18.352982 Si / 1000 Ang^3
#
#
#
# Elastic Constant Matrix: (Units=GPa)
#
#
# Indices 1 2 3 4 5 6 
#
# 1 122.1958 62.8980 46.5330 0.0000 0.0000 0.0000
# 2 62.8980 122.1943 46.5332 0.0000 0.0000 0.0000
# 3 46.5330 46.5332 78.7522 0.0000 0.0000 0.0000
# 4 0.0000 0.0000 0.0000 32.7154 0.0000 0.0000
# 5 0.0000 0.0000 0.0000 0.0000 32.7157 0.0000
# 6 0.0000 0.0000 0.0000 0.0000 0.0000 33.5271
#
#
#
# Elastic Compliance Matrix: (Units=1/GPa)
#
#
# Indices 1 2 3 4 5 6 
#
# 1 0.012275 -0.004589 -0.004542 0.000000 0.000000 0.000000
# 2 -0.004589 0.012275 -0.004542 0.000000 0.000000 0.000000
# 3 -0.004542 -0.004542 0.018065 0.000000 0.000000 0.000000
# 4 0.000000 0.000000 0.000000 0.030567 0.000000 0.000000
# 5 0.000000 0.000000 0.000000 0.000000 0.030566 0.000000
# 6 0.000000 0.000000 0.000000 0.000000 0.000000 0.029827
#
#
# Mechanical properties :
#
#
# Convention : Reuss Voigt Hill
#
# Bulk Modulus (GPa) = 65.48317 70.56342 68.02330
# Shear Modulus (GPa) = 30.11862 30.93686 30.52774
#
# Velocity S-wave (km/s) = 4.05541 4.11013 4.08286
# Velocity P-wave (km/s) = 7.59512 7.81381 7.70524
#
# Compressibility (1/GPa) = 0.01527110
#
# Stress axis : x y z
#
# Youngs Moduli (GPa) = 81.46548 81.46395 55.35508
#
# Poissons Ratio (x) = 0.37384 0.25140
# Poissons Ratio (y) = 0.37384 0.25141
# Poissons Ratio (z) = 0.36998 0.36999
#
# Static dielectric constant tensor:
#      x y z
#    x 3.265980 0.000000 0.000000 
#    y 0.000000 3.265980 0.000000 
#    z 0.000000 0.000000 4.088270 
# 
# 
# High freq. dielectric constant tensor:
#      x y z
#    x 1.694360 0.000000 0.000000 
#    y 0.000000 1.694360 0.000000 
#    z 0.000000 0.000000 1.731590 
# 
# From -- ./inp_files/1241.got.cif
#   From: 2010.03.12/outbox.cif.g09.slc.cpg/sg120_1_cif.got.tgz:1241.got - 2010.04.06 16:00:44.
