data_PCOD8311861
_publ_section_title
;
Structure prediction by ZEFSAII (Michael W. Deem and Ramdas Pophale) SiO2 
 PCOD8311861
Probable space group: I -4 2 D
;
_chemical_formula_sum "Si O2"
_cell_formula_units_Z 76
_cell_length_a 18.436198
_cell_length_b 18.436198
_cell_length_c 11.877825
_cell_angle_alpha 90.000000
_cell_angle_beta 90.000000
_cell_angle_gamma 90.000000
_cell_volume 4037.194285
_symmetry_space_group_name_H-M "I -4 2 D"
_symmetry_group_IT_number 122
_symmetry_cell_setting 'tetragonal'
loop_
_space_group_symop_operation_xyz
x,y,z
y,-x,-z
-x,-y,z
-y,x,-z
x,1/2-y,1/4-z
-x,1/2+y,1/4-z
-y,1/2-x,1/4+z
y,1/2+x,1/4+z
1/2+x,1/2+y,1/2+z
1/2+y,1/2-x,1/2-z
1/2-x,1/2-y,1/2+z
1/2-y,1/2+x,1/2-z
1/2+x,-y,3/4-z
1/2-x,y,3/4-z
1/2-y,-x,3/4+z
1/2+y,x,3/4+z
loop_
_atom_site_type_symbol
_atom_site_label
_atom_site_fract_x
_atom_site_fract_y
_atom_site_fract_z
Si Si1 0.935137 0.235496 0.746229
Si Si2 0.250000 0.927813 0.375000
Si Si3 0.000000 0.500000 0.750000
Si Si4 0.058749 0.905358 0.134113
Si Si5 0.100460 0.427568 0.137907
Si Si6 0.903224 0.120644 0.378343
O O1 0.895889 0.250000 0.625000
O O2 0.901227 0.165086 0.805944
O O3 0.934560 0.306417 0.821698
O O4 0.020603 0.219485 0.725286
O O5 0.181051 0.881808 0.416852
O O6 0.050335 0.550847 0.829052
O O7 0.095674 0.871038 0.243530
O O8 0.973026 0.885327 0.143633
O O9 0.077524 0.989582 0.127182
O O10 0.087608 0.872054 0.015888
#
# Coordination Sequence:
#
# PCOD8311861 Si02
#       6
#    16   8   4  16  16  16
#     4  10  21  35  55  83 123 148 187 253 291 344
#     4  10  22  38  54  88 122 146 192 256 290 360
#     4  12  20  32  56  98 104 140 204 244 294 360
#     4   9  18  31  60  84 110 150 187 237 292 356
#     4   9  17  34  53  87 121 139 183 248 293 333
#     4  12  22  35  61  86 116 156 196 245 313 360
#
# _framework density 18.824954999999999
#
# number of rings (size 3 to 8) (size 9 to 14) (size 15 to 20)
#    0.632    1.263    4.211    2.526    2.947    0.842 
#    0.000    0.000    4.632    2.526    0.000    0.000 
#    0.000    0.000    0.000    0.000    0.000    0.000 
#
# Total GULP energy -470750.288157 kJ/mol
# GULP energy per Si atom -12388.165478 kJ/mol
# Density = 1.878211 g / cm^3
# Si number density = 18.824955 Si / 1000 Ang^3
#
#
#
# Elastic Constant Matrix: (Units=GPa)
#
#
# Indices 1 2 3 4 5 6 
#
# 1 69.9810 0.4923 17.9450 0.0000 0.0000 0.0000
# 2 0.4923 69.9810 17.9450 0.0000 0.0000 0.0000
# 3 17.9450 17.9450 118.7236 0.0000 0.0000 0.0000
# 4 0.0000 0.0000 0.0000 21.5344 0.0000 0.0000
# 5 0.0000 0.0000 0.0000 0.0000 21.5344 0.0000
# 6 0.0000 0.0000 0.0000 0.0000 0.0000 7.6185
#
#
#
# Elastic Compliance Matrix: (Units=1/GPa)
#
#
# Indices 1 2 3 4 5 6 
#
# 1 0.014882 0.000491 -0.002324 0.000000 0.000000 0.000000
# 2 0.000491 0.014882 -0.002324 0.000000 0.000000 0.000000
# 3 -0.002324 -0.002324 0.009125 0.000000 0.000000 0.000000
# 4 0.000000 0.000000 0.000000 0.046437 0.000000 0.000000
# 5 0.000000 0.000000 0.000000 0.000000 0.046437 0.000000
# 6 0.000000 0.000000 0.000000 0.000000 0.000000 0.131260
#
#
# Mechanical properties :
#
#
# Convention : Reuss Voigt Hill
#
# Bulk Modulus (GPa) = 32.70428 36.82783 34.76605
# Shear Modulus (GPa) = 17.76023 24.95770 21.35896
#
# Velocity S-wave (km/s) = 3.07488 3.64507 3.37205
# Velocity P-wave (km/s) = 5.47878 6.10911 5.80251
#
# Compressibility (1/GPa) = 0.03057704
#
# Stress axis : x y z
#
# Youngs Moduli (GPa) = 67.19538 67.19538 109.58467
#
# Poissons Ratio (x) = -0.03300 0.25464
# Poissons Ratio (y) = -0.03300 0.25464
# Poissons Ratio (z) = 0.15614 0.15614
#
# Static dielectric constant tensor:
#      x y z
#    x 3.139680 0.000000 0.000000 
#    y 0.000000 3.139680 0.000000 
#    z 0.000000 0.000000 3.778520 
# 
# 
# High freq. dielectric constant tensor:
#      x y z
#    x 1.699170 0.000000 0.000000 
#    y 0.000000 1.699170 0.000000 
#    z 0.000000 0.000000 1.743610 
# 
# From -- ./inp_files/4364.got.cif
#   From: 2010.03.12/outbox.cif.g09.slc.cpg/sg122_3_cif.got.tgz:4364.got - 2010.04.06 16:17:16.
