data_PCOD8311050
_publ_section_title
;
Structure prediction by ZEFSAII (Michael W. Deem and Ramdas Pophale) SiO2 
 PCOD8311050
Probable space group: I -4 M 2
;
_chemical_formula_sum "Si O2"
_cell_formula_units_Z 96
_cell_length_a 14.003515
_cell_length_b 14.003515
_cell_length_c 21.742025
_cell_angle_alpha 90.000000
_cell_angle_beta 90.000000
_cell_angle_gamma 90.000000
_cell_volume 4263.577019
_symmetry_space_group_name_H-M "I -4 M 2"
_symmetry_group_IT_number 119
_symmetry_cell_setting 'tetragonal'
loop_
_space_group_symop_operation_xyz
x,y,z
y,-x,-z
-x,-y,z
-y,x,-z
y,x,-z
-y,-x,-z
-x,y,z
x,-y,z
1/2+x,1/2+y,1/2+z
1/2+y,1/2-x,1/2-z
1/2-x,1/2-y,1/2+z
1/2-y,1/2+x,1/2-z
1/2+y,1/2+x,1/2-z
1/2-y,1/2-x,1/2-z
1/2-x,1/2+y,1/2+z
1/2+x,1/2-y,1/2+z
loop_
_atom_site_type_symbol
_atom_site_label
_atom_site_fract_x
_atom_site_fract_y
_atom_site_fract_z
Si Si1 0.393439 0.236960 0.579946
Si Si2 0.102422 0.292958 0.648639
Si Si3 0.601658 0.141659 0.814458
Si Si4 0.642987 0.610062 0.217454
Si Si5 0.390172 0.239485 0.006462
Si Si6 0.704691 0.609729 0.655000
O O1 0.500000 0.258987 0.554374
O O2 0.405984 0.182088 0.644366
O O3 0.335203 0.171259 0.533222
O O4 0.336160 0.334466 0.595023
O O5 0.089778 0.184497 0.673207
O O6 0.117381 0.293808 0.575976
O O7 0.191697 0.350350 0.677219
O O8 0.000000 0.343298 0.663798
O O9 0.500000 0.136380 0.849726
O O10 0.588213 0.088213 0.750000
O O11 0.630617 0.248324 0.797957
O O12 0.612870 0.500000 0.203969
O O13 0.620046 0.631784 0.288493
O O14 0.500000 0.242664 0.983343
O O15 0.345053 0.345053 0.000000
O O16 0.715465 0.500000 0.635359
#
# Coordination Sequence:
#
# PCOD8311050 Si02
#       6
#    16  16  16  16  16  16
#     4  12  25  44  69 101 142 184 233 292 352 417
#     4  11  24  44  71  99 134 183 237 290 346 415
#     4  11  20  34  60  94 136 180 219 270 341 417
#     4  11  22  41  70 104 143 182 223 282 356 427
#     4  11  24  46  72 102 141 186 237 290 347 410
#     4  12  25  44  70 100 142 188 234 291 358 433
#
# _framework density 22.516304999999999
#
# number of rings (size 3 to 8) (size 9 to 14) (size 15 to 20)
#    0.000    0.667    5.000    2.500    0.000    7.667 
#    0.000    3.333    0.000    2.000    0.000    0.000 
#    0.000    0.000    0.000    0.000    0.000    0.000 
#
# Total GULP energy -594976.204032 kJ/mol
# GULP energy per Si atom -12395.337584 kJ/mol
# Density = 2.246506 g / cm^3
# Si number density = 22.516305 Si / 1000 Ang^3
#
#
#
# Elastic Constant Matrix: (Units=GPa)
#
#
# Indices 1 2 3 4 5 6 
#
# 1 151.5668 63.7288 25.5395 0.0000 0.0000 0.0000
# 2 63.7288 151.5668 25.5395 0.0000 0.0000 0.0000
# 3 25.5395 25.5395 74.8075 0.0000 0.0000 0.0000
# 4 0.0000 0.0000 0.0000 9.9471 0.0000 0.0000
# 5 0.0000 0.0000 0.0000 0.0000 9.9471 0.0000
# 6 0.0000 0.0000 0.0000 0.0000 0.0000 16.2190
#
#
#
# Elastic Compliance Matrix: (Units=1/GPa)
#
#
# Indices 1 2 3 4 5 6 
#
# 1 0.008219 -0.003165 -0.001726 0.000000 0.000000 0.000000
# 2 -0.003165 0.008219 -0.001726 0.000000 0.000000 0.000000
# 3 -0.001726 -0.001726 0.014546 0.000000 0.000000 0.000000
# 4 0.000000 0.000000 0.000000 0.100532 0.000000 0.000000
# 5 0.000000 0.000000 0.000000 0.000000 0.100532 0.000000
# 6 0.000000 0.000000 0.000000 0.000000 0.000000 0.061656
#
#
# Mechanical properties :
#
#
# Convention : Reuss Voigt Hill
#
# Bulk Modulus (GPa) = 56.33130 67.50633 61.91882
# Shear Modulus (GPa) = 15.98188 24.76485 20.37336
#
# Velocity S-wave (km/s) = 2.66708 3.32002 3.01130
# Velocity P-wave (km/s) = 5.87850 6.68901 6.29681
#
# Compressibility (1/GPa) = 0.01775212
#
# Stress axis : x y z
#
# Youngs Moduli (GPa) = 121.66375 121.66375 68.74818
#
# Poissons Ratio (x) = 0.38509 0.11863
# Poissons Ratio (y) = 0.38509 0.11863
# Poissons Ratio (z) = 0.20993 0.20993
#
# Static dielectric constant tensor:
#      x y z
#    x 4.267970 0.000000 0.000000 
#    y 0.000000 4.267970 0.000000 
#    z 0.000000 0.000000 3.958770 
# 
# 
# High freq. dielectric constant tensor:
#      x y z
#    x 1.893450 0.000000 0.000000 
#    y 0.000000 1.893450 0.000000 
#    z 0.000000 0.000000 1.874990 
# 
# From -- ./inp_files/7793.got.cif
#   From: 2010.03.12/outbox.cif.g09.slc.cpg/sg119_4_cif.got.tgz:7793.got - 2010.04.14 02:25:26.
