data_PCOD8311941
_publ_section_title
;
Structure prediction by ZEFSAII (Michael W. Deem and Ramdas Pophale) SiO2 
 PCOD8311941
Probable space group: I -4 2 D
;
_chemical_formula_sum "Si O2"
_cell_formula_units_Z 64
_cell_length_a 11.892671
_cell_length_b 11.892671
_cell_length_c 20.621665
_cell_angle_alpha 90.000000
_cell_angle_beta 90.000000
_cell_angle_gamma 90.000000
_cell_volume 2916.638047
_symmetry_space_group_name_H-M "I -4 2 D"
_symmetry_group_IT_number 122
_symmetry_cell_setting 'tetragonal'
loop_
_space_group_symop_operation_xyz
x,y,z
y,-x,-z
-x,-y,z
-y,x,-z
x,1/2-y,1/4-z
-x,1/2+y,1/4-z
-y,1/2-x,1/4+z
y,1/2+x,1/4+z
1/2+x,1/2+y,1/2+z
1/2+y,1/2-x,1/2-z
1/2-x,1/2-y,1/2+z
1/2-y,1/2+x,1/2-z
1/2+x,-y,3/4-z
1/2-x,y,3/4-z
1/2-y,-x,3/4+z
1/2+y,x,3/4+z
loop_
_atom_site_type_symbol
_atom_site_label
_atom_site_fract_x
_atom_site_fract_y
_atom_site_fract_z
Si Si1 0.223915 0.714189 0.001653
Si Si2 0.239846 0.031183 0.527003
Si Si3 0.500000 0.500000 0.500000
Si Si4 0.933825 0.250000 0.125000
Si Si5 0.901033 0.140377 0.902908
Si Si6 0.000000 0.000000 0.500000
O O1 0.217154 0.579316 0.988327
O O2 0.144971 0.744746 0.061843
O O3 0.353626 0.754070 0.014785
O O4 0.192072 0.777049 0.934416
O O5 0.304067 0.033691 0.594514
O O6 0.108686 0.015616 0.545689
O O7 0.492981 0.614996 0.458400
O O8 0.017854 0.144465 0.118733
#
# Coordination Sequence:
#
# PCOD8311941 Si02
#       6
#    16  16   4   8  16   4
#     4  11  24  44  69 100 136 183 231 290 353 417
#     4  10  22  45  68 100 137 178 233 290 351 421
#     4  12  24  40  64  94 140 184 224 280 346 408
#     4  12  24  42  66 102 140 180 236 286 350 424
#     4  12  23  43  68  98 139 182 228 289 346 415
#     4   8  20  44  68  98 140 176 224 292 358 416
#
# _framework density 21.943072999999998
#
# number of rings (size 3 to 8) (size 9 to 14) (size 15 to 20)
#    0.000    1.000    5.000    1.500    0.000    0.000 
#   13.500    0.000    0.000    0.000    0.000    0.000 
#    0.000    0.000    0.000    0.000    0.000    0.000 
#
# Total GULP energy -396517.283562 kJ/mol
# GULP energy per Si atom -12391.165111 kJ/mol
# Density = 2.189313 g / cm^3
# Si number density = 21.943073 Si / 1000 Ang^3
#
#
#
# Elastic Constant Matrix: (Units=GPa)
#
#
# Indices 1 2 3 4 5 6 
#
# 1 114.7261 51.7840 51.5566 0.0000 0.0000 0.0000
# 2 51.7840 114.7261 51.5566 0.0000 0.0000 0.0000
# 3 51.5566 51.5566 94.7443 0.0000 0.0000 0.0000
# 4 0.0000 0.0000 0.0000 32.5781 0.0000 0.0000
# 5 0.0000 0.0000 0.0000 0.0000 32.5781 0.0000
# 6 0.0000 0.0000 0.0000 0.0000 0.0000 29.5464
#
#
#
# Elastic Compliance Matrix: (Units=1/GPa)
#
#
# Indices 1 2 3 4 5 6 
#
# 1 0.012473 -0.003415 -0.004929 0.000000 0.000000 0.000000
# 2 -0.003415 0.012473 -0.004929 0.000000 0.000000 0.000000
# 3 -0.004929 -0.004929 0.015919 0.000000 0.000000 0.000000
# 4 0.000000 0.000000 0.000000 0.030696 0.000000 0.000000
# 5 0.000000 0.000000 0.000000 0.000000 0.030696 0.000000
# 6 0.000000 0.000000 0.000000 0.000000 0.000000 0.033845
#
#
# Mechanical properties :
#
#
# Convention : Reuss Voigt Hill
#
# Bulk Modulus (GPa) = 69.83747 70.44344 70.14046
# Shear Modulus (GPa) = 29.86506 30.22713 30.04609
#
# Velocity S-wave (km/s) = 3.69321 3.71553 3.70439
# Velocity P-wave (km/s) = 7.07687 7.11192 7.09442
#
# Compressibility (1/GPa) = 0.01431896
#
# Stress axis : x y z
#
# Youngs Moduli (GPa) = 80.17430 80.17430 62.81732
#
# Poissons Ratio (x) = 0.27378 0.30963
# Poissons Ratio (y) = 0.27378 0.30963
# Poissons Ratio (z) = 0.39518 0.39518
#
# Static dielectric constant tensor:
#      x y z
#    x 4.321150 0.000000 0.000000 
#    y 0.000000 4.321150 0.000000 
#    z 0.000000 0.000000 3.770680 
# 
# 
# High freq. dielectric constant tensor:
#      x y z
#    x 1.880140 0.000000 0.000000 
#    y 0.000000 1.880140 0.000000 
#    z 0.000000 0.000000 1.834060 
# 
# From -- ./inp_files/7925.got.cif
#   From: 2010.03.12/outbox.cif.g09.slc.cpg/sg122_4_cif.got.tgz:7925.got - 2010.04.06 16:17:16.
