data_PCOD8311282
_publ_section_title
;
Structure prediction by ZEFSAII (Michael W. Deem and Ramdas Pophale) SiO2 
 PCOD8311282
Probable space group: I -4 C 2
;
_chemical_formula_sum "Si O2"
_cell_formula_units_Z 112
_cell_length_a 19.010255
_cell_length_b 19.010255
_cell_length_c 17.812802
_cell_angle_alpha 90.000000
_cell_angle_beta 90.000000
_cell_angle_gamma 90.000000
_cell_volume 6437.364866
_symmetry_space_group_name_H-M "I -4 C 2"
_symmetry_group_IT_number 120
_symmetry_cell_setting 'tetragonal'
loop_
_space_group_symop_operation_xyz
x,y,z
y,-x,-z
-x,-y,z
-y,x,-z
y,x,1/2-z
-y,-x,1/2-z
-x,y,1/2+z
x,-y,1/2+z
1/2+x,1/2+y,1/2+z
1/2+y,1/2-x,1/2-z
1/2-x,1/2-y,1/2+z
1/2-y,1/2+x,1/2-z
1/2+y,1/2+x,-z
1/2-y,1/2-x,-z
1/2-x,1/2+y,z
1/2+x,1/2-y,z
loop_
_atom_site_type_symbol
_atom_site_label
_atom_site_fract_x
_atom_site_fract_y
_atom_site_fract_z
Si Si1 0.555917 0.944084 0.589210
Si Si2 0.790902 0.510850 0.912937
Si Si3 0.489150 0.790901 0.912936
Si Si4 0.128984 0.256815 0.327381
Si Si5 0.256816 0.871016 0.327381
Si Si6 0.241112 0.855328 0.153967
Si Si7 0.741111 0.355329 0.346034
O O1 0.557038 0.942963 0.500000
O O2 0.533161 0.867483 0.618996
O O3 0.500000 0.000000 0.620709
O O4 0.632518 0.966839 0.618997
O O5 0.761220 0.445372 0.867465
O O6 0.739226 0.577083 0.900248
O O7 0.793800 0.490284 0.000000
O O8 0.554627 0.761218 0.867464
O O9 0.422917 0.739225 0.900248
O O10 0.175442 0.324558 0.349307
O O11 0.118315 0.253076 0.238529
O O12 0.167823 0.185946 0.354911
O O13 0.253077 0.881685 0.238529
O O14 0.185947 0.832176 0.354911
O O15 0.304371 0.804370 0.129125
#
# Coordination Sequence:
#
# PCOD8311282 Si02
#       7
#    16  16  16  16  16  16  16
#     4   9  18  30  44  67 104 142 167 193 246 314
#     4  11  20  31  50  76 107 139 168 212 265 311
#     4  11  20  31  50  76 107 139 168 212 265 311
#     4   9  19  34  54  75  99 136 179 220 256 303
#     4   9  19  34  54  75  99 136 179 220 256 303
#     4   9  18  35  54  73 100 136 178 218 257 306
#     4   9  18  35  54  73 100 136 178 218 257 306
#
# _framework density 17.398423000000001
#
# number of rings (size 3 to 8) (size 9 to 14) (size 15 to 20)
#    0.000    2.429    1.429    3.429    0.000    2.857 
#    0.000    2.857    0.000    0.857    0.000    6.000 
#    0.000    0.000    0.000    0.000    0.000    0.000 
#
# Total GULP energy -694426.806790 kJ/mol
# GULP energy per Si atom -12400.478693 kJ/mol
# Density = 1.735882 g / cm^3
# Si number density = 17.398423 Si / 1000 Ang^3
#
#
#
# Elastic Constant Matrix: (Units=GPa)
#
#
# Indices 1 2 3 4 5 6 
#
# 1 106.0849 54.8871 32.2683 0.0000 0.0000 0.0000
# 2 54.8871 106.0848 32.2682 0.0000 0.0000 0.0000
# 3 32.2683 32.2682 36.5062 0.0000 0.0000 0.0000
# 4 0.0000 0.0000 0.0000 25.8445 0.0000 0.0000
# 5 0.0000 0.0000 0.0000 0.0000 25.8444 0.0000
# 6 0.0000 0.0000 0.0000 0.0000 0.0000 26.2839
#
#
#
# Elastic Compliance Matrix: (Units=1/GPa)
#
#
# Indices 1 2 3 4 5 6 
#
# 1 0.014577 -0.004955 -0.008505 0.000000 0.000000 0.000000
# 2 -0.004955 0.014577 -0.008505 0.000000 0.000000 0.000000
# 3 -0.008505 -0.008505 0.042428 0.000000 0.000000 0.000000
# 4 0.000000 0.000000 0.000000 0.038693 0.000000 0.000000
# 5 0.000000 0.000000 0.000000 0.000000 0.038693 0.000000
# 6 0.000000 0.000000 0.000000 0.000000 0.000000 0.038046
#
#
# Mechanical properties :
#
#
# Convention : Reuss Voigt Hill
#
# Bulk Modulus (GPa) = 36.16380 54.16922 45.16651
# Shear Modulus (GPa) = 20.81927 24.21138 22.51533
#
# Velocity S-wave (km/s) = 3.46297 3.73444 3.60126
# Velocity P-wave (km/s) = 6.06798 7.05669 6.58093
#
# Compressibility (1/GPa) = 0.02765196
#
# Stress axis : x y z
#
# Youngs Moduli (GPa) = 68.60074 68.60077 23.56929
#
# Poissons Ratio (x) = 0.33992 0.20046
# Poissons Ratio (y) = 0.33992 0.20046
# Poissons Ratio (z) = 0.58346 0.58345
#
# Static dielectric constant tensor:
#      x y z
#    x 3.176360 0.000000 0.000000 
#    y 0.000000 3.176350 0.000000 
#    z 0.000000 0.000000 3.005000 
# 
# 
# High freq. dielectric constant tensor:
#      x y z
#    x 1.664550 0.000000 0.000000 
#    y 0.000000 1.664550 0.000000 
#    z 0.000000 0.000000 1.658910 
# 
# From -- ./inp_files/5498.got.cif
#   From: 2010.03.12/outbox.cif.g09.slc.cpg/sg120_3_cif.got.tgz:5498.got - 2010.04.06 16:00:44.
