data_PCOD8311584
_publ_section_title
;
Structure prediction by ZEFSAII (Michael W. Deem and Ramdas Pophale) SiO2 
 PCOD8311584
Probable space group: I -4 2 M
;
_chemical_formula_sum "Si O2"
_cell_formula_units_Z 68
_cell_length_a 11.187861
_cell_length_b 11.187861
_cell_length_c 28.498585
_cell_angle_alpha 90.000000
_cell_angle_beta 90.000000
_cell_angle_gamma 90.000000
_cell_volume 3567.117549
_symmetry_space_group_name_H-M "I -4 2 M"
_symmetry_group_IT_number 121
_symmetry_cell_setting 'tetragonal'
loop_
_space_group_symop_operation_xyz
x,y,z
y,-x,-z
-x,-y,z
-y,x,-z
x,-y,-z
-x,y,-z
-y,-x,z
y,x,z
1/2+x,1/2+y,1/2+z
1/2+y,1/2-x,1/2-z
1/2-x,1/2-y,1/2+z
1/2-y,1/2+x,1/2-z
1/2+x,1/2-y,1/2-z
1/2-x,1/2+y,1/2-z
1/2-y,1/2-x,1/2+z
1/2+y,1/2+x,1/2+z
loop_
_atom_site_type_symbol
_atom_site_label
_atom_site_fract_x
_atom_site_fract_y
_atom_site_fract_z
Si Si1 0.026430 0.675379 0.823398
Si Si2 0.500000 0.000000 0.750000
Si Si3 0.500000 0.000000 0.405615
Si Si4 0.905923 0.905923 0.618027
Si Si5 0.710667 0.710667 0.206721
Si Si6 0.402924 0.402924 0.298729
Si Si7 0.247040 0.557490 0.050325
O O1 0.149306 0.687693 0.795381
O O2 0.947225 0.600390 0.785790
O O3 0.044223 0.609777 0.873141
O O4 0.963829 0.802689 0.831651
O O5 0.394509 0.056367 0.437749
O O6 0.846824 0.846824 0.661772
O O7 0.971767 0.806415 0.587902
O O8 0.000000 0.000000 0.637894
O O9 0.654070 0.654070 0.252768
O O10 0.500000 0.500000 0.282843
O O11 0.309892 0.690109 0.052043
O O12 0.269190 0.500000 0.000000
#
# Coordination Sequence:
#
# PCOD8311584 Si02
#       7
#    16   4   8   8   8   8  16
#     4  11  23  38  58  83 120 162 209 258 310 378
#     4  10  20  40  54  80 110 152 198 260 308 354
#     4  11  25  41  61  92 128 168 213 251 321 393
#     4  10  21  38  60  92 119 153 196 251 313 371
#     4  12  21  41  58  82 124 160 210 260 315 373
#     4  12  25  38  60  90 121 167 216 268 325 374
#     4  11  22  40  67  95 127 159 200 261 322 382
#
# _framework density 19.063012000000001
#
# number of rings (size 3 to 8) (size 9 to 14) (size 15 to 20)
#    0.000    0.941    7.059    0.706    1.647    0.000 
#    0.000    0.000    0.000    0.000    0.000    0.000 
#    0.000    0.000    0.000    0.000    0.000    0.000 
#
# Total GULP energy -421376.094470 kJ/mol
# GULP energy per Si atom -12393.414543 kJ/mol
# Density = 1.901962 g / cm^3
# Si number density = 19.063012 Si / 1000 Ang^3
#
#
#
# Elastic Constant Matrix: (Units=GPa)
#
#
# Indices 1 2 3 4 5 6 
#
# 1 113.3410 42.1982 28.7693 0.0000 0.0000 0.0000
# 2 42.1982 113.3408 28.7693 0.0000 0.0000 0.0000
# 3 28.7693 28.7693 71.0638 0.0000 0.0000 0.0000
# 4 0.0000 0.0000 0.0000 36.1038 0.0000 0.0000
# 5 0.0000 0.0000 0.0000 0.0000 36.1032 0.0000
# 6 0.0000 0.0000 0.0000 0.0000 0.0000 32.2912
#
#
#
# Elastic Compliance Matrix: (Units=1/GPa)
#
#
# Indices 1 2 3 4 5 6 
#
# 1 0.010809 -0.003247 -0.003061 0.000000 0.000000 0.000000
# 2 -0.003247 0.010809 -0.003061 0.000000 0.000000 0.000000
# 3 -0.003061 -0.003061 0.016550 0.000000 0.000000 0.000000
# 4 0.000000 0.000000 0.000000 0.027698 0.000000 0.000000
# 5 0.000000 0.000000 0.000000 0.000000 0.027698 0.000000
# 6 0.000000 0.000000 0.000000 0.000000 0.000000 0.030968
#
#
# Mechanical properties :
#
#
# Convention : Reuss Voigt Hill
#
# Bulk Modulus (GPa) = 51.46984 55.24657 53.35820
# Shear Modulus (GPa) = 33.38926 34.10024 33.74475
#
# Velocity S-wave (km/s) = 4.18966 4.23403 4.21190
# Velocity P-wave (km/s) = 7.10372 7.27644 7.19060
#
# Compressibility (1/GPa) = 0.01942885
#
# Stress axis : x y z
#
# Youngs Moduli (GPa) = 92.51574 92.51562 60.42115
#
# Poissons Ratio (x) = 0.30042 0.18497
# Poissons Ratio (y) = 0.30042 0.18497
# Poissons Ratio (z) = 0.28322 0.28321
#
# Static dielectric constant tensor:
#      x y z
#    x 3.625790 0.000000 0.000000 
#    y 0.000000 3.625790 0.000000 
#    z 0.000000 0.000000 3.365230 
# 
# 
# High freq. dielectric constant tensor:
#      x y z
#    x 1.743570 0.000000 0.000000 
#    y 0.000000 1.743570 0.000000 
#    z 0.000000 0.000000 1.734190 
# 
# From -- ./inp_files/7629.got.cif
#   From: 2010.03.12/outbox.cif.g09.slc.cpg/sg121_4_cif.got.tgz:7629.got - 2010.04.06 16:06:48.
