data_PCOD8311945
_publ_section_title
;
Structure prediction by ZEFSAII (Michael W. Deem and Ramdas Pophale) SiO2 
 PCOD8311945
Probable space group: I -4 2 D
;
_chemical_formula_sum "Si O2"
_cell_formula_units_Z 64
_cell_length_a 13.333294
_cell_length_b 13.333294
_cell_length_c 16.699479
_cell_angle_alpha 90.000000
_cell_angle_beta 90.000000
_cell_angle_gamma 90.000000
_cell_volume 2968.778751
_symmetry_space_group_name_H-M "I -4 2 D"
_symmetry_group_IT_number 122
_symmetry_cell_setting 'tetragonal'
loop_
_space_group_symop_operation_xyz
x,y,z
y,-x,-z
-x,-y,z
-y,x,-z
x,1/2-y,1/4-z
-x,1/2+y,1/4-z
-y,1/2-x,1/4+z
y,1/2+x,1/4+z
1/2+x,1/2+y,1/2+z
1/2+y,1/2-x,1/2-z
1/2-x,1/2-y,1/2+z
1/2-y,1/2+x,1/2-z
1/2+x,-y,3/4-z
1/2-x,y,3/4-z
1/2-y,-x,3/4+z
1/2+y,x,3/4+z
loop_
_atom_site_type_symbol
_atom_site_label
_atom_site_fract_x
_atom_site_fract_y
_atom_site_fract_z
Si Si1 0.278733 0.606870 0.758675
Si Si2 0.338297 0.309003 0.545325
Si Si3 0.586788 0.077875 0.350752
Si Si4 0.782659 0.013766 0.095461
O O1 0.291483 0.725238 0.767714
O O2 0.344322 0.545915 0.823727
O O3 0.159865 0.583272 0.772610
O O4 0.322046 0.574840 0.672403
O O5 0.364949 0.250000 0.625000
O O6 0.357764 0.426943 0.564014
O O7 0.409603 0.265831 0.476635
O O8 0.539295 0.183134 0.373607
O O9 0.500000 0.000000 0.332094
#
# Coordination Sequence:
#
# PCOD8311945 Si02
#       4
#    16  16  16  16
#     4  10  22  46  65  96 142 174 229 285 350 408
#     4  11  24  48  64 100 139 180 233 288 353 414
#     4  10  23  39  66 102 134 176 229 282 345 420
#     4  11  25  41  72  95 136 186 223 290 344 425
#
# _framework density 21.557687999999999
#
# number of rings (size 3 to 8) (size 9 to 14) (size 15 to 20)
#    0.000    1.500    5.000    0.750    7.000    4.500 
#    4.500    0.000    0.000    0.000    0.000    0.000 
#    0.000    0.000    0.000    0.000    0.000    0.000 
#
# Total GULP energy -396695.017651 kJ/mol
# GULP energy per Si atom -12396.719302 kJ/mol
# Density = 2.150862 g / cm^3
# Si number density = 21.557688 Si / 1000 Ang^3
#
#
#
# Elastic Constant Matrix: (Units=GPa)
#
#
# Indices 1 2 3 4 5 6 
#
# 1 75.6312 28.1667 40.0325 0.0000 0.0000 0.0000
# 2 28.1667 75.6312 40.0325 0.0000 0.0000 0.0000
# 3 40.0325 40.0325 147.5713 0.0000 0.0000 0.0000
# 4 0.0000 0.0000 0.0000 16.4491 0.0000 0.0000
# 5 0.0000 0.0000 0.0000 0.0000 16.4491 0.0000
# 6 0.0000 0.0000 0.0000 0.0000 0.0000 19.4501
#
#
#
# Elastic Compliance Matrix: (Units=1/GPa)
#
#
# Indices 1 2 3 4 5 6 
#
# 1 0.016626 -0.004442 -0.003305 0.000000 0.000000 0.000000
# 2 -0.004442 0.016626 -0.003305 0.000000 0.000000 0.000000
# 3 -0.003305 -0.003305 0.008570 0.000000 0.000000 0.000000
# 4 0.000000 0.000000 0.000000 0.060794 0.000000 0.000000
# 5 0.000000 0.000000 0.000000 0.000000 0.060794 0.000000
# 6 0.000000 0.000000 0.000000 0.000000 0.000000 0.051414
#
#
# Mechanical properties :
#
#
# Convention : Reuss Voigt Hill
#
# Bulk Modulus (GPa) = 50.71967 57.25524 53.98746
# Shear Modulus (GPa) = 20.53391 23.17646 21.85518
#
# Velocity S-wave (km/s) = 3.08962 3.28241 3.18748
# Velocity P-wave (km/s) = 6.02546 6.40175 6.21645
#
# Compressibility (1/GPa) = 0.01971622
#
# Stress axis : x y z
#
# Youngs Moduli (GPa) = 60.14700 60.14700 116.69209
#
# Poissons Ratio (x) = 0.26720 0.38568
# Poissons Ratio (y) = 0.26720 0.38568
# Poissons Ratio (z) = 0.19879 0.19879
#
# Static dielectric constant tensor:
#      x y z
#    x 4.086680 0.000000 0.000000 
#    y 0.000000 4.086680 0.000000 
#    z 0.000000 0.000000 4.207660 
# 
# 
# High freq. dielectric constant tensor:
#      x y z
#    x 1.842190 0.000000 0.000000 
#    y 0.000000 1.842190 0.000000 
#    z 0.000000 0.000000 1.861690 
# 
# From -- ./inp_files/5166.got.cif
#   From: 2010.03.12/outbox.cif.g09.slc.cpg/sg122_3_cif.got.tgz:5166.got - 2010.04.06 16:17:16.
