data_PCOD8311634
_publ_section_title
;
Structure prediction by ZEFSAII (Michael W. Deem and Ramdas Pophale) SiO2 
 PCOD8311634
Probable space group: I -4 2 M
;
_chemical_formula_sum "Si O2"
_cell_formula_units_Z 48
_cell_length_a 20.720750
_cell_length_b 20.720750
_cell_length_c 5.039112
_cell_angle_alpha 90.000000
_cell_angle_beta 90.000000
_cell_angle_gamma 90.000000
_cell_volume 2163.540120
_symmetry_space_group_name_H-M "I -4 2 M"
_symmetry_group_IT_number 121
_symmetry_cell_setting 'tetragonal'
loop_
_space_group_symop_operation_xyz
x,y,z
y,-x,-z
-x,-y,z
-y,x,-z
x,-y,-z
-x,y,-z
-y,-x,z
y,x,z
1/2+x,1/2+y,1/2+z
1/2+y,1/2-x,1/2-z
1/2-x,1/2-y,1/2+z
1/2-y,1/2+x,1/2-z
1/2+x,1/2-y,1/2-z
1/2-x,1/2+y,1/2-z
1/2-y,1/2-x,1/2+z
1/2+y,1/2+x,1/2+z
loop_
_atom_site_type_symbol
_atom_site_label
_atom_site_fract_x
_atom_site_fract_y
_atom_site_fract_z
Si Si1 0.500000 0.233942 0.000000
Si Si2 0.857713 0.039859 0.259061
Si Si3 0.278378 0.278378 0.869812
Si Si4 0.317183 0.878588 0.734413
O O1 0.456463 0.279765 0.194423
O O2 0.454597 0.187481 0.823826
O O3 0.888182 0.111819 0.244643
O O4 0.889858 0.000000 0.500000
O O5 0.874787 0.000000 0.000000
O O6 0.266947 0.266947 0.182152
O O7 0.351206 0.256787 0.795857
O O8 0.343820 0.866033 0.028508
#
# Coordination Sequence:
#
# PCOD8311634 Si02
#       4
#     8  16   8  16
#     4  10  26  40  65  91 126 160 212 256 314 370
#     4  10  23  39  59  88 125 168 210 248 295 363
#     4   8  16  34  54  84 111 146 191 244 306 358
#     4  10  22  38  62  88 120 158 200 256 313 367
#
# _framework density 22.185860999999999
#
# number of rings (size 3 to 8) (size 9 to 14) (size 15 to 20)
#    1.000    1.333    0.000    1.000    7.000    2.000 
#    0.000    0.000    0.000    3.000    0.000    0.000 
#    0.000    0.000    0.000    0.000    0.000    0.000 
#
# Total GULP energy -297344.117587 kJ/mol
# GULP energy per Si atom -12389.338233 kJ/mol
# Density = 2.213537 g / cm^3
# Si number density = 22.185861 Si / 1000 Ang^3
#
#
#
# Elastic Constant Matrix: (Units=GPa)
#
#
# Indices 1 2 3 4 5 6 
#
# 1 60.9267 4.8015 -8.4179 0.0000 0.0000 0.0000
# 2 4.8015 60.9260 -8.4180 0.0000 0.0000 0.0000
# 3 -8.4179 -8.4180 101.8666 0.0000 0.0000 0.0000
# 4 0.0000 0.0000 0.0000 6.9041 0.0000 0.0000
# 5 0.0000 0.0000 0.0000 0.0000 6.9265 0.0000
# 6 0.0000 0.0000 0.0000 0.0000 0.0000 16.0164
#
#
#
# Elastic Compliance Matrix: (Units=1/GPa)
#
#
# Indices 1 2 3 4 5 6 
#
# 1 0.016680 -0.001137 0.001284 0.000000 0.000000 0.000000
# 2 -0.001137 0.016680 0.001284 0.000000 0.000000 0.000000
# 3 0.001284 0.001284 0.010029 0.000000 0.000000 0.000000
# 4 0.000000 0.000000 0.000000 0.144841 0.000000 0.000000
# 5 0.000000 0.000000 0.000000 0.000000 0.144373 0.000000
# 6 0.000000 0.000000 0.000000 0.000000 0.000000 0.062436
#
#
# Mechanical properties :
#
#
# Convention : Reuss Voigt Hill
#
# Bulk Modulus (GPa) = 21.62007 22.18341 21.90174
# Shear Modulus (GPa) = 12.26712 21.68632 16.97672
#
# Velocity S-wave (km/s) = 2.35399 3.12987 2.76923
# Velocity P-wave (km/s) = 4.14180 4.80437 4.48534
#
# Compressibility (1/GPa) = 0.04625331
#
# Stress axis : x y z
#
# Youngs Moduli (GPa) = 59.95120 59.95048 99.71040
#
# Poissons Ratio (x) = 0.06817 -0.12807
# Poissons Ratio (y) = 0.06817 -0.12807
# Poissons Ratio (z) = -0.07700 -0.07700
#
# Static dielectric constant tensor:
#      x y z
#    x 3.625430 0.000000 0.000000 
#    y 0.000000 3.625320 0.000000 
#    z 0.000000 0.000000 4.024650 
# 
# 
# High freq. dielectric constant tensor:
#      x y z
#    x 1.837420 0.000000 0.000000 
#    y 0.000000 1.837420 0.000000 
#    z 0.000000 0.000000 1.889400 
# 
# From -- ./inp_files/319.got.cif
#   From: 2010.03.12/outbox.cif.g09.slc.cpg/sg121_1_cif.got.tgz:319.got - 2010.04.06 16:06:48.
