data_PCOD8311784
_publ_section_title
;
Structure prediction by ZEFSAII (Michael W. Deem and Ramdas Pophale) SiO2 
 PCOD8311784
Probable space group: I -4 2 D
;
_chemical_formula_sum "Si O2"
_cell_formula_units_Z 112
_cell_length_a 14.044913
_cell_length_b 14.044913
_cell_length_c 29.183291
_cell_angle_alpha 90.000000
_cell_angle_beta 90.000000
_cell_angle_gamma 90.000000
_cell_volume 5756.683760
_symmetry_space_group_name_H-M "I -4 2 D"
_symmetry_group_IT_number 122
_symmetry_cell_setting 'tetragonal'
loop_
_space_group_symop_operation_xyz
x,y,z
y,-x,-z
-x,-y,z
-y,x,-z
x,1/2-y,1/4-z
-x,1/2+y,1/4-z
-y,1/2-x,1/4+z
y,1/2+x,1/4+z
1/2+x,1/2+y,1/2+z
1/2+y,1/2-x,1/2-z
1/2-x,1/2-y,1/2+z
1/2-y,1/2+x,1/2-z
1/2+x,-y,3/4-z
1/2-x,y,3/4-z
1/2-y,-x,3/4+z
1/2+y,x,3/4+z
loop_
_atom_site_type_symbol
_atom_site_label
_atom_site_fract_x
_atom_site_fract_y
_atom_site_fract_z
Si Si1 0.023366 0.223750 0.760775
Si Si2 0.905805 0.444038 0.931177
Si Si3 0.139047 0.750000 0.125000
Si Si4 0.250000 0.860953 0.375000
Si Si5 0.223750 0.023366 0.739224
Si Si6 0.801275 0.675805 0.718976
Si Si7 0.094195 0.055962 0.818823
Si Si8 0.801275 0.324195 0.218976
O O1 0.994972 0.149114 0.720353
O O2 0.096376 0.300922 0.740554
O O3 0.072073 0.162520 0.800931
O O4 0.936682 0.283259 0.781493
O O5 0.838088 0.430542 0.887421
O O6 0.000000 0.500000 0.916003
O O7 0.927927 0.337480 0.949068
O O8 0.069458 0.838088 0.137421
O O9 0.204952 0.717780 0.167503
O O10 0.282220 0.795048 0.332497
O O11 0.149114 0.994972 0.779647
O O12 0.300922 0.096376 0.759446
O O13 0.283260 0.936682 0.718507
O O14 0.719421 0.719420 0.750000
O O15 0.000000 0.000000 0.833997
#
# Coordination Sequence:
#
# PCOD8311784 Si02
#       8
#    16  16   8   8  16  16  16  16
#     4  10  20  38  65  85 123 167 204 256 317 369
#     4  10  19  40  62  90 121 166 213 248 308 383
#     4  10  22  40  62  92 130 158 212 264 304 376
#     4  10  22  40  62  92 130 158 212 264 304 376
#     4  10  20  38  65  85 123 167 204 256 317 369
#     4  11  21  42  62  91 127 164 208 264 311 375
#     4  10  19  40  62  90 121 166 213 248 308 383
#     4  11  21  42  62  91 127 164 208 264 311 375
#
# _framework density 19.455645000000001
#
# number of rings (size 3 to 8) (size 9 to 14) (size 15 to 20)
#    0.000    1.714    5.714    3.429    0.000    1.714 
#   10.286    7.143    0.000    0.000    0.000    0.000 
#    0.000    0.000    0.000    0.000    0.000    0.000 
#
# Total GULP energy -694369.149719 kJ/mol
# GULP energy per Si atom -12399.449102 kJ/mol
# Density = 1.941136 g / cm^3
# Si number density = 19.455645 Si / 1000 Ang^3
#
#
#
# Elastic Constant Matrix: (Units=GPa)
#
#
# Indices 1 2 3 4 5 6 
#
# 1 109.5452 46.9040 52.4518 0.0000 0.0000 0.0000
# 2 46.9040 109.5452 52.4518 0.0000 0.0000 0.0000
# 3 52.4518 52.4518 108.5055 0.0000 0.0000 0.0000
# 4 0.0000 0.0000 0.0000 19.2472 0.0000 0.0000
# 5 0.0000 0.0000 0.0000 0.0000 19.2472 0.0000
# 6 0.0000 0.0000 0.0000 0.0000 0.0000 47.4230
#
#
#
# Elastic Compliance Matrix: (Units=1/GPa)
#
#
# Indices 1 2 3 4 5 6 
#
# 1 0.012711 -0.003253 -0.004572 0.000000 0.000000 0.000000
# 2 -0.003253 0.012711 -0.004572 0.000000 0.000000 0.000000
# 3 -0.004572 -0.004572 0.013636 0.000000 0.000000 0.000000
# 4 0.000000 0.000000 0.000000 0.051956 0.000000 0.000000
# 5 0.000000 0.000000 0.000000 0.000000 0.051956 0.000000
# 6 0.000000 0.000000 0.000000 0.000000 0.000000 0.021087
#
#
# Mechanical properties :
#
#
# Convention : Reuss Voigt Hill
#
# Bulk Modulus (GPa) = 70.10699 70.13459 70.12079
# Shear Modulus (GPa) = 25.82600 28.90269 27.36435
#
# Velocity S-wave (km/s) = 3.64734 3.85849 3.75440
# Velocity P-wave (km/s) = 7.33825 7.48180 7.41037
#
# Compressibility (1/GPa) = 0.01426391
#
# Stress axis : x y z
#
# Youngs Moduli (GPa) = 78.67445 78.67445 73.33505
#
# Poissons Ratio (x) = 0.25595 0.33526
# Poissons Ratio (y) = 0.25595 0.33526
# Poissons Ratio (z) = 0.35967 0.35967
#
# Static dielectric constant tensor:
#      x y z
#    x 3.462610 0.000000 0.000000 
#    y 0.000000 3.462610 0.000000 
#    z 0.000000 0.000000 3.498840 
# 
# 
# High freq. dielectric constant tensor:
#      x y z
#    x 1.753010 0.000000 0.000000 
#    y 0.000000 1.753010 0.000000 
#    z 0.000000 0.000000 1.746630 
# 
# From -- ./inp_files/8835.got.cif
#   From: 2010.03.12/outbox.cif.g09.slc.cpg/sg122_5_cif.got.tgz:8835.got - 2010.04.06 16:17:16.
