data_PCOD8311402
_publ_section_title
;
Structure prediction by ZEFSAII (Michael W. Deem and Ramdas Pophale) SiO2 
 PCOD8311402
Probable space group: I -4 2 M
;
_chemical_formula_sum "Si O2"
_cell_formula_units_Z 112
_cell_length_a 15.345079
_cell_length_b 15.345079
_cell_length_c 24.810687
_cell_angle_alpha 90.000000
_cell_angle_beta 90.000000
_cell_angle_gamma 90.000000
_cell_volume 5842.208431
_symmetry_space_group_name_H-M "I -4 2 M"
_symmetry_group_IT_number 121
_symmetry_cell_setting 'tetragonal'
loop_
_space_group_symop_operation_xyz
x,y,z
y,-x,-z
-x,-y,z
-y,x,-z
x,-y,-z
-x,y,-z
-y,-x,z
y,x,z
1/2+x,1/2+y,1/2+z
1/2+y,1/2-x,1/2-z
1/2-x,1/2-y,1/2+z
1/2-y,1/2+x,1/2-z
1/2+x,1/2-y,1/2-z
1/2-x,1/2+y,1/2-z
1/2-y,1/2-x,1/2+z
1/2+y,1/2+x,1/2+z
loop_
_atom_site_type_symbol
_atom_site_label
_atom_site_fract_x
_atom_site_fract_y
_atom_site_fract_z
Si Si1 0.502708 0.774143 0.439829
Si Si2 0.189555 0.050131 0.162991
Si Si3 0.373787 0.925550 0.418819
Si Si4 0.907062 0.768160 0.491165
Si Si5 0.618539 0.853600 0.899515
Si Si6 0.691756 0.168338 0.317472
Si Si7 0.373467 0.230401 0.298511
O O1 0.500000 0.737933 0.500000
O O2 0.461424 0.700106 0.401674
O O3 0.457853 0.866844 0.427835
O O4 0.602697 0.797275 0.427979
O O5 0.093513 0.093513 0.173893
O O6 0.263152 0.113293 0.186042
O O7 0.206504 0.955978 0.189361
O O8 0.317988 0.909653 0.472465
O O9 0.319517 0.898753 0.366034
O O10 0.401930 0.025898 0.409520
O O11 0.831786 0.831786 0.511163
O O12 0.891667 0.741245 0.428171
O O13 0.000000 0.816338 0.500000
O O14 0.645596 0.857517 0.836532
O O15 0.782629 0.217372 0.327379
O O16 0.693925 0.114666 0.261785
O O17 0.286569 0.286569 0.303473
#
# Coordination Sequence:
#
# PCOD8311402 Si02
#       7
#    16  16  16  16  16  16  16
#     4  10  18  33  52  81 113 141 172 214 267 326
#     4   9  20  37  56  81 111 145 182 224 276 328
#     4  10  19  31  54  76 107 139 171 220 267 332
#     4  10  20  33  50  74 100 136 177 217 267 318
#     4  10  20  32  51  78 107 137 173 218 270 321
#     4   9  19  35  54  78 105 137 178 224 273 323
#     4  10  21  36  56  78 106 144 185 229 274 325
#
# _framework density 19.170832000000001
#
# number of rings (size 3 to 8) (size 9 to 14) (size 15 to 20)
#    0.000    2.286    1.429    1.286    2.000    1.571 
#    0.000    0.714    0.000    0.000    0.000    2.000 
#    0.000    0.000    0.000    0.000    0.000    0.000 
#
# Total GULP energy -693892.582282 kJ/mol
# GULP energy per Si atom -12390.938969 kJ/mol
# Density = 1.912720 g / cm^3
# Si number density = 19.170832 Si / 1000 Ang^3
#
#
#
# Elastic Constant Matrix: (Units=GPa)
#
#
# Indices 1 2 3 4 5 6 
#
# 1 51.2133 12.7935 18.3095 0.0000 0.0000 0.0000
# 2 12.7935 51.2137 18.3091 0.0000 0.0000 0.0000
# 3 18.3095 18.3091 121.3380 0.0000 0.0000 0.0000
# 4 0.0000 0.0000 0.0000 21.6923 0.0000 0.0000
# 5 0.0000 0.0000 0.0000 0.0000 21.6919 0.0000
# 6 0.0000 0.0000 0.0000 0.0000 0.0000 23.6543
#
#
#
# Elastic Compliance Matrix: (Units=1/GPa)
#
#
# Indices 1 2 3 4 5 6 
#
# 1 0.021564 -0.004464 -0.002580 0.000000 0.000000 0.000000
# 2 -0.004464 0.021564 -0.002580 0.000000 0.000000 0.000000
# 3 -0.002580 -0.002580 0.009020 0.000000 0.000000 0.000000
# 4 0.000000 0.000000 0.000000 0.046099 0.000000 0.000000
# 5 0.000000 0.000000 0.000000 0.000000 0.046100 0.000000
# 6 0.000000 0.000000 0.000000 0.000000 0.000000 0.042276
#
#
# Mechanical properties :
#
#
# Convention : Reuss Voigt Hill
#
# Bulk Modulus (GPa) = 30.39685 35.84323 33.12004
# Shear Modulus (GPa) = 23.05866 25.03124 24.04495
#
# Velocity S-wave (km/s) = 3.47190 3.61736 3.54538
# Velocity P-wave (km/s) = 5.65352 6.01535 5.83724
#
# Compressibility (1/GPa) = 0.03289815
#
# Stress axis : x y z
#
# Youngs Moduli (GPa) = 46.37378 46.37427 110.86316
#
# Poissons Ratio (x) = 0.20703 0.28606
# Poissons Ratio (y) = 0.20703 0.28605
# Poissons Ratio (z) = 0.11966 0.11965
#
# Static dielectric constant tensor:
#      x y z
#    x 3.370540 0.000000 0.000000 
#    y 0.000000 3.370540 0.000000 
#    z 0.000000 0.000000 3.603080 
# 
# 
# High freq. dielectric constant tensor:
#      x y z
#    x 1.731240 0.000000 0.000000 
#    y 0.000000 1.731240 0.000000 
#    z 0.000000 0.000000 1.748810 
# 
# From -- ./inp_files/7222.got.cif
#   From: 2010.03.12/outbox.cif.g09.slc.cpg/sg121_4_cif.got.tgz:7222.got - 2010.04.06 16:06:48.
