data_PCOD8311613
_publ_section_title
;
Structure prediction by ZEFSAII (Michael W. Deem and Ramdas Pophale) SiO2 
 PCOD8311613
Probable space group: I -4 2 M
;
_chemical_formula_sum "Si O2"
_cell_formula_units_Z 64
_cell_length_a 19.470669
_cell_length_b 19.470669
_cell_length_c 8.624667
_cell_angle_alpha 90.000000
_cell_angle_beta 90.000000
_cell_angle_gamma 90.000000
_cell_volume 3269.671212
_symmetry_space_group_name_H-M "I -4 2 M"
_symmetry_group_IT_number 121
_symmetry_cell_setting 'tetragonal'
loop_
_space_group_symop_operation_xyz
x,y,z
y,-x,-z
-x,-y,z
-y,x,-z
x,-y,-z
-x,y,-z
-y,-x,z
y,x,z
1/2+x,1/2+y,1/2+z
1/2+y,1/2-x,1/2-z
1/2-x,1/2-y,1/2+z
1/2-y,1/2+x,1/2-z
1/2+x,1/2-y,1/2-z
1/2-x,1/2+y,1/2-z
1/2-y,1/2-x,1/2+z
1/2+y,1/2+x,1/2+z
loop_
_atom_site_type_symbol
_atom_site_label
_atom_site_fract_x
_atom_site_fract_y
_atom_site_fract_z
Si Si1 0.597323 0.016558 0.822749
Si Si2 0.237963 0.497158 0.817796
Si Si3 0.638440 0.752368 0.687172
Si Si4 0.856076 0.741707 0.829125
O O1 0.580083 0.950875 0.717242
O O2 0.673868 0.033974 0.778518
O O3 0.586719 0.000000 0.000000
O O4 0.282351 0.429728 0.770771
O O5 0.259741 0.571971 0.757751
O O6 0.226141 0.500000 0.000000
O O7 0.693221 0.693221 0.702985
O O8 0.671807 0.820650 0.767293
O O9 0.625071 0.770521 0.507669
O O10 0.807161 0.807161 0.801789
#
# Coordination Sequence:
#
# PCOD8311613 Si02
#       4
#    16  16  16  16
#     4  11  21  34  49  70 103 139 177 216 261 315
#     4  12  23  35  54  79 108 142 181 222 268 322
#     4  10  21  38  59  83 112 145 183 227 275 326
#     4  10  21  38  59  83 112 145 183 227 275 326
#
# _framework density 19.573834999999999
#
# number of rings (size 3 to 8) (size 9 to 14) (size 15 to 20)
#    0.000    1.250    0.000    8.250    0.000    3.000 
#    0.000    0.000    0.000    0.750    0.000    5.250 
#    0.000    0.000    0.000    0.000    0.000    0.000 
#
# Total GULP energy -396488.677955 kJ/mol
# GULP energy per Si atom -12390.271186 kJ/mol
# Density = 1.952928 g / cm^3
# Si number density = 19.573835 Si / 1000 Ang^3
#
#
#
# Elastic Constant Matrix: (Units=GPa)
#
#
# Indices 1 2 3 4 5 6 
#
# 1 109.2101 -11.1403 40.4340 0.0000 0.0000 0.0000
# 2 -11.1403 109.2101 40.4340 0.0000 0.0000 0.0000
# 3 40.4340 40.4340 159.0393 0.0000 0.0000 0.0000
# 4 0.0000 0.0000 0.0000 32.1223 0.0000 0.0000
# 5 0.0000 0.0000 0.0000 0.0000 32.1223 0.0000
# 6 0.0000 0.0000 0.0000 0.0000 0.0000 13.9878
#
#
#
# Elastic Compliance Matrix: (Units=1/GPa)
#
#
# Indices 1 2 3 4 5 6 
#
# 1 0.010605 0.002296 -0.003280 0.000000 0.000000 0.000000
# 2 0.002296 0.010605 -0.003280 0.000000 0.000000 0.000000
# 3 -0.003280 -0.003280 0.007956 0.000000 0.000000 0.000000
# 4 0.000000 0.000000 0.000000 0.031131 0.000000 0.000000
# 5 0.000000 0.000000 0.000000 0.000000 0.031131 0.000000
# 6 0.000000 0.000000 0.000000 0.000000 0.000000 0.071491
#
#
# Mechanical properties :
#
#
# Convention : Reuss Voigt Hill
#
# Bulk Modulus (GPa) = 48.45337 57.43500 52.94418
# Shear Modulus (GPa) = 28.03848 36.16195 32.10022
#
# Velocity S-wave (km/s) = 3.78887 4.30288 4.05403
# Velocity P-wave (km/s) = 6.62938 7.35478 7.00148
#
# Compressibility (1/GPa) = 0.02063840
#
# Stress axis : x y z
#
# Youngs Moduli (GPa) = 94.29238 94.29238 125.69764
#
# Poissons Ratio (x) = -0.21652 0.41230
# Poissons Ratio (y) = -0.21652 0.41230
# Poissons Ratio (z) = 0.30929 0.30929
#
# Static dielectric constant tensor:
#      x y z
#    x 3.606190 0.000000 0.000000 
#    y 0.000000 3.606190 0.000000 
#    z 0.000000 0.000000 3.840940 
# 
# 
# High freq. dielectric constant tensor:
#      x y z
#    x 1.755370 0.000000 0.000000 
#    y 0.000000 1.755370 0.000000 
#    z 0.000000 0.000000 1.784110 
# 
# From -- ./inp_files/1589.got.cif
#   From: 2010.03.12/outbox.cif.g09.slc.cpg/sg121_1_cif.got.tgz:1589.got - 2010.04.06 16:06:48.
