data_PCOD8311435
_publ_section_title
;
Structure prediction by ZEFSAII (Michael W. Deem and Ramdas Pophale) SiO2 
 PCOD8311435
Probable space group: I -4 2 M
;
_chemical_formula_sum "Si O2"
_cell_formula_units_Z 112
_cell_length_a 19.839372
_cell_length_b 19.839372
_cell_length_c 17.343660
_cell_angle_alpha 90.000000
_cell_angle_beta 90.000000
_cell_angle_gamma 90.000000
_cell_volume 6826.476393
_symmetry_space_group_name_H-M "I -4 2 M"
_symmetry_group_IT_number 121
_symmetry_cell_setting 'tetragonal'
loop_
_space_group_symop_operation_xyz
x,y,z
y,-x,-z
-x,-y,z
-y,x,-z
x,-y,-z
-x,y,-z
-y,-x,z
y,x,z
1/2+x,1/2+y,1/2+z
1/2+y,1/2-x,1/2-z
1/2-x,1/2-y,1/2+z
1/2-y,1/2+x,1/2-z
1/2+x,1/2-y,1/2-z
1/2-x,1/2+y,1/2-z
1/2-y,1/2-x,1/2+z
1/2+y,1/2+x,1/2+z
loop_
_atom_site_type_symbol
_atom_site_label
_atom_site_fract_x
_atom_site_fract_y
_atom_site_fract_z
Si Si1 0.229479 0.882300 0.319922
Si Si2 0.370318 0.740147 0.529808
Si Si3 0.075437 0.188239 0.518753
Si Si4 0.273851 0.160816 0.410253
Si Si5 0.938860 0.170541 0.169795
Si Si6 0.698578 0.585843 0.626484
Si Si7 0.168636 0.282438 0.237490
O O1 0.180790 0.819210 0.328132
O O2 0.229019 0.922194 0.400609
O O3 0.203468 0.932320 0.253757
O O4 0.303163 0.852304 0.298960
O O5 0.309795 0.690206 0.509893
O O6 0.339454 0.815048 0.540999
O O7 0.405802 0.721173 0.609236
O O8 0.420969 0.735164 0.457049
O O9 0.121774 0.121774 0.521006
O O10 0.097655 0.239624 0.451816
O O11 0.000000 0.164256 0.500000
O O12 0.222846 0.222846 0.406186
O O13 0.295589 0.140878 0.323665
O O14 0.902445 0.097556 0.166233
O O15 0.016865 0.162040 0.150031
O O16 0.640003 0.640003 0.625296
O O17 0.756406 0.605930 0.687184
O O18 0.227489 0.227489 0.238979
#
# Coordination Sequence:
#
# PCOD8311435 Si02
#       7
#    16  16  16  16  16  16  16
#     4   9  17  32  49  66  89 125 164 205 254 288
#     4   9  16  30  48  67  90 122 159 199 245 285
#     4  10  21  33  48  70 100 136 171 202 236 284
#     4   9  16  29  49  69  90 119 157 206 257 291
#     4  10  19  31  47  66  98 135 163 187 227 289
#     4  10  20  29  44  70  98 127 162 199 231 276
#     4   9  16  29  49  70  91 118 158 209 256 287
#
# _framework density 16.406707999999998
#
# number of rings (size 3 to 8) (size 9 to 14) (size 15 to 20)
#    0.000    2.571    1.429    1.286    2.000    3.857 
#    0.000    0.000    0.000    5.143    0.000    0.000 
#    0.000   14.286    0.000    0.000    0.000    0.000 
#
# Total GULP energy -694166.373222 kJ/mol
# GULP energy per Si atom -12395.828093 kJ/mol
# Density = 1.636937 g / cm^3
# Si number density = 16.406708 Si / 1000 Ang^3
#
#
#
# Elastic Constant Matrix: (Units=GPa)
#
#
# Indices 1 2 3 4 5 6 
#
# 1 50.0558 43.6640 41.6918 0.0000 0.0000 0.0000
# 2 43.6640 50.0560 41.6925 0.0000 0.0000 0.0000
# 3 41.6918 41.6925 129.3775 0.0000 0.0000 0.0000
# 4 0.0000 0.0000 0.0000 16.6943 0.0000 0.0000
# 5 0.0000 0.0000 0.0000 0.0000 16.6935 0.0000
# 6 0.0000 0.0000 0.0000 0.0000 0.0000 11.0498
#
#
#
# Elastic Compliance Matrix: (Units=1/GPa)
#
#
# Indices 1 2 3 4 5 6 
#
# 1 0.085704 -0.070745 -0.004820 0.000000 0.000000 0.000000
# 2 -0.070745 0.085704 -0.004821 0.000000 0.000000 0.000000
# 3 -0.004820 -0.004821 0.010836 0.000000 0.000000 0.000000
# 4 0.000000 0.000000 0.000000 0.059901 0.000000 0.000000
# 5 0.000000 0.000000 0.000000 0.000000 0.059904 0.000000
# 6 0.000000 0.000000 0.000000 0.000000 0.000000 0.090499
#
#
# Mechanical properties :
#
#
# Convention : Reuss Voigt Hill
#
# Bulk Modulus (GPa) = 46.57233 53.73176 50.15204
# Shear Modulus (GPa) = 8.92098 15.71692 12.31895
#
# Velocity S-wave (km/s) = 2.33435 3.09845 2.74313
# Velocity P-wave (km/s) = 5.97607 6.75437 6.37710
#
# Compressibility (1/GPa) = 0.02147198
#
# Stress axis : x y z
#
# Youngs Moduli (GPa) = 11.66813 11.66805 92.28323
#
# Poissons Ratio (x) = 0.82545 0.44481
# Poissons Ratio (y) = 0.82546 0.44490
# Poissons Ratio (z) = 0.05624 0.05625
#
# Static dielectric constant tensor:
#      x y z
#    x 2.835170 0.000000 0.000000 
#    y 0.000000 2.835170 0.000000 
#    z 0.000000 0.000000 3.481760 
# 
# 
# High freq. dielectric constant tensor:
#      x y z
#    x 1.595000 0.000000 0.000000 
#    y 0.000000 1.595000 0.000000 
#    z 0.000000 0.000000 1.656240 
# 
# From -- ./inp_files/5593.got.cif
#   From: 2010.03.12/outbox.cif.g09.slc.cpg/sg121_3_cif.got.tgz:5593.got - 2010.04.06 16:06:48.
