data_PCOD8311390
_publ_section_title
;
Structure prediction by ZEFSAII (Michael W. Deem and Ramdas Pophale) SiO2 
 PCOD8311390
Probable space group: I -4 2 M
;
_chemical_formula_sum "Si O2"
_cell_formula_units_Z 96
_cell_length_a 26.335266
_cell_length_b 26.335266
_cell_length_c 10.153436
_cell_angle_alpha 90.000000
_cell_angle_beta 90.000000
_cell_angle_gamma 90.000000
_cell_volume 7041.877313
_symmetry_space_group_name_H-M "I -4 2 M"
_symmetry_group_IT_number 121
_symmetry_cell_setting 'tetragonal'
loop_
_space_group_symop_operation_xyz
x,y,z
y,-x,-z
-x,-y,z
-y,x,-z
x,-y,-z
-x,y,-z
-y,-x,z
y,x,z
1/2+x,1/2+y,1/2+z
1/2+y,1/2-x,1/2-z
1/2-x,1/2-y,1/2+z
1/2-y,1/2+x,1/2-z
1/2+x,1/2-y,1/2-z
1/2-x,1/2+y,1/2-z
1/2-y,1/2-x,1/2+z
1/2+y,1/2+x,1/2+z
loop_
_atom_site_type_symbol
_atom_site_label
_atom_site_fract_x
_atom_site_fract_y
_atom_site_fract_z
Si Si1 0.823819 0.261887 0.899551
Si Si2 0.867315 0.049310 0.748634
Si Si3 0.684321 0.399554 0.488191
Si Si4 0.178319 0.736042 0.601837
Si Si5 0.686445 0.398386 0.017202
Si Si6 0.150241 0.064927 0.746855
O O1 0.781810 0.218191 0.900150
O O2 0.878464 0.239222 0.943282
O O3 0.827898 0.284584 0.751449
O O4 0.809301 0.305883 0.003381
O O5 0.920842 0.079159 0.738245
O O6 0.838320 0.062144 0.882265
O O7 0.830060 0.062770 0.629588
O O8 0.877546 0.989470 0.744788
O O9 0.648743 0.351258 0.505344
O O10 0.686970 0.429049 0.626868
O O11 0.220524 0.779477 0.599577
O O12 0.124629 0.758349 0.550714
O O13 0.647493 0.352508 0.010742
O O14 0.686932 0.427749 0.878550
O O15 0.105023 0.105023 0.748270
#
# Coordination Sequence:
#
# PCOD8311390 Si02
#       6
#    16  16  16  16  16  16
#     4   9  16  25  39  58  77  96 115 139 180 235
#     4  10  18  31  45  53  71 101 131 169 216 252
#     4   9  17  29  41  55  76  97 119 153 200 246
#     4   9  16  25  39  58  77  96 115 139 180 235
#     4   9  17  29  41  55  76  97 119 153 200 246
#     4  10  20  29  41  59  73  95 133 173 210 246
#
# _framework density 13.632728999999999
#
# number of rings (size 3 to 8) (size 9 to 14) (size 15 to 20)
#    0.000    2.667    1.667    1.000    2.333    0.333 
#    0.000    0.000    0.000    6.000    0.000    0.000 
#    0.000    0.000    0.000    0.000    0.000    0.000 
#
# Total GULP energy -594983.108059 kJ/mol
# GULP energy per Si atom -12395.481418 kJ/mol
# Density = 1.360170 g / cm^3
# Si number density = 13.632729 Si / 1000 Ang^3
#
#
#
# Elastic Constant Matrix: (Units=GPa)
#
#
# Indices 1 2 3 4 5 6 
#
# 1 32.9194 29.8917 24.1855 0.0000 0.0000 0.0000
# 2 29.8917 32.9199 24.1847 0.0000 0.0000 0.0000
# 3 24.1855 24.1847 101.9657 0.0000 0.0000 0.0000
# 4 0.0000 0.0000 0.0000 10.6800 0.0000 0.0000
# 5 0.0000 0.0000 0.0000 0.0000 10.6816 0.0000
# 6 0.0000 0.0000 0.0000 0.0000 0.0000 12.6795
#
#
#
# Elastic Compliance Matrix: (Units=1/GPa)
#
#
# Indices 1 2 3 4 5 6 
#
# 1 0.174874 -0.155393 -0.004622 0.000000 0.000000 0.000000
# 2 -0.155393 0.174868 -0.004618 0.000000 0.000000 0.000000
# 3 -0.004622 -0.004618 0.011999 0.000000 0.000000 0.000000
# 4 0.000000 0.000000 0.000000 0.093633 0.000000 0.000000
# 5 0.000000 0.000000 0.000000 0.000000 0.093619 0.000000
# 6 0.000000 0.000000 0.000000 0.000000 0.000000 0.078867
#
#
# Mechanical properties :
#
#
# Convention : Reuss Voigt Hill
#
# Bulk Modulus (GPa) = 30.79232 36.03655 33.41443
# Shear Modulus (GPa) = 5.16555 12.77777 8.97166
#
# Velocity S-wave (km/s) = 1.94867 3.06484 2.56812
# Velocity P-wave (km/s) = 5.26300 6.24624 5.77558
#
# Compressibility (1/GPa) = 0.03247563
#
# Stress axis : x y z
#
# Youngs Moduli (GPa) = 5.71840 5.71859 83.34112
#
# Poissons Ratio (x) = 0.88863 0.38522
# Poissons Ratio (y) = 0.88860 0.38487
# Poissons Ratio (z) = 0.02643 0.02641
#
# Static dielectric constant tensor:
#      x y z
#    x 2.468820 0.000000 0.000000 
#    y 0.000000 2.468810 0.000000 
#    z 0.000000 0.000000 3.103020 
# 
# 
# High freq. dielectric constant tensor:
#      x y z
#    x 1.476560 0.000000 0.000000 
#    y 0.000000 1.476560 0.000000 
#    z 0.000000 0.000000 1.546620 
# 
# From -- ./inp_files/2074.got.cif
#   From: 2010.03.12/outbox.cif.g09.slc.cpg/sg121_2_cif.got.tgz:2074.got - 2010.04.06 16:06:48.
