data_PCOD8311624
_publ_section_title
;
Structure prediction by ZEFSAII (Michael W. Deem and Ramdas Pophale) SiO2 
 PCOD8311624
Probable space group: I -4 2 M
;
_chemical_formula_sum "Si O2"
_cell_formula_units_Z 72
_cell_length_a 16.912093
_cell_length_b 16.912093
_cell_length_c 11.638766
_cell_angle_alpha 90.000000
_cell_angle_beta 90.000000
_cell_angle_gamma 90.000000
_cell_volume 3328.906928
_symmetry_space_group_name_H-M "I -4 2 M"
_symmetry_group_IT_number 121
_symmetry_cell_setting 'tetragonal'
loop_
_space_group_symop_operation_xyz
x,y,z
y,-x,-z
-x,-y,z
-y,x,-z
x,-y,-z
-x,y,-z
-y,-x,z
y,x,z
1/2+x,1/2+y,1/2+z
1/2+y,1/2-x,1/2-z
1/2-x,1/2-y,1/2+z
1/2-y,1/2+x,1/2-z
1/2+x,1/2-y,1/2-z
1/2-x,1/2+y,1/2-z
1/2-y,1/2-x,1/2+z
1/2+y,1/2+x,1/2+z
loop_
_atom_site_type_symbol
_atom_site_label
_atom_site_fract_x
_atom_site_fract_y
_atom_site_fract_z
Si Si1 0.374058 0.500000 0.500000
Si Si2 0.706799 0.578259 0.074582
Si Si3 0.459645 0.116622 0.737738
Si Si4 0.445353 0.246819 0.335465
Si Si5 0.832618 0.708198 0.385748
O O1 0.425648 0.574353 0.464124
O O2 0.324243 0.516447 0.613131
O O3 0.623655 0.623655 0.088347
O O4 0.742733 0.559658 0.198487
O O5 0.690889 0.500000 0.000000
O O6 0.771215 0.633616 0.011158
O O7 0.539038 0.086509 0.808634
O O8 0.497501 0.171015 0.637177
O O9 0.404284 0.176637 0.808165
O O10 0.360859 0.232578 0.395100
O O11 0.786648 0.786648 0.336042
#
# Coordination Sequence:
#
# PCOD8311624 Si02
#       5
#     8  16  16  16  16
#     4  11  26  46  66  93 130 174 226 279 334 406
#     4  11  23  41  64  96 131 170 222 279 334 397
#     4   9  19  37  64  97 132 169 215 273 339 397
#     4  11  23  43  68  97 130 177 226 277 339 404
#     4  10  21  39  64  95 131 173 221 273 332 404
#
# _framework density 21.628720000000001
#
# number of rings (size 3 to 8) (size 9 to 14) (size 15 to 20)
#    0.000    1.667    2.222    2.000    0.000    5.556 
#    0.000    0.000    0.000    8.000    0.000    0.000 
#    0.000    0.000    0.000    0.000    0.000    0.000 
#
# Total GULP energy -446006.881891 kJ/mol
# GULP energy per Si atom -12389.080053 kJ/mol
# Density = 2.157949 g / cm^3
# Si number density = 21.628720 Si / 1000 Ang^3
#
#
#
# Elastic Constant Matrix: (Units=GPa)
#
#
# Indices 1 2 3 4 5 6 
#
# 1 150.8270 86.2245 50.9277 0.0000 0.0000 0.0000
# 2 86.2245 150.8261 50.9277 0.0000 0.0000 0.0000
# 3 50.9277 50.9277 84.2419 0.0000 0.0000 0.0000
# 4 0.0000 0.0000 0.0000 23.7051 0.0000 0.0000
# 5 0.0000 0.0000 0.0000 0.0000 23.7039 0.0000
# 6 0.0000 0.0000 0.0000 0.0000 0.0000 55.3633
#
#
#
# Elastic Compliance Matrix: (Units=1/GPa)
#
#
# Indices 1 2 3 4 5 6 
#
# 1 0.010589 -0.004890 -0.003445 0.000000 0.000000 0.000000
# 2 -0.004890 0.010589 -0.003445 0.000000 0.000000 0.000000
# 3 -0.003445 -0.003445 0.016036 0.000000 0.000000 0.000000
# 4 0.000000 0.000000 0.000000 0.042185 0.000000 0.000000
# 5 0.000000 0.000000 0.000000 0.000000 0.042187 0.000000
# 6 0.000000 0.000000 0.000000 0.000000 0.000000 0.018063
#
#
# Mechanical properties :
#
#
# Convention : Reuss Voigt Hill
#
# Bulk Modulus (GPa) = 73.24384 84.67275 78.95829
# Shear Modulus (GPa) = 29.80431 33.74216 31.77323
#
# Velocity S-wave (km/s) = 3.71617 3.95405 3.83695
# Velocity P-wave (km/s) = 7.23539 7.75108 7.49767
#
# Compressibility (1/GPa) = 0.01365303
#
# Stress axis : x y z
#
# Youngs Moduli (GPa) = 94.43720 94.43645 62.35945
#
# Poissons Ratio (x) = 0.46182 0.21484
# Poissons Ratio (y) = 0.46182 0.21484
# Poissons Ratio (z) = 0.32535 0.32535
#
# Static dielectric constant tensor:
#      x y z
#    x 4.335940 0.000000 0.000000 
#    y 0.000000 4.335940 0.000000 
#    z 0.000000 0.000000 3.352850 
# 
# 
# High freq. dielectric constant tensor:
#      x y z
#    x 1.874290 0.000000 0.000000 
#    y 0.000000 1.874290 0.000000 
#    z 0.000000 0.000000 1.802770 
# 
# From -- ./inp_files/3049.got.cif
#   From: 2010.03.12/outbox.cif.g09.slc.cpg/sg121_2_cif.got.tgz:3049.got - 2010.04.06 16:06:48.
