data_PCOD8311519
_publ_section_title
;
Structure prediction by ZEFSAII (Michael W. Deem and Ramdas Pophale) SiO2 
 PCOD8311519
Probable space group: I -4 2 M
;
_chemical_formula_sum "Si O2"
_cell_formula_units_Z 88
_cell_length_a 12.152148
_cell_length_b 12.152148
_cell_length_c 32.525200
_cell_angle_alpha 90.000000
_cell_angle_beta 90.000000
_cell_angle_gamma 90.000000
_cell_volume 4803.149185
_symmetry_space_group_name_H-M "I -4 2 M"
_symmetry_group_IT_number 121
_symmetry_cell_setting 'tetragonal'
loop_
_space_group_symop_operation_xyz
x,y,z
y,-x,-z
-x,-y,z
-y,x,-z
x,-y,-z
-x,y,-z
-y,-x,z
y,x,z
1/2+x,1/2+y,1/2+z
1/2+y,1/2-x,1/2-z
1/2-x,1/2-y,1/2+z
1/2-y,1/2+x,1/2-z
1/2+x,1/2-y,1/2-z
1/2-x,1/2+y,1/2-z
1/2-y,1/2-x,1/2+z
1/2+y,1/2+x,1/2+z
loop_
_atom_site_type_symbol
_atom_site_label
_atom_site_fract_x
_atom_site_fract_y
_atom_site_fract_z
Si Si1 0.209295 0.615648 0.787605
Si Si2 0.310368 0.130510 0.295850
Si Si3 0.102876 0.718974 0.120734
Si Si4 0.374304 0.987073 0.568237
Si Si5 0.312499 0.500000 0.000000
Si Si6 0.688221 0.137619 0.872796
O O1 0.327282 0.672719 0.780762
O O2 0.140250 0.617728 0.745494
O O3 0.231872 0.492430 0.801708
O O4 0.142074 0.676292 0.823589
O O5 0.201303 0.201303 0.291952
O O6 0.383032 0.165563 0.334503
O O7 0.169492 0.830509 0.115368
O O8 0.141359 0.635467 0.085366
O O9 0.975252 0.749780 0.115638
O O10 0.272499 0.009120 0.537832
O O11 0.500000 0.000000 0.549603
O O12 0.359838 0.069658 0.606133
O O13 0.391036 0.608965 0.002116
O O14 0.761745 0.238256 0.889488
#
# Coordination Sequence:
#
# PCOD8311519 Si02
#       6
#    16  16  16  16   8  16
#     4  10  20  33  50  73 102 138 182 228 273 323
#     4  10  20  33  50  73 102 138 182 228 273 323
#     4  10  20  34  53  78 107 141 180 225 273 322
#     4  10  20  37  60  81 109 143 185 226 269 327
#     4  11  23  38  58  86 117 145 176 224 284 343
#     4  10  20  34  53  78 107 141 180 225 273 322
#
# _framework density 18.321314000000001
#
# number of rings (size 3 to 8) (size 9 to 14) (size 15 to 20)
#    0.000    1.909    1.818    2.455    0.000    2.545 
#    0.000    0.000    0.000    6.545    0.000    0.000 
#    0.000   13.091    0.000    0.000    0.000    0.000 
#
# Total GULP energy -545429.020905 kJ/mol
# GULP energy per Si atom -12396.114111 kJ/mol
# Density = 1.827961 g / cm^3
# Si number density = 18.321314 Si / 1000 Ang^3
#
#
#
# Elastic Constant Matrix: (Units=GPa)
#
#
# Indices 1 2 3 4 5 6 
#
# 1 82.5012 22.2678 13.9745 0.0000 0.0000 0.0000
# 2 22.2678 82.4958 13.9735 0.0000 0.0000 0.0000
# 3 13.9745 13.9735 68.6429 0.0000 0.0000 0.0000
# 4 0.0000 0.0000 0.0000 26.5025 0.0000 0.0000
# 5 0.0000 0.0000 0.0000 0.0000 26.5025 0.0000
# 6 0.0000 0.0000 0.0000 0.0000 0.0000 19.0754
#
#
#
# Elastic Compliance Matrix: (Units=1/GPa)
#
#
# Indices 1 2 3 4 5 6 
#
# 1 0.013348 -0.003255 -0.002055 0.000000 0.000000 0.000000
# 2 -0.003255 0.013348 -0.002055 0.000000 0.000000 0.000000
# 3 -0.002055 -0.002055 0.015405 0.000000 0.000000 0.000000
# 4 0.000000 0.000000 0.000000 0.037732 0.000000 0.000000
# 5 0.000000 0.000000 0.000000 0.000000 0.037732 0.000000
# 6 0.000000 0.000000 0.000000 0.000000 0.000000 0.052423
#
#
# Mechanical properties :
#
#
# Convention : Reuss Voigt Hill
#
# Bulk Modulus (GPa) = 36.53342 37.11907 36.82624
# Shear Modulus (GPa) = 25.79428 26.64435 26.21932
#
# Velocity S-wave (km/s) = 3.75625 3.81764 3.78707
# Velocity P-wave (km/s) = 6.22866 6.30369 6.26629
#
# Compressibility (1/GPa) = 0.02737220
#
# Stress axis : x y z
#
# Youngs Moduli (GPa) = 74.91993 74.91518 64.91507
#
# Poissons Ratio (x) = 0.24384 0.13338
# Poissons Ratio (y) = 0.24385 0.13338
# Poissons Ratio (z) = 0.15394 0.15393
#
# Static dielectric constant tensor:
#      x y z
#    x 3.367160 0.000000 0.000000 
#    y 0.000000 3.367160 0.000000 
#    z 0.000000 0.000000 3.340850 
# 
# 
# High freq. dielectric constant tensor:
#      x y z
#    x 1.710990 0.000000 0.000000 
#    y 0.000000 1.710990 0.000000 
#    z 0.000000 0.000000 1.704520 
# 
# From -- ./inp_files/8219.got.cif
#   From: 2010.03.12/outbox.cif.g09.slc.cpg/sg121_5_cif.got.tgz:8219.got - 2010.04.06 16:06:48.
