data_PCOD8311578
_publ_section_title
;
Structure prediction by ZEFSAII (Michael W. Deem and Ramdas Pophale) SiO2 
 PCOD8311578
Probable space group: I -4 2 M
;
_chemical_formula_sum "Si O2"
_cell_formula_units_Z 80
_cell_length_a 14.752190
_cell_length_b 14.752190
_cell_length_c 18.911975
_cell_angle_alpha 90.000000
_cell_angle_beta 90.000000
_cell_angle_gamma 90.000000
_cell_volume 4115.758460
_symmetry_space_group_name_H-M "I -4 2 M"
_symmetry_group_IT_number 121
_symmetry_cell_setting 'tetragonal'
loop_
_space_group_symop_operation_xyz
x,y,z
y,-x,-z
-x,-y,z
-y,x,-z
x,-y,-z
-x,y,-z
-y,-x,z
y,x,z
1/2+x,1/2+y,1/2+z
1/2+y,1/2-x,1/2-z
1/2-x,1/2-y,1/2+z
1/2-y,1/2+x,1/2-z
1/2+x,1/2-y,1/2-z
1/2-x,1/2+y,1/2-z
1/2-y,1/2-x,1/2+z
1/2+y,1/2+x,1/2+z
loop_
_atom_site_type_symbol
_atom_site_label
_atom_site_fract_x
_atom_site_fract_y
_atom_site_fract_z
Si Si1 0.201323 0.946560 0.432620
Si Si2 0.398563 0.749646 0.173797
Si Si3 0.618009 0.232330 0.611364
Si Si4 0.932215 0.783761 0.165263
Si Si5 0.194301 0.654835 0.461525
O O1 0.127425 0.872576 0.406968
O O2 0.294560 0.901598 0.459543
O O3 0.160997 0.000000 0.500000
O O4 0.225731 0.008846 0.366120
O O5 0.329442 0.670559 0.152791
O O6 0.357900 0.848171 0.152968
O O7 0.415532 0.753247 0.257017
O O8 0.702551 0.297450 0.608283
O O9 0.539357 0.289235 0.650657
O O10 0.591171 0.201528 0.531395
O O11 0.880613 0.880613 0.153397
O O12 0.900176 0.706661 0.110720
O O13 0.272260 0.727741 0.466552
#
# Coordination Sequence:
#
# PCOD8311578 Si02
#       5
#    16  16  16  16  16
#     4  11  21  36  61  89 119 157 202 246 295 358
#     4  10  22  38  56  88 125 158 194 242 306 364
#     4  10  20  38  62  84 118 159 196 245 303 360
#     4  10  22  38  60  87 117 154 202 248 293 355
#     4   9  19  37  60  85 115 157 200 240 300 362
#
# _framework density 19.437486
#
# number of rings (size 3 to 8) (size 9 to 14) (size 15 to 20)
#    0.000    2.000    2.000    1.200    2.800    2.600 
#    0.000    3.000    0.000    3.600    0.000    0.000 
#    0.000    0.000    0.000    0.000    0.000    0.000 
#
# Total GULP energy -495784.493578 kJ/mol
# GULP energy per Si atom -12394.612339 kJ/mol
# Density = 1.939325 g / cm^3
# Si number density = 19.437486 Si / 1000 Ang^3
#
#
#
# Elastic Constant Matrix: (Units=GPa)
#
#
# Indices 1 2 3 4 5 6 
#
# 1 59.7555 30.0705 41.0841 0.0000 0.0000 0.0000
# 2 30.0705 59.7467 41.0824 0.0000 0.0000 0.0000
# 3 41.0841 41.0824 139.5530 0.0000 0.0000 0.0000
# 4 0.0000 0.0000 0.0000 31.1453 0.0000 0.0000
# 5 0.0000 0.0000 0.0000 0.0000 31.1457 0.0000
# 6 0.0000 0.0000 0.0000 0.0000 0.0000 27.8284
#
#
#
# Elastic Compliance Matrix: (Units=1/GPa)
#
#
# Indices 1 2 3 4 5 6 
#
# 1 0.024462 -0.009228 -0.004485 0.000000 0.000000 0.000000
# 2 -0.009228 0.024466 -0.004486 0.000000 0.000000 0.000000
# 3 -0.004485 -0.004486 0.009807 0.000000 0.000000 0.000000
# 4 0.000000 0.000000 0.000000 0.032108 0.000000 0.000000
# 5 0.000000 0.000000 0.000000 0.000000 0.032107 0.000000
# 6 0.000000 0.000000 0.000000 0.000000 0.000000 0.035935
#
#
# Mechanical properties :
#
#
# Convention : Reuss Voigt Hill
#
# Bulk Modulus (GPa) = 44.76761 53.72549 49.24655
# Shear Modulus (GPa) = 24.66360 27.81174 26.23767
#
# Velocity S-wave (km/s) = 3.56598 3.78674 3.67801
# Velocity P-wave (km/s) = 6.32744 6.84246 6.58999
#
# Compressibility (1/GPa) = 0.02233758
#
# Stress axis : x y z
#
# Youngs Moduli (GPa) = 40.87930 40.87267 101.97102
#
# Poissons Ratio (x) = 0.37717 0.45735
# Poissons Ratio (y) = 0.37723 0.45743
# Poissons Ratio (z) = 0.18335 0.18335
#
# Static dielectric constant tensor:
#      x y z
#    x 3.572570 0.000000 0.000000 
#    y 0.000000 3.572570 0.000000 
#    z 0.000000 0.000000 3.754060 
# 
# 
# High freq. dielectric constant tensor:
#      x y z
#    x 1.743050 0.000000 0.000000 
#    y 0.000000 1.743050 0.000000 
#    z 0.000000 0.000000 1.772270 
# 
# From -- ./inp_files/6195.got.cif
#   From: 2010.03.12/outbox.cif.g09.slc.cpg/sg121_4_cif.got.tgz:6195.got - 2010.04.06 16:06:48.
