data_PCOD8311343
_publ_section_title
;
Structure prediction by ZEFSAII (Michael W. Deem and Ramdas Pophale) SiO2 
 PCOD8311343
Probable space group: I -4 2 M
;
_chemical_formula_sum "Si O2"
_cell_formula_units_Z 96
_cell_length_a 16.641839
_cell_length_b 16.641839
_cell_length_c 22.812264
_cell_angle_alpha 90.000000
_cell_angle_beta 90.000000
_cell_angle_gamma 90.000000
_cell_volume 6317.874886
_symmetry_space_group_name_H-M "I -4 2 M"
_symmetry_group_IT_number 121
_symmetry_cell_setting 'tetragonal'
loop_
_space_group_symop_operation_xyz
x,y,z
y,-x,-z
-x,-y,z
-y,x,-z
x,-y,-z
-x,y,-z
-y,-x,z
y,x,z
1/2+x,1/2+y,1/2+z
1/2+y,1/2-x,1/2-z
1/2-x,1/2-y,1/2+z
1/2-y,1/2+x,1/2-z
1/2+x,1/2-y,1/2-z
1/2-x,1/2+y,1/2-z
1/2-y,1/2-x,1/2+z
1/2+y,1/2+x,1/2+z
loop_
_atom_site_type_symbol
_atom_site_label
_atom_site_fract_x
_atom_site_fract_y
_atom_site_fract_z
Si Si1 0.058883 0.382587 0.950949
Si Si2 0.154515 0.422876 0.632598
Si Si3 0.698496 0.567481 0.047341
Si Si4 0.493454 0.830066 0.121677
Si Si5 0.875248 0.456632 0.244695
Si Si6 0.673585 0.201611 0.470936
O O1 0.129958 0.440885 0.929700
O O2 0.011088 0.345623 0.896357
O O3 0.100899 0.308369 0.984158
O O4 0.000000 0.423957 0.000000
O O5 0.181215 0.427597 0.700737
O O6 0.207537 0.359745 0.595855
O O7 0.062926 0.394296 0.631304
O O8 0.618448 0.618448 0.065807
O O9 0.740800 0.523181 0.102937
O O10 0.764307 0.628113 0.021113
O O11 0.673697 0.500000 0.000000
O O12 0.448752 0.823625 0.184687
O O13 0.900327 0.547191 0.260763
O O14 0.714633 0.285368 0.485933
#
# Coordination Sequence:
#
# PCOD8311343 Si02
#       6
#    16  16  16  16  16  16
#     4  10  17  25  43  67  88 109 145 178 221 272
#     4   9  17  25  41  66  90 113 144 174 212 274
#     4  10  19  30  43  59  80 116 155 190 225 253
#     4  10  17  26  41  64  92 114 139 185 224 260
#     4   9  15  24  38  63  93 115 138 172 217 263
#     4   9  18  29  42  60  89 119 142 178 226 265
#
# _framework density 15.194983000000001
#
# number of rings (size 3 to 8) (size 9 to 14) (size 15 to 20)
#    0.000    2.500    3.333    0.500    0.000    3.500 
#    0.000    0.000    0.000    3.000    0.000    0.000 
#    0.000   27.000    0.000    0.000    0.000    0.000 
#
# Total GULP energy -594694.177207 kJ/mol
# GULP energy per Si atom -12389.462025 kJ/mol
# Density = 1.516040 g / cm^3
# Si number density = 15.194983 Si / 1000 Ang^3
#
#
#
# Elastic Constant Matrix: (Units=GPa)
#
#
# Indices 1 2 3 4 5 6 
#
# 1 54.2668 33.5958 39.7761 0.0000 0.0000 0.0000
# 2 33.5958 54.2666 39.7761 0.0000 0.0000 0.0000
# 3 39.7761 39.7761 122.0840 0.0000 0.0000 0.0000
# 4 0.0000 0.0000 0.0000 13.2071 0.0000 0.0000
# 5 0.0000 0.0000 0.0000 0.0000 13.2075 0.0000
# 6 0.0000 0.0000 0.0000 0.0000 0.0000 19.7655
#
#
#
# Elastic Compliance Matrix: (Units=1/GPa)
#
#
# Indices 1 2 3 4 5 6 
#
# 1 0.032260 -0.016117 -0.005260 0.000000 0.000000 0.000000
# 2 -0.016117 0.032261 -0.005260 0.000000 0.000000 0.000000
# 3 -0.005260 -0.005260 0.011618 0.000000 0.000000 0.000000
# 4 0.000000 0.000000 0.000000 0.075717 0.000000 0.000000
# 5 0.000000 0.000000 0.000000 0.000000 0.075715 0.000000
# 6 0.000000 0.000000 0.000000 0.000000 0.000000 0.050593
#
#
# Mechanical properties :
#
#
# Convention : Reuss Voigt Hill
#
# Bulk Modulus (GPa) = 43.73157 50.76816 47.24987
# Shear Modulus (GPa) = 14.74669 17.06731 15.90700
#
# Velocity S-wave (km/s) = 3.11866 3.35508 3.23903
# Velocity P-wave (km/s) = 6.46613 6.96365 6.71950
#
# Compressibility (1/GPa) = 0.02286678
#
# Stress axis : x y z
#
# Youngs Moduli (GPa) = 30.99775 30.99759 86.07005
#
# Poissons Ratio (x) = 0.49958 0.45271
# Poissons Ratio (y) = 0.49958 0.45271
# Poissons Ratio (z) = 0.16304 0.16304
#
# Static dielectric constant tensor:
#      x y z
#    x 2.699050 0.000000 0.000000 
#    y 0.000000 2.699050 0.000000 
#    z 0.000000 0.000000 3.242910 
# 
# 
# High freq. dielectric constant tensor:
#      x y z
#    x 1.545410 0.000000 0.000000 
#    y 0.000000 1.545410 0.000000 
#    z 0.000000 0.000000 1.589790 
# 
# From -- ./inp_files/6547.got.cif
#   From: 2010.03.12/outbox.cif.g09.slc.cpg/sg121_4_cif.got.tgz:6547.got - 2010.04.06 16:06:48.
