data_PCOD8311102
_publ_section_title
;
Structure prediction by ZEFSAII (Michael W. Deem and Ramdas Pophale) SiO2 
 PCOD8311102
Probable space group: I -4 M 2
;
_chemical_formula_sum "Si O2"
_cell_formula_units_Z 48
_cell_length_a 9.328834
_cell_length_b 9.328834
_cell_length_c 30.992497
_cell_angle_alpha 90.000000
_cell_angle_beta 90.000000
_cell_angle_gamma 90.000000
_cell_volume 2697.188493
_symmetry_space_group_name_H-M "I -4 M 2"
_symmetry_group_IT_number 119
_symmetry_cell_setting 'tetragonal'
loop_
_space_group_symop_operation_xyz
x,y,z
y,-x,-z
-x,-y,z
-y,x,-z
y,x,-z
-y,-x,-z
-x,y,z
x,-y,z
1/2+x,1/2+y,1/2+z
1/2+y,1/2-x,1/2-z
1/2-x,1/2-y,1/2+z
1/2-y,1/2+x,1/2-z
1/2+y,1/2+x,1/2-z
1/2-y,1/2-x,1/2-z
1/2-x,1/2+y,1/2+z
1/2+x,1/2-y,1/2+z
loop_
_atom_site_type_symbol
_atom_site_label
_atom_site_fract_x
_atom_site_fract_y
_atom_site_fract_z
Si Si1 0.667111 0.667111 0.000000
Si Si2 0.834348 0.832233 0.665740
Si Si3 0.329552 0.838057 0.916730
Si Si4 0.333991 0.833991 0.250000
O O1 0.754547 0.725265 0.041073
O O2 0.695694 0.500000 0.991077
O O3 0.742320 0.771944 0.625777
O O4 0.779648 0.753360 0.708611
O O5 0.000000 0.796922 0.656167
O O6 0.809703 0.000000 0.672672
O O7 0.500000 0.835830 0.916281
O O8 0.269924 0.000000 0.917337
O O9 0.500000 0.803526 0.259173
#
# Coordination Sequence:
#
# PCOD8311102 Si02
#       4
#     8  16  16   8
#     4   9  16  28  48  69  88 116 154 189 220 260
#     4   9  17  30  48  68  90 118 152 187 222 263
#     4   9  17  29  46  69  94 118 148 187 226 264
#     4   9  18  32  48  67  92 120 150 185 224 266
#
# _framework density 17.796309000000001
#
# number of rings (size 3 to 8) (size 9 to 14) (size 15 to 20)
#    0.000    3.000    0.000    1.000    0.000    5.333 
#    0.000    1.667    0.000   10.500    0.000    0.000 
#    0.000    0.000    0.000    0.000    0.000    0.000 
#
# Total GULP energy -297612.363427 kJ/mol
# GULP energy per Si atom -12400.515143 kJ/mol
# Density = 1.775580 g / cm^3
# Si number density = 17.796309 Si / 1000 Ang^3
#
#
#
# Elastic Constant Matrix: (Units=GPa)
#
#
# Indices 1 2 3 4 5 6 
#
# 1 65.0498 32.2118 73.3538 0.0000 0.0000 0.0000
# 2 32.2118 65.0498 73.3538 0.0000 0.0000 0.0000
# 3 73.3538 73.3538 207.7942 0.0000 0.0000 0.0000
# 4 0.0000 0.0000 0.0000 31.8291 0.0000 0.0000
# 5 0.0000 0.0000 0.0000 0.0000 31.8291 0.0000
# 6 0.0000 0.0000 0.0000 0.0000 0.0000 13.0834
#
#
#
# Elastic Compliance Matrix: (Units=1/GPa)
#
#
# Indices 1 2 3 4 5 6 
#
# 1 0.026222 -0.004231 -0.007763 0.000000 0.000000 0.000000
# 2 -0.004231 0.026222 -0.007763 0.000000 0.000000 0.000000
# 3 -0.007763 -0.007763 0.010293 0.000000 0.000000 0.000000
# 4 0.000000 0.000000 0.000000 0.031418 0.000000 0.000000
# 5 0.000000 0.000000 0.000000 0.000000 0.031418 0.000000
# 6 0.000000 0.000000 0.000000 0.000000 0.000000 0.076433
#
#
# Mechanical properties :
#
#
# Convention : Reuss Voigt Hill
#
# Bulk Modulus (GPa) = 43.05990 77.30364 60.18177
# Shear Modulus (GPa) = 20.05930 25.94660 23.00295
#
# Velocity S-wave (km/s) = 3.36096 3.82249 3.59913
# Velocity P-wave (km/s) = 6.26976 7.93815 7.15277
#
# Compressibility (1/GPa) = 0.02322346
#
# Stress axis : x y z
#
# Youngs Moduli (GPa) = 38.13589 38.13589 97.14872
#
# Poissons Ratio (x) = 0.16133 0.75419
# Poissons Ratio (y) = 0.16133 0.75419
# Poissons Ratio (z) = 0.29606 0.29606
#
# Static dielectric constant tensor:
#      x y z
#    x 3.139710 0.000000 0.000000 
#    y 0.000000 3.139710 0.000000 
#    z 0.000000 0.000000 3.518380 
# 
# 
# High freq. dielectric constant tensor:
#      x y z
#    x 1.665140 0.000000 0.000000 
#    y 0.000000 1.665140 0.000000 
#    z 0.000000 0.000000 1.702940 
# 
# From -- ./inp_files/9858.got.cif
#   From: 2010.03.12/outbox.cif.g09.slc.cpg/sg119_5_cif.got.tgz:9858.got - 2010.04.14 02:25:26.
