data_PCOD8311774
_publ_section_title
;
Structure prediction by ZEFSAII (Michael W. Deem and Ramdas Pophale) SiO2 
 PCOD8311774
Probable space group: I -4 2 D
;
_chemical_formula_sum "Si O2"
_cell_formula_units_Z 48
_cell_length_a 19.472396
_cell_length_b 19.472396
_cell_length_c 5.214846
_cell_angle_alpha 90.000000
_cell_angle_beta 90.000000
_cell_angle_gamma 90.000000
_cell_volume 1977.335091
_symmetry_space_group_name_H-M "I -4 2 D"
_symmetry_group_IT_number 122
_symmetry_cell_setting 'tetragonal'
loop_
_space_group_symop_operation_xyz
x,y,z
y,-x,-z
-x,-y,z
-y,x,-z
x,1/2-y,1/4-z
-x,1/2+y,1/4-z
-y,1/2-x,1/4+z
y,1/2+x,1/4+z
1/2+x,1/2+y,1/2+z
1/2+y,1/2-x,1/2-z
1/2-x,1/2-y,1/2+z
1/2-y,1/2+x,1/2-z
1/2+x,-y,3/4-z
1/2-x,y,3/4-z
1/2-y,-x,3/4+z
1/2+y,x,3/4+z
loop_
_atom_site_type_symbol
_atom_site_label
_atom_site_fract_x
_atom_site_fract_y
_atom_site_fract_z
Si Si1 0.182671 0.047387 0.532702
Si Si2 0.316802 0.822944 0.545824
Si Si3 0.896680 0.659349 0.952509
O O1 0.250000 0.030772 0.375000
O O2 0.193686 0.102087 0.760487
O O3 0.127382 0.080336 0.333225
O O4 0.157513 0.977288 0.658631
O O5 0.281684 0.750000 0.625000
O O6 0.293346 0.852890 0.257510
O O7 0.310321 0.880912 0.766403
#
# Coordination Sequence:
#
# PCOD8311774 Si02
#       3
#    16  16  16
#     4  10  22  39  62  87 125 164 209 253 315 380
#     4  10  19  38  59  83 120 164 201 247 306 367
#     4  10  22  34  60  91 118 161 207 253 310 380
#
# _framework density 24.275095
#
# number of rings (size 3 to 8) (size 9 to 14) (size 15 to 20)
#    2.000    0.000    3.333    1.000    4.667    0.667 
#    0.000    0.000    0.000    6.000    0.000    0.000 
#    0.000    0.000    0.000    0.000    0.000    0.000 
#
# Total GULP energy -297429.090454 kJ/mol
# GULP energy per Si atom -12392.878769 kJ/mol
# Density = 2.421984 g / cm^3
# Si number density = 24.275095 Si / 1000 Ang^3
#
#
#
# Elastic Constant Matrix: (Units=GPa)
#
#
# Indices 1 2 3 4 5 6 
#
# 1 127.8425 24.1738 62.3763 0.0000 0.0000 0.0000
# 2 24.1738 127.8425 62.3763 0.0000 0.0000 0.0000
# 3 62.3763 62.3763 183.4138 0.0000 0.0000 0.0000
# 4 0.0000 0.0000 0.0000 40.6337 0.0000 0.0000
# 5 0.0000 0.0000 0.0000 0.0000 40.6337 0.0000
# 6 0.0000 0.0000 0.0000 0.0000 0.0000 10.1401
#
#
#
# Elastic Compliance Matrix: (Units=1/GPa)
#
#
# Indices 1 2 3 4 5 6 
#
# 1 0.009386 -0.000261 -0.003103 0.000000 0.000000 0.000000
# 2 -0.000261 0.009386 -0.003103 0.000000 0.000000 0.000000
# 3 -0.003103 -0.003103 0.007563 0.000000 0.000000 0.000000
# 4 0.000000 0.000000 0.000000 0.024610 0.000000 0.000000
# 5 0.000000 0.000000 0.000000 0.000000 0.024610 0.000000
# 6 0.000000 0.000000 0.000000 0.000000 0.000000 0.098618
#
#
# Mechanical properties :
#
#
# Convention : Reuss Voigt Hill
#
# Bulk Modulus (GPa) = 74.62826 81.88351 78.25588
# Shear Modulus (GPa) = 26.09965 37.62631 31.86298
#
# Velocity S-wave (km/s) = 3.28252 3.94127 3.62688
# Velocity P-wave (km/s) = 6.72132 7.38351 7.06018
#
# Compressibility (1/GPa) = 0.01339975
#
# Stress axis : x y z
#
# Youngs Moduli (GPa) = 106.54701 106.54701 132.22451
#
# Poissons Ratio (x) = 0.02777 0.41033
# Poissons Ratio (y) = 0.02777 0.41033
# Poissons Ratio (z) = 0.33064 0.33064
#
# Static dielectric constant tensor:
#      x y z
#    x 4.353800 0.000000 0.000000 
#    y 0.000000 4.353800 0.000000 
#    z 0.000000 0.000000 4.409700 
# 
# 
# High freq. dielectric constant tensor:
#      x y z
#    x 1.969020 0.000000 0.000000 
#    y 0.000000 1.969020 0.000000 
#    z 0.000000 0.000000 1.978820 
# 
# From -- ./inp_files/2021.got.cif
#   From: 2010.03.12/outbox.cif.g09.slc.cpg/sg122_2_cif.got.tgz:2021.got - 2010.04.06 16:17:16.
