data_PCOD8311246
_publ_section_title
;
Structure prediction by ZEFSAII (Michael W. Deem and Ramdas Pophale) SiO2 
 PCOD8311246
Probable space group: I -4 C 2
;
_chemical_formula_sum "Si O2"
_cell_formula_units_Z 96
_cell_length_a 19.049038
_cell_length_b 19.049038
_cell_length_c 12.849320
_cell_angle_alpha 90.000000
_cell_angle_beta 90.000000
_cell_angle_gamma 90.000000
_cell_volume 4662.579407
_symmetry_space_group_name_H-M "I -4 C 2"
_symmetry_group_IT_number 120
_symmetry_cell_setting 'tetragonal'
loop_
_space_group_symop_operation_xyz
x,y,z
y,-x,-z
-x,-y,z
-y,x,-z
y,x,1/2-z
-y,-x,1/2-z
-x,y,1/2+z
x,-y,1/2+z
1/2+x,1/2+y,1/2+z
1/2+y,1/2-x,1/2-z
1/2-x,1/2-y,1/2+z
1/2-y,1/2+x,1/2-z
1/2+y,1/2+x,-z
1/2-y,1/2-x,-z
1/2-x,1/2+y,z
1/2+x,1/2-y,z
loop_
_atom_site_type_symbol
_atom_site_label
_atom_site_fract_x
_atom_site_fract_y
_atom_site_fract_z
Si Si1 0.515435 0.891166 0.725148
Si Si2 0.513279 0.240304 0.358295
Si Si3 0.392613 0.463745 0.624334
Si Si4 0.532812 0.396795 0.623001
Si Si5 0.070930 0.674312 0.057696
Si Si6 0.224084 0.889030 0.271493
O O1 0.576662 0.948334 0.713170
O O2 0.543517 0.822699 0.787158
O O3 0.491088 0.870456 0.610233
O O4 0.552881 0.314299 0.333931
O O5 0.529102 0.224861 0.478810
O O6 0.428851 0.249318 0.334013
O O7 0.393713 0.464260 0.500248
O O8 0.415032 0.541598 0.663367
O O9 0.408896 0.452256 0.837248
O O10 0.555489 0.324474 0.670752
O O11 0.118936 0.712882 0.145452
O O12 0.123110 0.623110 0.000000
O O13 0.185828 0.814172 0.250000
#
# Coordination Sequence:
#
# PCOD8311246 Si02
#       6
#    16  16  16  16  16  16
#     4  10  22  41  67  99 122 153 215 276 332 396
#     4  11  21  36  61  92 122 169 209 256 331 393
#     4   9  17  31  56  86 125 162 205 255 319 371
#     4   9  17  32  54  89 123 161 208 262 304 365
#     4  11  23  43  68  89 132 169 207 271 339 392
#     4  11  22  37  66  91 127 174 217 260 319 389
#
# _framework density 20.589461
#
# number of rings (size 3 to 8) (size 9 to 14) (size 15 to 20)
#    0.000    1.833    5.000    1.000    0.000    1.333 
#    0.000    0.000   11.000    0.000    0.000    0.000 
#    0.000    0.000    0.000    0.000    0.000    0.000 
#
# Total GULP energy -594847.619520 kJ/mol
# GULP energy per Si atom -12392.658740 kJ/mol
# Density = 2.054260 g / cm^3
# Si number density = 20.589461 Si / 1000 Ang^3
#
#
#
# Elastic Constant Matrix: (Units=GPa)
#
#
# Indices 1 2 3 4 5 6 
#
# 1 90.3793 23.7637 28.5249 0.0000 0.0000 0.0000
# 2 23.7637 90.3798 28.5251 0.0000 0.0000 0.0000
# 3 28.5249 28.5251 65.0642 0.0000 0.0000 0.0000
# 4 0.0000 0.0000 0.0000 29.0367 0.0000 0.0000
# 5 0.0000 0.0000 0.0000 0.0000 29.0363 0.0000
# 6 0.0000 0.0000 0.0000 0.0000 0.0000 29.3141
#
#
#
# Elastic Compliance Matrix: (Units=1/GPa)
#
#
# Indices 1 2 3 4 5 6 
#
# 1 0.013115 -0.001896 -0.004919 0.000000 0.000000 0.000000
# 2 -0.001896 0.013115 -0.004919 0.000000 0.000000 0.000000
# 3 -0.004919 -0.004919 0.019682 0.000000 0.000000 0.000000
# 4 0.000000 0.000000 0.000000 0.034439 0.000000 0.000000
# 5 0.000000 0.000000 0.000000 0.000000 0.034440 0.000000
# 6 0.000000 0.000000 0.000000 0.000000 0.000000 0.034113
#
#
# Mechanical properties :
#
#
# Convention : Reuss Voigt Hill
#
# Bulk Modulus (GPa) = 44.55108 45.27229 44.91168
# Shear Modulus (GPa) = 27.80030 28.47805 28.13918
#
# Velocity S-wave (km/s) = 3.67852 3.72309 3.70087
# Velocity P-wave (km/s) = 6.30292 6.36535 6.33421
#
# Compressibility (1/GPa) = 0.02244615
#
# Stress axis : x y z
#
# Youngs Moduli (GPa) = 76.24614 76.24639 50.80713
#
# Poissons Ratio (x) = 0.14457 0.24990
# Poissons Ratio (y) = 0.14457 0.24991
# Poissons Ratio (z) = 0.37503 0.37503
#
# Static dielectric constant tensor:
#      x y z
#    x 3.720900 0.000000 0.000000 
#    y 0.000000 3.720900 0.000000 
#    z 0.000000 0.000000 4.104820 
# 
# 
# High freq. dielectric constant tensor:
#      x y z
#    x 1.789250 0.000000 0.000000 
#    y 0.000000 1.789250 0.000000 
#    z 0.000000 0.000000 1.826120 
# 
# From -- ./inp_files/2760.got.cif
#   From: 2010.03.12/outbox.cif.g09.slc.cpg/sg120_2_cif.got.tgz:2760.got - 2010.04.06 16:00:44.
