data_PCOD8311847
_publ_section_title
;
Structure prediction by ZEFSAII (Michael W. Deem and Ramdas Pophale) SiO2 
 PCOD8311847
Probable space group: I -4 2 D
;
_chemical_formula_sum "Si O2"
_cell_formula_units_Z 52
_cell_length_a 16.557704
_cell_length_b 16.557704
_cell_length_c 8.518175
_cell_angle_alpha 90.000000
_cell_angle_beta 90.000000
_cell_angle_gamma 90.000000
_cell_volume 2335.322089
_symmetry_space_group_name_H-M "I -4 2 D"
_symmetry_group_IT_number 122
_symmetry_cell_setting 'tetragonal'
loop_
_space_group_symop_operation_xyz
x,y,z
y,-x,-z
-x,-y,z
-y,x,-z
x,1/2-y,1/4-z
-x,1/2+y,1/4-z
-y,1/2-x,1/4+z
y,1/2+x,1/4+z
1/2+x,1/2+y,1/2+z
1/2+y,1/2-x,1/2-z
1/2-x,1/2-y,1/2+z
1/2-y,1/2+x,1/2-z
1/2+x,-y,3/4-z
1/2-x,y,3/4-z
1/2-y,-x,3/4+z
1/2+y,x,3/4+z
loop_
_atom_site_type_symbol
_atom_site_label
_atom_site_fract_x
_atom_site_fract_y
_atom_site_fract_z
Si Si1 0.500000 0.000000 0.250000
Si Si2 0.406625 0.425099 0.257102
Si Si3 0.667364 0.243363 0.445514
Si Si4 0.075864 0.341401 0.174255
O O1 0.427907 0.968720 0.362445
O O2 0.321107 0.403777 0.175368
O O3 0.400639 0.514679 0.334001
O O4 0.433604 0.359282 0.388304
O O5 0.689317 0.250000 0.625000
O O6 0.750000 0.209960 0.375000
O O7 0.640255 0.330913 0.376132
O O8 0.053252 0.250000 0.125000
#
# Coordination Sequence:
#
# PCOD8311847 Si02
#       4
#     4  16  16  16
#     4  12  28  38  56  92 136 178 204 260 344 398
#     4  11  23  41  60  90 128 165 212 263 322 392
#     4   9  20  38  63  90 117 156 207 260 316 380
#     4  10  20  40  68  90 116 164 218 268 320 383
#
# _framework density 22.266738
#
# number of rings (size 3 to 8) (size 9 to 14) (size 15 to 20)
#    0.000    1.846    0.000    4.615    0.000    7.385 
#    0.000    3.077    0.000    0.000    0.000    0.000 
#    0.000    0.000    0.000    0.000    0.000    0.000 
#
# Total GULP energy -322182.191160 kJ/mol
# GULP energy per Si atom -12391.622737 kJ/mol
# Density = 2.221606 g / cm^3
# Si number density = 22.266738 Si / 1000 Ang^3
#
#
#
# Elastic Constant Matrix: (Units=GPa)
#
#
# Indices 1 2 3 4 5 6 
#
# 1 75.6615 46.4298 56.0213 0.0000 0.0000 0.0000
# 2 46.4298 75.6615 56.0213 0.0000 0.0000 0.0000
# 3 56.0213 56.0213 91.6356 0.0000 0.0000 0.0000
# 4 0.0000 0.0000 0.0000 21.7574 0.0000 0.0000
# 5 0.0000 0.0000 0.0000 0.0000 21.7574 0.0000
# 6 0.0000 0.0000 0.0000 0.0000 0.0000 25.8682
#
#
#
# Elastic Compliance Matrix: (Units=1/GPa)
#
#
# Indices 1 2 3 4 5 6 
#
# 1 0.026434 -0.007775 -0.011407 0.000000 0.000000 0.000000
# 2 -0.007775 0.026434 -0.011407 0.000000 0.000000 0.000000
# 3 -0.011407 -0.011407 0.024860 0.000000 0.000000 0.000000
# 4 0.000000 0.000000 0.000000 0.045961 0.000000 0.000000
# 5 0.000000 0.000000 0.000000 0.000000 0.045961 0.000000
# 6 0.000000 0.000000 0.000000 0.000000 0.000000 0.038658
#
#
# Mechanical properties :
#
#
# Convention : Reuss Voigt Hill
#
# Bulk Modulus (GPa) = 60.42448 62.21149 61.31799
# Shear Modulus (GPa) = 18.18159 19.50903 18.84531
#
# Velocity S-wave (km/s) = 2.86061 2.96320 2.91235
# Velocity P-wave (km/s) = 6.17303 6.30137 6.23753
#
# Compressibility (1/GPa) = 0.01654958
#
# Stress axis : x y z
#
# Youngs Moduli (GPa) = 37.82997 37.82997 40.22514
#
# Poissons Ratio (x) = 0.29414 0.45885
# Poissons Ratio (y) = 0.29414 0.45885
# Poissons Ratio (z) = 0.43153 0.43153
#
# Static dielectric constant tensor:
#      x y z
#    x 4.338410 0.000000 0.000000 
#    y 0.000000 4.338410 0.000000 
#    z 0.000000 0.000000 3.981480 
# 
# 
# High freq. dielectric constant tensor:
#      x y z
#    x 1.875980 0.000000 0.000000 
#    y 0.000000 1.875980 0.000000 
#    z 0.000000 0.000000 1.861130 
# 
# From -- ./inp_files/2173.got.cif
#   From: 2010.03.12/outbox.cif.g09.slc.cpg/sg122_2_cif.got.tgz:2173.got - 2010.04.06 16:17:16.
