data_PCOD8311042
_publ_section_title
;
Structure prediction by ZEFSAII (Michael W. Deem and Ramdas Pophale) SiO2 
 PCOD8311042
Probable space group: I -4 M 2
;
_chemical_formula_sum "Si O2"
_cell_formula_units_Z 60
_cell_length_a 11.802405
_cell_length_b 11.802405
_cell_length_c 23.791214
_cell_angle_alpha 90.000000
_cell_angle_beta 90.000000
_cell_angle_gamma 90.000000
_cell_volume 3314.039117
_symmetry_space_group_name_H-M "I -4 M 2"
_symmetry_group_IT_number 119
_symmetry_cell_setting 'tetragonal'
loop_
_space_group_symop_operation_xyz
x,y,z
y,-x,-z
-x,-y,z
-y,x,-z
y,x,-z
-y,-x,-z
-x,y,z
x,-y,z
1/2+x,1/2+y,1/2+z
1/2+y,1/2-x,1/2-z
1/2-x,1/2-y,1/2+z
1/2-y,1/2+x,1/2-z
1/2+y,1/2+x,1/2-z
1/2-y,1/2-x,1/2-z
1/2-x,1/2+y,1/2+z
1/2+x,1/2-y,1/2+z
loop_
_atom_site_type_symbol
_atom_site_label
_atom_site_fract_x
_atom_site_fract_y
_atom_site_fract_z
Si Si1 0.747622 0.000000 0.882807
Si Si2 0.000000 0.245074 0.360153
Si Si3 0.129165 0.802427 0.939980
Si Si4 0.685317 0.000000 0.755273
Si Si5 0.000000 0.500000 0.111398
Si Si6 0.182417 0.128944 0.437574
O O1 0.816242 0.887244 0.895804
O O2 0.738806 0.000000 0.816391
O O3 0.625199 0.000000 0.918120
O O4 0.000000 0.215065 0.293573
O O5 0.890943 0.200441 0.393278
O O6 0.000000 0.382925 0.353910
O O7 0.192365 0.681601 0.939514
O O8 0.000000 0.778415 0.923882
O O9 0.137497 0.862504 0.000000
O O10 0.613481 0.886520 0.750000
O O11 0.129836 0.129836 0.500000
O O12 0.188961 0.000000 0.416359
#
# Coordination Sequence:
#
# PCOD8311042 Si02
#       6
#     8   8  16   8   4  16
#     4  12  21  37  61  90 123 157 199 246 314 359
#     4  12  21  37  61  90 123 157 199 246 314 359
#     4  11  23  39  57  83 118 160 204 249 298 354
#     4  11  18  34  59  92 126 156 193 253 312 364
#     4  12  20  37  60  96 124 156 204 253 292 390
#     4  11  23  39  57  83 118 160 204 249 298 354
#
# _framework density 18.104794999999999
#
# number of rings (size 3 to 8) (size 9 to 14) (size 15 to 20)
#    0.000    0.667    8.000    0.800    0.000    0.533 
#    0.000    2.667    0.000    0.000    0.000    0.000 
#    0.000    6.400    0.000    0.000    0.000    0.000 
#
# Total GULP energy -371762.656498 kJ/mol
# GULP energy per Si atom -12392.088550 kJ/mol
# Density = 1.806359 g / cm^3
# Si number density = 18.104795 Si / 1000 Ang^3
#
#
#
# Elastic Constant Matrix: (Units=GPa)
#
#
# Indices 1 2 3 4 5 6 
#
# 1 129.7136 44.7995 39.8649 0.0000 0.0000 0.0000
# 2 44.7995 129.7134 39.8648 0.0000 0.0000 0.0000
# 3 39.8649 39.8648 134.8192 0.0000 0.0000 0.0000
# 4 0.0000 0.0000 0.0000 24.3931 0.0000 0.0000
# 5 0.0000 0.0000 0.0000 0.0000 24.3928 0.0000
# 6 0.0000 0.0000 0.0000 0.0000 0.0000 24.5876
#
#
#
# Elastic Compliance Matrix: (Units=1/GPa)
#
#
# Indices 1 2 3 4 5 6 
#
# 1 0.009201 -0.002576 -0.001959 0.000000 0.000000 0.000000
# 2 -0.002576 0.009201 -0.001959 0.000000 0.000000 0.000000
# 3 -0.001959 -0.001959 0.008576 0.000000 0.000000 0.000000
# 4 0.000000 0.000000 0.000000 0.040995 0.000000 0.000000
# 5 0.000000 0.000000 0.000000 0.000000 0.040996 0.000000
# 6 0.000000 0.000000 0.000000 0.000000 0.000000 0.040671
#
#
# Mechanical properties :
#
#
# Convention : Reuss Voigt Hill
#
# Bulk Modulus (GPa) = 71.47827 71.47829 71.47828
# Shear Modulus (GPa) = 29.88812 32.65582 31.27197
#
# Velocity S-wave (km/s) = 4.06746 4.25162 4.16056
# Velocity P-wave (km/s) = 7.85016 7.97920 7.91494
#
# Compressibility (1/GPa) = 0.01399027
#
# Stress axis : x y z
#
# Youngs Moduli (GPa) = 108.68462 108.68449 116.60617
#
# Poissons Ratio (x) = 0.27994 0.22844
# Poissons Ratio (y) = 0.27994 0.22843
# Poissons Ratio (z) = 0.21292 0.21292
#
# Static dielectric constant tensor:
#      x y z
#    x 3.525650 0.000000 0.000000 
#    y 0.000000 3.525750 0.000000 
#    z 0.000000 0.000000 3.321560 
# 
# 
# High freq. dielectric constant tensor:
#      x y z
#    x 1.701040 0.000000 0.000000 
#    y 0.000000 1.701040 0.000000 
#    z 0.000000 0.000000 1.684000 
# 
# From -- ./inp_files/7432.got.cif
#   From: 2010.03.12/outbox.cif.g09.slc.cpg/sg119_4_cif.got.tgz:7432.got - 2010.04.14 02:25:26.
