data_PCOD8311252
_publ_section_title
;
Structure prediction by ZEFSAII (Michael W. Deem and Ramdas Pophale) SiO2 
 PCOD8311252
Probable space group: I -4 C 2
;
_chemical_formula_sum "Si O2"
_cell_formula_units_Z 128
_cell_length_a 16.782001
_cell_length_b 16.782001
_cell_length_c 23.581642
_cell_angle_alpha 90.000000
_cell_angle_beta 90.000000
_cell_angle_gamma 90.000000
_cell_volume 6641.428893
_symmetry_space_group_name_H-M "I -4 C 2"
_symmetry_group_IT_number 120
_symmetry_cell_setting 'tetragonal'
loop_
_space_group_symop_operation_xyz
x,y,z
y,-x,-z
-x,-y,z
-y,x,-z
y,x,1/2-z
-y,-x,1/2-z
-x,y,1/2+z
x,-y,1/2+z
1/2+x,1/2+y,1/2+z
1/2+y,1/2-x,1/2-z
1/2-x,1/2-y,1/2+z
1/2-y,1/2+x,1/2-z
1/2+y,1/2+x,-z
1/2-y,1/2-x,-z
1/2-x,1/2+y,z
1/2+x,1/2-y,z
loop_
_atom_site_type_symbol
_atom_site_label
_atom_site_fract_x
_atom_site_fract_y
_atom_site_fract_z
Si Si1 0.390573 0.949865 0.557340
Si Si2 0.403184 0.917223 0.241020
Si Si3 0.828818 0.265694 0.201324
Si Si4 0.613483 0.893634 0.621179
Si Si5 0.699218 0.041916 0.382478
Si Si6 0.519083 0.727029 0.997723
Si Si7 0.347857 0.671343 0.000777
Si Si8 0.232248 0.264861 0.908595
O O1 0.439759 0.939759 0.500000
O O2 0.404326 0.878763 0.602199
O O3 0.297042 0.950705 0.543358
O O4 0.418492 0.035996 0.580778
O O5 0.496282 0.895001 0.229487
O O6 0.353737 0.846153 0.272324
O O7 0.360946 0.931829 0.180761
O O8 0.799282 0.200719 0.250000
O O9 0.912535 0.248529 0.166921
O O10 0.760690 0.266869 0.152707
O O11 0.545117 0.829882 0.636287
O O12 0.690552 0.852251 0.595063
O O13 0.752188 0.024071 0.436586
O O14 0.576949 0.651626 0.989013
O O15 0.431972 0.701878 0.979147
O O16 0.282830 0.690638 0.951165
O O17 0.325867 0.708391 0.061425
#
# Coordination Sequence:
#
# PCOD8311252 Si02
#       8
#    16  16  16  16  16  16  16  16
#     4  10  23  35  57  96 132 166 198 242 318 400
#     4  11  24  39  60  90 125 163 205 262 318 372
#     4  12  23  40  61  88 122 167 217 252 307 373
#     4  12  21  38  59  89 126 163 200 251 310 379
#     4  11  22  37  57  87 123 162 196 246 306 375
#     4  11  22  38  59  85 122 159 202 254 306 374
#     4  11  23  39  60  87 121 158 205 255 316 372
#     4  11  23  39  61  88 122 162 206 257 309 377
#
# _framework density 19.272960999999999
#
# number of rings (size 3 to 8) (size 9 to 14) (size 15 to 20)
#    0.000    0.875    6.250    1.875    5.250    3.750 
#    0.000    0.000    0.000    0.000    0.000    0.000 
#    0.000    0.000    0.000    0.000    0.000    0.000 
#
# Total GULP energy -792913.960728 kJ/mol
# GULP energy per Si atom -12389.280636 kJ/mol
# Density = 1.922910 g / cm^3
# Si number density = 19.272961 Si / 1000 Ang^3
#
#
#
# Elastic Constant Matrix: (Units=GPa)
#
#
# Indices 1 2 3 4 5 6 
#
# 1 74.4825 42.4320 25.9127 0.0000 0.0000 0.0000
# 2 42.4320 74.4828 25.9127 0.0000 0.0000 0.0000
# 3 25.9127 25.9127 93.3348 0.0000 0.0000 0.0000
# 4 0.0000 0.0000 0.0000 28.1746 0.0000 0.0000
# 5 0.0000 0.0000 0.0000 0.0000 28.1746 0.0000
# 6 0.0000 0.0000 0.0000 0.0000 0.0000 37.5876
#
#
#
# Elastic Compliance Matrix: (Units=1/GPa)
#
#
# Indices 1 2 3 4 5 6 
#
# 1 0.020477 -0.010724 -0.002708 0.000000 0.000000 0.000000
# 2 -0.010724 0.020477 -0.002708 0.000000 0.000000 0.000000
# 3 -0.002708 -0.002708 0.012218 0.000000 0.000000 0.000000
# 4 0.000000 0.000000 0.000000 0.035493 0.000000 0.000000
# 5 0.000000 0.000000 0.000000 0.000000 0.035493 0.000000
# 6 0.000000 0.000000 0.000000 0.000000 0.000000 0.026605
#
#
# Mechanical properties :
#
#
# Convention : Reuss Voigt Hill
#
# Bulk Modulus (GPa) = 47.86226 47.86831 47.86529
# Shear Modulus (GPa) = 26.31501 28.65685 27.48593
#
# Velocity S-wave (km/s) = 3.69912 3.86021 3.78052
# Velocity P-wave (km/s) = 6.56753 6.69023 6.62917
#
# Compressibility (1/GPa) = 0.02089329
#
# Stress axis : x y z
#
# Youngs Moduli (GPa) = 48.83484 48.83507 81.84833
#
# Poissons Ratio (x) = 0.52368 0.22164
# Poissons Ratio (y) = 0.52368 0.22164
# Poissons Ratio (z) = 0.13224 0.13224
#
# Static dielectric constant tensor:
#      x y z
#    x 3.440650 0.000000 0.000000 
#    y 0.000000 3.440650 0.000000 
#    z 0.000000 0.000000 3.699720 
# 
# 
# High freq. dielectric constant tensor:
#      x y z
#    x 1.732390 0.000000 0.000000 
#    y 0.000000 1.732390 0.000000 
#    z 0.000000 0.000000 1.763000 
# 
# From -- ./inp_files/6035.got.cif
#   From: 2010.03.12/outbox.cif.g09.slc.cpg/sg120_4_cif.got.tgz:6035.got - 2010.04.06 16:00:44.
