data_PCOD8311005
_publ_section_title
;
Structure prediction by ZEFSAII (Michael W. Deem and Ramdas Pophale) SiO2 
 PCOD8311005
Probable space group: I -4 M 2
;
_chemical_formula_sum "Si O2"
_cell_formula_units_Z 112
_cell_length_a 15.023317
_cell_length_b 15.023317
_cell_length_c 24.596764
_cell_angle_alpha 90.000000
_cell_angle_beta 90.000000
_cell_angle_gamma 90.000000
_cell_volume 5551.490955
_symmetry_space_group_name_H-M "I -4 M 2"
_symmetry_group_IT_number 119
_symmetry_cell_setting 'tetragonal'
loop_
_space_group_symop_operation_xyz
x,y,z
y,-x,-z
-x,-y,z
-y,x,-z
y,x,-z
-y,-x,-z
-x,y,z
x,-y,z
1/2+x,1/2+y,1/2+z
1/2+y,1/2-x,1/2-z
1/2-x,1/2-y,1/2+z
1/2-y,1/2+x,1/2-z
1/2+y,1/2+x,1/2-z
1/2-y,1/2-x,1/2-z
1/2-x,1/2+y,1/2+z
1/2+x,1/2-y,1/2+z
loop_
_atom_site_type_symbol
_atom_site_label
_atom_site_fract_x
_atom_site_fract_y
_atom_site_fract_z
Si Si1 0.287512 0.398094 0.646520
Si Si2 0.143935 0.400711 0.887386
Si Si3 0.399486 0.605469 0.747507
Si Si4 0.399482 0.349491 0.133452
Si Si5 0.596603 0.334197 0.550860
Si Si6 0.595179 0.711692 0.962953
Si Si7 0.637814 0.901421 0.989399
O O1 0.315793 0.500000 0.638810
O O2 0.179802 0.390769 0.650960
O O3 0.333771 0.357774 0.700526
O O4 0.325105 0.344746 0.594765
O O5 0.112769 0.500000 0.867157
O O6 0.249480 0.397432 0.887643
O O7 0.106895 0.384321 0.947226
O O8 0.500000 0.642902 0.739963
O O9 0.400701 0.500000 0.744747
O O10 0.358789 0.636175 0.805064
O O11 0.500000 0.388228 0.128984
O O12 0.331342 0.404180 0.096563
O O13 0.598343 0.401658 0.500000
O O14 0.500000 0.344028 0.579976
O O15 0.607507 0.241444 0.520402
O O16 0.500000 0.685463 0.990080
O O17 0.594769 0.819096 0.956854
O O18 0.675589 0.675589 0.000000
O O19 0.603782 0.000000 0.970037
#
# Coordination Sequence:
#
# PCOD8311005 Si02
#       7
#    16  16  16  16  16  16  16
#     4  11  22  36  56  86 119 157 205 252 302 361
#     4  11  22  38  58  81 115 158 205 251 296 352
#     4   9  19  37  59  83 116 156 194 236 296 370
#     4  10  21  38  60  86 119 157 195 243 303 361
#     4  11  21  34  55  83 118 156 196 247 304 359
#     4  12  23  36  58  90 122 153 193 245 300 360
#     4  11  23  40  58  80 118 166 207 243 293 362
#
# _framework density 20.174759999999999
#
# number of rings (size 3 to 8) (size 9 to 14) (size 15 to 20)
#    0.000    1.286    2.857    3.857    0.000    5.714 
#    0.000    0.000    0.000    0.857    0.000    8.000 
#    0.000    1.143    0.000    8.857    0.000    0.000 
#
# Total GULP energy -694006.572986 kJ/mol
# GULP energy per Si atom -12392.974518 kJ/mol
# Density = 2.012884 g / cm^3
# Si number density = 20.174760 Si / 1000 Ang^3
#
#
#
# Elastic Constant Matrix: (Units=GPa)
#
#
# Indices 1 2 3 4 5 6 
#
# 1 117.2484 36.3222 46.2522 0.0000 0.0000 0.0000
# 2 36.3222 117.2475 46.2521 0.0000 0.0000 0.0000
# 3 46.2522 46.2521 111.4499 0.0000 0.0000 0.0000
# 4 0.0000 0.0000 0.0000 23.2560 0.0000 0.0000
# 5 0.0000 0.0000 0.0000 0.0000 23.2559 0.0000
# 6 0.0000 0.0000 0.0000 0.0000 0.0000 11.4232
#
#
#
# Elastic Compliance Matrix: (Units=1/GPa)
#
#
# Indices 1 2 3 4 5 6 
#
# 1 0.010519 -0.001837 -0.003603 0.000000 0.000000 0.000000
# 2 -0.001837 0.010520 -0.003603 0.000000 0.000000 0.000000
# 3 -0.003603 -0.003603 0.011963 0.000000 0.000000 0.000000
# 4 0.000000 0.000000 0.000000 0.043000 0.000000 0.000000
# 5 0.000000 0.000000 0.000000 0.000000 0.043000 0.000000
# 6 0.000000 0.000000 0.000000 0.000000 0.000000 0.087541
#
#
# Mechanical properties :
#
#
# Convention : Reuss Voigt Hill
#
# Bulk Modulus (GPa) = 67.04671 67.06653 67.05662
# Shear Modulus (GPa) = 21.77681 26.06163 23.91922
#
# Velocity S-wave (km/s) = 3.28900 3.59805 3.44699
# Velocity P-wave (km/s) = 6.90858 7.11170 7.01087
#
# Compressibility (1/GPa) = 0.01491497
#
# Stress axis : x y z
#
# Youngs Moduli (GPa) = 95.06182 95.06099 83.58954
#
# Poissons Ratio (x) = 0.17467 0.30118
# Poissons Ratio (y) = 0.17468 0.30118
# Poissons Ratio (z) = 0.34251 0.34251
#
# Static dielectric constant tensor:
#      x y z
#    x 3.827870 0.000000 0.000000 
#    y 0.000000 3.827870 0.000000 
#    z 0.000000 0.000000 3.572520 
# 
# 
# High freq. dielectric constant tensor:
#      x y z
#    x 1.787370 0.000000 0.000000 
#    y 0.000000 1.787370 0.000000 
#    z 0.000000 0.000000 1.763480 
# 
# From -- ./inp_files/8876.got.cif
#   From: 2010.03.12/outbox.cif.g09.slc.cpg/sg119_5_cif.got.tgz:8876.got - 2010.04.14 02:25:26.
