data_PCOD8311345
_publ_section_title
;
Structure prediction by ZEFSAII (Michael W. Deem and Ramdas Pophale) SiO2 
 PCOD8311345
Probable space group: I -4 2 M
;
_chemical_formula_sum "Si O2"
_cell_formula_units_Z 96
_cell_length_a 25.642788
_cell_length_b 25.642788
_cell_length_c 10.210856
_cell_angle_alpha 90.000000
_cell_angle_beta 90.000000
_cell_angle_gamma 90.000000
_cell_volume 6714.174670
_symmetry_space_group_name_H-M "I -4 2 M"
_symmetry_group_IT_number 121
_symmetry_cell_setting 'tetragonal'
loop_
_space_group_symop_operation_xyz
x,y,z
y,-x,-z
-x,-y,z
-y,x,-z
x,-y,-z
-x,y,-z
-y,-x,z
y,x,z
1/2+x,1/2+y,1/2+z
1/2+y,1/2-x,1/2-z
1/2-x,1/2-y,1/2+z
1/2-y,1/2+x,1/2-z
1/2+x,1/2-y,1/2-z
1/2-x,1/2+y,1/2-z
1/2-y,1/2-x,1/2+z
1/2+y,1/2+x,1/2+z
loop_
_atom_site_type_symbol
_atom_site_label
_atom_site_fract_x
_atom_site_fract_y
_atom_site_fract_z
Si Si1 0.191823 0.107038 0.737626
Si Si2 0.972343 0.112463 0.633752
Si Si3 0.282252 0.444133 0.978291
Si Si4 0.812486 0.727663 0.719257
Si Si5 0.621219 0.461268 0.612375
Si Si6 0.756108 0.669119 0.927994
O O1 0.154455 0.154455 0.694764
O O2 0.191049 0.067093 0.617655
O O3 0.249709 0.130688 0.761820
O O4 0.170521 0.077220 0.864744
O O5 0.921795 0.078206 0.660611
O O6 0.954036 0.172483 0.627264
O O7 0.000000 0.094367 0.500000
O O8 0.011079 0.104364 0.754483
O O9 0.251090 0.500000 0.000000
O O10 0.249845 0.393759 0.931303
O O11 0.769924 0.769924 0.759208
O O12 0.796241 0.677982 0.807373
O O13 0.812455 0.716118 0.563440
O O14 0.639364 0.500000 0.500000
O O15 0.571945 0.428056 0.561877
O O16 0.700706 0.700706 0.912900
#
# Coordination Sequence:
#
# PCOD8311345 Si02
#       6
#    16  16  16  16  16  16
#     4   9  16  31  47  58  79 110 140 176 223 269
#     4  11  20  30  44  60  75 102 148 193 226 258
#     4  10  17  28  46  64  83 108 141 178 218 254
#     4   8  15  27  45  63  80 102 130 170 217 256
#     4  11  22  34  43  55  80 112 147 188 235 270
#     4   9  16  28  44  64  87 108 138 178 215 258
#
# _framework density 14.298109999999999
#
# number of rings (size 3 to 8) (size 9 to 14) (size 15 to 20)
#    0.000    2.333    3.333    3.500    0.000    2.000 
#    3.000    0.000    0.000    0.000    0.000    0.000 
#    0.000    0.000    0.000    0.000    0.000   54.167 
#
# Total GULP energy -594695.114059 kJ/mol
# GULP energy per Si atom -12389.481543 kJ/mol
# Density = 1.426557 g / cm^3
# Si number density = 14.298110 Si / 1000 Ang^3
#
#
#
# Elastic Constant Matrix: (Units=GPa)
#
#
# Indices 1 2 3 4 5 6 
#
# 1 53.8351 27.1917 19.0679 0.0000 0.0000 0.0000
# 2 27.1917 53.8345 19.0675 0.0000 0.0000 0.0000
# 3 19.0679 19.0675 44.2978 0.0000 0.0000 0.0000
# 4 0.0000 0.0000 0.0000 20.5202 0.0000 0.0000
# 5 0.0000 0.0000 0.0000 0.0000 20.5207 0.0000
# 6 0.0000 0.0000 0.0000 0.0000 0.0000 18.0776
#
#
#
# Elastic Compliance Matrix: (Units=1/GPa)
#
#
# Indices 1 2 3 4 5 6 
#
# 1 0.026505 -0.011028 -0.006662 0.000000 0.000000 0.000000
# 2 -0.011028 0.026505 -0.006662 0.000000 0.000000 0.000000
# 3 -0.006662 -0.006662 0.028310 0.000000 0.000000 0.000000
# 4 0.000000 0.000000 0.000000 0.048733 0.000000 0.000000
# 5 0.000000 0.000000 0.000000 0.000000 0.048731 0.000000
# 6 0.000000 0.000000 0.000000 0.000000 0.000000 0.055317
#
#
# Mechanical properties :
#
#
# Convention : Reuss Voigt Hill
#
# Bulk Modulus (GPa) = 30.65991 31.40241 31.03116
# Shear Modulus (GPa) = 17.02550 17.59971 17.31261
#
# Velocity S-wave (km/s) = 3.45447 3.51224 3.48348
# Velocity P-wave (km/s) = 6.11564 6.20146 6.15870
#
# Compressibility (1/GPa) = 0.03261588
#
# Stress axis : x y z
#
# Youngs Moduli (GPa) = 37.72866 37.72840 35.32345
#
# Poissons Ratio (x) = 0.41607 0.23533
# Poissons Ratio (y) = 0.41607 0.23532
# Poissons Ratio (z) = 0.25136 0.25134
#
# Static dielectric constant tensor:
#      x y z
#    x 2.751110 0.000000 0.000000 
#    y 0.000000 2.751120 0.000000 
#    z 0.000000 0.000000 2.768530 
# 
# 
# High freq. dielectric constant tensor:
#      x y z
#    x 1.519410 0.000000 0.000000 
#    y 0.000000 1.519410 0.000000 
#    z 0.000000 0.000000 1.543480 
# 
# From -- ./inp_files/2037.got.cif
#   From: 2010.03.12/outbox.cif.g09.slc.cpg/sg121_2_cif.got.tgz:2037.got - 2010.04.06 16:06:48.
