data_PCOD8311753
_publ_section_title
;
Structure prediction by ZEFSAII (Michael W. Deem and Ramdas Pophale) SiO2 
 PCOD8311753
Probable space group: I -4 2 D
;
_chemical_formula_sum "Si O2"
_cell_formula_units_Z 96
_cell_length_a 19.477948
_cell_length_b 19.477948
_cell_length_c 12.151831
_cell_angle_alpha 90.000000
_cell_angle_beta 90.000000
_cell_angle_gamma 90.000000
_cell_volume 4610.288732
_symmetry_space_group_name_H-M "I -4 2 D"
_symmetry_group_IT_number 122
_symmetry_cell_setting 'tetragonal'
loop_
_space_group_symop_operation_xyz
x,y,z
y,-x,-z
-x,-y,z
-y,x,-z
x,1/2-y,1/4-z
-x,1/2+y,1/4-z
-y,1/2-x,1/4+z
y,1/2+x,1/4+z
1/2+x,1/2+y,1/2+z
1/2+y,1/2-x,1/2-z
1/2-x,1/2-y,1/2+z
1/2-y,1/2+x,1/2-z
1/2+x,-y,3/4-z
1/2-x,y,3/4-z
1/2-y,-x,3/4+z
1/2+y,x,3/4+z
loop_
_atom_site_type_symbol
_atom_site_label
_atom_site_fract_x
_atom_site_fract_y
_atom_site_fract_z
Si Si1 0.357666 0.221611 0.745783
Si Si2 0.549627 0.905254 0.791607
Si Si3 0.942150 0.092832 0.480844
Si Si4 0.119245 0.386856 0.508217
Si Si5 0.356396 0.750000 0.625000
Si Si6 0.676130 0.827815 0.332942
Si Si7 0.250000 0.852951 0.375000
O O1 0.350479 0.250000 0.625000
O O2 0.419009 0.166131 0.747324
O O3 0.284706 0.189474 0.780476
O O4 0.370450 0.282769 0.833478
O O5 0.469221 0.909515 0.762863
O O6 0.557813 0.905899 0.924308
O O7 0.941583 0.122524 0.356820
O O8 0.898927 0.137397 0.565719
O O9 0.018055 0.091901 0.527492
O O10 0.190168 0.397451 0.438710
O O11 0.105358 0.310211 0.559083
O O12 0.750000 0.848479 0.375000
O O13 0.690603 0.788439 0.218097
#
# Coordination Sequence:
#
# PCOD8311753 Si02
#       7
#    16  16  16  16   8  16   8
#     4  11  23  38  63  99 136 164 222 284 340 404
#     4  10  23  45  67  94 134 186 222 273 344 414
#     4  10  25  47  68  94 135 185 226 275 337 408
#     4  10  21  40  68  93 130 178 223 271 335 411
#     4  10  20  38  62  92 130 182 204 266 360 386
#     4  11  22  39  67  97 131 170 226 279 342 395
#     4  10  18  38  66  88 134 178 214 274 338 410
#
# _framework density 20.822990999999998
#
# number of rings (size 3 to 8) (size 9 to 14) (size 15 to 20)
#    0.000    1.667    4.167    0.000    7.000    5.333 
#   18.000    0.000    0.000    0.000    0.000    0.000 
#    0.000    0.000    0.000    0.000    0.000    0.000 
#
# Total GULP energy -594865.419449 kJ/mol
# GULP energy per Si atom -12393.029572 kJ/mol
# Density = 2.077560 g / cm^3
# Si number density = 20.822991 Si / 1000 Ang^3
#
#
#
# Elastic Constant Matrix: (Units=GPa)
#
#
# Indices 1 2 3 4 5 6 
#
# 1 90.8708 59.9743 50.1608 0.0000 0.0000 0.0000
# 2 59.9743 90.8708 50.1608 0.0000 0.0000 0.0000
# 3 50.1608 50.1608 155.0927 0.0000 0.0000 0.0000
# 4 0.0000 0.0000 0.0000 34.6916 0.0000 0.0000
# 5 0.0000 0.0000 0.0000 0.0000 34.6916 0.0000
# 6 0.0000 0.0000 0.0000 0.0000 0.0000 35.9685
#
#
#
# Elastic Compliance Matrix: (Units=1/GPa)
#
#
# Indices 1 2 3 4 5 6 
#
# 1 0.020406 -0.011960 -0.002732 0.000000 0.000000 0.000000
# 2 -0.011960 0.020406 -0.002732 0.000000 0.000000 0.000000
# 3 -0.002732 -0.002732 0.008215 0.000000 0.000000 0.000000
# 4 0.000000 0.000000 0.000000 0.028825 0.000000 0.000000
# 5 0.000000 0.000000 0.000000 0.000000 0.028825 0.000000
# 6 0.000000 0.000000 0.000000 0.000000 0.000000 0.027802
#
#
# Mechanical properties :
#
#
# Convention : Reuss Voigt Hill
#
# Bulk Modulus (GPa) = 70.52094 73.04732 71.78413
# Shear Modulus (GPa) = 28.72682 32.83958 30.78320
#
# Velocity S-wave (km/s) = 3.71829 3.97556 3.84907
# Velocity P-wave (km/s) = 7.23703 7.49865 7.36900
#
# Compressibility (1/GPa) = 0.01418019
#
# Stress axis : x y z
#
# Youngs Moduli (GPa) = 49.00491 49.00491 121.73257
#
# Poissons Ratio (x) = 0.58610 0.33253
# Poissons Ratio (y) = 0.58610 0.33253
# Poissons Ratio (z) = 0.13386 0.13386
#
# Static dielectric constant tensor:
#      x y z
#    x 3.704440 0.000000 0.000000 
#    y 0.000000 3.704440 0.000000 
#    z 0.000000 0.000000 3.732160 
# 
# 
# High freq. dielectric constant tensor:
#      x y z
#    x 1.801980 0.000000 0.000000 
#    y 0.000000 1.801980 0.000000 
#    z 0.000000 0.000000 1.834540 
# 
# From -- ./inp_files/4512.got.cif
#   From: 2010.03.12/outbox.cif.g09.slc.cpg/sg122_3_cif.got.tgz:4512.got - 2010.04.06 16:17:16.
