data_PCOD8311588
_publ_section_title
;
Structure prediction by ZEFSAII (Michael W. Deem and Ramdas Pophale) SiO2 
 PCOD8311588
Probable space group: I -4 2 M
;
_chemical_formula_sum "Si O2"
_cell_formula_units_Z 96
_cell_length_a 22.272420
_cell_length_b 22.272420
_cell_length_c 8.748362
_cell_angle_alpha 90.000000
_cell_angle_beta 90.000000
_cell_angle_gamma 90.000000
_cell_volume 4339.718513
_symmetry_space_group_name_H-M "I -4 2 M"
_symmetry_group_IT_number 121
_symmetry_cell_setting 'tetragonal'
loop_
_space_group_symop_operation_xyz
x,y,z
y,-x,-z
-x,-y,z
-y,x,-z
x,-y,-z
-x,y,-z
-y,-x,z
y,x,z
1/2+x,1/2+y,1/2+z
1/2+y,1/2-x,1/2-z
1/2-x,1/2-y,1/2+z
1/2-y,1/2+x,1/2-z
1/2+x,1/2-y,1/2-z
1/2-x,1/2+y,1/2-z
1/2-y,1/2-x,1/2+z
1/2+y,1/2+x,1/2+z
loop_
_atom_site_type_symbol
_atom_site_label
_atom_site_fract_x
_atom_site_fract_y
_atom_site_fract_z
Si Si1 0.277892 0.277892 0.733580
Si Si2 0.491293 0.182296 0.739494
Si Si3 0.401441 0.731581 0.415522
Si Si4 0.000000 0.402023 0.500000
Si Si5 0.808663 0.191338 0.418176
Si Si6 0.000000 0.407526 0.000000
Si Si7 0.975066 0.880810 0.166803
Si Si8 0.707430 0.570313 0.236229
O O1 0.254001 0.336049 0.646166
O O2 0.227415 0.227415 0.712083
O O3 0.289498 0.289498 0.912362
O O4 0.440281 0.210918 0.631792
O O5 0.467628 0.141546 0.877949
O O6 0.526701 0.134706 0.633678
O O7 0.532017 0.234710 0.809716
O O8 0.425944 0.671685 0.336240
O O9 0.402067 0.719885 0.596515
O O10 0.052147 0.445315 0.566628
O O11 0.879243 0.202248 0.392716
O O12 0.941102 0.941102 0.231800
O O13 0.030804 0.854641 0.266523
O O14 0.000000 0.896510 0.000000
#
# Coordination Sequence:
#
# PCOD8311588 Si02
#       8
#     8  16  16   8   8   8  16  16
#     4  12  26  44  70  95 132 178 214 277 338 410
#     4  11  22  42  67  94 129 174 223 271 335 395
#     4  10  20  42  69  93 129 172 216 271 339 392
#     4  11  26  36  66  90 132 172 221 286 322 402
#     4  12  28  44  63 101 134 170 223 273 342 402
#     4  11  22  46  56  92 128 176 225 270 342 378
#     4   9  18  34  64  99 129 168 219 271 318 387
#     4  10  22  43  66  95 135 173 216 278 329 401
#
# _framework density 22.121248999999999
#
# number of rings (size 3 to 8) (size 9 to 14) (size 15 to 20)
#    0.000    1.500    2.500    3.500    5.833    4.167 
#    0.000    0.000    0.000    0.000    0.000    4.667 
#    0.000    0.000    0.000    0.000    0.000    0.000 
#
# Total GULP energy -594777.550573 kJ/mol
# GULP energy per Si atom -12391.198970 kJ/mol
# Density = 2.207090 g / cm^3
# Si number density = 22.121249 Si / 1000 Ang^3
#
#
#
# Elastic Constant Matrix: (Units=GPa)
#
#
# Indices 1 2 3 4 5 6 
#
# 1 120.2220 55.0944 26.3159 0.0000 0.0000 0.0000
# 2 55.0944 120.2207 26.3161 0.0000 0.0000 0.0000
# 3 26.3159 26.3161 63.4822 0.0000 0.0000 0.0000
# 4 0.0000 0.0000 0.0000 28.3251 0.0000 0.0000
# 5 0.0000 0.0000 0.0000 0.0000 28.3252 0.0000
# 6 0.0000 0.0000 0.0000 0.0000 0.0000 33.1436
#
#
#
# Elastic Compliance Matrix: (Units=1/GPa)
#
#
# Indices 1 2 3 4 5 6 
#
# 1 0.010935 -0.004420 -0.002701 0.000000 0.000000 0.000000
# 2 -0.004420 0.010935 -0.002701 0.000000 0.000000 0.000000
# 3 -0.002701 -0.002701 0.017991 0.000000 0.000000 0.000000
# 4 0.000000 0.000000 0.000000 0.035304 0.000000 0.000000
# 5 0.000000 0.000000 0.000000 0.000000 0.035304 0.000000
# 6 0.000000 0.000000 0.000000 0.000000 0.000000 0.030172
#
#
# Mechanical properties :
#
#
# Convention : Reuss Voigt Hill
#
# Bulk Modulus (GPa) = 49.45971 57.70860 53.58416
# Shear Modulus (GPa) = 29.93596 31.03868 30.48732
#
# Velocity S-wave (km/s) = 3.68267 3.74988 3.71643
# Velocity P-wave (km/s) = 6.36315 6.70021 6.53386
#
# Compressibility (1/GPa) = 0.02021848
#
# Stress axis : x y z
#
# Youngs Moduli (GPa) = 91.45267 91.45142 55.58182
#
# Poissons Ratio (x) = 0.40421 0.15010
# Poissons Ratio (y) = 0.40421 0.15011
# Poissons Ratio (z) = 0.24698 0.24698
#
# Static dielectric constant tensor:
#      x y z
#    x 4.061770 0.000000 0.000000 
#    y 0.000000 4.061790 0.000000 
#    z 0.000000 0.000000 3.722030 
# 
# 
# High freq. dielectric constant tensor:
#      x y z
#    x 1.872730 0.000000 0.000000 
#    y 0.000000 1.872730 0.000000 
#    z 0.000000 0.000000 1.844380 
# 
# From -- ./inp_files/2011.got.cif
#   From: 2010.03.12/outbox.cif.g09.slc.cpg/sg121_2_cif.got.tgz:2011.got - 2010.04.06 16:06:48.
