data_PCOD8311085
_publ_section_title
;
Structure prediction by ZEFSAII (Michael W. Deem and Ramdas Pophale) SiO2 
 PCOD8311085
Probable space group: I -4 M 2
;
_chemical_formula_sum "Si O2"
_cell_formula_units_Z 40
_cell_length_a 7.806004
_cell_length_b 7.806004
_cell_length_c 31.742639
_cell_angle_alpha 90.000000
_cell_angle_beta 90.000000
_cell_angle_gamma 90.000000
_cell_volume 1934.196393
_symmetry_space_group_name_H-M "I -4 M 2"
_symmetry_group_IT_number 119
_symmetry_cell_setting 'tetragonal'
loop_
_space_group_symop_operation_xyz
x,y,z
y,-x,-z
-x,-y,z
-y,x,-z
y,x,-z
-y,-x,-z
-x,y,z
x,-y,z
1/2+x,1/2+y,1/2+z
1/2+y,1/2-x,1/2-z
1/2-x,1/2-y,1/2+z
1/2-y,1/2+x,1/2-z
1/2+y,1/2+x,1/2-z
1/2-y,1/2-x,1/2-z
1/2-x,1/2+y,1/2+z
1/2+x,1/2-y,1/2+z
loop_
_atom_site_type_symbol
_atom_site_label
_atom_site_fract_x
_atom_site_fract_y
_atom_site_fract_z
Si Si1 0.200922 0.192772 0.548057
Si Si2 0.192346 0.692346 0.250000
Si Si3 0.192576 0.500000 0.695820
Si Si4 0.500000 0.310533 0.394727
O O1 0.242861 0.242861 0.500000
O O2 0.289816 0.329370 0.577893
O O3 0.000000 0.200389 0.555927
O O4 0.268478 0.000000 0.557806
O O5 0.215631 0.500000 0.231581
O O6 0.327505 0.717372 0.287635
O O7 0.186196 0.500000 0.645251
O O8 0.000000 0.500000 0.712832
O O9 0.500000 0.500000 0.375801
#
# Coordination Sequence:
#
# PCOD8311085 Si02
#       4
#    16   8   8   8
#     4   9  20  40  63  87 121 170 221 269 328 386
#     4  11  23  42  70  98 129 169 212 266 330 399
#     4  12  24  44  68  95 129 174 221 269 332 391
#     4  12  26  38  60  96 134 167 219 276 321 395
#
# _framework density 20.680420999999999
#
# number of rings (size 3 to 8) (size 9 to 14) (size 15 to 20)
#    0.000    1.400    2.000    4.800    2.800    2.400 
#    0.000    0.000    0.000    0.000    0.000    0.000 
#    0.000    0.000    0.000    0.000    0.000    0.000 
#
# Total GULP energy -248001.715692 kJ/mol
# GULP energy per Si atom -12400.085785 kJ/mol
# Density = 2.063335 g / cm^3
# Si number density = 20.680421 Si / 1000 Ang^3
#
#
#
# Elastic Constant Matrix: (Units=GPa)
#
#
# Indices 1 2 3 4 5 6 
#
# 1 130.5091 48.6420 51.5282 0.0000 0.0000 0.0000
# 2 48.6420 130.5092 51.5282 0.0000 0.0000 0.0000
# 3 51.5282 51.5282 110.3971 0.0000 0.0000 0.0000
# 4 0.0000 0.0000 0.0000 25.3332 0.0000 0.0000
# 5 0.0000 0.0000 0.0000 0.0000 25.3332 0.0000
# 6 0.0000 0.0000 0.0000 0.0000 0.0000 31.1122
#
#
#
# Elastic Compliance Matrix: (Units=1/GPa)
#
#
# Indices 1 2 3 4 5 6 
#
# 1 0.009923 -0.002292 -0.003562 0.000000 0.000000 0.000000
# 2 -0.002292 0.009923 -0.003562 0.000000 0.000000 0.000000
# 3 -0.003562 -0.003562 0.012383 0.000000 0.000000 0.000000
# 4 0.000000 0.000000 0.000000 0.039474 0.000000 0.000000
# 5 0.000000 0.000000 0.000000 0.000000 0.039474 0.000000
# 6 0.000000 0.000000 0.000000 0.000000 0.000000 0.032142
#
#
# Mechanical properties :
#
#
# Convention : Reuss Voigt Hill
#
# Bulk Modulus (GPa) = 74.63895 74.97914 74.80905
# Shear Modulus (GPa) = 30.00929 31.00350 30.50639
#
# Velocity S-wave (km/s) = 3.81346 3.87611 3.84491
# Velocity P-wave (km/s) = 7.45385 7.50781 7.48088
#
# Compressibility (1/GPa) = 0.01339783
#
# Stress axis : x y z
#
# Youngs Moduli (GPa) = 100.77783 100.77787 80.75554
#
# Poissons Ratio (x) = 0.23099 0.28762
# Poissons Ratio (y) = 0.23099 0.28762
# Poissons Ratio (z) = 0.35894 0.35894
#
# Static dielectric constant tensor:
#      x y z
#    x 3.970580 0.000000 0.000000 
#    y 0.000000 3.970580 0.000000 
#    z 0.000000 0.000000 3.464470 
# 
# 
# High freq. dielectric constant tensor:
#      x y z
#    x 1.820490 0.000000 0.000000 
#    y 0.000000 1.820490 0.000000 
#    z 0.000000 0.000000 1.793660 
# 
# From -- ./inp_files/8242.got.cif
#   From: 2010.03.12/outbox.cif.g09.slc.cpg/sg119_5_cif.got.tgz:8242.got - 2010.04.14 02:25:26.
