data_PCOD8311067
_publ_section_title
;
Structure prediction by ZEFSAII (Michael W. Deem and Ramdas Pophale) SiO2 
 PCOD8311067
Probable space group: I -4 M 2
;
_chemical_formula_sum "Si O2"
_cell_formula_units_Z 34
_cell_length_a 7.823733
_cell_length_b 7.823733
_cell_length_c 26.173668
_cell_angle_alpha 90.000000
_cell_angle_beta 90.000000
_cell_angle_gamma 90.000000
_cell_volume 1602.111106
_symmetry_space_group_name_H-M "I -4 M 2"
_symmetry_group_IT_number 119
_symmetry_cell_setting 'tetragonal'
loop_
_space_group_symop_operation_xyz
x,y,z
y,-x,-z
-x,-y,z
-y,x,-z
y,x,-z
-y,-x,-z
-x,y,z
x,-y,z
1/2+x,1/2+y,1/2+z
1/2+y,1/2-x,1/2-z
1/2-x,1/2-y,1/2+z
1/2-y,1/2+x,1/2-z
1/2+y,1/2+x,1/2-z
1/2-y,1/2-x,1/2-z
1/2-x,1/2+y,1/2+z
1/2+x,1/2-y,1/2+z
loop_
_atom_site_type_symbol
_atom_site_label
_atom_site_fract_x
_atom_site_fract_y
_atom_site_fract_z
Si Si1 0.697122 0.302879 0.000000
Si Si2 0.500000 0.687589 0.173661
Si Si3 0.691793 0.697065 0.607968
Si Si4 0.000000 0.500000 0.750000
O O1 0.756224 0.194602 0.951549
O O2 0.500000 0.266905 0.012134
O O3 0.500000 0.500000 0.199635
O O4 0.669504 0.695565 0.139039
O O5 0.500000 0.829429 0.216961
O O6 0.500000 0.736718 0.628160
O O7 0.738618 0.500000 0.615853
#
# Coordination Sequence:
#
# PCOD8311067 Si02
#       4
#     8   8  16   2
#     4  11  22  35  58  98 144 189 233 278 344 420
#     4  12  26  48  76 104 138 182 238 296 360 415
#     4  11  23  41  67 101 142 186 232 288 348 421
#     4  12  28  52  76 104 140 188 236 308 360 410
#
# _framework density 21.222000000000001
#
# number of rings (size 3 to 8) (size 9 to 14) (size 15 to 20)
#    0.000    0.706    4.706    2.824    0.000    9.412 
#    0.000    0.000    0.000    0.000    0.000    0.000 
#    0.000    0.000    0.000    0.000    0.000    0.000 
#
# Total GULP energy -210879.732248 kJ/mol
# GULP energy per Si atom -12404.690132 kJ/mol
# Density = 2.117370 g / cm^3
# Si number density = 21.222000 Si / 1000 Ang^3
#
#
#
# Elastic Constant Matrix: (Units=GPa)
#
#
# Indices 1 2 3 4 5 6 
#
# 1 136.4483 53.6514 40.5712 0.0000 0.0000 0.0000
# 2 53.6514 136.4490 40.5713 0.0001 0.0000 0.0000
# 3 40.5712 40.5713 104.2593 0.0000 0.0000 0.0000
# 4 0.0000 0.0001 0.0000 -132.7646 -0.0005 0.0000
# 5 0.0000 0.0000 0.0000 -0.0005 -131.1672 0.0000
# 6 0.0000 0.0000 0.0000 0.0000 0.0000 22.5841
#
#
#
# Elastic Compliance Matrix: (Units=1/GPa)
#
#
# Indices 1 2 3 4 5 6 
#
# 1 0.009193 -0.002885 -0.002455 0.000000 0.000000 0.000000
# 2 -0.002885 0.009193 -0.002455 0.000000 0.000000 0.000000
# 3 -0.002455 -0.002455 0.011502 0.000000 0.000000 0.000000
# 4 0.000000 0.000000 0.000000 -0.007532 0.000000 0.000000
# 5 0.000000 0.000000 0.000000 0.000000 -0.007624 0.000000
# 6 0.000000 0.000000 0.000000 0.000000 0.000000 0.044279
#
#
# Mechanical properties :
#
#
# Convention : Reuss Voigt Hill
#
# Bulk Modulus (GPa) = 69.93351 71.86047 70.89699
# Shear Modulus (GPa) = 62.99951 -32.11202 15.44375
#
# Velocity S-wave (km/s) = 5.45439 -3.89414 2.70056
# Velocity P-wave (km/s) = 8.52596 3.70347 6.57297
#
# Compressibility (1/GPa) = 0.01429930
#
# Stress axis : x y z
#
# Youngs Moduli (GPa) = 108.77886 108.77945 86.94180
#
# Poissons Ratio (x) = 0.31380 0.21342
# Poissons Ratio (y) = 0.31380 0.21342
# Poissons Ratio (z) = 0.26703 0.26703
#
# Static dielectric constant tensor:
#      x y z
#    x 3.981340 0.000000 0.000000 
#    y 0.000000 3.981630 0.000000 
#    z 0.000000 0.000000 3.610570 
# 
# 
# High freq. dielectric constant tensor:
#      x y z
#    x 1.847470 0.000000 0.000000 
#    y 0.000000 1.847470 0.000000 
#    z 0.000000 0.000000 1.806950 
# 
# From -- ./inp_files/7022.got.cif
#   From: 2010.03.12/outbox.cif.g09.slc.cpg/sg119_4_cif.got.tgz:7022.got - 2010.04.14 02:25:26.
