data_PCOD8311411
_publ_section_title
;
Structure prediction by ZEFSAII (Michael W. Deem and Ramdas Pophale) SiO2 
 PCOD8311411
Probable space group: I -4 2 M
;
_chemical_formula_sum "Si O2"
_cell_formula_units_Z 96
_cell_length_a 15.617909
_cell_length_b 15.617909
_cell_length_c 21.893170
_cell_angle_alpha 90.000000
_cell_angle_beta 90.000000
_cell_angle_gamma 90.000000
_cell_volume 5340.161918
_symmetry_space_group_name_H-M "I -4 2 M"
_symmetry_group_IT_number 121
_symmetry_cell_setting 'tetragonal'
loop_
_space_group_symop_operation_xyz
x,y,z
y,-x,-z
-x,-y,z
-y,x,-z
x,-y,-z
-x,y,-z
-y,-x,z
y,x,z
1/2+x,1/2+y,1/2+z
1/2+y,1/2-x,1/2-z
1/2-x,1/2-y,1/2+z
1/2-y,1/2+x,1/2-z
1/2+x,1/2-y,1/2-z
1/2-x,1/2+y,1/2-z
1/2-y,1/2-x,1/2+z
1/2+y,1/2+x,1/2+z
loop_
_atom_site_type_symbol
_atom_site_label
_atom_site_fract_x
_atom_site_fract_y
_atom_site_fract_z
Si Si1 0.673200 0.189501 0.096864
Si Si2 0.916283 0.774543 0.806725
Si Si3 0.907708 0.659304 0.021874
Si Si4 0.784361 0.517309 0.065388
Si Si5 0.899862 0.757356 0.140840
Si Si6 0.268324 0.127745 0.676599
O O1 0.716712 0.283289 0.101294
O O2 0.703273 0.131274 0.152978
O O3 0.570771 0.195013 0.099796
O O4 0.699980 0.147464 0.032885
O O5 0.864259 0.864259 0.809158
O O6 0.927171 0.737867 0.738223
O O7 0.011949 0.788801 0.829914
O O8 0.868450 0.570790 0.047067
O O9 0.914007 0.736280 0.069930
O O10 0.000000 0.630858 0.000000
O O11 0.736895 0.573835 0.116959
O O12 0.734068 0.500000 0.000000
O O13 0.835019 0.835019 0.148858
O O14 0.863241 0.669111 0.170676
O O15 0.206448 0.206448 0.683111
#
# Coordination Sequence:
#
# PCOD8311411 Si02
#       6
#    16  16  16  16  16  16
#     4  10  20  34  53  78 110 146 186 227 274 329
#     4  10  21  36  54  79 112 147 183 230 274 326
#     4  10  18  35  55  81 113 142 183 234 278 326
#     4   9  20  33  55  82 106 143 182 229 278 326
#     4  10  20  36  59  80 107 149 186 222 274 334
#     4   9  20  38  57  80 111 144 182 227 279 331
#
# _framework density 17.976982
#
# number of rings (size 3 to 8) (size 9 to 14) (size 15 to 20)
#    0.000    2.333    1.667    0.500    2.333    7.333 
#    0.000    0.000    0.000    1.500    0.000    3.500 
#    0.000    0.000    0.000    0.000    0.000    0.000 
#
# Total GULP energy -594788.669559 kJ/mol
# GULP energy per Si atom -12391.430616 kJ/mol
# Density = 1.793607 g / cm^3
# Si number density = 17.976982 Si / 1000 Ang^3
#
#
#
# Elastic Constant Matrix: (Units=GPa)
#
#
# Indices 1 2 3 4 5 6 
#
# 1 70.3537 10.8993 32.5604 0.0000 0.0000 0.0000
# 2 10.8993 70.3527 32.5608 0.0000 0.0000 0.0000
# 3 32.5604 32.5608 117.8293 0.0000 0.0000 0.0000
# 4 0.0000 0.0000 0.0000 26.6759 0.0000 0.0000
# 5 0.0000 0.0000 0.0000 0.0000 26.6772 0.0000
# 6 0.0000 0.0000 0.0000 0.0000 0.0000 7.6329
#
#
#
# Elastic Compliance Matrix: (Units=1/GPa)
#
#
# Indices 1 2 3 4 5 6 
#
# 1 0.016314 -0.000506 -0.004368 0.000000 0.000000 0.000000
# 2 -0.000506 0.016314 -0.004369 0.000000 0.000000 0.000000
# 3 -0.004368 -0.004369 0.010901 0.000000 0.000000 0.000000
# 4 0.000000 0.000000 0.000000 0.037487 0.000000 0.000000
# 5 0.000000 0.000000 0.000000 0.000000 0.037485 0.000000
# 6 0.000000 0.000000 0.000000 0.000000 0.000000 0.131012
#
#
# Mechanical properties :
#
#
# Convention : Reuss Voigt Hill
#
# Bulk Modulus (GPa) = 39.92926 45.61965 42.77446
# Shear Modulus (GPa) = 18.09318 24.36489 21.22903
#
# Velocity S-wave (km/s) = 3.17592 3.68549 3.44015
# Velocity P-wave (km/s) = 5.97563 6.59865 6.29485
#
# Compressibility (1/GPa) = 0.02504429
#
# Stress axis : x y z
#
# Youngs Moduli (GPa) = 61.29722 61.29595 91.73310
#
# Poissons Ratio (x) = 0.03099 0.40073
# Poissons Ratio (y) = 0.03099 0.40074
# Poissons Ratio (z) = 0.26777 0.26777
#
# Static dielectric constant tensor:
#      x y z
#    x 3.219010 0.000000 0.000000 
#    y 0.000000 3.219010 0.000000 
#    z 0.000000 0.000000 3.816100 
# 
# 
# High freq. dielectric constant tensor:
#      x y z
#    x 1.680650 0.000000 0.000000 
#    y 0.000000 1.680650 0.000000 
#    z 0.000000 0.000000 1.713670 
# 
# From -- ./inp_files/6396.got.cif
#   From: 2010.03.12/outbox.cif.g09.slc.cpg/sg121_4_cif.got.tgz:6396.got - 2010.04.06 16:06:48.
