data_PCOD8311698
_publ_section_title
;
Structure prediction by ZEFSAII (Michael W. Deem and Ramdas Pophale) SiO2 
 PCOD8311698
Probable space group: I -4 2 M
;
_chemical_formula_sum "Si O2"
_cell_formula_units_Z 72
_cell_length_a 21.554886
_cell_length_b 21.554886
_cell_length_c 7.839638
_cell_angle_alpha 90.000000
_cell_angle_beta 90.000000
_cell_angle_gamma 90.000000
_cell_volume 3642.398596
_symmetry_space_group_name_H-M "I -4 2 M"
_symmetry_group_IT_number 121
_symmetry_cell_setting 'tetragonal'
loop_
_space_group_symop_operation_xyz
x,y,z
y,-x,-z
-x,-y,z
-y,x,-z
x,-y,-z
-x,y,-z
-y,-x,z
y,x,z
1/2+x,1/2+y,1/2+z
1/2+y,1/2-x,1/2-z
1/2-x,1/2-y,1/2+z
1/2-y,1/2+x,1/2-z
1/2+x,1/2-y,1/2-z
1/2-x,1/2+y,1/2-z
1/2-y,1/2-x,1/2+z
1/2+y,1/2+x,1/2+z
loop_
_atom_site_type_symbol
_atom_site_label
_atom_site_fract_x
_atom_site_fract_y
_atom_site_fract_z
Si Si1 0.000000 0.762539 0.000000
Si Si2 0.693658 0.888715 0.156980
Si Si3 0.818291 0.818291 0.606980
Si Si4 0.434518 0.841620 0.978960
Si Si5 0.228946 0.771055 0.756393
Si Si6 0.713103 0.542071 0.151335
O O1 0.939792 0.720295 0.030447
O O2 0.013439 0.805966 0.164686
O O3 0.692809 0.911801 0.350366
O O4 0.738413 0.828333 0.142470
O O5 0.622109 0.879222 0.100996
O O6 0.792281 0.792281 0.428978
O O7 0.782017 0.782017 0.757470
O O8 0.811705 0.890362 0.624608
O O9 0.500000 0.880944 0.000000
O O10 0.455898 0.787898 0.849039
O O11 0.685246 0.500000 0.000000
#
# Coordination Sequence:
#
# PCOD8311698 Si02
#       6
#     8  16   8  16   8  16
#     4  12  24  40  67  84 128 185 212 266 328 384
#     4  12  23  38  64  90 127 171 216 266 328 388
#     4  12  24  38  64  99 138 166 217 279 334 408
#     4  11  22  41  60  89 128 167 217 263 314 386
#     4  12  22  36  58 102 134 162 205 282 340 386
#     4  11  22  43  60  96 131 173 215 261 333 398
#
# _framework density 19.767195000000001
#
# number of rings (size 3 to 8) (size 9 to 14) (size 15 to 20)
#    0.000    0.444    8.889    1.333    3.111    0.000 
#    0.000    0.556    0.000    0.333    0.000    0.000 
#    0.000    4.000    0.000    0.000    0.000    0.000 
#
# Total GULP energy -446164.897994 kJ/mol
# GULP energy per Si atom -12393.469389 kJ/mol
# Density = 1.972220 g / cm^3
# Si number density = 19.767195 Si / 1000 Ang^3
#
#
#
# Elastic Constant Matrix: (Units=GPa)
#
#
# Indices 1 2 3 4 5 6 
#
# 1 146.9116 42.6058 44.2918 0.0000 0.0000 0.0000
# 2 42.6058 146.9138 44.2909 0.0000 0.0000 0.0000
# 3 44.2918 44.2909 130.4334 0.0000 0.0000 0.0000
# 4 0.0000 0.0000 0.0000 26.3477 0.0000 0.0000
# 5 0.0000 0.0000 0.0000 0.0000 26.3479 0.0000
# 6 0.0000 0.0000 0.0000 0.0000 0.0000 15.6629
#
#
#
# Elastic Compliance Matrix: (Units=1/GPa)
#
#
# Indices 1 2 3 4 5 6 
#
# 1 0.007930 -0.001658 -0.002130 0.000000 0.000000 0.000000
# 2 -0.001658 0.007929 -0.002130 0.000000 0.000000 0.000000
# 3 -0.002130 -0.002130 0.009113 0.000000 0.000000 0.000000
# 4 0.000000 0.000000 0.000000 0.037954 0.000000 0.000000
# 5 0.000000 0.000000 0.000000 0.000000 0.037954 0.000000
# 6 0.000000 0.000000 0.000000 0.000000 0.000000 0.063845
#
#
# Mechanical properties :
#
#
# Convention : Reuss Voigt Hill
#
# Bulk Modulus (GPa) = 76.11486 76.29286 76.20386
# Shear Modulus (GPa) = 27.63365 33.20972 30.42168
#
# Velocity S-wave (km/s) = 3.74298 4.10328 3.92726
# Velocity P-wave (km/s) = 7.56764 7.81848 7.69408
#
# Compressibility (1/GPa) = 0.01313804
#
# Stress axis : x y z
#
# Youngs Moduli (GPa) = 126.10919 126.11190 109.73118
#
# Poissons Ratio (x) = 0.20904 0.23371
# Poissons Ratio (y) = 0.20903 0.23370
# Poissons Ratio (z) = 0.26859 0.26858
#
# Static dielectric constant tensor:
#      x y z
#    x 3.309670 0.000000 0.000000 
#    y 0.000000 3.309660 0.000000 
#    z 0.000000 0.000000 3.901350 
# 
# 
# High freq. dielectric constant tensor:
#      x y z
#    x 1.754340 0.000000 0.000000 
#    y 0.000000 1.754340 0.000000 
#    z 0.000000 0.000000 1.788130 
# 
# From -- ./inp_files/1763.got.cif
#   From: 2010.03.12/outbox.cif.g09.slc.cpg/sg121_1_cif.got.tgz:1763.got - 2010.04.06 16:06:48.
