data_PCOD8311739
_publ_section_title
;
Structure prediction by ZEFSAII (Michael W. Deem and Ramdas Pophale) SiO2 
 PCOD8311739
Probable space group: I -4 2 D
;
_chemical_formula_sum "Si O2"
_cell_formula_units_Z 96
_cell_length_a 23.402144
_cell_length_b 23.402144
_cell_length_c 10.225987
_cell_angle_alpha 90.000000
_cell_angle_beta 90.000000
_cell_angle_gamma 90.000000
_cell_volume 5600.367556
_symmetry_space_group_name_H-M "I -4 2 D"
_symmetry_group_IT_number 122
_symmetry_cell_setting 'tetragonal'
loop_
_space_group_symop_operation_xyz
x,y,z
y,-x,-z
-x,-y,z
-y,x,-z
x,1/2-y,1/4-z
-x,1/2+y,1/4-z
-y,1/2-x,1/4+z
y,1/2+x,1/4+z
1/2+x,1/2+y,1/2+z
1/2+y,1/2-x,1/2-z
1/2-x,1/2-y,1/2+z
1/2-y,1/2+x,1/2-z
1/2+x,-y,3/4-z
1/2-x,y,3/4-z
1/2-y,-x,3/4+z
1/2+y,x,3/4+z
loop_
_atom_site_type_symbol
_atom_site_label
_atom_site_fract_x
_atom_site_fract_y
_atom_site_fract_z
Si Si1 0.918383 0.682352 0.620745
Si Si2 0.685460 0.017814 0.637350
Si Si3 0.976983 0.820455 0.361134
Si Si4 0.182363 0.596132 0.370774
Si Si5 0.688960 0.895432 0.719859
Si Si6 0.898551 0.321559 0.971322
O O1 0.905521 0.750000 0.625000
O O2 0.960492 0.665317 0.503328
O O3 0.951264 0.660654 0.749770
O O4 0.858205 0.650463 0.600404
O O5 0.753062 0.018146 0.650567
O O6 0.660334 0.058554 0.749160
O O7 0.663529 0.953772 0.659761
O O8 0.933086 0.842298 0.251274
O O9 0.040520 0.844746 0.333289
O O10 0.250000 0.602814 0.375000
O O11 0.156597 0.659076 0.355095
O O12 0.755520 0.888623 0.686215
O O13 0.673640 0.895013 0.872730
#
# Coordination Sequence:
#
# PCOD8311739 Si02
#       6
#    16  16  16  16  16  16
#     4  10  20  34  55  79 108 140 171 214 271 322
#     4   9  17  33  53  76 101 137 183 213 247 311
#     4   9  19  33  52  76 104 139 178 213 255 313
#     4  10  18  32  54  79 105 137 173 216 264 312
#     4  10  19  32  57  82 104 135 180 223 257 308
#     4  10  19  34  55  80 106 139 176 219 265 308
#
# _framework density 17.141732000000001
#
# number of rings (size 3 to 8) (size 9 to 14) (size 15 to 20)
#    0.000    2.333    3.333    0.000    0.000    2.000 
#    0.000    2.500    0.000    6.000    0.000    0.000 
#    0.000    0.000    0.000    0.000    0.000    0.000 
#
# Total GULP energy -595085.094400 kJ/mol
# GULP energy per Si atom -12397.606133 kJ/mol
# Density = 1.710272 g / cm^3
# Si number density = 17.141732 Si / 1000 Ang^3
#
#
#
# Elastic Constant Matrix: (Units=GPa)
#
#
# Indices 1 2 3 4 5 6 
#
# 1 80.7457 49.4100 47.7235 0.0000 0.0000 0.0000
# 2 49.4100 80.7457 47.7235 0.0000 0.0000 0.0000
# 3 47.7235 47.7235 132.0245 0.0000 0.0000 0.0000
# 4 0.0000 0.0000 0.0000 25.3130 0.0000 0.0000
# 5 0.0000 0.0000 0.0000 0.0000 25.3130 0.0000
# 6 0.0000 0.0000 0.0000 0.0000 0.0000 10.6934
#
#
#
# Elastic Compliance Matrix: (Units=1/GPa)
#
#
# Indices 1 2 3 4 5 6 
#
# 1 0.021183 -0.010729 -0.003779 0.000000 0.000000 0.000000
# 2 -0.010729 0.021183 -0.003779 0.000000 0.000000 0.000000
# 3 -0.003779 -0.003779 0.010306 0.000000 0.000000 0.000000
# 4 0.000000 0.000000 0.000000 0.039505 0.000000 0.000000
# 5 0.000000 0.000000 0.000000 0.000000 0.039505 0.000000
# 6 0.000000 0.000000 0.000000 0.000000 0.000000 0.093516
#
#
# Mechanical properties :
#
#
# Convention : Reuss Voigt Hill
#
# Bulk Modulus (GPa) = 62.11517 64.80332 63.45924
# Shear Modulus (GPa) = 18.71677 22.17449 20.44563
#
# Velocity S-wave (km/s) = 3.30795 3.60056 3.45735
# Velocity P-wave (km/s) = 7.13477 7.42778 7.28275
#
# Compressibility (1/GPa) = 0.01609913
#
# Stress axis : x y z
#
# Youngs Moduli (GPa) = 47.20676 47.20676 97.02751
#
# Poissons Ratio (x) = 0.50649 0.36666
# Poissons Ratio (y) = 0.50649 0.36666
# Poissons Ratio (z) = 0.17839 0.17839
#
# Static dielectric constant tensor:
#      x y z
#    x 3.071690 0.000000 0.000000 
#    y 0.000000 3.071690 0.000000 
#    z 0.000000 0.000000 3.359640 
# 
# 
# High freq. dielectric constant tensor:
#      x y z
#    x 1.644920 0.000000 0.000000 
#    y 0.000000 1.644920 0.000000 
#    z 0.000000 0.000000 1.670940 
# 
# From -- ./inp_files/2883.got.cif
#   From: 2010.03.12/outbox.cif.g09.slc.cpg/sg122_2_cif.got.tgz:2883.got - 2010.04.06 16:17:16.
