data_PCOD8311857
_publ_section_title
;
Structure prediction by ZEFSAII (Michael W. Deem and Ramdas Pophale) SiO2 
 PCOD8311857
Probable space group: I -4 2 D
;
_chemical_formula_sum "Si O2"
_cell_formula_units_Z 96
_cell_length_a 14.812885
_cell_length_b 14.812885
_cell_length_c 21.763601
_cell_angle_alpha 90.000000
_cell_angle_beta 90.000000
_cell_angle_gamma 90.000000
_cell_volume 4775.403327
_symmetry_space_group_name_H-M "I -4 2 D"
_symmetry_group_IT_number 122
_symmetry_cell_setting 'tetragonal'
loop_
_space_group_symop_operation_xyz
x,y,z
y,-x,-z
-x,-y,z
-y,x,-z
x,1/2-y,1/4-z
-x,1/2+y,1/4-z
-y,1/2-x,1/4+z
y,1/2+x,1/4+z
1/2+x,1/2+y,1/2+z
1/2+y,1/2-x,1/2-z
1/2-x,1/2-y,1/2+z
1/2-y,1/2+x,1/2-z
1/2+x,-y,3/4-z
1/2-x,y,3/4-z
1/2-y,-x,3/4+z
1/2+y,x,3/4+z
loop_
_atom_site_type_symbol
_atom_site_label
_atom_site_fract_x
_atom_site_fract_y
_atom_site_fract_z
Si Si1 0.588857 0.882989 0.263204
Si Si2 0.245427 0.858347 0.710421
Si Si3 0.500000 0.000000 0.040347
Si Si4 0.845173 0.928202 0.359581
Si Si5 0.873477 0.250000 0.125000
Si Si6 0.041947 0.685280 0.002427
Si Si7 0.232045 0.793402 0.303456
O O1 0.481055 0.874784 0.257256
O O2 0.612121 0.871577 0.334491
O O3 0.635392 0.802714 0.225230
O O4 0.145422 0.826786 0.692443
O O5 0.313948 0.829173 0.656101
O O6 0.262778 0.805601 0.773472
O O7 0.253017 0.966375 0.723389
O O8 0.495649 0.086739 0.085693
O O9 0.413401 0.996691 0.996862
O O10 0.750000 0.976986 0.375000
O O11 0.936511 0.291587 0.072563
O O12 0.129408 0.676844 0.959324
O O13 0.250000 0.783782 0.375000
#
# Coordination Sequence:
#
# PCOD8311857 Si02
#       7
#    16  16   8  16   8  16  16
#     4  11  25  38  60  96 134 174 206 250 320 393
#     4  10  21  44  65  90 122 171 217 261 331 388
#     4  10  24  36  59 102 127 156 216 264 316 376
#     4  11  20  40  61  82 127 172 201 250 308 390
#     4  10  20  46  68  88 128 172 216 282 330 396
#     4  10  24  41  66  96 125 171 221 266 336 396
#     4  11  25  42  64  99 129 166 217 273 322 383
#
# _framework density 20.103014999999999
#
# number of rings (size 3 to 8) (size 9 to 14) (size 15 to 20)
#    0.000    1.500    2.500    2.000   10.500    0.000 
#    6.000    0.000    0.000    4.500    0.000    0.000 
#    0.000    0.000    0.000    0.000    0.000    0.000 
#
# Total GULP energy -595029.854618 kJ/mol
# GULP energy per Si atom -12396.455305 kJ/mol
# Density = 2.005726 g / cm^3
# Si number density = 20.103015 Si / 1000 Ang^3
#
#
#
# Elastic Constant Matrix: (Units=GPa)
#
#
# Indices 1 2 3 4 5 6 
#
# 1 129.4843 52.0715 46.1472 0.0000 0.0000 0.0000
# 2 52.0715 129.4843 46.1472 0.0000 0.0000 0.0000
# 3 46.1472 46.1472 129.5566 0.0000 0.0000 0.0000
# 4 0.0000 0.0000 0.0000 26.7049 0.0000 0.0000
# 5 0.0000 0.0000 0.0000 0.0000 26.7049 0.0000
# 6 0.0000 0.0000 0.0000 0.0000 0.0000 29.0410
#
#
#
# Elastic Compliance Matrix: (Units=1/GPa)
#
#
# Indices 1 2 3 4 5 6 
#
# 1 0.009822 -0.003096 -0.002396 0.000000 0.000000 0.000000
# 2 -0.003096 0.009822 -0.002396 0.000000 0.000000 0.000000
# 3 -0.002396 -0.002396 0.009425 0.000000 0.000000 0.000000
# 4 0.000000 0.000000 0.000000 0.037446 0.000000 0.000000
# 5 0.000000 0.000000 0.000000 0.000000 0.037446 0.000000
# 6 0.000000 0.000000 0.000000 0.000000 0.000000 0.034434
#
#
# Mechanical properties :
#
#
# Convention : Reuss Voigt Hill
#
# Bulk Modulus (GPa) = 75.22107 75.25079 75.23593
# Shear Modulus (GPa) = 31.52554 32.76745 32.14649
#
# Velocity S-wave (km/s) = 3.96435 4.04168 4.00320
# Velocity P-wave (km/s) = 7.64551 7.70026 7.67293
#
# Compressibility (1/GPa) = 0.01329415
#
# Stress axis : x y z
#
# Youngs Moduli (GPa) = 101.81451 101.81451 106.09757
#
# Poissons Ratio (x) = 0.31522 0.25418
# Poissons Ratio (y) = 0.31522 0.25418
# Poissons Ratio (z) = 0.24392 0.24392
#
# Static dielectric constant tensor:
#      x y z
#    x 3.711850 0.000000 0.000000 
#    y 0.000000 3.711850 0.000000 
#    z 0.000000 0.000000 3.670470 
# 
# 
# High freq. dielectric constant tensor:
#      x y z
#    x 1.785100 0.000000 0.000000 
#    y 0.000000 1.785100 0.000000 
#    z 0.000000 0.000000 1.786590 
# 
# From -- ./inp_files/7336.got.cif
#   From: 2010.03.12/outbox.cif.g09.slc.cpg/sg122_4_cif.got.tgz:7336.got - 2010.04.06 16:17:16.
