data_PCOD8311016
_publ_section_title
;
Structure prediction by ZEFSAII (Michael W. Deem and Ramdas Pophale) SiO2 
 PCOD8311016
Probable space group: I -4 M 2
;
_chemical_formula_sum "Si O2"
_cell_formula_units_Z 80
_cell_length_a 26.810793
_cell_length_b 26.810793
_cell_length_c 5.400965
_cell_angle_alpha 90.000000
_cell_angle_beta 90.000000
_cell_angle_gamma 90.000000
_cell_volume 3882.314215
_symmetry_space_group_name_H-M "I -4 M 2"
_symmetry_group_IT_number 119
_symmetry_cell_setting 'tetragonal'
loop_
_space_group_symop_operation_xyz
x,y,z
y,-x,-z
-x,-y,z
-y,x,-z
y,x,-z
-y,-x,-z
-x,y,z
x,-y,z
1/2+x,1/2+y,1/2+z
1/2+y,1/2-x,1/2-z
1/2-x,1/2-y,1/2+z
1/2-y,1/2+x,1/2-z
1/2+y,1/2+x,1/2-z
1/2-y,1/2-x,1/2-z
1/2-x,1/2+y,1/2+z
1/2+x,1/2-y,1/2+z
loop_
_atom_site_type_symbol
_atom_site_label
_atom_site_fract_x
_atom_site_fract_y
_atom_site_fract_z
Si Si1 0.869292 0.369292 0.750000
Si Si2 0.441773 0.134783 0.629567
Si Si3 0.196325 0.057720 0.465354
Si Si4 0.637367 0.442729 0.462424
Si Si5 0.785519 0.380770 0.121529
Si Si6 0.226807 0.726807 0.250000
O O1 0.864245 0.426819 0.660084
O O2 0.856863 0.330444 0.535963
O O3 0.500000 0.126367 0.671060
O O4 0.411041 0.088960 0.750000
O O5 0.424646 0.189806 0.716245
O O6 0.164206 0.073698 0.707011
O O7 0.244278 0.092959 0.453453
O O8 0.211732 0.000000 0.490251
O O9 0.170428 0.067983 0.203826
O O10 0.586485 0.413516 0.500000
O O11 0.622002 0.500000 0.444944
O O12 0.762386 0.333054 0.264477
O O13 0.249291 0.750709 0.500000
#
# Coordination Sequence:
#
# PCOD8311016 Si02
#       6
#     8  16  16  16  16   8
#     4  10  21  40  64  93 129 164 224 271 322 394
#     4  10  22  40  66  93 130 172 220 276 333 398
#     4  10  23  39  63  93 125 163 211 263 314 375
#     4  10  22  41  62  92 127 161 207 261 318 385
#     4  11  23  43  63  89 129 170 218 266 330 392
#     4  12  27  42  66  96 130 172 223 273 328 394
#
# _framework density 20.606268
#
# number of rings (size 3 to 8) (size 9 to 14) (size 15 to 20)
#    0.000    1.600    3.000    1.800    2.800    6.800 
#    0.000    0.000    0.000    3.600    0.000    0.000 
#    0.000    0.000    0.000    0.000    0.000    0.000 
#
# Total GULP energy -495700.515897 kJ/mol
# GULP energy per Si atom -12392.512897 kJ/mol
# Density = 2.055937 g / cm^3
# Si number density = 20.606268 Si / 1000 Ang^3
#
#
#
# Elastic Constant Matrix: (Units=GPa)
#
#
# Indices 1 2 3 4 5 6 
#
# 1 86.6949 61.8064 20.2920 0.0000 0.0000 0.0000
# 2 61.8064 86.6969 20.2980 0.0000 0.0000 0.0000
# 3 20.2920 20.2980 106.0973 0.0000 0.0000 0.0000
# 4 0.0000 0.0000 0.0000 23.0918 0.0000 0.0000
# 5 0.0000 0.0000 0.0000 0.0000 23.0937 0.0000
# 6 0.0000 0.0000 0.0000 0.0000 0.0000 37.2569
#
#
#
# Elastic Compliance Matrix: (Units=1/GPa)
#
#
# Indices 1 2 3 4 5 6 
#
# 1 0.023641 -0.016536 -0.001358 0.000000 0.000000 0.000000
# 2 -0.016536 0.023642 -0.001360 0.000000 0.000000 0.000000
# 3 -0.001358 -0.001360 0.009945 0.000000 0.000000 0.000000
# 4 0.000000 0.000000 0.000000 0.043305 0.000000 0.000000
# 5 0.000000 0.000000 0.000000 0.000000 0.043302 0.000000
# 6 0.000000 0.000000 0.000000 0.000000 0.000000 0.026841
#
#
# Mechanical properties :
#
#
# Convention : Reuss Voigt Hill
#
# Bulk Modulus (GPa) = 53.42045 53.80910 53.61477
# Shear Modulus (GPa) = 23.20996 28.49466 25.85231
#
# Velocity S-wave (km/s) = 3.35976 3.72266 3.54585
# Velocity P-wave (km/s) = 6.40557 6.68186 6.54517
#
# Compressibility (1/GPa) = 0.01871942
#
# Stress axis : x y z
#
# Youngs Moduli (GPa) = 42.29864 42.29849 100.55006
#
# Poissons Ratio (x) = 0.69945 0.13655
# Poissons Ratio (y) = 0.69945 0.13678
# Poissons Ratio (z) = 0.05744 0.05754
#
# Static dielectric constant tensor:
#      x y z
#    x 3.668210 0.000000 0.000000 
#    y 0.000000 3.668210 0.000000 
#    z 0.000000 0.000000 4.059580 
# 
# 
# High freq. dielectric constant tensor:
#      x y z
#    x 1.802500 0.000000 0.000000 
#    y 0.000000 1.802500 0.000000 
#    z 0.000000 0.000000 1.818260 
# 
# From -- ./inp_files/1044.got.cif
#   From: 2010.03.12/outbox.cif.g09.slc.cpg/sg119_1_cif.got.tgz:1044.got - 2010.04.14 02:25:26.
