data_PCOD8311644
_publ_section_title
;
Structure prediction by ZEFSAII (Michael W. Deem and Ramdas Pophale) SiO2 
 PCOD8311644
Probable space group: I -4 2 M
;
_chemical_formula_sum "Si O2"
_cell_formula_units_Z 64
_cell_length_a 19.100944
_cell_length_b 19.100944
_cell_length_c 8.401861
_cell_angle_alpha 90.000000
_cell_angle_beta 90.000000
_cell_angle_gamma 90.000000
_cell_volume 3065.385897
_symmetry_space_group_name_H-M "I -4 2 M"
_symmetry_group_IT_number 121
_symmetry_cell_setting 'tetragonal'
loop_
_space_group_symop_operation_xyz
x,y,z
y,-x,-z
-x,-y,z
-y,x,-z
x,-y,-z
-x,y,-z
-y,-x,z
y,x,z
1/2+x,1/2+y,1/2+z
1/2+y,1/2-x,1/2-z
1/2-x,1/2-y,1/2+z
1/2-y,1/2+x,1/2-z
1/2+x,1/2-y,1/2-z
1/2-x,1/2+y,1/2-z
1/2-y,1/2-x,1/2+z
1/2+y,1/2+x,1/2+z
loop_
_atom_site_type_symbol
_atom_site_label
_atom_site_fract_x
_atom_site_fract_y
_atom_site_fract_z
Si Si1 0.594032 0.239268 0.757884
Si Si2 0.161962 0.161962 0.512530
Si Si3 0.534488 0.907925 0.168411
Si Si4 0.132175 0.132175 0.154013
Si Si5 0.500000 0.304142 0.500000
Si Si6 0.275337 0.724664 0.563881
O O1 0.576457 0.164848 0.835797
O O2 0.533670 0.255247 0.632889
O O3 0.668106 0.233971 0.668914
O O4 0.598161 0.301693 0.889762
O O5 0.133600 0.133600 0.345466
O O6 0.220734 0.220734 0.500185
O O7 0.471004 0.910671 0.297109
O O8 0.500000 0.921071 0.000000
O O9 0.147477 0.055414 0.089279
O O10 0.187986 0.187986 0.087463
#
# Coordination Sequence:
#
# PCOD8311644 Si02
#       6
#    16   8  16   8   8   8
#     4  10  24  40  67  94 132 170 221 267 337 388
#     4  11  23  41  65 105 125 159 222 287 324 388
#     4  11  26  43  62  93 136 184 232 270 312 392
#     4  10  22  41  65  91 132 161 216 264 324 410
#     4  10  24  43  66  91 126 178 202 258 342 398
#     4   9  21  43  62  96 131 168 210 274 340 392
#
# _framework density 20.878284000000001
#
# number of rings (size 3 to 8) (size 9 to 14) (size 15 to 20)
#    0.000    1.750    0.000    3.750   10.500    2.250 
#    0.000    0.000    0.000    1.500    0.000    0.000 
#    0.000    0.000    0.000    0.000    0.000    0.000 
#
# Total GULP energy -396799.896118 kJ/mol
# GULP energy per Si atom -12399.996754 kJ/mol
# Density = 2.083076 g / cm^3
# Si number density = 20.878284 Si / 1000 Ang^3
#
#
#
# Elastic Constant Matrix: (Units=GPa)
#
#
# Indices 1 2 3 4 5 6 
#
# 1 86.2223 45.0614 35.3894 0.0000 0.0000 0.0000
# 2 45.0614 86.2206 35.3911 0.0000 0.0000 0.0000
# 3 35.3894 35.3911 136.1049 0.0000 0.0000 0.0000
# 4 0.0000 0.0000 0.0000 29.6903 0.0000 0.0000
# 5 0.0000 0.0000 0.0000 0.0000 29.6900 0.0000
# 6 0.0000 0.0000 0.0000 0.0000 0.0000 41.9613
#
#
#
# Elastic Compliance Matrix: (Units=1/GPa)
#
#
# Indices 1 2 3 4 5 6 
#
# 1 0.016577 -0.007718 -0.002303 0.000000 0.000000 0.000000
# 2 -0.007718 0.016578 -0.002304 0.000000 0.000000 0.000000
# 3 -0.002303 -0.002304 0.008545 0.000000 0.000000 0.000000
# 4 0.000000 0.000000 0.000000 0.033681 0.000000 0.000000
# 5 0.000000 0.000000 0.000000 0.000000 0.033681 0.000000
# 6 0.000000 0.000000 0.000000 0.000000 0.000000 0.023831
#
#
# Mechanical properties :
#
#
# Convention : Reuss Voigt Hill
#
# Bulk Modulus (GPa) = 58.65386 60.02574 59.33980
# Shear Modulus (GPa) = 30.63214 33.11537 31.87376
#
# Velocity S-wave (km/s) = 3.83453 3.98693 3.91147
# Velocity P-wave (km/s) = 6.91079 7.07155 6.99163
#
# Compressibility (1/GPa) = 0.01704918
#
# Stress axis : x y z
#
# Youngs Moduli (GPa) = 60.32463 60.32261 117.02441
#
# Poissons Ratio (x) = 0.46558 0.26955
# Poissons Ratio (y) = 0.46560 0.26960
# Poissons Ratio (z) = 0.13895 0.13897
#
# Static dielectric constant tensor:
#      x y z
#    x 3.793400 0.000000 0.000000 
#    y 0.000000 3.793400 0.000000 
#    z 0.000000 0.000000 4.021700 
# 
# 
# High freq. dielectric constant tensor:
#      x y z
#    x 1.810110 0.000000 0.000000 
#    y 0.000000 1.810110 0.000000 
#    z 0.000000 0.000000 1.836190 
# 
# From -- ./inp_files/1660.got.cif
#   From: 2010.03.12/outbox.cif.g09.slc.cpg/sg121_1_cif.got.tgz:1660.got - 2010.04.06 16:06:48.
