data_PCOD8311358
_publ_section_title
;
Structure prediction by ZEFSAII (Michael W. Deem and Ramdas Pophale) SiO2 
 PCOD8311358
Probable space group: I -4 2 M
;
_chemical_formula_sum "Si O2"
_cell_formula_units_Z 128
_cell_length_a 24.119939
_cell_length_b 24.119939
_cell_length_c 12.062141
_cell_angle_alpha 90.000000
_cell_angle_beta 90.000000
_cell_angle_gamma 90.000000
_cell_volume 7017.409348
_symmetry_space_group_name_H-M "I -4 2 M"
_symmetry_group_IT_number 121
_symmetry_cell_setting 'tetragonal'
loop_
_space_group_symop_operation_xyz
x,y,z
y,-x,-z
-x,-y,z
-y,x,-z
x,-y,-z
-x,y,-z
-y,-x,z
y,x,z
1/2+x,1/2+y,1/2+z
1/2+y,1/2-x,1/2-z
1/2-x,1/2-y,1/2+z
1/2-y,1/2+x,1/2-z
1/2+x,1/2-y,1/2-z
1/2-x,1/2+y,1/2-z
1/2-y,1/2-x,1/2+z
1/2+y,1/2+x,1/2+z
loop_
_atom_site_type_symbol
_atom_site_label
_atom_site_fract_x
_atom_site_fract_y
_atom_site_fract_z
Si Si1 0.937282 0.850911 0.964121
Si Si2 0.477382 0.182855 0.323607
Si Si3 0.360095 0.270714 0.593766
Si Si4 0.050879 0.352208 0.582596
Si Si5 0.161340 0.586977 0.458772
Si Si6 0.591761 0.680127 0.806103
Si Si7 0.564471 0.267685 0.973311
Si Si8 0.966635 0.192432 0.254529
O O1 0.907233 0.907233 0.002336
O O2 0.934750 0.846741 0.831205
O O3 0.906958 0.798829 0.018082
O O4 0.000000 0.852038 0.000000
O O5 0.470729 0.147907 0.209846
O O6 0.431126 0.164724 0.412726
O O7 0.537987 0.175177 0.374094
O O8 0.471657 0.247080 0.297418
O O9 0.299489 0.299489 0.571730
O O10 0.362320 0.205175 0.564176
O O11 0.377335 0.279044 0.721289
O O12 0.098138 0.397779 0.567071
O O13 0.082316 0.294959 0.552657
O O14 0.000000 0.365487 0.500000
O O15 0.619988 0.619988 0.805132
O O16 0.527973 0.669050 0.777576
O O17 0.599881 0.708223 0.926059
O O18 0.570913 0.306655 0.865280
O O19 0.500000 0.264585 0.000000
#
# Coordination Sequence:
#
# PCOD8311358 Si02
#       8
#    16  16  16  16  16  16  16  16
#     4  11  20  31  49  75 109 144 181 235 285 336
#     4  10  21  37  59  89 106 151 201 227 285 348
#     4  10  20  33  56  88 113 144 190 240 289 343
#     4  10  23  38  60  85 114 147 190 239 285 342
#     4  11  21  37  65  83 115 156 188 237 288 345
#     4  10  18  30  54  80 108 142 184 239 281 326
#     4   8  18  34  52  77 102 139 181 228 270 329
#     4  10  17  34  54  76 110 138 194 238 273 334
#
# _framework density 18.240349999999999
#
# number of rings (size 3 to 8) (size 9 to 14) (size 15 to 20)
#    0.000    2.000    3.750    0.750    1.750    0.625 
#    0.000    1.875    0.000    1.500    0.000    0.000 
#    0.000    0.000    0.000    0.000    0.000    0.000 
#
# Total GULP energy -793350.816264 kJ/mol
# GULP energy per Si atom -12396.106504 kJ/mol
# Density = 1.819883 g / cm^3
# Si number density = 18.240350 Si / 1000 Ang^3
#
#
#
# Elastic Constant Matrix: (Units=GPa)
#
#
# Indices 1 2 3 4 5 6 
#
# 1 64.6573 23.3830 29.5972 0.0000 0.0000 0.0000
# 2 23.3830 64.6573 29.5972 0.0000 0.0000 0.0000
# 3 29.5972 29.5972 141.1834 0.0000 0.0000 0.0000
# 4 0.0000 0.0000 0.0000 18.1843 0.0000 0.0000
# 5 0.0000 0.0000 0.0000 0.0000 18.1843 0.0000
# 6 0.0000 0.0000 0.0000 0.0000 0.0000 22.5445
#
#
#
# Elastic Compliance Matrix: (Units=1/GPa)
#
#
# Indices 1 2 3 4 5 6 
#
# 1 0.018725 -0.005503 -0.002772 0.000000 0.000000 0.000000
# 2 -0.005503 0.018725 -0.002772 0.000000 0.000000 0.000000
# 3 -0.002772 -0.002772 0.008245 0.000000 0.000000 0.000000
# 4 0.000000 0.000000 0.000000 0.054993 0.000000 0.000000
# 5 0.000000 0.000000 0.000000 0.000000 0.054993 0.000000
# 6 0.000000 0.000000 0.000000 0.000000 0.000000 0.044357
#
#
# Mechanical properties :
#
#
# Convention : Reuss Voigt Hill
#
# Bulk Modulus (GPa) = 42.36931 48.40586 45.38758
# Shear Modulus (GPa) = 21.73933 24.31066 23.02499
#
# Velocity S-wave (km/s) = 3.45603 3.65471 3.55676
# Velocity P-wave (km/s) = 6.26133 6.66368 6.46564
#
# Compressibility (1/GPa) = 0.02360199
#
# Stress axis : x y z
#
# Youngs Moduli (GPa) = 53.40424 53.40424 121.28363
#
# Poissons Ratio (x) = 0.29388 0.33618
# Poissons Ratio (y) = 0.29388 0.33618
# Poissons Ratio (z) = 0.14803 0.14803
#
# Static dielectric constant tensor:
#      x y z
#    x 3.176480 0.000000 0.000000 
#    y 0.000000 3.176480 0.000000 
#    z 0.000000 0.000000 4.352600 
# 
# 
# High freq. dielectric constant tensor:
#      x y z
#    x 1.684420 0.000000 0.000000 
#    y 0.000000 1.684420 0.000000 
#    z 0.000000 0.000000 1.729640 
# 
# From -- ./inp_files/3563.got.cif
#   From: 2010.03.12/outbox.cif.g09.slc.cpg/sg121_2_cif.got.tgz:3563.got - 2010.04.06 16:06:48.
