data_PCOD8311208
_publ_section_title
;
Structure prediction by ZEFSAII (Michael W. Deem and Ramdas Pophale) SiO2 
 PCOD8311208
Probable space group: I -4 C 2
;
_chemical_formula_sum "Si O2"
_cell_formula_units_Z 64
_cell_length_a 24.978919
_cell_length_b 24.978919
_cell_length_c 5.089337
_cell_angle_alpha 90.000000
_cell_angle_beta 90.000000
_cell_angle_gamma 90.000000
_cell_volume 3175.473471
_symmetry_space_group_name_H-M "I -4 C 2"
_symmetry_group_IT_number 120
_symmetry_cell_setting 'tetragonal'
loop_
_space_group_symop_operation_xyz
x,y,z
y,-x,-z
-x,-y,z
-y,x,-z
y,x,1/2-z
-y,-x,1/2-z
-x,y,1/2+z
x,-y,1/2+z
1/2+x,1/2+y,1/2+z
1/2+y,1/2-x,1/2-z
1/2-x,1/2-y,1/2+z
1/2-y,1/2+x,1/2-z
1/2+y,1/2+x,-z
1/2-y,1/2-x,-z
1/2-x,1/2+y,z
1/2+x,1/2-y,z
loop_
_atom_site_type_symbol
_atom_site_label
_atom_site_fract_x
_atom_site_fract_y
_atom_site_fract_z
Si Si1 0.026062 0.782260 0.365480
Si Si2 0.159508 0.525853 0.772684
Si Si3 0.192613 0.692613 0.500000
Si Si4 0.646176 0.694236 0.488970
Si Si5 0.143178 0.643178 0.000000
O O1 0.012132 0.720803 0.296652
O O2 0.084757 0.788031 0.486972
O O3 0.985447 0.808986 0.580769
O O4 0.132716 0.515318 0.486420
O O5 0.152627 0.584421 0.889019
O O6 0.254369 0.683299 0.566468
O O7 0.155143 0.681648 0.753705
O O8 0.653587 0.653587 0.250000
O O9 0.663201 0.663201 0.750000
#
# Coordination Sequence:
#
# PCOD8311208 Si02
#       5
#    16  16   8  16   8
#     4  10  21  38  59  83 113 152 199 247 284 331
#     4  10  21  36  57  81 107 145 197 255 302 341
#     4  12  24  37  56  86 122 167 193 228 279 359
#     4  12  24  39  57  86 126 164 194 230 290 357
#     4  12  22  37  60  81 114 146 207 244 295 360
#
# _framework density 20.154475000000001
#
# number of rings (size 3 to 8) (size 9 to 14) (size 15 to 20)
#    0.000    1.000    2.500    5.250    7.000    0.000 
#    0.000    0.000    0.000    2.250    0.000    0.000 
#    0.000   35.000    0.000    0.000    0.000    0.000 
#
# Total GULP energy -396440.186698 kJ/mol
# GULP energy per Si atom -12388.755834 kJ/mol
# Density = 2.010860 g / cm^3
# Si number density = 20.154475 Si / 1000 Ang^3
#
#
#
# Elastic Constant Matrix: (Units=GPa)
#
#
# Indices 1 2 3 4 5 6 
#
# 1 45.7120 24.7806 51.5790 0.0000 0.0000 0.0000
# 2 24.7806 45.7120 51.5790 0.0000 0.0000 0.0000
# 3 51.5790 51.5790 195.3326 0.0000 0.0000 0.0000
# 4 0.0000 0.0000 0.0000 18.3245 0.0000 0.0000
# 5 0.0000 0.0000 0.0000 0.0000 18.3245 0.0000
# 6 0.0000 0.0000 0.0000 0.0000 0.0000 15.6214
#
#
#
# Elastic Compliance Matrix: (Units=1/GPa)
#
#
# Indices 1 2 3 4 5 6 
#
# 1 0.035447 -0.012328 -0.006105 0.000000 0.000000 0.000000
# 2 -0.012328 0.035447 -0.006105 0.000000 0.000000 0.000000
# 3 -0.006105 -0.006105 0.008344 0.000000 0.000000 0.000000
# 4 0.000000 0.000000 0.000000 0.054572 0.000000 0.000000
# 5 0.000000 0.000000 0.000000 0.000000 0.054572 0.000000
# 6 0.000000 0.000000 0.000000 0.000000 0.000000 0.064015
#
#
# Mechanical properties :
#
#
# Convention : Reuss Voigt Hill
#
# Bulk Modulus (GPa) = 33.15279 60.29263 46.72271
# Shear Modulus (GPa) = 16.05003 21.04198 18.54600
#
# Velocity S-wave (km/s) = 2.82503 3.23466 3.03676
# Velocity P-wave (km/s) = 5.20827 6.62804 5.96058
#
# Compressibility (1/GPa) = 0.03016338
#
# Stress axis : x y z
#
# Youngs Moduli (GPa) = 28.21076 28.21076 119.85259
#
# Poissons Ratio (x) = 0.34777 0.73169
# Poissons Ratio (y) = 0.34777 0.73169
# Poissons Ratio (z) = 0.17223 0.17223
#
# Static dielectric constant tensor:
#      x y z
#    x 3.330520 0.000000 0.000000 
#    y 0.000000 3.330520 0.000000 
#    z 0.000000 0.000000 4.765140 
# 
# 
# High freq. dielectric constant tensor:
#      x y z
#    x 1.751140 0.000000 0.000000 
#    y 0.000000 1.751140 0.000000 
#    z 0.000000 0.000000 1.833530 
# 
# From -- ./inp_files/368.got.cif
#   From: 2010.03.12/outbox.cif.g09.slc.cpg/sg120_1_cif.got.tgz:368.got - 2010.04.06 16:00:44.
