data_PCOD8311561
_publ_section_title
;
Structure prediction by ZEFSAII (Michael W. Deem and Ramdas Pophale) SiO2 
 PCOD8311561
Probable space group: I -4 2 M
;
_chemical_formula_sum "Si O2"
_cell_formula_units_Z 88
_cell_length_a 13.200751
_cell_length_b 13.200751
_cell_length_c 26.745931
_cell_angle_alpha 90.000000
_cell_angle_beta 90.000000
_cell_angle_gamma 90.000000
_cell_volume 4660.741308
_symmetry_space_group_name_H-M "I -4 2 M"
_symmetry_group_IT_number 121
_symmetry_cell_setting 'tetragonal'
loop_
_space_group_symop_operation_xyz
x,y,z
y,-x,-z
-x,-y,z
-y,x,-z
x,-y,-z
-x,y,-z
-y,-x,z
y,x,z
1/2+x,1/2+y,1/2+z
1/2+y,1/2-x,1/2-z
1/2-x,1/2-y,1/2+z
1/2-y,1/2+x,1/2-z
1/2+x,1/2-y,1/2-z
1/2-x,1/2+y,1/2-z
1/2-y,1/2-x,1/2+z
1/2+y,1/2+x,1/2+z
loop_
_atom_site_type_symbol
_atom_site_label
_atom_site_fract_x
_atom_site_fract_y
_atom_site_fract_z
Si Si1 0.769805 0.067255 0.173674
Si Si2 0.500000 0.665064 0.500000
Si Si3 0.888987 0.725717 0.361155
Si Si4 0.763881 0.404451 0.409021
Si Si5 0.882010 0.483938 0.942476
Si Si6 0.335963 0.499138 0.220907
O O1 0.876479 0.123522 0.159218
O O2 0.677472 0.144041 0.168217
O O3 0.747632 0.967359 0.141666
O O4 0.771907 0.032579 0.230912
O O5 0.597067 0.597067 0.487399
O O6 0.517683 0.737350 0.546789
O O7 0.822213 0.822213 0.377134
O O8 0.979138 0.758894 0.324192
O O9 0.933015 0.679641 0.411732
O O10 0.688370 0.311631 0.406606
O O11 0.873434 0.356808 0.420284
O O12 0.000000 0.500000 0.934529
O O13 0.849899 0.500000 0.000000
O O14 0.401051 0.598950 0.234291
O O15 0.408361 0.408361 0.203140
#
# Coordination Sequence:
#
# PCOD8311561 Si02
#       6
#    16   8  16  16  16  16
#     4  10  20  36  59  89 124 159 192 239 302 365
#     4   9  18  32  51  82 122 156 189 234 289 352
#     4  10  22  40  62  85 115 158 200 240 297 354
#     4  11  22  35  57  88 117 154 198 244 294 357
#     4  11  23  41  59  82 117 157 196 243 296 347
#     4   9  19  37  60  86 118 156 199 246 291 344
#
# _framework density 18.881117
#
# number of rings (size 3 to 8) (size 9 to 14) (size 15 to 20)
#    0.000    1.909    1.818    2.182    0.000    4.727 
#    0.000    1.818    0.000    0.000    0.000    1.273 
#    0.000    0.000    0.000    0.000    0.000    0.000 
#
# Total GULP energy -545726.179336 kJ/mol
# GULP energy per Si atom -12402.867712 kJ/mol
# Density = 1.883814 g / cm^3
# Si number density = 18.881117 Si / 1000 Ang^3
#
#
#
# Elastic Constant Matrix: (Units=GPa)
#
#
# Indices 1 2 3 4 5 6 
#
# 1 91.2894 32.4309 60.9372 0.0000 0.0000 0.0000
# 2 32.4309 91.2890 60.9376 0.0000 0.0000 0.0000
# 3 60.9372 60.9376 133.7135 0.0000 0.0000 0.0000
# 4 0.0000 0.0000 0.0000 28.8349 0.0000 0.0000
# 5 0.0000 0.0000 0.0000 0.0000 28.8346 0.0000
# 6 0.0000 0.0000 0.0000 0.0000 0.0000 19.1696
#
#
#
# Elastic Compliance Matrix: (Units=1/GPa)
#
#
# Indices 1 2 3 4 5 6 
#
# 1 0.015829 -0.001161 -0.006684 0.000000 0.000000 0.000000
# 2 -0.001161 0.015829 -0.006684 0.000000 0.000000 0.000000
# 3 -0.006684 -0.006684 0.013571 0.000000 0.000000 0.000000
# 4 0.000000 0.000000 0.000000 0.034680 0.000000 0.000000
# 5 0.000000 0.000000 0.000000 0.000000 0.034681 0.000000
# 6 0.000000 0.000000 0.000000 0.000000 0.000000 0.052166
#
#
# Mechanical properties :
#
#
# Convention : Reuss Voigt Hill
#
# Bulk Modulus (GPa) = 61.84853 69.43370 65.64112
# Shear Modulus (GPa) = 24.85027 26.16690 25.50859
#
# Velocity S-wave (km/s) = 3.63181 3.72678 3.67960
# Velocity P-wave (km/s) = 7.10032 7.44127 7.27279
#
# Compressibility (1/GPa) = 0.01616853
#
# Stress axis : x y z
#
# Youngs Moduli (GPa) = 63.17670 63.17592 73.68506
#
# Poissons Ratio (x) = 0.07336 0.49254
# Poissons Ratio (y) = 0.07336 0.49255
# Poissons Ratio (z) = 0.42230 0.42230
#
# Static dielectric constant tensor:
#      x y z
#    x 3.589270 0.000000 0.000000 
#    y 0.000000 3.589250 0.000000 
#    z 0.000000 0.000000 3.434410 
# 
# 
# High freq. dielectric constant tensor:
#      x y z
#    x 1.733800 0.000000 0.000000 
#    y 0.000000 1.733800 0.000000 
#    z 0.000000 0.000000 1.732660 
# 
# From -- ./inp_files/8236.got.cif
#   From: 2010.03.12/outbox.cif.g09.slc.cpg/sg121_5_cif.got.tgz:8236.got - 2010.04.06 16:06:48.
