data_PCOD8311240
_publ_section_title
;
Structure prediction by ZEFSAII (Michael W. Deem and Ramdas Pophale) SiO2 
 PCOD8311240
Probable space group: I -4 C 2
;
_chemical_formula_sum "Si O2"
_cell_formula_units_Z 84
_cell_length_a 21.499666
_cell_length_b 21.499666
_cell_length_c 9.504830
_cell_angle_alpha 90.000000
_cell_angle_beta 90.000000
_cell_angle_gamma 90.000000
_cell_volume 4393.471160
_symmetry_space_group_name_H-M "I -4 C 2"
_symmetry_group_IT_number 120
_symmetry_cell_setting 'tetragonal'
loop_
_space_group_symop_operation_xyz
x,y,z
y,-x,-z
-x,-y,z
-y,x,-z
y,x,1/2-z
-y,-x,1/2-z
-x,y,1/2+z
x,-y,1/2+z
1/2+x,1/2+y,1/2+z
1/2+y,1/2-x,1/2-z
1/2-x,1/2-y,1/2+z
1/2-y,1/2+x,1/2-z
1/2+y,1/2+x,-z
1/2-y,1/2-x,-z
1/2-x,1/2+y,z
1/2+x,1/2-y,z
loop_
_atom_site_type_symbol
_atom_site_label
_atom_site_fract_x
_atom_site_fract_y
_atom_site_fract_z
Si Si1 0.193010 0.306991 0.500000
Si Si2 0.109406 0.020664 0.323913
Si Si3 0.573530 0.263019 0.515124
Si Si4 0.212613 0.041171 0.678116
Si Si5 0.279069 0.279069 0.750000
Si Si6 0.000000 0.000000 0.500000
Si Si7 0.326985 0.627965 0.465686
O O1 0.205576 0.380106 0.511557
O O2 0.220759 0.275483 0.642977
O O3 0.078683 0.078683 0.250000
O O4 0.157954 0.055776 0.424956
O O5 0.058662 0.979520 0.406531
O O6 0.140820 0.975941 0.211293
O O7 0.547643 0.253807 0.671835
O O8 0.516413 0.257004 0.407019
O O9 0.613034 0.327861 0.496192
O O10 0.213395 0.109871 0.604309
O O11 0.341116 0.282306 0.651748
#
# Coordination Sequence:
#
# PCOD8311240 Si02
#       7
#     8  16  16  16   8   4  16
#     4  10  24  40  60  92 118 157 200 255 298 364
#     4  12  20  36  45  72 105 154 200 254 281 329
#     4  11  24  40  60  85 120 158 201 248 297 360
#     4  12  23  38  60  79 113 161 200 247 302 346
#     4  10  22  40  64  81 118 152 199 252 300 356
#     4  12  26  28  44  66 108 150 212 262 292 314
#     4  11  21  39  57  80 114 156 206 244 297 344
#
# _framework density 19.119281000000001
#
# number of rings (size 3 to 8) (size 9 to 14) (size 15 to 20)
#    0.000    0.762    4.762    4.286    5.333    1.524 
#    0.000    0.000    0.000    0.000    0.000    0.000 
#    0.000    2.286    0.000    0.000    0.000    0.000 
#
# Total GULP energy -520331.496911 kJ/mol
# GULP energy per Si atom -12388.845165 kJ/mol
# Density = 1.907576 g / cm^3
# Si number density = 19.119281 Si / 1000 Ang^3
#
#
#
# Elastic Constant Matrix: (Units=GPa)
#
#
# Indices 1 2 3 4 5 6 
#
# 1 58.2059 30.0656 31.3780 0.0000 0.0000 0.0000
# 2 30.0656 58.2069 31.3775 0.0000 0.0000 0.0000
# 3 31.3780 31.3775 125.7658 0.0000 0.0000 0.0000
# 4 0.0000 0.0000 0.0000 30.9218 0.0000 0.0000
# 5 0.0000 0.0000 0.0000 0.0000 30.9221 0.0000
# 6 0.0000 0.0000 0.0000 0.0000 0.0000 32.7621
#
#
#
# Elastic Compliance Matrix: (Units=1/GPa)
#
#
# Indices 1 2 3 4 5 6 
#
# 1 0.024654 -0.010882 -0.003436 0.000000 0.000000 0.000000
# 2 -0.010882 0.024653 -0.003436 0.000000 0.000000 0.000000
# 3 -0.003436 -0.003436 0.009666 0.000000 0.000000 0.000000
# 4 0.000000 0.000000 0.000000 0.032340 0.000000 0.000000
# 5 0.000000 0.000000 0.000000 0.000000 0.032339 0.000000
# 6 0.000000 0.000000 0.000000 0.000000 0.000000 0.030523
#
#
# Mechanical properties :
#
#
# Convention : Reuss Voigt Hill
#
# Bulk Modulus (GPa) = 42.61686 47.53566 45.07626
# Shear Modulus (GPa) = 25.31595 28.87838 27.09716
#
# Velocity S-wave (km/s) = 3.64277 3.89064 3.76875
# Velocity P-wave (km/s) = 6.32704 6.71561 6.52422
#
# Compressibility (1/GPa) = 0.02346489
#
# Stress axis : x y z
#
# Youngs Moduli (GPa) = 40.56178 40.56280 103.45834
#
# Poissons Ratio (x) = 0.44141 0.35548
# Poissons Ratio (y) = 0.44140 0.35545
# Poissons Ratio (z) = 0.13937 0.13936
#
# Static dielectric constant tensor:
#      x y z
#    x 3.222990 0.000000 0.000000 
#    y 0.000000 3.222980 0.000000 
#    z 0.000000 0.000000 4.360510 
# 
# 
# High freq. dielectric constant tensor:
#      x y z
#    x 1.701480 0.000000 0.000000 
#    y 0.000000 1.701480 0.000000 
#    z 0.000000 0.000000 1.782510 
# 
# From -- ./inp_files/1490.got.cif
#   From: 2010.03.12/outbox.cif.g09.slc.cpg/sg120_1_cif.got.tgz:1490.got - 2010.04.06 16:00:44.
