data_PCOD8311756
_publ_section_title
;
Structure prediction by ZEFSAII (Michael W. Deem and Ramdas Pophale) SiO2 
 PCOD8311756
Probable space group: I -4 2 D
;
_chemical_formula_sum "Si O2"
_cell_formula_units_Z 80
_cell_length_a 29.186881
_cell_length_b 29.186881
_cell_length_c 5.080290
_cell_angle_alpha 90.000000
_cell_angle_beta 90.000000
_cell_angle_gamma 90.000000
_cell_volume 4327.767078
_symmetry_space_group_name_H-M "I -4 2 D"
_symmetry_group_IT_number 122
_symmetry_cell_setting 'tetragonal'
loop_
_space_group_symop_operation_xyz
x,y,z
y,-x,-z
-x,-y,z
-y,x,-z
x,1/2-y,1/4-z
-x,1/2+y,1/4-z
-y,1/2-x,1/4+z
y,1/2+x,1/4+z
1/2+x,1/2+y,1/2+z
1/2+y,1/2-x,1/2-z
1/2-x,1/2-y,1/2+z
1/2-y,1/2+x,1/2-z
1/2+x,-y,3/4-z
1/2-x,y,3/4-z
1/2-y,-x,3/4+z
1/2+y,x,3/4+z
loop_
_atom_site_type_symbol
_atom_site_label
_atom_site_fract_x
_atom_site_fract_y
_atom_site_fract_z
Si Si1 0.077977 0.071529 0.811186
Si Si2 0.620011 0.171503 0.550518
Si Si3 0.106059 0.479698 0.933912
Si Si4 0.278295 0.803999 0.624645
Si Si5 0.069223 0.799672 0.693543
O O1 0.118410 0.107755 0.786532
O O2 0.083691 0.030751 0.599018
O O3 0.032286 0.100059 0.758768
O O4 0.078744 0.050487 0.102553
O O5 0.672817 0.172199 0.624793
O O6 0.610505 0.193309 0.265008
O O7 0.590423 0.199393 0.765137
O O8 0.160506 0.468962 0.921837
O O9 0.286245 0.750000 0.625000
O O10 0.250000 0.820734 0.375000
O O11 0.250000 0.820889 0.875000
O O12 0.046825 0.750000 0.625000
#
# Coordination Sequence:
#
# PCOD8311756 Si02
#       5
#    16  16  16  16  16
#     4  10  21  36  54  77 105 133 169 212 256 308
#     4  10  20  34  52  74 103 135 168 211 257 297
#     4  10  21  35  54  79 104 134 168 209 256 303
#     4  10  19  30  47  72 100 130 167 206 246 299
#     4  10  19  33  54  76  99 132 174 212 248 295
#
# _framework density 18.485281000000001
#
# number of rings (size 3 to 8) (size 9 to 14) (size 15 to 20)
#    0.000    2.000    0.000    4.200    0.000    4.000 
#    0.000    1.000    0.000    4.800    0.000    0.000 
#    0.000    0.000    0.000    0.000    0.000    0.000 
#
# Total GULP energy -496067.493969 kJ/mol
# GULP energy per Si atom -12401.687349 kJ/mol
# Density = 1.844321 g / cm^3
# Si number density = 18.485281 Si / 1000 Ang^3
#
#
#
# Elastic Constant Matrix: (Units=GPa)
#
#
# Indices 1 2 3 4 5 6 
#
# 1 104.0286 43.1104 24.8987 0.0000 0.0000 0.0000
# 2 43.1104 104.0286 24.8987 0.0000 0.0000 0.0000
# 3 24.8987 24.8987 101.4638 0.0000 0.0000 0.0000
# 4 0.0000 0.0000 0.0000 31.8847 0.0000 0.0000
# 5 0.0000 0.0000 0.0000 0.0000 31.8847 0.0000
# 6 0.0000 0.0000 0.0000 0.0000 0.0000 13.9308
#
#
#
# Elastic Compliance Matrix: (Units=1/GPa)
#
#
# Indices 1 2 3 4 5 6 
#
# 1 0.011914 -0.004502 -0.001819 0.000000 0.000000 0.000000
# 2 -0.004502 0.011914 -0.001819 0.000000 0.000000 0.000000
# 3 -0.001819 -0.001819 0.010748 0.000000 0.000000 0.000000
# 4 0.000000 0.000000 0.000000 0.031363 0.000000 0.000000
# 5 0.000000 0.000000 0.000000 0.000000 0.031363 0.000000
# 6 0.000000 0.000000 0.000000 0.000000 0.000000 0.071783
#
#
# Mechanical properties :
#
#
# Convention : Reuss Voigt Hill
#
# Bulk Modulus (GPa) = 54.65442 55.03739 54.84591
# Shear Modulus (GPa) = 26.11472 29.98093 28.04783
#
# Velocity S-wave (km/s) = 3.76271 4.03163 3.89949
# Velocity P-wave (km/s) = 6.96476 7.17707 7.07171
#
# Compressibility (1/GPa) = 0.01829678
#
# Stress axis : x y z
#
# Youngs Moduli (GPa) = 83.93729 83.93729 93.03708
#
# Poissons Ratio (x) = 0.37787 0.16922
# Poissons Ratio (y) = 0.37787 0.16922
# Poissons Ratio (z) = 0.15267 0.15267
#
# Static dielectric constant tensor:
#      x y z
#    x 3.234420 0.000000 0.000000 
#    y 0.000000 3.234420 0.000000 
#    z 0.000000 0.000000 3.771850 
# 
# 
# High freq. dielectric constant tensor:
#      x y z
#    x 1.702530 0.000000 0.000000 
#    y 0.000000 1.702530 0.000000 
#    z 0.000000 0.000000 1.743140 
# 
# From -- ./inp_files/1312.got.cif
#   From: 2010.03.12/outbox.cif.g09.slc.cpg/sg122_1_cif.got.tgz:1312.got - 2010.04.06 16:17:16.
