data_PCOD8311226
_publ_section_title
;
Structure prediction by ZEFSAII (Michael W. Deem and Ramdas Pophale) SiO2 
 PCOD8311226
Probable space group: I -4 C 2
;
_chemical_formula_sum "Si O2"
_cell_formula_units_Z 80
_cell_length_a 16.907801
_cell_length_b 16.907801
_cell_length_c 13.493192
_cell_angle_alpha 90.000000
_cell_angle_beta 90.000000
_cell_angle_gamma 90.000000
_cell_volume 3857.349189
_symmetry_space_group_name_H-M "I -4 C 2"
_symmetry_group_IT_number 120
_symmetry_cell_setting 'tetragonal'
loop_
_space_group_symop_operation_xyz
x,y,z
y,-x,-z
-x,-y,z
-y,x,-z
y,x,1/2-z
-y,-x,1/2-z
-x,y,1/2+z
x,-y,1/2+z
1/2+x,1/2+y,1/2+z
1/2+y,1/2-x,1/2-z
1/2-x,1/2-y,1/2+z
1/2-y,1/2+x,1/2-z
1/2+y,1/2+x,-z
1/2-y,1/2-x,-z
1/2-x,1/2+y,z
1/2+x,1/2-y,z
loop_
_atom_site_type_symbol
_atom_site_label
_atom_site_fract_x
_atom_site_fract_y
_atom_site_fract_z
Si Si1 0.495227 0.626202 0.274522
Si Si2 0.613198 0.782705 0.574971
Si Si3 0.320896 0.197335 0.782509
Si Si4 0.678195 0.610700 0.568655
Si Si5 0.252208 0.949914 0.378580
O O1 0.564368 0.564368 0.250000
O O2 0.409170 0.590831 0.250000
O O3 0.475147 0.645038 0.390513
O O4 0.510190 0.703335 0.210555
O O5 0.669057 0.830944 0.500000
O O6 0.628890 0.814402 0.684403
O O7 0.622001 0.687566 0.567574
O O8 0.519060 0.798188 0.560235
O O9 0.237474 0.237474 0.750000
O O10 0.367712 0.246755 0.864345
O O11 0.311492 0.111064 0.828774
O O12 0.697254 0.598473 0.453716
#
# Coordination Sequence:
#
# PCOD8311226 Si02
#       5
#    16  16  16  16  16
#     4  11  23  39  59  95 141 177 209 273 351 412
#     4  11  24  41  66  97 132 175 228 284 332 408
#     4  10  21  43  66  90 125 175 229 272 328 404
#     4  11  22  43  63  93 135 179 226 273 335 410
#     4  12  24  38  68  97 128 175 225 285 339 404
#
# _framework density 20.739629999999998
#
# number of rings (size 3 to 8) (size 9 to 14) (size 15 to 20)
#    0.000    1.000    4.000    4.200    5.600    0.000 
#    0.000    2.000    0.000    7.800    0.000    0.000 
#    0.000    0.000    0.000    0.000    0.000    0.000 
#
# Total GULP energy -495567.966346 kJ/mol
# GULP energy per Si atom -12389.199159 kJ/mol
# Density = 2.069243 g / cm^3
# Si number density = 20.739630 Si / 1000 Ang^3
#
#
#
# Elastic Constant Matrix: (Units=GPa)
#
#
# Indices 1 2 3 4 5 6 
#
# 1 92.9315 40.5097 20.2570 0.0000 0.0000 0.0000
# 2 40.5097 92.9313 20.2541 0.0000 0.0000 0.0000
# 3 20.2570 20.2541 72.5695 0.0000 0.0000 0.0000
# 4 0.0000 0.0000 0.0000 31.5969 0.0000 0.0000
# 5 0.0000 0.0000 0.0000 0.0000 31.5977 0.0000
# 6 0.0000 0.0000 0.0000 0.0000 0.0000 30.2086
#
#
#
# Elastic Compliance Matrix: (Units=1/GPa)
#
#
# Indices 1 2 3 4 5 6 
#
# 1 0.013632 -0.005444 -0.002286 0.000000 0.000000 0.000000
# 2 -0.005444 0.013632 -0.002285 0.000000 0.000000 0.000000
# 3 -0.002286 -0.002285 0.015056 0.000000 0.000000 0.000000
# 4 0.000000 0.000000 0.000000 0.031649 0.000000 0.000000
# 5 0.000000 0.000000 0.000000 0.000000 0.031648 0.000000
# 6 0.000000 0.000000 0.000000 0.000000 0.000000 0.033103
#
#
# Mechanical properties :
#
#
# Convention : Reuss Voigt Hill
#
# Bulk Modulus (GPa) = 44.86370 46.71932 45.79151
# Shear Modulus (GPa) = 30.08807 30.50808 30.29807
#
# Velocity S-wave (km/s) = 3.81301 3.83953 3.82629
# Velocity P-wave (km/s) = 6.40813 6.49857 6.45351
#
# Compressibility (1/GPa) = 0.02228973
#
# Stress axis : x y z
#
# Youngs Moduli (GPa) = 73.35671 73.35792 66.42022
#
# Poissons Ratio (x) = 0.39937 0.15182
# Poissons Ratio (y) = 0.39937 0.15177
# Poissons Ratio (z) = 0.16768 0.16762
#
# Static dielectric constant tensor:
#      x y z
#    x 3.717830 0.000000 0.000000 
#    y 0.000000 3.717830 0.000000 
#    z 0.000000 0.000000 3.917060 
# 
# 
# High freq. dielectric constant tensor:
#      x y z
#    x 1.797490 0.000000 0.000000 
#    y 0.000000 1.797490 0.000000 
#    z 0.000000 0.000000 1.824700 
# 
# From -- ./inp_files/3435.got.cif
#   From: 2010.03.12/outbox.cif.g09.slc.cpg/sg120_2_cif.got.tgz:3435.got - 2010.04.06 16:00:44.
