data_PCOD8311643
_publ_section_title
;
Structure prediction by ZEFSAII (Michael W. Deem and Ramdas Pophale) SiO2 
 PCOD8311643
Probable space group: I -4 2 M
;
_chemical_formula_sum "Si O2"
_cell_formula_units_Z 64
_cell_length_a 19.407132
_cell_length_b 19.407132
_cell_length_c 8.181159
_cell_angle_alpha 90.000000
_cell_angle_beta 90.000000
_cell_angle_gamma 90.000000
_cell_volume 3081.325321
_symmetry_space_group_name_H-M "I -4 2 M"
_symmetry_group_IT_number 121
_symmetry_cell_setting 'tetragonal'
loop_
_space_group_symop_operation_xyz
x,y,z
y,-x,-z
-x,-y,z
-y,x,-z
x,-y,-z
-x,y,-z
-y,-x,z
y,x,z
1/2+x,1/2+y,1/2+z
1/2+y,1/2-x,1/2-z
1/2-x,1/2-y,1/2+z
1/2-y,1/2+x,1/2-z
1/2+x,1/2-y,1/2-z
1/2-x,1/2+y,1/2-z
1/2-y,1/2-x,1/2+z
1/2+y,1/2+x,1/2+z
loop_
_atom_site_type_symbol
_atom_site_label
_atom_site_fract_x
_atom_site_fract_y
_atom_site_fract_z
Si Si1 0.596014 0.239962 0.737044
Si Si2 0.166846 0.166846 0.525457
Si Si3 0.524946 0.899080 0.311992
Si Si4 0.126993 0.126993 0.166892
Si Si5 0.500000 0.319017 0.500000
Si Si6 0.276889 0.723112 0.552546
O O1 0.562059 0.166072 0.775943
O O2 0.548937 0.270933 0.600148
O O3 0.672404 0.230434 0.663161
O O4 0.601960 0.296075 0.884098
O O5 0.138293 0.138293 0.357608
O O6 0.225011 0.225011 0.528638
O O7 0.500000 0.886743 0.500000
O O8 0.460741 0.919111 0.195539
O O9 0.136938 0.047095 0.122122
O O10 0.179060 0.179060 0.077068
#
# Coordination Sequence:
#
# PCOD8311643 Si02
#       6
#    16   8  16   8   8   8
#     4  10  22  40  64  91 132 169 219 269 334 386
#     4  11  23  39  65 103 123 159 222 283 320 398
#     4  11  24  43  60  92 137 185 232 273 317 395
#     4  10  22  41  65  91 130 161 212 258 328 406
#     4  10  22  45  64  89 128 172 200 258 344 394
#     4   9  21  41  60  94 129 166 204 274 336 388
#
# _framework density 20.770282999999999
#
# number of rings (size 3 to 8) (size 9 to 14) (size 15 to 20)
#    0.000    1.750    1.250    3.750    3.500    3.250 
#    4.500    0.000    0.000    1.500    0.000    0.000 
#    0.000    0.000    0.000    0.000    0.000    0.000 
#
# Total GULP energy -396477.343830 kJ/mol
# GULP energy per Si atom -12389.916995 kJ/mol
# Density = 2.072301 g / cm^3
# Si number density = 20.770283 Si / 1000 Ang^3
#
#
#
# Elastic Constant Matrix: (Units=GPa)
#
#
# Indices 1 2 3 4 5 6 
#
# 1 108.2145 53.2503 41.9428 0.0000 0.0000 0.0000
# 2 53.2503 108.2157 41.9427 0.0000 0.0000 0.0000
# 3 41.9428 41.9427 117.3546 0.0000 0.0000 0.0000
# 4 0.0000 0.0000 0.0000 25.3551 0.0000 0.0000
# 5 0.0000 0.0000 0.0000 0.0000 25.3548 0.0000
# 6 0.0000 0.0000 0.0000 0.0000 0.0000 39.5096
#
#
#
# Elastic Compliance Matrix: (Units=1/GPa)
#
#
# Indices 1 2 3 4 5 6 
#
# 1 0.012900 -0.005294 -0.002718 0.000000 0.000000 0.000000
# 2 -0.005294 0.012899 -0.002718 0.000000 0.000000 0.000000
# 3 -0.002718 -0.002718 0.010464 0.000000 0.000000 0.000000
# 4 0.000000 0.000000 0.000000 0.039440 0.000000 0.000000
# 5 0.000000 0.000000 0.000000 0.000000 0.039440 0.000000
# 6 0.000000 0.000000 0.000000 0.000000 0.000000 0.025310
#
#
# Mechanical properties :
#
#
# Convention : Reuss Voigt Hill
#
# Bulk Modulus (GPa) = 67.55726 67.56183 67.55954
# Shear Modulus (GPa) = 29.96732 31.15382 30.56057
#
# Velocity S-wave (km/s) = 3.80254 3.87709 3.83999
# Velocity P-wave (km/s) = 7.20247 7.25542 7.22899
#
# Compressibility (1/GPa) = 0.01480226
#
# Stress axis : x y z
#
# Youngs Moduli (GPa) = 77.52210 77.52315 95.56429
#
# Poissons Ratio (x) = 0.41041 0.25977
# Poissons Ratio (y) = 0.41040 0.25976
# Poissons Ratio (z) = 0.21072 0.21072
#
# Static dielectric constant tensor:
#      x y z
#    x 5.524870 0.000000 0.000000 
#    y 0.000000 5.525310 0.000000 
#    z 0.000000 0.000000 3.747250 
# 
# 
# High freq. dielectric constant tensor:
#      x y z
#    x 1.811670 0.000000 0.000000 
#    y 0.000000 1.811670 0.000000 
#    z 0.000000 0.000000 1.811700 
# 
# From -- ./inp_files/1659.got.cif
#   From: 2010.03.12/outbox.cif.g09.slc.cpg/sg121_1_cif.got.tgz:1659.got - 2010.04.06 16:06:48.
