data_PCOD8311798
_publ_section_title
;
Structure prediction by ZEFSAII (Michael W. Deem and Ramdas Pophale) SiO2 
 PCOD8311798
Probable space group: I -4 2 D
;
_chemical_formula_sum "Si O2"
_cell_formula_units_Z 72
_cell_length_a 15.110615
_cell_length_b 15.110615
_cell_length_c 17.130014
_cell_angle_alpha 90.000000
_cell_angle_beta 90.000000
_cell_angle_gamma 90.000000
_cell_volume 3911.307842
_symmetry_space_group_name_H-M "I -4 2 D"
_symmetry_group_IT_number 122
_symmetry_cell_setting 'tetragonal'
loop_
_space_group_symop_operation_xyz
x,y,z
y,-x,-z
-x,-y,z
-y,x,-z
x,1/2-y,1/4-z
-x,1/2+y,1/4-z
-y,1/2-x,1/4+z
y,1/2+x,1/4+z
1/2+x,1/2+y,1/2+z
1/2+y,1/2-x,1/2-z
1/2-x,1/2-y,1/2+z
1/2-y,1/2+x,1/2-z
1/2+x,-y,3/4-z
1/2-x,y,3/4-z
1/2-y,-x,3/4+z
1/2+y,x,3/4+z
loop_
_atom_site_type_symbol
_atom_site_label
_atom_site_fract_x
_atom_site_fract_y
_atom_site_fract_z
Si Si1 0.866966 0.981993 0.019839
Si Si2 0.750116 0.831753 0.985226
Si Si3 0.772401 0.110231 0.124532
Si Si4 0.750000 0.161071 0.375000
Si Si5 0.868949 0.434124 0.746932
O O1 0.828177 0.024039 0.099026
O O2 0.787826 0.930964 0.976760
O O3 0.943436 0.908605 0.037891
O O4 0.821323 0.760834 0.948718
O O5 0.658897 0.832843 0.938233
O O6 0.728167 0.809238 0.074366
O O7 0.679248 0.083860 0.163853
O O8 0.811237 0.100133 0.430072
O O9 0.882499 0.538605 0.756641
#
# Coordination Sequence:
#
# PCOD8311798 Si02
#       5
#    16  16  16   8  16
#     4   9  17  32  52  73 103 137 172 219 267 311
#     4   9  18  33  54  78 104 139 179 218 263 324
#     4   9  18  34  55  75 105 142 178 217 265 323
#     4  10  20  34  56  82 108 140 182 220 266 332
#     4  10  21  36  57  82 110 142 178 227 276 319
#
# _framework density 18.408165
#
# number of rings (size 3 to 8) (size 9 to 14) (size 15 to 20)
#    0.000    2.667    0.000    1.333    0.000    3.556 
#    0.000   22.222    0.000   64.000    0.000    0.000 
#    0.000    0.000    0.000    0.000    0.000    0.000 
#
# Total GULP energy -446002.114070 kJ/mol
# GULP energy per Si atom -12388.947613 kJ/mol
# Density = 1.836627 g / cm^3
# Si number density = 18.408165 Si / 1000 Ang^3
#
#
#
# Elastic Constant Matrix: (Units=GPa)
#
#
# Indices 1 2 3 4 5 6 
#
# 1 114.5778 72.4521 55.9259 0.0000 0.0000 0.0000
# 2 72.4521 114.5779 55.9259 0.0000 0.0000 0.0000
# 3 55.9259 55.9259 104.7736 0.0000 0.0000 0.0000
# 4 0.0000 0.0000 0.0000 31.5132 0.0000 0.0000
# 5 0.0000 0.0000 0.0000 0.0000 31.5132 0.0000
# 6 0.0000 0.0000 0.0000 0.0000 0.0000 36.5564
#
#
#
# Elastic Compliance Matrix: (Units=1/GPa)
#
#
# Indices 1 2 3 4 5 6 
#
# 1 0.015796 -0.007942 -0.004192 0.000000 0.000000 0.000000
# 2 -0.007942 0.015796 -0.004192 0.000000 0.000000 0.000000
# 3 -0.004192 -0.004192 0.014020 0.000000 0.000000 0.000000
# 4 0.000000 0.000000 0.000000 0.031733 0.000000 0.000000
# 5 0.000000 0.000000 0.000000 0.000000 0.031733 0.000000
# 6 0.000000 0.000000 0.000000 0.000000 0.000000 0.027355
#
#
# Mechanical properties :
#
#
# Convention : Reuss Voigt Hill
#
# Bulk Modulus (GPa) = 77.16848 78.05968 77.61408
# Shear Modulus (GPa) = 28.83412 29.89158 29.36285
#
# Velocity S-wave (km/s) = 3.96204 4.03404 3.99820
# Velocity P-wave (km/s) = 7.93361 8.01217 7.97299
#
# Compressibility (1/GPa) = 0.01295866
#
# Stress axis : x y z
#
# Youngs Moduli (GPa) = 63.30655 63.30654 71.32756
#
# Poissons Ratio (x) = 0.50280 0.29902
# Poissons Ratio (y) = 0.50280 0.29902
# Poissons Ratio (z) = 0.26540 0.26540
#
# Static dielectric constant tensor:
#      x y z
#    x 3.522040 0.000000 0.000000 
#    y 0.000000 3.522040 0.000000 
#    z 0.000000 0.000000 3.427460 
# 
# 
# High freq. dielectric constant tensor:
#      x y z
#    x 1.716300 0.000000 0.000000 
#    y 0.000000 1.716300 0.000000 
#    z 0.000000 0.000000 1.698880 
# 
# From -- ./inp_files/6133.got.cif
#   From: 2010.03.12/outbox.cif.g09.slc.cpg/sg122_4_cif.got.tgz:6133.got - 2010.04.06 16:17:16.
