data_PCOD8311568
_publ_section_title
;
Structure prediction by ZEFSAII (Michael W. Deem and Ramdas Pophale) SiO2 
 PCOD8311568
Probable space group: I -4 2 M
;
_chemical_formula_sum "Si O2"
_cell_formula_units_Z 88
_cell_length_a 11.835686
_cell_length_b 11.835686
_cell_length_c 32.891961
_cell_angle_alpha 90.000000
_cell_angle_beta 90.000000
_cell_angle_gamma 90.000000
_cell_volume 4607.619805
_symmetry_space_group_name_H-M "I -4 2 M"
_symmetry_group_IT_number 121
_symmetry_cell_setting 'tetragonal'
loop_
_space_group_symop_operation_xyz
x,y,z
y,-x,-z
-x,-y,z
-y,x,-z
x,-y,-z
-x,y,-z
-y,-x,z
y,x,z
1/2+x,1/2+y,1/2+z
1/2+y,1/2-x,1/2-z
1/2-x,1/2-y,1/2+z
1/2-y,1/2+x,1/2-z
1/2+x,1/2-y,1/2-z
1/2-x,1/2+y,1/2-z
1/2-y,1/2-x,1/2+z
1/2+y,1/2+x,1/2+z
loop_
_atom_site_type_symbol
_atom_site_label
_atom_site_fract_x
_atom_site_fract_y
_atom_site_fract_z
Si Si1 0.703828 0.982549 0.601457
Si Si2 0.115954 0.292849 0.047923
Si Si3 0.910042 0.089959 0.346253
Si Si4 0.500000 0.000000 0.840524
Si Si5 0.140914 0.678622 0.044048
Si Si6 0.976909 0.339964 0.229628
Si Si7 0.095960 0.904041 0.254912
O O1 0.684762 0.861574 0.581287
O O2 0.817563 0.974413 0.627091
O O3 0.607988 0.018455 0.632163
O O4 0.705749 0.076563 0.566130
O O5 0.164124 0.164124 0.048162
O O6 0.985198 0.298665 0.060350
O O7 0.136539 0.348985 0.003873
O O8 0.868396 0.131604 0.301360
O O9 0.000000 0.000000 0.332672
O O10 0.383287 0.987008 0.815074
O O11 0.206993 0.793008 0.053242
O O12 0.867409 0.416540 0.241138
O O13 0.948417 0.207641 0.231493
O O14 0.000000 0.000000 0.251515
#
# Coordination Sequence:
#
# PCOD8311568 Si02
#       7
#    16  16   8   8  16  16   8
#     4  12  20  38  60  86 119 154 200 248 295 361
#     4  10  20  37  59  85 118 164 206 246 294 353
#     4  11  24  38  58  90 121 150 190 248 311 355
#     4  10  21  38  63  88 110 158 200 244 307 354
#     4  10  21  36  59  86 119 161 206 250 296 354
#     4   9  20  41  62  86 118 155 197 246 306 374
#     4  11  24  42  66  95 118 157 203 250 307 375
#
# _framework density 19.098799
#
# number of rings (size 3 to 8) (size 9 to 14) (size 15 to 20)
#    0.000    1.818    2.727    3.273    1.273    1.818 
#    4.909    1.818    0.000    0.000    0.000    0.000 
#    0.000    0.000    0.000    0.000    0.000    0.000 
#
# Total GULP energy -545416.087813 kJ/mol
# GULP energy per Si atom -12395.820178 kJ/mol
# Density = 1.905533 g / cm^3
# Si number density = 19.098799 Si / 1000 Ang^3
#
#
#
# Elastic Constant Matrix: (Units=GPa)
#
#
# Indices 1 2 3 4 5 6 
#
# 1 96.7079 31.9003 21.8040 0.0000 0.0000 0.0000
# 2 31.9003 96.7060 21.8044 0.0000 0.0000 0.0000
# 3 21.8040 21.8044 69.9642 0.0000 0.0000 0.0000
# 4 0.0000 0.0000 0.0000 22.8093 0.0000 0.0000
# 5 0.0000 0.0000 0.0000 0.0000 22.8094 0.0000
# 6 0.0000 0.0000 0.0000 0.0000 0.0000 30.2404
#
#
#
# Elastic Compliance Matrix: (Units=1/GPa)
#
#
# Indices 1 2 3 4 5 6 
#
# 1 0.012062 -0.003368 -0.002710 0.000000 0.000000 0.000000
# 2 -0.003368 0.012063 -0.002710 0.000000 0.000000 0.000000
# 3 -0.002710 -0.002710 0.015982 0.000000 0.000000 0.000000
# 4 0.000000 0.000000 0.000000 0.043842 0.000000 0.000000
# 5 0.000000 0.000000 0.000000 0.000000 0.043842 0.000000
# 6 0.000000 0.000000 0.000000 0.000000 0.000000 0.033068
#
#
# Mechanical properties :
#
#
# Convention : Reuss Voigt Hill
#
# Bulk Modulus (GPa) = 44.38068 46.04393 45.21230
# Shear Modulus (GPa) = 26.88986 27.69646 27.29316
#
# Velocity S-wave (km/s) = 3.75632 3.81224 3.78438
# Velocity P-wave (km/s) = 6.48853 6.59835 6.54367
#
# Compressibility (1/GPa) = 0.02253233
#
# Stress axis : x y z
#
# Youngs Moduli (GPa) = 82.90293 82.90094 62.57077
#
# Poissons Ratio (x) = 0.27922 0.16954
# Poissons Ratio (y) = 0.27922 0.16955
# Poissons Ratio (z) = 0.22463 0.22463
#
# Static dielectric constant tensor:
#      x y z
#    x 3.325910 0.000000 0.000000 
#    y 0.000000 3.325910 0.000000 
#    z 0.000000 0.000000 3.596920 
# 
# 
# High freq. dielectric constant tensor:
#      x y z
#    x 1.736440 0.000000 0.000000 
#    y 0.000000 1.736440 0.000000 
#    z 0.000000 0.000000 1.747500 
# 
# From -- ./inp_files/8266.got.cif
#   From: 2010.03.12/outbox.cif.g09.slc.cpg/sg121_5_cif.got.tgz:8266.got - 2010.04.06 16:06:48.
