data_PCOD8311755
_publ_section_title
;
Structure prediction by ZEFSAII (Michael W. Deem and Ramdas Pophale) SiO2 
 PCOD8311755
Probable space group: I -4 2 D
;
_chemical_formula_sum "Si O2"
_cell_formula_units_Z 64
_cell_length_a 10.892990
_cell_length_b 10.892990
_cell_length_c 22.262555
_cell_angle_alpha 90.000000
_cell_angle_beta 90.000000
_cell_angle_gamma 90.000000
_cell_volume 2641.613134
_symmetry_space_group_name_H-M "I -4 2 D"
_symmetry_group_IT_number 122
_symmetry_cell_setting 'tetragonal'
loop_
_space_group_symop_operation_xyz
x,y,z
y,-x,-z
-x,-y,z
-y,x,-z
x,1/2-y,1/4-z
-x,1/2+y,1/4-z
-y,1/2-x,1/4+z
y,1/2+x,1/4+z
1/2+x,1/2+y,1/2+z
1/2+y,1/2-x,1/2-z
1/2-x,1/2-y,1/2+z
1/2-y,1/2+x,1/2-z
1/2+x,-y,3/4-z
1/2-x,y,3/4-z
1/2-y,-x,3/4+z
1/2+y,x,3/4+z
loop_
_atom_site_type_symbol
_atom_site_label
_atom_site_fract_x
_atom_site_fract_y
_atom_site_fract_z
Si Si1 0.728280 0.899905 0.808615
Si Si2 0.642211 0.527105 0.192988
Si Si3 0.000000 0.500000 0.750000
Si Si4 0.500000 0.500000 0.500000
Si Si5 0.162195 0.880838 0.580511
Si Si6 0.250000 0.933072 0.375000
O O1 0.750000 0.957101 0.875000
O O2 0.798420 0.980877 0.758655
O O3 0.583987 0.911108 0.791733
O O4 0.783662 0.761731 0.807071
O O5 0.500000 0.500000 0.200332
O O6 0.703570 0.427766 0.146960
O O7 0.656407 0.662094 0.163591
O O8 0.130816 0.505449 0.713111
O O9 0.025576 0.821960 0.580828
#
# Coordination Sequence:
#
# PCOD8311755 Si02
#       6
#    16  16   4   4  16   8
#     4  12  27  49  75 102 152 200 262 313 374 454
#     4  10  23  44  74 111 150 190 252 312 396 455
#     4  12  20  40  74 120 148 184 244 306 408 452
#     4  12  32  56  70 112 148 212 264 318 372 480
#     4  11  22  41  73 107 151 191 241 321 375 457
#     4  10  18  42  70 110 156 188 232 306 390 456
#
# _framework density 24.227619000000001
#
# number of rings (size 3 to 8) (size 9 to 14) (size 15 to 20)
#    0.000    1.000    5.000    3.000    5.250    0.000 
#    2.250    0.000    0.000    0.000    0.000    0.000 
#    0.000    0.000    0.000    0.000    0.000    0.000 
#
# Total GULP energy -396452.946245 kJ/mol
# GULP energy per Si atom -12389.154570 kJ/mol
# Density = 2.417248 g / cm^3
# Si number density = 24.227619 Si / 1000 Ang^3
#
#
#
# Elastic Constant Matrix: (Units=GPa)
#
#
# Indices 1 2 3 4 5 6 
#
# 1 100.7257 40.9180 55.0440 0.0000 0.0000 0.0000
# 2 40.9180 100.7257 55.0440 0.0000 0.0000 0.0000
# 3 55.0440 55.0440 174.2790 0.0000 0.0000 0.0000
# 4 0.0000 0.0000 0.0000 35.7723 0.0000 0.0000
# 5 0.0000 0.0000 0.0000 0.0000 35.7723 0.0000
# 6 0.0000 0.0000 0.0000 0.0000 0.0000 39.2009
#
#
#
# Elastic Compliance Matrix: (Units=1/GPa)
#
#
# Indices 1 2 3 4 5 6 
#
# 1 0.013039 -0.003682 -0.002955 0.000000 0.000000 0.000000
# 2 -0.003682 0.013039 -0.002955 0.000000 0.000000 0.000000
# 3 -0.002955 -0.002955 0.007605 0.000000 0.000000 0.000000
# 4 0.000000 0.000000 0.000000 0.027955 0.000000 0.000000
# 5 0.000000 0.000000 0.000000 0.000000 0.027955 0.000000
# 6 0.000000 0.000000 0.000000 0.000000 0.000000 0.025510
#
#
# Mechanical properties :
#
#
# Convention : Reuss Voigt Hill
#
# Bulk Modulus (GPa) = 68.97800 75.30468 72.14134
# Shear Modulus (GPa) = 35.94083 37.13070 36.53576
#
# Velocity S-wave (km/s) = 3.85576 3.91906 3.88754
# Velocity P-wave (km/s) = 6.95378 7.18529 7.07048
#
# Compressibility (1/GPa) = 0.01449738
#
# Stress axis : x y z
#
# Youngs Moduli (GPa) = 76.69566 76.69566 131.49784
#
# Poissons Ratio (x) = 0.28237 0.38861
# Poissons Ratio (y) = 0.28237 0.38861
# Poissons Ratio (z) = 0.22665 0.22665
#
# Static dielectric constant tensor:
#      x y z
#    x 4.298770 0.000000 0.000000 
#    y 0.000000 4.298770 0.000000 
#    z 0.000000 0.000000 4.797840 
# 
# 
# High freq. dielectric constant tensor:
#      x y z
#    x 1.951390 0.000000 0.000000 
#    y 0.000000 1.951390 0.000000 
#    z 0.000000 0.000000 1.974510 
# 
# From -- ./inp_files/7923.got.cif
#   From: 2010.03.12/outbox.cif.g09.slc.cpg/sg122_4_cif.got.tgz:7923.got - 2010.04.06 16:17:16.
