data_PCOD8311213
_publ_section_title
;
Structure prediction by ZEFSAII (Michael W. Deem and Ramdas Pophale) SiO2 
 PCOD8311213
Probable space group: I -4 C 2
;
_chemical_formula_sum "Si O2"
_cell_formula_units_Z 72
_cell_length_a 21.307619
_cell_length_b 21.307619
_cell_length_c 8.076206
_cell_angle_alpha 90.000000
_cell_angle_beta 90.000000
_cell_angle_gamma 90.000000
_cell_volume 3666.715658
_symmetry_space_group_name_H-M "I -4 C 2"
_symmetry_group_IT_number 120
_symmetry_cell_setting 'tetragonal'
loop_
_space_group_symop_operation_xyz
x,y,z
y,-x,-z
-x,-y,z
-y,x,-z
y,x,1/2-z
-y,-x,1/2-z
-x,y,1/2+z
x,-y,1/2+z
1/2+x,1/2+y,1/2+z
1/2+y,1/2-x,1/2-z
1/2-x,1/2-y,1/2+z
1/2-y,1/2+x,1/2-z
1/2+y,1/2+x,-z
1/2-y,1/2-x,-z
1/2-x,1/2+y,z
1/2+x,1/2-y,z
loop_
_atom_site_type_symbol
_atom_site_label
_atom_site_fract_x
_atom_site_fract_y
_atom_site_fract_z
Si Si1 0.421192 0.449299 0.063034
Si Si2 0.186691 0.862106 0.073768
Si Si3 0.141620 0.681694 0.330102
Si Si4 0.283973 0.716028 0.250000
Si Si5 0.423244 0.057384 0.812900
O O1 0.434549 0.434549 0.250000
O O2 0.356278 0.418429 0.006408
O O3 0.418408 0.524028 0.046683
O O4 0.164296 0.835705 0.250000
O O5 0.253879 0.892274 0.115821
O O6 0.188293 0.811032 0.923395
O O7 0.144157 0.644157 0.500000
O O8 0.209503 0.700249 0.250363
O O9 0.097723 0.640236 0.212497
O O10 0.483479 0.087239 0.721129
O O11 0.440460 0.059541 0.000000
#
# Coordination Sequence:
#
# PCOD8311213 Si02
#       5
#    16  16  16   8  16
#     4  10  21  38  61  85 120 165 200 254 302 363
#     4  10  22  38  60  92 124 157 212 254 302 371
#     4  10  21  40  62  91 123 162 208 246 318 366
#     4  10  22  38  68  83 126 171 194 264 300 378
#     4  11  23  41  66  89 125 162 205 259 310 371
#
# _framework density 19.636102000000001
#
# number of rings (size 3 to 8) (size 9 to 14) (size 15 to 20)
#    0.000    1.778    1.111    4.000    6.222    0.000 
#    4.000    2.222    0.000    0.000    0.000    0.000 
#    0.000    0.000    0.000    0.000    0.000    0.000 
#
# Total GULP energy -445981.292415 kJ/mol
# GULP energy per Si atom -12388.369234 kJ/mol
# Density = 1.959141 g / cm^3
# Si number density = 19.636102 Si / 1000 Ang^3
#
#
#
# Elastic Constant Matrix: (Units=GPa)
#
#
# Indices 1 2 3 4 5 6 
#
# 1 108.1892 97.3300 31.2887 0.0000 0.0000 0.0000
# 2 97.3300 108.1912 31.2879 0.0000 0.0000 0.0000
# 3 31.2887 31.2879 92.6587 0.0000 0.0000 0.0000
# 4 0.0000 0.0000 0.0000 29.0816 0.0000 0.0000
# 5 0.0000 0.0000 0.0000 0.0000 29.0824 0.0000
# 6 0.0000 0.0000 0.0000 0.0000 0.0000 42.9331
#
#
#
# Elastic Compliance Matrix: (Units=1/GPa)
#
#
# Indices 1 2 3 4 5 6 
#
# 1 0.048752 -0.043328 -0.001832 0.000000 0.000000 0.000000
# 2 -0.043328 0.048751 -0.001831 0.000000 0.000000 0.000000
# 3 -0.001832 -0.001831 0.012029 0.000000 0.000000 0.000000
# 4 0.000000 0.000000 0.000000 0.034386 0.000000 0.000000
# 5 0.000000 0.000000 0.000000 0.000000 0.034385 0.000000
# 6 0.000000 0.000000 0.000000 0.000000 0.000000 0.023292
#
#
# Mechanical properties :
#
#
# Convention : Reuss Voigt Hill
#
# Bulk Modulus (GPa) = 64.30685 69.87251 67.08968
# Shear Modulus (GPa) = 16.62455 30.16159 23.39307
#
# Velocity S-wave (km/s) = 2.91285 3.92347 3.45531
# Velocity P-wave (km/s) = 6.64329 7.49572 7.08234
#
# Compressibility (1/GPa) = 0.01555044
#
# Stress axis : x y z
#
# Youngs Moduli (GPa) = 20.51195 20.51247 83.13206
#
# Poissons Ratio (x) = 0.88877 0.15229
# Poissons Ratio (y) = 0.88875 0.15219
# Poissons Ratio (z) = 0.03758 0.03755
#
# Static dielectric constant tensor:
#      x y z
#    x 3.069370 0.000000 0.000000 
#    y 0.000000 3.069890 0.000000 
#    z 0.000000 0.000000 3.761700 
# 
# 
# High freq. dielectric constant tensor:
#      x y z
#    x 1.758490 0.000000 0.000000 
#    y 0.000000 1.758490 0.000000 
#    z 0.000000 0.000000 1.784090 
# 
# From -- ./inp_files/1327.got.cif
#   From: 2010.03.12/outbox.cif.g09.slc.cpg/sg120_1_cif.got.tgz:1327.got - 2010.04.06 16:00:44.
