data_PCOD8311278
_publ_section_title
;
Structure prediction by ZEFSAII (Michael W. Deem and Ramdas Pophale) SiO2 
 PCOD8311278
Probable space group: I -4 C 2
;
_chemical_formula_sum "Si O2"
_cell_formula_units_Z 88
_cell_length_a 12.554605
_cell_length_b 12.554605
_cell_length_c 25.794537
_cell_angle_alpha 90.000000
_cell_angle_beta 90.000000
_cell_angle_gamma 90.000000
_cell_volume 4065.686085
_symmetry_space_group_name_H-M "I -4 C 2"
_symmetry_group_IT_number 120
_symmetry_cell_setting 'tetragonal'
loop_
_space_group_symop_operation_xyz
x,y,z
y,-x,-z
-x,-y,z
-y,x,-z
y,x,1/2-z
-y,-x,1/2-z
-x,y,1/2+z
x,-y,1/2+z
1/2+x,1/2+y,1/2+z
1/2+y,1/2-x,1/2-z
1/2-x,1/2-y,1/2+z
1/2-y,1/2+x,1/2-z
1/2+y,1/2+x,-z
1/2-y,1/2-x,-z
1/2-x,1/2+y,z
1/2+x,1/2-y,z
loop_
_atom_site_type_symbol
_atom_site_label
_atom_site_fract_x
_atom_site_fract_y
_atom_site_fract_z
Si Si1 0.199880 0.123134 0.418253
Si Si2 0.149117 0.850884 0.750000
Si Si3 0.798802 0.701199 0.500000
Si Si4 0.500000 0.500000 0.118047
Si Si5 0.162263 0.694234 0.838468
Si Si6 0.113754 0.539529 0.919017
Si Si7 0.429300 0.644240 0.697027
O O1 0.194773 0.182075 0.473797
O O2 0.094582 0.048827 0.416427
O O3 0.200974 0.207918 0.372407
O O4 0.309899 0.060710 0.408301
O O5 0.132715 0.739362 0.781461
O O6 0.055211 0.854770 0.708181
O O7 0.815047 0.608302 0.458431
O O8 0.591614 0.547208 0.156798
O O9 0.080258 0.617229 0.869913
O O10 0.253149 0.606539 0.832787
O O11 0.000000 0.500000 0.941628
O O12 0.365036 0.634965 0.750000
#
# Coordination Sequence:
#
# PCOD8311278 Si02
#       7
#    16   8   8   8  16  16  16
#     4  11  25  45  71 101 135 171 235 287 349 422
#     4  12  21  38  62  99 138 180 238 276 334 407
#     4  10  27  44  71 104 126 176 224 286 359 408
#     4  12  21  42  71 100 130 180 228 296 342 414
#     4  11  23  42  65 100 132 187 227 280 345 408
#     4  11  25  47  68  96 141 183 221 282 358 423
#     4  12  21  38  66  95 136 181 231 284 336 398
#
# _framework density 21.644565
#
# number of rings (size 3 to 8) (size 9 to 14) (size 15 to 20)
#    0.000    0.727    6.364    0.273    2.545    5.818 
#    3.273    0.000    0.000    0.000    0.000    0.000 
#    0.000    0.000    0.000    0.000    0.000    0.000 
#
# Total GULP energy -545087.273675 kJ/mol
# GULP energy per Si atom -12388.347129 kJ/mol
# Density = 2.159530 g / cm^3
# Si number density = 21.644565 Si / 1000 Ang^3
#
#
#
# Elastic Constant Matrix: (Units=GPa)
#
#
# Indices 1 2 3 4 5 6 
#
# 1 103.2465 57.1455 33.8120 0.0000 0.0000 0.0000
# 2 57.1455 103.2454 33.8118 0.0000 0.0000 0.0000
# 3 33.8120 33.8118 91.8335 0.0000 0.0000 0.0000
# 4 0.0000 0.0000 0.0000 37.1112 0.0000 0.0000
# 5 0.0000 0.0000 0.0000 0.0000 37.1108 0.0000
# 6 0.0000 0.0000 0.0000 0.0000 0.0000 26.3805
#
#
#
# Elastic Compliance Matrix: (Units=1/GPa)
#
#
# Indices 1 2 3 4 5 6 
#
# 1 0.014536 -0.007156 -0.002717 0.000000 0.000000 0.000000
# 2 -0.007156 0.014536 -0.002717 0.000000 0.000000 0.000000
# 3 -0.002717 -0.002717 0.012890 0.000000 0.000000 0.000000
# 4 0.000000 0.000000 0.000000 0.026946 0.000000 0.000000
# 5 0.000000 0.000000 0.000000 0.000000 0.026946 0.000000
# 6 0.000000 0.000000 0.000000 0.000000 0.000000 0.037907
#
#
# Mechanical properties :
#
#
# Convention : Reuss Voigt Hill
#
# Bulk Modulus (GPa) = 59.58896 60.87379 60.23137
# Shear Modulus (GPa) = 30.38842 31.69091 31.03966
#
# Velocity S-wave (km/s) = 3.75103 3.83057 3.79101
# Velocity P-wave (km/s) = 6.80814 6.91012 6.85932
#
# Compressibility (1/GPa) = 0.01678163
#
# Stress axis : x y z
#
# Youngs Moduli (GPa) = 68.79460 68.79389 77.57779
#
# Poissons Ratio (x) = 0.49227 0.21081
# Poissons Ratio (y) = 0.49227 0.21081
# Poissons Ratio (z) = 0.18694 0.18694
#
# Static dielectric constant tensor:
#      x y z
#    x 3.766100 0.000000 0.000000 
#    y 0.000000 3.766120 0.000000 
#    z 0.000000 0.000000 4.208050 
# 
# 
# High freq. dielectric constant tensor:
#      x y z
#    x 1.845450 0.000000 0.000000 
#    y 0.000000 1.845450 0.000000 
#    z 0.000000 0.000000 1.860740 
# 
# From -- ./inp_files/6630.got.cif
#   From: 2010.03.12/outbox.cif.g09.slc.cpg/sg120_4_cif.got.tgz:6630.got - 2010.04.06 16:00:44.
