data_PCOD8311456
_publ_section_title
;
Structure prediction by ZEFSAII (Michael W. Deem and Ramdas Pophale) SiO2 
 PCOD8311456
Probable space group: I -4 2 M
;
_chemical_formula_sum "Si O2"
_cell_formula_units_Z 96
_cell_length_a 24.226738
_cell_length_b 24.226738
_cell_length_c 9.003222
_cell_angle_alpha 90.000000
_cell_angle_beta 90.000000
_cell_angle_gamma 90.000000
_cell_volume 5284.304611
_symmetry_space_group_name_H-M "I -4 2 M"
_symmetry_group_IT_number 121
_symmetry_cell_setting 'tetragonal'
loop_
_space_group_symop_operation_xyz
x,y,z
y,-x,-z
-x,-y,z
-y,x,-z
x,-y,-z
-x,y,-z
-y,-x,z
y,x,z
1/2+x,1/2+y,1/2+z
1/2+y,1/2-x,1/2-z
1/2-x,1/2-y,1/2+z
1/2-y,1/2+x,1/2-z
1/2+x,1/2-y,1/2-z
1/2-x,1/2+y,1/2-z
1/2-y,1/2-x,1/2+z
1/2+y,1/2+x,1/2+z
loop_
_atom_site_type_symbol
_atom_site_label
_atom_site_fract_x
_atom_site_fract_y
_atom_site_fract_z
Si Si1 0.161210 0.344797 0.472029
Si Si2 0.811274 0.102120 0.651080
Si Si3 0.312676 0.771275 0.278183
Si Si4 0.219372 0.441959 0.065343
Si Si5 0.556932 0.768015 0.416874
Si Si6 0.653280 0.438922 0.448371
O O1 0.208067 0.308120 0.553408
O O2 0.168433 0.326934 0.302740
O O3 0.100256 0.331076 0.533140
O O4 0.179539 0.408442 0.479624
O O5 0.861706 0.138295 0.582339
O O6 0.774205 0.140743 0.755414
O O7 0.776277 0.076134 0.516707
O O8 0.834566 0.057454 0.769756
O O9 0.253133 0.746868 0.232427
O O10 0.230525 0.448297 0.239375
O O11 0.199397 0.500000 0.000000
O O12 0.500000 0.775918 0.500000
O O13 0.581012 0.708100 0.462530
O O14 0.634813 0.500000 0.500000
O O15 0.604480 0.395521 0.482368
#
# Coordination Sequence:
#
# PCOD8311456 Si02
#       6
#    16  16  16  16  16  16
#     4  11  21  36  54  81 111 148 186 227 284 339
#     4   9  19  36  55  77 112 151 186 228 279 332
#     4  10  19  32  51  79 114 145 177 223 277 336
#     4  11  23  37  57  81 114 152 188 232 279 344
#     4  11  23  37  58  83 111 146 191 237 281 335
#     4  10  20  35  56  80 112 152 193 240 287 334
#
# _framework density 18.167007999999999
#
# number of rings (size 3 to 8) (size 9 to 14) (size 15 to 20)
#    0.000    1.667    3.333    2.500    2.333    2.167 
#    0.000    0.000    0.000    0.500    0.000    2.333 
#    0.000    6.667    0.000    0.000    0.000    0.000 
#
# Total GULP energy -594680.233732 kJ/mol
# GULP energy per Si atom -12389.171536 kJ/mol
# Density = 1.812566 g / cm^3
# Si number density = 18.167008 Si / 1000 Ang^3
#
#
#
# Elastic Constant Matrix: (Units=GPa)
#
#
# Indices 1 2 3 4 5 6 
#
# 1 110.9978 68.2918 50.6680 0.0000 0.0000 0.0000
# 2 68.2918 110.9965 50.6671 0.0000 0.0000 0.0000
# 3 50.6680 50.6671 108.8549 0.0000 0.0000 0.0000
# 4 0.0000 0.0000 0.0000 25.3239 0.0000 0.0000
# 5 0.0000 0.0000 0.0000 0.0000 25.3251 0.0000
# 6 0.0000 0.0000 0.0000 0.0000 0.0000 28.0127
#
#
#
# Elastic Compliance Matrix: (Units=1/GPa)
#
#
# Indices 1 2 3 4 5 6 
#
# 1 0.015492 -0.007924 -0.003523 0.000000 0.000000 0.000000
# 2 -0.007924 0.015493 -0.003523 0.000000 0.000000 0.000000
# 3 -0.003523 -0.003523 0.012466 0.000000 0.000000 0.000000
# 4 0.000000 0.000000 0.000000 0.039488 0.000000 0.000000
# 5 0.000000 0.000000 0.000000 0.000000 0.039487 0.000000
# 6 0.000000 0.000000 0.000000 0.000000 0.000000 0.035698
#
#
# Mechanical properties :
#
#
# Convention : Reuss Voigt Hill
#
# Bulk Modulus (GPa) = 74.00911 74.45591 74.23251
# Shear Modulus (GPa) = 25.96490 26.48047 26.22268
#
# Velocity S-wave (km/s) = 3.78462 3.82201 3.80336
# Velocity P-wave (km/s) = 7.74109 7.78140 7.76127
#
# Compressibility (1/GPa) = 0.01351185
#
# Stress axis : x y z
#
# Youngs Moduli (GPa) = 64.54738 64.54700 80.21725
#
# Poissons Ratio (x) = 0.51145 0.28261
# Poissons Ratio (y) = 0.51146 0.28260
# Poissons Ratio (z) = 0.22740 0.22739
#
# Static dielectric constant tensor:
#      x y z
#    x 3.354780 0.000000 0.000000 
#    y 0.000000 3.354790 0.000000 
#    z 0.000000 0.000000 3.397700 
# 
# 
# High freq. dielectric constant tensor:
#      x y z
#    x 1.689260 0.000000 0.000000 
#    y 0.000000 1.689260 0.000000 
#    z 0.000000 0.000000 1.716960 
# 
# From -- ./inp_files/1934.got.cif
#   From: 2010.03.12/outbox.cif.g09.slc.cpg/sg121_1_cif.got.tgz:1934.got - 2010.04.06 16:06:48.
