data_PCOD8311180
_publ_section_title
;
Structure prediction by ZEFSAII (Michael W. Deem and Ramdas Pophale) SiO2 
 PCOD8311180
Probable space group: I -4 C 2
;
_chemical_formula_sum "Si O2"
_cell_formula_units_Z 116
_cell_length_a 18.088314
_cell_length_b 18.088314
_cell_length_c 16.761386
_cell_angle_alpha 90.000000
_cell_angle_beta 90.000000
_cell_angle_gamma 90.000000
_cell_volume 5484.109334
_symmetry_space_group_name_H-M "I -4 C 2"
_symmetry_group_IT_number 120
_symmetry_cell_setting 'tetragonal'
loop_
_space_group_symop_operation_xyz
x,y,z
y,-x,-z
-x,-y,z
-y,x,-z
y,x,1/2-z
-y,-x,1/2-z
-x,y,1/2+z
x,-y,1/2+z
1/2+x,1/2+y,1/2+z
1/2+y,1/2-x,1/2-z
1/2-x,1/2-y,1/2+z
1/2-y,1/2+x,1/2-z
1/2+y,1/2+x,-z
1/2-y,1/2-x,-z
1/2-x,1/2+y,z
1/2+x,1/2-y,z
loop_
_atom_site_type_symbol
_atom_site_label
_atom_site_fract_x
_atom_site_fract_y
_atom_site_fract_z
Si Si1 0.512843 0.382407 0.381852
Si Si2 0.997206 0.714475 0.140110
Si Si3 0.842011 0.651347 0.329300
Si Si4 0.653110 0.431165 0.459639
Si Si5 0.500000 0.500000 0.750000
Si Si6 0.153754 0.637546 0.645478
Si Si7 0.777555 0.222947 0.925348
Si Si8 0.988660 0.277993 0.826125
O O1 0.575991 0.437772 0.413500
O O2 0.449812 0.366429 0.448598
O O3 0.488704 0.425569 0.302468
O O4 0.539538 0.299887 0.360340
O O5 0.079222 0.683861 0.120541
O O6 0.999191 0.738256 0.232309
O O7 0.982655 0.784406 0.081698
O O8 0.934167 0.650671 0.129471
O O9 0.823883 0.646180 0.236821
O O10 0.805787 0.729295 0.351984
O O11 0.929282 0.658109 0.341960
O O12 0.672516 0.345882 0.448685
O O13 0.197888 0.694221 0.591247
O O14 0.186414 0.557111 0.624519
O O15 0.777949 0.277949 0.000000
#
# Coordination Sequence:
#
# PCOD8311180 Si02
#       8
#    16  16  16  16   4  16  16  16
#     4  12  24  44  64  90 126 173 215 271 328 396
#     4   9  21  38  63  95 130 168 220 269 327 383
#     4  10  20  37  64  93 124 167 220 268 321 390
#     4  11  24  41  65  91 130 172 212 269 330 394
#     4  12  28  46  64  92 128 170 232 272 332 404
#     4   9  20  39  59  90 129 169 213 272 330 384
#     4  11  22  38  59  90 123 165 216 268 327 388
#     4  10  20  39  63  93 128 172 218 269 323 389
#
# _framework density 21.152021000000001
#
# number of rings (size 3 to 8) (size 9 to 14) (size 15 to 20)
#    0.000    1.655    1.379    2.897    1.931    0.552 
#    9.931    2.759    0.000    0.000    0.000    3.862 
#    0.000    0.000    0.000    0.000    0.000    0.000 
#
# Total GULP energy -718579.569378 kJ/mol
# GULP energy per Si atom -12389.302920 kJ/mol
# Density = 2.110388 g / cm^3
# Si number density = 21.152021 Si / 1000 Ang^3
#
#
#
# Elastic Constant Matrix: (Units=GPa)
#
#
# Indices 1 2 3 4 5 6 
#
# 1 106.4095 45.9153 43.0082 0.0000 0.0000 0.0000
# 2 45.9153 106.4095 43.0082 0.0000 0.0000 0.0000
# 3 43.0082 43.0082 73.3306 0.0000 0.0000 0.0000
# 4 0.0000 0.0000 0.0000 30.2388 0.0000 0.0000
# 5 0.0000 0.0000 0.0000 0.0000 30.2388 0.0000
# 6 0.0000 0.0000 0.0000 0.0000 0.0000 22.8515
#
#
#
# Elastic Compliance Matrix: (Units=1/GPa)
#
#
# Indices 1 2 3 4 5 6 
#
# 1 0.013173 -0.003357 -0.005757 0.000000 0.000000 0.000000
# 2 -0.003357 0.013173 -0.005757 0.000000 0.000000 0.000000
# 3 -0.005757 -0.005757 0.020390 0.000000 0.000000 0.000000
# 4 0.000000 0.000000 0.000000 0.033070 0.000000 0.000000
# 5 0.000000 0.000000 0.000000 0.000000 0.033070 0.000000
# 6 0.000000 0.000000 0.000000 0.000000 0.000000 0.043761
#
#
# Mechanical properties :
#
#
# Convention : Reuss Voigt Hill
#
# Bulk Modulus (GPa) = 58.84575 61.11254 59.97914
# Shear Modulus (GPa) = 26.03570 26.94703 26.49137
#
# Velocity S-wave (km/s) = 3.51220 3.57314 3.54280
# Velocity P-wave (km/s) = 6.65794 6.78070 6.71960
#
# Compressibility (1/GPa) = 0.01699358
#
# Stress axis : x y z
#
# Youngs Moduli (GPa) = 75.91194 75.91194 49.04427
#
# Poissons Ratio (x) = 0.25486 0.28235
# Poissons Ratio (y) = 0.25486 0.28235
# Poissons Ratio (z) = 0.43702 0.43702
#
# Static dielectric constant tensor:
#      x y z
#    x 3.895650 0.000000 0.000000 
#    y 0.000000 3.895650 0.000000 
#    z 0.000000 0.000000 3.809690 
# 
# 
# High freq. dielectric constant tensor:
#      x y z
#    x 1.830480 0.000000 0.000000 
#    y 0.000000 1.830480 0.000000 
#    z 0.000000 0.000000 1.828880 
# 
# From -- ./inp_files/4570.got.cif
#   From: 2010.03.12/outbox.cif.g09.slc.cpg/sg120_3_cif.got.tgz:4570.got - 2010.04.06 16:00:44.
