data_PCOD8311404
_publ_section_title
;
Structure prediction by ZEFSAII (Michael W. Deem and Ramdas Pophale) SiO2 
 PCOD8311404
Probable space group: I -4 2 M
;
_chemical_formula_sum "Si O2"
_cell_formula_units_Z 88
_cell_length_a 17.155737
_cell_length_b 17.155737
_cell_length_c 15.748942
_cell_angle_alpha 90.000000
_cell_angle_beta 90.000000
_cell_angle_gamma 90.000000
_cell_volume 4635.217774
_symmetry_space_group_name_H-M "I -4 2 M"
_symmetry_group_IT_number 121
_symmetry_cell_setting 'tetragonal'
loop_
_space_group_symop_operation_xyz
x,y,z
y,-x,-z
-x,-y,z
-y,x,-z
x,-y,-z
-x,y,-z
-y,-x,z
y,x,z
1/2+x,1/2+y,1/2+z
1/2+y,1/2-x,1/2-z
1/2-x,1/2-y,1/2+z
1/2-y,1/2+x,1/2-z
1/2+x,1/2-y,1/2-z
1/2-x,1/2+y,1/2-z
1/2-y,1/2-x,1/2+z
1/2+y,1/2+x,1/2+z
loop_
_atom_site_type_symbol
_atom_site_label
_atom_site_fract_x
_atom_site_fract_y
_atom_site_fract_z
Si Si1 0.799139 0.613911 0.871382
Si Si2 0.273314 0.497264 0.259182
Si Si3 0.256624 0.743377 0.236468
Si Si4 0.849228 0.150773 0.327191
Si Si5 0.198381 0.437013 0.425366
Si Si6 0.313079 0.686922 0.006249
Si Si7 0.370265 0.629736 0.325575
Si Si8 0.814511 0.814511 0.997301
O O1 0.781731 0.541053 0.810217
O O2 0.804885 0.696268 0.820609
O O3 0.884489 0.618002 0.917097
O O4 0.728918 0.618988 0.939492
O O5 0.317076 0.426814 0.214541
O O6 0.214333 0.478752 0.335624
O O7 0.346965 0.543044 0.298559
O O8 0.216172 0.783829 0.314828
O O9 0.317769 0.682232 0.267261
O O10 0.856401 0.143600 0.428630
O O11 0.184272 0.500000 0.500000
O O12 0.273616 0.383461 0.445075
O O13 0.249511 0.750490 0.975184
O O14 0.355559 0.644442 0.423607
#
# Coordination Sequence:
#
# PCOD8311404 Si02
#       8
#    16  16   8   8  16   8   8   8
#     4   9  20  37  56  91 123 153 207 263 304 354
#     4  11  23  37  60  90 129 162 200 253 312 375
#     4   9  16  33  58  82 112 153 211 245 283 358
#     4  12  21  35  62  91 113 163 212 247 301 381
#     4  11  20  34  61  94 121 161 204 260 310 375
#     4   9  20  36  62  86 111 155 218 272 283 330
#     4  10  19  35  55  87 126 165 182 241 325 352
#     4  10  18  33  59  94 120 146 207 261 296 361
#
# _framework density 18.985084000000001
#
# number of rings (size 3 to 8) (size 9 to 14) (size 15 to 20)
#    0.000    1.818    4.545    1.636    0.000    1.091 
#    0.000    0.000    0.000    1.909    4.727    0.000 
#    0.000    0.000    0.000    0.000    0.000    0.000 
#
# Total GULP energy -545154.670777 kJ/mol
# GULP energy per Si atom -12389.878881 kJ/mol
# Density = 1.894187 g / cm^3
# Si number density = 18.985084 Si / 1000 Ang^3
#
#
#
# Elastic Constant Matrix: (Units=GPa)
#
#
# Indices 1 2 3 4 5 6 
#
# 1 68.7015 39.1118 51.6180 0.0000 0.0000 0.0000
# 2 39.1118 68.6954 51.6177 0.0000 0.0000 0.0000
# 3 51.6180 51.6177 149.5826 0.0000 0.0000 0.0000
# 4 0.0000 0.0000 0.0000 33.6240 0.0000 0.0000
# 5 0.0000 0.0000 0.0000 0.0000 33.6240 0.0000
# 6 0.0000 0.0000 0.0000 0.0000 0.0000 26.0298
#
#
#
# Elastic Compliance Matrix: (Units=1/GPa)
#
#
# Indices 1 2 3 4 5 6 
#
# 1 0.023825 -0.009973 -0.004780 0.000000 0.000000 0.000000
# 2 -0.009973 0.023827 -0.004781 0.000000 0.000000 0.000000
# 3 -0.004780 -0.004781 0.009985 0.000000 0.000000 0.000000
# 4 0.000000 0.000000 0.000000 0.029741 0.000000 0.000000
# 5 0.000000 0.000000 0.000000 0.000000 0.029741 0.000000
# 6 0.000000 0.000000 0.000000 0.000000 0.000000 0.038418
#
#
# Mechanical properties :
#
#
# Convention : Reuss Voigt Hill
#
# Bulk Modulus (GPa) = 53.85294 63.51939 58.68617
# Shear Modulus (GPa) = 24.90130 28.29770 26.59950
#
# Velocity S-wave (km/s) = 3.62556 3.86492 3.74715
# Velocity P-wave (km/s) = 6.77892 7.31074 7.04985
#
# Compressibility (1/GPa) = 0.01856909
#
# Stress axis : x y z
#
# Youngs Moduli (GPa) = 41.97328 41.96843 100.15496
#
# Poissons Ratio (x) = 0.41855 0.47874
# Poissons Ratio (y) = 0.41860 0.47883
# Poissons Ratio (z) = 0.20063 0.20065
#
# Static dielectric constant tensor:
#      x y z
#    x 3.243830 0.000000 0.000000 
#    y 0.000000 3.243880 0.000000 
#    z 0.000000 0.000000 3.760300 
# 
# 
# High freq. dielectric constant tensor:
#      x y z
#    x 1.718050 0.000000 0.000000 
#    y 0.000000 1.718050 0.000000 
#    z 0.000000 0.000000 1.758440 
# 
# From -- ./inp_files/4434.got.cif
#   From: 2010.03.12/outbox.cif.g09.slc.cpg/sg121_3_cif.got.tgz:4434.got - 2010.04.06 16:06:48.
