data_PCOD8311251
_publ_section_title
;
Structure prediction by ZEFSAII (Michael W. Deem and Ramdas Pophale) SiO2 
 PCOD8311251
Probable space group: I -4 C 2
;
_chemical_formula_sum "Si O2"
_cell_formula_units_Z 56
_cell_length_a 15.093687
_cell_length_b 15.093687
_cell_length_c 11.591089
_cell_angle_alpha 90.000000
_cell_angle_beta 90.000000
_cell_angle_gamma 90.000000
_cell_volume 2640.674794
_symmetry_space_group_name_H-M "I -4 C 2"
_symmetry_group_IT_number 120
_symmetry_cell_setting 'tetragonal'
loop_
_space_group_symop_operation_xyz
x,y,z
y,-x,-z
-x,-y,z
-y,x,-z
y,x,1/2-z
-y,-x,1/2-z
-x,y,1/2+z
x,-y,1/2+z
1/2+x,1/2+y,1/2+z
1/2+y,1/2-x,1/2-z
1/2-x,1/2-y,1/2+z
1/2-y,1/2+x,1/2-z
1/2+y,1/2+x,-z
1/2-y,1/2-x,-z
1/2-x,1/2+y,z
1/2+x,1/2-y,z
loop_
_atom_site_type_symbol
_atom_site_label
_atom_site_fract_x
_atom_site_fract_y
_atom_site_fract_z
Si Si1 0.942340 0.181557 0.174856
Si Si2 0.512196 0.863861 0.282520
Si Si3 0.261947 0.104531 0.052962
Si Si4 0.128540 0.128540 0.250000
O O1 0.867302 0.132699 0.250000
O O2 0.946130 0.283039 0.213579
O O3 0.034458 0.130991 0.187233
O O4 0.924961 0.186527 0.037925
O O5 0.435153 0.908729 0.202953
O O6 0.473956 0.829451 0.406017
O O7 0.210196 0.139320 0.164004
O O8 0.314586 0.185415 0.000000
#
# Coordination Sequence:
#
# PCOD8311251 Si02
#       4
#    16  16  16   8
#     4  11  25  45  70 102 144 184 239 295 359 438
#     4  10  22  44  69 103 143 182 242 290 358 431
#     4  11  24  44  71 105 139 190 238 302 368 425
#     4  10  27  46  68 106 136 193 242 286 372 435
#
# _framework density 21.206702
#
# number of rings (size 3 to 8) (size 9 to 14) (size 15 to 20)
#    0.000    1.429    2.857    0.429   10.000    1.143 
#    0.000    0.000    0.000    0.000    0.000    0.000 
#    0.000    0.000    0.000    0.000    0.000    0.000 
#
# Total GULP energy -347147.892588 kJ/mol
# GULP energy per Si atom -12398.139021 kJ/mol
# Density = 2.115843 g / cm^3
# Si number density = 21.206702 Si / 1000 Ang^3
#
#
#
# Elastic Constant Matrix: (Units=GPa)
#
#
# Indices 1 2 3 4 5 6 
#
# 1 114.2314 58.8970 49.3355 0.0000 0.0000 0.0000
# 2 58.8970 114.2347 49.3355 0.0000 0.0000 0.0000
# 3 49.3355 49.3355 135.1916 0.0000 0.0000 0.0000
# 4 0.0000 0.0000 0.0000 36.0327 0.0000 0.0000
# 5 0.0000 0.0000 0.0000 0.0000 36.0343 0.0000
# 6 0.0000 0.0000 0.0000 0.0000 0.0000 46.5484
#
#
#
# Elastic Compliance Matrix: (Units=1/GPa)
#
#
# Indices 1 2 3 4 5 6 
#
# 1 0.012682 -0.005389 -0.002661 0.000000 0.000000 0.000000
# 2 -0.005389 0.012682 -0.002661 0.000000 0.000000 0.000000
# 3 -0.002661 -0.002661 0.009339 0.000000 0.000000 0.000000
# 4 0.000000 0.000000 0.000000 0.027753 0.000000 0.000000
# 5 0.000000 0.000000 0.000000 0.000000 0.027751 0.000000
# 6 0.000000 0.000000 0.000000 0.000000 0.000000 0.021483
#
#
# Mechanical properties :
#
#
# Convention : Reuss Voigt Hill
#
# Bulk Modulus (GPa) = 75.30428 75.42153 75.36290
# Shear Modulus (GPa) = 36.35280 37.46238 36.90759
#
# Velocity S-wave (km/s) = 4.14480 4.20758 4.17630
# Velocity P-wave (km/s) = 7.64804 7.69721 7.67267
#
# Compressibility (1/GPa) = 0.01327946
#
# Stress axis : x y z
#
# Youngs Moduli (GPa) = 78.85004 78.85269 107.07410
#
# Poissons Ratio (x) = 0.42496 0.28497
# Poissons Ratio (y) = 0.42495 0.28495
# Poissons Ratio (z) = 0.20985 0.20985
#
# Static dielectric constant tensor:
#      x y z
#    x 3.928690 0.000000 0.000000 
#    y 0.000000 3.928690 0.000000 
#    z 0.000000 0.000000 4.092110 
# 
# 
# High freq. dielectric constant tensor:
#      x y z
#    x 1.840130 0.000000 0.000000 
#    y 0.000000 1.840130 0.000000 
#    z 0.000000 0.000000 1.824270 
# 
# From -- ./inp_files/2187.got.cif
#   From: 2010.03.12/outbox.cif.g09.slc.cpg/sg120_2_cif.got.tgz:2187.got - 2010.04.06 16:00:44.
