data_PCOD8311244
_publ_section_title
;
Structure prediction by ZEFSAII (Michael W. Deem and Ramdas Pophale) SiO2 
 PCOD8311244
Probable space group: I -4 C 2
;
_chemical_formula_sum "Si O2"
_cell_formula_units_Z 100
_cell_length_a 14.946541
_cell_length_b 14.946541
_cell_length_c 22.205893
_cell_angle_alpha 90.000000
_cell_angle_beta 90.000000
_cell_angle_gamma 90.000000
_cell_volume 4960.776241
_symmetry_space_group_name_H-M "I -4 C 2"
_symmetry_group_IT_number 120
_symmetry_cell_setting 'tetragonal'
loop_
_space_group_symop_operation_xyz
x,y,z
y,-x,-z
-x,-y,z
-y,x,-z
y,x,1/2-z
-y,-x,1/2-z
-x,y,1/2+z
x,-y,1/2+z
1/2+x,1/2+y,1/2+z
1/2+y,1/2-x,1/2-z
1/2-x,1/2-y,1/2+z
1/2-y,1/2+x,1/2-z
1/2+y,1/2+x,-z
1/2-y,1/2-x,-z
1/2-x,1/2+y,z
1/2+x,1/2-y,z
loop_
_atom_site_type_symbol
_atom_site_label
_atom_site_fract_x
_atom_site_fract_y
_atom_site_fract_z
Si Si1 0.390491 0.091981 0.252660
Si Si2 0.933130 0.182272 0.529692
Si Si3 0.754678 0.862761 0.345666
Si Si4 0.397336 0.397336 0.250000
Si Si5 0.343155 0.246092 0.160771
Si Si6 0.401089 0.598912 0.250000
Si Si7 0.000000 0.000000 0.000000
Si Si8 0.379643 0.743772 0.527031
O O1 0.491170 0.116183 0.272481
O O2 0.330972 0.095678 0.312568
O O3 0.354539 0.157635 0.201021
O O4 0.908761 0.233272 0.590430
O O5 0.966000 0.080506 0.543093
O O6 0.846493 0.178571 0.485890
O O7 0.019020 0.234082 0.499956
O O8 0.738403 0.758983 0.355721
O O9 0.842990 0.876171 0.307126
O O10 0.379073 0.332448 0.194739
O O11 0.383186 0.498294 0.227824
O O12 0.395037 0.240013 0.097990
O O13 0.330310 0.830310 0.500000
#
# Coordination Sequence:
#
# PCOD8311244 Si02
#       8
#    16  16  16   8  16   8   4  16
#     4  11  23  41  63  91 125 169 209 249 303 367
#     4  10  22  41  66  91 128 161 208 259 310 379
#     4  12  22  39  64  90 127 166 207 254 311 369
#     4  11  23  38  60  94 127 159 196 260 322 369
#     4  12  23  41  65  92 127 163 206 256 314 368
#     4  11  23  36  60  94 127 161 202 252 318 377
#     4   8  20  40  64  94 120 164 200 256 328 366
#     4  11  23  43  64  93 122 167 210 256 316 367
#
# _framework density 20.158135000000001
#
# number of rings (size 3 to 8) (size 9 to 14) (size 15 to 20)
#    0.000    0.960    4.800    2.880    0.000    5.120 
#    2.880    0.000    0.000    0.480    0.000    0.000 
#    0.000    0.000    0.000    0.000    0.000    0.000 
#
# Total GULP energy -619927.277530 kJ/mol
# GULP energy per Si atom -12398.545551 kJ/mol
# Density = 2.011225 g / cm^3
# Si number density = 20.158135 Si / 1000 Ang^3
#
#
#
# Elastic Constant Matrix: (Units=GPa)
#
#
# Indices 1 2 3 4 5 6 
#
# 1 164.3551 0.4069 33.8107 0.0000 0.0000 0.0000
# 2 0.4069 164.3522 33.8086 0.0000 0.0000 0.0000
# 3 33.8107 33.8086 99.3909 0.0000 0.0000 0.0000
# 4 0.0000 0.0000 0.0000 30.4037 0.0000 0.0000
# 5 0.0000 0.0000 0.0000 0.0000 30.4067 0.0000
# 6 0.0000 0.0000 0.0000 0.0000 0.0000 34.3523
#
#
#
# Elastic Compliance Matrix: (Units=1/GPa)
#
#
# Indices 1 2 3 4 5 6 
#
# 1 0.006577 0.000477 -0.002400 0.000000 0.000000 0.000000
# 2 0.000477 0.006577 -0.002400 0.000000 0.000000 0.000000
# 3 -0.002400 -0.002400 0.011694 0.000000 0.000000 0.000000
# 4 0.000000 0.000000 0.000000 0.032891 0.000000 0.000000
# 5 0.000000 0.000000 0.000000 0.000000 0.032887 0.000000
# 6 0.000000 0.000000 0.000000 0.000000 0.000000 0.029110
#
#
# Mechanical properties :
#
#
# Convention : Reuss Voigt Hill
#
# Bulk Modulus (GPa) = 61.71390 62.68340 62.19865
# Shear Modulus (GPa) = 37.37452 43.03737 40.20595
#
# Velocity S-wave (km/s) = 4.31056 4.62561 4.47086
# Velocity P-wave (km/s) = 7.44687 7.72604 7.58774
#
# Compressibility (1/GPa) = 0.01620381
#
# Stress axis : x y z
#
# Youngs Moduli (GPa) = 152.04825 152.04678 85.51513
#
# Poissons Ratio (x) = -0.07258 0.20521
# Poissons Ratio (y) = -0.07258 0.20520
# Poissons Ratio (z) = 0.36487 0.36485
#
# Static dielectric constant tensor:
#      x y z
#    x 3.904810 0.000000 0.000000 
#    y 0.000000 3.904840 0.000000 
#    z 0.000000 0.000000 3.050150 
# 
# 
# High freq. dielectric constant tensor:
#      x y z
#    x 1.801970 0.000000 0.000000 
#    y 0.000000 1.801970 0.000000 
#    z 0.000000 0.000000 1.762810 
# 
# From -- ./inp_files/5888.got.cif
#   From: 2010.03.12/outbox.cif.g09.slc.cpg/sg120_3_cif.got.tgz:5888.got - 2010.04.06 16:00:44.
