data_PCOD8311162
_publ_section_title
;
Structure prediction by ZEFSAII (Michael W. Deem and Ramdas Pophale) SiO2 
 PCOD8311162
Probable space group: I -4 C 2
;
_chemical_formula_sum "Si O2"
_cell_formula_units_Z 80
_cell_length_a 15.331342
_cell_length_b 15.331342
_cell_length_c 17.738473
_cell_angle_alpha 90.000000
_cell_angle_beta 90.000000
_cell_angle_gamma 90.000000
_cell_volume 4169.428922
_symmetry_space_group_name_H-M "I -4 C 2"
_symmetry_group_IT_number 120
_symmetry_cell_setting 'tetragonal'
loop_
_space_group_symop_operation_xyz
x,y,z
y,-x,-z
-x,-y,z
-y,x,-z
y,x,1/2-z
-y,-x,1/2-z
-x,y,1/2+z
x,-y,1/2+z
1/2+x,1/2+y,1/2+z
1/2+y,1/2-x,1/2-z
1/2-x,1/2-y,1/2+z
1/2-y,1/2+x,1/2-z
1/2+y,1/2+x,-z
1/2-y,1/2-x,-z
1/2-x,1/2+y,z
1/2+x,1/2-y,z
loop_
_atom_site_type_symbol
_atom_site_label
_atom_site_fract_x
_atom_site_fract_y
_atom_site_fract_z
Si Si1 0.815601 0.823315 0.339535
Si Si2 0.007430 0.744311 0.839349
Si Si3 0.255681 0.992562 0.339353
Si Si4 0.571864 0.928140 0.916729
Si Si5 0.684419 0.323303 0.660465
O O1 0.816508 0.816508 0.250000
O O2 0.752263 0.747753 0.372230
O O3 0.914951 0.808552 0.366438
O O4 0.782313 0.916308 0.370620
O O5 0.999995 0.736130 0.749998
O O6 0.916293 0.782285 0.870619
O O7 0.027888 0.649754 0.871093
O O8 0.350240 0.972128 0.371103
O O9 0.191454 0.914931 0.366441
O O10 0.500000 0.000000 0.927050
O O11 0.603076 0.896925 0.000000
O O12 0.683507 0.316494 0.750000
#
# Coordination Sequence:
#
# PCOD8311162 Si02
#       5
#    16  16  16  16  16
#     4   9  17  31  51  85 115 142 189 237 275 336
#     4  10  20  34  59  82 113 151 187 231 285 335
#     4  10  20  34  59  82 113 151 187 231 285 335
#     4  11  24  38  53  84 118 141 190 243 279 337
#     4   9  17  31  51  85 115 142 189 237 275 336
#
# _framework density 19.187280000000001
#
# number of rings (size 3 to 8) (size 9 to 14) (size 15 to 20)
#    0.000    2.200    2.000    1.200    5.600    0.800 
#    0.000    6.000    0.000    0.000    0.000    2.800 
#    0.000    0.000    0.000    0.000    0.000    0.000 
#
# Total GULP energy -495821.831510 kJ/mol
# GULP energy per Si atom -12395.545788 kJ/mol
# Density = 1.914361 g / cm^3
# Si number density = 19.187280 Si / 1000 Ang^3
#
#
#
# Elastic Constant Matrix: (Units=GPa)
#
#
# Indices 1 2 3 4 5 6 
#
# 1 160.9095 85.7145 24.0963 0.0000 0.0000 0.0000
# 2 85.7145 160.9099 24.0962 0.0000 0.0000 0.0000
# 3 24.0963 24.0962 26.4104 0.0000 0.0000 0.0000
# 4 0.0000 0.0000 0.0000 6.5654 0.0000 0.0000
# 5 0.0000 0.0000 0.0000 0.0000 6.5654 0.0000
# 6 0.0000 0.0000 0.0000 0.0000 0.0000 47.4344
#
#
#
# Elastic Compliance Matrix: (Units=1/GPa)
#
#
# Indices 1 2 3 4 5 6 
#
# 1 0.009117 -0.004182 -0.004502 0.000000 0.000000 0.000000
# 2 -0.004182 0.009117 -0.004502 0.000000 0.000000 0.000000
# 3 -0.004502 -0.004502 0.046079 0.000000 0.000000 0.000000
# 4 0.000000 0.000000 0.000000 0.152314 0.000000 0.000000
# 5 0.000000 0.000000 0.000000 0.000000 0.152313 0.000000
# 6 0.000000 0.000000 0.000000 0.000000 0.000000 0.021082
#
#
# Mechanical properties :
#
#
# Convention : Reuss Voigt Hill
#
# Bulk Modulus (GPa) = 26.35763 68.44932 47.40347
# Shear Modulus (GPa) = 11.65389 26.40121 19.02755
#
# Velocity S-wave (km/s) = 2.46717 3.71344 3.15250
# Velocity P-wave (km/s) = 4.67790 7.35785 6.16525
#
# Compressibility (1/GPa) = 0.03793968
#
# Stress axis : x y z
#
# Youngs Moduli (GPa) = 109.68955 109.69004 21.70176
#
# Poissons Ratio (x) = 0.45874 0.09771
# Poissons Ratio (y) = 0.45873 0.09770
# Poissons Ratio (z) = 0.49384 0.49384
#
# Static dielectric constant tensor:
#      x y z
#    x 3.813120 0.000000 0.000000 
#    y 0.000000 3.813130 0.000000 
#    z 0.000000 0.000000 3.175660 
# 
# 
# High freq. dielectric constant tensor:
#      x y z
#    x 1.758480 0.000000 0.000000 
#    y 0.000000 1.758480 0.000000 
#    z 0.000000 0.000000 1.696100 
# 
# From -- ./inp_files/5166.got.cif
#   From: 2010.03.12/outbox.cif.g09.slc.cpg/sg120_3_cif.got.tgz:5166.got - 2010.04.06 16:00:44.
