data_PCOD8311897
_publ_section_title
;
Structure prediction by ZEFSAII (Michael W. Deem and Ramdas Pophale) SiO2 
 PCOD8311897
Probable space group: I -4 2 D
;
_chemical_formula_sum "Si O2"
_cell_formula_units_Z 88
_cell_length_a 13.900389
_cell_length_b 13.900389
_cell_length_c 21.018795
_cell_angle_alpha 90.000000
_cell_angle_beta 90.000000
_cell_angle_gamma 90.000000
_cell_volume 4061.268687
_symmetry_space_group_name_H-M "I -4 2 D"
_symmetry_group_IT_number 122
_symmetry_cell_setting 'tetragonal'
loop_
_space_group_symop_operation_xyz
x,y,z
y,-x,-z
-x,-y,z
-y,x,-z
x,1/2-y,1/4-z
-x,1/2+y,1/4-z
-y,1/2-x,1/4+z
y,1/2+x,1/4+z
1/2+x,1/2+y,1/2+z
1/2+y,1/2-x,1/2-z
1/2-x,1/2-y,1/2+z
1/2-y,1/2+x,1/2-z
1/2+x,-y,3/4-z
1/2-x,y,3/4-z
1/2-y,-x,3/4+z
1/2+y,x,3/4+z
loop_
_atom_site_type_symbol
_atom_site_label
_atom_site_fract_x
_atom_site_fract_y
_atom_site_fract_z
Si Si1 0.250000 0.965270 0.875000
Si Si2 0.089852 0.062123 0.795823
Si Si3 0.253756 0.416856 0.948717
Si Si4 0.662742 0.050823 0.062851
Si Si5 0.214966 0.573465 0.701553
Si Si6 0.058281 0.354788 0.243573
O O1 0.184321 0.032870 0.832786
O O2 0.313680 0.902850 0.824835
O O3 0.072202 0.172227 0.810321
O O4 0.112694 0.040937 0.720877
O O5 0.000000 0.000000 0.820955
O O6 0.250000 0.445800 0.875000
O O7 0.143497 0.393457 0.966890
O O8 0.318501 0.322699 0.964039
O O9 0.302371 0.503182 0.988764
O O10 0.656722 0.036857 0.138924
O O11 0.775018 0.066271 0.047896
O O12 0.118965 0.445810 0.266020
#
# Coordination Sequence:
#
# PCOD8311897 Si02
#       6
#     8  16  16  16  16  16
#     4  10  24  36  60  96 128 172 216 262 320 406
#     4  11  23  42  69  97 137 182 220 272 346 408
#     4  10  24  44  67  98 127 171 228 281 340 401
#     4  10  23  41  63  98 135 169 223 269 331 414
#     4  11  24  43  69  93 133 176 222 288 337 399
#     4  10  22  36  58  90 127 168 210 259 317 390
#
# _framework density 21.668106999999999
#
# number of rings (size 3 to 8) (size 9 to 14) (size 15 to 20)
#    0.000    1.636    1.818    1.091   14.000    1.818 
#    0.000    0.000    8.000    0.000    0.000    0.000 
#    0.000    0.000    0.000    0.000    0.000    0.000 
#
# Total GULP energy -545432.402551 kJ/mol
# GULP energy per Si atom -12396.190967 kJ/mol
# Density = 2.161879 g / cm^3
# Si number density = 21.668107 Si / 1000 Ang^3
#
#
#
# Elastic Constant Matrix: (Units=GPa)
#
#
# Indices 1 2 3 4 5 6 
#
# 1 71.2452 5.3309 29.4738 0.0000 0.0000 0.0000
# 2 5.3309 71.2452 29.4738 0.0000 0.0000 0.0000
# 3 29.4738 29.4738 100.1528 0.0000 0.0000 0.0000
# 4 0.0000 0.0000 0.0000 29.5399 0.0000 0.0000
# 5 0.0000 0.0000 0.0000 0.0000 29.5399 0.0000
# 6 0.0000 0.0000 0.0000 0.0000 0.0000 14.3383
#
#
#
# Elastic Compliance Matrix: (Units=1/GPa)
#
#
# Indices 1 2 3 4 5 6 
#
# 1 0.016027 0.000856 -0.004969 0.000000 0.000000 0.000000
# 2 0.000856 0.016027 -0.004969 0.000000 0.000000 0.000000
# 3 -0.004969 -0.004969 0.012909 0.000000 0.000000 0.000000
# 4 0.000000 0.000000 0.000000 0.033853 0.000000 0.000000
# 5 0.000000 0.000000 0.000000 0.000000 0.033853 0.000000
# 6 0.000000 0.000000 0.000000 0.000000 0.000000 0.069743
#
#
# Mechanical properties :
#
#
# Convention : Reuss Voigt Hill
#
# Bulk Modulus (GPa) = 37.31074 41.24449 39.27762
# Shear Modulus (GPa) = 23.86538 26.57461 25.22000
#
# Velocity S-wave (km/s) = 3.32234 3.50585 3.41533
# Velocity P-wave (km/s) = 5.65454 5.95517 5.80680
#
# Compressibility (1/GPa) = 0.02680193
#
# Stress axis : x y z
#
# Youngs Moduli (GPa) = 62.39283 62.39283 77.46411
#
# Poissons Ratio (x) = -0.05343 0.38490
# Poissons Ratio (y) = -0.05343 0.38490
# Poissons Ratio (z) = 0.31001 0.31001
#
# Static dielectric constant tensor:
#      x y z
#    x 3.958970 0.000000 0.000000 
#    y 0.000000 3.958970 0.000000 
#    z 0.000000 0.000000 4.071150 
# 
# 
# High freq. dielectric constant tensor:
#      x y z
#    x 1.844140 0.000000 0.000000 
#    y 0.000000 1.844140 0.000000 
#    z 0.000000 0.000000 1.858390 
# 
# From -- ./inp_files/7200.got.cif
#   From: 2010.03.12/outbox.cif.g09.slc.cpg/sg122_4_cif.got.tgz:7200.got - 2010.04.06 16:17:16.
