data_PCOD8311365
_publ_section_title
;
Structure prediction by ZEFSAII (Michael W. Deem and Ramdas Pophale) SiO2 
 PCOD8311365
Probable space group: I -4 2 M
;
_chemical_formula_sum "Si O2"
_cell_formula_units_Z 64
_cell_length_a 19.429527
_cell_length_b 19.429527
_cell_length_c 10.425814
_cell_angle_alpha 90.000000
_cell_angle_beta 90.000000
_cell_angle_gamma 90.000000
_cell_volume 3935.812756
_symmetry_space_group_name_H-M "I -4 2 M"
_symmetry_group_IT_number 121
_symmetry_cell_setting 'tetragonal'
loop_
_space_group_symop_operation_xyz
x,y,z
y,-x,-z
-x,-y,z
-y,x,-z
x,-y,-z
-x,y,-z
-y,-x,z
y,x,z
1/2+x,1/2+y,1/2+z
1/2+y,1/2-x,1/2-z
1/2-x,1/2-y,1/2+z
1/2-y,1/2+x,1/2-z
1/2+x,1/2-y,1/2-z
1/2-x,1/2+y,1/2-z
1/2-y,1/2-x,1/2+z
1/2+y,1/2+x,1/2+z
loop_
_atom_site_type_symbol
_atom_site_label
_atom_site_fract_x
_atom_site_fract_y
_atom_site_fract_z
Si Si1 0.056008 0.171202 0.243662
Si Si2 0.665932 0.778009 0.756331
Si Si3 0.000000 0.791346 0.500000
Si Si4 0.113111 0.000000 0.000000
Si Si5 0.763847 0.649362 0.039117
O O1 0.114006 0.114006 0.243809
O O2 0.089277 0.247485 0.234923
O O3 0.013699 0.161946 0.375236
O O4 0.005175 0.161524 0.124158
O O5 0.718525 0.718525 0.718185
O O6 0.683423 0.839520 0.657706
O O7 0.674167 0.799935 0.905681
O O8 0.932343 0.746723 0.531767
O O9 0.067413 0.067413 0.981522
O O10 0.691132 0.691132 0.055012
#
# Coordination Sequence:
#
# PCOD8311365 Si02
#       5
#    16  16   8   8  16
#     4   9  18  31  44  61  89 121 153 187 219 260
#     4   8  15  28  44  61  82 111 145 181 221 261
#     4  10  18  28  44  67  92 113 142 182 230 276
#     4   9  18  30  42  60  90 127 160 184 210 253
#     4   9  17  29  45  65  90 117 145 182 227 271
#
# _framework density 16.260935
#
# number of rings (size 3 to 8) (size 9 to 14) (size 15 to 20)
#    0.000    3.125    0.000    2.250    0.000    4.000 
#    0.000    5.000    0.000    3.375    0.000    0.000 
#    0.000   65.000    0.000    0.000    0.000    0.000 
#
# Total GULP energy -396499.110527 kJ/mol
# GULP energy per Si atom -12390.597204 kJ/mol
# Density = 1.622392 g / cm^3
# Si number density = 16.260935 Si / 1000 Ang^3
#
#
#
# Elastic Constant Matrix: (Units=GPa)
#
#
# Indices 1 2 3 4 5 6 
#
# 1 53.8026 20.5765 42.8668 0.0000 0.0000 0.0000
# 2 20.5765 53.8026 42.8668 0.0000 0.0000 0.0000
# 3 42.8668 42.8668 140.1451 0.0000 0.0000 0.0000
# 4 0.0000 0.0000 0.0000 29.6398 0.0000 0.0000
# 5 0.0000 0.0000 0.0000 0.0000 29.6398 0.0000
# 6 0.0000 0.0000 0.0000 0.0000 0.0000 1.0767
#
#
#
# Elastic Compliance Matrix: (Units=1/GPa)
#
#
# Indices 1 2 3 4 5 6 
#
# 1 0.025431 -0.004665 -0.006352 0.000000 0.000000 0.000000
# 2 -0.004665 0.025431 -0.006352 0.000000 0.000000 0.000000
# 3 -0.006352 -0.006352 0.011021 0.000000 0.000000 0.000000
# 4 0.000000 0.000000 0.000000 0.033738 0.000000 0.000000
# 5 0.000000 0.000000 0.000000 0.000000 0.033738 0.000000
# 6 0.000000 0.000000 0.000000 0.000000 0.000000 0.928765
#
#
# Mechanical properties :
#
#
# Convention : Reuss Voigt Hill
#
# Bulk Modulus (GPa) = 36.83766 51.15229 43.99498
# Shear Modulus (GPa) = 4.53757 21.50061 13.01909
#
# Velocity S-wave (km/s) = 1.67228 3.64019 2.83262
# Velocity P-wave (km/s) = 5.14120 7.01380 6.14920
#
# Compressibility (1/GPa) = 0.02714613
#
# Stress axis : x y z
#
# Youngs Moduli (GPa) = 39.32135 39.32135 90.73431
#
# Poissons Ratio (x) = 0.18345 0.57633
# Poissons Ratio (y) = 0.18345 0.57633
# Poissons Ratio (z) = 0.24976 0.24976
#
# Static dielectric constant tensor:
#      x y z
#    x 2.922910 0.000000 0.000000 
#    y 0.000000 2.922910 0.000000 
#    z 0.000000 0.000000 3.489090 
# 
# 
# High freq. dielectric constant tensor:
#      x y z
#    x 1.590580 0.000000 0.000000 
#    y 0.000000 1.590580 0.000000 
#    z 0.000000 0.000000 1.649700 
# 
# From -- ./inp_files/1629.got.cif
#   From: 2010.03.12/outbox.cif.g09.slc.cpg/sg121_1_cif.got.tgz:1629.got - 2010.04.06 16:06:48.
