data_PCOD8311107
_publ_section_title
;
Structure prediction by ZEFSAII (Michael W. Deem and Ramdas Pophale) SiO2 
 PCOD8311107
Probable space group: I -4 C 2
;
_chemical_formula_sum "Si O2"
_cell_formula_units_Z 52
_cell_length_a 12.871715
_cell_length_b 12.871715
_cell_length_c 20.778538
_cell_angle_alpha 90.000000
_cell_angle_beta 90.000000
_cell_angle_gamma 90.000000
_cell_volume 3442.609932
_symmetry_space_group_name_H-M "I -4 C 2"
_symmetry_group_IT_number 120
_symmetry_cell_setting 'tetragonal'
loop_
_space_group_symop_operation_xyz
x,y,z
y,-x,-z
-x,-y,z
-y,x,-z
y,x,1/2-z
-y,-x,1/2-z
-x,y,1/2+z
x,-y,1/2+z
1/2+x,1/2+y,1/2+z
1/2+y,1/2-x,1/2-z
1/2-x,1/2-y,1/2+z
1/2-y,1/2+x,1/2-z
1/2+y,1/2+x,-z
1/2-y,1/2-x,-z
1/2-x,1/2+y,z
1/2+x,1/2-y,z
loop_
_atom_site_type_symbol
_atom_site_label
_atom_site_fract_x
_atom_site_fract_y
_atom_site_fract_z
Si Si1 0.423180 0.232404 0.466293
Si Si2 0.887499 0.744727 0.549213
Si Si3 0.051418 0.602530 0.873054
Si Si4 0.000000 0.500000 0.250000
O O1 0.359138 0.140863 0.500000
O O2 0.348813 0.322541 0.439353
O O3 0.500077 0.276805 0.521266
O O4 0.489716 0.198769 0.403929
O O5 0.832364 0.667637 0.500000
O O6 0.896112 0.675879 0.614213
O O7 0.035168 0.596810 0.795464
O O8 0.000000 0.500000 0.905529
#
# Coordination Sequence:
#
# PCOD8311107 Si02
#       4
#    16  16  16   4
#     4  10  16  28  44  68  91 116 147 186 233 289
#     4   9  18  26  45  69  90 116 147 184 238 282
#     4   9  16  29  48  61  89 124 156 193 223 262
#     4   8  16  28  50  64  84 128 168 194 224 244
#
# _framework density 15.104819000000001
#
# number of rings (size 3 to 8) (size 9 to 14) (size 15 to 20)
#    0.923    1.846    3.077    0.000    0.000    0.615 
#    0.000    1.538    0.000    0.000    0.000    0.000 
#    0.000   14.769    0.000    0.000    0.000    0.000 
#
# Total GULP energy -322091.871118 kJ/mol
# GULP energy per Si atom -12388.148889 kJ/mol
# Density = 1.507044 g / cm^3
# Si number density = 15.104819 Si / 1000 Ang^3
#
#
#
# Elastic Constant Matrix: (Units=GPa)
#
#
# Indices 1 2 3 4 5 6 
#
# 1 81.9468 53.1748 38.5600 0.0000 0.0000 0.0000
# 2 53.1748 81.9469 38.5607 0.0000 0.0000 0.0000
# 3 38.5600 38.5607 98.1480 0.0000 0.0000 0.0000
# 4 0.0000 0.0000 0.0000 15.2909 0.0000 0.0000
# 5 0.0000 0.0000 0.0000 0.0000 15.2907 0.0000
# 6 0.0000 0.0000 0.0000 0.0000 0.0000 32.7934
#
#
#
# Elastic Compliance Matrix: (Units=1/GPa)
#
#
# Indices 1 2 3 4 5 6 
#
# 1 0.022148 -0.012608 -0.003748 0.000000 0.000000 0.000000
# 2 -0.012608 0.022148 -0.003748 0.000000 0.000000 0.000000
# 3 -0.003748 -0.003748 0.013134 0.000000 0.000000 0.000000
# 4 0.000000 0.000000 0.000000 0.065398 0.000000 0.000000
# 5 0.000000 0.000000 0.000000 0.000000 0.065399 0.000000
# 6 0.000000 0.000000 0.000000 0.000000 0.000000 0.030494
#
#
# Mechanical properties :
#
#
# Convention : Reuss Voigt Hill
#
# Bulk Modulus (GPa) = 58.06715 58.07031 58.06873
# Shear Modulus (GPa) = 18.89145 21.45808 20.17477
#
# Velocity S-wave (km/s) = 3.54035 3.77319 3.65862
# Velocity P-wave (km/s) = 7.43225 7.58360 7.50830
#
# Compressibility (1/GPa) = 0.01722144
#
# Stress axis : x y z
#
# Youngs Moduli (GPa) = 45.15104 45.15073 76.13963
#
# Poissons Ratio (x) = 0.56926 0.28536
# Poissons Ratio (y) = 0.56927 0.28539
# Poissons Ratio (z) = 0.16922 0.16923
#
# Static dielectric constant tensor:
#      x y z
#    x 2.835830 0.000000 0.000000 
#    y 0.000000 2.835830 0.000000 
#    z 0.000000 0.000000 2.622950 
# 
# 
# High freq. dielectric constant tensor:
#      x y z
#    x 1.569690 0.000000 0.000000 
#    y 0.000000 1.569690 0.000000 
#    z 0.000000 0.000000 1.547690 
# 
# From -- ./inp_files/6083.got.cif
#   From: 2010.03.12/outbox.cif.g09.slc.cpg/sg120_4_cif.got.tgz:6083.got - 2010.04.06 16:00:44.
