data_PCOD8311044
_publ_section_title
;
Structure prediction by ZEFSAII (Michael W. Deem and Ramdas Pophale) SiO2 
 PCOD8311044
Probable space group: I -4 M 2
;
_chemical_formula_sum "Si O2"
_cell_formula_units_Z 32
_cell_length_a 10.437069
_cell_length_b 10.437069
_cell_length_c 15.144688
_cell_angle_alpha 90.000000
_cell_angle_beta 90.000000
_cell_angle_gamma 90.000000
_cell_volume 1649.747352
_symmetry_space_group_name_H-M "I -4 M 2"
_symmetry_group_IT_number 119
_symmetry_cell_setting 'tetragonal'
loop_
_space_group_symop_operation_xyz
x,y,z
y,-x,-z
-x,-y,z
-y,x,-z
y,x,-z
-y,-x,-z
-x,y,z
x,-y,z
1/2+x,1/2+y,1/2+z
1/2+y,1/2-x,1/2-z
1/2-x,1/2-y,1/2+z
1/2-y,1/2+x,1/2-z
1/2+y,1/2+x,1/2-z
1/2-y,1/2-x,1/2-z
1/2-x,1/2+y,1/2+z
1/2+x,1/2-y,1/2+z
loop_
_atom_site_type_symbol
_atom_site_label
_atom_site_fract_x
_atom_site_fract_y
_atom_site_fract_z
Si Si1 0.000000 0.199205 0.469039
Si Si2 0.500000 0.853421 0.129446
Si Si3 0.000000 0.153597 0.268278
Si Si4 0.272820 0.227181 0.250000
O O1 0.000000 0.220780 0.364620
O O2 0.125314 0.125314 0.500000
O O3 0.000000 0.332566 0.523845
O O4 0.628304 0.792112 0.170128
O O5 0.500000 0.000000 0.154617
O O6 0.873564 0.203859 0.216727
O O7 0.000000 0.000000 0.277887
#
# Coordination Sequence:
#
# PCOD8311044 Si02
#       4
#     8   8   8   8
#     4  11  18  36  61  82 111 157 202 244 303 362
#     4  12  21  37  62  90 116 157 213 252 298 370
#     4  12  22  39  63  90 122 159 205 258 303 368
#     4  12  21  37  64  86 120 156 198 256 302 356
#
# _framework density 19.396910999999999
#
# number of rings (size 3 to 8) (size 9 to 14) (size 15 to 20)
#    0.000    0.250   12.500    0.000    0.000    0.500 
#    4.500    0.000    0.000    0.000    0.000    0.000 
#    0.000    0.000    0.000    0.000    0.000    0.000 
#
# Total GULP energy -198337.862994 kJ/mol
# GULP energy per Si atom -12396.116437 kJ/mol
# Density = 1.935276 g / cm^3
# Si number density = 19.396911 Si / 1000 Ang^3
#
#
#
# Elastic Constant Matrix: (Units=GPa)
#
#
# Indices 1 2 3 4 5 6 
#
# 1 142.1389 45.5865 23.6616 0.0000 0.0000 0.0000
# 2 45.5865 142.1409 23.6612 0.0000 0.0000 0.0000
# 3 23.6616 23.6612 65.2217 0.0000 0.0000 0.0000
# 4 0.0000 0.0000 0.0000 15.8681 0.0000 0.0000
# 5 0.0000 0.0000 0.0000 0.0000 15.8681 0.0000
# 6 0.0000 0.0000 0.0000 0.0000 0.0000 -2.3026
#
#
#
# Elastic Compliance Matrix: (Units=1/GPa)
#
#
# Indices 1 2 3 4 5 6 
#
# 1 0.008110 -0.002247 -0.002127 0.000000 0.000000 0.000000
# 2 -0.002247 0.008110 -0.002127 0.000000 0.000000 0.000000
# 3 -0.002127 -0.002127 0.016876 0.000000 0.000000 0.000000
# 4 0.000000 0.000000 0.000000 0.063019 0.000000 0.000000
# 5 0.000000 0.000000 0.000000 0.000000 0.063019 0.000000
# 6 0.000000 0.000000 0.000000 0.000000 0.000000 -0.434288
#
#
# Mechanical properties :
#
#
# Convention : Reuss Voigt Hill
#
# Bulk Modulus (GPa) = 49.76693 59.48001 54.62347
# Shear Modulus (GPa) = -19.57300 22.99287 1.70994
#
# Velocity S-wave (km/s) = -3.18005 3.44668 0.93993
# Velocity P-wave (km/s) = 3.49704 6.82428 5.42218
#
# Compressibility (1/GPa) = 0.02009366
#
# Stress axis : x y z
#
# Youngs Moduli (GPa) = 123.30307 123.30519 59.25705
#
# Poissons Ratio (x) = 0.27706 0.12605
# Poissons Ratio (y) = 0.27705 0.12604
# Poissons Ratio (z) = 0.26228 0.26227
#
# Static dielectric constant tensor:
#      x y z
#    x 3.721390 0.000000 0.000000 
#    y 0.000000 3.721380 0.000000 
#    z 0.000000 0.000000 3.263380 
# 
# 
# High freq. dielectric constant tensor:
#      x y z
#    x 1.758640 0.000000 0.000000 
#    y 0.000000 1.758640 0.000000 
#    z 0.000000 0.000000 1.719010 
# 
# From -- ./inp_files/3107.got.cif
#   From: 2010.03.12/outbox.cif.g09.slc.cpg/sg119_2_cif.got.tgz:3107.got - 2010.04.14 02:25:26.
