data_PCOD8311227
_publ_section_title
;
Structure prediction by ZEFSAII (Michael W. Deem and Ramdas Pophale) SiO2 
 PCOD8311227
Probable space group: I -4 C 2
;
_chemical_formula_sum "Si O2"
_cell_formula_units_Z 56
_cell_length_a 22.311330
_cell_length_b 22.311330
_cell_length_c 5.107792
_cell_angle_alpha 90.000000
_cell_angle_beta 90.000000
_cell_angle_gamma 90.000000
_cell_volume 2542.635599
_symmetry_space_group_name_H-M "I -4 C 2"
_symmetry_group_IT_number 120
_symmetry_cell_setting 'tetragonal'
loop_
_space_group_symop_operation_xyz
x,y,z
y,-x,-z
-x,-y,z
-y,x,-z
y,x,1/2-z
-y,-x,1/2-z
-x,y,1/2+z
x,-y,1/2+z
1/2+x,1/2+y,1/2+z
1/2+y,1/2-x,1/2-z
1/2-x,1/2-y,1/2+z
1/2-y,1/2+x,1/2-z
1/2+y,1/2+x,-z
1/2-y,1/2-x,-z
1/2-x,1/2+y,z
1/2+x,1/2-y,z
loop_
_atom_site_type_symbol
_atom_site_label
_atom_site_fract_x
_atom_site_fract_y
_atom_site_fract_z
Si Si1 0.467987 0.701673 0.718764
Si Si2 0.346728 0.153273 0.000000
Si Si3 0.033928 0.656541 0.257523
Si Si4 0.341926 0.710634 0.509390
O O1 0.514055 0.675315 0.501478
O O2 0.473731 0.772626 0.743727
O O3 0.401285 0.682421 0.637701
O O4 0.359673 0.104772 0.770626
O O5 0.278142 0.146048 0.094539
O O6 0.006380 0.629158 0.521680
O O7 0.292794 0.707207 0.750000
O O8 0.325411 0.674590 0.250000
#
# Coordination Sequence:
#
# PCOD8311227 Si02
#       4
#    16   8  16  16
#     4   9  17  32  51  70  99 140 178 211 246 292
#     4  10  22  36  56  75 108 148 170 212 280 321
#     4   9  19  33  51  73  94 130 185 223 250 305
#     4  11  22  34  51  82 116 139 169 210 263 329
#
# _framework density 22.024391999999999
#
# number of rings (size 3 to 8) (size 9 to 14) (size 15 to 20)
#    0.000    2.286    0.000    2.571    0.000   10.286 
#    0.000    0.000    0.000    2.571    0.000    0.000 
#    0.000   40.000    0.000    0.000    0.000    0.000 
#
# Total GULP energy -346905.611744 kJ/mol
# GULP energy per Si atom -12389.486134 kJ/mol
# Density = 2.197426 g / cm^3
# Si number density = 22.024392 Si / 1000 Ang^3
#
#
#
# Elastic Constant Matrix: (Units=GPa)
#
#
# Indices 1 2 3 4 5 6 
#
# 1 56.5756 13.5463 3.2093 0.0000 0.0000 0.0000
# 2 13.5463 56.5779 3.2091 0.0000 0.0000 0.0000
# 3 3.2093 3.2091 98.6386 0.0000 0.0000 0.0000
# 4 0.0000 0.0000 0.0000 18.6540 0.0000 0.0000
# 5 0.0000 0.0000 0.0000 0.0000 18.6543 0.0000
# 6 0.0000 0.0000 0.0000 0.0000 0.0000 7.2345
#
#
#
# Elastic Compliance Matrix: (Units=1/GPa)
#
#
# Indices 1 2 3 4 5 6 
#
# 1 0.018772 -0.004468 -0.000465 0.000000 0.000000 0.000000
# 2 -0.004468 0.018771 -0.000465 0.000000 0.000000 0.000000
# 3 -0.000465 -0.000465 0.010168 0.000000 0.000000 0.000000
# 4 0.000000 0.000000 0.000000 0.053608 0.000000 0.000000
# 5 0.000000 0.000000 0.000000 0.000000 0.053607 0.000000
# 6 0.000000 0.000000 0.000000 0.000000 0.000000 0.138226
#
#
# Mechanical properties :
#
#
# Convention : Reuss Voigt Hill
#
# Bulk Modulus (GPa) = 27.09046 27.96906 27.52976
# Shear Modulus (GPa) = 15.81010 21.69707 18.75359
#
# Velocity S-wave (km/s) = 2.68217 3.14210 2.92120
# Velocity P-wave (km/s) = 4.68177 5.08826 4.88924
#
# Compressibility (1/GPa) = 0.03691337
#
# Stress axis : x y z
#
# Youngs Moduli (GPa) = 53.27172 53.27390 98.34487
#
# Poissons Ratio (x) = 0.23803 0.04577
# Poissons Ratio (y) = 0.23802 0.04576
# Poissons Ratio (z) = 0.02479 0.02479
#
# Static dielectric constant tensor:
#      x y z
#    x 3.853660 0.000000 0.000000 
#    y 0.000000 3.853630 0.000000 
#    z 0.000000 0.000000 4.287710 
# 
# 
# High freq. dielectric constant tensor:
#      x y z
#    x 1.833540 0.000000 0.000000 
#    y 0.000000 1.833540 0.000000 
#    z 0.000000 0.000000 1.876260 
# 
# From -- ./inp_files/309.got.cif
#   From: 2010.03.12/outbox.cif.g09.slc.cpg/sg120_1_cif.got.tgz:309.got - 2010.04.06 16:00:44.
