data_PCOD8311688
_publ_section_title
;
Structure prediction by ZEFSAII (Michael W. Deem and Ramdas Pophale) SiO2 
 PCOD8311688
Probable space group: I -4 2 M
;
_chemical_formula_sum "Si O2"
_cell_formula_units_Z 48
_cell_length_a 12.908047
_cell_length_b 12.908047
_cell_length_c 14.412184
_cell_angle_alpha 90.000000
_cell_angle_beta 90.000000
_cell_angle_gamma 90.000000
_cell_volume 2401.324624
_symmetry_space_group_name_H-M "I -4 2 M"
_symmetry_group_IT_number 121
_symmetry_cell_setting 'tetragonal'
loop_
_space_group_symop_operation_xyz
x,y,z
y,-x,-z
-x,-y,z
-y,x,-z
x,-y,-z
-x,y,-z
-y,-x,z
y,x,z
1/2+x,1/2+y,1/2+z
1/2+y,1/2-x,1/2-z
1/2-x,1/2-y,1/2+z
1/2-y,1/2+x,1/2-z
1/2+x,1/2-y,1/2-z
1/2-x,1/2+y,1/2-z
1/2-y,1/2-x,1/2+z
1/2+y,1/2+x,1/2+z
loop_
_atom_site_type_symbol
_atom_site_label
_atom_site_fract_x
_atom_site_fract_y
_atom_site_fract_z
Si Si1 0.112515 0.276591 0.481321
Si Si2 0.942001 0.389757 0.869346
Si Si3 0.136225 0.301314 0.804718
O O1 0.199488 0.199488 0.521473
O O2 0.119567 0.389947 0.529632
O O3 0.126106 0.292593 0.371036
O O4 0.000000 0.227017 0.500000
O O5 0.849287 0.376930 0.796377
O O6 0.000000 0.500000 0.855296
O O7 0.022981 0.295898 0.853042
O O8 0.186954 0.186954 0.797405
#
# Coordination Sequence:
#
# PCOD8311688 Si02
#       3
#    16  16  16
#     4  11  23  37  59  90 124 159 200 251 306 370
#     4  12  20  37  63  87 115 155 206 256 293 361
#     4  11  22  35  57  90 119 152 200 253 307 353
#
# _framework density 19.988966999999999
#
# number of rings (size 3 to 8) (size 9 to 14) (size 15 to 20)
#    0.000    0.667    6.667    2.000    0.000    0.333 
#    0.000    0.000    0.000    6.000    0.000    9.333 
#    0.000    0.000    0.000    0.000    0.000    0.000 
#
# Total GULP energy -297505.142777 kJ/mol
# GULP energy per Si atom -12396.047616 kJ/mol
# Density = 1.994347 g / cm^3
# Si number density = 19.988967 Si / 1000 Ang^3
#
#
#
# Elastic Constant Matrix: (Units=GPa)
#
#
# Indices 1 2 3 4 5 6 
#
# 1 95.3931 53.7577 6.1856 0.0000 0.0000 0.0000
# 2 53.7577 95.3932 6.1856 0.0000 0.0000 0.0000
# 3 6.1856 6.1856 57.6463 0.0000 0.0000 0.0000
# 4 0.0000 0.0000 0.0000 29.7491 0.0000 0.0000
# 5 0.0000 0.0000 0.0000 0.0000 29.7491 0.0000
# 6 0.0000 0.0000 0.0000 0.0000 0.0000 46.0739
#
#
#
# Elastic Compliance Matrix: (Units=1/GPa)
#
#
# Indices 1 2 3 4 5 6 
#
# 1 0.015391 -0.008627 -0.000726 0.000000 0.000000 0.000000
# 2 -0.008627 0.015391 -0.000726 0.000000 0.000000 0.000000
# 3 -0.000726 -0.000726 0.017503 0.000000 0.000000 0.000000
# 4 0.000000 0.000000 0.000000 0.033614 0.000000 0.000000
# 5 0.000000 0.000000 0.000000 0.000000 0.033615 0.000000
# 6 0.000000 0.000000 0.000000 0.000000 0.000000 0.021704
#
#
# Mechanical properties :
#
#
# Convention : Reuss Voigt Hill
#
# Bulk Modulus (GPa) = 35.55044 42.29895 38.92469
# Shear Modulus (GPa) = 29.98464 33.26800 31.62632
#
# Velocity S-wave (km/s) = 3.87726 4.08403 3.98199
# Velocity P-wave (km/s) = 6.15369 6.59137 6.37629
#
# Compressibility (1/GPa) = 0.02812905
#
# Stress axis : x y z
#
# Youngs Moduli (GPa) = 64.97132 64.97133 57.13328
#
# Poissons Ratio (x) = 0.56048 0.04147
# Poissons Ratio (y) = 0.56048 0.04147
# Poissons Ratio (z) = 0.04716 0.04716
#
# Static dielectric constant tensor:
#      x y z
#    x 3.725180 0.000000 0.000000 
#    y 0.000000 3.725180 0.000000 
#    z 0.000000 0.000000 3.775060 
# 
# 
# High freq. dielectric constant tensor:
#      x y z
#    x 1.757640 0.000000 0.000000 
#    y 0.000000 1.757640 0.000000 
#    z 0.000000 0.000000 1.803800 
# 
# From -- ./inp_files/3846.got.cif
#   From: 2010.03.12/outbox.cif.g09.slc.cpg/sg121_2_cif.got.tgz:3846.got - 2010.04.06 16:06:48.
