data_PCOD8311053
_publ_section_title
;
Structure prediction by ZEFSAII (Michael W. Deem and Ramdas Pophale) SiO2 
 PCOD8311053
Probable space group: I -4 M 2
;
_chemical_formula_sum "Si O2"
_cell_formula_units_Z 72
_cell_length_a 17.376593
_cell_length_b 17.376593
_cell_length_c 12.271091
_cell_angle_alpha 90.000000
_cell_angle_beta 90.000000
_cell_angle_gamma 90.000000
_cell_volume 3705.206650
_symmetry_space_group_name_H-M "I -4 M 2"
_symmetry_group_IT_number 119
_symmetry_cell_setting 'tetragonal'
loop_
_space_group_symop_operation_xyz
x,y,z
y,-x,-z
-x,-y,z
-y,x,-z
y,x,-z
-y,-x,-z
-x,y,z
x,-y,z
1/2+x,1/2+y,1/2+z
1/2+y,1/2-x,1/2-z
1/2-x,1/2-y,1/2+z
1/2-y,1/2+x,1/2-z
1/2+y,1/2+x,1/2-z
1/2-y,1/2-x,1/2-z
1/2-x,1/2+y,1/2+z
1/2+x,1/2-y,1/2+z
loop_
_atom_site_type_symbol
_atom_site_label
_atom_site_fract_x
_atom_site_fract_y
_atom_site_fract_z
Si Si1 0.091992 0.802883 0.430570
Si Si2 0.823627 0.199616 0.212308
Si Si3 0.853161 0.679737 0.053052
Si Si4 0.085732 0.414269 0.250000
Si Si5 0.087558 0.305798 0.819798
O O1 0.124674 0.875327 0.500000
O O2 0.108151 0.811309 0.300583
O O3 0.137705 0.727815 0.473857
O O4 0.000000 0.796209 0.448616
O O5 0.765917 0.265917 0.250000
O O6 0.848390 0.230516 0.092456
O O7 0.779765 0.119106 0.202621
O O8 0.898388 0.639299 0.149129
O O9 0.904709 0.674472 0.946465
O O10 0.099803 0.500000 0.207511
O O11 0.130819 0.369182 0.750000
O O12 0.000000 0.307123 0.782764
#
# Coordination Sequence:
#
# PCOD8311053 Si02
#       5
#    16  16  16   8  16
#     4  11  22  36  59  89 120 156 198 249 306 358
#     4   9  19  38  60  84 111 148 204 248 288 347
#     4  11  20  39  64  85 118 155 201 248 298 363
#     4  11  22  34  56  94 128 154 189 242 310 372
#     4  11  24  39  58  84 118 159 201 244 296 361
#
# _framework density 19.432113999999999
#
# number of rings (size 3 to 8) (size 9 to 14) (size 15 to 20)
#    0.000    1.444    3.333    6.000    0.000    5.778 
#    0.000    0.000    0.000    0.000    0.000    0.000 
#    0.000    0.000    0.000    0.000    0.000    0.000 
#
# Total GULP energy -446254.455581 kJ/mol
# GULP energy per Si atom -12395.957099 kJ/mol
# Density = 1.938789 g / cm^3
# Si number density = 19.432114 Si / 1000 Ang^3
#
#
#
# Elastic Constant Matrix: (Units=GPa)
#
#
# Indices 1 2 3 4 5 6 
#
# 1 -26.7073 162.6214 20.7619 0.0000 0.0000 0.0000
# 2 162.6214 -26.7400 20.7333 0.0000 0.0000 0.0000
# 3 20.7619 20.7333 90.7980 0.0000 0.0000 0.0000
# 4 0.0000 0.0000 0.0000 12.2587 0.0000 0.0000
# 5 0.0000 0.0000 0.0000 0.0000 12.2621 0.0000
# 6 0.0000 0.0000 0.0000 0.0000 0.0000 19.3565
#
#
#
# Elastic Compliance Matrix: (Units=1/GPa)
#
#
# Indices 1 2 3 4 5 6 
#
# 1 0.001315 0.006596 -0.001807 0.000000 0.000000 0.000000
# 2 0.006596 0.001314 -0.001808 0.000000 0.000000 0.000000
# 3 -0.001807 -0.001808 0.011840 0.000000 0.000000 0.000000
# 4 0.000000 0.000000 0.000000 0.081575 0.000000 0.000000
# 5 0.000000 0.000000 0.000000 0.000000 0.081552 0.000000
# 6 0.000000 0.000000 0.000000 0.000000 0.000000 0.051662
#
#
# Mechanical properties :
#
#
# Convention : Reuss Voigt Hill
#
# Bulk Modulus (GPa) = 48.94733 49.50930 49.22832
# Shear Modulus (GPa) = 21.72912 -2.34226 9.69343
#
# Velocity S-wave (km/s) = 3.34759 -1.09908 2.23589
# Velocity P-wave (km/s) = 6.33919 4.89109 5.66163
#
# Compressibility (1/GPa) = 0.02043012
#
# Stress axis : x y z
#
# Youngs Moduli (GPa) = 760.50090 760.97350 84.46291
#
# Poissons Ratio (x) = -5.01929 0.15261
# Poissons Ratio (y) = -5.01617 0.15273
# Poissons Ratio (z) = 1.37408 1.37606
#
# Static dielectric constant tensor:
#      x y z
#    x 3.581160 0.000000 0.000000 
#    y 0.000000 3.581150 0.000000 
#    z 0.000000 0.000000 3.938010 
# 
# 
# High freq. dielectric constant tensor:
#      x y z
#    x 1.741950 0.000000 0.000000 
#    y 0.000000 1.741950 0.000000 
#    z 0.000000 0.000000 1.769180 
# 
# From -- ./inp_files/3917.got.cif
#   From: 2010.03.12/outbox.cif.g09.slc.cpg/sg119_2_cif.got.tgz:3917.got - 2010.04.14 02:25:26.
