data_PCOD8311341
_publ_section_title
;
Structure prediction by ZEFSAII (Michael W. Deem and Ramdas Pophale) SiO2 
 PCOD8311341
Probable space group: I -4 2 M
;
_chemical_formula_sum "Si O2"
_cell_formula_units_Z 88
_cell_length_a 16.051213
_cell_length_b 16.051213
_cell_length_c 19.198627
_cell_angle_alpha 90.000000
_cell_angle_beta 90.000000
_cell_angle_gamma 90.000000
_cell_volume 4946.361883
_symmetry_space_group_name_H-M "I -4 2 M"
_symmetry_group_IT_number 121
_symmetry_cell_setting 'tetragonal'
loop_
_space_group_symop_operation_xyz
x,y,z
y,-x,-z
-x,-y,z
-y,x,-z
x,-y,-z
-x,y,-z
-y,-x,z
y,x,z
1/2+x,1/2+y,1/2+z
1/2+y,1/2-x,1/2-z
1/2-x,1/2-y,1/2+z
1/2-y,1/2+x,1/2-z
1/2+x,1/2-y,1/2-z
1/2-x,1/2+y,1/2-z
1/2-y,1/2-x,1/2+z
1/2+y,1/2+x,1/2+z
loop_
_atom_site_type_symbol
_atom_site_label
_atom_site_fract_x
_atom_site_fract_y
_atom_site_fract_z
Si Si1 0.341096 0.793285 0.571454
Si Si2 0.763160 0.900134 0.785268
Si Si3 0.000000 0.758760 0.000000
Si Si4 0.066281 0.202929 0.142845
Si Si5 0.338811 0.800903 0.852664
Si Si6 0.769532 0.905280 0.511656
O O1 0.291967 0.708034 0.551632
O O2 0.364843 0.794521 0.652537
O O3 0.423073 0.798818 0.523663
O O4 0.282520 0.871956 0.554834
O O5 0.845868 0.845868 0.775933
O O6 0.706759 0.896331 0.715937
O O7 0.793748 0.993875 0.799544
O O8 0.972543 0.815110 0.066145
O O9 0.128963 0.128963 0.163373
O O10 0.109808 0.293630 0.143384
O O11 0.267498 0.732503 0.851112
O O12 0.396338 0.788077 0.920065
O O13 0.855264 0.855264 0.520728
O O14 0.794319 0.000000 0.500000
#
# Coordination Sequence:
#
# PCOD8311341 Si02
#       6
#    16  16   8  16  16  16
#     4   9  17  31  50  74 104 139 173 213 267 323
#     4   9  19  33  52  78 111 142 176 219 264 322
#     4  10  16  28  53  79 104 134 178 224 262 327
#     4  10  19  32  55  80 109 145 181 220 275 337
#     4   9  18  35  54  74 102 143 183 217 262 323
#     4  10  20  35  56  77 101 133 177 229 278 324
#
# _framework density 17.790854
#
# number of rings (size 3 to 8) (size 9 to 14) (size 15 to 20)
#    0.000    2.545    1.818    0.545    0.000    2.727 
#    0.000    3.182    0.000    9.545    0.000    0.000 
#    0.000    0.000    0.000    0.000    0.000    0.000 
#
# Total GULP energy -545534.703327 kJ/mol
# GULP energy per Si atom -12398.515985 kJ/mol
# Density = 1.775036 g / cm^3
# Si number density = 17.790854 Si / 1000 Ang^3
#
#
#
# Elastic Constant Matrix: (Units=GPa)
#
#
# Indices 1 2 3 4 5 6 
#
# 1 87.3282 43.0284 39.7463 0.0000 0.0000 0.0000
# 2 43.0284 87.3278 39.7469 0.0000 0.0000 0.0000
# 3 39.7463 39.7469 98.3769 0.0000 0.0000 0.0000
# 4 0.0000 0.0000 0.0000 23.8395 0.0000 0.0000
# 5 0.0000 0.0000 0.0000 0.0000 23.8395 0.0000
# 6 0.0000 0.0000 0.0000 0.0000 0.0000 15.7254
#
#
#
# Elastic Compliance Matrix: (Units=1/GPa)
#
#
# Indices 1 2 3 4 5 6 
#
# 1 0.016376 -0.006197 -0.004113 0.000000 0.000000 0.000000
# 2 -0.006197 0.016377 -0.004113 0.000000 0.000000 0.000000
# 3 -0.004113 -0.004113 0.013488 0.000000 0.000000 0.000000
# 4 0.000000 0.000000 0.000000 0.041947 0.000000 0.000000
# 5 0.000000 0.000000 0.000000 0.000000 0.041947 0.000000
# 6 0.000000 0.000000 0.000000 0.000000 0.000000 0.063591
#
#
# Mechanical properties :
#
#
# Convention : Reuss Voigt Hill
#
# Bulk Modulus (GPa) = 57.48426 57.56400 57.52413
# Shear Modulus (GPa) = 21.89426 22.71497 22.30461
#
# Velocity S-wave (km/s) = 3.51186 3.57708 3.54462
# Velocity P-wave (km/s) = 6.98753 7.03469 7.01115
#
# Compressibility (1/GPa) = 0.01739607
#
# Stress axis : x y z
#
# Youngs Moduli (GPa) = 61.06386 61.06304 74.13881
#
# Poissons Ratio (x) = 0.37842 0.30490
# Poissons Ratio (y) = 0.37842 0.30492
# Poissons Ratio (z) = 0.25113 0.25114
#
# Static dielectric constant tensor:
#      x y z
#    x 3.125750 0.000000 0.000000 
#    y 0.000000 3.125750 0.000000 
#    z 0.000000 0.000000 3.520030 
# 
# 
# High freq. dielectric constant tensor:
#      x y z
#    x 1.668590 0.000000 0.000000 
#    y 0.000000 1.668590 0.000000 
#    z 0.000000 0.000000 1.694410 
# 
# From -- ./inp_files/6333.got.cif
#   From: 2010.03.12/outbox.cif.g09.slc.cpg/sg121_4_cif.got.tgz:6333.got - 2010.04.06 16:06:48.
