data_PCOD8311806
_publ_section_title
;
Structure prediction by ZEFSAII (Michael W. Deem and Ramdas Pophale) SiO2 
 PCOD8311806
Probable space group: I -4 2 D
;
_chemical_formula_sum "Si O2"
_cell_formula_units_Z 56
_cell_length_a 15.539250
_cell_length_b 15.539250
_cell_length_c 12.522727
_cell_angle_alpha 90.000000
_cell_angle_beta 90.000000
_cell_angle_gamma 90.000000
_cell_volume 3023.841482
_symmetry_space_group_name_H-M "I -4 2 D"
_symmetry_group_IT_number 122
_symmetry_cell_setting 'tetragonal'
loop_
_space_group_symop_operation_xyz
x,y,z
y,-x,-z
-x,-y,z
-y,x,-z
x,1/2-y,1/4-z
-x,1/2+y,1/4-z
-y,1/2-x,1/4+z
y,1/2+x,1/4+z
1/2+x,1/2+y,1/2+z
1/2+y,1/2-x,1/2-z
1/2-x,1/2-y,1/2+z
1/2-y,1/2+x,1/2-z
1/2+x,-y,3/4-z
1/2-x,y,3/4-z
1/2-y,-x,3/4+z
1/2+y,x,3/4+z
loop_
_atom_site_type_symbol
_atom_site_label
_atom_site_fract_x
_atom_site_fract_y
_atom_site_fract_z
Si Si1 0.624202 0.449300 0.960827
Si Si2 0.250000 0.108628 0.875000
Si Si3 0.916842 0.816678 0.772299
Si Si4 0.631751 0.981822 0.719667
O O1 0.627380 0.430295 0.834495
O O2 0.550186 0.392742 0.017092
O O3 0.715009 0.421687 0.008192
O O4 0.175335 0.167314 0.825901
O O5 0.282992 0.048382 0.779809
O O6 0.993452 0.846379 0.849172
O O7 0.562182 0.905612 0.713637
#
# Coordination Sequence:
#
# PCOD8311806 Si02
#       4
#    16   8  16  16
#     4  10  22  38  58  81 111 152 190 231 283 344
#     4  10  20  36  56  80 110 142 182 234 288 336
#     4  10  21  37  56  83 113 142 189 237 282 339
#     4   9  19  34  54  79 107 141 178 224 279 342
#
# _framework density 18.519489
#
# number of rings (size 3 to 8) (size 9 to 14) (size 15 to 20)
#    0.000    2.286    0.000    1.714    0.000   13.714 
#    0.000   14.286    0.000    0.000    0.000    0.000 
#    0.000    0.000    0.000    0.000    0.000    0.000 
#
# Total GULP energy -347222.317700 kJ/mol
# GULP energy per Si atom -12400.797061 kJ/mol
# Density = 1.847734 g / cm^3
# Si number density = 18.519489 Si / 1000 Ang^3
#
#
#
# Elastic Constant Matrix: (Units=GPa)
#
#
# Indices 1 2 3 4 5 6 
#
# 1 99.9504 43.8003 60.8306 0.0000 0.0000 0.0000
# 2 43.8003 99.9504 60.8306 0.0000 0.0000 0.0000
# 3 60.8306 60.8306 138.4620 0.0000 0.0000 0.0000
# 4 0.0000 0.0000 0.0000 29.9229 0.0000 0.0000
# 5 0.0000 0.0000 0.0000 0.0000 29.9229 0.0000
# 6 0.0000 0.0000 0.0000 0.0000 0.0000 24.2400
#
#
#
# Elastic Compliance Matrix: (Units=1/GPa)
#
#
# Indices 1 2 3 4 5 6 
#
# 1 0.014442 -0.003368 -0.004865 0.000000 0.000000 0.000000
# 2 -0.003368 0.014442 -0.004865 0.000000 0.000000 0.000000
# 3 -0.004865 -0.004865 0.011497 0.000000 0.000000 0.000000
# 4 0.000000 0.000000 0.000000 0.033419 0.000000 0.000000
# 5 0.000000 0.000000 0.000000 0.000000 0.033419 0.000000
# 6 0.000000 0.000000 0.000000 0.000000 0.000000 0.041254
#
#
# Mechanical properties :
#
#
# Convention : Reuss Voigt Hill
#
# Bulk Modulus (GPa) = 70.49971 74.36509 72.43240
# Shear Modulus (GPa) = 27.87112 28.34393 28.10753
#
# Velocity S-wave (km/s) = 3.88359 3.91639 3.90003
# Velocity P-wave (km/s) = 7.63284 7.79058 7.71211
#
# Compressibility (1/GPa) = 0.01418445
#
# Stress axis : x y z
#
# Youngs Moduli (GPa) = 69.24373 69.24373 86.97894
#
# Poissons Ratio (x) = 0.23319 0.42317
# Poissons Ratio (y) = 0.23319 0.42317
# Poissons Ratio (z) = 0.33688 0.33688
#
# Static dielectric constant tensor:
#      x y z
#    x 3.419390 0.000000 0.000000 
#    y 0.000000 3.419390 0.000000 
#    z 0.000000 0.000000 3.539710 
# 
# 
# High freq. dielectric constant tensor:
#      x y z
#    x 1.723510 0.000000 0.000000 
#    y 0.000000 1.723510 0.000000 
#    z 0.000000 0.000000 1.726570 
# 
# From -- ./inp_files/3905.got.cif
#   From: 2010.03.12/outbox.cif.g09.slc.cpg/sg122_2_cif.got.tgz:3905.got - 2010.04.06 16:17:16.
