data_PCOD8311340
_publ_section_title
;
Structure prediction by ZEFSAII (Michael W. Deem and Ramdas Pophale) SiO2 
 PCOD8311340
Probable space group: I -4 2 M
;
_chemical_formula_sum "Si O2"
_cell_formula_units_Z 96
_cell_length_a 16.929375
_cell_length_b 16.929375
_cell_length_c 22.520344
_cell_angle_alpha 90.000000
_cell_angle_beta 90.000000
_cell_angle_gamma 90.000000
_cell_volume 6454.414769
_symmetry_space_group_name_H-M "I -4 2 M"
_symmetry_group_IT_number 121
_symmetry_cell_setting 'tetragonal'
loop_
_space_group_symop_operation_xyz
x,y,z
y,-x,-z
-x,-y,z
-y,x,-z
x,-y,-z
-x,y,-z
-y,-x,z
y,x,z
1/2+x,1/2+y,1/2+z
1/2+y,1/2-x,1/2-z
1/2-x,1/2-y,1/2+z
1/2-y,1/2+x,1/2-z
1/2+x,1/2-y,1/2-z
1/2-x,1/2+y,1/2-z
1/2-y,1/2-x,1/2+z
1/2+y,1/2+x,1/2+z
loop_
_atom_site_type_symbol
_atom_site_label
_atom_site_fract_x
_atom_site_fract_y
_atom_site_fract_z
Si Si1 0.327457 0.023597 0.875977
Si Si2 0.943582 0.617941 0.751870
Si Si3 0.853715 0.604506 0.127864
Si Si4 0.953376 0.615891 0.444749
Si Si5 0.326076 0.799056 0.986906
Si Si6 0.922833 0.794654 0.964699
O O1 0.332175 0.066228 0.812051
O O2 0.396999 0.049299 0.919765
O O3 0.243429 0.048618 0.902720
O O4 0.340459 0.930786 0.871984
O O5 0.898253 0.535568 0.760513
O O6 0.905274 0.669268 0.697520
O O7 0.861496 0.514404 0.106344
O O8 0.793576 0.648165 0.082819
O O9 0.901802 0.690676 0.469707
O O10 0.000000 0.578217 0.500000
O O11 0.282332 0.717668 0.003778
O O12 0.267829 0.873555 0.995889
O O13 0.871167 0.871167 0.949276
O O14 0.000000 0.822189 0.000000
#
# Coordination Sequence:
#
# PCOD8311340 Si02
#       6
#    16  16  16  16  16  16
#     4  10  17  27  40  63  91 114 137 179 222 257
#     4   9  16  25  38  62  93 118 141 173 212 257
#     4  10  16  26  43  64  86 117 146 173 212 264
#     4   9  17  24  40  63  85 109 143 174 212 267
#     4   9  18  29  41  60  90 117 141 177 224 262
#     4  10  19  32  45  61  82 113 151 191 228 257
#
# _framework density 14.873542
#
# number of rings (size 3 to 8) (size 9 to 14) (size 15 to 20)
#    0.000    2.500    3.333    0.500    0.000    2.167 
#    0.000    0.833    0.000    0.000    0.000    1.167 
#    0.000   27.000    0.000    0.000    0.000    0.000 
#
# Total GULP energy -594678.000927 kJ/mol
# GULP energy per Si atom -12389.125019 kJ/mol
# Density = 1.483969 g / cm^3
# Si number density = 14.873542 Si / 1000 Ang^3
#
#
#
# Elastic Constant Matrix: (Units=GPa)
#
#
# Indices 1 2 3 4 5 6 
#
# 1 49.1334 25.6808 26.9120 0.0000 0.0000 0.0000
# 2 25.6808 49.1338 26.9119 0.0000 0.0000 0.0000
# 3 26.9120 26.9119 107.0439 0.0000 0.0000 0.0000
# 4 0.0000 0.0000 0.0000 15.7334 0.0000 0.0000
# 5 0.0000 0.0000 0.0000 0.0000 15.7335 0.0000
# 6 0.0000 0.0000 0.0000 0.0000 0.0000 17.9670
#
#
#
# Elastic Compliance Matrix: (Units=1/GPa)
#
#
# Indices 1 2 3 4 5 6 
#
# 1 0.029478 -0.013160 -0.004103 0.000000 0.000000 0.000000
# 2 -0.013160 0.029478 -0.004102 0.000000 0.000000 0.000000
# 3 -0.004103 -0.004102 0.011405 0.000000 0.000000 0.000000
# 4 0.000000 0.000000 0.000000 0.063559 0.000000 0.000000
# 5 0.000000 0.000000 0.000000 0.000000 0.063559 0.000000
# 6 0.000000 0.000000 0.000000 0.000000 0.000000 0.055657
#
#
# Mechanical properties :
#
#
# Convention : Reuss Voigt Hill
#
# Bulk Modulus (GPa) = 36.19175 40.48003 38.33589
# Shear Modulus (GPa) = 16.38927 18.27388 17.33157
#
# Velocity S-wave (km/s) = 3.32310 3.50897 3.41730
# Velocity P-wave (km/s) = 6.25378 6.61002 6.43437
#
# Compressibility (1/GPa) = 0.02763061
#
# Stress axis : x y z
#
# Youngs Moduli (GPa) = 33.92303 33.92338 87.68259
#
# Poissons Ratio (x) = 0.44645 0.35972
# Poissons Ratio (y) = 0.44644 0.35971
# Poissons Ratio (z) = 0.13917 0.13917
#
# Static dielectric constant tensor:
#      x y z
#    x 2.662660 0.000000 0.000000 
#    y 0.000000 2.662660 0.000000 
#    z 0.000000 0.000000 3.109430 
# 
# 
# High freq. dielectric constant tensor:
#      x y z
#    x 1.535680 0.000000 0.000000 
#    y 0.000000 1.535680 0.000000 
#    z 0.000000 0.000000 1.579830 
# 
# From -- ./inp_files/6527.got.cif
#   From: 2010.03.12/outbox.cif.g09.slc.cpg/sg121_4_cif.got.tgz:6527.got - 2010.04.06 16:06:48.
