data_PCOD8311880
_publ_section_title
;
Structure prediction by ZEFSAII (Michael W. Deem and Ramdas Pophale) SiO2 
 PCOD8311880
Probable space group: I -4 2 D
;
_chemical_formula_sum "Si O2"
_cell_formula_units_Z 96
_cell_length_a 14.283819
_cell_length_b 14.283819
_cell_length_c 22.289126
_cell_angle_alpha 90.000000
_cell_angle_beta 90.000000
_cell_angle_gamma 90.000000
_cell_volume 4547.594326
_symmetry_space_group_name_H-M "I -4 2 D"
_symmetry_group_IT_number 122
_symmetry_cell_setting 'tetragonal'
loop_
_space_group_symop_operation_xyz
x,y,z
y,-x,-z
-x,-y,z
-y,x,-z
x,1/2-y,1/4-z
-x,1/2+y,1/4-z
-y,1/2-x,1/4+z
y,1/2+x,1/4+z
1/2+x,1/2+y,1/2+z
1/2+y,1/2-x,1/2-z
1/2-x,1/2-y,1/2+z
1/2-y,1/2+x,1/2-z
1/2+x,-y,3/4-z
1/2-x,y,3/4-z
1/2-y,-x,3/4+z
1/2+y,x,3/4+z
loop_
_atom_site_type_symbol
_atom_site_label
_atom_site_fract_x
_atom_site_fract_y
_atom_site_fract_z
Si Si1 0.908951 0.855390 0.169300
Si Si2 0.352107 0.605610 0.856747
Si Si3 0.808367 0.677025 0.195994
Si Si4 0.782872 0.884230 0.811446
Si Si5 0.522896 0.839059 0.985915
Si Si6 0.370171 0.472451 0.027556
O O1 0.828476 0.788715 0.198685
O O2 0.889738 0.866744 0.097351
O O3 0.006674 0.805929 0.182904
O O4 0.910095 0.957111 0.199414
O O5 0.250000 0.568367 0.875000
O O6 0.343414 0.711305 0.835655
O O7 0.382445 0.537889 0.802034
O O8 0.429291 0.601823 0.908333
O O9 0.801012 0.632495 0.262720
O O10 0.750000 0.843503 0.875000
O O11 0.875889 0.826706 0.794761
O O12 0.471178 0.739368 0.985593
O O13 0.421550 0.410238 0.976084
#
# Coordination Sequence:
#
# PCOD8311880 Si02
#       6
#    16  16  16  16  16  16
#     4  11  21  46  69  97 140 186 232 285 354 422
#     4  11  19  41  66  98 129 180 223 270 346 414
#     4  10  21  40  75  90 133 190 220 278 367 409
#     4  11  25  44  67 108 136 173 241 294 342 431
#     4  11  24  41  73  97 139 181 224 291 343 415
#     4  11  23  41  66  97 139 175 228 279 339 420
#
# _framework density 21.110063
#
# number of rings (size 3 to 8) (size 9 to 14) (size 15 to 20)
#    0.000    1.167    6.667    0.500    2.333    1.333 
#   12.000    0.833    0.000    0.000    0.000    0.000 
#    0.000    0.000    0.000    0.000    0.000    0.000 
#
# Total GULP energy -594906.442594 kJ/mol
# GULP energy per Si atom -12393.884221 kJ/mol
# Density = 2.106202 g / cm^3
# Si number density = 21.110063 Si / 1000 Ang^3
#
#
#
# Elastic Constant Matrix: (Units=GPa)
#
#
# Indices 1 2 3 4 5 6 
#
# 1 78.3526 3.1547 53.0324 0.0000 0.0000 0.0000
# 2 3.1547 78.3526 53.0324 0.0000 0.0000 0.0000
# 3 53.0324 53.0324 185.4209 0.0000 0.0000 0.0000
# 4 0.0000 0.0000 0.0000 36.1752 0.0000 0.0000
# 5 0.0000 0.0000 0.0000 0.0000 36.1752 0.0000
# 6 0.0000 0.0000 0.0000 0.0000 0.0000 28.5739
#
#
#
# Elastic Compliance Matrix: (Units=1/GPa)
#
#
# Indices 1 2 3 4 5 6 
#
# 1 0.016420 0.003122 -0.005589 0.000000 0.000000 0.000000
# 2 0.003122 0.016420 -0.005589 0.000000 0.000000 0.000000
# 3 -0.005589 -0.005589 0.008590 0.000000 0.000000 0.000000
# 4 0.000000 0.000000 0.000000 0.027643 0.000000 0.000000
# 5 0.000000 0.000000 0.000000 0.000000 0.027643 0.000000
# 6 0.000000 0.000000 0.000000 0.000000 0.000000 0.034997
#
#
# Mechanical properties :
#
#
# Convention : Reuss Voigt Hill
#
# Bulk Modulus (GPa) = 39.49838 62.28503 50.89171
# Shear Modulus (GPa) = 31.99663 35.71197 33.85430
#
# Velocity S-wave (km/s) = 3.89743 4.11749 4.00897
# Velocity P-wave (km/s) = 6.24536 7.22316 6.75198
#
# Compressibility (1/GPa) = 0.02531749
#
# Stress axis : x y z
#
# Youngs Moduli (GPa) = 60.90070 60.90070 116.41015
#
# Poissons Ratio (x) = -0.19013 0.65065
# Poissons Ratio (y) = -0.19013 0.65065
# Poissons Ratio (z) = 0.34039 0.34039
#
# Static dielectric constant tensor:
#      x y z
#    x 3.842810 0.000000 0.000000 
#    y 0.000000 3.842810 0.000000 
#    z 0.000000 0.000000 4.233930 
# 
# 
# High freq. dielectric constant tensor:
#      x y z
#    x 1.821320 0.000000 0.000000 
#    y 0.000000 1.821320 0.000000 
#    z 0.000000 0.000000 1.827280 
# 
# From -- ./inp_files/7313.got.cif
#   From: 2010.03.12/outbox.cif.g09.slc.cpg/sg122_4_cif.got.tgz:7313.got - 2010.04.06 16:17:16.
