data_PCOD8311298
_publ_section_title
;
Structure prediction by ZEFSAII (Michael W. Deem and Ramdas Pophale) SiO2 
 PCOD8311298
Probable space group: I -4 C 2
;
_chemical_formula_sum "Si O2"
_cell_formula_units_Z 96
_cell_length_a 15.390580
_cell_length_b 15.390580
_cell_length_c 18.476517
_cell_angle_alpha 90.000000
_cell_angle_beta 90.000000
_cell_angle_gamma 90.000000
_cell_volume 4376.531709
_symmetry_space_group_name_H-M "I -4 C 2"
_symmetry_group_IT_number 120
_symmetry_cell_setting 'tetragonal'
loop_
_space_group_symop_operation_xyz
x,y,z
y,-x,-z
-x,-y,z
-y,x,-z
y,x,1/2-z
-y,-x,1/2-z
-x,y,1/2+z
x,-y,1/2+z
1/2+x,1/2+y,1/2+z
1/2+y,1/2-x,1/2-z
1/2-x,1/2-y,1/2+z
1/2-y,1/2+x,1/2-z
1/2+y,1/2+x,-z
1/2-y,1/2-x,-z
1/2-x,1/2+y,z
1/2+x,1/2-y,z
loop_
_atom_site_type_symbol
_atom_site_label
_atom_site_fract_x
_atom_site_fract_y
_atom_site_fract_z
Si Si1 0.695242 0.451459 0.449561
Si Si2 0.260267 0.226783 0.420210
Si Si3 0.626268 0.963472 0.776512
Si Si4 0.333921 0.914132 0.435161
Si Si5 0.281089 0.389436 0.197068
Si Si6 0.934590 0.921180 0.907135
O O1 0.700096 0.359210 0.405548
O O2 0.785151 0.499967 0.465693
O O3 0.656024 0.528099 0.398694
O O4 0.636779 0.438018 0.520649
O O5 0.296290 0.203711 0.500000
O O6 0.215822 0.321652 0.421618
O O7 0.340652 0.227240 0.365611
O O8 0.563175 0.901179 0.730794
O O9 0.620118 0.937414 0.860159
O O10 0.721840 0.954533 0.742758
O O11 0.401732 0.901732 0.500000
O O12 0.315467 0.315467 0.250000
O O13 0.359133 0.446320 0.162256
O O14 0.000000 0.000000 0.910456
#
# Coordination Sequence:
#
# PCOD8311298 Si02
#       6
#    16  16  16  16  16  16
#     4  12  21  42  68 108 144 182 244 306 377 445
#     4  11  22  38  71 102 136 193 241 296 372 443
#     4  11  26  48  70 100 147 198 242 314 384 444
#     4  11  24  43  71 104 139 192 256 304 368 460
#     4  12  24  46  69  99 146 190 245 306 374 459
#     4  12  24  39  69 105 145 189 230 316 386 444
#
# _framework density 21.935178000000001
#
# number of rings (size 3 to 8) (size 9 to 14) (size 15 to 20)
#    0.000    0.500    6.667    2.000    2.333    0.333 
#    0.000    1.667    0.000    0.000    0.000    0.000 
#    0.000    0.000    0.000    0.000    0.000    0.000 
#
# Total GULP energy -594676.152243 kJ/mol
# GULP energy per Si atom -12389.086505 kJ/mol
# Density = 2.188525 g / cm^3
# Si number density = 21.935178 Si / 1000 Ang^3
#
#
#
# Elastic Constant Matrix: (Units=GPa)
#
#
# Indices 1 2 3 4 5 6 
#
# 1 97.1697 23.2834 17.1519 0.0000 0.0000 0.0000
# 2 23.2834 97.1705 17.1521 0.0000 0.0000 0.0000
# 3 17.1519 17.1521 85.7443 0.0000 0.0000 0.0000
# 4 0.0000 0.0000 0.0000 26.5267 0.0000 0.0000
# 5 0.0000 0.0000 0.0000 0.0000 26.5266 0.0000
# 6 0.0000 0.0000 0.0000 0.0000 0.0000 42.5521
#
#
#
# Elastic Compliance Matrix: (Units=1/GPa)
#
#
# Indices 1 2 3 4 5 6 
#
# 1 0.011169 -0.002365 -0.001761 0.000000 0.000000 0.000000
# 2 -0.002365 0.011169 -0.001761 0.000000 0.000000 0.000000
# 3 -0.001761 -0.001761 0.012367 0.000000 0.000000 0.000000
# 4 0.000000 0.000000 0.000000 0.037698 0.000000 0.000000
# 5 0.000000 0.000000 0.000000 0.000000 0.037698 0.000000
# 6 0.000000 0.000000 0.000000 0.000000 0.000000 0.023501
#
#
# Mechanical properties :
#
#
# Convention : Reuss Voigt Hill
#
# Bulk Modulus (GPa) = 43.61097 43.91769 43.76433
# Shear Modulus (GPa) = 32.67557 33.95421 33.31489
#
# Velocity S-wave (km/s) = 3.86378 3.93865 3.90139
# Velocity P-wave (km/s) = 6.31110 6.38349 6.34740
#
# Compressibility (1/GPa) = 0.02293001
#
# Stress axis : x y z
#
# Youngs Moduli (GPa) = 89.53431 89.53503 80.85958
#
# Poissons Ratio (x) = 0.21178 0.14239
# Poissons Ratio (y) = 0.21178 0.14240
# Poissons Ratio (z) = 0.15767 0.15767
#
# Static dielectric constant tensor:
#      x y z
#    x 3.856840 0.000000 0.000000 
#    y 0.000000 3.856830 0.000000 
#    z 0.000000 0.000000 4.083310 
# 
# 
# High freq. dielectric constant tensor:
#      x y z
#    x 1.864830 0.000000 0.000000 
#    y 0.000000 1.864830 0.000000 
#    z 0.000000 0.000000 1.857540 
# 
# From -- ./inp_files/5357.got.cif
#   From: 2010.03.12/outbox.cif.g09.slc.cpg/sg120_3_cif.got.tgz:5357.got - 2010.04.06 16:00:44.
