data_PCOD8311178
_publ_section_title
;
Structure prediction by ZEFSAII (Michael W. Deem and Ramdas Pophale) SiO2 
 PCOD8311178
Probable space group: I -4 C 2
;
_chemical_formula_sum "Si O2"
_cell_formula_units_Z 96
_cell_length_a 14.309307
_cell_length_b 14.309307
_cell_length_c 23.214807
_cell_angle_alpha 90.000000
_cell_angle_beta 90.000000
_cell_angle_gamma 90.000000
_cell_volume 4753.377216
_symmetry_space_group_name_H-M "I -4 C 2"
_symmetry_group_IT_number 120
_symmetry_cell_setting 'tetragonal'
loop_
_space_group_symop_operation_xyz
x,y,z
y,-x,-z
-x,-y,z
-y,x,-z
y,x,1/2-z
-y,-x,1/2-z
-x,y,1/2+z
x,-y,1/2+z
1/2+x,1/2+y,1/2+z
1/2+y,1/2-x,1/2-z
1/2-x,1/2-y,1/2+z
1/2-y,1/2+x,1/2-z
1/2+y,1/2+x,-z
1/2-y,1/2-x,-z
1/2-x,1/2+y,z
1/2+x,1/2-y,z
loop_
_atom_site_type_symbol
_atom_site_label
_atom_site_fract_x
_atom_site_fract_y
_atom_site_fract_z
Si Si1 0.281610 0.100485 0.348629
Si Si2 0.854558 0.044034 0.505411
Si Si3 0.842182 0.788668 0.807131
Si Si4 0.188630 0.043601 0.233908
Si Si5 0.906451 0.268426 0.101495
Si Si6 0.727478 0.380331 0.113271
O O1 0.354445 0.186858 0.338242
O O2 0.257096 0.058411 0.286812
O O3 0.198957 0.147471 0.385482
O O4 0.315140 0.008008 0.383384
O O5 0.785480 0.084852 0.458203
O O6 0.805414 0.040957 0.568201
O O7 0.941109 0.114266 0.510685
O O8 0.775425 0.775425 0.750000
O O9 0.802231 0.868496 0.849398
O O10 0.936690 0.829466 0.781021
O O11 0.089358 0.089358 0.250000
O O12 0.239047 0.085609 0.178061
O O13 0.829347 0.347818 0.092243
#
# Coordination Sequence:
#
# PCOD8311178 Si02
#       6
#    16  16  16  16  16  16
#     4  10  20  37  58  86 119 159 203 249 306 372
#     4  11  22  37  59  90 122 153 205 267 321 380
#     4  11  21  37  59  89 126 162 207 259 311 376
#     4  10  21  37  59  88 121 157 200 255 312 370
#     4  11  21  38  61  84 118 170 207 250 318 378
#     4  10  21  39  59  85 123 159 205 255 310 383
#
# _framework density 20.196168
#
# number of rings (size 3 to 8) (size 9 to 14) (size 15 to 20)
#    0.000    1.500    3.333    4.000    0.000    0.333 
#    0.000    0.833    0.000    0.000    0.000    2.333 
#    0.000    0.000    0.000    0.000    0.000    0.000 
#
# Total GULP energy -594755.450070 kJ/mol
# GULP energy per Si atom -12390.738543 kJ/mol
# Density = 2.015020 g / cm^3
# Si number density = 20.196168 Si / 1000 Ang^3
#
#
#
# Elastic Constant Matrix: (Units=GPa)
#
#
# Indices 1 2 3 4 5 6 
#
# 1 67.9361 39.1950 17.8057 0.0000 0.0000 0.0000
# 2 39.1950 67.9361 17.8057 0.0000 0.0000 0.0000
# 3 17.8057 17.8057 82.7130 0.0000 0.0000 0.0000
# 4 0.0000 0.0000 0.0000 28.0049 0.0000 0.0000
# 5 0.0000 0.0000 0.0000 0.0000 28.0049 0.0000
# 6 0.0000 0.0000 0.0000 0.0000 0.0000 18.9111
#
#
#
# Elastic Compliance Matrix: (Units=1/GPa)
#
#
# Indices 1 2 3 4 5 6 
#
# 1 0.022424 -0.012370 -0.002164 0.000000 0.000000 0.000000
# 2 -0.012370 0.022424 -0.002164 0.000000 0.000000 0.000000
# 3 -0.002164 -0.002164 0.013022 0.000000 0.000000 0.000000
# 4 0.000000 0.000000 0.000000 0.035708 0.000000 0.000000
# 5 0.000000 0.000000 0.000000 0.000000 0.035708 0.000000
# 6 0.000000 0.000000 0.000000 0.000000 0.000000 0.052879
#
#
# Mechanical properties :
#
#
# Convention : Reuss Voigt Hill
#
# Bulk Modulus (GPa) = 40.86262 40.91088 40.88675
# Shear Modulus (GPa) = 22.34954 24.56943 23.45948
#
# Velocity S-wave (km/s) = 3.33020 3.49168 3.41189
# Velocity P-wave (km/s) = 5.92147 6.04619 5.98416
#
# Compressibility (1/GPa) = 0.02447225
#
# Stress axis : x y z
#
# Youngs Moduli (GPa) = 44.59585 44.59585 76.79426
#
# Poissons Ratio (x) = 0.55164 0.16620
# Poissons Ratio (y) = 0.55164 0.16620
# Poissons Ratio (z) = 0.09652 0.09652
#
# Static dielectric constant tensor:
#      x y z
#    x 3.634510 0.000000 0.000000 
#    y 0.000000 3.634510 0.000000 
#    z 0.000000 0.000000 3.778340 
# 
# 
# High freq. dielectric constant tensor:
#      x y z
#    x 1.771730 0.000000 0.000000 
#    y 0.000000 1.771730 0.000000 
#    z 0.000000 0.000000 1.804640 
# 
# From -- ./inp_files/5335.got.cif
#   From: 2010.03.12/outbox.cif.g09.slc.cpg/sg120_3_cif.got.tgz:5335.got - 2010.04.06 16:00:44.
