data_PCOD8311447
_publ_section_title
;
Structure prediction by ZEFSAII (Michael W. Deem and Ramdas Pophale) SiO2 
 PCOD8311447
Probable space group: I -4 2 M
;
_chemical_formula_sum "Si O2"
_cell_formula_units_Z 112
_cell_length_a 17.582427
_cell_length_b 17.582427
_cell_length_c 23.131543
_cell_angle_alpha 90.000000
_cell_angle_beta 90.000000
_cell_angle_gamma 90.000000
_cell_volume 7150.925434
_symmetry_space_group_name_H-M "I -4 2 M"
_symmetry_group_IT_number 121
_symmetry_cell_setting 'tetragonal'
loop_
_space_group_symop_operation_xyz
x,y,z
y,-x,-z
-x,-y,z
-y,x,-z
x,-y,-z
-x,y,-z
-y,-x,z
y,x,z
1/2+x,1/2+y,1/2+z
1/2+y,1/2-x,1/2-z
1/2-x,1/2-y,1/2+z
1/2-y,1/2+x,1/2-z
1/2+x,1/2-y,1/2-z
1/2-x,1/2+y,1/2-z
1/2-y,1/2-x,1/2+z
1/2+y,1/2+x,1/2+z
loop_
_atom_site_type_symbol
_atom_site_label
_atom_site_fract_x
_atom_site_fract_y
_atom_site_fract_z
Si Si1 0.395564 0.726146 0.385998
Si Si2 0.414333 0.025070 0.613127
Si Si3 0.356211 0.087203 0.019868
Si Si4 0.649595 0.470374 0.564479
Si Si5 0.439162 0.848359 0.299723
Si Si6 0.115224 0.618545 0.177347
Si Si7 0.777075 0.345116 0.580750
O O1 0.312043 0.687958 0.384427
O O2 0.403225 0.783141 0.439544
O O3 0.458457 0.660191 0.393040
O O4 0.412885 0.768810 0.326548
O O5 0.387449 0.067192 0.554228
O O6 0.400692 0.081649 0.666872
O O7 0.500000 0.000000 0.603996
O O8 0.371616 0.947645 0.629496
O O9 0.345903 0.143438 0.965199
O O10 0.363679 0.000000 0.000000
O O11 0.640745 0.500000 0.500000
O O12 0.573476 0.426525 0.583558
O O13 0.721553 0.415226 0.569233
O O14 0.408265 0.842420 0.234841
O O15 0.529038 0.862313 0.305029
O O16 0.152103 0.692264 0.146800
O O17 0.735166 0.264835 0.571081
#
# Coordination Sequence:
#
# PCOD8311447 Si02
#       7
#    16  16  16  16  16  16  16
#     4  11  20  32  48  67  94 128 163 197 233 277
#     4   9  19  27  47  73  93 121 155 198 237 276
#     4  11  18  32  45  69 100 126 158 193 236 280
#     4  11  20  31  46  68  94 126 164 197 227 266
#     4  10  19  32  49  72  92 120 154 203 240 278
#     4  11  19  34  51  70  95 120 163 198 242 283
#     4  11  21  32  48  67  97 132 157 194 241 284
#
# _framework density 15.662309
#
# number of rings (size 3 to 8) (size 9 to 14) (size 15 to 20)
#    0.000    1.429    5.714    2.571    0.000    3.571 
#    0.000    0.000    0.000    0.000    0.000    0.000 
#    0.000    0.000    0.000    0.000    0.000   18.000 
#
# Total GULP energy -694028.076876 kJ/mol
# GULP energy per Si atom -12393.358516 kJ/mol
# Density = 1.562666 g / cm^3
# Si number density = 15.662309 Si / 1000 Ang^3
#
#
#
# Elastic Constant Matrix: (Units=GPa)
#
#
# Indices 1 2 3 4 5 6 
#
# 1 47.8763 23.2654 35.9720 0.0000 0.0000 0.0000
# 2 23.2654 47.8778 35.9728 0.0000 0.0000 0.0000
# 3 35.9720 35.9728 102.0884 0.0000 0.0000 0.0000
# 4 0.0000 0.0000 0.0000 15.1218 0.0000 0.0000
# 5 0.0000 0.0000 0.0000 0.0000 15.1187 0.0000
# 6 0.0000 0.0000 0.0000 0.0000 0.0000 13.3890
#
#
#
# Elastic Compliance Matrix: (Units=1/GPa)
#
#
# Indices 1 2 3 4 5 6 
#
# 1 0.031235 -0.009396 -0.007695 0.000000 0.000000 0.000000
# 2 -0.009396 0.031234 -0.007695 0.000000 0.000000 0.000000
# 3 -0.007695 -0.007695 0.015218 0.000000 0.000000 0.000000
# 4 0.000000 0.000000 0.000000 0.066130 0.000000 0.000000
# 5 0.000000 0.000000 0.000000 0.000000 0.066143 0.000000
# 6 0.000000 0.000000 0.000000 0.000000 0.000000 0.074688
#
#
# Mechanical properties :
#
#
# Convention : Reuss Voigt Hill
#
# Bulk Modulus (GPa) = 35.56875 43.14031 39.35453
# Shear Modulus (GPa) = 14.55208 15.56803 15.06006
#
# Velocity S-wave (km/s) = 3.05144 3.15617 3.10425
# Velocity P-wave (km/s) = 5.93078 6.39419 6.16684
#
# Compressibility (1/GPa) = 0.02811457
#
# Stress axis : x y z
#
# Youngs Moduli (GPa) = 32.01538 32.01620 65.71023
#
# Poissons Ratio (x) = 0.30084 0.50564
# Poissons Ratio (y) = 0.30083 0.50564
# Poissons Ratio (z) = 0.24636 0.24636
#
# Static dielectric constant tensor:
#      x y z
#    x 3.058730 0.000000 0.000000 
#    y 0.000000 3.058730 0.000000 
#    z 0.000000 0.000000 3.077730 
# 
# 
# High freq. dielectric constant tensor:
#      x y z
#    x 1.580110 0.000000 0.000000 
#    y 0.000000 1.580110 0.000000 
#    z 0.000000 0.000000 1.601990 
# 
# From -- ./inp_files/7292.got.cif
#   From: 2010.03.12/outbox.cif.g09.slc.cpg/sg121_4_cif.got.tgz:7292.got - 2010.04.06 16:06:48.
