data_PCOD8311231
_publ_section_title
;
Structure prediction by ZEFSAII (Michael W. Deem and Ramdas Pophale) SiO2 
 PCOD8311231
Probable space group: I -4 C 2
;
_chemical_formula_sum "Si O2"
_cell_formula_units_Z 128
_cell_length_a 22.896105
_cell_length_b 22.896105
_cell_length_c 12.100407
_cell_angle_alpha 90.000000
_cell_angle_beta 90.000000
_cell_angle_gamma 90.000000
_cell_volume 6343.416015
_symmetry_space_group_name_H-M "I -4 C 2"
_symmetry_group_IT_number 120
_symmetry_cell_setting 'tetragonal'
loop_
_space_group_symop_operation_xyz
x,y,z
y,-x,-z
-x,-y,z
-y,x,-z
y,x,1/2-z
-y,-x,1/2-z
-x,y,1/2+z
x,-y,1/2+z
1/2+x,1/2+y,1/2+z
1/2+y,1/2-x,1/2-z
1/2-x,1/2-y,1/2+z
1/2-y,1/2+x,1/2-z
1/2+y,1/2+x,-z
1/2-y,1/2-x,-z
1/2-x,1/2+y,z
1/2+x,1/2-y,z
loop_
_atom_site_type_symbol
_atom_site_label
_atom_site_fract_x
_atom_site_fract_y
_atom_site_fract_z
Si Si1 0.519983 0.093576 0.923290
Si Si2 0.421974 0.390556 0.482945
Si Si3 0.184804 0.509061 0.396992
Si Si4 0.990940 0.815196 0.146992
Si Si5 0.184357 0.629136 0.894916
Si Si6 0.480017 0.593578 0.326711
Si Si7 0.109445 0.578026 0.232945
Si Si8 0.315643 0.629136 0.855084
O O1 0.452523 0.086576 0.882107
O O2 0.556245 0.094963 0.810761
O O3 0.538652 0.038652 0.000000
O O4 0.533009 0.153781 0.991188
O O5 0.468532 0.348372 0.539305
O O6 0.452523 0.413424 0.367893
O O7 0.405036 0.443756 0.560760
O O8 0.361609 0.356643 0.453649
O O9 0.250000 0.532116 0.375002
O O10 0.182698 0.440063 0.409991
O O11 0.151629 0.531468 0.289303
O O12 0.966991 0.846217 0.258814
O O13 0.059937 0.817303 0.159990
O O14 0.138391 0.643357 0.796351
O O15 0.250000 0.651258 0.875000
O O16 0.163776 0.663776 0.000000
O O17 0.461347 0.538654 0.250000
O O18 0.336224 0.663777 0.750000
#
# Coordination Sequence:
#
# PCOD8311231 Si02
#       8
#    16  16  16  16  16  16  16  16
#     4  10  22  38  57  92 130 160 207 257 326 384
#     4  11  21  40  59  93 129 166 201 261 325 381
#     4  10  22  40  64  91 123 166 214 265 316 383
#     4  10  22  40  64  91 123 166 214 265 316 383
#     4  11  23  41  63  92 125 168 217 261 317 385
#     4  10  22  38  57  92 130 160 207 257 326 384
#     4  11  21  40  59  93 129 166 201 261 325 381
#     4  11  23  41  63  92 125 168 217 261 317 385
#
# _framework density 20.178401000000001
#
# number of rings (size 3 to 8) (size 9 to 14) (size 15 to 20)
#    0.000    1.500    5.000    0.000    0.000    3.500 
#    4.500    1.250    0.000    0.000    0.000    0.000 
#    0.000    0.000    0.000    0.000    0.000    0.000 
#
# Total GULP energy -793098.683993 kJ/mol
# GULP energy per Si atom -12392.166937 kJ/mol
# Density = 2.013247 g / cm^3
# Si number density = 20.178401 Si / 1000 Ang^3
#
#
#
# Elastic Constant Matrix: (Units=GPa)
#
#
# Indices 1 2 3 4 5 6 
#
# 1 121.7484 39.4155 57.0582 0.0000 0.0000 0.0000
# 2 39.4155 121.7499 57.0585 0.0000 0.0000 0.0000
# 3 57.0582 57.0585 122.6162 0.0000 0.0000 0.0000
# 4 0.0000 0.0000 0.0000 23.3377 0.0000 0.0000
# 5 0.0000 0.0000 0.0000 0.0000 23.3376 0.0000
# 6 0.0000 0.0000 0.0000 0.0000 0.0000 3.7044
#
#
#
# Elastic Compliance Matrix: (Units=1/GPa)
#
#
# Indices 1 2 3 4 5 6 
#
# 1 0.010700 -0.001446 -0.004306 0.000000 0.000000 0.000000
# 2 -0.001446 0.010700 -0.004306 0.000000 0.000000 0.000000
# 3 -0.004306 -0.004306 0.012163 0.000000 0.000000 0.000000
# 4 0.000000 0.000000 0.000000 0.042849 0.000000 0.000000
# 5 0.000000 0.000000 0.000000 0.000000 0.042849 0.000000
# 6 0.000000 0.000000 0.000000 0.000000 0.000000 0.269946
#
#
# Mechanical properties :
#
#
# Convention : Reuss Voigt Hill
#
# Bulk Modulus (GPa) = 74.37031 74.79766 74.58399
# Shear Modulus (GPa) = 12.08294 24.24812 18.16553
#
# Velocity S-wave (km/s) = 2.44971 3.47030 3.00367
# Velocity P-wave (km/s) = 6.70357 7.29424 7.00513
#
# Compressibility (1/GPa) = 0.01344623
#
# Stress axis : x y z
#
# Youngs Moduli (GPa) = 93.45863 93.45991 82.21458
#
# Poissons Ratio (x) = 0.13513 0.35404
# Poissons Ratio (y) = 0.13513 0.35404
# Poissons Ratio (z) = 0.40246 0.40246
#
# Static dielectric constant tensor:
#      x y z
#    x 3.784390 0.000000 0.000000 
#    y 0.000000 3.784390 0.000000 
#    z 0.000000 0.000000 3.810870 
# 
# 
# High freq. dielectric constant tensor:
#      x y z
#    x 1.776380 0.000000 0.000000 
#    y 0.000000 1.776380 0.000000 
#    z 0.000000 0.000000 1.798990 
# 
# From -- ./inp_files/2913.got.cif
#   From: 2010.03.12/outbox.cif.g09.slc.cpg/sg120_2_cif.got.tgz:2913.got - 2010.04.06 16:00:44.
