data_PCOD8311163
_publ_section_title
;
Structure prediction by ZEFSAII (Michael W. Deem and Ramdas Pophale) SiO2 
 PCOD8311163
Probable space group: I -4 C 2
;
_chemical_formula_sum "Si O2"
_cell_formula_units_Z 72
_cell_length_a 19.504908
_cell_length_b 19.504908
_cell_length_c 9.125534
_cell_angle_alpha 90.000000
_cell_angle_beta 90.000000
_cell_angle_gamma 90.000000
_cell_volume 3471.731260
_symmetry_space_group_name_H-M "I -4 C 2"
_symmetry_group_IT_number 120
_symmetry_cell_setting 'tetragonal'
loop_
_space_group_symop_operation_xyz
x,y,z
y,-x,-z
-x,-y,z
-y,x,-z
y,x,1/2-z
-y,-x,1/2-z
-x,y,1/2+z
x,-y,1/2+z
1/2+x,1/2+y,1/2+z
1/2+y,1/2-x,1/2-z
1/2-x,1/2-y,1/2+z
1/2-y,1/2+x,1/2-z
1/2+y,1/2+x,-z
1/2-y,1/2-x,-z
1/2-x,1/2+y,z
1/2+x,1/2-y,z
loop_
_atom_site_type_symbol
_atom_site_label
_atom_site_fract_x
_atom_site_fract_y
_atom_site_fract_z
Si Si1 0.454033 0.923266 0.157750
Si Si2 0.786782 0.150292 0.039898
Si Si3 0.080933 0.943669 0.079771
Si Si4 0.317020 0.152813 0.304656
Si Si5 0.801229 0.301229 0.000000
O O1 0.529290 0.912070 0.226260
O O2 0.416184 0.851646 0.137673
O O3 0.459573 0.959573 0.000000
O O4 0.759883 0.151732 0.871564
O O5 0.814534 0.226499 0.071945
O O6 0.846336 0.094993 0.064887
O O7 0.719820 0.139375 0.143140
O O8 0.057533 0.942468 0.250000
O O9 0.022065 0.909137 0.977195
O O10 0.313368 0.145633 0.130177
#
# Coordination Sequence:
#
# PCOD8311163 Si02
#       5
#    16  16  16  16   8
#     4  11  23  42  63  89 127 168 201 257 311 369
#     4  10  20  44  61  88 130 163 206 264 324 369
#     4  11  24  43  66  92 127 169 214 266 324 390
#     4  10  21  40  64  92 129 160 212 261 312 383
#     4  10  20  34  66  91 120 173 200 262 316 374
#
# _framework density 20.738932999999999
#
# number of rings (size 3 to 8) (size 9 to 14) (size 15 to 20)
#    0.000    1.778    2.222    6.667    3.111    3.556 
#   12.000    0.000    0.000    0.000    0.000    0.000 
#    0.000    0.000    0.000    0.000    0.000    0.000 
#
# Total GULP energy -446032.338398 kJ/mol
# GULP energy per Si atom -12389.787178 kJ/mol
# Density = 2.069173 g / cm^3
# Si number density = 20.738933 Si / 1000 Ang^3
#
#
#
# Elastic Constant Matrix: (Units=GPa)
#
#
# Indices 1 2 3 4 5 6 
#
# 1 61.2072 41.8700 4.9311 0.0000 0.0000 0.0000
# 2 41.8700 61.2070 4.9311 0.0000 0.0000 0.0000
# 3 4.9311 4.9311 149.1962 0.0000 0.0000 0.0000
# 4 0.0000 0.0000 0.0000 55.1841 0.0000 0.0000
# 5 0.0000 0.0000 0.0000 0.0000 55.1849 0.0000
# 6 0.0000 0.0000 0.0000 0.0000 0.0000 43.4791
#
#
#
# Elastic Compliance Matrix: (Units=1/GPa)
#
#
# Indices 1 2 3 4 5 6 
#
# 1 0.030723 -0.020991 -0.000322 0.000000 0.000000 0.000000
# 2 -0.020991 0.030723 -0.000322 0.000000 0.000000 0.000000
# 3 -0.000322 -0.000322 0.006724 0.000000 0.000000 0.000000
# 4 0.000000 0.000000 0.000000 0.018121 0.000000 0.000000
# 5 0.000000 0.000000 0.000000 0.000000 0.018121 0.000000
# 6 0.000000 0.000000 0.000000 0.000000 0.000000 0.023000
#
#
# Mechanical properties :
#
#
# Convention : Reuss Voigt Hill
#
# Bulk Modulus (GPa) = 40.15787 41.67496 40.91642
# Shear Modulus (GPa) = 27.93595 45.42816 36.68206
#
# Velocity S-wave (km/s) = 3.67417 4.68533 4.21022
# Velocity P-wave (km/s) = 6.11596 7.02911 6.58837
#
# Compressibility (1/GPa) = 0.02490172
#
# Stress axis : x y z
#
# Youngs Moduli (GPa) = 32.54877 32.54867 148.72440
#
# Poissons Ratio (x) = 0.68323 0.04784
# Poissons Ratio (y) = 0.68323 0.04784
# Poissons Ratio (z) = 0.01047 0.01047
#
# Static dielectric constant tensor:
#      x y z
#    x 3.358280 0.000000 0.000000 
#    y 0.000000 3.358280 0.000000 
#    z 0.000000 0.000000 3.933770 
# 
# 
# High freq. dielectric constant tensor:
#      x y z
#    x 1.792260 0.000000 0.000000 
#    y 0.000000 1.792260 0.000000 
#    z 0.000000 0.000000 1.834600 
# 
# From -- ./inp_files/1332.got.cif
#   From: 2010.03.12/outbox.cif.g09.slc.cpg/sg120_1_cif.got.tgz:1332.got - 2010.04.06 16:00:44.
