data_PCOD8311705
_publ_section_title
;
Structure prediction by ZEFSAII (Michael W. Deem and Ramdas Pophale) SiO2 
 PCOD8311705
Probable space group: I -4 2 M
;
_chemical_formula_sum "Si O2"
_cell_formula_units_Z 128
_cell_length_a 22.665803
_cell_length_b 22.665803
_cell_length_c 11.666239
_cell_angle_alpha 90.000000
_cell_angle_beta 90.000000
_cell_angle_gamma 90.000000
_cell_volume 5993.397590
_symmetry_space_group_name_H-M "I -4 2 M"
_symmetry_group_IT_number 121
_symmetry_cell_setting 'tetragonal'
loop_
_space_group_symop_operation_xyz
x,y,z
y,-x,-z
-x,-y,z
-y,x,-z
x,-y,-z
-x,y,-z
-y,-x,z
y,x,z
1/2+x,1/2+y,1/2+z
1/2+y,1/2-x,1/2-z
1/2-x,1/2-y,1/2+z
1/2-y,1/2+x,1/2-z
1/2+x,1/2-y,1/2-z
1/2-x,1/2+y,1/2-z
1/2-y,1/2-x,1/2+z
1/2+y,1/2+x,1/2+z
loop_
_atom_site_type_symbol
_atom_site_label
_atom_site_fract_x
_atom_site_fract_y
_atom_site_fract_z
Si Si1 0.136802 0.720269 0.380040
Si Si2 0.751016 0.562190 0.450226
Si Si3 0.328343 0.422834 0.242378
Si Si4 0.911128 0.745781 0.384773
Si Si5 0.632275 0.973533 0.378222
Si Si6 0.631203 0.465240 0.112150
Si Si7 0.860670 0.429851 0.710149
Si Si8 0.748962 0.343279 0.351926
O O1 0.109865 0.782343 0.340713
O O2 0.127791 0.715596 0.516118
O O3 0.106755 0.665174 0.316612
O O4 0.206165 0.712104 0.357408
O O5 0.731717 0.500000 0.500000
O O6 0.697270 0.581471 0.369636
O O7 0.810485 0.552737 0.379250
O O8 0.761182 0.610582 0.547520
O O9 0.390007 0.390007 0.236625
O O10 0.344961 0.490186 0.209582
O O11 0.969289 0.704230 0.372531
O O12 0.926569 0.812109 0.421960
O O13 0.874662 0.744796 0.268989
O O14 0.604988 0.909171 0.361645
O O15 0.611432 0.000000 0.500000
O O16 0.611230 0.012505 0.270101
O O17 0.577744 0.422257 0.154487
O O18 0.608825 0.500000 0.000000
O O19 0.683296 0.316705 0.363668
#
# Coordination Sequence:
#
# PCOD8311705 Si02
#       8
#    16  16  16  16  16  16  16  16
#     4  11  23  43  68 101 139 175 226 287 354 436
#     4  11  25  46  68  95 138 187 238 288 342 426
#     4  11  24  44  69  99 138 184 228 286 361 429
#     4  12  23  45  71 101 136 183 234 284 358 424
#     4  12  24  43  72  97 139 182 231 290 350 419
#     4  12  25  42  68 105 144 183 233 293 360 434
#     4  11  25  43  68 100 131 179 234 283 349 415
#     4  12  26  41  67 104 142 182 232 297 358 427
#
# _framework density 21.356833999999999
#
# number of rings (size 3 to 8) (size 9 to 14) (size 15 to 20)
#    0.000    0.500    3.750    5.625    1.750    2.625 
#    0.000    1.250    0.000    0.000    0.000    0.000 
#    0.000    0.000    0.000    0.000    0.000    0.000 
#
# Total GULP energy -793682.416681 kJ/mol
# GULP energy per Si atom -12401.287761 kJ/mol
# Density = 2.130823 g / cm^3
# Si number density = 21.356834 Si / 1000 Ang^3
#
#
#
# Elastic Constant Matrix: (Units=GPa)
#
#
# Indices 1 2 3 4 5 6 
#
# 1 82.4943 48.5308 40.2735 0.0000 0.0000 0.0000
# 2 48.5308 82.4917 40.2767 0.0000 0.0000 0.0000
# 3 40.2735 40.2767 140.0721 0.0000 0.0000 0.0000
# 4 0.0000 0.0000 0.0000 26.7483 0.0000 0.0000
# 5 0.0000 0.0000 0.0000 0.0000 26.7502 0.0000
# 6 0.0000 0.0000 0.0000 0.0000 0.0000 38.6534
#
#
#
# Elastic Compliance Matrix: (Units=1/GPa)
#
#
# Indices 1 2 3 4 5 6 
#
# 1 0.019357 -0.010087 -0.002665 0.000000 0.000000 0.000000
# 2 -0.010087 0.019358 -0.002666 0.000000 0.000000 0.000000
# 3 -0.002665 -0.002666 0.008672 0.000000 0.000000 0.000000
# 4 0.000000 0.000000 0.000000 0.037386 0.000000 0.000000
# 5 0.000000 0.000000 0.000000 0.000000 0.037383 0.000000
# 6 0.000000 0.000000 0.000000 0.000000 0.000000 0.025871
#
#
# Mechanical properties :
#
#
# Convention : Reuss Voigt Hill
#
# Bulk Modulus (GPa) = 60.41810 62.58000 61.49905
# Shear Modulus (GPa) = 27.11785 30.16218 28.64002
#
# Velocity S-wave (km/s) = 3.56722 3.76213 3.66597
# Velocity P-wave (km/s) = 6.73186 6.94530 6.83942
#
# Compressibility (1/GPa) = 0.01655133
#
# Stress axis : x y z
#
# Youngs Moduli (GPa) = 51.66058 51.65730 115.31193
#
# Poissons Ratio (x) = 0.52105 0.30733
# Poissons Ratio (y) = 0.52109 0.30745
# Poissons Ratio (z) = 0.13769 0.13773
#
# Static dielectric constant tensor:
#      x y z
#    x 3.878160 0.000000 0.000000 
#    y 0.000000 3.878170 0.000000 
#    z 0.000000 0.000000 3.937670 
# 
# 
# High freq. dielectric constant tensor:
#      x y z
#    x 1.837430 0.000000 0.000000 
#    y 0.000000 1.837430 0.000000 
#    z 0.000000 0.000000 1.846380 
# 
# From -- ./inp_files/3543.got.cif
#   From: 2010.03.12/outbox.cif.g09.slc.cpg/sg121_2_cif.got.tgz:3543.got - 2010.04.06 16:06:48.
