data_PCOD8311366
_publ_section_title
;
Structure prediction by ZEFSAII (Michael W. Deem and Ramdas Pophale) SiO2 
 PCOD8311366
Probable space group: I -4 2 M
;
_chemical_formula_sum "Si O2"
_cell_formula_units_Z 88
_cell_length_a 12.882673
_cell_length_b 12.882673
_cell_length_c 27.302324
_cell_angle_alpha 90.000000
_cell_angle_beta 90.000000
_cell_angle_gamma 90.000000
_cell_volume 4531.182796
_symmetry_space_group_name_H-M "I -4 2 M"
_symmetry_group_IT_number 121
_symmetry_cell_setting 'tetragonal'
loop_
_space_group_symop_operation_xyz
x,y,z
y,-x,-z
-x,-y,z
-y,x,-z
x,-y,-z
-x,y,-z
-y,-x,z
y,x,z
1/2+x,1/2+y,1/2+z
1/2+y,1/2-x,1/2-z
1/2-x,1/2-y,1/2+z
1/2-y,1/2+x,1/2-z
1/2+x,1/2-y,1/2-z
1/2-x,1/2+y,1/2-z
1/2-y,1/2-x,1/2+z
1/2+y,1/2+x,1/2+z
loop_
_atom_site_type_symbol
_atom_site_label
_atom_site_fract_x
_atom_site_fract_y
_atom_site_fract_z
Si Si1 0.601439 0.221921 0.974572
Si Si2 0.499506 0.333044 0.415260
Si Si3 0.609372 0.217528 0.861688
Si Si4 0.740643 0.432846 0.317881
Si Si5 0.500000 0.826989 0.500000
Si Si6 0.498433 0.670615 0.218698
O O1 0.701842 0.298159 0.981676
O O2 0.575354 0.201488 0.917574
O O3 0.500000 0.274214 0.000000
O O4 0.611651 0.108906 0.000455
O O5 0.609413 0.390588 0.421555
O O6 0.405744 0.405744 0.431382
O O7 0.485802 0.298355 0.358988
O O8 0.502288 0.236363 0.450244
O O9 0.703156 0.296845 0.860598
O O10 0.648579 0.111303 0.836069
O O11 0.513398 0.260817 0.830033
O O12 0.658041 0.341960 0.311326
O O13 0.747587 0.490420 0.265566
O O14 0.394226 0.605775 0.210078
O O15 0.595510 0.595510 0.228458
#
# Coordination Sequence:
#
# PCOD8311366 Si02
#       6
#    16  16  16  16   8  16
#     4  11  24  42  64  88 118 161 207 251 301 355
#     4  10  18  28  50  84 119 153 192 239 291 354
#     4   9  18  35  57  80 110 150 190 235 296 350
#     4   9  16  30  51  78 112 148 184 232 292 352
#     4  12  21  37  58  86 120 157 198 240 303 364
#     4   9  17  30  53  82 109 142 190 241 284 338
#
# _framework density 19.420978999999999
#
# number of rings (size 3 to 8) (size 9 to 14) (size 15 to 20)
#    0.000    2.182    1.818    2.455    0.000    3.818 
#    0.000    3.636    0.000    4.364    0.000    0.000 
#    0.000    0.000    0.000    0.000    0.000    0.000 
#
# Total GULP energy -545342.709356 kJ/mol
# GULP energy per Si atom -12394.152485 kJ/mol
# Density = 1.937678 g / cm^3
# Si number density = 19.420979 Si / 1000 Ang^3
#
#
#
# Elastic Constant Matrix: (Units=GPa)
#
#
# Indices 1 2 3 4 5 6 
#
# 1 71.3201 23.2363 36.6713 0.0000 0.0000 0.0000
# 2 23.2363 71.3204 36.6687 0.0000 0.0000 0.0000
# 3 36.6713 36.6687 83.4388 0.0000 0.0000 0.0000
# 4 0.0000 0.0000 0.0000 -4.8761 0.0000 0.0000
# 5 0.0000 0.0000 0.0000 0.0000 -4.8748 0.0000
# 6 0.0000 0.0000 0.0000 0.0000 0.0000 8.8842
#
#
#
# Elastic Compliance Matrix: (Units=1/GPa)
#
#
# Indices 1 2 3 4 5 6 
#
# 1 0.018421 -0.002376 -0.007052 0.000000 0.000000 0.000000
# 2 -0.002376 0.018421 -0.007051 0.000000 0.000000 0.000000
# 3 -0.007052 -0.007051 0.018183 0.000000 0.000000 0.000000
# 4 0.000000 0.000000 0.000000 -0.205080 0.000000 0.000000
# 5 0.000000 0.000000 0.000000 0.000000 -0.205135 0.000000
# 6 0.000000 0.000000 0.000000 0.000000 0.000000 0.112559
#
#
# Mechanical properties :
#
#
# Convention : Reuss Voigt Hill
#
# Bulk Modulus (GPa) = 45.31695 46.58132 45.94914
# Shear Modulus (GPa) = -24.71363 8.46019 -8.12672
#
# Velocity S-wave (km/s) = -3.57111 2.08942 -2.04783
# Velocity P-wave (km/s) = 2.52604 5.46425 4.25669
#
# Compressibility (1/GPa) = 0.02206680
#
# Stress axis : x y z
#
# Youngs Moduli (GPa) = 54.28474 54.28727 54.99691
#
# Poissons Ratio (x) = 0.12899 0.38784
# Poissons Ratio (y) = 0.12898 0.38778
# Poissons Ratio (z) = 0.38282 0.38278
#
# Static dielectric constant tensor:
#      x y z
#    x 3.450680 0.000000 0.000000 
#    y 0.000000 3.450680 0.000000 
#    z 0.000000 0.000000 3.770690 
# 
# 
# High freq. dielectric constant tensor:
#      x y z
#    x 1.732960 0.000000 0.000000 
#    y 0.000000 1.732960 0.000000 
#    z 0.000000 0.000000 1.769920 
# 
# From -- ./inp_files/8225.got.cif
#   From: 2010.03.12/outbox.cif.g09.slc.cpg/sg121_5_cif.got.tgz:8225.got - 2010.04.06 16:06:48.
