data_PCOD8311773
_publ_section_title
;
Structure prediction by ZEFSAII (Michael W. Deem and Ramdas Pophale) SiO2 
 PCOD8311773
Probable space group: I -4 2 D
;
_chemical_formula_sum "Si O2"
_cell_formula_units_Z 112
_cell_length_a 22.920175
_cell_length_b 22.920175
_cell_length_c 12.184568
_cell_angle_alpha 90.000000
_cell_angle_beta 90.000000
_cell_angle_gamma 90.000000
_cell_volume 6400.972988
_symmetry_space_group_name_H-M "I -4 2 D"
_symmetry_group_IT_number 122
_symmetry_cell_setting 'tetragonal'
loop_
_space_group_symop_operation_xyz
x,y,z
y,-x,-z
-x,-y,z
-y,x,-z
x,1/2-y,1/4-z
-x,1/2+y,1/4-z
-y,1/2-x,1/4+z
y,1/2+x,1/4+z
1/2+x,1/2+y,1/2+z
1/2+y,1/2-x,1/2-z
1/2-x,1/2-y,1/2+z
1/2-y,1/2+x,1/2-z
1/2+x,-y,3/4-z
1/2-x,y,3/4-z
1/2-y,-x,3/4+z
1/2+y,x,3/4+z
loop_
_atom_site_type_symbol
_atom_site_label
_atom_site_fract_x
_atom_site_fract_y
_atom_site_fract_z
Si Si1 0.673122 0.115605 0.485978
Si Si2 0.408593 0.030567 0.743286
Si Si3 0.985710 0.337523 0.461077
Si Si4 0.815786 0.903146 0.406066
Si Si5 0.814944 0.931374 0.827359
Si Si6 0.517146 0.204739 0.349241
Si Si7 0.890998 0.804543 0.481291
O O1 0.646075 0.052502 0.513354
O O2 0.632627 0.165656 0.536968
O O3 0.736733 0.122506 0.541004
O O4 0.678751 0.121947 0.356088
O O5 0.463060 0.073413 0.752481
O O6 0.360227 0.043272 0.835004
O O7 0.382356 0.042439 0.623786
O O8 0.949270 0.342982 0.572113
O O9 0.981710 0.274154 0.407724
O O10 0.750000 0.888612 0.375000
O O11 0.821381 0.930271 0.527322
O O12 0.850280 0.842462 0.401667
O O13 0.750000 0.925901 0.875000
O O14 0.815301 0.975624 0.724583
O O15 0.457332 0.180285 0.299268
#
# Coordination Sequence:
#
# PCOD8311773 Si02
#       7
#    16  16  16  16  16  16  16
#     4  10  20  37  61  81 114 151 187 234 287 344
#     4  11  24  39  56  80 115 155 192 232 285 342
#     4  10  19  38  56  80 113 146 187 231 283 338
#     4  10  20  34  59  84 114 144 183 237 290 337
#     4  12  23  38  60  84 115 156 195 236 279 351
#     4  10  20  35  57  86 108 144 190 234 284 337
#     4  10  20  36  59  88 112 143 187 243 293 334
#
# _framework density 17.497339
#
# number of rings (size 3 to 8) (size 9 to 14) (size 15 to 20)
#    0.000    1.571    5.714    0.000    2.000    0.571 
#    0.000    0.000    0.000    2.143    0.000    0.000 
#    0.000    0.000    0.000    0.000    0.000    0.000 
#
# Total GULP energy -694456.364064 kJ/mol
# GULP energy per Si atom -12401.006501 kJ/mol
# Density = 1.745751 g / cm^3
# Si number density = 17.497339 Si / 1000 Ang^3
#
#
#
# Elastic Constant Matrix: (Units=GPa)
#
#
# Indices 1 2 3 4 5 6 
#
# 1 93.1879 56.7061 44.9569 0.0000 0.0000 0.0000
# 2 56.7061 93.1879 44.9569 0.0000 0.0000 0.0000
# 3 44.9569 44.9569 87.5194 0.0000 0.0000 0.0000
# 4 0.0000 0.0000 0.0000 25.4460 0.0000 0.0000
# 5 0.0000 0.0000 0.0000 0.0000 25.4460 0.0000
# 6 0.0000 0.0000 0.0000 0.0000 0.0000 22.7636
#
#
#
# Elastic Compliance Matrix: (Units=1/GPa)
#
#
# Indices 1 2 3 4 5 6 
#
# 1 0.018527 -0.008884 -0.004953 0.000000 0.000000 0.000000
# 2 -0.008884 0.018527 -0.004953 0.000000 0.000000 0.000000
# 3 -0.004953 -0.004953 0.016515 0.000000 0.000000 0.000000
# 4 0.000000 0.000000 0.000000 0.039299 0.000000 0.000000
# 5 0.000000 0.000000 0.000000 0.000000 0.039299 0.000000
# 6 0.000000 0.000000 0.000000 0.000000 0.000000 0.043930
#
#
# Mechanical properties :
#
#
# Convention : Reuss Voigt Hill
#
# Bulk Modulus (GPa) = 62.55040 63.01501 62.78270
# Shear Modulus (GPa) = 22.83043 23.21613 23.02328
#
# Velocity S-wave (km/s) = 3.61611 3.64653 3.63135
# Velocity P-wave (km/s) = 7.29802 7.33634 7.31720
#
# Compressibility (1/GPa) = 0.01598711
#
# Stress axis : x y z
#
# Youngs Moduli (GPa) = 53.97609 53.97609 60.55196
#
# Poissons Ratio (x) = 0.47953 0.29992
# Poissons Ratio (y) = 0.47953 0.29992
# Poissons Ratio (z) = 0.26735 0.26735
#
# Static dielectric constant tensor:
#      x y z
#    x 3.215280 0.000000 0.000000 
#    y 0.000000 3.215280 0.000000 
#    z 0.000000 0.000000 3.255960 
# 
# 
# High freq. dielectric constant tensor:
#      x y z
#    x 1.674110 0.000000 0.000000 
#    y 0.000000 1.674110 0.000000 
#    z 0.000000 0.000000 1.682570 
# 
# From -- ./inp_files/4602.got.cif
#   From: 2010.03.12/outbox.cif.g09.slc.cpg/sg122_3_cif.got.tgz:4602.got - 2010.04.06 16:17:16.
