data_PCOD8311134
_publ_section_title
;
Structure prediction by ZEFSAII (Michael W. Deem and Ramdas Pophale) SiO2 
 PCOD8311134
Probable space group: I -4 C 2
;
_chemical_formula_sum "Si O2"
_cell_formula_units_Z 80
_cell_length_a 26.774742
_cell_length_b 26.774742
_cell_length_c 5.313984
_cell_angle_alpha 90.000000
_cell_angle_beta 90.000000
_cell_angle_gamma 90.000000
_cell_volume 3809.525034
_symmetry_space_group_name_H-M "I -4 C 2"
_symmetry_group_IT_number 120
_symmetry_cell_setting 'tetragonal'
loop_
_space_group_symop_operation_xyz
x,y,z
y,-x,-z
-x,-y,z
-y,x,-z
y,x,1/2-z
-y,-x,1/2-z
-x,y,1/2+z
x,-y,1/2+z
1/2+x,1/2+y,1/2+z
1/2+y,1/2-x,1/2-z
1/2-x,1/2-y,1/2+z
1/2-y,1/2+x,1/2-z
1/2+y,1/2+x,-z
1/2-y,1/2-x,-z
1/2-x,1/2+y,z
1/2+x,1/2-y,z
loop_
_atom_site_type_symbol
_atom_site_label
_atom_site_fract_x
_atom_site_fract_y
_atom_site_fract_z
Si Si1 0.522538 0.198743 0.250001
Si Si2 0.756664 0.672905 0.250000
Si Si3 0.215572 0.132928 0.250000
Si Si4 0.869673 0.338688 0.750000
Si Si5 0.977364 0.812697 0.250001
O O1 0.500000 0.172028 0.500002
O O2 0.583188 0.199079 0.249999
O O3 0.503868 0.255523 0.250002
O O4 0.723115 0.723115 0.250000
O O5 0.748230 0.637643 0.493603
O O6 0.814984 0.689698 0.249999
O O7 0.748230 0.637643 0.006398
O O8 0.176938 0.176938 0.250000
O O9 0.183910 0.082256 0.249999
O O10 0.873094 0.373094 0.500000
O O11 0.873094 0.373094 0.000000
O O12 0.000000 0.839165 0.500001
#
# Coordination Sequence:
#
# PCOD8311134 Si02
#       5
#    16  16  16  16  16
#     4  10  21  36  52  72 103 139 172 215 265 308
#     4  10  21  35  52  76 110 150 184 213 252 308
#     4  10  20  36  55  78 113 150 181 216 261 314
#     4  12  23  35  55  79 107 139 178 220 261 308
#     4  10  19  32  52  73  97 136 185 225 259 301
#
# _framework density 20.999994999999998
#
# number of rings (size 3 to 8) (size 9 to 14) (size 15 to 20)
#    0.000    1.600    0.000    6.000    0.000    4.000 
#    0.000    1.000    0.000    0.000    0.000    0.000 
#    0.000   30.400    0.000    0.000    0.000    0.000 
#
# Total GULP energy -495758.659146 kJ/mol
# GULP energy per Si atom -12393.966479 kJ/mol
# Density = 2.095220 g / cm^3
# Si number density = 20.999995 Si / 1000 Ang^3
#
#
#
# Elastic Constant Matrix: (Units=GPa)
#
#
# Indices 1 2 3 4 5 6 
#
# 1 87.0310 -0.8840 39.9516 0.0000 0.0000 0.0000
# 2 -0.8840 87.0310 39.9516 0.0000 0.0000 0.0000
# 3 39.9516 39.9516 233.2299 0.0000 0.0000 0.0000
# 4 0.0000 0.0000 0.0000 26.6208 0.0000 0.0000
# 5 0.0000 0.0000 0.0000 0.0000 26.6208 0.0000
# 6 0.0000 0.0000 0.0000 0.0000 0.0000 4.7812
#
#
#
# Elastic Compliance Matrix: (Units=1/GPa)
#
#
# Indices 1 2 3 4 5 6 
#
# 1 0.012588 0.001213 -0.002364 0.000000 0.000000 0.000000
# 2 0.001213 0.012588 -0.002364 0.000000 0.000000 0.000000
# 3 -0.002364 -0.002364 0.005098 0.000000 0.000000 0.000000
# 4 0.000000 0.000000 0.000000 0.037565 0.000000 0.000000
# 5 0.000000 0.000000 0.000000 0.000000 0.037565 0.000000
# 6 0.000000 0.000000 0.000000 0.000000 0.000000 0.209151
#
#
# Mechanical properties :
#
#
# Convention : Reuss Voigt Hill
#
# Bulk Modulus (GPa) = 43.02386 62.81447 52.91917
# Shear Modulus (GPa) = 15.18230 33.48941 24.33585
#
# Velocity S-wave (km/s) = 2.69172 3.99774 3.40788
# Velocity P-wave (km/s) = 5.49477 7.16142 6.38273
#
# Compressibility (1/GPa) = 0.02324292
#
# Stress axis : x y z
#
# Youngs Moduli (GPa) = 79.44267 79.44267 196.17395
#
# Poissons Ratio (x) = -0.09637 0.46376
# Poissons Ratio (y) = -0.09637 0.46376
# Poissons Ratio (z) = 0.18780 0.18780
#
# Static dielectric constant tensor:
#      x y z
#    x 3.310750 0.000000 0.000000 
#    y 0.000000 3.310750 0.000000 
#    z 0.000000 0.000000 5.378310 
# 
# 
# High freq. dielectric constant tensor:
#      x y z
#    x 1.772650 0.000000 0.000000 
#    y 0.000000 1.772650 0.000000 
#    z 0.000000 0.000000 1.880720 
# 
# From -- ./inp_files/446.got.cif
#   From: 2010.03.12/outbox.cif.g09.slc.cpg/sg120_1_cif.got.tgz:446.got - 2010.04.06 16:00:44.
