data_PCOD8311704
_publ_section_title
;
Structure prediction by ZEFSAII (Michael W. Deem and Ramdas Pophale) SiO2 
 PCOD8311704
Probable space group: I -4 2 M
;
_chemical_formula_sum "Si O2"
_cell_formula_units_Z 54
_cell_length_a 10.860345
_cell_length_b 10.860345
_cell_length_c 21.924760
_cell_angle_alpha 90.000000
_cell_angle_beta 90.000000
_cell_angle_gamma 90.000000
_cell_volume 2585.961718
_symmetry_space_group_name_H-M "I -4 2 M"
_symmetry_group_IT_number 121
_symmetry_cell_setting 'tetragonal'
loop_
_space_group_symop_operation_xyz
x,y,z
y,-x,-z
-x,-y,z
-y,x,-z
x,-y,-z
-x,y,-z
-y,-x,z
y,x,z
1/2+x,1/2+y,1/2+z
1/2+y,1/2-x,1/2-z
1/2-x,1/2-y,1/2+z
1/2-y,1/2+x,1/2-z
1/2+x,1/2-y,1/2-z
1/2-x,1/2+y,1/2-z
1/2-y,1/2-x,1/2+z
1/2+y,1/2+x,1/2+z
loop_
_atom_site_type_symbol
_atom_site_label
_atom_site_fract_x
_atom_site_fract_y
_atom_site_fract_z
Si Si1 0.500000 0.000000 0.750000
Si Si2 0.091933 0.091933 0.746539
Si Si3 0.228022 0.771978 0.359522
Si Si4 0.315642 0.315642 0.432225
Si Si5 0.991681 0.714005 0.836042
Si Si6 0.500000 0.500000 0.500000
Si Si7 0.642135 0.357866 0.986116
O O1 0.397828 0.055401 0.794612
O O2 0.174502 0.174502 0.703023
O O3 0.006857 0.170378 0.791555
O O4 0.000000 0.000000 0.709597
O O5 0.372409 0.802436 0.363559
O O6 0.160510 0.839491 0.414526
O O7 0.394750 0.222371 0.391125
O O8 0.411570 0.411570 0.461468
O O9 0.235080 0.235080 0.479009
O O10 0.500000 0.326378 0.000000
#
# Coordination Sequence:
#
# PCOD8311704 Si02
#       7
#     4   8   8   8  16   2   8
#     4  12  24  40  60 110 144 168 232 276 338 436
#     4  11  23  40  67 102 140 176 219 273 356 412
#     4  12  24  45  70  96 139 184 226 287 348 410
#     4  11  25  46  75 100 138 183 236 294 346 401
#     4  11  24  41  69 104 134 176 227 286 346 414
#     4  12  24  52  72 108 136 176 252 300 334 416
#     4  11  29  51  67 101 139 190 242 285 348 422
#
# _framework density 20.881979999999999
#
# number of rings (size 3 to 8) (size 9 to 14) (size 15 to 20)
#    0.000    0.741    4.444    2.667    8.296    0.000 
#    0.000    1.481    0.000    0.000    0.000    0.000 
#    0.000    0.000    0.000    0.000    0.000    0.000 
#
# Total GULP energy -334773.028310 kJ/mol
# GULP energy per Si atom -12399.001049 kJ/mol
# Density = 2.083445 g / cm^3
# Si number density = 20.881980 Si / 1000 Ang^3
#
#
#
# Elastic Constant Matrix: (Units=GPa)
#
#
# Indices 1 2 3 4 5 6 
#
# 1 61.8425 87.4470 43.6914 0.0000 0.0000 0.0000
# 2 87.4470 61.8450 43.6937 0.0000 0.0000 0.0000
# 3 43.6914 43.6937 108.4222 0.0000 0.0000 0.0000
# 4 0.0000 0.0000 0.0000 68.8324 0.0000 0.0000
# 5 0.0000 0.0000 0.0000 0.0000 68.8340 0.0000
# 6 0.0000 0.0000 0.0000 0.0000 0.0000 40.5255
#
#
#
# Elastic Compliance Matrix: (Units=1/GPa)
#
#
# Indices 1 2 3 4 5 6 
#
# 1 -0.015146 0.023912 -0.003533 0.000000 0.000000 0.000000
# 2 0.023912 -0.015146 -0.003532 0.000000 0.000000 0.000000
# 3 -0.003533 -0.003532 0.012070 0.000000 0.000000 0.000000
# 4 0.000000 0.000000 0.000000 0.014528 0.000000 0.000000
# 5 0.000000 0.000000 0.000000 0.000000 0.014528 0.000000
# 6 0.000000 0.000000 0.000000 0.000000 0.000000 0.024676
#
#
# Mechanical properties :
#
#
# Convention : Reuss Voigt Hill
#
# Bulk Modulus (GPa) = 64.63228 64.64154 64.63691
# Shear Modulus (GPa) = 716.87716 39.45690 378.16703
#
# Velocity S-wave (km/s) = 18.54844 4.35158 13.47184
# Velocity P-wave (km/s) = 22.13018 7.50141 16.52295
#
# Compressibility (1/GPa) = 0.01547214
#
# Stress axis : x y z
#
# Youngs Moduli (GPa) = -66.02478 -66.02582 82.84745
#
# Poissons Ratio (x) = 1.57880 0.29270
# Poissons Ratio (y) = 1.57877 0.29264
# Poissons Ratio (z) = -0.23326 -0.23322
#
# Static dielectric constant tensor:
#      x y z
#    x 3.679170 0.000000 0.000000 
#    y 0.000000 3.679140 0.000000 
#    z 0.000000 0.000000 3.771890 
# 
# 
# High freq. dielectric constant tensor:
#      x y z
#    x 1.826930 0.000000 0.000000 
#    y 0.000000 1.826930 0.000000 
#    z 0.000000 0.000000 1.821590 
# 
# From -- ./inp_files/5990.got.cif
#   From: 2010.03.12/outbox.cif.g09.slc.cpg/sg121_3_cif.got.tgz:5990.got - 2010.04.06 16:06:48.
