data_PCOD8311111
_publ_section_title
;
Structure prediction by ZEFSAII (Michael W. Deem and Ramdas Pophale) SiO2 
 PCOD8311111
Probable space group: I -4 C 2
;
_chemical_formula_sum "Si O2"
_cell_formula_units_Z 96
_cell_length_a 23.345843
_cell_length_b 23.345843
_cell_length_c 10.606197
_cell_angle_alpha 90.000000
_cell_angle_beta 90.000000
_cell_angle_gamma 90.000000
_cell_volume 5780.678426
_symmetry_space_group_name_H-M "I -4 C 2"
_symmetry_group_IT_number 120
_symmetry_cell_setting 'tetragonal'
loop_
_space_group_symop_operation_xyz
x,y,z
y,-x,-z
-x,-y,z
-y,x,-z
y,x,1/2-z
-y,-x,1/2-z
-x,y,1/2+z
x,-y,1/2+z
1/2+x,1/2+y,1/2+z
1/2+y,1/2-x,1/2-z
1/2-x,1/2-y,1/2+z
1/2-y,1/2+x,1/2-z
1/2+y,1/2+x,-z
1/2-y,1/2-x,-z
1/2-x,1/2+y,z
1/2+x,1/2-y,z
loop_
_atom_site_type_symbol
_atom_site_label
_atom_site_fract_x
_atom_site_fract_y
_atom_site_fract_z
Si Si1 0.868968 0.774173 0.284586
Si Si2 0.602906 0.592080 0.038951
Si Si3 0.467737 0.692975 0.126211
Si Si4 0.296402 0.231014 0.141872
Si Si5 0.907790 0.784697 0.561512
Si Si6 0.907533 0.014487 0.681404
O O1 0.828981 0.828981 0.250000
O O2 0.918009 0.765078 0.179015
O O3 0.831345 0.716648 0.298607
O O4 0.902051 0.785666 0.412254
O O5 0.661034 0.561114 0.992650
O O6 0.556258 0.607530 0.933850
O O7 0.614087 0.652598 0.108517
O O8 0.574507 0.548821 0.137609
O O9 0.525340 0.728474 0.092254
O O10 0.486874 0.646954 0.228604
O O11 0.274958 0.274958 0.250000
O O12 0.364893 0.238585 0.125648
O O13 0.265668 0.234333 0.000000
O O14 0.963392 0.036609 0.750000
#
# Coordination Sequence:
#
# PCOD8311111 Si02
#       6
#    16  16  16  16  16  16
#     4  10  17  37  56  67  97 138 169 212 277 323
#     4  11  19  35  45  63  89 132 178 213 259 304
#     4  11  19  33  50  67  94 131 169 218 270 312
#     4   9  21  36  56  78 101 133 177 228 271 322
#     4  11  21  33  49  76  96 124 185 218 255 323
#     4  10  22  35  41  56  88 132 170 218 259 296
#
# _framework density 16.607047000000001
#
# number of rings (size 3 to 8) (size 9 to 14) (size 15 to 20)
#    0.000    1.667    5.000    0.500    2.333    0.333 
#    3.000    0.000    0.000    0.000    0.000    0.000 
#    0.000    0.667    0.000    6.000    0.000    0.000 
#
# Total GULP energy -594726.291199 kJ/mol
# GULP energy per Si atom -12390.131067 kJ/mol
# Density = 1.656925 g / cm^3
# Si number density = 16.607047 Si / 1000 Ang^3
#
#
#
# Elastic Constant Matrix: (Units=GPa)
#
#
# Indices 1 2 3 4 5 6 
#
# 1 85.9106 54.6426 27.7328 0.0000 0.0000 0.0000
# 2 54.6426 85.9109 27.7338 0.0000 0.0000 0.0000
# 3 27.7328 27.7338 57.9143 0.0000 0.0000 0.0000
# 4 0.0000 0.0000 0.0000 21.8480 0.0000 0.0000
# 5 0.0000 0.0000 0.0000 0.0000 21.8491 0.0000
# 6 0.0000 0.0000 0.0000 0.0000 0.0000 27.5828
#
#
#
# Elastic Compliance Matrix: (Units=1/GPa)
#
#
# Indices 1 2 3 4 5 6 
#
# 1 0.020377 -0.011604 -0.004201 0.000000 0.000000 0.000000
# 2 -0.011604 0.020377 -0.004201 0.000000 0.000000 0.000000
# 3 -0.004201 -0.004201 0.021290 0.000000 0.000000 0.000000
# 4 0.000000 0.000000 0.000000 0.045771 0.000000 0.000000
# 5 0.000000 0.000000 0.000000 0.000000 0.045768 0.000000
# 6 0.000000 0.000000 0.000000 0.000000 0.000000 0.036254
#
#
# Mechanical properties :
#
#
# Convention : Reuss Voigt Hill
#
# Bulk Modulus (GPa) = 45.38901 49.99489 47.69195
# Shear Modulus (GPa) = 21.07978 22.23110 21.65544
#
# Velocity S-wave (km/s) = 3.56663 3.66273 3.61500
# Velocity P-wave (km/s) = 6.65970 6.93235 6.79739
#
# Compressibility (1/GPa) = 0.02203176
#
# Stress axis : x y z
#
# Youngs Moduli (GPa) = 49.07522 49.07478 46.96993
#
# Poissons Ratio (x) = 0.56949 0.19730
# Poissons Ratio (y) = 0.56949 0.19733
# Poissons Ratio (z) = 0.20614 0.20617
#
# Static dielectric constant tensor:
#      x y z
#    x 3.048140 0.000000 0.000000 
#    y 0.000000 3.048140 0.000000 
#    z 0.000000 0.000000 3.310930 
# 
# 
# High freq. dielectric constant tensor:
#      x y z
#    x 1.607330 0.000000 0.000000 
#    y 0.000000 1.607330 0.000000 
#    z 0.000000 0.000000 1.657710 
# 
# From -- ./inp_files/2828.got.cif
#   From: 2010.03.12/outbox.cif.g09.slc.cpg/sg120_2_cif.got.tgz:2828.got - 2010.04.06 16:00:44.
