data_PCOD8311851
_publ_section_title
;
Structure prediction by ZEFSAII (Michael W. Deem and Ramdas Pophale) SiO2 
 PCOD8311851
Probable space group: I -4 2 D
;
_chemical_formula_sum "Si O2"
_cell_formula_units_Z 64
_cell_length_a 11.054955
_cell_length_b 11.054955
_cell_length_c 22.415896
_cell_angle_alpha 90.000000
_cell_angle_beta 90.000000
_cell_angle_gamma 90.000000
_cell_volume 2739.492156
_symmetry_space_group_name_H-M "I -4 2 D"
_symmetry_group_IT_number 122
_symmetry_cell_setting 'tetragonal'
loop_
_space_group_symop_operation_xyz
x,y,z
y,-x,-z
-x,-y,z
-y,x,-z
x,1/2-y,1/4-z
-x,1/2+y,1/4-z
-y,1/2-x,1/4+z
y,1/2+x,1/4+z
1/2+x,1/2+y,1/2+z
1/2+y,1/2-x,1/2-z
1/2-x,1/2-y,1/2+z
1/2-y,1/2+x,1/2-z
1/2+x,-y,3/4-z
1/2-x,y,3/4-z
1/2-y,-x,3/4+z
1/2+y,x,3/4+z
loop_
_atom_site_type_symbol
_atom_site_label
_atom_site_fract_x
_atom_site_fract_y
_atom_site_fract_z
Si Si1 0.339502 0.855213 0.005028
Si Si2 0.236484 0.997895 0.580547
Si Si3 0.500000 0.500000 0.500000
Si Si4 0.697904 0.250000 0.125000
Si Si5 0.904328 0.234685 0.954096
Si Si6 0.000000 0.000000 0.500000
O O1 0.453007 0.842825 0.961507
O O2 0.229971 0.765859 0.982531
O O3 0.380823 0.803026 0.069904
O O4 0.309488 0.997699 0.006619
O O5 0.218033 0.091045 0.635976
O O6 0.278341 0.864943 0.603773
O O7 0.113737 0.986966 0.543370
O O8 0.447441 0.596605 0.453964
#
# Coordination Sequence:
#
# PCOD8311851 Si02
#       6
#    16  16   4   8  16   4
#     4  10  20  42  64  98 139 176 232 285 347 421
#     4  11  22  43  64  91 129 178 230 288 350 416
#     4   8  16  40  68  90 140 176 216 288 346 412
#     4  10  22  42  66  88 130 178 222 284 352 414
#     4   9  20  39  65 100 132 180 227 281 351 420
#     4  12  24  44  64  86 132 188 224 304 354 412
#
# _framework density 23.361992000000001
#
# number of rings (size 3 to 8) (size 9 to 14) (size 15 to 20)
#    0.000    2.000    2.500    0.750    0.000    0.000 
#   31.500    0.000    0.000    0.000    0.000    0.000 
#    0.000    0.000    0.000    0.000    0.000    0.000 
#
# Total GULP energy -396473.057073 kJ/mol
# GULP energy per Si atom -12389.783034 kJ/mol
# Density = 2.330882 g / cm^3
# Si number density = 23.361992 Si / 1000 Ang^3
#
#
#
# Elastic Constant Matrix: (Units=GPa)
#
#
# Indices 1 2 3 4 5 6 
#
# 1 84.9059 20.6798 49.0309 0.0000 0.0000 0.0000
# 2 20.6798 84.9059 49.0309 0.0000 0.0000 0.0000
# 3 49.0309 49.0309 145.9024 0.0000 0.0000 0.0000
# 4 0.0000 0.0000 0.0000 34.6983 0.0000 0.0000
# 5 0.0000 0.0000 0.0000 0.0000 34.6983 0.0000
# 6 0.0000 0.0000 0.0000 0.0000 0.0000 24.9811
#
#
#
# Elastic Compliance Matrix: (Units=1/GPa)
#
#
# Indices 1 2 3 4 5 6 
#
# 1 0.014669 -0.000901 -0.004627 0.000000 0.000000 0.000000
# 2 -0.000901 0.014669 -0.004627 0.000000 0.000000 0.000000
# 3 -0.004627 -0.004627 0.009964 0.000000 0.000000 0.000000
# 4 0.000000 0.000000 0.000000 0.028820 0.000000 0.000000
# 5 0.000000 0.000000 0.000000 0.000000 0.028820 0.000000
# 6 0.000000 0.000000 0.000000 0.000000 0.000000 0.040030
#
#
# Mechanical properties :
#
#
# Convention : Reuss Voigt Hill
#
# Bulk Modulus (GPa) = 52.65222 61.46640 57.05931
# Shear Modulus (GPa) = 30.56016 32.00703 31.28360
#
# Velocity S-wave (km/s) = 3.62071 3.70543 3.66332
# Velocity P-wave (km/s) = 6.32976 6.68390 6.50924
#
# Compressibility (1/GPa) = 0.01899255
#
# Stress axis : x y z
#
# Youngs Moduli (GPa) = 68.17075 68.17075 100.36530
#
# Poissons Ratio (x) = 0.06142 0.46437
# Poissons Ratio (y) = 0.06142 0.46437
# Poissons Ratio (z) = 0.31541 0.31541
#
# Static dielectric constant tensor:
#      x y z
#    x 4.100980 0.000000 0.000000 
#    y 0.000000 4.100980 0.000000 
#    z 0.000000 0.000000 4.464360 
# 
# 
# High freq. dielectric constant tensor:
#      x y z
#    x 1.906100 0.000000 0.000000 
#    y 0.000000 1.906100 0.000000 
#    z 0.000000 0.000000 1.939080 
# 
# From -- ./inp_files/7926.got.cif
#   From: 2010.03.12/outbox.cif.g09.slc.cpg/sg122_4_cif.got.tgz:7926.got - 2010.04.06 16:17:16.
