data_PCOD8311947
_publ_section_title
;
Structure prediction by ZEFSAII (Michael W. Deem and Ramdas Pophale) SiO2 
 PCOD8311947
Probable space group: I -4 2 D
;
_chemical_formula_sum "Si O2"
_cell_formula_units_Z 88
_cell_length_a 15.902285
_cell_length_b 15.902285
_cell_length_c 15.733881
_cell_angle_alpha 90.000000
_cell_angle_beta 90.000000
_cell_angle_gamma 90.000000
_cell_volume 3978.825809
_symmetry_space_group_name_H-M "I -4 2 D"
_symmetry_group_IT_number 122
_symmetry_cell_setting 'tetragonal'
loop_
_space_group_symop_operation_xyz
x,y,z
y,-x,-z
-x,-y,z
-y,x,-z
x,1/2-y,1/4-z
-x,1/2+y,1/4-z
-y,1/2-x,1/4+z
y,1/2+x,1/4+z
1/2+x,1/2+y,1/2+z
1/2+y,1/2-x,1/2-z
1/2-x,1/2-y,1/2+z
1/2-y,1/2+x,1/2-z
1/2+x,-y,3/4-z
1/2-x,y,3/4-z
1/2-y,-x,3/4+z
1/2+y,x,3/4+z
loop_
_atom_site_type_symbol
_atom_site_label
_atom_site_fract_x
_atom_site_fract_y
_atom_site_fract_z
Si Si1 0.750000 0.031399 0.375000
Si Si2 0.000000 0.000000 0.500000
Si Si3 0.750000 0.192781 0.875000
Si Si4 0.605680 0.407460 0.287016
Si Si5 0.834312 0.725430 0.492762
Si Si6 0.121711 0.395152 0.844176
Si Si7 0.000000 0.000000 0.000000
Si Si8 0.411984 0.922891 0.595602
O O1 0.704272 0.089677 0.443721
O O2 0.818891 0.974962 0.421663
O O3 0.969366 0.922455 0.441164
O O4 0.671678 0.134652 0.899404
O O5 0.717127 0.247699 0.794744
O O6 0.630617 0.381962 0.192110
O O7 0.609623 0.508024 0.293007
O O8 0.511646 0.376508 0.309768
O O9 0.837878 0.819168 0.457306
O O10 0.849542 0.658740 0.415259
O O11 0.938904 0.940982 0.943091
#
# Coordination Sequence:
#
# PCOD8311947 Si02
#       8
#     8   4   8  16  16  16   4  16
#     4  11  22  42  59  98 146 172 223 282 334 425
#     4  12  24  38  68 108 140 186 236 268 368 426
#     4  11  26  46  67 108 140 184 227 300 344 419
#     4  10  23  44  71  93 139 178 238 283 349 413
#     4  11  25  40  71 100 143 182 226 283 355 413
#     4  12  23  40  66 103 138 186 225 283 346 429
#     4   8  20  42  76  96 128 174 260 292 332 406
#     4  10  22  46  70  98 129 185 229 296 344 415
#
# _framework density 22.117079
#
# number of rings (size 3 to 8) (size 9 to 14) (size 15 to 20)
#    0.000    1.455    3.636    2.182    0.000    4.364 
#    0.000    6.364    0.000    0.000    0.000    0.000 
#    0.000    0.000    0.000    0.000    0.000    0.000 
#
# Total GULP energy -545534.695330 kJ/mol
# GULP energy per Si atom -12398.515803 kJ/mol
# Density = 2.206674 g / cm^3
# Si number density = 22.117079 Si / 1000 Ang^3
#
#
#
# Elastic Constant Matrix: (Units=GPa)
#
#
# Indices 1 2 3 4 5 6 
#
# 1 95.2536 53.1905 32.2583 0.0000 0.0000 0.0000
# 2 53.1905 95.2536 32.2583 0.0000 0.0000 0.0000
# 3 32.2583 32.2583 102.4156 0.0000 0.0000 0.0000
# 4 0.0000 0.0000 0.0000 33.6827 0.0000 0.0000
# 5 0.0000 0.0000 0.0000 0.0000 33.6827 0.0000
# 6 0.0000 0.0000 0.0000 0.0000 0.0000 33.3807
#
#
#
# Elastic Compliance Matrix: (Units=1/GPa)
#
#
# Indices 1 2 3 4 5 6 
#
# 1 0.015789 -0.007984 -0.002458 0.000000 0.000000 0.000000
# 2 -0.007984 0.015789 -0.002458 0.000000 0.000000 0.000000
# 3 -0.002458 -0.002458 0.011313 0.000000 0.000000 0.000000
# 4 0.000000 0.000000 0.000000 0.029689 0.000000 0.000000
# 5 0.000000 0.000000 0.000000 0.000000 0.029689 0.000000
# 6 0.000000 0.000000 0.000000 0.000000 0.000000 0.029957
#
#
# Mechanical properties :
#
#
# Convention : Reuss Voigt Hill
#
# Bulk Modulus (GPa) = 58.51621 58.70412 58.61016
# Shear Modulus (GPa) = 30.53894 31.83027 31.18460
#
# Velocity S-wave (km/s) = 3.71992 3.79776 3.75904
# Velocity P-wave (km/s) = 6.70562 6.76984 6.73780
#
# Compressibility (1/GPa) = 0.01708928
#
# Stress axis : x y z
#
# Youngs Moduli (GPa) = 63.33365 63.33365 88.39553
#
# Poissons Ratio (x) = 0.50568 0.21731
# Poissons Ratio (y) = 0.50568 0.21731
# Poissons Ratio (z) = 0.15570 0.15570
#
# Static dielectric constant tensor:
#      x y z
#    x 3.920000 0.000000 0.000000 
#    y 0.000000 3.920000 0.000000 
#    z 0.000000 0.000000 4.070740 
# 
# 
# High freq. dielectric constant tensor:
#      x y z
#    x 1.865680 0.000000 0.000000 
#    y 0.000000 1.865680 0.000000 
#    z 0.000000 0.000000 1.876450 
# 
# From -- ./inp_files/5446.got.cif
#   From: 2010.03.12/outbox.cif.g09.slc.cpg/sg122_3_cif.got.tgz:5446.got - 2010.04.06 16:17:16.
