data_PCOD8311845
_publ_section_title
;
Structure prediction by ZEFSAII (Michael W. Deem and Ramdas Pophale) SiO2 
 PCOD8311845
Probable space group: I -4 2 D
;
_chemical_formula_sum "Si O2"
_cell_formula_units_Z 60
_cell_length_a 14.596805
_cell_length_b 14.596805
_cell_length_c 12.692850
_cell_angle_alpha 90.000000
_cell_angle_beta 90.000000
_cell_angle_gamma 90.000000
_cell_volume 2704.423869
_symmetry_space_group_name_H-M "I -4 2 D"
_symmetry_group_IT_number 122
_symmetry_cell_setting 'tetragonal'
loop_
_space_group_symop_operation_xyz
x,y,z
y,-x,-z
-x,-y,z
-y,x,-z
x,1/2-y,1/4-z
-x,1/2+y,1/4-z
-y,1/2-x,1/4+z
y,1/2+x,1/4+z
1/2+x,1/2+y,1/2+z
1/2+y,1/2-x,1/2-z
1/2-x,1/2-y,1/2+z
1/2-y,1/2+x,1/2-z
1/2+x,-y,3/4-z
1/2-x,y,3/4-z
1/2-y,-x,3/4+z
1/2+y,x,3/4+z
loop_
_atom_site_type_symbol
_atom_site_label
_atom_site_fract_x
_atom_site_fract_y
_atom_site_fract_z
Si Si1 0.000000 0.000000 0.500000
Si Si2 0.000000 0.500000 0.399687
Si Si3 0.283679 0.333468 0.204042
Si Si4 0.141761 0.980417 0.670546
Si Si5 0.168542 0.608805 0.162837
O O1 0.950487 0.923377 0.426679
O O2 0.086671 0.527005 0.470564
O O3 0.030072 0.410562 0.330795
O O4 0.273232 0.250000 0.125000
O O5 0.323139 0.418668 0.138885
O O6 0.357510 0.314426 0.294403
O O7 0.187649 0.361569 0.256690
O O8 0.230309 0.920950 0.696222
#
# Coordination Sequence:
#
# PCOD8311845 Si02
#       5
#     4   8  16  16  16
#     4  10  20  40  64  94 124 162 208 266 312 366
#     4   9  22  41  59  93 124 160 216 251 307 378
#     4  10  22  40  61  92 123 159 211 254 309 375
#     4  10  21  38  63  90 124 162 207 258 314 365
#     4  10  22  40  63  90 125 165 205 257 313 368
#
# _framework density 22.185872
#
# number of rings (size 3 to 8) (size 9 to 14) (size 15 to 20)
#    0.000    2.133    0.000    1.600    3.733    2.133 
#    4.800    0.000    0.000    0.000    0.000    0.000 
#    0.000    0.000    0.000    0.000    0.000    0.000 
#
# Total GULP energy -371868.631699 kJ/mol
# GULP energy per Si atom -12395.621057 kJ/mol
# Density = 2.213538 g / cm^3
# Si number density = 22.185872 Si / 1000 Ang^3
#
#
#
# Elastic Constant Matrix: (Units=GPa)
#
#
# Indices 1 2 3 4 5 6 
#
# 1 107.7639 38.3967 12.6444 0.0000 0.0000 0.0000
# 2 38.3967 107.7639 12.6444 0.0000 0.0000 0.0000
# 3 12.6444 12.6444 40.6039 0.0000 0.0000 0.0000
# 4 0.0000 0.0000 0.0000 23.1555 0.0000 0.0000
# 5 0.0000 0.0000 0.0000 0.0000 23.1555 0.0000
# 6 0.0000 0.0000 0.0000 0.0000 0.0000 44.6894
#
#
#
# Elastic Compliance Matrix: (Units=1/GPa)
#
#
# Indices 1 2 3 4 5 6 
#
# 1 0.010824 -0.003592 -0.002252 0.000000 0.000000 0.000000
# 2 -0.003592 0.010824 -0.002252 0.000000 0.000000 0.000000
# 3 -0.002252 -0.002252 0.026031 0.000000 0.000000 0.000000
# 4 0.000000 0.000000 0.000000 0.043186 0.000000 0.000000
# 5 0.000000 0.000000 0.000000 0.000000 0.043186 0.000000
# 6 0.000000 0.000000 0.000000 0.000000 0.000000 0.022377
#
#
# Mechanical properties :
#
#
# Convention : Reuss Voigt Hill
#
# Bulk Modulus (GPa) = 31.76029 42.61142 37.18585
# Shear Modulus (GPa) = 27.30524 31.02983 29.16753
#
# Velocity S-wave (km/s) = 3.51201 3.74388 3.62980
# Velocity P-wave (km/s) = 5.54908 6.15931 5.86214
#
# Compressibility (1/GPa) = 0.03148586
#
# Stress axis : x y z
#
# Youngs Moduli (GPa) = 92.38965 92.38965 38.41613
#
# Poissons Ratio (x) = 0.33189 0.08651
# Poissons Ratio (y) = 0.33189 0.08651
# Poissons Ratio (z) = 0.20805 0.20805
#
# Static dielectric constant tensor:
#      x y z
#    x 4.132940 0.000000 0.000000 
#    y 0.000000 4.132940 0.000000 
#    z 0.000000 0.000000 3.884730 
# 
# 
# High freq. dielectric constant tensor:
#      x y z
#    x 1.876640 0.000000 0.000000 
#    y 0.000000 1.876640 0.000000 
#    z 0.000000 0.000000 1.871960 
# 
# From -- ./inp_files/5173.got.cif
#   From: 2010.03.12/outbox.cif.g09.slc.cpg/sg122_3_cif.got.tgz:5173.got - 2010.04.06 16:17:16.
