data_PCOD8311306
_publ_section_title
;
Structure prediction by ZEFSAII (Michael W. Deem and Ramdas Pophale) SiO2 
 PCOD8311306
Probable space group: I -4 C 2
;
_chemical_formula_sum "Si O2"
_cell_formula_units_Z 88
_cell_length_a 14.875777
_cell_length_b 14.875777
_cell_length_c 18.843212
_cell_angle_alpha 90.000000
_cell_angle_beta 90.000000
_cell_angle_gamma 90.000000
_cell_volume 4169.790667
_symmetry_space_group_name_H-M "I -4 C 2"
_symmetry_group_IT_number 120
_symmetry_cell_setting 'tetragonal'
loop_
_space_group_symop_operation_xyz
x,y,z
y,-x,-z
-x,-y,z
-y,x,-z
y,x,1/2-z
-y,-x,1/2-z
-x,y,1/2+z
x,-y,1/2+z
1/2+x,1/2+y,1/2+z
1/2+y,1/2-x,1/2-z
1/2-x,1/2-y,1/2+z
1/2-y,1/2+x,1/2-z
1/2+y,1/2+x,-z
1/2-y,1/2-x,-z
1/2-x,1/2+y,z
1/2+x,1/2-y,z
loop_
_atom_site_type_symbol
_atom_site_label
_atom_site_fract_x
_atom_site_fract_y
_atom_site_fract_z
Si Si1 0.186859 0.877153 0.149444
Si Si2 0.404377 0.047816 0.112697
Si Si3 0.434997 0.788648 0.985170
Si Si4 0.256606 0.969248 0.375807
Si Si5 0.265764 0.265764 0.750000
Si Si6 0.962805 0.739199 0.276044
O O1 0.215325 0.900207 0.069922
O O2 0.090450 0.830201 0.142569
O O3 0.256762 0.812672 0.191177
O O4 0.182637 0.969860 0.195215
O O5 0.409230 0.155386 0.110333
O O6 0.353249 0.013058 0.183181
O O7 0.500000 0.000000 0.110406
O O8 0.347108 0.018100 0.044243
O O9 0.351879 0.851879 0.000000
O O10 0.467268 0.737972 0.056545
O O11 0.276486 0.030483 0.307772
O O12 0.359613 0.262825 0.792378
#
# Coordination Sequence:
#
# PCOD8311306 Si02
#       6
#    16  16  16  16   8  16
#     4  11  24  46  68 101 143 181 241 287 350 439
#     4  11  23  37  64 101 140 175 222 291 365 427
#     4  11  24  40  61  99 140 181 228 283 351 428
#     4  12  23  42  68  99 141 182 227 298 355 425
#     4  12  22  46  73 103 136 184 230 296 364 410
#     4  11  24  42  70 103 132 180 237 288 351 420
#
# _framework density 21.104175999999999
#
# number of rings (size 3 to 8) (size 9 to 14) (size 15 to 20)
#    0.000    0.727    5.455    1.636    5.091    1.455 
#    6.545    1.818    0.000    0.000    0.000    0.000 
#    0.000    0.000    0.000    0.000    0.000    0.000 
#
# Total GULP energy -545631.320001 kJ/mol
# GULP energy per Si atom -12400.711818 kJ/mol
# Density = 2.105614 g / cm^3
# Si number density = 21.104176 Si / 1000 Ang^3
#
#
#
# Elastic Constant Matrix: (Units=GPa)
#
#
# Indices 1 2 3 4 5 6 
#
# 1 78.2242 17.0426 27.9006 0.0000 0.0000 0.0000
# 2 17.0426 78.2242 27.9006 0.0000 0.0000 0.0000
# 3 27.9006 27.9006 152.7908 0.0000 0.0000 0.0000
# 4 0.0000 0.0000 0.0000 26.6340 0.0000 0.0000
# 5 0.0000 0.0000 0.0000 0.0000 26.6340 0.0000
# 6 0.0000 0.0000 0.0000 0.0000 0.0000 23.6810
#
#
#
# Elastic Compliance Matrix: (Units=1/GPa)
#
#
# Indices 1 2 3 4 5 6 
#
# 1 0.014049 -0.002295 -0.002146 0.000000 0.000000 0.000000
# 2 -0.002295 0.014049 -0.002146 0.000000 0.000000 0.000000
# 3 -0.002146 -0.002146 0.007329 0.000000 0.000000 0.000000
# 4 0.000000 0.000000 0.000000 0.037546 0.000000 0.000000
# 5 0.000000 0.000000 0.000000 0.000000 0.037546 0.000000
# 6 0.000000 0.000000 0.000000 0.000000 0.000000 0.042228
#
#
# Mechanical properties :
#
#
# Convention : Reuss Voigt Hill
#
# Bulk Modulus (GPa) = 44.94101 50.54741 47.74421
# Shear Modulus (GPa) = 28.84492 31.14951 29.99721
#
# Velocity S-wave (km/s) = 3.70102 3.84603 3.77422
# Velocity P-wave (km/s) = 6.29321 6.61256 6.45486
#
# Compressibility (1/GPa) = 0.02225139
#
# Stress axis : x y z
#
# Youngs Moduli (GPa) = 71.17740 71.17739 136.44844
#
# Poissons Ratio (x) = 0.16338 0.29287
# Poissons Ratio (y) = 0.16338 0.29287
# Poissons Ratio (z) = 0.15277 0.15277
#
# Static dielectric constant tensor:
#      x y z
#    x 3.717510 0.000000 0.000000 
#    y 0.000000 3.717510 0.000000 
#    z 0.000000 0.000000 4.196060 
# 
# 
# High freq. dielectric constant tensor:
#      x y z
#    x 1.813050 0.000000 0.000000 
#    y 0.000000 1.813050 0.000000 
#    z 0.000000 0.000000 1.846750 
# 
# From -- ./inp_files/5249.got.cif
#   From: 2010.03.12/outbox.cif.g09.slc.cpg/sg120_3_cif.got.tgz:5249.got - 2010.04.06 16:00:44.
