data_PCOD8311868
_publ_section_title
;
Structure prediction by ZEFSAII (Michael W. Deem and Ramdas Pophale) SiO2 
 PCOD8311868
Probable space group: I -4 2 D
;
_chemical_formula_sum "Si O2"
_cell_formula_units_Z 88
_cell_length_a 17.430075
_cell_length_b 17.430075
_cell_length_c 15.077850
_cell_angle_alpha 90.000000
_cell_angle_beta 90.000000
_cell_angle_gamma 90.000000
_cell_volume 4580.764133
_symmetry_space_group_name_H-M "I -4 2 D"
_symmetry_group_IT_number 122
_symmetry_cell_setting 'tetragonal'
loop_
_space_group_symop_operation_xyz
x,y,z
y,-x,-z
-x,-y,z
-y,x,-z
x,1/2-y,1/4-z
-x,1/2+y,1/4-z
-y,1/2-x,1/4+z
y,1/2+x,1/4+z
1/2+x,1/2+y,1/2+z
1/2+y,1/2-x,1/2-z
1/2-x,1/2-y,1/2+z
1/2-y,1/2+x,1/2-z
1/2+x,-y,3/4-z
1/2-x,y,3/4-z
1/2-y,-x,3/4+z
1/2+y,x,3/4+z
loop_
_atom_site_type_symbol
_atom_site_label
_atom_site_fract_x
_atom_site_fract_y
_atom_site_fract_z
Si Si1 0.791811 0.096765 0.965766
Si Si2 0.543460 0.353221 0.094832
Si Si3 0.345067 0.044272 0.690298
Si Si4 0.000000 0.000000 0.500000
Si Si5 0.000000 0.000000 0.000000
Si Si6 0.222578 0.521435 0.015183
Si Si7 0.836301 0.777551 0.383445
O O1 0.750000 0.109181 0.875000
O O2 0.866713 0.151893 0.967917
O O3 0.732816 0.122707 0.040098
O O4 0.808472 0.006311 0.980238
O O5 0.538361 0.441026 0.067860
O O6 0.493826 0.336874 0.184339
O O7 0.631908 0.330142 0.101334
O O8 0.507353 0.305653 0.014142
O O9 0.431547 0.013443 0.680543
O O10 0.302332 0.030789 0.597969
O O11 0.231699 0.612054 0.042509
O O12 0.750000 0.743465 0.375000
#
# Coordination Sequence:
#
# PCOD8311868 Si02
#       7
#    16  16  16   4   4  16  16
#     4  10  21  37  61  91 120 167 204 252 317 363
#     4  11  22  40  62  86 122 163 210 257 308 382
#     4   9  19  37  59  85 120 154 203 249 299 373
#     4  12  24  42  64  92 120 170 220 264 310 376
#     4   8  16  34  60  80 112 146 188 244 290 364
#     4  10  21  39  61  85 121 164 197 261 313 358
#     4  11  22  40  60  90 130 162 207 263 315 371
#
# _framework density 19.210768999999999
#
# number of rings (size 3 to 8) (size 9 to 14) (size 15 to 20)
#    0.000    1.818    3.636    1.091    0.000    1.455 
#    6.545    3.636    0.000    0.000    0.000    0.000 
#    0.000    0.000    0.000    0.000    0.000    0.000 
#
# Total GULP energy -545280.471741 kJ/mol
# GULP energy per Si atom -12392.737994 kJ/mol
# Density = 1.916704 g / cm^3
# Si number density = 19.210769 Si / 1000 Ang^3
#
#
#
# Elastic Constant Matrix: (Units=GPa)
#
#
# Indices 1 2 3 4 5 6 
#
# 1 80.5005 9.0426 24.4491 0.0000 0.0000 0.0000
# 2 9.0426 80.5005 24.4491 0.0000 0.0000 0.0000
# 3 24.4491 24.4491 86.2970 0.0000 0.0000 0.0000
# 4 0.0000 0.0000 0.0000 25.9780 0.0000 0.0000
# 5 0.0000 0.0000 0.0000 0.0000 25.9780 0.0000
# 6 0.0000 0.0000 0.0000 0.0000 0.0000 23.8252
#
#
#
# Elastic Compliance Matrix: (Units=1/GPa)
#
#
# Indices 1 2 3 4 5 6 
#
# 1 0.013603 -0.000391 -0.003743 0.000000 0.000000 0.000000
# 2 -0.000391 0.013603 -0.003743 0.000000 0.000000 0.000000
# 3 -0.003743 -0.003743 0.013709 0.000000 0.000000 0.000000
# 4 0.000000 0.000000 0.000000 0.038494 0.000000 0.000000
# 5 0.000000 0.000000 0.000000 0.000000 0.038494 0.000000
# 6 0.000000 0.000000 0.000000 0.000000 0.000000 0.041972
#
#
# Mechanical properties :
#
#
# Convention : Reuss Voigt Hill
#
# Bulk Modulus (GPa) = 39.74534 40.35325 40.04930
# Shear Modulus (GPa) = 27.17140 27.78005 27.47572
#
# Velocity S-wave (km/s) = 3.76491 3.80684 3.78593
# Velocity P-wave (km/s) = 6.29551 6.35404 6.32484
#
# Compressibility (1/GPa) = 0.02516018
#
# Stress axis : x y z
#
# Youngs Moduli (GPa) = 73.51289 73.51289 72.94577
#
# Poissons Ratio (x) = 0.02876 0.27304
# Poissons Ratio (y) = 0.02876 0.27304
# Poissons Ratio (z) = 0.27517 0.27517
#
# Static dielectric constant tensor:
#      x y z
#    x 3.692000 0.000000 0.000000 
#    y 0.000000 3.692000 0.000000 
#    z 0.000000 0.000000 3.418370 
# 
# 
# High freq. dielectric constant tensor:
#      x y z
#    x 1.750640 0.000000 0.000000 
#    y 0.000000 1.750640 0.000000 
#    z 0.000000 0.000000 1.742060 
# 
# From -- ./inp_files/5431.got.cif
#   From: 2010.03.12/outbox.cif.g09.slc.cpg/sg122_3_cif.got.tgz:5431.got - 2010.04.06 16:17:16.
