data_PCOD8311254
_publ_section_title
;
Structure prediction by ZEFSAII (Michael W. Deem and Ramdas Pophale) SiO2 
 PCOD8311254
Probable space group: I -4 C 2
;
_chemical_formula_sum "Si O2"
_cell_formula_units_Z 72
_cell_length_a 17.664626
_cell_length_b 17.664626
_cell_length_c 10.301003
_cell_angle_alpha 90.000000
_cell_angle_beta 90.000000
_cell_angle_gamma 90.000000
_cell_volume 3214.314796
_symmetry_space_group_name_H-M "I -4 C 2"
_symmetry_group_IT_number 120
_symmetry_cell_setting 'tetragonal'
loop_
_space_group_symop_operation_xyz
x,y,z
y,-x,-z
-x,-y,z
-y,x,-z
y,x,1/2-z
-y,-x,1/2-z
-x,y,1/2+z
x,-y,1/2+z
1/2+x,1/2+y,1/2+z
1/2+y,1/2-x,1/2-z
1/2-x,1/2-y,1/2+z
1/2-y,1/2+x,1/2-z
1/2+y,1/2+x,-z
1/2-y,1/2-x,-z
1/2-x,1/2+y,z
1/2+x,1/2-y,z
loop_
_atom_site_type_symbol
_atom_site_label
_atom_site_fract_x
_atom_site_fract_y
_atom_site_fract_z
Si Si1 0.963692 0.214467 0.559652
Si Si2 0.655221 0.368944 0.898828
Si Si3 0.203841 0.703841 0.000000
Si Si4 0.409014 0.180932 0.774857
Si Si5 0.946467 0.364013 0.396362
O O1 0.913476 0.147611 0.497897
O O2 0.932872 0.242054 0.700282
O O3 0.962205 0.285139 0.464669
O O4 0.048599 0.186326 0.570368
O O5 0.629876 0.370125 0.750000
O O6 0.718128 0.302962 0.920496
O O7 0.132173 0.703934 0.905643
O O8 0.353332 0.129450 0.688353
O O9 0.480181 0.124659 0.805598
O O10 0.932334 0.432334 0.500000
#
# Coordination Sequence:
#
# PCOD8311254 Si02
#       5
#    16  16   8  16  16
#     4  11  25  50  73 105 147 187 242 307 366 433
#     4  12  28  48  76 108 144 188 242 301 365 440
#     4  12  26  42  77 108 142 187 248 296 364 420
#     4  11  23  44  69 104 147 192 238 305 357 440
#     4  10  23  43  66 100 149 190 241 299 360 432
#
# _framework density 22.399795000000001
#
# number of rings (size 3 to 8) (size 9 to 14) (size 15 to 20)
#    0.000    0.889    2.222    4.000   10.889    0.889 
#    0.000    1.111    0.000    0.000    0.000    0.000 
#    0.000    0.000    0.000    0.000    0.000    0.000 
#
# Total GULP energy -446437.101104 kJ/mol
# GULP energy per Si atom -12401.030586 kJ/mol
# Density = 2.234881 g / cm^3
# Si number density = 22.399795 Si / 1000 Ang^3
#
#
#
# Elastic Constant Matrix: (Units=GPa)
#
#
# Indices 1 2 3 4 5 6 
#
# 1 100.1661 68.8148 51.8288 0.0000 0.0000 0.0000
# 2 68.8148 100.1650 51.8279 0.0000 0.0000 0.0000
# 3 51.8288 51.8279 135.1063 0.0000 0.0000 0.0000
# 4 0.0000 0.0000 0.0000 32.8775 0.0000 0.0000
# 5 0.0000 0.0000 0.0000 0.0000 32.8775 0.0000
# 6 0.0000 0.0000 0.0000 0.0000 0.0000 40.6373
#
#
#
# Elastic Compliance Matrix: (Units=1/GPa)
#
#
# Indices 1 2 3 4 5 6 
#
# 1 0.019818 -0.012079 -0.002969 0.000000 0.000000 0.000000
# 2 -0.012079 0.019818 -0.002969 0.000000 0.000000 0.000000
# 3 -0.002969 -0.002969 0.009679 0.000000 0.000000 0.000000
# 4 0.000000 0.000000 0.000000 0.030416 0.000000 0.000000
# 5 0.000000 0.000000 0.000000 0.000000 0.030416 0.000000
# 6 0.000000 0.000000 0.000000 0.000000 0.000000 0.024608
#
#
# Mechanical properties :
#
#
# Convention : Reuss Voigt Hill
#
# Bulk Modulus (GPa) = 75.28888 75.59781 75.44334
# Shear Modulus (GPa) = 28.53625 32.14286 30.33955
#
# Velocity S-wave (km/s) = 3.57312 3.79220 3.68429
# Velocity P-wave (km/s) = 7.12090 7.27990 7.20084
#
# Compressibility (1/GPa) = 0.01328217
#
# Stress axis : x y z
#
# Youngs Moduli (GPa) = 50.45914 50.45894 103.31353
#
# Poissons Ratio (x) = 0.60950 0.30672
# Poissons Ratio (y) = 0.60950 0.30670
# Poissons Ratio (z) = 0.14981 0.14980
#
# Static dielectric constant tensor:
#      x y z
#    x 4.026120 0.000000 0.000000 
#    y 0.000000 4.026120 0.000000 
#    z 0.000000 0.000000 4.536880 
# 
# 
# High freq. dielectric constant tensor:
#      x y z
#    x 1.874780 0.000000 0.000000 
#    y 0.000000 1.874780 0.000000 
#    z 0.000000 0.000000 1.904410 
# 
# From -- ./inp_files/2481.got.cif
#   From: 2010.03.12/outbox.cif.g09.slc.cpg/sg120_2_cif.got.tgz:2481.got - 2010.04.06 16:00:44.
