data_PCOD8311726
_publ_section_title
;
Structure prediction by ZEFSAII (Michael W. Deem and Ramdas Pophale) SiO2 
 PCOD8311726
Probable space group: I -4 2 D
;
_chemical_formula_sum "Si O2"
_cell_formula_units_Z 104
_cell_length_a 18.394645
_cell_length_b 18.394645
_cell_length_c 15.098007
_cell_angle_alpha 90.000000
_cell_angle_beta 90.000000
_cell_angle_gamma 90.000000
_cell_volume 5108.606409
_symmetry_space_group_name_H-M "I -4 2 D"
_symmetry_group_IT_number 122
_symmetry_cell_setting 'tetragonal'
loop_
_space_group_symop_operation_xyz
x,y,z
y,-x,-z
-x,-y,z
-y,x,-z
x,1/2-y,1/4-z
-x,1/2+y,1/4-z
-y,1/2-x,1/4+z
y,1/2+x,1/4+z
1/2+x,1/2+y,1/2+z
1/2+y,1/2-x,1/2-z
1/2-x,1/2-y,1/2+z
1/2-y,1/2+x,1/2-z
1/2+x,-y,3/4-z
1/2-x,y,3/4-z
1/2-y,-x,3/4+z
1/2+y,x,3/4+z
loop_
_atom_site_type_symbol
_atom_site_label
_atom_site_fract_x
_atom_site_fract_y
_atom_site_fract_z
Si Si1 0.369117 0.508911 0.279091
Si Si2 0.435348 0.381282 0.393533
Si Si3 0.358372 0.571111 0.894418
Si Si4 0.423537 0.779852 0.398056
Si Si5 0.500000 0.500000 0.149554
Si Si6 0.894762 0.378872 0.335490
Si Si7 0.037670 0.262632 0.485084
O O1 0.393345 0.447356 0.348619
O O2 0.297515 0.483030 0.225056
O O3 0.433276 0.525986 0.210083
O O4 0.350030 0.581547 0.335250
O O5 0.411732 0.369466 0.493377
O O6 0.521292 0.396242 0.392692
O O7 0.417949 0.306696 0.340045
O O8 0.369370 0.652546 0.858852
O O9 0.433720 0.528306 0.912116
O O10 0.315649 0.525840 0.819004
O O11 0.311177 0.578127 0.983891
O O12 0.378677 0.707199 0.421384
O O13 0.460938 0.764275 0.303552
#
# Coordination Sequence:
#
# PCOD8311726 Si02
#       7
#    16  16  16  16   8  16  16
#     4  11  19  35  61  93 125 155 211 267 324 383
#     4  11  19  35  63  94 120 160 202 268 335 379
#     4  10  21  39  65  87 129 173 212 264 327 385
#     4  10  23  38  61  95 124 165 216 260 322 398
#     4  10  16  32  62  96 114 152 214 268 309 373
#     4  11  21  35  62  92 127 156 207 271 328 376
#     4  10  21  41  61  89 130 169 207 270 325 380
#
# _framework density 20.357802
#
# number of rings (size 3 to 8) (size 9 to 14) (size 15 to 20)
#    0.000    1.538    6.154    0.923    0.000    3.077 
#    0.000    0.769   16.923    0.000    0.000    0.000 
#    0.000    0.000    0.000    0.000    0.000    0.000 
#
# Total GULP energy -644574.232811 kJ/mol
# GULP energy per Si atom -12395.658323 kJ/mol
# Density = 2.031147 g / cm^3
# Si number density = 20.357802 Si / 1000 Ang^3
#
#
#
# Elastic Constant Matrix: (Units=GPa)
#
#
# Indices 1 2 3 4 5 6 
#
# 1 93.0639 19.1815 43.5169 0.0000 0.0000 0.0000
# 2 19.1815 93.0639 43.5169 0.0000 0.0000 0.0000
# 3 43.5169 43.5169 94.3000 0.0000 0.0000 0.0000
# 4 0.0000 0.0000 0.0000 35.1063 0.0000 0.0000
# 5 0.0000 0.0000 0.0000 0.0000 35.1063 0.0000
# 6 0.0000 0.0000 0.0000 0.0000 0.0000 11.2766
#
#
#
# Elastic Compliance Matrix: (Units=1/GPa)
#
#
# Indices 1 2 3 4 5 6 
#
# 1 0.013704 0.000169 -0.006402 0.000000 0.000000 0.000000
# 2 0.000169 0.013704 -0.006402 0.000000 0.000000 0.000000
# 3 -0.006402 -0.006402 0.016513 0.000000 0.000000 0.000000
# 4 0.000000 0.000000 0.000000 0.028485 0.000000 0.000000
# 5 0.000000 0.000000 0.000000 0.000000 0.028485 0.000000
# 6 0.000000 0.000000 0.000000 0.000000 0.000000 0.088679
#
#
# Mechanical properties :
#
#
# Convention : Reuss Voigt Hill
#
# Bulk Modulus (GPa) = 53.61586 54.76205 54.18896
# Shear Modulus (GPa) = 22.61851 27.91199 25.26525
#
# Velocity S-wave (km/s) = 3.33686 3.70681 3.52669
# Velocity P-wave (km/s) = 6.42184 6.72895 6.57719
#
# Compressibility (1/GPa) = 0.01865120
#
# Stress axis : x y z
#
# Youngs Moduli (GPa) = 72.97093 72.97093 60.55743
#
# Poissons Ratio (x) = -0.01234 0.38769
# Poissons Ratio (y) = -0.01234 0.38769
# Poissons Ratio (z) = 0.46717 0.46717
#
# Static dielectric constant tensor:
#      x y z
#    x 3.679390 0.000000 0.000000 
#    y 0.000000 3.679390 0.000000 
#    z 0.000000 0.000000 3.865360 
# 
# 
# High freq. dielectric constant tensor:
#      x y z
#    x 1.776190 0.000000 0.000000 
#    y 0.000000 1.776190 0.000000 
#    z 0.000000 0.000000 1.804900 
# 
# From -- ./inp_files/6406.got.cif
#   From: 2010.03.12/outbox.cif.g09.slc.cpg/sg122_4_cif.got.tgz:6406.got - 2010.04.06 16:17:16.
