data_PCOD8311834
_publ_section_title
;
Structure prediction by ZEFSAII (Michael W. Deem and Ramdas Pophale) SiO2 
 PCOD8311834
Probable space group: I -4 2 D
;
_chemical_formula_sum "Si O2"
_cell_formula_units_Z 48
_cell_length_a 17.936129
_cell_length_b 17.936129
_cell_length_c 7.728761
_cell_angle_alpha 90.000000
_cell_angle_beta 90.000000
_cell_angle_gamma 90.000000
_cell_volume 2486.378921
_symmetry_space_group_name_H-M "I -4 2 D"
_symmetry_group_IT_number 122
_symmetry_cell_setting 'tetragonal'
loop_
_space_group_symop_operation_xyz
x,y,z
y,-x,-z
-x,-y,z
-y,x,-z
x,1/2-y,1/4-z
-x,1/2+y,1/4-z
-y,1/2-x,1/4+z
y,1/2+x,1/4+z
1/2+x,1/2+y,1/2+z
1/2+y,1/2-x,1/2-z
1/2-x,1/2-y,1/2+z
1/2-y,1/2+x,1/2-z
1/2+x,-y,3/4-z
1/2-x,y,3/4-z
1/2-y,-x,3/4+z
1/2+y,x,3/4+z
loop_
_atom_site_type_symbol
_atom_site_label
_atom_site_fract_x
_atom_site_fract_y
_atom_site_fract_z
Si Si1 0.500000 0.000000 0.250000
Si Si2 0.432830 0.750000 0.625000
Si Si3 0.621372 0.042473 0.988172
Si Si4 0.706330 0.668889 0.698602
Si Si5 0.000000 0.000000 0.000000
O O1 0.487953 0.079050 0.343707
O O2 0.481679 0.820267 0.573335
O O3 0.386066 0.728637 0.455609
O O4 0.663167 0.120556 0.007587
O O5 0.554299 0.054343 0.853912
O O6 0.724487 0.750000 0.625000
O O7 0.750000 0.651388 0.875000
#
# Coordination Sequence:
#
# PCOD8311834 Si02
#       5
#     4   8  16  16   4
#     4  10  24  42  68  98 132 174 224 282 326 396
#     4  12  24  42  70 100 132 176 230 274 340 410
#     4  11  22  42  66  97 129 174 222 275 336 395
#     4  12  25  43  66 101 138 178 224 280 340 409
#     4  10  20  38  68  86 128 166 216 266 324 386
#
# _framework density 19.305184000000001
#
# number of rings (size 3 to 8) (size 9 to 14) (size 15 to 20)
#    0.000    0.667    6.667    2.000    0.000    0.000 
#    0.000    1.667    0.000    0.000    0.000    0.000 
#    0.000    0.000    0.000    0.000    0.000    0.000 
#
# Total GULP energy -297427.462299 kJ/mol
# GULP energy per Si atom -12392.810929 kJ/mol
# Density = 1.926124 g / cm^3
# Si number density = 19.305184 Si / 1000 Ang^3
#
#
#
# Elastic Constant Matrix: (Units=GPa)
#
#
# Indices 1 2 3 4 5 6 
#
# 1 123.3619 40.6042 67.5967 0.0000 0.0000 0.0000
# 2 40.6042 123.3619 67.5967 0.0000 0.0000 0.0000
# 3 67.5967 67.5967 150.6922 0.0000 0.0000 0.0000
# 4 0.0000 0.0000 0.0000 36.5557 0.0000 0.0000
# 5 0.0000 0.0000 0.0000 0.0000 36.5557 0.0000
# 6 0.0000 0.0000 0.0000 0.0000 0.0000 35.2089
#
#
#
# Elastic Compliance Matrix: (Units=1/GPa)
#
#
# Indices 1 2 3 4 5 6 
#
# 1 0.010881 -0.001202 -0.004342 0.000000 0.000000 0.000000
# 2 -0.001202 0.010881 -0.004342 0.000000 0.000000 0.000000
# 3 -0.004342 -0.004342 0.010531 0.000000 0.000000 0.000000
# 4 0.000000 0.000000 0.000000 0.027356 0.000000 0.000000
# 5 0.000000 0.000000 0.000000 0.000000 0.027356 0.000000
# 6 0.000000 0.000000 0.000000 0.000000 0.000000 0.028402
#
#
# Mechanical properties :
#
#
# Convention : Reuss Voigt Hill
#
# Bulk Modulus (GPa) = 79.85990 83.22347 81.54169
# Shear Modulus (GPa) = 35.88059 36.43860 36.15960
#
# Velocity S-wave (km/s) = 4.31582 4.34925 4.33257
# Velocity P-wave (km/s) = 8.14199 8.27190 8.20720
#
# Compressibility (1/GPa) = 0.01252193
#
# Stress axis : x y z
#
# Youngs Moduli (GPa) = 91.90339 91.90339 94.95726
#
# Poissons Ratio (x) = 0.11051 0.41226
# Poissons Ratio (y) = 0.11051 0.41226
# Poissons Ratio (z) = 0.39900 0.39900
#
# Static dielectric constant tensor:
#      x y z
#    x 3.542880 0.000000 0.000000 
#    y 0.000000 3.542880 0.000000 
#    z 0.000000 0.000000 3.655550 
# 
# 
# High freq. dielectric constant tensor:
#      x y z
#    x 1.764060 0.000000 0.000000 
#    y 0.000000 1.764060 0.000000 
#    z 0.000000 0.000000 1.761740 
# 
# From -- ./inp_files/2132.got.cif
#   From: 2010.03.12/outbox.cif.g09.slc.cpg/sg122_2_cif.got.tgz:2132.got - 2010.04.06 16:17:16.
