data_PCOD8311654
_publ_section_title
;
Structure prediction by ZEFSAII (Michael W. Deem and Ramdas Pophale) SiO2 
 PCOD8311654
Probable space group: I -4 2 M
;
_chemical_formula_sum "Si O2"
_cell_formula_units_Z 88
_cell_length_a 12.441729
_cell_length_b 12.441729
_cell_length_c 26.848563
_cell_angle_alpha 90.000000
_cell_angle_beta 90.000000
_cell_angle_gamma 90.000000
_cell_volume 4156.066818
_symmetry_space_group_name_H-M "I -4 2 M"
_symmetry_group_IT_number 121
_symmetry_cell_setting 'tetragonal'
loop_
_space_group_symop_operation_xyz
x,y,z
y,-x,-z
-x,-y,z
-y,x,-z
x,-y,-z
-x,y,-z
-y,-x,z
y,x,z
1/2+x,1/2+y,1/2+z
1/2+y,1/2-x,1/2-z
1/2-x,1/2-y,1/2+z
1/2-y,1/2+x,1/2-z
1/2+x,1/2-y,1/2-z
1/2-x,1/2+y,1/2-z
1/2-y,1/2-x,1/2+z
1/2+y,1/2+x,1/2+z
loop_
_atom_site_type_symbol
_atom_site_label
_atom_site_fract_x
_atom_site_fract_y
_atom_site_fract_z
Si Si1 0.555600 0.275627 0.051803
Si Si2 0.323572 0.500000 0.500000
Si Si3 0.877422 0.514140 0.677378
Si Si4 0.501413 0.677725 0.751131
Si Si5 0.747731 0.078548 0.350930
Si Si6 0.720346 0.109427 0.087458
O O1 0.604943 0.395057 0.053962
O O2 0.470578 0.264508 0.095369
O O3 0.648304 0.188261 0.055204
O O4 0.500000 0.254306 0.000000
O O5 0.394299 0.605702 0.491537
O O6 0.253145 0.512886 0.550200
O O7 0.787362 0.498142 0.719533
O O8 0.871596 0.630688 0.654011
O O9 0.850555 0.429822 0.633828
O O10 0.000000 0.500000 0.697730
O O11 0.395943 0.604058 0.740527
O O12 0.608559 0.608559 0.739675
O O13 0.507053 0.718864 0.808133
O O14 0.819429 0.180572 0.343566
O O15 0.827195 0.172806 0.106700
#
# Coordination Sequence:
#
# PCOD8311654 Si02
#       6
#    16   8  16  16  16  16
#     4  11  24  43  67  95 129 174 221 271 327 391
#     4   9  20  38  63  94 130 174 221 279 342 396
#     4  12  25  42  66 101 136 176 219 270 336 400
#     4  10  24  47  73  98 131 177 227 279 335 400
#     4  11  25  43  67 101 134 171 217 273 334 393
#     4  10  23  42  64  93 132 174 222 275 329 395
#
# _framework density 21.173866
#
# number of rings (size 3 to 8) (size 9 to 14) (size 15 to 20)
#    0.000    1.364    1.818    2.182    5.091    3.455 
#    0.000    1.818    0.000    0.000    0.000    0.000 
#    0.000    0.000    0.000    0.000    0.000    0.000 
#
# Total GULP energy -545554.582918 kJ/mol
# GULP energy per Si atom -12398.967794 kJ/mol
# Density = 2.112567 g / cm^3
# Si number density = 21.173866 Si / 1000 Ang^3
#
#
#
# Elastic Constant Matrix: (Units=GPa)
#
#
# Indices 1 2 3 4 5 6 
#
# 1 105.8073 32.7739 56.3779 0.0000 0.0000 0.0000
# 2 32.7739 105.8076 56.3739 0.0000 0.0000 0.0000
# 3 56.3779 56.3739 139.2821 0.0000 0.0000 0.0000
# 4 0.0000 0.0000 0.0000 8.8026 0.0000 0.0000
# 5 0.0000 0.0000 0.0000 0.0000 8.6542 0.0000
# 6 0.0000 0.0000 0.0000 0.0000 0.0000 25.8695
#
#
#
# Elastic Compliance Matrix: (Units=1/GPa)
#
#
# Indices 1 2 3 4 5 6 
#
# 1 0.012226 -0.001467 -0.004355 0.000000 0.000000 0.000000
# 2 -0.001467 0.012225 -0.004355 0.000000 0.000000 0.000000
# 3 -0.004355 -0.004355 0.010705 0.000000 0.000000 0.000000
# 4 0.000000 0.000000 0.000000 0.113603 0.000000 0.000000
# 5 0.000000 0.000000 0.000000 0.000000 0.115551 0.000000
# 6 0.000000 0.000000 0.000000 0.000000 0.000000 0.038656
#
#
# Mechanical properties :
#
#
# Convention : Reuss Voigt Hill
#
# Bulk Modulus (GPa) = 67.55002 71.32759 69.43881
# Shear Modulus (GPa) = 15.23213 22.35668 18.79440
#
# Velocity S-wave (km/s) = 2.68504 3.25293 2.98253
# Velocity P-wave (km/s) = 6.44860 6.91870 6.68778
#
# Compressibility (1/GPa) = 0.01480384
#
# Stress axis : x y z
#
# Youngs Moduli (GPa) = 81.79277 81.79626 93.41394
#
# Poissons Ratio (x) = 0.11996 0.40684
# Poissons Ratio (y) = 0.11996 0.40678
# Poissons Ratio (z) = 0.35622 0.35619
#
# Static dielectric constant tensor:
#      x y z
#    x 4.024100 0.000000 0.000000 
#    y 0.000000 4.024270 0.000000 
#    z 0.000000 0.000000 3.830420 
# 
# 
# High freq. dielectric constant tensor:
#      x y z
#    x 1.840550 0.000000 0.000000 
#    y 0.000000 1.840550 0.000000 
#    z 0.000000 0.000000 1.831950 
# 
# From -- ./inp_files/8159.got.cif
#   From: 2010.03.12/outbox.cif.g09.slc.cpg/sg121_5_cif.got.tgz:8159.got - 2010.04.06 16:06:48.
