data_PCOD8311856
_publ_section_title
;
Structure prediction by ZEFSAII (Michael W. Deem and Ramdas Pophale) SiO2 
 PCOD8311856
Probable space group: I -4 2 D
;
_chemical_formula_sum "Si O2"
_cell_formula_units_Z 92
_cell_length_a 14.459763
_cell_length_b 14.459763
_cell_length_c 20.919297
_cell_angle_alpha 90.000000
_cell_angle_beta 90.000000
_cell_angle_gamma 90.000000
_cell_volume 4373.905900
_symmetry_space_group_name_H-M "I -4 2 D"
_symmetry_group_IT_number 122
_symmetry_cell_setting 'tetragonal'
loop_
_space_group_symop_operation_xyz
x,y,z
y,-x,-z
-x,-y,z
-y,x,-z
x,1/2-y,1/4-z
-x,1/2+y,1/4-z
-y,1/2-x,1/4+z
y,1/2+x,1/4+z
1/2+x,1/2+y,1/2+z
1/2+y,1/2-x,1/2-z
1/2-x,1/2-y,1/2+z
1/2-y,1/2+x,1/2-z
1/2+x,-y,3/4-z
1/2-x,y,3/4-z
1/2-y,-x,3/4+z
1/2+y,x,3/4+z
loop_
_atom_site_type_symbol
_atom_site_label
_atom_site_fract_x
_atom_site_fract_y
_atom_site_fract_z
Si Si1 0.477365 0.188724 0.522585
Si Si2 0.658325 0.750000 0.125000
Si Si3 0.500000 0.000000 0.466911
Si Si4 0.606582 0.202014 0.930225
Si Si5 0.500000 0.500000 0.500000
Si Si6 0.482178 0.700855 0.186124
Si Si7 0.443540 0.169211 0.835223
Si Si8 0.113680 0.750000 0.125000
O O1 0.381277 0.178965 0.560976
O O2 0.456888 0.239015 0.456119
O O3 0.549666 0.247738 0.562504
O O4 0.522116 0.087795 0.511591
O O5 0.716960 0.660075 0.106233
O O6 0.592120 0.726102 0.185694
O O7 0.409899 0.025896 0.425481
O O8 0.520754 0.166087 0.889557
O O9 0.567075 0.234731 0.999099
O O10 0.451044 0.423089 0.456733
O O11 0.433124 0.750000 0.125000
O O12 0.342021 0.175468 0.867631
#
# Coordination Sequence:
#
# PCOD8311856 Si02
#       8
#    16   8   8  16   4  16  16   8
#     4  11  24  40  66  96 131 188 225 285 363 411
#     4  10  23  44  73  98 146 180 242 292 362 430
#     4  10  20  45  68  85 141 175 228 294 356 426
#     4  11  24  44  68 100 140 185 237 300 357 429
#     4  12  24  46  64 104 144 182 236 286 340 456
#     4   9  22  45  66 103 130 185 237 295 362 436
#     4  12  26  42  70 100 140 183 232 290 356 424
#     4  12  23  42  65 102 138 178 238 284 348 434
#
# _framework density 21.033833000000001
#
# number of rings (size 3 to 8) (size 9 to 14) (size 15 to 20)
#    0.522    0.696    1.739    4.696    2.435    3.478 
#   15.652    0.000    0.000    1.043    0.000    0.000 
#    0.000    0.000    0.000    0.000    0.000    0.000 
#
# Total GULP energy -570313.741114 kJ/mol
# GULP energy per Si atom -12398.124807 kJ/mol
# Density = 2.098596 g / cm^3
# Si number density = 21.033833 Si / 1000 Ang^3
#
#
#
# Elastic Constant Matrix: (Units=GPa)
#
#
# Indices 1 2 3 4 5 6 
#
# 1 94.6915 9.7141 31.6722 0.0000 0.0000 0.0000
# 2 9.7141 94.6915 31.6722 0.0000 0.0000 0.0000
# 3 31.6722 31.6722 99.9160 0.0000 0.0000 0.0000
# 4 0.0000 0.0000 0.0000 33.9670 0.0000 0.0000
# 5 0.0000 0.0000 0.0000 0.0000 33.9670 0.0000
# 6 0.0000 0.0000 0.0000 0.0000 0.0000 23.2401
#
#
#
# Elastic Compliance Matrix: (Units=1/GPa)
#
#
# Indices 1 2 3 4 5 6 
#
# 1 0.011813 0.000045 -0.003759 0.000000 0.000000 0.000000
# 2 0.000045 0.011813 -0.003759 0.000000 0.000000 0.000000
# 3 -0.003759 -0.003759 0.012392 0.000000 0.000000 0.000000
# 4 0.000000 0.000000 0.000000 0.029440 0.000000 0.000000
# 5 0.000000 0.000000 0.000000 0.000000 0.029440 0.000000
# 6 0.000000 0.000000 0.000000 0.000000 0.000000 0.043029
#
#
# Mechanical properties :
#
#
# Convention : Reuss Voigt Hill
#
# Bulk Modulus (GPa) = 47.45476 48.37956 47.91716
# Shear Modulus (GPa) = 31.27000 32.65083 31.96042
#
# Velocity S-wave (km/s) = 3.85990 3.94420 3.90228
# Velocity P-wave (km/s) = 6.51730 6.61763 6.56766
#
# Compressibility (1/GPa) = 0.02107270
#
# Stress axis : x y z
#
# Youngs Moduli (GPa) = 84.65055 84.65055 80.70008
#
# Poissons Ratio (x) = -0.00385 0.30336
# Poissons Ratio (y) = -0.00385 0.30336
# Poissons Ratio (z) = 0.31821 0.31821
#
# Static dielectric constant tensor:
#      x y z
#    x 3.804650 0.000000 0.000000 
#    y 0.000000 3.804650 0.000000 
#    z 0.000000 0.000000 3.728210 
# 
# 
# High freq. dielectric constant tensor:
#      x y z
#    x 1.828920 0.000000 0.000000 
#    y 0.000000 1.828920 0.000000 
#    z 0.000000 0.000000 1.816470 
# 
# From -- ./inp_files/7379.got.cif
#   From: 2010.03.12/outbox.cif.g09.slc.cpg/sg122_4_cif.got.tgz:7379.got - 2010.04.06 16:17:16.
