data_PCOD8311458
_publ_section_title
;
Structure prediction by ZEFSAII (Michael W. Deem and Ramdas Pophale) SiO2 
 PCOD8311458
Probable space group: I -4 2 M
;
_chemical_formula_sum "Si O2"
_cell_formula_units_Z 120
_cell_length_a 17.900147
_cell_length_b 17.900147
_cell_length_c 19.545439
_cell_angle_alpha 90.000000
_cell_angle_beta 90.000000
_cell_angle_gamma 90.000000
_cell_volume 6262.656970
_symmetry_space_group_name_H-M "I -4 2 M"
_symmetry_group_IT_number 121
_symmetry_cell_setting 'tetragonal'
loop_
_space_group_symop_operation_xyz
x,y,z
y,-x,-z
-x,-y,z
-y,x,-z
x,-y,-z
-x,y,-z
-y,-x,z
y,x,z
1/2+x,1/2+y,1/2+z
1/2+y,1/2-x,1/2-z
1/2-x,1/2-y,1/2+z
1/2-y,1/2+x,1/2-z
1/2+x,1/2-y,1/2-z
1/2-x,1/2+y,1/2-z
1/2-y,1/2-x,1/2+z
1/2+y,1/2+x,1/2+z
loop_
_atom_site_type_symbol
_atom_site_label
_atom_site_fract_x
_atom_site_fract_y
_atom_site_fract_z
Si Si1 0.578089 0.700820 0.765246
Si Si2 0.908463 0.787324 0.700339
Si Si3 0.901624 0.785329 0.110756
Si Si4 0.816382 0.303875 0.201132
Si Si5 0.003416 0.582147 0.419128
Si Si6 0.221175 0.500000 0.500000
Si Si7 0.361718 0.185151 0.085975
Si Si8 0.353738 0.142674 0.938951
O O1 0.632113 0.632113 0.789632
O O2 0.496752 0.694707 0.800069
O O3 0.564802 0.696776 0.684426
O O4 0.614678 0.781405 0.783192
O O5 0.863132 0.863132 0.718437
O O6 0.889232 0.719371 0.753978
O O7 0.884458 0.761278 0.624005
O O8 0.856072 0.856072 0.082458
O O9 0.844062 0.716512 0.114850
O O10 0.970422 0.773364 0.060236
O O11 0.754635 0.245366 0.224294
O O12 0.832123 0.295907 0.119544
O O13 0.931887 0.632344 0.398442
O O14 0.000000 0.500000 0.384838
O O15 0.000000 0.575428 0.500000
O O16 0.078272 0.621769 0.394423
O O17 0.167554 0.436338 0.471837
O O18 0.358043 0.200211 0.003346
#
# Coordination Sequence:
#
# PCOD8311458 Si02
#       8
#    16  16  16  16  16   8  16  16
#     4  10  21  39  60  80 113 155 192 242 298 345
#     4  11  22  37  58  82 110 147 195 243 285 347
#     4  10  19  35  56  78 110 150 190 229 286 345
#     4  10  21  37  57  81 110 147 191 240 287 337
#     4   9  16  28  47  73 108 145 175 210 263 326
#     4  10  20  32  53  85 114 150 186 232 286 341
#     4  10  19  32  54  80 109 145 181 227 281 334
#     4  10  19  32  52  80 111 144 184 225 279 345
#
# _framework density 19.161196
#
# number of rings (size 3 to 8) (size 9 to 14) (size 15 to 20)
#    0.000    2.000    1.333    4.400    0.000    2.933 
#    0.000    0.667    0.000    1.000    0.000    0.000 
#    0.000    2.133    0.000    0.000    0.000    0.000 
#
# Total GULP energy -743760.269787 kJ/mol
# GULP energy per Si atom -12396.004496 kJ/mol
# Density = 1.911758 g / cm^3
# Si number density = 19.161196 Si / 1000 Ang^3
#
#
#
# Elastic Constant Matrix: (Units=GPa)
#
#
# Indices 1 2 3 4 5 6 
#
# 1 71.8174 26.6898 27.7941 0.0000 0.0000 0.0000
# 2 26.6898 71.8169 27.7938 0.0000 0.0000 0.0000
# 3 27.7941 27.7938 89.2753 0.0000 0.0000 0.0000
# 4 0.0000 0.0000 0.0000 25.9677 0.0000 0.0000
# 5 0.0000 0.0000 0.0000 0.0000 25.9677 0.0000
# 6 0.0000 0.0000 0.0000 0.0000 0.0000 26.0047
#
#
#
# Elastic Compliance Matrix: (Units=1/GPa)
#
#
# Indices 1 2 3 4 5 6 
#
# 1 0.017237 -0.004922 -0.003834 0.000000 0.000000 0.000000
# 2 -0.004922 0.017237 -0.003834 0.000000 0.000000 0.000000
# 3 -0.003834 -0.003834 0.013589 0.000000 0.000000 0.000000
# 4 0.000000 0.000000 0.000000 0.038509 0.000000 0.000000
# 5 0.000000 0.000000 0.000000 0.000000 0.038509 0.000000
# 6 0.000000 0.000000 0.000000 0.000000 0.000000 0.038455
#
#
# Mechanical properties :
#
#
# Convention : Reuss Voigt Hill
#
# Bulk Modulus (GPa) = 43.70120 44.16278 43.93199
# Shear Modulus (GPa) = 25.46543 25.63017 25.54780
#
# Velocity S-wave (km/s) = 3.64951 3.66130 3.65541
# Velocity P-wave (km/s) = 6.37301 6.40090 6.38697
#
# Compressibility (1/GPa) = 0.02288267
#
# Stress axis : x y z
#
# Youngs Moduli (GPa) = 58.01383 58.01350 73.59106
#
# Poissons Ratio (x) = 0.28555 0.28215
# Poissons Ratio (y) = 0.28556 0.28215
# Poissons Ratio (z) = 0.22243 0.22243
#
# Static dielectric constant tensor:
#      x y z
#    x 3.575640 0.000000 0.000000 
#    y 0.000000 3.575640 0.000000 
#    z 0.000000 0.000000 3.429570 
# 
# 
# High freq. dielectric constant tensor:
#      x y z
#    x 1.733800 0.000000 0.000000 
#    y 0.000000 1.733800 0.000000 
#    z 0.000000 0.000000 1.736270 
# 
# From -- ./inp_files/6685.got.cif
#   From: 2010.03.12/outbox.cif.g09.slc.cpg/sg121_4_cif.got.tgz:6685.got - 2010.04.06 16:06:48.
