data_PCOD8311245
_publ_section_title
;
Structure prediction by ZEFSAII (Michael W. Deem and Ramdas Pophale) SiO2 
 PCOD8311245
Probable space group: I -4 C 2
;
_chemical_formula_sum "Si O2"
_cell_formula_units_Z 44
_cell_length_a 13.550644
_cell_length_b 13.550644
_cell_length_c 11.398909
_cell_angle_alpha 90.000000
_cell_angle_beta 90.000000
_cell_angle_gamma 90.000000
_cell_volume 2093.067133
_symmetry_space_group_name_H-M "I -4 C 2"
_symmetry_group_IT_number 120
_symmetry_cell_setting 'tetragonal'
loop_
_space_group_symop_operation_xyz
x,y,z
y,-x,-z
-x,-y,z
-y,x,-z
y,x,1/2-z
-y,-x,1/2-z
-x,y,1/2+z
x,-y,1/2+z
1/2+x,1/2+y,1/2+z
1/2+y,1/2-x,1/2-z
1/2-x,1/2-y,1/2+z
1/2-y,1/2+x,1/2-z
1/2+y,1/2+x,-z
1/2-y,1/2-x,-z
1/2-x,1/2+y,z
1/2+x,1/2-y,z
loop_
_atom_site_type_symbol
_atom_site_label
_atom_site_fract_x
_atom_site_fract_y
_atom_site_fract_z
Si Si1 0.975087 0.850557 0.532446
Si Si2 0.179667 0.432425 0.099856
Si Si3 0.841097 0.158903 0.250000
Si Si4 0.500000 0.000000 0.750000
O O1 0.984841 0.748413 0.461314
O O2 0.901197 0.917867 0.456085
O O3 0.935283 0.839684 0.664003
O O4 0.240037 0.352297 0.177390
O O5 0.098353 0.491707 0.172926
O O6 0.130137 0.369864 0.000000
#
# Coordination Sequence:
#
# PCOD8311245 Si02
#       4
#    16  16   8   4
#     4   9  20  39  65  94 123 154 201 257 309 370
#     4  11  24  40  61  90 125 167 210 251 306 374
#     4  10  22  41  66  94 122 161 200 256 316 361
#     4  12  26  44  64  86 128 176 210 260 316 362
#
# _framework density 21.02178
#
# number of rings (size 3 to 8) (size 9 to 14) (size 15 to 20)
#    0.000    1.818    0.000    2.727    0.000   17.455 
#    0.000    3.636    0.000    0.000    0.000    0.000 
#    0.000    0.000    0.000    0.000    0.000    0.000 
#
# Total GULP energy -272779.387328 kJ/mol
# GULP energy per Si atom -12399.063060 kJ/mol
# Density = 2.097393 g / cm^3
# Si number density = 21.021780 Si / 1000 Ang^3
#
#
#
# Elastic Constant Matrix: (Units=GPa)
#
#
# Indices 1 2 3 4 5 6 
#
# 1 126.9964 59.6685 69.1786 0.0000 0.0000 0.0000
# 2 59.6685 126.9948 69.1779 0.0000 0.0000 0.0000
# 3 69.1786 69.1779 138.3827 0.0000 0.0000 0.0000
# 4 0.0000 0.0000 0.0000 8.1822 0.0000 0.0000
# 5 0.0000 0.0000 0.0000 0.0000 8.1954 0.0000
# 6 0.0000 0.0000 0.0000 0.0000 0.0000 30.1925
#
#
#
# Elastic Compliance Matrix: (Units=1/GPa)
#
#
# Indices 1 2 3 4 5 6 
#
# 1 0.011682 -0.003171 -0.004255 0.000000 0.000000 0.000000
# 2 -0.003171 0.011682 -0.004255 0.000000 0.000000 0.000000
# 3 -0.004255 -0.004255 0.011480 0.000000 0.000000 0.000000
# 4 0.000000 0.000000 0.000000 0.122216 0.000000 0.000000
# 5 0.000000 0.000000 0.000000 0.000000 0.122020 0.000000
# 6 0.000000 0.000000 0.000000 0.000000 0.000000 0.033121
#
#
# Mechanical properties :
#
#
# Convention : Reuss Voigt Hill
#
# Bulk Modulus (GPa) = 87.08294 87.60266 87.34280
# Shear Modulus (GPa) = 14.73236 22.27062 18.50149
#
# Velocity S-wave (km/s) = 2.65016 3.25838 2.96988
# Velocity P-wave (km/s) = 7.13299 7.47789 7.30748
#
# Compressibility (1/GPa) = 0.01148331
#
# Stress axis : x y z
#
# Youngs Moduli (GPa) = 85.60379 85.60289 87.10745
#
# Poissons Ratio (x) = 0.27145 0.37060
# Poissons Ratio (y) = 0.27146 0.37060
# Poissons Ratio (z) = 0.36421 0.36420
#
# Static dielectric constant tensor:
#      x y z
#    x 3.915450 0.000000 0.000000 
#    y 0.000000 3.915440 0.000000 
#    z 0.000000 0.000000 4.002080 
# 
# 
# High freq. dielectric constant tensor:
#      x y z
#    x 1.822950 0.000000 0.000000 
#    y 0.000000 1.822950 0.000000 
#    z 0.000000 0.000000 1.835970 
# 
# From -- ./inp_files/2026.got.cif
#   From: 2010.03.12/outbox.cif.g09.slc.cpg/sg120_2_cif.got.tgz:2026.got - 2010.04.06 16:00:44.
