data_PCOD8311477
_publ_section_title
;
Structure prediction by ZEFSAII (Michael W. Deem and Ramdas Pophale) SiO2 
 PCOD8311477
Probable space group: I -4 2 M
;
_chemical_formula_sum "Si O2"
_cell_formula_units_Z 128
_cell_length_a 20.863867
_cell_length_b 20.863867
_cell_length_c 17.424234
_cell_angle_alpha 90.000000
_cell_angle_beta 90.000000
_cell_angle_gamma 90.000000
_cell_volume 7584.785547
_symmetry_space_group_name_H-M "I -4 2 M"
_symmetry_group_IT_number 121
_symmetry_cell_setting 'tetragonal'
loop_
_space_group_symop_operation_xyz
x,y,z
y,-x,-z
-x,-y,z
-y,x,-z
x,-y,-z
-x,y,-z
-y,-x,z
y,x,z
1/2+x,1/2+y,1/2+z
1/2+y,1/2-x,1/2-z
1/2-x,1/2-y,1/2+z
1/2-y,1/2+x,1/2-z
1/2+x,1/2-y,1/2-z
1/2-x,1/2+y,1/2-z
1/2-y,1/2-x,1/2+z
1/2+y,1/2+x,1/2+z
loop_
_atom_site_type_symbol
_atom_site_label
_atom_site_fract_x
_atom_site_fract_y
_atom_site_fract_z
Si Si1 0.189139 0.290736 0.563507
Si Si2 0.583430 0.953028 0.276610
Si Si3 0.141420 0.755764 0.670396
Si Si4 0.306831 0.023388 0.919570
Si Si5 0.761733 0.661432 0.402201
Si Si6 0.725987 0.070050 0.522974
Si Si7 0.944533 0.582048 0.446368
Si Si8 0.900916 0.306107 0.814365
O O1 0.237874 0.237874 0.596518
O O2 0.217976 0.324807 0.489042
O O3 0.123621 0.253277 0.539655
O O4 0.178359 0.343887 0.627873
O O5 0.515247 0.917168 0.277226
O O6 0.597242 0.975152 0.363358
O O7 0.635087 0.903989 0.244976
O O8 0.176772 0.823229 0.659175
O O9 0.190275 0.697028 0.655917
O O10 0.084389 0.752582 0.608004
O O11 0.114473 0.753484 0.757741
O O12 0.267667 0.085213 0.888425
O O13 0.382171 0.037576 0.935513
O O14 0.295785 0.967734 0.857642
O O15 0.276474 0.000000 0.000000
O O16 0.689374 0.689374 0.388863
O O17 0.649062 0.075774 0.516735
O O18 0.751543 0.000000 0.500000
O O19 0.000000 0.550137 0.500000
#
# Coordination Sequence:
#
# PCOD8311477 Si02
#       8
#    16  16  16  16  16  16  16  16
#     4  10  20  35  52  74 104 143 182 224 274 327
#     4  11  24  34  43  68 102 144 184 228 257 299
#     4  10  20  37  57  78 105 144 183 227 289 333
#     4  12  21  34  49  77 104 140 188 229 265 316
#     4   9  18  36  55  70  99 142 186 221 272 327
#     4  10  19  34  55  78 102 138 188 224 270 320
#     4  11  22  35  48  66 102 150 191 218 265 305
#     4  12  22  33  52  74 109 139 186 237 271 322
#
# _framework density 16.875889999999998
#
# number of rings (size 3 to 8) (size 9 to 14) (size 15 to 20)
#    0.000    1.375    6.250    1.500    5.250    0.250 
#    0.000    0.625    0.000    0.000    0.000    0.000 
#    0.000   10.250    0.000    0.000    0.000    0.000 
#
# Total GULP energy -793353.381366 kJ/mol
# GULP energy per Si atom -12396.146584 kJ/mol
# Density = 1.683748 g / cm^3
# Si number density = 16.875890 Si / 1000 Ang^3
#
#
#
# Elastic Constant Matrix: (Units=GPa)
#
#
# Indices 1 2 3 4 5 6 
#
# 1 76.8334 38.1711 36.0916 0.0000 0.0000 0.0000
# 2 38.1711 76.8322 36.0913 0.0000 0.0000 0.0000
# 3 36.0916 36.0913 105.1206 0.0000 0.0000 0.0000
# 4 0.0000 0.0000 0.0000 20.5680 0.0000 0.0000
# 5 0.0000 0.0000 0.0000 0.0000 20.5677 0.0000
# 6 0.0000 0.0000 0.0000 0.0000 0.0000 11.2814
#
#
#
# Elastic Compliance Matrix: (Units=1/GPa)
#
#
# Indices 1 2 3 4 5 6 
#
# 1 0.018474 -0.007391 -0.003805 0.000000 0.000000 0.000000
# 2 -0.007391 0.018475 -0.003805 0.000000 0.000000 0.000000
# 3 -0.003805 -0.003805 0.012126 0.000000 0.000000 0.000000
# 4 0.000000 0.000000 0.000000 0.048619 0.000000 0.000000
# 5 0.000000 0.000000 0.000000 0.000000 0.048620 0.000000
# 6 0.000000 0.000000 0.000000 0.000000 0.000000 0.088641
#
#
# Mechanical properties :
#
#
# Convention : Reuss Voigt Hill
#
# Bulk Modulus (GPa) = 52.43330 53.27716 52.85523
# Shear Modulus (GPa) = 18.42868 20.37891 19.40379
#
# Velocity S-wave (km/s) = 3.30815 3.47879 3.39454
# Velocity P-wave (km/s) = 6.76233 6.91191 6.83753
#
# Compressibility (1/GPa) = 0.01907185
#
# Stress axis : x y z
#
# Youngs Moduli (GPa) = 54.12871 54.12783 82.46756
#
# Poissons Ratio (x) = 0.40005 0.31383
# Poissons Ratio (y) = 0.40005 0.31383
# Poissons Ratio (z) = 0.20598 0.20598
#
# Static dielectric constant tensor:
#      x y z
#    x 3.133430 0.000000 0.000000 
#    y 0.000000 3.133430 0.000000 
#    z 0.000000 0.000000 3.266120 
# 
# 
# High freq. dielectric constant tensor:
#      x y z
#    x 1.624130 0.000000 0.000000 
#    y 0.000000 1.624130 0.000000 
#    z 0.000000 0.000000 1.663380 
# 
# From -- ./inp_files/5679.got.cif
#   From: 2010.03.12/outbox.cif.g09.slc.cpg/sg121_3_cif.got.tgz:5679.got - 2010.04.06 16:06:48.
