data_PCOD8311500
_publ_section_title
;
Structure prediction by ZEFSAII (Michael W. Deem and Ramdas Pophale) SiO2 
 PCOD8311500
Probable space group: I -4 2 M
;
_chemical_formula_sum "Si O2"
_cell_formula_units_Z 64
_cell_length_a 19.173050
_cell_length_b 19.173050
_cell_length_c 8.914502
_cell_angle_alpha 90.000000
_cell_angle_beta 90.000000
_cell_angle_gamma 90.000000
_cell_volume 3277.023052
_symmetry_space_group_name_H-M "I -4 2 M"
_symmetry_group_IT_number 121
_symmetry_cell_setting 'tetragonal'
loop_
_space_group_symop_operation_xyz
x,y,z
y,-x,-z
-x,-y,z
-y,x,-z
x,-y,-z
-x,y,-z
-y,-x,z
y,x,z
1/2+x,1/2+y,1/2+z
1/2+y,1/2-x,1/2-z
1/2-x,1/2-y,1/2+z
1/2-y,1/2+x,1/2-z
1/2+x,1/2-y,1/2-z
1/2-x,1/2+y,1/2-z
1/2-y,1/2-x,1/2+z
1/2+y,1/2+x,1/2+z
loop_
_atom_site_type_symbol
_atom_site_label
_atom_site_fract_x
_atom_site_fract_y
_atom_site_fract_z
Si Si1 0.248244 0.998779 0.666993
Si Si2 0.486467 0.093027 0.837011
Si Si3 0.252401 0.136517 0.167256
Si Si4 0.762326 0.354511 0.675300
O O1 0.326514 0.971273 0.652683
O O2 0.218788 0.935883 0.769566
O O3 0.214084 0.000000 0.500000
O O4 0.241364 0.074838 0.738389
O O5 0.554190 0.080180 0.733121
O O6 0.500000 0.060928 0.000000
O O7 0.189637 0.189637 0.175357
O O8 0.318162 0.168211 0.258823
O O9 0.277965 0.125963 0.996793
O O10 0.696559 0.303441 0.692487
#
# Coordination Sequence:
#
# PCOD8311500 Si02
#       4
#    16  16  16  16
#     4  11  22  34  53  79 105 138 179 222 269 321
#     4  10  20  31  44  66  97 133 169 204 247 300
#     4  10  21  37  57  81 110 144 182 225 272 322
#     4  10  21  37  57  81 110 144 182 225 272 322
#
# _framework density 19.529921999999999
#
# number of rings (size 3 to 8) (size 9 to 14) (size 15 to 20)
#    0.000    1.750    0.000    5.250    0.000   11.000 
#    0.000    0.000    0.000    0.750    0.000    5.250 
#    0.000    0.000    0.000    0.000    0.000    0.000 
#
# Total GULP energy -396615.896456 kJ/mol
# GULP energy per Si atom -12394.246764 kJ/mol
# Density = 1.948547 g / cm^3
# Si number density = 19.529922 Si / 1000 Ang^3
#
#
#
# Elastic Constant Matrix: (Units=GPa)
#
#
# Indices 1 2 3 4 5 6 
#
# 1 73.3683 -5.0700 30.9737 0.0000 0.0000 0.0000
# 2 -5.0700 73.3706 30.9745 0.0000 0.0000 0.0000
# 3 30.9737 30.9745 164.1373 0.0000 0.0000 0.0000
# 4 0.0000 0.0000 0.0000 30.6273 0.0000 0.0000
# 5 0.0000 0.0000 0.0000 0.0000 30.6276 0.0000
# 6 0.0000 0.0000 0.0000 0.0000 0.0000 11.7056
#
#
#
# Elastic Compliance Matrix: (Units=1/GPa)
#
#
# Indices 1 2 3 4 5 6 
#
# 1 0.015207 0.002458 -0.003334 0.000000 0.000000 0.000000
# 2 0.002458 0.015207 -0.003334 0.000000 0.000000 0.000000
# 3 -0.003334 -0.003334 0.007351 0.000000 0.000000 0.000000
# 4 0.000000 0.000000 0.000000 0.032651 0.000000 0.000000
# 5 0.000000 0.000000 0.000000 0.000000 0.032650 0.000000
# 6 0.000000 0.000000 0.000000 0.000000 0.000000 0.085429
#
#
# Mechanical properties :
#
#
# Convention : Reuss Voigt Hill
#
# Bulk Modulus (GPa) = 34.07576 47.18140 40.62858
# Shear Modulus (GPa) = 24.19034 31.52530 27.85782
#
# Velocity S-wave (km/s) = 3.52324 4.02208 3.78089
# Velocity P-wave (km/s) = 5.83410 6.76612 6.31733
#
# Compressibility (1/GPa) = 0.02934638
#
# Stress axis : x y z
#
# Youngs Moduli (GPa) = 65.75905 65.76098 136.04346
#
# Poissons Ratio (x) = -0.16165 0.45351
# Poissons Ratio (y) = -0.16164 0.45350
# Poissons Ratio (z) = 0.21921 0.21922
#
# Static dielectric constant tensor:
#      x y z
#    x 3.417000 0.000000 0.000000 
#    y 0.000000 3.417000 0.000000 
#    z 0.000000 0.000000 4.137870 
# 
# 
# High freq. dielectric constant tensor:
#      x y z
#    x 1.744620 0.000000 0.000000 
#    y 0.000000 1.744620 0.000000 
#    z 0.000000 0.000000 1.782140 
# 
# From -- ./inp_files/1591.got.cif
#   From: 2010.03.12/outbox.cif.g09.slc.cpg/sg121_1_cif.got.tgz:1591.got - 2010.04.06 16:06:48.
