data_PCOD8311239
_publ_section_title
;
Structure prediction by ZEFSAII (Michael W. Deem and Ramdas Pophale) SiO2 
 PCOD8311239
Probable space group: I -4 C 2
;
_chemical_formula_sum "Si O2"
_cell_formula_units_Z 72
_cell_length_a 15.220630
_cell_length_b 15.220630
_cell_length_c 14.123857
_cell_angle_alpha 90.000000
_cell_angle_beta 90.000000
_cell_angle_gamma 90.000000
_cell_volume 3272.039738
_symmetry_space_group_name_H-M "I -4 C 2"
_symmetry_group_IT_number 120
_symmetry_cell_setting 'tetragonal'
loop_
_space_group_symop_operation_xyz
x,y,z
y,-x,-z
-x,-y,z
-y,x,-z
y,x,1/2-z
-y,-x,1/2-z
-x,y,1/2+z
x,-y,1/2+z
1/2+x,1/2+y,1/2+z
1/2+y,1/2-x,1/2-z
1/2-x,1/2-y,1/2+z
1/2-y,1/2+x,1/2-z
1/2+y,1/2+x,-z
1/2-y,1/2-x,-z
1/2-x,1/2+y,z
1/2+x,1/2-y,z
loop_
_atom_site_type_symbol
_atom_site_label
_atom_site_fract_x
_atom_site_fract_y
_atom_site_fract_z
Si Si1 0.761454 0.966207 0.797397
Si Si2 0.920178 0.558766 0.388356
Si Si3 0.775432 0.775432 0.750000
Si Si4 0.752152 0.893958 0.150333
Si Si5 0.050601 0.868027 0.018766
O O1 0.671323 0.985326 0.854828
O O2 0.756070 0.878726 0.730677
O O3 0.795417 0.049883 0.736308
O O4 0.837086 0.946946 0.873470
O O5 0.927467 0.572534 0.500000
O O6 0.930861 0.653825 0.342740
O O7 0.000000 0.500000 0.349865
O O8 0.745267 0.711953 0.663381
O O9 0.793559 0.910535 0.048786
O O10 0.112186 0.952410 0.013907
#
# Coordination Sequence:
#
# PCOD8311239 Si02
#       5
#    16  16   8  16  16
#     4  11  23  42  65  97 133 173 223 281 339 417
#     4  10  22  40  62  94 130 171 215 267 344 420
#     4  10  24  40  66  94 132 176 222 276 338 406
#     4  11  23  42  65  97 133 173 223 281 339 417
#     4  11  24  43  66  91 127 176 227 285 339 400
#
# _framework density 22.004622999999999
#
# number of rings (size 3 to 8) (size 9 to 14) (size 15 to 20)
#    0.000    1.333    2.222    2.667    6.222    0.000 
#    0.000    4.444    0.000    0.000    0.000    0.000 
#    0.000    0.000    0.000    0.000    0.000    0.000 
#
# Total GULP energy -446329.926631 kJ/mol
# GULP energy per Si atom -12398.053518 kJ/mol
# Density = 2.195454 g / cm^3
# Si number density = 22.004623 Si / 1000 Ang^3
#
#
#
# Elastic Constant Matrix: (Units=GPa)
#
#
# Indices 1 2 3 4 5 6 
#
# 1 97.8757 30.4592 20.5946 0.0000 0.0000 0.0000
# 2 30.4592 97.8756 20.5946 0.0000 0.0000 0.0000
# 3 20.5946 20.5946 88.1951 0.0000 0.0000 0.0000
# 4 0.0000 0.0000 0.0000 26.1011 0.0000 0.0000
# 5 0.0000 0.0000 0.0000 0.0000 26.1011 0.0000
# 6 0.0000 0.0000 0.0000 0.0000 0.0000 29.2468
#
#
#
# Elastic Compliance Matrix: (Units=1/GPa)
#
#
# Indices 1 2 3 4 5 6 
#
# 1 0.011628 -0.003205 -0.001967 0.000000 0.000000 0.000000
# 2 -0.003205 0.011628 -0.001967 0.000000 0.000000 0.000000
# 3 -0.001967 -0.001967 0.012257 0.000000 0.000000 0.000000
# 4 0.000000 0.000000 0.000000 0.038313 0.000000 0.000000
# 5 0.000000 0.000000 0.000000 0.000000 0.038313 0.000000
# 6 0.000000 0.000000 0.000000 0.000000 0.000000 0.034192
#
#
# Mechanical properties :
#
#
# Convention : Reuss Voigt Hill
#
# Bulk Modulus (GPa) = 47.08967 47.47147 47.28057
# Shear Modulus (GPa) = 29.81748 30.44301 30.13024
#
# Velocity S-wave (km/s) = 3.68510 3.72355 3.70438
# Velocity P-wave (km/s) = 6.28912 6.33299 6.31109
#
# Compressibility (1/GPa) = 0.02123608
#
# Stress axis : x y z
#
# Youngs Moduli (GPa) = 85.99717 85.99708 81.58527
#
# Poissons Ratio (x) = 0.27561 0.16048
# Poissons Ratio (y) = 0.27561 0.16048
# Poissons Ratio (z) = 0.16915 0.16915
#
# Static dielectric constant tensor:
#      x y z
#    x 4.060810 0.000000 0.000000 
#    y 0.000000 4.060810 0.000000 
#    z 0.000000 0.000000 3.845050 
# 
# 
# High freq. dielectric constant tensor:
#      x y z
#    x 1.870580 0.000000 0.000000 
#    y 0.000000 1.870580 0.000000 
#    z 0.000000 0.000000 1.857770 
# 
# From -- ./inp_files/4280.got.cif
#   From: 2010.03.12/outbox.cif.g09.slc.cpg/sg120_3_cif.got.tgz:4280.got - 2010.04.06 16:00:44.
