data_PCOD8311744
_publ_section_title
;
Structure prediction by ZEFSAII (Michael W. Deem and Ramdas Pophale) SiO2 
 PCOD8311744
Probable space group: I -4 2 D
;
_chemical_formula_sum "Si O2"
_cell_formula_units_Z 96
_cell_length_a 18.124307
_cell_length_b 18.124307
_cell_length_c 16.121504
_cell_angle_alpha 90.000000
_cell_angle_beta 90.000000
_cell_angle_gamma 90.000000
_cell_volume 5295.760978
_symmetry_space_group_name_H-M "I -4 2 D"
_symmetry_group_IT_number 122
_symmetry_cell_setting 'tetragonal'
loop_
_space_group_symop_operation_xyz
x,y,z
y,-x,-z
-x,-y,z
-y,x,-z
x,1/2-y,1/4-z
-x,1/2+y,1/4-z
-y,1/2-x,1/4+z
y,1/2+x,1/4+z
1/2+x,1/2+y,1/2+z
1/2+y,1/2-x,1/2-z
1/2-x,1/2-y,1/2+z
1/2-y,1/2+x,1/2-z
1/2+x,-y,3/4-z
1/2-x,y,3/4-z
1/2-y,-x,3/4+z
1/2+y,x,3/4+z
loop_
_atom_site_type_symbol
_atom_site_label
_atom_site_fract_x
_atom_site_fract_y
_atom_site_fract_z
Si Si1 0.805100 0.287037 0.940674
Si Si2 0.826743 0.051123 0.897179
Si Si3 0.828471 0.893286 0.839348
Si Si4 0.440288 0.201385 0.830264
Si Si5 0.090106 0.685526 0.408625
Si Si6 0.193211 0.302322 0.949442
O O1 0.750000 0.328677 0.875000
O O2 0.869839 0.249332 0.890643
O O3 0.847989 0.342077 0.003430
O O4 0.758642 0.224522 0.987926
O O5 0.750000 0.094027 0.875000
O O6 0.894932 0.105703 0.883597
O O7 0.832955 0.981897 0.833469
O O8 0.816746 0.022455 0.991428
O O9 0.750000 0.866782 0.875000
O O10 0.891313 0.870252 0.902658
O O11 0.503646 0.205837 0.900755
O O12 0.387302 0.274057 0.832351
O O13 0.119029 0.683228 0.503654
O O14 0.250000 0.315505 0.875000
#
# Coordination Sequence:
#
# PCOD8311744 Si02
#       6
#    16  16  16  16  16  16
#     4  10  18  34  55  80 103 139 194 231 276 337
#     4  11  19  32  53  80 118 144 180 224 284 358
#     4  11  20  33  53  79 109 151 185 232 284 347
#     4  12  20  33  53  81 112 151 189 222 288 357
#     4  11  22  33  53  85 112 147 185 232 297 351
#     4  11  20  37  59  78 108 146 195 249 283 333
#
# _framework density 18.127707000000001
#
# number of rings (size 3 to 8) (size 9 to 14) (size 15 to 20)
#    0.000    1.000    6.667    3.500    0.000    0.667 
#    0.000    2.500    0.000    0.000    0.000    0.000 
#    0.000    0.000    0.000    0.000    0.000    0.000 
#
# Total GULP energy -594838.879910 kJ/mol
# GULP energy per Si atom -12392.476665 kJ/mol
# Density = 1.808645 g / cm^3
# Si number density = 18.127707 Si / 1000 Ang^3
#
#
#
# Elastic Constant Matrix: (Units=GPa)
#
#
# Indices 1 2 3 4 5 6 
#
# 1 87.7985 29.7932 43.9434 0.0000 0.0000 0.0000
# 2 29.7932 87.7985 43.9434 0.0000 0.0000 0.0000
# 3 43.9434 43.9434 78.6597 0.0000 0.0000 0.0000
# 4 0.0000 0.0000 0.0000 31.9558 0.0000 0.0000
# 5 0.0000 0.0000 0.0000 0.0000 31.9558 0.0000
# 6 0.0000 0.0000 0.0000 0.0000 0.0000 15.4549
#
#
#
# Elastic Compliance Matrix: (Units=1/GPa)
#
#
# Indices 1 2 3 4 5 6 
#
# 1 0.015920 -0.001320 -0.008156 0.000000 0.000000 0.000000
# 2 -0.001320 0.015920 -0.008156 0.000000 0.000000 0.000000
# 3 -0.008156 -0.008156 0.021826 0.000000 0.000000 0.000000
# 4 0.000000 0.000000 0.000000 0.031293 0.000000 0.000000
# 5 0.000000 0.000000 0.000000 0.000000 0.031293 0.000000
# 6 0.000000 0.000000 0.000000 0.000000 0.000000 0.064704
#
#
# Mechanical properties :
#
#
# Convention : Reuss Voigt Hill
#
# Bulk Modulus (GPa) = 54.34557 54.40186 54.37372
# Shear Modulus (GPa) = 22.48655 24.97842 23.73249
#
# Velocity S-wave (km/s) = 3.52583 3.71605 3.62219
# Velocity P-wave (km/s) = 6.82786 6.96330 6.89591
#
# Compressibility (1/GPa) = 0.01840076
#
# Stress axis : x y z
#
# Youngs Moduli (GPa) = 62.81459 62.81459 45.81688
#
# Poissons Ratio (x) = 0.08291 0.37369
# Poissons Ratio (y) = 0.08291 0.37369
# Poissons Ratio (z) = 0.51233 0.51233
#
# Static dielectric constant tensor:
#      x y z
#    x 3.177520 0.000000 0.000000 
#    y 0.000000 3.177520 0.000000 
#    z 0.000000 0.000000 3.574450 
# 
# 
# High freq. dielectric constant tensor:
#      x y z
#    x 1.680640 0.000000 0.000000 
#    y 0.000000 1.680640 0.000000 
#    z 0.000000 0.000000 1.696570 
# 
# From -- ./inp_files/6326.got.cif
#   From: 2010.03.12/outbox.cif.g09.slc.cpg/sg122_4_cif.got.tgz:6326.got - 2010.04.06 16:17:16.
