data_PCOD8311034
_publ_section_title
;
Structure prediction by ZEFSAII (Michael W. Deem and Ramdas Pophale) SiO2 
 PCOD8311034
Probable space group: I -4 M 2
;
_chemical_formula_sum "Si O2"
_cell_formula_units_Z 38
_cell_length_a 9.686830
_cell_length_b 9.686830
_cell_length_c 20.140681
_cell_angle_alpha 90.000000
_cell_angle_beta 90.000000
_cell_angle_gamma 90.000000
_cell_volume 1889.894265
_symmetry_space_group_name_H-M "I -4 M 2"
_symmetry_group_IT_number 119
_symmetry_cell_setting 'tetragonal'
loop_
_space_group_symop_operation_xyz
x,y,z
y,-x,-z
-x,-y,z
-y,x,-z
y,x,-z
-y,-x,-z
-x,y,z
x,-y,z
1/2+x,1/2+y,1/2+z
1/2+y,1/2-x,1/2-z
1/2-x,1/2-y,1/2+z
1/2-y,1/2+x,1/2-z
1/2+y,1/2+x,1/2-z
1/2-y,1/2-x,1/2-z
1/2-x,1/2+y,1/2+z
1/2+x,1/2-y,1/2+z
loop_
_atom_site_type_symbol
_atom_site_label
_atom_site_fract_x
_atom_site_fract_y
_atom_site_fract_z
Si Si1 0.259488 0.656711 0.070503
Si Si2 0.655015 0.500000 0.406333
Si Si3 0.500000 0.000000 0.250000
Si Si4 0.000000 0.000000 0.779911
Si Si5 0.000000 0.774534 0.670683
O O1 0.207772 0.500000 0.082095
O O2 0.133013 0.761707 0.070320
O O3 0.364228 0.697644 0.128200
O O4 0.335558 0.664443 0.000000
O O5 0.500000 0.500000 0.438459
O O6 0.637636 0.500000 0.326161
O O7 0.621522 0.000000 0.302710
O O8 0.000000 0.134524 0.735973
#
# Coordination Sequence:
#
# PCOD8311034 Si02
#       5
#    16   8   2   4   8
#     4  12  25  45  72 102 137 182 229 284 347 410
#     4  10  27  45  67 104 137 179 226 281 347 402
#     4  12  28  40  72 108 132 184 244 278 356 400
#     4  10  22  48  70  92 146 180 220 278 340 402
#     4  12  24  45  73  99 141 179 231 290 329 417
#
# _framework density 20.106947999999999
#
# number of rings (size 3 to 8) (size 9 to 14) (size 15 to 20)
#    0.632    0.000    4.211    3.158    5.895    0.000 
#    0.000    0.000    4.632    0.000    0.000    0.000 
#    0.000    0.000    0.000    0.000    0.000    0.000 
#
# Total GULP energy -235607.368829 kJ/mol
# GULP energy per Si atom -12400.387833 kJ/mol
# Density = 2.006118 g / cm^3
# Si number density = 20.106948 Si / 1000 Ang^3
#
#
#
# Elastic Constant Matrix: (Units=GPa)
#
#
# Indices 1 2 3 4 5 6 
#
# 1 156.7340 62.2442 34.6846 0.0000 0.0000 0.0000
# 2 62.2442 156.7342 34.6847 0.0000 0.0000 0.0000
# 3 34.6846 34.6847 114.7928 0.0000 0.0000 0.0000
# 4 0.0000 0.0000 0.0000 33.2168 0.0000 0.0000
# 5 0.0000 0.0000 0.0000 0.0000 33.2165 0.0000
# 6 0.0000 0.0000 0.0000 0.0000 0.0000 44.8313
#
#
#
# Elastic Compliance Matrix: (Units=1/GPa)
#
#
# Indices 1 2 3 4 5 6 
#
# 1 0.007817 -0.002767 -0.001526 0.000000 0.000000 0.000000
# 2 -0.002767 0.007817 -0.001526 0.000000 0.000000 0.000000
# 3 -0.001526 -0.001526 0.009633 0.000000 0.000000 0.000000
# 4 0.000000 0.000000 0.000000 0.030105 0.000000 0.000000
# 5 0.000000 0.000000 0.000000 0.000000 0.030106 0.000000
# 6 0.000000 0.000000 0.000000 0.000000 0.000000 0.022306
#
#
# Mechanical properties :
#
#
# Convention : Reuss Voigt Hill
#
# Bulk Modulus (GPa) = 73.36741 76.83200 75.09970
# Shear Modulus (GPa) = 40.33456 42.02941 41.18198
#
# Velocity S-wave (km/s) = 4.48370 4.57693 4.53056
# Velocity P-wave (km/s) = 7.96069 8.13792 8.04979
#
# Compressibility (1/GPa) = 0.01363003
#
# Stress axis : x y z
#
# Youngs Moduli (GPa) = 127.93291 127.93311 103.80514
#
# Poissons Ratio (x) = 0.35393 0.15839
# Poissons Ratio (y) = 0.35393 0.15839
# Poissons Ratio (z) = 0.19521 0.19521
#
# Static dielectric constant tensor:
#      x y z
#    x 3.583440 0.000000 0.000000 
#    y 0.000000 3.583420 0.000000 
#    z 0.000000 0.000000 3.783450 
# 
# 
# High freq. dielectric constant tensor:
#      x y z
#    x 1.792990 0.000000 0.000000 
#    y 0.000000 1.792990 0.000000 
#    z 0.000000 0.000000 1.802700 
# 
# From -- ./inp_files/8258.got.cif
#   From: 2010.03.12/outbox.cif.g09.slc.cpg/sg119_5_cif.got.tgz:8258.got - 2010.04.14 02:25:26.
