data_PCOD8311687
_publ_section_title
;
Structure prediction by ZEFSAII (Michael W. Deem and Ramdas Pophale) SiO2 
 PCOD8311687
Probable space group: I -4 2 M
;
_chemical_formula_sum "Si O2"
_cell_formula_units_Z 112
_cell_length_a 17.422019
_cell_length_b 17.422019
_cell_length_c 21.833227
_cell_angle_alpha 90.000000
_cell_angle_beta 90.000000
_cell_angle_gamma 90.000000
_cell_volume 6626.968347
_symmetry_space_group_name_H-M "I -4 2 M"
_symmetry_group_IT_number 121
_symmetry_cell_setting 'tetragonal'
loop_
_space_group_symop_operation_xyz
x,y,z
y,-x,-z
-x,-y,z
-y,x,-z
x,-y,-z
-x,y,-z
-y,-x,z
y,x,z
1/2+x,1/2+y,1/2+z
1/2+y,1/2-x,1/2-z
1/2-x,1/2-y,1/2+z
1/2-y,1/2+x,1/2-z
1/2+x,1/2-y,1/2-z
1/2-x,1/2+y,1/2-z
1/2-y,1/2-x,1/2+z
1/2+y,1/2+x,1/2+z
loop_
_atom_site_type_symbol
_atom_site_label
_atom_site_fract_x
_atom_site_fract_y
_atom_site_fract_z
Si Si1 0.561524 0.936066 0.826253
Si Si2 0.576141 0.918687 0.968895
Si Si3 0.483764 0.194797 0.737832
Si Si4 0.308274 0.810375 0.975199
Si Si5 0.289273 0.164774 0.159655
Si Si6 0.684374 0.434565 0.951102
Si Si7 0.787293 0.914307 0.682493
O O1 0.558097 0.927074 0.898391
O O2 0.540544 0.855058 0.796556
O O3 0.500000 0.000000 0.805354
O O4 0.646466 0.960333 0.806034
O O5 0.500000 0.880838 0.000000
O O6 0.652464 0.867192 0.976358
O O7 0.592353 0.000000 0.000000
O O8 0.411563 0.220897 0.698496
O O9 0.525348 0.272025 0.762703
O O10 0.230384 0.769616 0.001619
O O11 0.288617 0.855950 0.912625
O O12 0.366469 0.743713 0.958516
O O13 0.218353 0.218353 0.176921
O O14 0.368411 0.207343 0.175893
O O15 0.598877 0.401124 0.962659
O O16 0.692512 0.461075 0.880111
O O17 0.701897 0.500000 0.000000
O O18 0.857170 0.857170 0.699414
#
# Coordination Sequence:
#
# PCOD8311687 Si02
#       7
#    16  16  16  16  16  16  16
#     4  12  21  32  47  79 106 138 169 209 262 310
#     4  11  22  32  50  76 108 136 167 211 267 314
#     4  12  20  33  53  74 107 136 179 214 251 314
#     4   9  19  35  53  72 100 133 172 211 254 312
#     4   9  18  34  54  73  97 137 179 213 252 307
#     4   9  18  32  51  72  96 134 178 214 252 298
#     4   9  19  34  50  72 102 139 173 214 266 307
#
# _framework density 16.900638000000001
#
# number of rings (size 3 to 8) (size 9 to 14) (size 15 to 20)
#    0.000    1.857    4.286    3.000    6.000    0.143 
#    0.000    2.143    0.000    1.286    0.000    0.000 
#    0.000    1.429    0.000    0.000    0.000    0.000 
#
# Total GULP energy -694187.073229 kJ/mol
# GULP energy per Si atom -12396.197736 kJ/mol
# Density = 1.686217 g / cm^3
# Si number density = 16.900638 Si / 1000 Ang^3
#
#
#
# Elastic Constant Matrix: (Units=GPa)
#
#
# Indices 1 2 3 4 5 6 
#
# 1 61.3645 35.5752 35.7318 0.0000 0.0000 0.0000
# 2 35.5752 61.3632 35.7315 0.0000 0.0000 0.0000
# 3 35.7318 35.7315 92.6433 0.0000 0.0000 0.0000
# 4 0.0000 0.0000 0.0000 25.4224 0.0000 0.0000
# 5 0.0000 0.0000 0.0000 0.0000 25.4233 0.0000
# 6 0.0000 0.0000 0.0000 0.0000 0.0000 27.2161
#
#
#
# Elastic Compliance Matrix: (Units=1/GPa)
#
#
# Indices 1 2 3 4 5 6 
#
# 1 0.026595 -0.012181 -0.005559 0.000000 0.000000 0.000000
# 2 -0.012181 0.026596 -0.005559 0.000000 0.000000 0.000000
# 3 -0.005559 -0.005559 0.015082 0.000000 0.000000 0.000000
# 4 0.000000 0.000000 0.000000 0.039335 0.000000 0.000000
# 5 0.000000 0.000000 0.000000 0.000000 0.039334 0.000000
# 6 0.000000 0.000000 0.000000 0.000000 0.000000 0.036743
#
#
# Mechanical properties :
#
#
# Convention : Reuss Voigt Hill
#
# Bulk Modulus (GPa) = 46.13996 47.71645 46.92820
# Shear Modulus (GPa) = 21.05171 22.83453 21.94312
#
# Velocity S-wave (km/s) = 3.53316 3.67973 3.60719
# Velocity P-wave (km/s) = 6.63357 6.80798 6.72134
#
# Compressibility (1/GPa) = 0.02167319
#
# Stress axis : x y z
#
# Youngs Moduli (GPa) = 37.60083 37.60000 66.30202
#
# Poissons Ratio (x) = 0.45802 0.36860
# Poissons Ratio (y) = 0.45803 0.36860
# Poissons Ratio (z) = 0.20904 0.20903
#
# Static dielectric constant tensor:
#      x y z
#    x 3.129410 0.000000 0.000000 
#    y 0.000000 3.129410 0.000000 
#    z 0.000000 0.000000 3.190440 
# 
# 
# High freq. dielectric constant tensor:
#      x y z
#    x 1.633240 0.000000 0.000000 
#    y 0.000000 1.633240 0.000000 
#    z 0.000000 0.000000 1.651510 
# 
# From -- ./inp_files/6613.got.cif
#   From: 2010.03.12/outbox.cif.g09.slc.cpg/sg121_4_cif.got.tgz:6613.got - 2010.04.06 16:06:48.
