data_PCOD8311631
_publ_section_title
;
Structure prediction by ZEFSAII (Michael W. Deem and Ramdas Pophale) SiO2 
 PCOD8311631
Probable space group: I -4 2 M
;
_chemical_formula_sum "Si O2"
_cell_formula_units_Z 44
_cell_length_a 10.484225
_cell_length_b 10.484225
_cell_length_c 22.137575
_cell_angle_alpha 90.000000
_cell_angle_beta 90.000000
_cell_angle_gamma 90.000000
_cell_volume 2433.339528
_symmetry_space_group_name_H-M "I -4 2 M"
_symmetry_group_IT_number 121
_symmetry_cell_setting 'tetragonal'
loop_
_space_group_symop_operation_xyz
x,y,z
y,-x,-z
-x,-y,z
-y,x,-z
x,-y,-z
-x,y,-z
-y,-x,z
y,x,z
1/2+x,1/2+y,1/2+z
1/2+y,1/2-x,1/2-z
1/2-x,1/2-y,1/2+z
1/2-y,1/2+x,1/2-z
1/2+x,1/2-y,1/2-z
1/2-x,1/2+y,1/2-z
1/2-y,1/2-x,1/2+z
1/2+y,1/2+x,1/2+z
loop_
_atom_site_type_symbol
_atom_site_label
_atom_site_fract_x
_atom_site_fract_y
_atom_site_fract_z
Si Si1 0.206994 0.000000 0.000000
Si Si2 0.849866 0.491871 0.378604
Si Si3 0.695131 0.695131 0.325306
Si Si4 0.000000 0.000000 0.209785
Si Si5 0.695762 0.304239 0.292933
O O1 0.295756 0.960240 0.944394
O O2 0.119965 0.880036 0.018881
O O3 0.817079 0.636636 0.358282
O O4 0.796214 0.384839 0.332650
O O5 0.000000 0.500000 0.379992
O O6 0.586533 0.586533 0.333266
O O7 0.724535 0.724535 0.255451
O O8 0.097987 0.097987 0.243473
#
# Coordination Sequence:
#
# PCOD8311631 Si02
#       5
#     8  16   8   4   8
#     4  11  21  40  66  86 113 149 204 256 296 339
#     4  11  23  38  61  87 117 157 194 247 295 346
#     4  10  22  37  56  89 120 152 193 235 291 357
#     4   8  20  36  56  73 120 149 192 232 272 326
#     4  10  22  37  56  89 120 152 193 235 291 357
#
# _framework density 18.082146000000002
#
# number of rings (size 3 to 8) (size 9 to 14) (size 15 to 20)
#    0.000    1.636    3.636    0.545   10.182    0.000 
#    0.000    0.000    0.000    0.000    0.000    2.545 
#    0.000    0.000    0.000    0.000    0.000    0.000 
#
# Total GULP energy -272608.162967 kJ/mol
# GULP energy per Si atom -12391.280135 kJ/mol
# Density = 1.804099 g / cm^3
# Si number density = 18.082146 Si / 1000 Ang^3
#
#
#
# Elastic Constant Matrix: (Units=GPa)
#
#
# Indices 1 2 3 4 5 6 
#
# 1 118.7536 49.1670 35.8608 0.0000 0.0000 0.0000
# 2 49.1670 118.7534 35.8600 0.0000 0.0000 0.0000
# 3 35.8608 35.8600 94.9107 0.0000 0.0000 0.0000
# 4 0.0000 0.0000 0.0000 23.5434 0.0000 0.0000
# 5 0.0000 0.0000 0.0000 0.0000 23.5432 0.0000
# 6 0.0000 0.0000 0.0000 0.0000 0.0000 25.2864
#
#
#
# Elastic Compliance Matrix: (Units=1/GPa)
#
#
# Indices 1 2 3 4 5 6 
#
# 1 0.010736 -0.003635 -0.002683 0.000000 0.000000 0.000000
# 2 -0.003635 0.010736 -0.002683 0.000000 0.000000 0.000000
# 3 -0.002683 -0.002683 0.012564 0.000000 0.000000 0.000000
# 4 0.000000 0.000000 0.000000 0.042475 0.000000 0.000000
# 5 0.000000 0.000000 0.000000 0.000000 0.042475 0.000000
# 6 0.000000 0.000000 0.000000 0.000000 0.000000 0.039547
#
#
# Mechanical properties :
#
#
# Convention : Reuss Voigt Hill
#
# Bulk Modulus (GPa) = 62.36817 63.79926 63.08371
# Shear Modulus (GPa) = 27.49087 28.57659 28.03373
#
# Velocity S-wave (km/s) = 3.90337 3.97971 3.94172
# Velocity P-wave (km/s) = 7.40821 7.51512 7.46186
#
# Compressibility (1/GPa) = 0.01603382
#
# Stress axis : x y z
#
# Youngs Moduli (GPa) = 93.14541 93.14573 79.59426
#
# Poissons Ratio (x) = 0.33856 0.21356
# Poissons Ratio (y) = 0.33856 0.21355
# Poissons Ratio (z) = 0.24992 0.24991
#
# Static dielectric constant tensor:
#      x y z
#    x 3.482720 0.000000 0.000000 
#    y 0.000000 3.482720 0.000000 
#    z 0.000000 0.000000 3.160980 
# 
# 
# High freq. dielectric constant tensor:
#      x y z
#    x 1.704270 0.000000 0.000000 
#    y 0.000000 1.704270 0.000000 
#    z 0.000000 0.000000 1.687110 
# 
# From -- ./inp_files/4961.got.cif
#   From: 2010.03.12/outbox.cif.g09.slc.cpg/sg121_3_cif.got.tgz:4961.got - 2010.04.06 16:06:48.
