data_PCOD8311761
_publ_section_title
;
Structure prediction by ZEFSAII (Michael W. Deem and Ramdas Pophale) SiO2 
 PCOD8311761
Probable space group: I -4 2 D
;
_chemical_formula_sum "Si O2"
_cell_formula_units_Z 96
_cell_length_a 25.344569
_cell_length_b 25.344569
_cell_length_c 8.764053
_cell_angle_alpha 90.000000
_cell_angle_beta 90.000000
_cell_angle_gamma 90.000000
_cell_volume 5629.564711
_symmetry_space_group_name_H-M "I -4 2 D"
_symmetry_group_IT_number 122
_symmetry_cell_setting 'tetragonal'
loop_
_space_group_symop_operation_xyz
x,y,z
y,-x,-z
-x,-y,z
-y,x,-z
x,1/2-y,1/4-z
-x,1/2+y,1/4-z
-y,1/2-x,1/4+z
y,1/2+x,1/4+z
1/2+x,1/2+y,1/2+z
1/2+y,1/2-x,1/2-z
1/2-x,1/2-y,1/2+z
1/2-y,1/2+x,1/2-z
1/2+x,-y,3/4-z
1/2-x,y,3/4-z
1/2-y,-x,3/4+z
1/2+y,x,3/4+z
loop_
_atom_site_type_symbol
_atom_site_label
_atom_site_fract_x
_atom_site_fract_y
_atom_site_fract_z
Si Si1 0.238047 0.993205 0.195999
Si Si2 0.927146 0.203777 0.026907
Si Si3 0.478545 0.121490 0.932030
Si Si4 0.582892 0.490978 0.001219
Si Si5 0.595124 0.097306 0.819880
Si Si6 0.165148 0.980354 0.750125
O O1 0.250000 0.996277 0.375000
O O2 0.183081 0.963984 0.159957
O O3 0.231451 0.052713 0.129382
O O4 0.283969 0.963754 0.100410
O O5 0.898917 0.250000 0.125000
O O6 0.978426 0.179875 0.117182
O O7 0.887028 0.155763 0.990314
O O8 0.539258 0.106662 0.901035
O O9 0.441389 0.086456 0.823910
O O10 0.465139 0.111700 0.107594
O O11 0.542178 0.447417 0.062357
O O12 0.622723 0.506843 0.136121
O O13 0.639580 0.073017 0.930642
#
# Coordination Sequence:
#
# PCOD8311761 Si02
#       6
#    16  16  16  16  16  16
#     4  10  19  33  52  70 101 138 179 223 257 298
#     4   9  20  36  52  73 103 141 177 217 262 310
#     4  11  22  34  49  75 107 141 179 216 262 309
#     4  11  22  30  44  71 109 145 176 211 257 310
#     4  11  20  34  51  74 105 142 177 211 258 323
#     4  11  19  33  50  71 102 142 184 214 259 308
#
# _framework density 17.052828000000002
#
# number of rings (size 3 to 8) (size 9 to 14) (size 15 to 20)
#    0.000    1.500    6.667    1.000    0.000    0.333 
#    0.000    0.000    0.000    0.000    0.000    0.000 
#    5.000    1.667    0.000    0.000    0.000    0.000 
#
# Total GULP energy -594743.208435 kJ/mol
# GULP energy per Si atom -12390.483509 kJ/mol
# Density = 1.701401 g / cm^3
# Si number density = 17.052828 Si / 1000 Ang^3
#
#
#
# Elastic Constant Matrix: (Units=GPa)
#
#
# Indices 1 2 3 4 5 6 
#
# 1 74.9383 34.6208 31.4794 0.0000 0.0000 0.0000
# 2 34.6208 74.9383 31.4794 0.0000 0.0000 0.0000
# 3 31.4794 31.4794 106.7769 0.0000 0.0000 0.0000
# 4 0.0000 0.0000 0.0000 28.0639 0.0000 0.0000
# 5 0.0000 0.0000 0.0000 0.0000 28.0639 0.0000
# 6 0.0000 0.0000 0.0000 0.0000 0.0000 13.2063
#
#
#
# Elastic Compliance Matrix: (Units=1/GPa)
#
#
# Indices 1 2 3 4 5 6 
#
# 1 0.017896 -0.006907 -0.003240 0.000000 0.000000 0.000000
# 2 -0.006907 0.017896 -0.003240 0.000000 0.000000 0.000000
# 3 -0.003240 -0.003240 0.011276 0.000000 0.000000 0.000000
# 4 0.000000 0.000000 0.000000 0.035633 0.000000 0.000000
# 5 0.000000 0.000000 0.000000 0.000000 0.035633 0.000000
# 6 0.000000 0.000000 0.000000 0.000000 0.000000 0.075721
#
#
# Mechanical properties :
#
#
# Convention : Reuss Voigt Hill
#
# Bulk Modulus (GPa) = 49.27337 50.20142 49.73740
# Shear Modulus (GPa) = 21.96903 24.47175 23.22039
#
# Velocity S-wave (km/s) = 3.59317 3.79232 3.69409
# Velocity P-wave (km/s) = 6.79498 6.97698 6.88658
#
# Compressibility (1/GPa) = 0.02029494
#
# Stress axis : x y z
#
# Youngs Moduli (GPa) = 55.87784 55.87784 88.68703
#
# Poissons Ratio (x) = 0.38594 0.28733
# Poissons Ratio (y) = 0.38594 0.28733
# Poissons Ratio (z) = 0.18103 0.18103
#
# Static dielectric constant tensor:
#      x y z
#    x 3.148580 0.000000 0.000000 
#    y 0.000000 3.148580 0.000000 
#    z 0.000000 0.000000 3.407230 
# 
# 
# High freq. dielectric constant tensor:
#      x y z
#    x 1.628990 0.000000 0.000000 
#    y 0.000000 1.628990 0.000000 
#    z 0.000000 0.000000 1.684790 
# 
# From -- ./inp_files/2905.got.cif
#   From: 2010.03.12/outbox.cif.g09.slc.cpg/sg122_2_cif.got.tgz:2905.got - 2010.04.06 16:17:16.
