data_PCOD8311409
_publ_section_title
;
Structure prediction by ZEFSAII (Michael W. Deem and Ramdas Pophale) SiO2 
 PCOD8311409
Probable space group: I -4 2 M
;
_chemical_formula_sum "Si O2"
_cell_formula_units_Z 88
_cell_length_a 14.562909
_cell_length_b 14.562909
_cell_length_c 20.798987
_cell_angle_alpha 90.000000
_cell_angle_beta 90.000000
_cell_angle_gamma 90.000000
_cell_volume 4411.014190
_symmetry_space_group_name_H-M "I -4 2 M"
_symmetry_group_IT_number 121
_symmetry_cell_setting 'tetragonal'
loop_
_space_group_symop_operation_xyz
x,y,z
y,-x,-z
-x,-y,z
-y,x,-z
x,-y,-z
-x,y,-z
-y,-x,z
y,x,z
1/2+x,1/2+y,1/2+z
1/2+y,1/2-x,1/2-z
1/2-x,1/2-y,1/2+z
1/2-y,1/2+x,1/2-z
1/2+x,1/2-y,1/2-z
1/2-x,1/2+y,1/2-z
1/2-y,1/2-x,1/2+z
1/2+y,1/2+x,1/2+z
loop_
_atom_site_type_symbol
_atom_site_label
_atom_site_fract_x
_atom_site_fract_y
_atom_site_fract_z
Si Si1 0.331306 0.814852 0.577465
Si Si2 0.908251 0.757725 0.797524
Si Si3 0.000000 0.726801 0.000000
Si Si4 0.089163 0.237659 0.125985
Si Si5 0.379489 0.770243 0.843344
Si Si6 0.035230 0.818936 0.570006
O O1 0.280107 0.719894 0.556846
O O2 0.356026 0.810535 0.653105
O O3 0.421856 0.833242 0.535084
O O4 0.267803 0.899842 0.562686
O O5 0.855308 0.855308 0.793496
O O6 0.916934 0.709108 0.728146
O O7 0.011394 0.773229 0.820692
O O8 0.047848 0.786751 0.944228
O O9 0.163424 0.163424 0.145399
O O10 0.134454 0.341214 0.125332
O O11 0.290896 0.709105 0.835071
O O12 0.452674 0.712612 0.884582
O O13 0.093326 0.906675 0.597842
O O14 0.000000 0.847519 0.500000
#
# Coordination Sequence:
#
# PCOD8311409 Si02
#       6
#    16  16   8  16  16  16
#     4   9  19  36  58  82 113 154 194 238 301 366
#     4   9  20  38  59  86 117 151 198 248 297 362
#     4  10  18  34  57  83 114 148 192 238 288 355
#     4  10  21  37  60  86 120 159 196 243 304 365
#     4  10  22  39  60  86 117 154 200 247 301 366
#     4  11  23  38  59  84 117 158 203 252 305 360
#
# _framework density 19.950061000000002
#
# number of rings (size 3 to 8) (size 9 to 14) (size 15 to 20)
#    0.000    2.182    0.000    2.182    2.545    6.000 
#    0.000   10.455    0.000    3.545    0.000    0.000 
#    0.000    0.000    0.000    0.000    0.000    0.000 
#
# Total GULP energy -545266.514306 kJ/mol
# GULP energy per Si atom -12392.420780 kJ/mol
# Density = 1.990465 g / cm^3
# Si number density = 19.950061 Si / 1000 Ang^3
#
#
#
# Elastic Constant Matrix: (Units=GPa)
#
#
# Indices 1 2 3 4 5 6 
#
# 1 81.7127 39.9732 38.4085 0.0000 0.0000 0.0000
# 2 39.9732 81.7164 38.4082 0.0000 0.0000 0.0000
# 3 38.4085 38.4082 121.9262 0.0000 0.0000 0.0000
# 4 0.0000 0.0000 0.0000 24.6863 0.0000 0.0000
# 5 0.0000 0.0000 0.0000 0.0000 24.6866 0.0000
# 6 0.0000 0.0000 0.0000 0.0000 0.0000 18.8909
#
#
#
# Elastic Compliance Matrix: (Units=1/GPa)
#
#
# Indices 1 2 3 4 5 6 
#
# 1 0.017108 -0.006850 -0.003231 0.000000 0.000000 0.000000
# 2 -0.006850 0.017107 -0.003231 0.000000 0.000000 0.000000
# 3 -0.003231 -0.003231 0.010237 0.000000 0.000000 0.000000
# 4 0.000000 0.000000 0.000000 0.040508 0.000000 0.000000
# 5 0.000000 0.000000 0.000000 0.000000 0.040508 0.000000
# 6 0.000000 0.000000 0.000000 0.000000 0.000000 0.052936
#
#
# Mechanical properties :
#
#
# Convention : Reuss Voigt Hill
#
# Bulk Modulus (GPa) = 56.09317 57.65945 56.87631
# Shear Modulus (GPa) = 23.69998 24.89046 24.29522
#
# Velocity S-wave (km/s) = 3.45043 3.53602 3.49349
# Velocity P-wave (km/s) = 6.63715 6.75544 6.69655
#
# Compressibility (1/GPa) = 0.01782748
#
# Stress axis : x y z
#
# Youngs Moduli (GPa) = 58.45294 58.45626 97.68048
#
# Poissons Ratio (x) = 0.40041 0.31565
# Poissons Ratio (y) = 0.40039 0.31561
# Poissons Ratio (z) = 0.18889 0.18888
#
# Static dielectric constant tensor:
#      x y z
#    x 3.673920 0.000000 0.000000 
#    y 0.000000 3.673920 0.000000 
#    z 0.000000 0.000000 3.882160 
# 
# 
# High freq. dielectric constant tensor:
#      x y z
#    x 1.770520 0.000000 0.000000 
#    y 0.000000 1.770520 0.000000 
#    z 0.000000 0.000000 1.786450 
# 
# From -- ./inp_files/6334.got.cif
#   From: 2010.03.12/outbox.cif.g09.slc.cpg/sg121_4_cif.got.tgz:6334.got - 2010.04.06 16:06:48.
