data_PCOD8311494
_publ_section_title
;
Structure prediction by ZEFSAII (Michael W. Deem and Ramdas Pophale) SiO2 
 PCOD8311494
Probable space group: I -4 2 M
;
_chemical_formula_sum "Si O2"
_cell_formula_units_Z 80
_cell_length_a 12.084421
_cell_length_b 12.084421
_cell_length_c 28.783349
_cell_angle_alpha 90.000000
_cell_angle_beta 90.000000
_cell_angle_gamma 90.000000
_cell_volume 4203.325451
_symmetry_space_group_name_H-M "I -4 2 M"
_symmetry_group_IT_number 121
_symmetry_cell_setting 'tetragonal'
loop_
_space_group_symop_operation_xyz
x,y,z
y,-x,-z
-x,-y,z
-y,x,-z
x,-y,-z
-x,y,-z
-y,-x,z
y,x,z
1/2+x,1/2+y,1/2+z
1/2+y,1/2-x,1/2-z
1/2-x,1/2-y,1/2+z
1/2-y,1/2+x,1/2-z
1/2+x,1/2-y,1/2-z
1/2-x,1/2+y,1/2-z
1/2-y,1/2-x,1/2+z
1/2+y,1/2+x,1/2+z
loop_
_atom_site_type_symbol
_atom_site_label
_atom_site_fract_x
_atom_site_fract_y
_atom_site_fract_z
Si Si1 0.749067 0.073213 0.956506
Si Si2 0.594517 0.766521 0.870951
Si Si3 0.569160 0.748723 0.045405
Si Si4 0.737844 0.445861 0.634384
Si Si5 0.593004 0.406997 0.305369
Si Si6 0.407697 0.407697 0.799244
O O1 0.853249 0.146752 0.942017
O O2 0.643396 0.147274 0.969116
O O3 0.722087 0.994619 0.914028
O O4 0.782073 0.000000 0.000000
O O5 0.690693 0.690693 0.894655
O O6 0.502845 0.786412 0.910195
O O7 0.652746 0.877411 0.850149
O O8 0.545290 0.700917 0.826232
O O9 0.643126 0.643126 0.060068
O O10 0.500000 0.715667 0.000000
O O11 0.631992 0.368009 0.627359
O O12 0.703599 0.544565 0.669751
O O13 0.500000 0.500000 0.304383
O O14 0.625945 0.374056 0.252998
O O15 0.500000 0.500000 0.799636
#
# Coordination Sequence:
#
# PCOD8311494 Si02
#       6
#    16  16  16  16   8   8
#     4  11  23  36  54  81 117 154 198 242 293 361
#     4   9  20  35  58  84 114 145 193 243 287 343
#     4  11  23  37  54  82 115 160 200 239 291 358
#     4  10  19  36  58  85 112 147 191 240 296 352
#     4   9  18  34  62  83 111 151 193 240 303 360
#     4   9  18  36  60  86 113 151 195 243 291 352
#
# _framework density 19.032547999999998
#
# number of rings (size 3 to 8) (size 9 to 14) (size 15 to 20)
#    0.600    1.400    1.000    3.000    0.000    8.000 
#    0.000    2.000    0.000    0.000    0.000    0.000 
#    0.000    0.000    0.000    0.000    0.000    0.000 
#
# Total GULP energy -495779.744956 kJ/mol
# GULP energy per Si atom -12394.493624 kJ/mol
# Density = 1.898923 g / cm^3
# Si number density = 19.032548 Si / 1000 Ang^3
#
#
#
# Elastic Constant Matrix: (Units=GPa)
#
#
# Indices 1 2 3 4 5 6 
#
# 1 77.5965 33.7975 33.4866 0.0000 0.0000 0.0000
# 2 33.7975 77.5957 33.4863 0.0000 0.0000 0.0000
# 3 33.4866 33.4863 122.0838 0.0000 0.0000 0.0000
# 4 0.0000 0.0000 0.0000 12.1058 0.0000 0.0000
# 5 0.0000 0.0000 0.0000 0.0000 12.1060 0.0000
# 6 0.0000 0.0000 0.0000 0.0000 0.0000 28.2036
#
#
#
# Elastic Compliance Matrix: (Units=1/GPa)
#
#
# Indices 1 2 3 4 5 6 
#
# 1 0.016791 -0.006041 -0.002949 0.000000 0.000000 0.000000
# 2 -0.006041 0.016791 -0.002949 0.000000 0.000000 0.000000
# 3 -0.002949 -0.002949 0.009809 0.000000 0.000000 0.000000
# 4 0.000000 0.000000 0.000000 0.082605 0.000000 0.000000
# 5 0.000000 0.000000 0.000000 0.000000 0.082604 0.000000
# 6 0.000000 0.000000 0.000000 0.000000 0.000000 0.035456
#
#
# Mechanical properties :
#
#
# Convention : Reuss Voigt Hill
#
# Bulk Modulus (GPa) = 51.24497 53.20189 52.22343
# Shear Modulus (GPa) = 18.21915 22.25011 20.23463
#
# Velocity S-wave (km/s) = 3.09732 3.42286 3.26415
# Velocity P-wave (km/s) = 6.30671 6.60568 6.45793
#
# Compressibility (1/GPa) = 0.01951411
#
# Stress axis : x y z
#
# Youngs Moduli (GPa) = 59.55643 59.55589 101.95076
#
# Poissons Ratio (x) = 0.35977 0.30061
# Poissons Ratio (y) = 0.35977 0.30061
# Poissons Ratio (z) = 0.17561 0.17561
#
# Static dielectric constant tensor:
#      x y z
#    x 3.447650 0.000000 0.000000 
#    y 0.000000 3.447650 0.000000 
#    z 0.000000 0.000000 3.388750 
# 
# 
# High freq. dielectric constant tensor:
#      x y z
#    x 1.734400 0.000000 0.000000 
#    y 0.000000 1.734400 0.000000 
#    z 0.000000 0.000000 1.728140 
# 
# From -- ./inp_files/8102.got.cif
#   From: 2010.03.12/outbox.cif.g09.slc.cpg/sg121_5_cif.got.tgz:8102.got - 2010.04.06 16:06:48.
