data_PCOD8311637
_publ_section_title
;
Structure prediction by ZEFSAII (Michael W. Deem and Ramdas Pophale) SiO2 
 PCOD8311637
Probable space group: I -4 2 M
;
_chemical_formula_sum "Si O2"
_cell_formula_units_Z 64
_cell_length_a 14.022970
_cell_length_b 14.022970
_cell_length_c 16.664137
_cell_angle_alpha 90.000000
_cell_angle_beta 90.000000
_cell_angle_gamma 90.000000
_cell_volume 3276.897351
_symmetry_space_group_name_H-M "I -4 2 M"
_symmetry_group_IT_number 121
_symmetry_cell_setting 'tetragonal'
loop_
_space_group_symop_operation_xyz
x,y,z
y,-x,-z
-x,-y,z
-y,x,-z
x,-y,-z
-x,y,-z
-y,-x,z
y,x,z
1/2+x,1/2+y,1/2+z
1/2+y,1/2-x,1/2-z
1/2-x,1/2-y,1/2+z
1/2-y,1/2+x,1/2-z
1/2+x,1/2-y,1/2-z
1/2-x,1/2+y,1/2-z
1/2-y,1/2-x,1/2+z
1/2+y,1/2+x,1/2+z
loop_
_atom_site_type_symbol
_atom_site_label
_atom_site_fract_x
_atom_site_fract_y
_atom_site_fract_z
Si Si1 0.602758 0.021789 0.591846
Si Si2 0.150939 0.699569 0.345829
Si Si3 0.279991 0.130215 0.838142
Si Si4 0.296346 0.452012 0.587401
O O1 0.626679 0.131798 0.601950
O O2 0.500000 0.000000 0.634175
O O3 0.592682 0.000000 0.500000
O O4 0.689224 0.958212 0.626914
O O5 0.194921 0.805080 0.362683
O O6 0.150175 0.681280 0.250777
O O7 0.212086 0.622315 0.394875
O O8 0.217795 0.217795 0.869389
O O9 0.214757 0.034777 0.845595
O O10 0.284520 0.500000 0.500000
O O11 0.398868 0.398868 0.594739
#
# Coordination Sequence:
#
# PCOD8311637 Si02
#       4
#    16  16  16  16
#     4  11  22  36  58  87 115 152 196 238 295 353
#     4  10  22  39  60  86 117 156 203 250 300 358
#     4  11  23  38  59  88 121 161 202 247 301 362
#     4  11  22  38  61  91 126 162 199 249 317 383
#
# _framework density 19.530671000000002
#
# number of rings (size 3 to 8) (size 9 to 14) (size 15 to 20)
#    0.000    1.250    2.500    3.750    0.000    4.750 
#    0.000    0.000    0.000    2.250    0.000    1.750 
#    0.000    0.000    0.000    0.000    0.000    0.000 
#
# Total GULP energy -396661.347769 kJ/mol
# GULP energy per Si atom -12395.667118 kJ/mol
# Density = 1.948622 g / cm^3
# Si number density = 19.530671 Si / 1000 Ang^3
#
#
#
# Elastic Constant Matrix: (Units=GPa)
#
#
# Indices 1 2 3 4 5 6 
#
# 1 120.5147 72.4847 44.4782 0.0000 0.0000 0.0000
# 2 72.4847 120.5135 44.4775 0.0000 0.0000 0.0000
# 3 44.4782 44.4775 69.7545 0.0000 0.0000 0.0000
# 4 0.0000 0.0000 0.0000 22.7476 0.0000 0.0000
# 5 0.0000 0.0000 0.0000 0.0000 22.7477 0.0000
# 6 0.0000 0.0000 0.0000 0.0000 0.0000 18.7093
#
#
#
# Elastic Compliance Matrix: (Units=1/GPa)
#
#
# Indices 1 2 3 4 5 6 
#
# 1 0.014079 -0.006741 -0.004679 0.000000 0.000000 0.000000
# 2 -0.006741 0.014079 -0.004679 0.000000 0.000000 0.000000
# 3 -0.004679 -0.004679 0.020303 0.000000 0.000000 0.000000
# 4 0.000000 0.000000 0.000000 0.043961 0.000000 0.000000
# 5 0.000000 0.000000 0.000000 0.000000 0.043961 0.000000
# 6 0.000000 0.000000 0.000000 0.000000 0.000000 0.053449
#
#
# Mechanical properties :
#
#
# Convention : Reuss Voigt Hill
#
# Bulk Modulus (GPa) = 61.48901 70.40708 65.94805
# Shear Modulus (GPa) = 21.98272 22.79707 22.38990
#
# Velocity S-wave (km/s) = 3.35856 3.42020 3.38952
# Velocity P-wave (km/s) = 6.82580 7.19200 7.01129
#
# Compressibility (1/GPa) = 0.01626307
#
# Stress axis : x y z
#
# Youngs Moduli (GPa) = 71.02654 71.02632 49.25408
#
# Poissons Ratio (x) = 0.47881 0.23046
# Poissons Ratio (y) = 0.47881 0.23045
# Poissons Ratio (z) = 0.33234 0.33232
#
# Static dielectric constant tensor:
#      x y z
#    x 3.835350 0.000000 0.000000 
#    y 0.000000 3.835350 0.000000 
#    z 0.000000 0.000000 3.551800 
# 
# 
# High freq. dielectric constant tensor:
#      x y z
#    x 1.759670 0.000000 0.000000 
#    y 0.000000 1.759670 0.000000 
#    z 0.000000 0.000000 1.760410 
# 
# From -- ./inp_files/4053.got.cif
#   From: 2010.03.12/outbox.cif.g09.slc.cpg/sg121_3_cif.got.tgz:4053.got - 2010.04.06 16:06:48.
