data_PCOD8311148
_publ_section_title
;
Structure prediction by ZEFSAII (Michael W. Deem and Ramdas Pophale) SiO2 
 PCOD8311148
Probable space group: I -4 C 2
;
_chemical_formula_sum "Si O2"
_cell_formula_units_Z 104
_cell_length_a 17.380975
_cell_length_b 17.380975
_cell_length_c 16.763208
_cell_angle_alpha 90.000000
_cell_angle_beta 90.000000
_cell_angle_gamma 90.000000
_cell_volume 5064.136504
_symmetry_space_group_name_H-M "I -4 C 2"
_symmetry_group_IT_number 120
_symmetry_cell_setting 'tetragonal'
loop_
_space_group_symop_operation_xyz
x,y,z
y,-x,-z
-x,-y,z
-y,x,-z
y,x,1/2-z
-y,-x,1/2-z
-x,y,1/2+z
x,-y,1/2+z
1/2+x,1/2+y,1/2+z
1/2+y,1/2-x,1/2-z
1/2-x,1/2-y,1/2+z
1/2-y,1/2+x,1/2-z
1/2+y,1/2+x,-z
1/2-y,1/2-x,-z
1/2-x,1/2+y,z
1/2+x,1/2-y,z
loop_
_atom_site_type_symbol
_atom_site_label
_atom_site_fract_x
_atom_site_fract_y
_atom_site_fract_z
Si Si1 0.907128 0.907128 0.250000
Si Si2 0.703476 0.095557 0.600218
Si Si3 0.464309 0.120715 0.756870
Si Si4 0.549557 0.738538 0.646714
Si Si5 0.863105 0.033821 0.600905
Si Si6 0.888667 0.738950 0.573281
Si Si7 0.108357 0.835790 0.495507
O O1 0.919566 0.825065 0.207461
O O2 0.972712 0.914956 0.318835
O O3 0.659056 0.034422 0.655419
O O4 0.793462 0.093116 0.623938
O O5 0.697302 0.075231 0.505675
O O6 0.666971 0.179591 0.619087
O O7 0.550387 0.094546 0.739556
O O8 0.436383 0.178562 0.687038
O O9 0.457727 0.729711 0.628595
O O10 0.595815 0.729963 0.562776
O O11 0.908752 0.078315 0.531005
O O12 0.826930 0.953277 0.575332
O O13 0.832503 0.807601 0.543708
#
# Coordination Sequence:
#
# PCOD8311148 Si02
#       7
#     8  16  16  16  16  16  16
#     4  10  22  36  65  88 128 168 214 261 338 388
#     4  10  19  40  66  88 125 174 208 274 324 387
#     4  11  23  40  67  97 131 170 218 273 337 389
#     4  11  20  40  65  95 128 173 218 270 327 401
#     4  10  20  38  62  88 127 167 217 266 324 390
#     4  10  21  39  68  89 127 174 218 265 333 388
#     4  10  20  38  63  92 125 171 218 267 321 396
#
# _framework density 20.536572
#
# number of rings (size 3 to 8) (size 9 to 14) (size 15 to 20)
#    0.000    1.692    6.154    0.000    0.000    0.308 
#    0.000   10.000    3.385    0.000    0.000    0.000 
#    0.000    0.000    0.000    0.000    0.000    0.000 
#
# Total GULP energy -644244.321769 kJ/mol
# GULP energy per Si atom -12389.313880 kJ/mol
# Density = 2.048983 g / cm^3
# Si number density = 20.536572 Si / 1000 Ang^3
#
#
#
# Elastic Constant Matrix: (Units=GPa)
#
#
# Indices 1 2 3 4 5 6 
#
# 1 85.6455 34.6055 38.3214 0.0000 0.0000 0.0000
# 2 34.6055 85.6455 38.3214 0.0000 0.0000 0.0000
# 3 38.3214 38.3214 95.7512 0.0000 0.0000 0.0000
# 4 0.0000 0.0000 0.0000 28.9197 0.0000 0.0000
# 5 0.0000 0.0000 0.0000 0.0000 28.9198 0.0000
# 6 0.0000 0.0000 0.0000 0.0000 0.0000 28.2510
#
#
#
# Elastic Compliance Matrix: (Units=1/GPa)
#
#
# Indices 1 2 3 4 5 6 
#
# 1 0.015378 -0.004214 -0.004468 0.000000 0.000000 0.000000
# 2 -0.004214 0.015378 -0.004468 0.000000 0.000000 0.000000
# 3 -0.004468 -0.004468 0.014020 0.000000 0.000000 0.000000
# 4 0.000000 0.000000 0.000000 0.034578 0.000000 0.000000
# 5 0.000000 0.000000 0.000000 0.000000 0.034578 0.000000
# 6 0.000000 0.000000 0.000000 0.000000 0.000000 0.035397
#
#
# Mechanical properties :
#
#
# Convention : Reuss Voigt Hill
#
# Bulk Modulus (GPa) = 54.12529 54.39319 54.25924
# Shear Modulus (GPa) = 27.50444 27.60436 27.55440
#
# Velocity S-wave (km/s) = 3.66360 3.67025 3.66693
# Velocity P-wave (km/s) = 6.65648 6.67117 6.66383
#
# Compressibility (1/GPa) = 0.01847565
#
# Stress axis : x y z
#
# Youngs Moduli (GPa) = 65.02783 65.02783 71.32680
#
# Poissons Ratio (x) = 0.27406 0.31868
# Poissons Ratio (y) = 0.27406 0.31868
# Poissons Ratio (z) = 0.29054 0.29054
#
# Static dielectric constant tensor:
#      x y z
#    x 3.616530 0.000000 0.000000 
#    y 0.000000 3.616530 0.000000 
#    z 0.000000 0.000000 3.981410 
# 
# 
# High freq. dielectric constant tensor:
#      x y z
#    x 1.787100 0.000000 0.000000 
#    y 0.000000 1.787100 0.000000 
#    z 0.000000 0.000000 1.810170 
# 
# From -- ./inp_files/4526.got.cif
#   From: 2010.03.12/outbox.cif.g09.slc.cpg/sg120_3_cif.got.tgz:4526.got - 2010.04.06 16:00:44.
