data_PCOD8311497
_publ_section_title
;
Structure prediction by ZEFSAII (Michael W. Deem and Ramdas Pophale) SiO2 
 PCOD8311497
Probable space group: I -4 2 M
;
_chemical_formula_sum "Si O2"
_cell_formula_units_Z 112
_cell_length_a 17.219178
_cell_length_b 17.219178
_cell_length_c 21.825483
_cell_angle_alpha 90.000000
_cell_angle_beta 90.000000
_cell_angle_gamma 90.000000
_cell_volume 6471.257696
_symmetry_space_group_name_H-M "I -4 2 M"
_symmetry_group_IT_number 121
_symmetry_cell_setting 'tetragonal'
loop_
_space_group_symop_operation_xyz
x,y,z
y,-x,-z
-x,-y,z
-y,x,-z
x,-y,-z
-x,y,-z
-y,-x,z
y,x,z
1/2+x,1/2+y,1/2+z
1/2+y,1/2-x,1/2-z
1/2-x,1/2-y,1/2+z
1/2-y,1/2+x,1/2-z
1/2+x,1/2-y,1/2-z
1/2-x,1/2+y,1/2-z
1/2-y,1/2-x,1/2+z
1/2+y,1/2+x,1/2+z
loop_
_atom_site_type_symbol
_atom_site_label
_atom_site_fract_x
_atom_site_fract_y
_atom_site_fract_z
Si Si1 0.416543 0.913219 0.072306
Si Si2 0.587672 0.910226 0.571349
Si Si3 0.280941 0.404392 0.253605
Si Si4 0.346788 0.771837 0.616207
Si Si5 0.811985 0.063454 0.811628
Si Si6 0.813620 0.313085 0.841220
Si Si7 0.466075 0.340721 0.431949
O O1 0.502982 0.900074 0.097365
O O2 0.363639 0.849213 0.105573
O O3 0.385173 0.999767 0.088390
O O4 0.412155 0.899907 0.000478
O O5 0.650463 0.851844 0.598602
O O6 0.362714 0.362714 0.238799
O O7 0.246341 0.371861 0.315679
O O8 0.297185 0.496063 0.261357
O O9 0.217784 0.382729 0.201823
O O10 0.259563 0.740438 0.604875
O O11 0.405717 0.730503 0.568756
O O12 0.887720 0.112280 0.791530
O O13 0.736652 0.118917 0.808611
O O14 0.826855 0.031950 0.880678
O O15 0.743453 0.256547 0.861169
O O16 0.500000 0.345566 0.500000
O O17 0.420770 0.420770 0.416063
#
# Coordination Sequence:
#
# PCOD8311497 Si02
#       7
#    16  16  16  16  16  16  16
#     4   9  18  31  49  72  98 126 165 204 243 304
#     4   9  18  32  49  70  96 130 162 204 253 291
#     4   9  19  35  49  68 100 134 168 210 255 292
#     4   9  18  30  47  69  97 134 167 203 249 296
#     4  10  20  33  52  76  99 135 178 212 254 310
#     4  10  21  35  52  74 101 132 171 215 258 309
#     4  10  20  30  44  73 111 146 175 207 250 305
#
# _framework density 17.307300000000001
#
# number of rings (size 3 to 8) (size 9 to 14) (size 15 to 20)
#    0.000    2.571    0.000    4.286    4.000    3.571 
#    0.000    0.000    0.000    1.714    0.000    0.000 
#    0.000    0.000    0.000    3.143    0.000    0.000 
#
# Total GULP energy -694113.908375 kJ/mol
# GULP energy per Si atom -12394.891221 kJ/mol
# Density = 1.726791 g / cm^3
# Si number density = 17.307300 Si / 1000 Ang^3
#
#
#
# Elastic Constant Matrix: (Units=GPa)
#
#
# Indices 1 2 3 4 5 6 
#
# 1 100.2186 49.9686 37.0704 0.0000 0.0000 0.0000
# 2 49.9686 100.2179 37.0704 0.0000 0.0000 0.0000
# 3 37.0704 37.0704 41.9190 0.0000 0.0000 0.0000
# 4 0.0000 0.0000 0.0000 26.9402 0.0000 0.0000
# 5 0.0000 0.0000 0.0000 0.0000 26.9404 0.0000
# 6 0.0000 0.0000 0.0000 0.0000 0.0000 28.5626
#
#
#
# Elastic Compliance Matrix: (Units=1/GPa)
#
#
# Indices 1 2 3 4 5 6 
#
# 1 0.015859 -0.004042 -0.010450 0.000000 0.000000 0.000000
# 2 -0.004042 0.015859 -0.010451 0.000000 0.000000 0.000000
# 3 -0.010450 -0.010451 0.042339 0.000000 0.000000 0.000000
# 4 0.000000 0.000000 0.000000 0.037119 0.000000 0.000000
# 5 0.000000 0.000000 0.000000 0.000000 0.037119 0.000000
# 6 0.000000 0.000000 0.000000 0.000000 0.000000 0.035011
#
#
# Mechanical properties :
#
#
# Convention : Reuss Voigt Hill
#
# Bulk Modulus (GPa) = 41.37063 54.50825 47.93944
# Shear Modulus (GPa) = 20.72553 24.37171 22.54862
#
# Velocity S-wave (km/s) = 3.46425 3.75664 3.61340
# Velocity P-wave (km/s) = 6.32114 7.09783 6.72071
#
# Compressibility (1/GPa) = 0.02417174
#
# Stress axis : x y z
#
# Youngs Moduli (GPa) = 63.05604 63.05539 23.61891
#
# Poissons Ratio (x) = 0.25485 0.24683
# Poissons Ratio (y) = 0.25485 0.24683
# Poissons Ratio (z) = 0.65896 0.65896
#
# Static dielectric constant tensor:
#      x y z
#    x 3.408030 0.000000 0.000000 
#    y 0.000000 3.408040 0.000000 
#    z 0.000000 0.000000 2.943470 
# 
# 
# High freq. dielectric constant tensor:
#      x y z
#    x 1.667070 0.000000 0.000000 
#    y 0.000000 1.667070 0.000000 
#    z 0.000000 0.000000 1.641010 
# 
# From -- ./inp_files/6642.got.cif
#   From: 2010.03.12/outbox.cif.g09.slc.cpg/sg121_4_cif.got.tgz:6642.got - 2010.04.06 16:06:48.
