data_PCOD8311160
_publ_section_title
;
Structure prediction by ZEFSAII (Michael W. Deem and Ramdas Pophale) SiO2 
 PCOD8311160
Probable space group: I -4 C 2
;
_chemical_formula_sum "Si O2"
_cell_formula_units_Z 64
_cell_length_a 12.410616
_cell_length_b 12.410616
_cell_length_c 21.708747
_cell_angle_alpha 90.000000
_cell_angle_beta 90.000000
_cell_angle_gamma 90.000000
_cell_volume 3343.654795
_symmetry_space_group_name_H-M "I -4 C 2"
_symmetry_group_IT_number 120
_symmetry_cell_setting 'tetragonal'
loop_
_space_group_symop_operation_xyz
x,y,z
y,-x,-z
-x,-y,z
-y,x,-z
y,x,1/2-z
-y,-x,1/2-z
-x,y,1/2+z
x,-y,1/2+z
1/2+x,1/2+y,1/2+z
1/2+y,1/2-x,1/2-z
1/2-x,1/2-y,1/2+z
1/2-y,1/2+x,1/2-z
1/2+y,1/2+x,-z
1/2-y,1/2-x,-z
1/2-x,1/2+y,z
1/2+x,1/2-y,z
loop_
_atom_site_type_symbol
_atom_site_label
_atom_site_fract_x
_atom_site_fract_y
_atom_site_fract_z
Si Si1 0.719889 0.143699 0.790010
Si Si2 0.721682 0.220106 0.399903
Si Si3 0.116781 0.443419 0.318518
Si Si4 0.886317 0.136004 0.997170
O O1 0.827697 0.172304 0.750000
O O2 0.708567 0.235001 0.842408
O O3 0.614225 0.136175 0.747038
O O4 0.717889 0.027598 0.823241
O O5 0.629835 0.138352 0.375340
O O6 0.802235 0.159968 0.444559
O O7 0.659880 0.316798 0.433684
O O8 0.000000 0.500000 0.323569
O O9 0.013697 0.150234 0.997095
#
# Coordination Sequence:
#
# PCOD8311160 Si02
#       4
#    16  16  16  16
#     4  10  20  34  57  86 122 152 190 240 297 352
#     4  10  23  37  61  89 115 160 202 241 301 349
#     4  11  20  37  59  90 121 152 195 249 294 354
#     4  10  22  42  59  82 122 158 202 249 294 352
#
# _framework density 19.140733999999998
#
# number of rings (size 3 to 8) (size 9 to 14) (size 15 to 20)
#    0.000    1.750    2.500    1.500    3.500    0.000 
#    0.000    1.250    0.000    5.250    0.000    0.000 
#    0.000    0.000    0.000    0.000    0.000    0.000 
#
# Total GULP energy -396540.742054 kJ/mol
# GULP energy per Si atom -12391.898189 kJ/mol
# Density = 1.909717 g / cm^3
# Si number density = 19.140734 Si / 1000 Ang^3
#
#
#
# Elastic Constant Matrix: (Units=GPa)
#
#
# Indices 1 2 3 4 5 6 
#
# 1 98.5785 71.0847 47.0882 0.0000 0.0000 0.0000
# 2 71.0847 98.5790 47.0884 0.0000 0.0000 0.0000
# 3 47.0882 47.0884 100.6576 0.0000 0.0000 0.0000
# 4 0.0000 0.0000 0.0000 18.8307 0.0000 0.0000
# 5 0.0000 0.0000 0.0000 0.0000 18.8306 0.0000
# 6 0.0000 0.0000 0.0000 0.0000 0.0000 34.6559
#
#
#
# Elastic Compliance Matrix: (Units=1/GPa)
#
#
# Indices 1 2 3 4 5 6 
#
# 1 0.022166 -0.014205 -0.003724 0.000000 0.000000 0.000000
# 2 -0.014205 0.022166 -0.003724 0.000000 0.000000 0.000000
# 3 -0.003724 -0.003724 0.013419 0.000000 0.000000 0.000000
# 4 0.000000 0.000000 0.000000 0.053105 0.000000 0.000000
# 5 0.000000 0.000000 0.000000 0.000000 0.053105 0.000000
# 6 0.000000 0.000000 0.000000 0.000000 0.000000 0.028855
#
#
# Mechanical properties :
#
#
# Convention : Reuss Voigt Hill
#
# Bulk Modulus (GPa) = 69.23077 69.81531 69.52304
# Shear Modulus (GPa) = 20.75211 23.30036 22.02624
#
# Velocity S-wave (km/s) = 3.29627 3.49279 3.39595
# Velocity P-wave (km/s) = 7.12285 7.26774 7.19566
#
# Compressibility (1/GPa) = 0.01444444
#
# Stress axis : x y z
#
# Youngs Moduli (GPa) = 45.11319 45.11336 74.51984
#
# Poissons Ratio (x) = 0.64084 0.27754
# Poissons Ratio (y) = 0.64084 0.27754
# Poissons Ratio (z) = 0.16802 0.16802
#
# Static dielectric constant tensor:
#      x y z
#    x 3.662830 0.000000 0.000000 
#    y 0.000000 3.662830 0.000000 
#    z 0.000000 0.000000 3.645330 
# 
# 
# High freq. dielectric constant tensor:
#      x y z
#    x 1.741970 0.000000 0.000000 
#    y 0.000000 1.741970 0.000000 
#    z 0.000000 0.000000 1.758290 
# 
# From -- ./inp_files/4997.got.cif
#   From: 2010.03.12/outbox.cif.g09.slc.cpg/sg120_3_cif.got.tgz:4997.got - 2010.04.06 16:00:44.
