data_PCOD8311614
_publ_section_title
;
Structure prediction by ZEFSAII (Michael W. Deem and Ramdas Pophale) SiO2 
 PCOD8311614
Probable space group: I -4 2 M
;
_chemical_formula_sum "Si O2"
_cell_formula_units_Z 56
_cell_length_a 10.298133
_cell_length_b 10.298133
_cell_length_c 24.398204
_cell_angle_alpha 90.000000
_cell_angle_beta 90.000000
_cell_angle_gamma 90.000000
_cell_volume 2587.467188
_symmetry_space_group_name_H-M "I -4 2 M"
_symmetry_group_IT_number 121
_symmetry_cell_setting 'tetragonal'
loop_
_space_group_symop_operation_xyz
x,y,z
y,-x,-z
-x,-y,z
-y,x,-z
x,-y,-z
-x,y,-z
-y,-x,z
y,x,z
1/2+x,1/2+y,1/2+z
1/2+y,1/2-x,1/2-z
1/2-x,1/2-y,1/2+z
1/2-y,1/2+x,1/2-z
1/2+x,1/2-y,1/2-z
1/2-x,1/2+y,1/2-z
1/2-y,1/2-x,1/2+z
1/2+y,1/2+x,1/2+z
loop_
_atom_site_type_symbol
_atom_site_label
_atom_site_fract_x
_atom_site_fract_y
_atom_site_fract_z
Si Si1 0.105063 0.686306 0.047475
Si Si2 0.500000 0.299413 0.000000
Si Si3 0.505595 0.288100 0.772046
Si Si4 0.170782 0.386298 0.333339
O O1 0.173201 0.826800 0.040486
O O2 0.040710 0.665912 0.107696
O O3 0.210939 0.571016 0.044821
O O4 0.000000 0.669771 0.000000
O O5 0.391678 0.391678 0.029415
O O6 0.641237 0.358764 0.788526
O O7 0.391407 0.391407 0.767209
O O8 0.515173 0.222120 0.712381
O O9 0.468960 0.174854 0.815384
O O10 0.267107 0.267107 0.341893
#
# Coordination Sequence:
#
# PCOD8311614 Si02
#       4
#    16   8  16  16
#     4  10  21  38  59  86 121 156 194 241 294 356
#     4   9  19  38  60  80 109 153 200 244 290 337
#     4   9  18  35  57  82 115 151 189 238 290 339
#     4   9  19  36  57  83 113 148 192 235 284 345
#
# _framework density 21.642789
#
# number of rings (size 3 to 8) (size 9 to 14) (size 15 to 20)
#    0.000    2.714    0.000    0.429    0.000    3.143 
#   10.286    8.571    0.000    0.000    0.000    0.000 
#    0.000    0.000    0.000    0.000    0.000    0.000 
#
# Total GULP energy -346935.185985 kJ/mol
# GULP energy per Si atom -12390.542357 kJ/mol
# Density = 2.159353 g / cm^3
# Si number density = 21.642789 Si / 1000 Ang^3
#
#
#
# Elastic Constant Matrix: (Units=GPa)
#
#
# Indices 1 2 3 4 5 6 
#
# 1 61.4984 20.3965 42.0818 0.0000 0.0000 0.0000
# 2 20.3965 61.4985 42.0818 0.0000 0.0000 0.0000
# 3 42.0818 42.0818 170.3686 0.0000 0.0000 0.0000
# 4 0.0000 0.0000 0.0000 27.0760 0.0000 0.0000
# 5 0.0000 0.0000 0.0000 0.0000 27.0763 0.0000
# 6 0.0000 0.0000 0.0000 0.0000 0.0000 24.2880
#
#
#
# Elastic Compliance Matrix: (Units=1/GPa)
#
#
# Indices 1 2 3 4 5 6 
#
# 1 0.020347 -0.003982 -0.004042 0.000000 0.000000 0.000000
# 2 -0.003982 0.020347 -0.004042 0.000000 0.000000 0.000000
# 3 -0.004042 -0.004042 0.007867 0.000000 0.000000 0.000000
# 4 0.000000 0.000000 0.000000 0.036933 0.000000 0.000000
# 5 0.000000 0.000000 0.000000 0.000000 0.036933 0.000000
# 6 0.000000 0.000000 0.000000 0.000000 0.000000 0.041173
#
#
# Mechanical properties :
#
#
# Convention : Reuss Voigt Hill
#
# Bulk Modulus (GPa) = 40.93734 55.83175 48.38454
# Shear Modulus (GPa) = 25.52637 28.27506 26.90072
#
# Velocity S-wave (km/s) = 3.43802 3.61840 3.52936
# Velocity P-wave (km/s) = 5.89203 6.58103 6.24604
#
# Compressibility (1/GPa) = 0.02442758
#
# Stress axis : x y z
#
# Youngs Moduli (GPa) = 49.14633 49.14647 127.12089
#
# Poissons Ratio (x) = 0.19572 0.51385
# Poissons Ratio (y) = 0.19572 0.51385
# Poissons Ratio (z) = 0.19866 0.19866
#
# Static dielectric constant tensor:
#      x y z
#    x 4.033640 0.000000 0.000000 
#    y 0.000000 4.033640 0.000000 
#    z 0.000000 0.000000 3.911960 
# 
# 
# High freq. dielectric constant tensor:
#      x y z
#    x 1.848440 0.000000 0.000000 
#    y 0.000000 1.848440 0.000000 
#    z 0.000000 0.000000 1.833160 
# 
# From -- ./inp_files/5914.got.cif
#   From: 2010.03.12/outbox.cif.g09.slc.cpg/sg121_3_cif.got.tgz:5914.got - 2010.04.06 16:06:48.
