data_PCOD8311492
_publ_section_title
;
Structure prediction by ZEFSAII (Michael W. Deem and Ramdas Pophale) SiO2 
 PCOD8311492
Probable space group: I -4 2 M
;
_chemical_formula_sum "Si O2"
_cell_formula_units_Z 96
_cell_length_a 14.351780
_cell_length_b 14.351780
_cell_length_c 21.548641
_cell_angle_alpha 90.000000
_cell_angle_beta 90.000000
_cell_angle_gamma 90.000000
_cell_volume 4438.450928
_symmetry_space_group_name_H-M "I -4 2 M"
_symmetry_group_IT_number 121
_symmetry_cell_setting 'tetragonal'
loop_
_space_group_symop_operation_xyz
x,y,z
y,-x,-z
-x,-y,z
-y,x,-z
x,-y,-z
-x,y,-z
-y,-x,z
y,x,z
1/2+x,1/2+y,1/2+z
1/2+y,1/2-x,1/2-z
1/2-x,1/2-y,1/2+z
1/2-y,1/2+x,1/2-z
1/2+x,1/2-y,1/2-z
1/2-x,1/2+y,1/2-z
1/2-y,1/2-x,1/2+z
1/2+y,1/2+x,1/2+z
loop_
_atom_site_type_symbol
_atom_site_label
_atom_site_fract_x
_atom_site_fract_y
_atom_site_fract_z
Si Si1 0.144676 0.998337 0.891623
Si Si2 0.998166 0.850130 0.665650
Si Si3 0.091910 0.240901 0.225780
Si Si4 0.296315 0.030656 0.429494
Si Si5 0.067587 0.577625 0.838233
Si Si6 0.551883 0.828316 0.439415
O O1 0.079152 0.079152 0.864456
O O2 0.216057 0.045484 0.940457
O O3 0.195073 0.951236 0.834390
O O4 0.081263 0.918738 0.925451
O O5 0.891794 0.891794 0.665062
O O6 0.017093 0.770753 0.717995
O O7 0.027848 0.807375 0.598961
O O8 0.065069 0.934932 0.681989
O O9 0.191045 0.191045 0.241717
O O10 0.109106 0.352256 0.214558
O O11 0.342378 0.133745 0.433038
O O12 0.290483 0.000000 0.500000
O O13 0.354440 0.962151 0.384555
O O14 0.000000 0.500000 0.807389
O O15 0.000820 0.640302 0.878971
O O16 0.500000 0.870099 0.500000
#
# Coordination Sequence:
#
# PCOD8311492 Si02
#       6
#    16  16  16  16  16  16
#     4   9  18  33  56  88 124 164 206 250 311 384
#     4  10  23  44  66  89 122 165 214 272 335 398
#     4   9  18  38  64  89 121 162 207 259 320 390
#     4  11  22  39  64  90 123 169 217 264 326 385
#     4   9  19  36  60  90 123 157 203 256 317 382
#     4  10  19  35  59  84 118 163 208 256 309 376
#
# _framework density 21.629166999999999
#
# number of rings (size 3 to 8) (size 9 to 14) (size 15 to 20)
#    0.000    2.333    1.667    0.500    0.000    4.667 
#    9.000    1.667    0.000    0.000    0.000    0.000 
#    0.000    0.000    0.000    0.000    0.000    0.000 
#
# Total GULP energy -594631.154381 kJ/mol
# GULP energy per Si atom -12388.149050 kJ/mol
# Density = 2.157994 g / cm^3
# Si number density = 21.629167 Si / 1000 Ang^3
#
#
#
# Elastic Constant Matrix: (Units=GPa)
#
#
# Indices 1 2 3 4 5 6 
#
# 1 104.9371 45.0671 43.6397 0.0000 0.0000 0.0000
# 2 45.0671 104.9371 43.6392 0.0000 0.0000 0.0000
# 3 43.6397 43.6392 89.4227 0.0000 0.0000 0.0000
# 4 0.0000 0.0000 0.0000 1.6151 0.0000 0.0000
# 5 0.0000 0.0000 0.0000 0.0000 1.6159 0.0000
# 6 0.0000 0.0000 0.0000 0.0000 0.0000 13.7495
#
#
#
# Elastic Compliance Matrix: (Units=1/GPa)
#
#
# Indices 1 2 3 4 5 6 
#
# 1 0.013006 -0.003696 -0.004543 0.000000 0.000000 0.000000
# 2 -0.003696 0.013006 -0.004543 0.000000 0.000000 0.000000
# 3 -0.004543 -0.004543 0.015617 0.000000 0.000000 0.000000
# 4 0.000000 0.000000 0.000000 0.619164 0.000000 0.000000
# 5 0.000000 0.000000 0.000000 0.000000 0.618858 0.000000
# 6 0.000000 0.000000 0.000000 0.000000 0.000000 0.072730
#
#
# Mechanical properties :
#
#
# Convention : Reuss Voigt Hill
#
# Bulk Modulus (GPa) = 62.25202 62.66542 62.45872
# Shear Modulus (GPa) = 3.61454 14.52615 9.07034
#
# Velocity S-wave (km/s) = 1.29413 2.59434 2.05004
# Velocity P-wave (km/s) = 5.57468 6.16520 5.87736
#
# Compressibility (1/GPa) = 0.01606374
#
# Stress axis : x y z
#
# Youngs Moduli (GPa) = 76.88476 76.88524 64.03140
#
# Poissons Ratio (x) = 0.28420 0.29093
# Poissons Ratio (y) = 0.28420 0.29092
# Poissons Ratio (z) = 0.34933 0.34932
#
# Static dielectric constant tensor:
#      x y z
#    x 4.659180 0.000000 0.000000 
#    y 0.000000 4.659180 0.000000 
#    z 0.000000 0.000000 3.789170 
# 
# 
# High freq. dielectric constant tensor:
#      x y z
#    x 1.842610 0.000000 0.000000 
#    y 0.000000 1.842610 0.000000 
#    z 0.000000 0.000000 1.843070 
# 
# From -- ./inp_files/6398.got.cif
#   From: 2010.03.12/outbox.cif.g09.slc.cpg/sg121_4_cif.got.tgz:6398.got - 2010.04.06 16:06:48.
