data_PCOD8311757
_publ_section_title
;
Structure prediction by ZEFSAII (Michael W. Deem and Ramdas Pophale) SiO2 
 PCOD8311757
Probable space group: I -4 2 D
;
_chemical_formula_sum "Si O2"
_cell_formula_units_Z 112
_cell_length_a 18.944391
_cell_length_b 18.944391
_cell_length_c 17.115333
_cell_angle_alpha 90.000000
_cell_angle_beta 90.000000
_cell_angle_gamma 90.000000
_cell_volume 6142.521011
_symmetry_space_group_name_H-M "I -4 2 D"
_symmetry_group_IT_number 122
_symmetry_cell_setting 'tetragonal'
loop_
_space_group_symop_operation_xyz
x,y,z
y,-x,-z
-x,-y,z
-y,x,-z
x,1/2-y,1/4-z
-x,1/2+y,1/4-z
-y,1/2-x,1/4+z
y,1/2+x,1/4+z
1/2+x,1/2+y,1/2+z
1/2+y,1/2-x,1/2-z
1/2-x,1/2-y,1/2+z
1/2-y,1/2+x,1/2-z
1/2+x,-y,3/4-z
1/2-x,y,3/4-z
1/2-y,-x,3/4+z
1/2+y,x,3/4+z
loop_
_atom_site_type_symbol
_atom_site_label
_atom_site_fract_x
_atom_site_fract_y
_atom_site_fract_z
Si Si1 0.002038 0.611799 0.967876
Si Si2 0.008476 0.388177 0.238995
Si Si3 0.489816 0.609961 0.239140
Si Si4 0.824953 0.957782 0.415681
Si Si5 0.341965 0.943604 0.185077
Si Si6 0.189112 0.938864 0.133906
Si Si7 0.572811 0.325675 0.651218
O O1 0.923023 0.589117 0.995290
O O2 0.000681 0.622772 0.874302
O O3 0.050890 0.548822 0.998154
O O4 0.032599 0.679403 0.014688
O O5 0.071412 0.442888 0.220753
O O6 0.034640 0.326392 0.296452
O O7 0.985528 0.356635 0.156988
O O8 0.501768 0.638824 0.152491
O O9 0.498474 0.669659 0.305142
O O10 0.750000 0.933173 0.375000
O O11 0.874021 0.891731 0.445166
O O12 0.821478 0.015068 0.485739
O O13 0.270537 0.917625 0.142724
O O14 0.143919 0.870405 0.155043
O O15 0.598907 0.250000 0.625000
#
# Coordination Sequence:
#
# PCOD8311757 Si02
#       7
#    16  16  16  16  16  16  16
#     4   9  18  31  53  79  99 133 177 229 273 324
#     4   9  17  30  51  78 104 137 184 233 281 333
#     4   9  17  33  53  75 104 131 174 226 284 327
#     4  11  22  38  58  84 111 144 185 235 286 340
#     4  11  22  36  57  81 109 144 185 232 284 339
#     4  10  19  32  51  74 106 146 177 221 281 341
#     4  10  19  31  48  74 107 142 178 221 270 334
#
# _framework density 18.233557000000001
#
# number of rings (size 3 to 8) (size 9 to 14) (size 15 to 20)
#    0.000    2.143    1.429    2.571    0.000    5.429 
#    0.000    0.000    0.000    0.000    0.000    1.000 
#    0.000    0.000    0.000    0.000    0.000    0.000 
#
# Total GULP energy -693745.814240 kJ/mol
# GULP energy per Si atom -12388.318111 kJ/mol
# Density = 1.819206 g / cm^3
# Si number density = 18.233557 Si / 1000 Ang^3
#
#
#
# Elastic Constant Matrix: (Units=GPa)
#
#
# Indices 1 2 3 4 5 6 
#
# 1 77.4668 26.7192 20.6017 0.0000 0.0000 0.0000
# 2 26.7192 77.4668 20.6017 0.0000 0.0000 0.0000
# 3 20.6017 20.6017 55.7173 0.0000 0.0000 0.0000
# 4 0.0000 0.0000 0.0000 26.0687 0.0000 0.0000
# 5 0.0000 0.0000 0.0000 0.0000 26.0687 0.0000
# 6 0.0000 0.0000 0.0000 0.0000 0.0000 12.5023
#
#
#
# Elastic Compliance Matrix: (Units=1/GPa)
#
#
# Indices 1 2 3 4 5 6 
#
# 1 0.015474 -0.004232 -0.004157 0.000000 0.000000 0.000000
# 2 -0.004232 0.015474 -0.004157 0.000000 0.000000 0.000000
# 3 -0.004157 -0.004157 0.021022 0.000000 0.000000 0.000000
# 4 0.000000 0.000000 0.000000 0.038360 0.000000 0.000000
# 5 0.000000 0.000000 0.000000 0.000000 0.038360 0.000000
# 6 0.000000 0.000000 0.000000 0.000000 0.000000 0.079985
#
#
# Mechanical properties :
#
#
# Convention : Reuss Voigt Hill
#
# Bulk Modulus (GPa) = 37.20415 38.49959 37.85187
# Shear Modulus (GPa) = 20.59942 22.44314 21.52128
#
# Velocity S-wave (km/s) = 3.36483 3.51218 3.43929
# Velocity P-wave (km/s) = 5.96193 6.13252 6.04782
#
# Compressibility (1/GPa) = 0.02687872
#
# Stress axis : x y z
#
# Youngs Moduli (GPa) = 64.62554 64.62554 47.56979
#
# Poissons Ratio (x) = 0.27347 0.19774
# Poissons Ratio (y) = 0.27347 0.19774
# Poissons Ratio (z) = 0.26864 0.26864
#
# Static dielectric constant tensor:
#      x y z
#    x 3.349920 0.000000 0.000000 
#    y 0.000000 3.349920 0.000000 
#    z 0.000000 0.000000 3.469450 
# 
# 
# High freq. dielectric constant tensor:
#      x y z
#    x 1.692080 0.000000 0.000000 
#    y 0.000000 1.692080 0.000000 
#    z 0.000000 0.000000 1.717300 
# 
# From -- ./inp_files/6497.got.cif
#   From: 2010.03.12/outbox.cif.g09.slc.cpg/sg122_4_cif.got.tgz:6497.got - 2010.04.06 16:17:16.
