data_PCOD8311863
_publ_section_title
;
Structure prediction by ZEFSAII (Michael W. Deem and Ramdas Pophale) SiO2 
 PCOD8311863
Probable space group: I -4 2 D
;
_chemical_formula_sum "Si O2"
_cell_formula_units_Z 52
_cell_length_a 18.069833
_cell_length_b 18.069833
_cell_length_c 7.674557
_cell_angle_alpha 90.000000
_cell_angle_beta 90.000000
_cell_angle_gamma 90.000000
_cell_volume 2505.887638
_symmetry_space_group_name_H-M "I -4 2 D"
_symmetry_group_IT_number 122
_symmetry_cell_setting 'tetragonal'
loop_
_space_group_symop_operation_xyz
x,y,z
y,-x,-z
-x,-y,z
-y,x,-z
x,1/2-y,1/4-z
-x,1/2+y,1/4-z
-y,1/2-x,1/4+z
y,1/2+x,1/4+z
1/2+x,1/2+y,1/2+z
1/2+y,1/2-x,1/2-z
1/2-x,1/2-y,1/2+z
1/2-y,1/2+x,1/2-z
1/2+x,-y,3/4-z
1/2-x,y,3/4-z
1/2-y,-x,3/4+z
1/2+y,x,3/4+z
loop_
_atom_site_type_symbol
_atom_site_label
_atom_site_fract_x
_atom_site_fract_y
_atom_site_fract_z
Si Si1 0.580609 0.109261 0.491614
Si Si2 0.000000 0.500000 0.250000
Si Si3 0.831948 0.769472 0.823751
Si Si4 0.465468 0.188442 0.265344
O O1 0.532168 0.064001 0.628262
O O2 0.643653 0.152937 0.602714
O O3 0.531972 0.170768 0.394990
O O4 0.615245 0.056515 0.343409
O O5 0.842329 0.750000 0.625000
O O6 0.750000 0.744296 0.875000
O O7 0.898830 0.717994 0.896701
O O8 0.492062 0.250000 0.125000
#
# Coordination Sequence:
#
# PCOD8311863 Si02
#       4
#    16   4  16  16
#     4  10  21  36  57  83 116 150 192 243 301 363
#     4  12  24  34  52  92 124 154 192 248 324 378
#     4   9  21  37  55  81 109 145 192 239 293 352
#     4   9  20  39  60  82 108 154 203 241 291 356
#
# _framework density 20.751131000000001
#
# number of rings (size 3 to 8) (size 9 to 14) (size 15 to 20)
#    0.000    3.077    0.000    1.846    0.000   12.308 
#    0.000    0.000    0.000    0.000    0.000    0.000 
#    0.000    0.000    0.000    0.000    0.000    0.000 
#
# Total GULP energy -322093.486343 kJ/mol
# GULP energy per Si atom -12388.211013 kJ/mol
# Density = 2.070390 g / cm^3
# Si number density = 20.751131 Si / 1000 Ang^3
#
#
#
# Elastic Constant Matrix: (Units=GPa)
#
#
# Indices 1 2 3 4 5 6 
#
# 1 111.1434 43.7024 44.7306 0.0000 0.0000 0.0000
# 2 43.7024 111.1434 44.7306 0.0000 0.0000 0.0000
# 3 44.7306 44.7306 51.5934 0.0000 0.0000 0.0000
# 4 0.0000 0.0000 0.0000 32.7346 0.0000 0.0000
# 5 0.0000 0.0000 0.0000 0.0000 32.7346 0.0000
# 6 0.0000 0.0000 0.0000 0.0000 0.0000 28.4584
#
#
#
# Elastic Compliance Matrix: (Units=1/GPa)
#
#
# Indices 1 2 3 4 5 6 
#
# 1 0.013883 -0.000944 -0.011218 0.000000 0.000000 0.000000
# 2 -0.000944 0.013883 -0.011218 0.000000 0.000000 0.000000
# 3 -0.011218 -0.011218 0.038834 0.000000 0.000000 0.000000
# 4 0.000000 0.000000 0.000000 0.030549 0.000000 0.000000
# 5 0.000000 0.000000 0.000000 0.000000 0.030549 0.000000
# 6 0.000000 0.000000 0.000000 0.000000 0.000000 0.035139
#
#
# Mechanical properties :
#
#
# Convention : Reuss Voigt Hill
#
# Bulk Modulus (GPa) = 50.40273 60.02305 55.21289
# Shear Modulus (GPa) = 23.12550 28.16664 25.64607
#
# Velocity S-wave (km/s) = 3.34192 3.68823 3.51933
# Velocity P-wave (km/s) = 6.26363 6.86479 6.57109
#
# Compressibility (1/GPa) = 0.01984019
#
# Stress axis : x y z
#
# Youngs Moduli (GPa) = 72.02803 72.02803 25.75063
#
# Poissons Ratio (x) = 0.06802 0.28887
# Poissons Ratio (y) = 0.06802 0.28887
# Poissons Ratio (z) = 0.80801 0.80801
#
# Static dielectric constant tensor:
#      x y z
#    x 1.733840 0.000000 0.000000 
#    y 0.000000 1.733840 0.000000 
#    z 0.000000 0.000000 3.487890 
# 
# 
# High freq. dielectric constant tensor:
#      x y z
#    x 1.821380 0.000000 0.000000 
#    y 0.000000 1.821380 0.000000 
#    z 0.000000 0.000000 1.783020 
# 
# From -- ./inp_files/2170.got.cif
#   From: 2010.03.12/outbox.cif.g09.slc.cpg/sg122_2_cif.got.tgz:2170.got - 2010.04.06 16:17:16.
