data_PCOD8311408
_publ_section_title
;
Structure prediction by ZEFSAII (Michael W. Deem and Ramdas Pophale) SiO2 
 PCOD8311408
Probable space group: I -4 2 M
;
_chemical_formula_sum "Si O2"
_cell_formula_units_Z 88
_cell_length_a 14.641733
_cell_length_b 14.641733
_cell_length_c 21.200158
_cell_angle_alpha 90.000000
_cell_angle_beta 90.000000
_cell_angle_gamma 90.000000
_cell_volume 4544.897191
_symmetry_space_group_name_H-M "I -4 2 M"
_symmetry_group_IT_number 121
_symmetry_cell_setting 'tetragonal'
loop_
_space_group_symop_operation_xyz
x,y,z
y,-x,-z
-x,-y,z
-y,x,-z
x,-y,-z
-x,y,-z
-y,-x,z
y,x,z
1/2+x,1/2+y,1/2+z
1/2+y,1/2-x,1/2-z
1/2-x,1/2-y,1/2+z
1/2-y,1/2+x,1/2-z
1/2+x,1/2-y,1/2-z
1/2-x,1/2+y,1/2-z
1/2-y,1/2-x,1/2+z
1/2+y,1/2+x,1/2+z
loop_
_atom_site_type_symbol
_atom_site_label
_atom_site_fract_x
_atom_site_fract_y
_atom_site_fract_z
Si Si1 0.780712 0.636014 0.457924
Si Si2 0.000000 0.500000 0.618059
Si Si3 0.659077 0.809516 0.714425
Si Si4 0.567325 0.279455 0.058275
Si Si5 0.447048 0.190706 0.587743
Si Si6 0.486451 0.185931 0.819471
O O1 0.701381 0.701381 0.434625
O O2 0.877343 0.686622 0.454100
O O3 0.772147 0.550344 0.411095
O O4 0.765678 0.607682 0.530215
O O5 0.081139 0.456339 0.576429
O O6 0.962067 0.418227 0.661606
O O7 0.749617 0.749617 0.720146
O O8 0.604560 0.783831 0.651145
O O9 0.593002 0.784362 0.771976
O O10 0.689270 0.915037 0.713993
O O11 0.633160 0.366841 0.066374
O O12 0.511563 0.258660 0.122553
O O13 0.500000 0.299100 0.000000
#
# Coordination Sequence:
#
# PCOD8311408 Si02
#       6
#    16   8  16  16  16  16
#     4  10  21  35  55  84 117 154 199 248 305 365
#     4  10  18  34  56  88 118 141 193 244 312 358
#     4  11  23  40  62  90 126 159 201 253 306 369
#     4  11  23  39  59  87 123 164 211 257 304 369
#     4  10  20  34  58  84 116 156 193 253 305 364
#     4  11  22  38  61  93 122 165 200 253 313 374
#
# _framework density 19.362375
#
# number of rings (size 3 to 8) (size 9 to 14) (size 15 to 20)
#    0.000    1.455    1.818    5.455    0.000    3.818 
#    0.000    0.000    0.000   12.000    0.000    0.000 
#    0.000    0.000    0.000    0.000    0.000    0.000 
#
# Total GULP energy -545549.844132 kJ/mol
# GULP energy per Si atom -12398.860094 kJ/mol
# Density = 1.931830 g / cm^3
# Si number density = 19.362375 Si / 1000 Ang^3
#
#
#
# Elastic Constant Matrix: (Units=GPa)
#
#
# Indices 1 2 3 4 5 6 
#
# 1 86.2043 40.8908 34.0141 0.0000 0.0000 0.0000
# 2 40.8908 86.2057 34.0140 0.0000 0.0000 0.0000
# 3 34.0141 34.0140 82.6316 0.0000 0.0000 0.0000
# 4 0.0000 0.0000 0.0000 27.7118 0.0000 0.0000
# 5 0.0000 0.0000 0.0000 0.0000 27.7118 0.0000
# 6 0.0000 0.0000 0.0000 0.0000 0.0000 25.9952
#
#
#
# Elastic Compliance Matrix: (Units=1/GPa)
#
#
# Indices 1 2 3 4 5 6 
#
# 1 0.016080 -0.005988 -0.004154 0.000000 0.000000 0.000000
# 2 -0.005988 0.016080 -0.004154 0.000000 0.000000 0.000000
# 3 -0.004154 -0.004154 0.015522 0.000000 0.000000 0.000000
# 4 0.000000 0.000000 0.000000 0.036086 0.000000 0.000000
# 5 0.000000 0.000000 0.000000 0.000000 0.036086 0.000000
# 6 0.000000 0.000000 0.000000 0.000000 0.000000 0.038469
#
#
# Mechanical properties :
#
#
# Convention : Reuss Voigt Hill
#
# Bulk Modulus (GPa) = 52.38692 52.54218 52.46455
# Shear Modulus (GPa) = 25.86959 26.02527 25.94743
#
# Velocity S-wave (km/s) = 3.65920 3.67020 3.66470
# Velocity P-wave (km/s) = 6.70580 6.71979 6.71280
#
# Compressibility (1/GPa) = 0.01908874
#
# Stress axis : x y z
#
# Youngs Moduli (GPa) = 62.18907 62.19031 64.42549
#
# Poissons Ratio (x) = 0.37241 0.26763
# Poissons Ratio (y) = 0.37241 0.26762
# Poissons Ratio (z) = 0.25834 0.25834
#
# Static dielectric constant tensor:
#      x y z
#    x 3.459590 0.000000 0.000000 
#    y 0.000000 3.459590 0.000000 
#    z 0.000000 0.000000 3.529740 
# 
# 
# High freq. dielectric constant tensor:
#      x y z
#    x 1.746130 0.000000 0.000000 
#    y 0.000000 1.746130 0.000000 
#    z 0.000000 0.000000 1.755380 
# 
# From -- ./inp_files/6310.got.cif
#   From: 2010.03.12/outbox.cif.g09.slc.cpg/sg121_4_cif.got.tgz:6310.got - 2010.04.06 16:06:48.
