data_PCOD8311832
_publ_section_title
;
Structure prediction by ZEFSAII (Michael W. Deem and Ramdas Pophale) SiO2 
 PCOD8311832
Probable space group: I -4 2 D
;
_chemical_formula_sum "Si O2"
_cell_formula_units_Z 108
_cell_length_a 13.391167
_cell_length_b 13.391167
_cell_length_c 29.447809
_cell_angle_alpha 90.000000
_cell_angle_beta 90.000000
_cell_angle_gamma 90.000000
_cell_volume 5280.679867
_symmetry_space_group_name_H-M "I -4 2 D"
_symmetry_group_IT_number 122
_symmetry_cell_setting 'tetragonal'
loop_
_space_group_symop_operation_xyz
x,y,z
y,-x,-z
-x,-y,z
-y,x,-z
x,1/2-y,1/4-z
-x,1/2+y,1/4-z
-y,1/2-x,1/4+z
y,1/2+x,1/4+z
1/2+x,1/2+y,1/2+z
1/2+y,1/2-x,1/2-z
1/2-x,1/2-y,1/2+z
1/2-y,1/2+x,1/2-z
1/2+x,-y,3/4-z
1/2-x,y,3/4-z
1/2-y,-x,3/4+z
1/2+y,x,3/4+z
loop_
_atom_site_type_symbol
_atom_site_label
_atom_site_fract_x
_atom_site_fract_y
_atom_site_fract_z
Si Si1 0.036913 0.344675 0.540014
Si Si2 0.500000 0.500000 0.500000
Si Si3 0.774777 0.577840 0.424353
Si Si4 0.750000 0.567603 0.875000
Si Si5 0.528456 0.859757 0.493344
Si Si6 0.154858 0.966157 0.512537
Si Si7 0.735845 0.403071 0.100451
Si Si8 0.668948 0.428589 0.555137
O O1 0.121326 0.431696 0.539879
O O2 0.078571 0.246979 0.515451
O O3 0.002799 0.308255 0.589402
O O4 0.948754 0.392387 0.509307
O O5 0.596323 0.512704 0.533556
O O6 0.750000 0.530060 0.375000
O O7 0.842501 0.503664 0.454291
O O8 0.830803 0.682505 0.420850
O O9 0.670088 0.601548 0.447969
O O10 0.662382 0.637551 0.892451
O O11 0.587082 0.763191 0.476910
O O12 0.195247 0.984307 0.564033
O O13 0.068600 0.882642 0.509897
O O14 0.786749 0.454085 0.144651
#
# Coordination Sequence:
#
# PCOD8311832 Si02
#       8
#    16   4  16   8  16  16  16  16
#     4  11  24  39  63  97 125 166 212 270 316 382
#     4  12  24  40  64 100 128 176 224 268 324 388
#     4  10  20  38  65  91 122 171 215 256 312 390
#     4  12  20  40  68  92 124 170 228 250 316 398
#     4  11  22  40  64  95 127 165 212 267 323 373
#     4  11  24  41  63  93 126 166 211 265 320 380
#     4  11  20  40  67  92 122 175 214 255 320 392
#     4  11  22  39  64  94 126 166 215 265 315 386
#
# _framework density 20.451913000000001
#
# number of rings (size 3 to 8) (size 9 to 14) (size 15 to 20)
#    0.000    1.037    8.148    0.000    0.000    1.185 
#    5.333    0.000    0.000    0.000    7.704    0.000 
#    0.000    0.000    0.000    0.000    0.000    0.000 
#
# Total GULP energy -669079.717570 kJ/mol
# GULP energy per Si atom -12390.365140 kJ/mol
# Density = 2.040536 g / cm^3
# Si number density = 20.451913 Si / 1000 Ang^3
#
#
#
# Elastic Constant Matrix: (Units=GPa)
#
#
# Indices 1 2 3 4 5 6 
#
# 1 55.8229 3.4456 34.1733 0.0000 0.0000 0.0000
# 2 3.4456 55.8229 34.1733 0.0000 0.0000 0.0000
# 3 34.1733 34.1733 137.7344 0.0000 0.0000 0.0000
# 4 0.0000 0.0000 0.0000 38.9641 0.0000 0.0000
# 5 0.0000 0.0000 0.0000 0.0000 38.9641 0.0000
# 6 0.0000 0.0000 0.0000 0.0000 0.0000 12.5578
#
#
#
# Elastic Compliance Matrix: (Units=1/GPa)
#
#
# Indices 1 2 3 4 5 6 
#
# 1 0.021363 0.002271 -0.005864 0.000000 0.000000 0.000000
# 2 0.002271 0.021363 -0.005864 0.000000 0.000000 0.000000
# 3 -0.005864 -0.005864 0.010170 0.000000 0.000000 0.000000
# 4 0.000000 0.000000 0.000000 0.025665 0.000000 0.000000
# 5 0.000000 0.000000 0.000000 0.000000 0.025665 0.000000
# 6 0.000000 0.000000 0.000000 0.000000 0.000000 0.079632
#
#
# Mechanical properties :
#
#
# Convention : Reuss Voigt Hill
#
# Bulk Modulus (GPa) = 29.42619 43.66271 36.54445
# Shear Modulus (GPa) = 23.35361 29.93637 26.64499
#
# Velocity S-wave (km/s) = 3.38284 3.83004 3.61336
# Velocity P-wave (km/s) = 5.44769 6.39955 5.94271
#
# Compressibility (1/GPa) = 0.03398333
#
# Stress axis : x y z
#
# Youngs Moduli (GPa) = 46.80908 46.80907 98.32684
#
# Poissons Ratio (x) = -0.10631 0.57658
# Poissons Ratio (y) = -0.10631 0.57658
# Poissons Ratio (z) = 0.27449 0.27449
#
# Static dielectric constant tensor:
#      x y z
#    x 3.715840 0.000000 0.000000 
#    y 0.000000 3.715840 0.000000 
#    z 0.000000 0.000000 4.073010 
# 
# 
# High freq. dielectric constant tensor:
#      x y z
#    x 1.790330 0.000000 0.000000 
#    y 0.000000 1.790330 0.000000 
#    z 0.000000 0.000000 1.802690 
# 
# From -- ./inp_files/9709.got.cif
#   From: 2010.03.12/outbox.cif.g09.slc.cpg/sg122_5_cif.got.tgz:9709.got - 2010.04.06 16:17:16.
