data_PCOD8311742
_publ_section_title
;
Structure prediction by ZEFSAII (Michael W. Deem and Ramdas Pophale) SiO2 
 PCOD8311742
Probable space group: I -4 2 D
;
_chemical_formula_sum "Si O2"
_cell_formula_units_Z 112
_cell_length_a 21.581289
_cell_length_b 21.581289
_cell_length_c 13.135094
_cell_angle_alpha 90.000000
_cell_angle_beta 90.000000
_cell_angle_gamma 90.000000
_cell_volume 6117.696759
_symmetry_space_group_name_H-M "I -4 2 D"
_symmetry_group_IT_number 122
_symmetry_cell_setting 'tetragonal'
loop_
_space_group_symop_operation_xyz
x,y,z
y,-x,-z
-x,-y,z
-y,x,-z
x,1/2-y,1/4-z
-x,1/2+y,1/4-z
-y,1/2-x,1/4+z
y,1/2+x,1/4+z
1/2+x,1/2+y,1/2+z
1/2+y,1/2-x,1/2-z
1/2-x,1/2-y,1/2+z
1/2-y,1/2+x,1/2-z
1/2+x,-y,3/4-z
1/2-x,y,3/4-z
1/2-y,-x,3/4+z
1/2+y,x,3/4+z
loop_
_atom_site_type_symbol
_atom_site_label
_atom_site_fract_x
_atom_site_fract_y
_atom_site_fract_z
Si Si1 0.440231 0.316106 0.670530
Si Si2 0.179265 0.913207 0.399673
Si Si3 0.101353 0.802189 0.332759
Si Si4 0.601817 0.162967 0.842064
Si Si5 0.931117 0.132990 0.134852
Si Si6 0.289605 0.538915 0.110559
Si Si7 0.651766 0.024950 0.552159
O O1 0.461762 0.250000 0.625000
O O2 0.380004 0.339251 0.611263
O O3 0.495420 0.365868 0.656541
O O4 0.422977 0.309858 0.789596
O O5 0.250000 0.898896 0.375000
O O6 0.143290 0.848604 0.397045
O O7 0.171562 0.938947 0.513335
O O8 0.151679 0.963691 0.319903
O O9 0.125923 0.733101 0.353239
O O10 0.103994 0.820929 0.213347
O O11 0.032140 0.806679 0.373803
O O12 0.576977 0.156439 0.728729
O O13 0.547657 0.144637 0.922272
O O14 0.904682 0.063361 0.147405
O O15 0.216311 0.549710 0.097787
#
# Coordination Sequence:
#
# PCOD8311742 Si02
#       7
#    16  16  16  16  16  16  16
#     4  11  22  34  50  75 106 137 165 203 257 310
#     4   9  18  34  55  75 100 132 173 215 250 299
#     4   9  19  33  53  76 100 136 172 202 253 312
#     4  11  20  32  52  78 106 131 166 213 255 299
#     4  10  18  34  55  73 100 135 170 206 251 306
#     4   9  18  35  53  72 102 135 167 208 255 300
#     4   9  19  34  53  77  97 130 175 213 251 295
#
# _framework density 18.307544
#
# number of rings (size 3 to 8) (size 9 to 14) (size 15 to 20)
#    0.000    2.286    0.000    4.714    0.000    2.286 
#    0.000    3.571    0.000    2.143    0.000    0.000 
#    0.000    0.000    0.000    0.000    0.000    0.000 
#
# Total GULP energy -694418.612112 kJ/mol
# GULP energy per Si atom -12400.332359 kJ/mol
# Density = 1.826587 g / cm^3
# Si number density = 18.307544 Si / 1000 Ang^3
#
#
#
# Elastic Constant Matrix: (Units=GPa)
#
#
# Indices 1 2 3 4 5 6 
#
# 1 56.1525 33.3041 28.9993 0.0000 0.0000 0.0000
# 2 33.3041 56.1525 28.9993 0.0000 0.0000 0.0000
# 3 28.9993 28.9993 126.3508 0.0000 0.0000 0.0000
# 4 0.0000 0.0000 0.0000 24.3302 0.0000 0.0000
# 5 0.0000 0.0000 0.0000 0.0000 24.3302 0.0000
# 6 0.0000 0.0000 0.0000 0.0000 0.0000 34.8059
#
#
#
# Elastic Compliance Matrix: (Units=1/GPa)
#
#
# Indices 1 2 3 4 5 6 
#
# 1 0.028450 -0.015317 -0.003014 0.000000 0.000000 0.000000
# 2 -0.015317 0.028450 -0.003014 0.000000 0.000000 0.000000
# 3 -0.003014 -0.003014 0.009298 0.000000 0.000000 0.000000
# 4 0.000000 0.000000 0.000000 0.041101 0.000000 0.000000
# 5 0.000000 0.000000 0.000000 0.000000 0.041101 0.000000
# 6 0.000000 0.000000 0.000000 0.000000 0.000000 0.028731
#
#
# Mechanical properties :
#
#
# Convention : Reuss Voigt Hill
#
# Bulk Modulus (GPa) = 42.54046 46.80679 44.67362
# Shear Modulus (GPa) = 21.96284 26.51678 24.23981
#
# Velocity S-wave (km/s) = 3.46737 3.80992 3.64268
# Velocity P-wave (km/s) = 6.27034 6.70645 6.49206
#
# Compressibility (1/GPa) = 0.02350704
#
# Stress axis : x y z
#
# Youngs Moduli (GPa) = 35.14964 35.14964 107.54930
#
# Poissons Ratio (x) = 0.53839 0.32417
# Poissons Ratio (y) = 0.53839 0.32417
# Poissons Ratio (z) = 0.10595 0.10595
#
# Static dielectric constant tensor:
#      x y z
#    x 3.268330 0.000000 0.000000 
#    y 0.000000 3.268330 0.000000 
#    z 0.000000 0.000000 3.600890 
# 
# 
# High freq. dielectric constant tensor:
#      x y z
#    x 1.697890 0.000000 0.000000 
#    y 0.000000 1.697890 0.000000 
#    z 0.000000 0.000000 1.720060 
# 
# From -- ./inp_files/4597.got.cif
#   From: 2010.03.12/outbox.cif.g09.slc.cpg/sg122_3_cif.got.tgz:4597.got - 2010.04.06 16:17:16.
