data_PCOD8311541
_publ_section_title
;
Structure prediction by ZEFSAII (Michael W. Deem and Ramdas Pophale) SiO2 
 PCOD8311541
Probable space group: I -4 2 M
;
_chemical_formula_sum "Si O2"
_cell_formula_units_Z 64
_cell_length_a 12.907653
_cell_length_b 12.907653
_cell_length_c 19.788993
_cell_angle_alpha 90.000000
_cell_angle_beta 90.000000
_cell_angle_gamma 90.000000
_cell_volume 3296.994769
_symmetry_space_group_name_H-M "I -4 2 M"
_symmetry_group_IT_number 121
_symmetry_cell_setting 'tetragonal'
loop_
_space_group_symop_operation_xyz
x,y,z
y,-x,-z
-x,-y,z
-y,x,-z
x,-y,-z
-x,y,-z
-y,-x,z
y,x,z
1/2+x,1/2+y,1/2+z
1/2+y,1/2-x,1/2-z
1/2-x,1/2-y,1/2+z
1/2-y,1/2+x,1/2-z
1/2+x,1/2-y,1/2-z
1/2-x,1/2+y,1/2-z
1/2-y,1/2-x,1/2+z
1/2+y,1/2+x,1/2+z
loop_
_atom_site_type_symbol
_atom_site_label
_atom_site_fract_x
_atom_site_fract_y
_atom_site_fract_z
Si Si1 0.906599 0.257288 0.323530
Si Si2 0.445246 0.111702 0.415269
Si Si3 0.300725 0.132899 0.293136
Si Si4 0.346825 0.176490 0.545882
O O1 0.854253 0.145748 0.313045
O O2 0.843286 0.344667 0.281815
O O3 0.903584 0.290531 0.402297
O O4 0.022142 0.244954 0.295848
O O5 0.399301 0.131804 0.342103
O O6 0.354578 0.124254 0.471611
O O7 0.535803 0.196790 0.427824
O O8 0.500000 0.000000 0.421396
O O9 0.219383 0.219383 0.316793
O O10 0.284556 0.284556 0.543296
#
# Coordination Sequence:
#
# PCOD8311541 Si02
#       4
#    16  16  16  16
#     4  10  22  37  57  87 118 155 197 242 293 348
#     4  11  21  36  59  88 113 152 203 243 291 350
#     4  11  23  38  59  88 120 156 199 244 294 351
#     4  10  20  35  56  84 119 148 190 247 294 341
#
# _framework density 19.411615999999999
#
# number of rings (size 3 to 8) (size 9 to 14) (size 15 to 20)
#    0.000    1.500    2.500    3.750    0.000    0.500 
#    0.000    0.000    0.000   14.250    0.000    7.000 
#    0.000    0.000    0.000    0.000    0.000    0.000 
#
# Total GULP energy -396686.153768 kJ/mol
# GULP energy per Si atom -12396.442305 kJ/mol
# Density = 1.936743 g / cm^3
# Si number density = 19.411616 Si / 1000 Ang^3
#
#
#
# Elastic Constant Matrix: (Units=GPa)
#
#
# Indices 1 2 3 4 5 6 
#
# 1 93.4305 46.8040 26.5132 0.0000 0.0000 0.0000
# 2 46.8040 93.4315 26.5143 0.0000 0.0000 0.0000
# 3 26.5132 26.5143 75.9984 0.0000 0.0000 0.0000
# 4 0.0000 0.0000 0.0000 30.8900 0.0000 0.0000
# 5 0.0000 0.0000 0.0000 0.0000 30.8894 0.0000
# 6 0.0000 0.0000 0.0000 0.0000 0.0000 36.4154
#
#
#
# Elastic Compliance Matrix: (Units=1/GPa)
#
#
# Indices 1 2 3 4 5 6 
#
# 1 0.014831 -0.006616 -0.002866 0.000000 0.000000 0.000000
# 2 -0.006616 0.014831 -0.002866 0.000000 0.000000 0.000000
# 3 -0.002866 -0.002866 0.015158 0.000000 0.000000 0.000000
# 4 0.000000 0.000000 0.000000 0.032373 0.000000 0.000000
# 5 0.000000 0.000000 0.000000 0.000000 0.032374 0.000000
# 6 0.000000 0.000000 0.000000 0.000000 0.000000 0.027461
#
#
# Mechanical properties :
#
#
# Convention : Reuss Voigt Hill
#
# Bulk Modulus (GPa) = 49.69297 51.39149 50.54223
# Shear Modulus (GPa) = 29.68593 30.50756 30.09674
#
# Velocity S-wave (km/s) = 3.91485 3.96866 3.94185
# Velocity P-wave (km/s) = 6.78896 6.89438 6.84187
#
# Compressibility (1/GPa) = 0.02012357
#
# Stress axis : x y z
#
# Youngs Moduli (GPa) = 67.42771 67.42789 65.97269
#
# Poissons Ratio (x) = 0.44611 0.18906
# Poissons Ratio (y) = 0.44611 0.18908
# Poissons Ratio (z) = 0.19323 0.19325
#
# Static dielectric constant tensor:
#      x y z
#    x 3.552290 0.000000 0.000000 
#    y 0.000000 3.552280 0.000000 
#    z 0.000000 0.000000 3.707300 
# 
# 
# High freq. dielectric constant tensor:
#      x y z
#    x 1.741260 0.000000 0.000000 
#    y 0.000000 1.741260 0.000000 
#    z 0.000000 0.000000 1.773810 
# 
# From -- ./inp_files/6032.got.cif
#   From: 2010.03.12/outbox.cif.g09.slc.cpg/sg121_4_cif.got.tgz:6032.got - 2010.04.06 16:06:48.
