data_PCOD8311548
_publ_section_title
;
Structure prediction by ZEFSAII (Michael W. Deem and Ramdas Pophale) SiO2 
 PCOD8311548
Probable space group: I -4 2 M
;
_chemical_formula_sum "Si O2"
_cell_formula_units_Z 64
_cell_length_a 18.224589
_cell_length_b 18.224589
_cell_length_c 11.437934
_cell_angle_alpha 90.000000
_cell_angle_beta 90.000000
_cell_angle_gamma 90.000000
_cell_volume 3798.945578
_symmetry_space_group_name_H-M "I -4 2 M"
_symmetry_group_IT_number 121
_symmetry_cell_setting 'tetragonal'
loop_
_space_group_symop_operation_xyz
x,y,z
y,-x,-z
-x,-y,z
-y,x,-z
x,-y,-z
-x,y,-z
-y,-x,z
y,x,z
1/2+x,1/2+y,1/2+z
1/2+y,1/2-x,1/2-z
1/2-x,1/2-y,1/2+z
1/2-y,1/2+x,1/2-z
1/2+x,1/2-y,1/2-z
1/2-x,1/2+y,1/2-z
1/2-y,1/2-x,1/2+z
1/2+y,1/2+x,1/2+z
loop_
_atom_site_type_symbol
_atom_site_label
_atom_site_fract_x
_atom_site_fract_y
_atom_site_fract_z
Si Si1 0.249630 0.134101 0.274821
Si Si2 0.165731 0.401040 0.197765
Si Si3 0.471637 0.827041 0.372934
Si Si4 0.418267 0.701583 0.976513
O O1 0.181800 0.181800 0.229097
O O2 0.324733 0.181584 0.266133
O O3 0.254770 0.063287 0.189569
O O4 0.240377 0.112404 0.408691
O O5 0.145447 0.462311 0.292354
O O6 0.091819 0.389993 0.118776
O O7 0.236500 0.422414 0.122769
O O8 0.500000 0.805193 0.500000
O O9 0.366231 0.633770 0.938393
O O10 0.500000 0.670635 0.000000
#
# Coordination Sequence:
#
# PCOD8311548 Si02
#       4
#    16  16  16  16
#     4   9  20  35  56  78 107 142 183 228 269 319
#     4  10  20  36  54  81 110 141 181 220 269 330
#     4  10  21  35  56  81 113 144 183 221 272 329
#     4  11  20  36  57  80 110 143 184 234 278 322
#
# _framework density 16.846779999999999
#
# number of rings (size 3 to 8) (size 9 to 14) (size 15 to 20)
#    1.500    0.500    2.500    2.250    0.000    0.750 
#    0.000    2.500    0.000    0.000    0.000    0.000 
#    0.000    0.000    0.000    0.000    0.000    0.000 
#
# Total GULP energy -396477.276380 kJ/mol
# GULP energy per Si atom -12389.914887 kJ/mol
# Density = 1.680844 g / cm^3
# Si number density = 16.846780 Si / 1000 Ang^3
#
#
#
# Elastic Constant Matrix: (Units=GPa)
#
#
# Indices 1 2 3 4 5 6 
#
# 1 80.3673 29.2765 38.0757 0.0000 0.0000 0.0000
# 2 29.2765 80.3661 38.0764 0.0000 0.0000 0.0000
# 3 38.0757 38.0764 70.6206 0.0000 0.0000 0.0000
# 4 0.0000 0.0000 0.0000 25.8952 0.0000 0.0000
# 5 0.0000 0.0000 0.0000 0.0000 25.8950 0.0000
# 6 0.0000 0.0000 0.0000 0.0000 0.0000 16.7034
#
#
#
# Elastic Compliance Matrix: (Units=1/GPa)
#
#
# Indices 1 2 3 4 5 6 
#
# 1 0.017077 -0.002496 -0.007861 0.000000 0.000000 0.000000
# 2 -0.002496 0.017077 -0.007862 0.000000 0.000000 0.000000
# 3 -0.007861 -0.007862 0.022637 0.000000 0.000000 0.000000
# 4 0.000000 0.000000 0.000000 0.038617 0.000000 0.000000
# 5 0.000000 0.000000 0.000000 0.000000 0.038617 0.000000
# 6 0.000000 0.000000 0.000000 0.000000 0.000000 0.059868
#
#
# Mechanical properties :
#
#
# Convention : Reuss Voigt Hill
#
# Bulk Modulus (GPa) = 49.13259 49.13461 49.13360
# Shear Modulus (GPa) = 21.08675 22.09375 21.59025
#
# Velocity S-wave (km/s) = 3.54174 3.62533 3.58378
# Velocity P-wave (km/s) = 6.77886 6.83761 6.80830
#
# Compressibility (1/GPa) = 0.02035309
#
# Stress axis : x y z
#
# Youngs Moduli (GPa) = 58.55973 58.55779 44.17506
#
# Poissons Ratio (x) = 0.14618 0.34726
# Poissons Ratio (y) = 0.14619 0.34728
# Poissons Ratio (z) = 0.46034 0.46035
#
# Static dielectric constant tensor:
#      x y z
#    x 3.113610 0.000000 0.000000 
#    y 0.000000 3.113610 0.000000 
#    z 0.000000 0.000000 3.034610 
# 
# 
# High freq. dielectric constant tensor:
#      x y z
#    x 1.641940 0.000000 0.000000 
#    y 0.000000 1.641940 0.000000 
#    z 0.000000 0.000000 1.645180 
# 
# From -- ./inp_files/2887.got.cif
#   From: 2010.03.12/outbox.cif.g09.slc.cpg/sg121_2_cif.got.tgz:2887.got - 2010.04.06 16:06:48.
