data_PCOD8311922
_publ_section_title
;
Structure prediction by ZEFSAII (Michael W. Deem and Ramdas Pophale) SiO2 
 PCOD8311922
Probable space group: I -4 2 D
;
_chemical_formula_sum "Si O2"
_cell_formula_units_Z 80
_cell_length_a 16.633605
_cell_length_b 16.633605
_cell_length_c 13.686096
_cell_angle_alpha 90.000000
_cell_angle_beta 90.000000
_cell_angle_gamma 90.000000
_cell_volume 3786.625455
_symmetry_space_group_name_H-M "I -4 2 D"
_symmetry_group_IT_number 122
_symmetry_cell_setting 'tetragonal'
loop_
_space_group_symop_operation_xyz
x,y,z
y,-x,-z
-x,-y,z
-y,x,-z
x,1/2-y,1/4-z
-x,1/2+y,1/4-z
-y,1/2-x,1/4+z
y,1/2+x,1/4+z
1/2+x,1/2+y,1/2+z
1/2+y,1/2-x,1/2-z
1/2-x,1/2-y,1/2+z
1/2-y,1/2+x,1/2-z
1/2+x,-y,3/4-z
1/2-x,y,3/4-z
1/2-y,-x,3/4+z
1/2+y,x,3/4+z
loop_
_atom_site_type_symbol
_atom_site_label
_atom_site_fract_x
_atom_site_fract_y
_atom_site_fract_z
Si Si1 0.318990 0.891644 0.302386
Si Si2 0.577056 0.555884 0.206412
Si Si3 0.721996 0.854314 0.483808
Si Si4 0.444356 0.275756 0.736346
Si Si5 0.523708 0.704090 0.324827
O O1 0.250000 0.920814 0.375000
O O2 0.406448 0.914196 0.346707
O O3 0.312772 0.796632 0.287023
O O4 0.293409 0.940639 0.204839
O O5 0.500000 0.500000 0.207653
O O6 0.650977 0.502523 0.239225
O O7 0.573926 0.629328 0.283075
O O8 0.750000 0.877832 0.375000
O O9 0.648425 0.793067 0.488041
O O10 0.693717 0.933011 0.540384
O O11 0.455150 0.250000 0.625000
O O12 0.471022 0.202195 0.807151
#
# Coordination Sequence:
#
# PCOD8311922 Si02
#       5
#    16  16  16  16  16
#     4  10  22  41  67  99 131 167 215 279 345 397
#     4  11  23  46  70 100 135 172 222 280 343 406
#     4  12  22  42  70  99 136 169 223 285 341 398
#     4  12  27  45  67  98 135 190 232 271 335 410
#     4  11  24  44  68 102 136 173 223 283 344 406
#
# _framework density 21.126991
#
# number of rings (size 3 to 8) (size 9 to 14) (size 15 to 20)
#    0.000    0.800    6.000    2.400    0.000    1.600 
#    7.200    0.000    0.000    0.000    0.000    0.000 
#    0.000    0.000    0.000    0.000    0.000    0.000 
#
# Total GULP energy -495941.993697 kJ/mol
# GULP energy per Si atom -12398.549842 kJ/mol
# Density = 2.107890 g / cm^3
# Si number density = 21.126991 Si / 1000 Ang^3
#
#
#
# Elastic Constant Matrix: (Units=GPa)
#
#
# Indices 1 2 3 4 5 6 
#
# 1 86.5858 23.8136 32.5685 0.0000 0.0000 0.0000
# 2 23.8136 86.5858 32.5685 0.0000 0.0000 0.0000
# 3 32.5685 32.5685 135.0352 0.0000 0.0000 0.0000
# 4 0.0000 0.0000 0.0000 21.0502 0.0000 0.0000
# 5 0.0000 0.0000 0.0000 0.0000 21.0502 0.0000
# 6 0.0000 0.0000 0.0000 0.0000 0.0000 31.2118
#
#
#
# Elastic Compliance Matrix: (Units=1/GPa)
#
#
# Indices 1 2 3 4 5 6 
#
# 1 0.013246 -0.002685 -0.002547 0.000000 0.000000 0.000000
# 2 -0.002685 0.013246 -0.002547 0.000000 0.000000 0.000000
# 3 -0.002547 -0.002547 0.008634 0.000000 0.000000 0.000000
# 4 0.000000 0.000000 0.000000 0.047505 0.000000 0.000000
# 5 0.000000 0.000000 0.000000 0.000000 0.047505 0.000000
# 6 0.000000 0.000000 0.000000 0.000000 0.000000 0.032039
#
#
# Mechanical properties :
#
#
# Convention : Reuss Voigt Hill
#
# Bulk Modulus (GPa) = 51.10553 54.01200 52.55876
# Shear Modulus (GPa) = 27.13612 29.27954 28.20783
#
# Velocity S-wave (km/s) = 3.58778 3.72678 3.65794
# Velocity P-wave (km/s) = 6.43468 6.64375 6.54005
#
# Compressibility (1/GPa) = 0.01956735
#
# Stress axis : x y z
#
# Youngs Moduli (GPa) = 75.49607 75.49607 115.81943
#
# Poissons Ratio (x) = 0.20270 0.29501
# Poissons Ratio (y) = 0.20270 0.29501
# Poissons Ratio (z) = 0.19230 0.19230
#
# Static dielectric constant tensor:
#      x y z
#    x 3.888560 0.000000 0.000000 
#    y 0.000000 3.888560 0.000000 
#    z 0.000000 0.000000 4.118660 
# 
# 
# High freq. dielectric constant tensor:
#      x y z
#    x 1.828900 0.000000 0.000000 
#    y 0.000000 1.828900 0.000000 
#    z 0.000000 0.000000 1.831210 
# 
# From -- ./inp_files/5306.got.cif
#   From: 2010.03.12/outbox.cif.g09.slc.cpg/sg122_3_cif.got.tgz:5306.got - 2010.04.06 16:17:16.
