data_PCOD8311659
_publ_section_title
;
Structure prediction by ZEFSAII (Michael W. Deem and Ramdas Pophale) SiO2 
 PCOD8311659
Probable space group: I -4 2 M
;
_chemical_formula_sum "Si O2"
_cell_formula_units_Z 48
_cell_length_a 12.418187
_cell_length_b 12.418187
_cell_length_c 14.637720
_cell_angle_alpha 90.000000
_cell_angle_beta 90.000000
_cell_angle_gamma 90.000000
_cell_volume 2257.302831
_symmetry_space_group_name_H-M "I -4 2 M"
_symmetry_group_IT_number 121
_symmetry_cell_setting 'tetragonal'
loop_
_space_group_symop_operation_xyz
x,y,z
y,-x,-z
-x,-y,z
-y,x,-z
x,-y,-z
-x,y,-z
-y,-x,z
y,x,z
1/2+x,1/2+y,1/2+z
1/2+y,1/2-x,1/2-z
1/2-x,1/2-y,1/2+z
1/2-y,1/2+x,1/2-z
1/2+x,1/2-y,1/2-z
1/2-x,1/2+y,1/2-z
1/2-y,1/2-x,1/2+z
1/2+y,1/2+x,1/2+z
loop_
_atom_site_type_symbol
_atom_site_label
_atom_site_fract_x
_atom_site_fract_y
_atom_site_fract_z
Si Si1 0.120388 0.533734 0.896332
Si Si2 0.175373 0.002409 0.719963
Si Si3 0.436536 0.263720 0.589525
O O1 0.214776 0.482046 0.835638
O O2 0.134403 0.661311 0.881908
O O3 0.000000 0.500000 0.863294
O O4 0.140718 0.500000 0.000000
O O5 0.103927 0.896074 0.704165
O O6 0.203148 0.014555 0.827329
O O7 0.108802 0.108802 0.689357
O O8 0.500000 0.227006 0.500000
O O9 0.362693 0.362693 0.561118
#
# Coordination Sequence:
#
# PCOD8311659 Si02
#       3
#    16  16  16
#     4  11  24  44  63  95 133 169 215 265 321 390
#     4  10  24  44  68  98 129 169 219 270 325 383
#     4  11  23  41  67  96 129 171 214 265 323 382
#
# _framework density 21.264315
#
# number of rings (size 3 to 8) (size 9 to 14) (size 15 to 20)
#    0.000    1.333    3.333    2.000    4.667    4.333 
#    0.000    1.667    0.000    0.000    0.000    0.000 
#    0.000    0.000    0.000    0.000    0.000    0.000 
#
# Total GULP energy -297600.767455 kJ/mol
# GULP energy per Si atom -12400.031977 kJ/mol
# Density = 2.121592 g / cm^3
# Si number density = 21.264315 Si / 1000 Ang^3
#
#
#
# Elastic Constant Matrix: (Units=GPa)
#
#
# Indices 1 2 3 4 5 6 
#
# 1 115.8652 34.0067 61.9215 0.0000 0.0000 0.0000
# 2 34.0067 115.8652 61.9216 0.0000 0.0000 0.0000
# 3 61.9215 61.9216 100.0755 0.0000 0.0000 0.0000
# 4 0.0000 0.0000 0.0000 33.2287 0.0000 0.0000
# 5 0.0000 0.0000 0.0000 0.0000 33.2285 0.0000
# 6 0.0000 0.0000 0.0000 0.0000 0.0000 26.2679
#
#
#
# Elastic Compliance Matrix: (Units=1/GPa)
#
#
# Indices 1 2 3 4 5 6 
#
# 1 0.012935 0.000718 -0.008448 0.000000 0.000000 0.000000
# 2 0.000718 0.012935 -0.008448 0.000000 0.000000 0.000000
# 3 -0.008448 -0.008448 0.020447 0.000000 0.000000 0.000000
# 4 0.000000 0.000000 0.000000 0.030094 0.000000 0.000000
# 5 0.000000 0.000000 0.000000 0.000000 0.030095 0.000000
# 6 0.000000 0.000000 0.000000 0.000000 0.000000 0.038069
#
#
# Mechanical properties :
#
#
# Convention : Reuss Voigt Hill
#
# Bulk Modulus (GPa) = 71.62580 71.94505 71.78542
# Shear Modulus (GPa) = 27.53576 30.14211 28.83894
#
# Velocity S-wave (km/s) = 3.60242 3.76905 3.68667
# Velocity P-wave (km/s) = 7.14562 7.26967 7.20791
#
# Compressibility (1/GPa) = 0.01396145
#
# Stress axis : x y z
#
# Youngs Moduli (GPa) = 77.31215 77.31208 48.90811
#
# Poissons Ratio (x) = -0.05554 0.41316
# Poissons Ratio (y) = -0.05554 0.41316
# Poissons Ratio (z) = 0.65311 0.65311
#
# Static dielectric constant tensor:
#      x y z
#    x 3.844660 0.000000 0.000000 
#    y 0.000000 3.844650 0.000000 
#    z 0.000000 0.000000 3.688300 
# 
# 
# High freq. dielectric constant tensor:
#      x y z
#    x 1.838050 0.000000 0.000000 
#    y 0.000000 1.838050 0.000000 
#    z 0.000000 0.000000 1.833610 
# 
# From -- ./inp_files/4890.got.cif
#   From: 2010.03.12/outbox.cif.g09.slc.cpg/sg121_3_cif.got.tgz:4890.got - 2010.04.06 16:06:48.
