data_PCOD8311496
_publ_section_title
;
Structure prediction by ZEFSAII (Michael W. Deem and Ramdas Pophale) SiO2 
 PCOD8311496
Probable space group: I -4 2 M
;
_chemical_formula_sum "Si O2"
_cell_formula_units_Z 128
_cell_length_a 19.498200
_cell_length_b 19.498200
_cell_length_c 23.307774
_cell_angle_alpha 90.000000
_cell_angle_beta 90.000000
_cell_angle_gamma 90.000000
_cell_volume 8861.144933
_symmetry_space_group_name_H-M "I -4 2 M"
_symmetry_group_IT_number 121
_symmetry_cell_setting 'tetragonal'
loop_
_space_group_symop_operation_xyz
x,y,z
y,-x,-z
-x,-y,z
-y,x,-z
x,-y,-z
-x,y,-z
-y,-x,z
y,x,z
1/2+x,1/2+y,1/2+z
1/2+y,1/2-x,1/2-z
1/2-x,1/2-y,1/2+z
1/2-y,1/2+x,1/2-z
1/2+x,1/2-y,1/2-z
1/2-x,1/2+y,1/2-z
1/2-y,1/2-x,1/2+z
1/2+y,1/2+x,1/2+z
loop_
_atom_site_type_symbol
_atom_site_label
_atom_site_fract_x
_atom_site_fract_y
_atom_site_fract_z
Si Si1 0.808996 0.700310 0.563129
Si Si2 0.393249 0.004373 0.437271
Si Si3 0.423179 0.080721 0.249580
Si Si4 0.918123 0.635256 0.129317
Si Si5 0.426913 0.138103 0.369635
Si Si6 0.190059 0.918506 0.435116
Si Si7 0.190768 0.698692 0.570946
Si Si8 0.554435 0.741091 0.938824
O O1 0.734569 0.734569 0.569650
O O2 0.808303 0.631198 0.600523
O O3 0.867477 0.750934 0.588109
O O4 0.822985 0.684191 0.496145
O O5 0.409673 0.935061 0.404486
O O6 0.427949 0.000000 0.500000
O O7 0.426557 0.066175 0.402436
O O8 0.312700 0.015250 0.447096
O O9 0.502357 0.090769 0.232566
O O10 0.376599 0.102442 0.195661
O O11 0.404188 0.127950 0.303691
O O12 0.995284 0.665190 0.125849
O O13 0.374385 0.193148 0.397022
O O14 0.115455 0.884546 0.423572
O O15 0.201880 0.926693 0.502994
O O16 0.194949 0.995280 0.406554
O O17 0.261333 0.738668 0.582653
O O18 0.125969 0.744442 0.594699
#
# Coordination Sequence:
#
# PCOD8311496 Si02
#       8
#    16  16  16  16  16  16  16  16
#     4   9  17  28  41  61  86 115 140 169 224 271
#     4  11  17  25  39  64  88 107 133 177 217 256
#     4   9  17  30  41  56  88 124 151 170 216 262
#     4  11  18  28  43  61  88 116 143 184 207 258
#     4  10  20  28  42  64  83 114 150 177 212 262
#     4   9  14  22  36  53  78 111 142 172 199 247
#     4   9  18  31  45  59  85 113 140 178 231 281
#     4   9  14  24  37  55  79 107 143 167 209 253
#
# _framework density 14.445086
#
# number of rings (size 3 to 8) (size 9 to 14) (size 15 to 20)
#    0.000    2.375    3.750    3.000    0.000    2.500 
#    0.000    0.625    0.000    6.375    0.000    0.000 
#    0.000    0.500    0.000    2.750    0.000    1.500 
#
# Total GULP energy -792901.742784 kJ/mol
# GULP energy per Si atom -12389.089731 kJ/mol
# Density = 1.441221 g / cm^3
# Si number density = 14.445086 Si / 1000 Ang^3
#
#
#
# Elastic Constant Matrix: (Units=GPa)
#
#
# Indices 1 2 3 4 5 6 
#
# 1 68.4244 36.6139 32.8230 0.0000 0.0000 0.0000
# 2 36.6139 68.4257 32.8230 0.0000 0.0000 0.0000
# 3 32.8230 32.8230 68.0722 0.0000 0.0000 0.0000
# 4 0.0000 0.0000 0.0000 14.5197 0.0000 0.0000
# 5 0.0000 0.0000 0.0000 0.0000 14.5197 0.0000
# 6 0.0000 0.0000 0.0000 0.0000 0.0000 21.0196
#
#
#
# Elastic Compliance Matrix: (Units=1/GPa)
#
#
# Indices 1 2 3 4 5 6 
#
# 1 0.022531 -0.008904 -0.006571 0.000000 0.000000 0.000000
# 2 -0.008904 0.022531 -0.006570 0.000000 0.000000 0.000000
# 3 -0.006571 -0.006570 0.021027 0.000000 0.000000 0.000000
# 4 0.000000 0.000000 0.000000 0.068872 0.000000 0.000000
# 5 0.000000 0.000000 0.000000 0.000000 0.068872 0.000000
# 6 0.000000 0.000000 0.000000 0.000000 0.000000 0.047575
#
#
# Mechanical properties :
#
#
# Convention : Reuss Voigt Hill
#
# Bulk Modulus (GPa) = 45.45882 45.49354 45.47618
# Shear Modulus (GPa) = 16.51090 16.85598 16.68344
#
# Velocity S-wave (km/s) = 3.38451 3.41970 3.40215
# Velocity P-wave (km/s) = 6.84190 6.86695 6.85444
#
# Compressibility (1/GPa) = 0.02199793
#
# Stress axis : x y z
#
# Youngs Moduli (GPa) = 44.38262 44.38368 47.55888
#
# Poissons Ratio (x) = 0.39521 0.31249
# Poissons Ratio (y) = 0.39520 0.31248
# Poissons Ratio (z) = 0.29162 0.29162
#
# Static dielectric constant tensor:
#      x y z
#    x 2.796610 0.000000 0.000000 
#    y 0.000000 2.796610 0.000000 
#    z 0.000000 0.000000 2.709340 
# 
# 
# High freq. dielectric constant tensor:
#      x y z
#    x 1.530110 0.000000 0.000000 
#    y 0.000000 1.530110 0.000000 
#    z 0.000000 0.000000 1.524520 
# 
# From -- ./inp_files/7376.got.cif
#   From: 2010.03.12/outbox.cif.g09.slc.cpg/sg121_4_cif.got.tgz:7376.got - 2010.04.06 16:06:48.
