data_PCOD8311410
_publ_section_title
;
Structure prediction by ZEFSAII (Michael W. Deem and Ramdas Pophale) SiO2 
 PCOD8311410
Probable space group: I -4 2 M
;
_chemical_formula_sum "Si O2"
_cell_formula_units_Z 96
_cell_length_a 15.701171
_cell_length_b 15.701171
_cell_length_c 19.424471
_cell_angle_alpha 90.000000
_cell_angle_beta 90.000000
_cell_angle_gamma 90.000000
_cell_volume 4788.652110
_symmetry_space_group_name_H-M "I -4 2 M"
_symmetry_group_IT_number 121
_symmetry_cell_setting 'tetragonal'
loop_
_space_group_symop_operation_xyz
x,y,z
y,-x,-z
-x,-y,z
-y,x,-z
x,-y,-z
-x,y,-z
-y,-x,z
y,x,z
1/2+x,1/2+y,1/2+z
1/2+y,1/2-x,1/2-z
1/2-x,1/2-y,1/2+z
1/2-y,1/2+x,1/2-z
1/2+x,1/2-y,1/2-z
1/2-x,1/2+y,1/2-z
1/2-y,1/2-x,1/2+z
1/2+y,1/2+x,1/2+z
loop_
_atom_site_type_symbol
_atom_site_label
_atom_site_fract_x
_atom_site_fract_y
_atom_site_fract_z
Si Si1 0.500000 0.000000 0.830700
Si Si2 0.160919 0.700452 0.575617
Si Si3 0.274846 0.410266 0.516262
Si Si4 0.500000 0.741549 0.000000
Si Si5 0.217091 0.921056 0.363129
Si Si6 0.680190 0.062212 0.710681
Si Si7 0.155017 0.398570 0.637423
O O1 0.476126 0.084453 0.785308
O O2 0.577861 0.034496 0.876118
O O3 0.208415 0.791586 0.569013
O O4 0.220472 0.625165 0.548086
O O5 0.138544 0.682843 0.655382
O O6 0.074827 0.699310 0.530563
O O7 0.318188 0.500000 0.500000
O O8 0.347081 0.347081 0.538994
O O9 0.221731 0.430228 0.583433
O O10 0.464713 0.686135 0.935280
O O11 0.140250 0.859751 0.336186
O O12 0.301149 0.867239 0.380702
O O13 0.246427 0.991795 0.307017
O O14 0.696971 0.098013 0.786565
#
# Coordination Sequence:
#
# PCOD8311410 Si02
#       7
#     8  16  16   8  16  16  16
#     4  10  19  34  55  88 129 152 185 238 313 374
#     4  10  21  38  57  87 123 156 197 248 304 369
#     4  11  24  41  60  83 116 156 209 257 296 355
#     4  10  18  34  59  87 116 156 190 254 320 375
#     4  10  20  35  59  88 122 160 200 244 308 382
#     4  10  21  35  59  88 124 162 194 249 302 371
#     4  11  20  36  58  89 124 157 197 245 306 374
#
# _framework density 20.047394000000001
#
# number of rings (size 3 to 8) (size 9 to 14) (size 15 to 20)
#    0.000    1.667    1.667    4.500    0.000    1.500 
#    0.000    2.500    0.000   20.500    0.000    0.000 
#    0.000    0.000    0.000    0.000    0.000    0.000 
#
# Total GULP energy -594835.459720 kJ/mol
# GULP energy per Si atom -12392.405411 kJ/mol
# Density = 2.000176 g / cm^3
# Si number density = 20.047394 Si / 1000 Ang^3
#
#
#
# Elastic Constant Matrix: (Units=GPa)
#
#
# Indices 1 2 3 4 5 6 
#
# 1 92.2248 51.3276 38.9491 0.0000 0.0000 0.0000
# 2 51.3276 92.2223 38.9484 0.0000 0.0000 0.0000
# 3 38.9491 38.9484 112.5292 0.0000 0.0000 0.0000
# 4 0.0000 0.0000 0.0000 23.1799 0.0000 0.0000
# 5 0.0000 0.0000 0.0000 0.0000 23.1801 0.0000
# 6 0.0000 0.0000 0.0000 0.0000 0.0000 29.7428
#
#
#
# Elastic Compliance Matrix: (Units=1/GPa)
#
#
# Indices 1 2 3 4 5 6 
#
# 1 0.016514 -0.007938 -0.002969 0.000000 0.000000 0.000000
# 2 -0.007938 0.016515 -0.002969 0.000000 0.000000 0.000000
# 3 -0.002969 -0.002969 0.010942 0.000000 0.000000 0.000000
# 4 0.000000 0.000000 0.000000 0.043141 0.000000 0.000000
# 5 0.000000 0.000000 0.000000 0.000000 0.043140 0.000000
# 6 0.000000 0.000000 0.000000 0.000000 0.000000 0.033622
#
#
# Mechanical properties :
#
#
# Convention : Reuss Voigt Hill
#
# Bulk Modulus (GPa) = 61.64846 61.71407 61.68127
# Shear Modulus (GPa) = 25.37672 26.40398 25.89035
#
# Velocity S-wave (km/s) = 3.56172 3.63309 3.59758
# Velocity P-wave (km/s) = 6.90888 6.96061 6.93479
#
# Compressibility (1/GPa) = 0.01622101
#
# Stress axis : x y z
#
# Youngs Moduli (GPa) = 60.55288 60.55129 91.39376
#
# Poissons Ratio (x) = 0.48063 0.27132
# Poissons Ratio (y) = 0.48064 0.27132
# Poissons Ratio (z) = 0.17976 0.17976
#
# Static dielectric constant tensor:
#      x y z
#    x 3.604940 0.000000 0.000000 
#    y 0.000000 3.604950 0.000000 
#    z 0.000000 0.000000 3.651100 
# 
# 
# High freq. dielectric constant tensor:
#      x y z
#    x 1.768260 0.000000 0.000000 
#    y 0.000000 1.768260 0.000000 
#    z 0.000000 0.000000 1.785700 
# 
# From -- ./inp_files/6486.got.cif
#   From: 2010.03.12/outbox.cif.g09.slc.cpg/sg121_4_cif.got.tgz:6486.got - 2010.04.06 16:06:48.
