data_PCOD8311817
_publ_section_title
;
Structure prediction by ZEFSAII (Michael W. Deem and Ramdas Pophale) SiO2 
 PCOD8311817
Probable space group: I -4 2 D
;
_chemical_formula_sum "Si O2"
_cell_formula_units_Z 60
_cell_length_a 12.437815
_cell_length_b 12.437815
_cell_length_c 19.572402
_cell_angle_alpha 90.000000
_cell_angle_beta 90.000000
_cell_angle_gamma 90.000000
_cell_volume 3027.835753
_symmetry_space_group_name_H-M "I -4 2 D"
_symmetry_group_IT_number 122
_symmetry_cell_setting 'tetragonal'
loop_
_space_group_symop_operation_xyz
x,y,z
y,-x,-z
-x,-y,z
-y,x,-z
x,1/2-y,1/4-z
-x,1/2+y,1/4-z
-y,1/2-x,1/4+z
y,1/2+x,1/4+z
1/2+x,1/2+y,1/2+z
1/2+y,1/2-x,1/2-z
1/2-x,1/2-y,1/2+z
1/2-y,1/2+x,1/2-z
1/2+x,-y,3/4-z
1/2-x,y,3/4-z
1/2-y,-x,3/4+z
1/2+y,x,3/4+z
loop_
_atom_site_type_symbol
_atom_site_label
_atom_site_fract_x
_atom_site_fract_y
_atom_site_fract_z
Si Si1 0.376000 0.872412 0.143674
Si Si2 0.064301 0.859431 0.036368
Si Si3 0.500000 0.000000 0.250000
Si Si4 0.131423 0.873355 0.184420
Si Si5 0.500000 0.500000 0.786578
O O1 0.399695 0.750000 0.125000
O O2 0.253374 0.891937 0.162975
O O3 0.453485 0.901815 0.206143
O O4 0.402729 0.951955 0.081033
O O5 0.057681 0.887593 0.116982
O O6 0.118286 0.743035 0.030060
O O7 0.944127 0.861829 0.005315
O O8 0.098157 0.960106 0.240148
#
# Coordination Sequence:
#
# PCOD8311817 Si02
#       5
#    16  16   4  16   8
#     4  11  22  43  61  89 120 157 199 252 300 357
#     4  10  20  37  61  87 124 153 194 251 301 348
#     4  10  24  40  68  84 118 160 194 252 302 360
#     4  11  22  38  62  91 118 163 196 251 300 356
#     4  11  24  37  65  88 119 160 206 240 303 370
#
# _framework density 19.816134000000002
#
# number of rings (size 3 to 8) (size 9 to 14) (size 15 to 20)
#    0.000    1.333    2.667    4.800    0.000    0.000 
#    0.000    0.000    5.867    0.000    0.000    0.000 
#    0.000    0.000    0.000    0.000    0.000    0.000 
#
# Total GULP energy -372016.266935 kJ/mol
# GULP energy per Si atom -12400.542231 kJ/mol
# Density = 1.977103 g / cm^3
# Si number density = 19.816134 Si / 1000 Ang^3
#
#
#
# Elastic Constant Matrix: (Units=GPa)
#
#
# Indices 1 2 3 4 5 6 
#
# 1 137.0455 59.3454 68.0652 0.0000 0.0000 0.0000
# 2 59.3454 137.0455 68.0652 0.0000 0.0000 0.0000
# 3 68.0652 68.0652 125.0340 0.0000 0.0000 0.0000
# 4 0.0000 0.0000 0.0000 24.3053 0.0000 0.0000
# 5 0.0000 0.0000 0.0000 0.0000 24.3053 0.0000
# 6 0.0000 0.0000 0.0000 0.0000 0.0000 31.4256
#
#
#
# Elastic Compliance Matrix: (Units=1/GPa)
#
#
# Indices 1 2 3 4 5 6 
#
# 1 0.010524 -0.002346 -0.004452 0.000000 0.000000 0.000000
# 2 -0.002346 0.010524 -0.004452 0.000000 0.000000 0.000000
# 3 -0.004452 -0.004452 0.012845 0.000000 0.000000 0.000000
# 4 0.000000 0.000000 0.000000 0.041143 0.000000 0.000000
# 5 0.000000 0.000000 0.000000 0.000000 0.041143 0.000000
# 6 0.000000 0.000000 0.000000 0.000000 0.000000 0.031821
#
#
# Mechanical properties :
#
#
# Convention : Reuss Voigt Hill
#
# Bulk Modulus (GPa) = 87.77244 87.78626 87.77935
# Shear Modulus (GPa) = 28.68673 29.58386 29.13529
#
# Velocity S-wave (km/s) = 3.80892 3.86802 3.83858
# Velocity P-wave (km/s) = 7.98332 8.02156 8.00246
#
# Compressibility (1/GPa) = 0.01139310
#
# Stress axis : x y z
#
# Youngs Moduli (GPa) = 95.02265 95.02265 77.85393
#
# Poissons Ratio (x) = 0.22294 0.34658
# Poissons Ratio (y) = 0.22294 0.34658
# Poissons Ratio (z) = 0.42301 0.42301
#
# Static dielectric constant tensor:
#      x y z
#    x 3.584480 0.000000 0.000000 
#    y 0.000000 3.584480 0.000000 
#    z 0.000000 0.000000 3.836720 
# 
# 
# High freq. dielectric constant tensor:
#      x y z
#    x 1.772800 0.000000 0.000000 
#    y 0.000000 1.772800 0.000000 
#    z 0.000000 0.000000 1.785380 
# 
# From -- ./inp_files/6942.got.cif
#   From: 2010.03.12/outbox.cif.g09.slc.cpg/sg122_4_cif.got.tgz:6942.got - 2010.04.06 16:17:16.
