data_PCOD8311980
_publ_section_title
;
Structure prediction by ZEFSAII (Michael W. Deem and Ramdas Pophale) SiO2 
 PCOD8311980
Probable space group: I -4 2 D
;
_chemical_formula_sum "Si O2"
_cell_formula_units_Z 44
_cell_length_a 12.189386
_cell_length_b 12.189386
_cell_length_c 14.863603
_cell_angle_alpha 90.000000
_cell_angle_beta 90.000000
_cell_angle_gamma 90.000000
_cell_volume 2208.450945
_symmetry_space_group_name_H-M "I -4 2 D"
_symmetry_group_IT_number 122
_symmetry_cell_setting 'tetragonal'
loop_
_space_group_symop_operation_xyz
x,y,z
y,-x,-z
-x,-y,z
-y,x,-z
x,1/2-y,1/4-z
-x,1/2+y,1/4-z
-y,1/2-x,1/4+z
y,1/2+x,1/4+z
1/2+x,1/2+y,1/2+z
1/2+y,1/2-x,1/2-z
1/2-x,1/2-y,1/2+z
1/2-y,1/2+x,1/2-z
1/2+x,-y,3/4-z
1/2-x,y,3/4-z
1/2-y,-x,3/4+z
1/2+y,x,3/4+z
loop_
_atom_site_type_symbol
_atom_site_label
_atom_site_fract_x
_atom_site_fract_y
_atom_site_fract_z
Si Si1 0.629647 0.072564 0.197497
Si Si2 0.627506 0.126586 0.603107
Si Si3 0.000000 0.500000 0.541138
Si Si4 0.000000 0.500000 0.250000
O O1 0.557183 0.136838 0.273275
O O2 0.747485 0.122940 0.179902
O O3 0.565099 0.086032 0.103462
O O4 0.594412 0.250000 0.625000
O O5 0.557852 0.091630 0.517881
O O6 0.598062 0.049678 0.688648
#
# Coordination Sequence:
#
# PCOD8311980 Si02
#       4
#    16  16   8   4
#     4   9  21  38  60  90 120 151 200 250 297 362
#     4  11  22  37  64  85 119 167 195 251 310 357
#     4   9  21  39  55  84 124 148 199 253 283 363
#     4  10  24  44  54  92 126 152 218 248 292 390
#
# _framework density 19.923466000000001
#
# number of rings (size 3 to 8) (size 9 to 14) (size 15 to 20)
#    0.000    2.545    0.000    2.182    5.091    4.364 
#    0.000    0.000    0.000    0.000    0.000    0.000 
#    0.000    0.000    0.000    0.000    0.000    0.000 
#
# Total GULP energy -272640.693696 kJ/mol
# GULP energy per Si atom -12392.758804 kJ/mol
# Density = 1.987812 g / cm^3
# Si number density = 19.923466 Si / 1000 Ang^3
#
#
#
# Elastic Constant Matrix: (Units=GPa)
#
#
# Indices 1 2 3 4 5 6 
#
# 1 88.4183 29.0852 39.3922 0.0000 0.0000 0.0000
# 2 29.0852 88.4183 39.3922 0.0000 0.0000 0.0000
# 3 39.3922 39.3922 121.8371 0.0000 0.0000 0.0000
# 4 0.0000 0.0000 0.0000 41.1181 0.0000 0.0000
# 5 0.0000 0.0000 0.0000 0.0000 41.1181 0.0000
# 6 0.0000 0.0000 0.0000 0.0000 0.0000 27.9019
#
#
#
# Elastic Compliance Matrix: (Units=1/GPa)
#
#
# Indices 1 2 3 4 5 6 
#
# 1 0.013860 -0.002994 -0.003513 0.000000 0.000000 0.000000
# 2 -0.002994 0.013860 -0.003513 0.000000 0.000000 0.000000
# 3 -0.003513 -0.003513 0.010479 0.000000 0.000000 0.000000
# 4 0.000000 0.000000 0.000000 0.024320 0.000000 0.000000
# 5 0.000000 0.000000 0.000000 0.000000 0.024320 0.000000
# 6 0.000000 0.000000 0.000000 0.000000 0.000000 0.035840
#
#
# Mechanical properties :
#
#
# Convention : Reuss Voigt Hill
#
# Bulk Modulus (GPa) = 55.07026 57.15699 56.11362
# Shear Modulus (GPa) = 33.60823 34.74789 34.17806
#
# Velocity S-wave (km/s) = 4.11160 4.18074 4.14631
# Velocity P-wave (km/s) = 7.08811 7.21493 7.15180
#
# Compressibility (1/GPa) = 0.01815862
#
# Stress axis : x y z
#
# Youngs Moduli (GPa) = 72.15038 72.15038 95.42522
#
# Poissons Ratio (x) = 0.21602 0.33524
# Poissons Ratio (y) = 0.21602 0.33524
# Poissons Ratio (z) = 0.25347 0.25347
#
# Static dielectric constant tensor:
#      x y z
#    x 3.155560 0.000000 0.000000 
#    y 0.000000 3.155560 0.000000 
#    z 0.000000 0.000000 3.896720 
# 
# 
# High freq. dielectric constant tensor:
#      x y z
#    x 1.764460 0.000000 0.000000 
#    y 0.000000 1.764460 0.000000 
#    z 0.000000 0.000000 1.796920 
# 
# From -- ./inp_files/5812.got.cif
#   From: 2010.03.12/outbox.cif.g09.slc.cpg/sg122_3_cif.got.tgz:5812.got - 2010.04.06 16:17:16.
