data_PCOD8311362
_publ_section_title
;
Structure prediction by ZEFSAII (Michael W. Deem and Ramdas Pophale) SiO2 
 PCOD8311362
Probable space group: I -4 2 M
;
_chemical_formula_sum "Si O2"
_cell_formula_units_Z 96
_cell_length_a 15.109682
_cell_length_b 15.109682
_cell_length_c 19.882750
_cell_angle_alpha 90.000000
_cell_angle_beta 90.000000
_cell_angle_gamma 90.000000
_cell_volume 4539.281336
_symmetry_space_group_name_H-M "I -4 2 M"
_symmetry_group_IT_number 121
_symmetry_cell_setting 'tetragonal'
loop_
_space_group_symop_operation_xyz
x,y,z
y,-x,-z
-x,-y,z
-y,x,-z
x,-y,-z
-x,y,-z
-y,-x,z
y,x,z
1/2+x,1/2+y,1/2+z
1/2+y,1/2-x,1/2-z
1/2-x,1/2-y,1/2+z
1/2-y,1/2+x,1/2-z
1/2+x,1/2-y,1/2-z
1/2-x,1/2+y,1/2-z
1/2-y,1/2-x,1/2+z
1/2+y,1/2+x,1/2+z
loop_
_atom_site_type_symbol
_atom_site_label
_atom_site_fract_x
_atom_site_fract_y
_atom_site_fract_z
Si Si1 0.880455 0.580782 0.117060
Si Si2 0.081218 0.621862 0.125993
Si Si3 0.002256 0.858368 0.801318
Si Si4 0.560649 0.697370 0.562629
Si Si5 0.828390 0.310585 0.496787
Si Si6 0.731398 0.877145 0.742996
O O1 0.894521 0.479884 0.136085
O O2 0.821051 0.581872 0.047575
O O3 0.825925 0.628039 0.176016
O O4 0.976481 0.629464 0.107865
O O5 0.111175 0.666494 0.194576
O O6 0.138714 0.666072 0.066968
O O7 0.933700 0.933700 0.822562
O O8 0.961752 0.798994 0.741100
O O9 0.010415 0.793074 0.865948
O O10 0.096141 0.903860 0.779945
O O11 0.500000 0.717158 0.500000
O O12 0.596717 0.596717 0.559996
O O13 0.642125 0.763954 0.557204
O O14 0.789454 0.210547 0.508101
O O15 0.786258 0.786258 0.750334
#
# Coordination Sequence:
#
# PCOD8311362 Si02
#       6
#    16  16  16  16  16  16
#     4  11  23  40  61  85 117 157 197 238 291 356
#     4  11  23  40  61  85 117 157 197 238 291 356
#     4   9  18  32  50  75 111 155 197 238 291 352
#     4  10  18  27  45  74 108 145 183 227 281 342
#     4  11  22  37  58  85 114 145 188 239 290 343
#     4  11  22  38  60  87 119 152 196 252 301 352
#
# _framework density 21.148723
#
# number of rings (size 3 to 8) (size 9 to 14) (size 15 to 20)
#    0.000    1.500    0.000    6.500    0.000    6.167 
#    0.000    5.833    0.000    0.000    0.000    0.000 
#    0.000    4.000    0.000    0.000    0.000    0.000 
#
# Total GULP energy -594894.685864 kJ/mol
# GULP energy per Si atom -12393.639289 kJ/mol
# Density = 2.110059 g / cm^3
# Si number density = 21.148723 Si / 1000 Ang^3
#
#
#
# Elastic Constant Matrix: (Units=GPa)
#
#
# Indices 1 2 3 4 5 6 
#
# 1 71.8543 32.8422 25.2006 0.0000 0.0000 0.0000
# 2 32.8422 71.8557 25.2007 0.0000 0.0000 0.0000
# 3 25.2006 25.2007 92.1567 0.0000 0.0000 0.0000
# 4 0.0000 0.0000 0.0000 34.6375 0.0000 0.0000
# 5 0.0000 0.0000 0.0000 0.0000 34.6371 0.0000
# 6 0.0000 0.0000 0.0000 0.0000 0.0000 28.1874
#
#
#
# Elastic Compliance Matrix: (Units=1/GPa)
#
#
# Indices 1 2 3 4 5 6 
#
# 1 0.018316 -0.007317 -0.003008 0.000000 0.000000 0.000000
# 2 -0.007317 0.018316 -0.003008 0.000000 0.000000 0.000000
# 3 -0.003008 -0.003008 0.012496 0.000000 0.000000 0.000000
# 4 0.000000 0.000000 0.000000 0.028870 0.000000 0.000000
# 5 0.000000 0.000000 0.000000 0.000000 0.028871 0.000000
# 6 0.000000 0.000000 0.000000 0.000000 0.000000 0.035477
#
#
# Mechanical properties :
#
#
# Convention : Reuss Voigt Hill
#
# Bulk Modulus (GPa) = 44.51671 44.70596 44.61134
# Shear Modulus (GPa) = 28.32886 29.66728 28.99807
#
# Velocity S-wave (km/s) = 3.66390 3.74945 3.70692
# Velocity P-wave (km/s) = 6.24451 6.31896 6.28185
#
# Compressibility (1/GPa) = 0.02246347
#
# Stress axis : x y z
#
# Youngs Moduli (GPa) = 54.59658 54.59769 80.02508
#
# Poissons Ratio (x) = 0.39947 0.24070
# Poissons Ratio (y) = 0.39946 0.24070
# Poissons Ratio (z) = 0.16422 0.16422
#
# Static dielectric constant tensor:
#      x y z
#    x 4.099800 0.000000 0.000000 
#    y 0.000000 4.099790 0.000000 
#    z 0.000000 0.000000 3.615010 
# 
# 
# High freq. dielectric constant tensor:
#      x y z
#    x 1.832600 0.000000 0.000000 
#    y 0.000000 1.832600 0.000000 
#    z 0.000000 0.000000 1.816210 
# 
# From -- ./inp_files/6446.got.cif
#   From: 2010.03.12/outbox.cif.g09.slc.cpg/sg121_4_cif.got.tgz:6446.got - 2010.04.06 16:06:48.
