data_PCOD8311642
_publ_section_title
;
Structure prediction by ZEFSAII (Michael W. Deem and Ramdas Pophale) SiO2 
 PCOD8311642
Probable space group: I -4 2 M
;
_chemical_formula_sum "Si O2"
_cell_formula_units_Z 48
_cell_length_a 13.712212
_cell_length_b 13.712212
_cell_length_c 10.511284
_cell_angle_alpha 90.000000
_cell_angle_beta 90.000000
_cell_angle_gamma 90.000000
_cell_volume 1976.381630
_symmetry_space_group_name_H-M "I -4 2 M"
_symmetry_group_IT_number 121
_symmetry_cell_setting 'tetragonal'
loop_
_space_group_symop_operation_xyz
x,y,z
y,-x,-z
-x,-y,z
-y,x,-z
x,-y,-z
-x,y,-z
-y,-x,z
y,x,z
1/2+x,1/2+y,1/2+z
1/2+y,1/2-x,1/2-z
1/2-x,1/2-y,1/2+z
1/2-y,1/2+x,1/2-z
1/2+x,1/2-y,1/2-z
1/2-x,1/2+y,1/2-z
1/2-y,1/2-x,1/2+z
1/2+y,1/2+x,1/2+z
loop_
_atom_site_type_symbol
_atom_site_label
_atom_site_fract_x
_atom_site_fract_y
_atom_site_fract_z
Si Si1 0.654729 0.505932 0.645700
Si Si2 0.634323 0.794356 0.255786
Si Si3 0.271439 0.110900 0.479577
O O1 0.686523 0.500000 0.500000
O O2 0.565719 0.434282 0.672977
O O3 0.616228 0.616228 0.680505
O O4 0.749284 0.475563 0.728385
O O5 0.708167 0.708167 0.292928
O O6 0.655262 0.879207 0.359041
O O7 0.646576 0.828279 0.109147
O O8 0.172485 0.172485 0.462196
O O9 0.239215 0.000000 0.500000
#
# Coordination Sequence:
#
# PCOD8311642 Si02
#       3
#    16  16  16
#     4   8  14  26  49  84 119 149 190 247 307 368
#     4   9  19  36  57  84 122 165 203 245 309 381
#     4  10  22  40  63  91 124 166 212 260 318 380
#
# _framework density 24.286807
#
# number of rings (size 3 to 8) (size 9 to 14) (size 15 to 20)
#    0.000    3.000    0.000    1.000    0.000    4.333 
#    0.000   10.000    0.000    8.000    0.000    0.000 
#    0.000    0.000    0.000    0.000    0.000    0.000 
#
# Total GULP energy -297331.494644 kJ/mol
# GULP energy per Si atom -12388.812277 kJ/mol
# Density = 2.423153 g / cm^3
# Si number density = 24.286807 Si / 1000 Ang^3
#
#
#
# Elastic Constant Matrix: (Units=GPa)
#
#
# Indices 1 2 3 4 5 6 
#
# 1 64.2447 29.9963 42.9341 0.0000 0.0000 0.0000
# 2 29.9963 64.2442 42.9341 0.0000 0.0000 0.0000
# 3 42.9341 42.9341 158.7121 0.0000 0.0000 0.0000
# 4 0.0000 0.0000 0.0000 28.7417 0.0000 0.0000
# 5 0.0000 0.0000 0.0000 0.0000 28.7419 0.0000
# 6 0.0000 0.0000 0.0000 0.0000 0.0000 26.2553
#
#
#
# Elastic Compliance Matrix: (Units=1/GPa)
#
#
# Indices 1 2 3 4 5 6 
#
# 1 0.021640 -0.007558 -0.003809 0.000000 0.000000 0.000000
# 2 -0.007558 0.021641 -0.003809 0.000000 0.000000 0.000000
# 3 -0.003809 -0.003809 0.008362 0.000000 0.000000 0.000000
# 4 0.000000 0.000000 0.000000 0.034793 0.000000 0.000000
# 5 0.000000 0.000000 0.000000 0.000000 0.034792 0.000000
# 6 0.000000 0.000000 0.000000 0.000000 0.000000 0.038088
#
#
# Mechanical properties :
#
#
# Convention : Reuss Voigt Hill
#
# Bulk Modulus (GPa) = 46.97428 57.65890 52.31659
# Shear Modulus (GPa) = 25.41097 28.17022 26.79059
#
# Velocity S-wave (km/s) = 3.23815 3.40942 3.32489
# Velocity P-wave (km/s) = 5.77618 6.26827 6.02725
#
# Compressibility (1/GPa) = 0.02128825
#
# Stress axis : x y z
#
# Youngs Moduli (GPa) = 46.21016 46.20964 119.59231
#
# Poissons Ratio (x) = 0.34926 0.45558
# Poissons Ratio (y) = 0.34927 0.45558
# Poissons Ratio (z) = 0.17603 0.17603
#
# Static dielectric constant tensor:
#      x y z
#    x 4.480480 0.000000 0.000000 
#    y 0.000000 4.480390 0.000000 
#    z 0.000000 0.000000 4.670000 
# 
# 
# High freq. dielectric constant tensor:
#      x y z
#    x 1.931490 0.000000 0.000000 
#    y 0.000000 1.931490 0.000000 
#    z 0.000000 0.000000 1.980650 
# 
# From -- ./inp_files/2546.got.cif
#   From: 2010.03.12/outbox.cif.g09.slc.cpg/sg121_2_cif.got.tgz:2546.got - 2010.04.06 16:06:48.
