data_PCOD8311019
_publ_section_title
;
Structure prediction by ZEFSAII (Michael W. Deem and Ramdas Pophale) SiO2 
 PCOD8311019
Probable space group: I -4 M 2
;
_chemical_formula_sum "Si O2"
_cell_formula_units_Z 112
_cell_length_a 13.984497
_cell_length_b 13.984497
_cell_length_c 27.174375
_cell_angle_alpha 90.000000
_cell_angle_beta 90.000000
_cell_angle_gamma 90.000000
_cell_volume 5314.388070
_symmetry_space_group_name_H-M "I -4 M 2"
_symmetry_group_IT_number 119
_symmetry_cell_setting 'tetragonal'
loop_
_space_group_symop_operation_xyz
x,y,z
y,-x,-z
-x,-y,z
-y,x,-z
y,x,-z
-y,-x,-z
-x,y,z
x,-y,z
1/2+x,1/2+y,1/2+z
1/2+y,1/2-x,1/2-z
1/2-x,1/2-y,1/2+z
1/2-y,1/2+x,1/2-z
1/2+y,1/2+x,1/2-z
1/2-y,1/2-x,1/2-z
1/2-x,1/2+y,1/2+z
1/2+x,1/2-y,1/2+z
loop_
_atom_site_type_symbol
_atom_site_label
_atom_site_fract_x
_atom_site_fract_y
_atom_site_fract_z
Si Si1 0.895007 0.314033 0.569991
Si Si2 0.390971 0.729439 0.815707
Si Si3 0.350769 0.106392 0.537468
Si Si4 0.357191 0.603138 0.081283
Si Si5 0.393214 0.726110 0.368905
Si Si6 0.107664 0.241971 0.753931
Si Si7 0.218591 0.604658 0.371015
O O1 0.852971 0.355008 0.518422
O O2 0.911749 0.198934 0.565431
O O3 0.825922 0.344957 0.614177
O O4 0.000000 0.357684 0.580270
O O5 0.500000 0.755386 0.799624
O O6 0.392894 0.655131 0.860138
O O7 0.335234 0.677627 0.771487
O O8 0.325868 0.835893 0.667283
O O9 0.242498 0.105334 0.554199
O O10 0.409668 0.167693 0.576326
O O11 0.393775 0.000000 0.537732
O O12 0.408015 0.500000 0.068455
O O13 0.500000 0.715591 0.391372
O O14 0.398202 0.717685 0.310792
O O15 0.324109 0.641222 0.385922
O O16 0.151876 0.348125 0.750000
O O17 0.000000 0.240579 0.731208
O O18 0.224754 0.500000 0.346157
#
# Coordination Sequence:
#
# PCOD8311019 Si02
#       7
#    16  16  16  16  16  16  16
#     4  11  21  37  63  91 129 174 214 263 321 383
#     4  10  21  40  66  98 132 166 210 261 321 394
#     4   9  19  35  60  94 128 168 213 251 307 387
#     4   9  17  32  56  91 129 163 204 253 306 376
#     4  11  25  43  62  89 124 162 215 274 321 374
#     4  11  23  43  66  92 128 173 221 270 322 378
#     4  11  22  41  69  95 128 170 208 263 329 390
#
# _framework density 21.074864000000002
#
# number of rings (size 3 to 8) (size 9 to 14) (size 15 to 20)
#    0.000    1.714    4.286    1.714    0.000    5.857 
#    0.000    5.714    0.000    2.571    0.000    2.000 
#    0.000    0.000    0.000    0.000    0.000    0.000 
#
# Total GULP energy -693840.304914 kJ/mol
# GULP energy per Si atom -12390.005445 kJ/mol
# Density = 2.102690 g / cm^3
# Si number density = 21.074864 Si / 1000 Ang^3
#
#
#
# Elastic Constant Matrix: (Units=GPa)
#
#
# Indices 1 2 3 4 5 6 
#
# 1 141.1396 54.8531 33.8458 0.0000 0.0000 0.0000
# 2 54.8531 141.1386 33.8464 0.0000 0.0000 0.0000
# 3 33.8458 33.8464 85.9381 0.0000 0.0000 0.0000
# 4 0.0000 0.0000 0.0000 16.8400 0.0000 0.0000
# 5 0.0000 0.0000 0.0000 0.0000 16.8401 0.0000
# 6 0.0000 0.0000 0.0000 0.0000 0.0000 -13.7560
#
#
#
# Elastic Compliance Matrix: (Units=1/GPa)
#
#
# Indices 1 2 3 4 5 6 
#
# 1 0.008747 -0.002842 -0.002326 0.000000 0.000000 0.000000
# 2 -0.002842 0.008748 -0.002326 0.000000 0.000000 0.000000
# 3 -0.002326 -0.002326 0.013468 0.000000 0.000000 0.000000
# 4 0.000000 0.000000 0.000000 0.059382 0.000000 0.000000
# 5 0.000000 0.000000 0.000000 0.000000 0.059382 0.000000
# 6 0.000000 0.000000 0.000000 0.000000 0.000000 -0.072695
#
#
# Mechanical properties :
#
#
# Convention : Reuss Voigt Hill
#
# Bulk Modulus (GPa) = 62.59390 68.14520 65.36955
# Shear Modulus (GPa) = 51.36377 20.36288 35.86332
#
# Velocity S-wave (km/s) = 4.94216 3.11177 4.12966
# Velocity P-wave (km/s) = 7.89505 6.73171 7.33647
#
# Compressibility (1/GPa) = 0.01597600
#
# Stress axis : x y z
#
# Youngs Moduli (GPa) = 114.31959 114.31820 74.24824
#
# Poissons Ratio (x) = 0.32488 0.17269
# Poissons Ratio (y) = 0.32489 0.17270
# Poissons Ratio (z) = 0.26588 0.26590
#
# Static dielectric constant tensor:
#      x y z
#    x 4.007380 0.000000 0.000000 
#    y 0.000000 4.007380 0.000000 
#    z 0.000000 0.000000 3.811640 
# 
# 
# High freq. dielectric constant tensor:
#      x y z
#    x 1.819490 0.000000 0.000000 
#    y 0.000000 1.819490 0.000000 
#    z 0.000000 0.000000 1.820360 
# 
# From -- ./inp_files/8816.got.cif
#   From: 2010.03.12/outbox.cif.g09.slc.cpg/sg119_5_cif.got.tgz:8816.got - 2010.04.14 02:25:26.
