data_PCOD8311899
_publ_section_title
;
Structure prediction by ZEFSAII (Michael W. Deem and Ramdas Pophale) SiO2 
 PCOD8311899
Probable space group: I -4 2 D
;
_chemical_formula_sum "Si O2"
_cell_formula_units_Z 44
_cell_length_a 18.077199
_cell_length_b 18.077199
_cell_length_c 5.941815
_cell_angle_alpha 90.000000
_cell_angle_beta 90.000000
_cell_angle_gamma 90.000000
_cell_volume 1941.696750
_symmetry_space_group_name_H-M "I -4 2 D"
_symmetry_group_IT_number 122
_symmetry_cell_setting 'tetragonal'
loop_
_space_group_symop_operation_xyz
x,y,z
y,-x,-z
-x,-y,z
-y,x,-z
x,1/2-y,1/4-z
-x,1/2+y,1/4-z
-y,1/2-x,1/4+z
y,1/2+x,1/4+z
1/2+x,1/2+y,1/2+z
1/2+y,1/2-x,1/2-z
1/2-x,1/2-y,1/2+z
1/2-y,1/2+x,1/2-z
1/2+x,-y,3/4-z
1/2-x,y,3/4-z
1/2-y,-x,3/4+z
1/2+y,x,3/4+z
loop_
_atom_site_type_symbol
_atom_site_label
_atom_site_fract_x
_atom_site_fract_y
_atom_site_fract_z
Si Si1 0.483662 0.250000 0.625000
Si Si2 0.319241 0.416644 0.002914
Si Si3 0.000000 0.000000 0.000000
Si Si4 0.136003 0.945156 0.224992
O O1 0.537527 0.297106 0.779496
O O2 0.431457 0.304363 0.474801
O O3 0.380829 0.356687 0.083784
O O4 0.250000 0.376680 0.875000
O O5 0.352007 0.473531 0.822962
O O6 0.948969 0.055990 0.142704
#
# Coordination Sequence:
#
# PCOD8311899 Si02
#       4
#     8  16   4  16
#     4  10  22  38  58  96 126 170 202 274 326 388
#     4  10  22  37  60  94 126 169 211 270 328 385
#     4  12  20  34  68  96 130 156 212 286 324 388
#     4  11  21  37  59  98 130 166 219 272 331 387
#
# _framework density 22.660591
#
# number of rings (size 3 to 8) (size 9 to 14) (size 15 to 20)
#    0.000    1.455    3.636    2.182    0.000    0.000 
#    0.000    0.000    0.000    0.000   80.364    0.000 
#    0.000    0.000    0.000    0.000    0.000    0.000 
#
# Total GULP energy -272693.410340 kJ/mol
# GULP energy per Si atom -12395.155015 kJ/mol
# Density = 2.260901 g / cm^3
# Si number density = 22.660591 Si / 1000 Ang^3
#
#
#
# Elastic Constant Matrix: (Units=GPa)
#
#
# Indices 1 2 3 4 5 6 
#
# 1 83.9328 21.9491 36.9840 0.0000 0.0000 0.0000
# 2 21.9491 83.9328 36.9840 0.0000 0.0000 0.0000
# 3 36.9840 36.9840 111.4906 0.0000 0.0000 0.0000
# 4 0.0000 0.0000 0.0000 40.9729 0.0000 0.0000
# 5 0.0000 0.0000 0.0000 0.0000 40.9729 0.0000
# 6 0.0000 0.0000 0.0000 0.0000 0.0000 -26.9404
#
#
#
# Elastic Compliance Matrix: (Units=1/GPa)
#
#
# Indices 1 2 3 4 5 6 
#
# 1 0.014213 -0.001920 -0.004078 0.000000 0.000000 0.000000
# 2 -0.001920 0.014213 -0.004078 0.000000 0.000000 0.000000
# 3 -0.004078 -0.004078 0.011675 0.000000 0.000000 0.000000
# 4 0.000000 0.000000 0.000000 0.024406 0.000000 0.000000
# 5 0.000000 0.000000 0.000000 0.000000 0.024406 0.000000
# 6 0.000000 0.000000 0.000000 0.000000 0.000000 -0.037119
#
#
# Mechanical properties :
#
#
# Convention : Reuss Voigt Hill
#
# Bulk Modulus (GPa) = 50.12627 52.35447 51.24037
# Shear Modulus (GPa) = 63.61576 23.23038 43.42307
#
# Velocity S-wave (km/s) = 5.30417 3.20526 4.38223
# Velocity P-wave (km/s) = 7.72534 6.07060 6.94741
#
# Compressibility (1/GPa) = 0.01994962
#
# Stress axis : x y z
#
# Youngs Moduli (GPa) = 70.35669 70.35669 85.65398
#
# Poissons Ratio (x) = 0.13508 0.34929
# Poissons Ratio (y) = 0.13508 0.34929
# Poissons Ratio (z) = 0.28691 0.28691
#
# Static dielectric constant tensor:
#      x y z
#    x 3.990670 0.000000 0.000000 
#    y 0.000000 3.990670 0.000000 
#    z 0.000000 0.000000 4.883210 
# 
# 
# High freq. dielectric constant tensor:
#      x y z
#    x 1.870130 0.000000 0.000000 
#    y 0.000000 1.870130 0.000000 
#    z 0.000000 0.000000 1.916150 
# 
# From -- ./inp_files/592.got.cif
#   From: 2010.03.12/outbox.cif.g09.slc.cpg/sg122_1_cif.got.tgz:592.got - 2010.04.06 16:17:16.
