data_PCOD8311811
_publ_section_title
;
Structure prediction by ZEFSAII (Michael W. Deem and Ramdas Pophale) SiO2 
 PCOD8311811
Probable space group: I -4 2 D
;
_chemical_formula_sum "Si O2"
_cell_formula_units_Z 96
_cell_length_a 21.806707
_cell_length_b 21.806707
_cell_length_c 10.287224
_cell_angle_alpha 90.000000
_cell_angle_beta 90.000000
_cell_angle_gamma 90.000000
_cell_volume 4891.909040
_symmetry_space_group_name_H-M "I -4 2 D"
_symmetry_group_IT_number 122
_symmetry_cell_setting 'tetragonal'
loop_
_space_group_symop_operation_xyz
x,y,z
y,-x,-z
-x,-y,z
-y,x,-z
x,1/2-y,1/4-z
-x,1/2+y,1/4-z
-y,1/2-x,1/4+z
y,1/2+x,1/4+z
1/2+x,1/2+y,1/2+z
1/2+y,1/2-x,1/2-z
1/2-x,1/2-y,1/2+z
1/2-y,1/2+x,1/2-z
1/2+x,-y,3/4-z
1/2-x,y,3/4-z
1/2-y,-x,3/4+z
1/2+y,x,3/4+z
loop_
_atom_site_type_symbol
_atom_site_label
_atom_site_fract_x
_atom_site_fract_y
_atom_site_fract_z
Si Si1 0.681853 0.869113 0.898555
Si Si2 0.453675 0.336305 0.045855
Si Si3 0.470581 0.064837 0.574953
Si Si4 0.428441 0.283008 0.321896
Si Si5 0.628088 0.555401 0.122853
Si Si6 0.028293 0.642729 0.295294
O O1 0.750000 0.843278 0.875000
O O2 0.636032 0.811946 0.884749
O O3 0.671133 0.916402 0.783623
O O4 0.671956 0.901695 0.038732
O O5 0.453143 0.309272 0.188010
O O6 0.424554 0.403928 0.054935
O O7 0.418667 0.290231 0.944307
O O8 0.524325 0.337258 0.997835
O O9 0.496314 0.105216 0.456034
O O10 0.396211 0.055213 0.580920
O O11 0.489956 0.093732 0.712155
O O12 0.500000 0.000000 0.552785
O O13 0.482439 0.301417 0.421485
#
# Coordination Sequence:
#
# PCOD8311811 Si02
#       6
#    16  16  16  16  16  16
#     4  10  20  36  60  85 111 153 196 236 292 348
#     4  10  22  38  55  79 119 152 187 232 282 367
#     4  11  18  29  51  84 119 141 181 243 303 343
#     4  10  21  38  58  80 113 158 193 233 290 345
#     4  10  23  34  54  88 114 153 185 235 299 346
#     4  11  17  32  55  85 114 144 191 244 296 343
#
# _framework density 19.624241000000001
#
# number of rings (size 3 to 8) (size 9 to 14) (size 15 to 20)
#    0.000    1.667    3.333    3.000    4.667    0.000 
#    0.000    0.000    3.667    6.000    0.000    0.000 
#    0.000    0.000    0.000    0.000    0.000    0.000 
#
# Total GULP energy -594783.942393 kJ/mol
# GULP energy per Si atom -12391.332133 kJ/mol
# Density = 1.957958 g / cm^3
# Si number density = 19.624241 Si / 1000 Ang^3
#
#
#
# Elastic Constant Matrix: (Units=GPa)
#
#
# Indices 1 2 3 4 5 6 
#
# 1 80.0090 32.5661 28.6508 0.0000 0.0000 0.0000
# 2 32.5661 80.0090 28.6508 0.0000 0.0000 0.0000
# 3 28.6508 28.6508 45.2480 0.0000 0.0000 0.0000
# 4 0.0000 0.0000 0.0000 11.2481 0.0000 0.0000
# 5 0.0000 0.0000 0.0000 0.0000 11.2481 0.0000
# 6 0.0000 0.0000 0.0000 0.0000 0.0000 12.2739
#
#
#
# Elastic Compliance Matrix: (Units=1/GPa)
#
#
# Indices 1 2 3 4 5 6 
#
# 1 0.017093 -0.003985 -0.008300 0.000000 0.000000 0.000000
# 2 -0.003985 0.017093 -0.008300 0.000000 0.000000 0.000000
# 3 -0.008300 -0.008300 0.032611 0.000000 0.000000 0.000000
# 4 0.000000 0.000000 0.000000 0.088904 0.000000 0.000000
# 5 0.000000 0.000000 0.000000 0.000000 0.088904 0.000000
# 6 0.000000 0.000000 0.000000 0.000000 0.000000 0.081474
#
#
# Mechanical properties :
#
#
# Convention : Reuss Voigt Hill
#
# Bulk Modulus (GPa) = 39.02048 42.77792 40.89920
# Shear Modulus (GPa) = 13.30532 14.64724 13.97628
#
# Velocity S-wave (km/s) = 2.60668 2.73497 2.67159
# Velocity P-wave (km/s) = 5.38393 5.64085 5.51389
#
# Compressibility (1/GPa) = 0.02562757
#
# Stress axis : x y z
#
# Youngs Moduli (GPa) = 58.50434 58.50434 30.66447
#
# Poissons Ratio (x) = 0.23315 0.25450
# Poissons Ratio (y) = 0.23315 0.25450
# Poissons Ratio (z) = 0.48556 0.48556
#
# Static dielectric constant tensor:
#      x y z
#    x 3.814970 0.000000 0.000000 
#    y 0.000000 3.814970 0.000000 
#    z 0.000000 0.000000 3.616900 
# 
# 
# High freq. dielectric constant tensor:
#      x y z
#    x 1.752460 0.000000 0.000000 
#    y 0.000000 1.752460 0.000000 
#    z 0.000000 0.000000 1.759600 
# 
# From -- ./inp_files/4458.got.cif
#   From: 2010.03.12/outbox.cif.g09.slc.cpg/sg122_3_cif.got.tgz:4458.got - 2010.04.06 16:17:16.
