data_PCOD8311606
_publ_section_title
;
Structure prediction by ZEFSAII (Michael W. Deem and Ramdas Pophale) SiO2 
 PCOD8311606
Probable space group: I -4 2 M
;
_chemical_formula_sum "Si O2"
_cell_formula_units_Z 80
_cell_length_a 13.226076
_cell_length_b 13.226076
_cell_length_c 24.731762
_cell_angle_alpha 90.000000
_cell_angle_beta 90.000000
_cell_angle_gamma 90.000000
_cell_volume 4326.304531
_symmetry_space_group_name_H-M "I -4 2 M"
_symmetry_group_IT_number 121
_symmetry_cell_setting 'tetragonal'
loop_
_space_group_symop_operation_xyz
x,y,z
y,-x,-z
-x,-y,z
-y,x,-z
x,-y,-z
-x,y,-z
-y,-x,z
y,x,z
1/2+x,1/2+y,1/2+z
1/2+y,1/2-x,1/2-z
1/2-x,1/2-y,1/2+z
1/2-y,1/2+x,1/2-z
1/2+x,1/2-y,1/2-z
1/2-x,1/2+y,1/2-z
1/2-y,1/2-x,1/2+z
1/2+y,1/2+x,1/2+z
loop_
_atom_site_type_symbol
_atom_site_label
_atom_site_fract_x
_atom_site_fract_y
_atom_site_fract_z
Si Si1 0.152808 0.688522 0.893434
Si Si2 0.392190 0.053116 0.887906
Si Si3 0.590136 0.750485 0.201642
Si Si4 0.131185 0.704678 0.709218
Si Si5 0.222076 0.614293 0.511487
O O1 0.202762 0.797239 0.878633
O O2 0.213169 0.600632 0.860942
O O3 0.035114 0.690201 0.876723
O O4 0.160674 0.668457 0.957927
O O5 0.391394 0.124004 0.836684
O O6 0.361088 0.116607 0.940962
O O7 0.500000 0.000000 0.897654
O O8 0.641450 0.641450 0.210385
O O9 0.647699 0.835489 0.236689
O O10 0.474595 0.738448 0.220036
O O11 0.214637 0.785364 0.690101
O O12 0.259573 0.500000 0.500000
O O13 0.319373 0.680628 0.528307
#
# Coordination Sequence:
#
# PCOD8311606 Si02
#       5
#    16  16  16  16  16
#     4   9  18  34  53  78 110 146 184 230 282 331
#     4  11  20  34  56  83 111 147 189 236 283 335
#     4  10  21  37  57  81 112 148 187 230 281 333
#     4  11  23  37  57  85 115 147 188 235 280 335
#     4   9  19  33  52  78 114 146 185 234 281 335
#
# _framework density 18.491531999999999
#
# number of rings (size 3 to 8) (size 9 to 14) (size 15 to 20)
#    0.000    2.000    2.000    1.800    0.000    4.200 
#    0.000    0.000    0.000    3.000    0.000    5.600 
#    0.000    4.800    0.000    0.000    0.000    0.000 
#
# Total GULP energy -495847.759744 kJ/mol
# GULP energy per Si atom -12396.193994 kJ/mol
# Density = 1.844944 g / cm^3
# Si number density = 18.491532 Si / 1000 Ang^3
#
#
#
# Elastic Constant Matrix: (Units=GPa)
#
#
# Indices 1 2 3 4 5 6 
#
# 1 78.9374 33.4723 30.8231 0.0000 0.0000 0.0000
# 2 33.4723 78.9440 30.8244 0.0000 0.0000 0.0000
# 3 30.8231 30.8244 77.8675 0.0000 0.0000 0.0000
# 4 0.0000 0.0000 0.0000 27.7799 0.0000 0.0000
# 5 0.0000 0.0000 0.0000 0.0000 27.7801 0.0000
# 6 0.0000 0.0000 0.0000 0.0000 0.0000 27.8573
#
#
#
# Elastic Compliance Matrix: (Units=1/GPa)
#
#
# Indices 1 2 3 4 5 6 
#
# 1 0.016678 -0.005315 -0.004498 0.000000 0.000000 0.000000
# 2 -0.005315 0.016677 -0.004498 0.000000 0.000000 0.000000
# 3 -0.004498 -0.004498 0.016403 0.000000 0.000000 0.000000
# 4 0.000000 0.000000 0.000000 0.035997 0.000000 0.000000
# 5 0.000000 0.000000 0.000000 0.000000 0.035997 0.000000
# 6 0.000000 0.000000 0.000000 0.000000 0.000000 0.035897
#
#
# Mechanical properties :
#
#
# Convention : Reuss Voigt Hill
#
# Bulk Modulus (GPa) = 47.31080 47.33205 47.32142
# Shear Modulus (GPa) = 25.86413 26.05873 25.96143
#
# Velocity S-wave (km/s) = 3.74398 3.75804 3.75101
# Velocity P-wave (km/s) = 6.65811 6.66953 6.66383
#
# Compressibility (1/GPa) = 0.02113682
#
# Stress axis : x y z
#
# Youngs Moduli (GPa) = 59.95744 59.96232 60.96373
#
# Poissons Ratio (x) = 0.31873 0.27421
# Poissons Ratio (y) = 0.31870 0.27420
# Poissons Ratio (z) = 0.26968 0.26969
#
# Static dielectric constant tensor:
#      x y z
#    x 3.437920 0.000000 0.000000 
#    y 0.000000 3.437920 0.000000 
#    z 0.000000 0.000000 3.572280 
# 
# 
# High freq. dielectric constant tensor:
#      x y z
#    x 1.705940 0.000000 0.000000 
#    y 0.000000 1.705940 0.000000 
#    z 0.000000 0.000000 1.728190 
# 
# From -- ./inp_files/7028.got.cif
#   From: 2010.03.12/outbox.cif.g09.slc.cpg/sg121_4_cif.got.tgz:7028.got - 2010.04.06 16:06:48.
