data_PCOD8311154
_publ_section_title
;
Structure prediction by ZEFSAII (Michael W. Deem and Ramdas Pophale) SiO2 
 PCOD8311154
Probable space group: I -4 C 2
;
_chemical_formula_sum "Si O2"
_cell_formula_units_Z 128
_cell_length_a 17.227871
_cell_length_b 17.227871
_cell_length_c 25.480352
_cell_angle_alpha 90.000000
_cell_angle_beta 90.000000
_cell_angle_gamma 90.000000
_cell_volume 7562.556732
_symmetry_space_group_name_H-M "I -4 C 2"
_symmetry_group_IT_number 120
_symmetry_cell_setting 'tetragonal'
loop_
_space_group_symop_operation_xyz
x,y,z
y,-x,-z
-x,-y,z
-y,x,-z
y,x,1/2-z
-y,-x,1/2-z
-x,y,1/2+z
x,-y,1/2+z
1/2+x,1/2+y,1/2+z
1/2+y,1/2-x,1/2-z
1/2-x,1/2-y,1/2+z
1/2-y,1/2+x,1/2-z
1/2+y,1/2+x,-z
1/2-y,1/2-x,-z
1/2-x,1/2+y,z
1/2+x,1/2-y,z
loop_
_atom_site_type_symbol
_atom_site_label
_atom_site_fract_x
_atom_site_fract_y
_atom_site_fract_z
Si Si1 0.365241 0.954053 0.576823
Si Si2 0.585886 0.906516 0.256252
Si Si3 0.832744 0.339643 0.159187
Si Si4 0.624306 0.888271 0.628528
Si Si5 0.681036 0.028799 0.404763
Si Si6 0.516000 0.724965 0.997743
Si Si7 0.345770 0.673015 0.999332
Si Si8 0.234897 0.263345 0.911782
O O1 0.320041 0.920039 0.627691
O O2 0.437378 0.895851 0.564044
O O3 0.304640 0.959497 0.530063
O O4 0.395726 0.038755 0.591730
O O5 0.498174 0.896536 0.234486
O O6 0.651649 0.863851 0.219817
O O7 0.588177 0.862488 0.311450
O O8 0.910017 0.294828 0.139899
O O9 0.762172 0.282789 0.140952
O O10 0.551095 0.832874 0.624802
O O11 0.700514 0.845505 0.607629
O O12 0.754352 0.013675 0.441261
O O13 0.432653 0.692859 0.980182
O O14 0.581514 0.659938 0.988107
O O15 0.286389 0.692726 0.951452
O O16 0.325430 0.718332 0.052962
#
# Coordination Sequence:
#
# PCOD8311154 Si02
#       8
#    16  16  16  16  16  16  16  16
#     4  10  20  32  53  80 113 141 170 208 274 332
#     4  11  20  33  56  81 109 140 177 220 270 323
#     4  10  20  35  55  74 108 152 167 214 273 322
#     4  12  21  35  52  84 109 138 181 223 258 318
#     4  10  20  32  53  80 113 141 170 208 274 332
#     4  12  21  37  55  77 105 148 178 223 263 321
#     4  11  22  36  55  77 107 141 181 221 275 315
#     4  11  22  36  53  78 112 140 178 220 273 324
#
# _framework density 16.925494
#
# number of rings (size 3 to 8) (size 9 to 14) (size 15 to 20)
#    0.750    0.375    7.500    0.750    3.500    1.250 
#    0.000    1.250    0.000    0.000    0.000    0.000 
#    0.000    0.000    0.000    9.000    0.000    0.000 
#
# Total GULP energy -792879.557299 kJ/mol
# GULP energy per Si atom -12388.743083 kJ/mol
# Density = 1.688697 g / cm^3
# Si number density = 16.925494 Si / 1000 Ang^3
#
#
#
# Elastic Constant Matrix: (Units=GPa)
#
#
# Indices 1 2 3 4 5 6 
#
# 1 60.4962 18.2183 16.2058 0.0000 0.0000 0.0000
# 2 18.2183 60.4962 16.2058 0.0000 0.0000 0.0000
# 3 16.2058 16.2058 51.3885 0.0000 0.0000 0.0000
# 4 0.0000 0.0000 0.0000 25.2800 0.0000 0.0000
# 5 0.0000 0.0000 0.0000 0.0000 25.2800 0.0000
# 6 0.0000 0.0000 0.0000 0.0000 0.0000 25.7885
#
#
#
# Elastic Compliance Matrix: (Units=1/GPa)
#
#
# Indices 1 2 3 4 5 6 
#
# 1 0.019127 -0.004527 -0.004604 0.000000 0.000000 0.000000
# 2 -0.004527 0.019127 -0.004604 0.000000 0.000000 0.000000
# 3 -0.004604 -0.004604 0.022364 0.000000 0.000000 0.000000
# 4 0.000000 0.000000 0.000000 0.039557 0.000000 0.000000
# 5 0.000000 0.000000 0.000000 0.000000 0.039557 0.000000
# 6 0.000000 0.000000 0.000000 0.000000 0.000000 0.038777
#
#
# Mechanical properties :
#
#
# Convention : Reuss Voigt Hill
#
# Bulk Modulus (GPa) = 30.16897 30.40451 30.28674
# Shear Modulus (GPa) = 23.03870 23.38645 23.21258
#
# Velocity S-wave (km/s) = 3.69342 3.72119 3.70734
# Velocity P-wave (km/s) = 6.00431 6.03869 6.02153
#
# Compressibility (1/GPa) = 0.03314664
#
# Stress axis : x y z
#
# Youngs Moduli (GPa) = 52.28348 52.28348 44.71565
#
# Poissons Ratio (x) = 0.23666 0.20588
# Poissons Ratio (y) = 0.23666 0.20588
# Poissons Ratio (z) = 0.24072 0.24072
#
# Static dielectric constant tensor:
#      x y z
#    x 2.993140 0.000000 0.000000 
#    y 0.000000 2.993140 0.000000 
#    z 0.000000 0.000000 3.002780 
# 
# 
# High freq. dielectric constant tensor:
#      x y z
#    x 1.636080 0.000000 0.000000 
#    y 0.000000 1.636080 0.000000 
#    z 0.000000 0.000000 1.641580 
# 
# From -- ./inp_files/6036.got.cif
#   From: 2010.03.12/outbox.cif.g09.slc.cpg/sg120_4_cif.got.tgz:6036.got - 2010.04.06 16:00:44.
