data_PCOD8311279
_publ_section_title
;
Structure prediction by ZEFSAII (Michael W. Deem and Ramdas Pophale) SiO2 
 PCOD8311279
Probable space group: I -4 C 2
;
_chemical_formula_sum "Si O2"
_cell_formula_units_Z 92
_cell_length_a 14.255079
_cell_length_b 14.255079
_cell_length_c 20.187482
_cell_angle_alpha 90.000000
_cell_angle_beta 90.000000
_cell_angle_gamma 90.000000
_cell_volume 4102.243253
_symmetry_space_group_name_H-M "I -4 C 2"
_symmetry_group_IT_number 120
_symmetry_cell_setting 'tetragonal'
loop_
_space_group_symop_operation_xyz
x,y,z
y,-x,-z
-x,-y,z
-y,x,-z
y,x,1/2-z
-y,-x,1/2-z
-x,y,1/2+z
x,-y,1/2+z
1/2+x,1/2+y,1/2+z
1/2+y,1/2-x,1/2-z
1/2-x,1/2-y,1/2+z
1/2-y,1/2+x,1/2-z
1/2+y,1/2+x,-z
1/2-y,1/2-x,-z
1/2-x,1/2+y,z
1/2+x,1/2-y,z
loop_
_atom_site_type_symbol
_atom_site_label
_atom_site_fract_x
_atom_site_fract_y
_atom_site_fract_z
Si Si1 0.500000 0.500000 0.000000
Si Si2 0.310573 0.406160 0.692303
Si Si3 0.961354 0.636479 0.233262
Si Si4 0.811387 0.311387 0.000000
Si Si5 0.657883 0.619298 0.939023
Si Si6 0.072180 0.085232 0.825375
Si Si7 0.956040 0.266360 0.104441
O O1 0.557117 0.571359 0.953088
O O2 0.388862 0.388862 0.750000
O O3 0.209505 0.396274 0.726242
O O4 0.331440 0.333427 0.633519
O O5 0.321646 0.510130 0.660464
O O6 0.895016 0.547359 0.218961
O O7 0.005411 0.673918 0.165410
O O8 0.827457 0.201410 0.990784
O O9 0.829437 0.379375 0.936141
O O10 0.741524 0.543055 0.944164
O O11 0.100965 0.100965 0.750000
O O12 0.164583 0.081873 0.870702
O O13 0.000000 0.000000 0.838523
#
# Coordination Sequence:
#
# PCOD8311279 Si02
#       7
#     4  16  16   8  16  16  16
#     4  12  24  48  74  96 140 208 232 290 352 428
#     4  12  21  40  73 110 133 169 227 298 367 410
#     4  11  25  46  67  98 144 186 226 282 363 430
#     4  12  30  44  66 108 142 190 246 284 348 432
#     4  12  24  45  72 101 142 182 238 295 356 418
#     4  11  17  34  68 110 140 167 213 292 361 410
#     4  12  24  46  67 100 148 181 236 298 341 428
#
# _framework density 22.426756000000001
#
# number of rings (size 3 to 8) (size 9 to 14) (size 15 to 20)
#    0.000    0.348    8.696    2.087    0.000    1.391 
#    3.130    1.739    0.000    1.043    0.000    0.000 
#    0.000    0.000    0.000    0.000    0.000    0.000 
#
# Total GULP energy -569919.015879 kJ/mol
# GULP energy per Si atom -12389.543823 kJ/mol
# Density = 2.237571 g / cm^3
# Si number density = 22.426756 Si / 1000 Ang^3
#
#
#
# Elastic Constant Matrix: (Units=GPa)
#
#
# Indices 1 2 3 4 5 6 
#
# 1 81.6633 37.5603 29.0389 0.0000 0.0000 0.0000
# 2 37.5603 81.6633 29.0389 0.0000 0.0000 0.0000
# 3 29.0389 29.0389 97.3278 0.0000 0.0000 0.0000
# 4 0.0000 0.0000 0.0000 30.4598 0.0000 0.0000
# 5 0.0000 0.0000 0.0000 0.0000 30.4598 0.0000
# 6 0.0000 0.0000 0.0000 0.0000 0.0000 30.9868
#
#
#
# Elastic Compliance Matrix: (Units=1/GPa)
#
#
# Indices 1 2 3 4 5 6 
#
# 1 0.016244 -0.006430 -0.002928 0.000000 0.000000 0.000000
# 2 -0.006430 0.016244 -0.002928 0.000000 0.000000 0.000000
# 3 -0.002928 -0.002928 0.012022 0.000000 0.000000 0.000000
# 4 0.000000 0.000000 0.000000 0.032830 0.000000 0.000000
# 5 0.000000 0.000000 0.000000 0.000000 0.032830 0.000000
# 6 0.000000 0.000000 0.000000 0.000000 0.000000 0.032272
#
#
# Mechanical properties :
#
#
# Convention : Reuss Voigt Hill
#
# Bulk Modulus (GPa) = 50.15717 50.21451 50.18584
# Shear Modulus (GPa) = 28.79180 29.38237 29.08708
#
# Velocity S-wave (km/s) = 3.58692 3.62352 3.60527
# Velocity P-wave (km/s) = 6.29032 6.32025 6.30530
#
# Compressibility (1/GPa) = 0.01993733
#
# Stress axis : x y z
#
# Youngs Moduli (GPa) = 61.56093 61.56093 83.18203
#
# Poissons Ratio (x) = 0.39584 0.24357
# Poissons Ratio (y) = 0.39584 0.24357
# Poissons Ratio (z) = 0.18026 0.18026
#
# Static dielectric constant tensor:
#      x y z
#    x 4.091980 0.000000 0.000000 
#    y 0.000000 4.091980 0.000000 
#    z 0.000000 0.000000 4.112560 
# 
# 
# High freq. dielectric constant tensor:
#      x y z
#    x 1.869640 0.000000 0.000000 
#    y 0.000000 1.869640 0.000000 
#    z 0.000000 0.000000 1.886890 
# 
# From -- ./inp_files/5405.got.cif
#   From: 2010.03.12/outbox.cif.g09.slc.cpg/sg120_3_cif.got.tgz:5405.got - 2010.04.06 16:00:44.
