data_PCOD8311804
_publ_section_title
;
Structure prediction by ZEFSAII (Michael W. Deem and Ramdas Pophale) SiO2 
 PCOD8311804
Probable space group: I -4 2 D
;
_chemical_formula_sum "Si O2"
_cell_formula_units_Z 60
_cell_length_a 18.724158
_cell_length_b 18.724158
_cell_length_c 8.731842
_cell_angle_alpha 90.000000
_cell_angle_beta 90.000000
_cell_angle_gamma 90.000000
_cell_volume 3061.332225
_symmetry_space_group_name_H-M "I -4 2 D"
_symmetry_group_IT_number 122
_symmetry_cell_setting 'tetragonal'
loop_
_space_group_symop_operation_xyz
x,y,z
y,-x,-z
-x,-y,z
-y,x,-z
x,1/2-y,1/4-z
-x,1/2+y,1/4-z
-y,1/2-x,1/4+z
y,1/2+x,1/4+z
1/2+x,1/2+y,1/2+z
1/2+y,1/2-x,1/2-z
1/2-x,1/2-y,1/2+z
1/2-y,1/2+x,1/2-z
1/2+x,-y,3/4-z
1/2-x,y,3/4-z
1/2-y,-x,3/4+z
1/2+y,x,3/4+z
loop_
_atom_site_type_symbol
_atom_site_label
_atom_site_fract_x
_atom_site_fract_y
_atom_site_fract_z
Si Si1 0.250000 0.085531 0.875000
Si Si2 0.825164 0.363326 0.935492
Si Si3 0.500000 0.500000 0.000000
Si Si4 0.940781 0.142366 0.563202
Si Si5 0.219817 0.010722 0.170629
O O1 0.193994 0.136302 0.791658
O O2 0.290189 0.032804 0.755822
O O3 0.750000 0.332962 0.875000
O O4 0.870016 0.376496 0.780803
O O5 0.815287 0.434862 0.036673
O O6 0.569298 0.516979 0.897085
O O7 0.927379 0.180854 0.726866
O O8 0.991094 0.195973 0.462945
#
# Coordination Sequence:
#
# PCOD8311804 Si02
#       5
#     8  16   4  16  16
#     4  10  26  40  60  94 132 160 220 260 322 396
#     4  11  21  43  63  90 124 168 210 262 318 380
#     4  12  16  32  60 102 104 152 224 258 292 392
#     4  10  20  35  67  88 120 162 214 252 314 381
#     4  10  20  44  58  89 130 169 197 267 326 380
#
# _framework density 19.599309999999999
#
# number of rings (size 3 to 8) (size 9 to 14) (size 15 to 20)
#    0.000    1.600    5.333    0.000    0.000    4.267 
#   16.800    0.000    0.000    1.600    0.000    0.000 
#    0.000    0.000    0.000    0.000    0.000    0.000 
#
# Total GULP energy -371685.407446 kJ/mol
# GULP energy per Si atom -12389.513582 kJ/mol
# Density = 1.955470 g / cm^3
# Si number density = 19.599310 Si / 1000 Ang^3
#
#
#
# Elastic Constant Matrix: (Units=GPa)
#
#
# Indices 1 2 3 4 5 6 
#
# 1 109.3367 51.8137 55.9802 0.0000 0.0000 0.0000
# 2 51.8137 109.3367 55.9802 0.0000 0.0000 0.0000
# 3 55.9802 55.9802 152.9563 0.0000 0.0000 0.0000
# 4 0.0000 0.0000 0.0000 28.6309 0.0000 0.0000
# 5 0.0000 0.0000 0.0000 0.0000 28.6309 0.0000
# 6 0.0000 0.0000 0.0000 0.0000 0.0000 32.8607
#
#
#
# Elastic Compliance Matrix: (Units=1/GPa)
#
#
# Indices 1 2 3 4 5 6 
#
# 1 0.012853 -0.004532 -0.003045 0.000000 0.000000 0.000000
# 2 -0.004532 0.012853 -0.003045 0.000000 0.000000 0.000000
# 3 -0.003045 -0.003045 0.008767 0.000000 0.000000 0.000000
# 4 0.000000 0.000000 0.000000 0.034927 0.000000 0.000000
# 5 0.000000 0.000000 0.000000 0.000000 0.034927 0.000000
# 6 0.000000 0.000000 0.000000 0.000000 0.000000 0.030432
#
#
# Mechanical properties :
#
#
# Convention : Reuss Voigt Hill
#
# Bulk Modulus (GPa) = 75.59937 77.68641 76.64289
# Shear Modulus (GPa) = 31.16955 31.88153 31.52554
#
# Velocity S-wave (km/s) = 3.99223 4.03757 4.01497
# Velocity P-wave (km/s) = 7.73995 7.83960 7.78993
#
# Compressibility (1/GPa) = 0.01322762
#
# Stress axis : x y z
#
# Youngs Moduli (GPa) = 77.80405 77.80405 114.06360
#
# Poissons Ratio (x) = 0.35257 0.34738
# Poissons Ratio (y) = 0.35257 0.34738
# Poissons Ratio (z) = 0.23695 0.23695
#
# Static dielectric constant tensor:
#      x y z
#    x 3.697880 0.000000 0.000000 
#    y 0.000000 3.697880 0.000000 
#    z 0.000000 0.000000 3.613310 
# 
# 
# High freq. dielectric constant tensor:
#      x y z
#    x 1.768030 0.000000 0.000000 
#    y 0.000000 1.768030 0.000000 
#    z 0.000000 0.000000 1.743750 
# 
# From -- ./inp_files/2359.got.cif
#   From: 2010.03.12/outbox.cif.g09.slc.cpg/sg122_2_cif.got.tgz:2359.got - 2010.04.06 16:17:16.
