data_PCOD8311285
_publ_section_title
;
Structure prediction by ZEFSAII (Michael W. Deem and Ramdas Pophale) SiO2 
 PCOD8311285
Probable space group: I -4 C 2
;
_chemical_formula_sum "Si O2"
_cell_formula_units_Z 92
_cell_length_a 13.786063
_cell_length_b 13.786063
_cell_length_c 29.302707
_cell_angle_alpha 90.000000
_cell_angle_beta 90.000000
_cell_angle_gamma 90.000000
_cell_volume 5569.141598
_symmetry_space_group_name_H-M "I -4 C 2"
_symmetry_group_IT_number 120
_symmetry_cell_setting 'tetragonal'
loop_
_space_group_symop_operation_xyz
x,y,z
y,-x,-z
-x,-y,z
-y,x,-z
y,x,1/2-z
-y,-x,1/2-z
-x,y,1/2+z
x,-y,1/2+z
1/2+x,1/2+y,1/2+z
1/2+y,1/2-x,1/2-z
1/2-x,1/2-y,1/2+z
1/2-y,1/2+x,1/2-z
1/2+y,1/2+x,-z
1/2-y,1/2-x,-z
1/2-x,1/2+y,z
1/2+x,1/2-y,z
loop_
_atom_site_type_symbol
_atom_site_label
_atom_site_fract_x
_atom_site_fract_y
_atom_site_fract_z
Si Si1 0.608298 0.996209 0.912805
Si Si2 0.301826 0.838907 0.353051
Si Si3 0.000000 0.000000 0.250000
Si Si4 0.000000 0.500000 0.500000
Si Si5 0.313309 0.847462 0.851394
Si Si6 0.685421 0.013522 0.699033
Si Si7 0.000000 0.500000 0.750000
Si Si8 0.000020 0.794881 0.209160
O O1 0.664525 0.899664 0.897227
O O2 0.500000 0.000000 0.890040
O O3 0.596286 0.998620 0.967935
O O4 0.669761 0.088440 0.896459
O O5 0.232652 0.752301 0.369043
O O6 0.395954 0.785217 0.332167
O O7 0.243493 0.905259 0.317143
O O8 0.000100 0.089170 0.213978
O O9 0.414862 0.823816 0.828332
O O10 0.244113 0.903084 0.815531
O O11 0.761744 0.997630 0.738669
O O12 0.581606 0.047982 0.718739
#
# Coordination Sequence:
#
# PCOD8311285 Si02
#       8
#    16  16   4   4  16  16   4  16
#     4   9  18  37  61  80 103 134 163 213 269 321
#     4  11  21  33  52  80 104 138 182 226 267 313
#     4  12  24  36  36  60 108 160 182 232 276 308
#     4   8  16  38  68  84 102 128 160 216 270 316
#     4  11  21  33  52  80 104 138 182 226 267 313
#     4  12  18  32  51  72 103 141 192 241 263 291
#     4  12  16  30  52  72  92 134 204 244 274 276
#     4  11  22  32  46  65 105 148 193 224 264 308
#
# _framework density 16.519601000000002
#
# number of rings (size 3 to 8) (size 9 to 14) (size 15 to 20)
#    0.522    0.696    5.217    3.130    0.000    1.391 
#    0.000    0.870    0.000    0.000    0.000    0.000 
#    0.000    5.565    0.000    0.000    0.000    0.000 
#
# Total GULP energy -570243.699710 kJ/mol
# GULP energy per Si atom -12396.602168 kJ/mol
# Density = 1.648200 g / cm^3
# Si number density = 16.519601 Si / 1000 Ang^3
#
#
#
# Elastic Constant Matrix: (Units=GPa)
#
#
# Indices 1 2 3 4 5 6 
#
# 1 108.2818 38.9625 39.8410 0.0000 0.0000 0.0000
# 2 38.9625 108.2818 39.8410 0.0000 0.0000 0.0000
# 3 39.8410 39.8410 102.3306 0.0000 0.0000 0.0000
# 4 0.0000 0.0000 0.0000 15.1577 0.0000 0.0000
# 5 0.0000 0.0000 0.0000 0.0000 15.1577 0.0000
# 6 0.0000 0.0000 0.0000 0.0000 0.0000 26.3700
#
#
#
# Elastic Compliance Matrix: (Units=1/GPa)
#
#
# Indices 1 2 3 4 5 6 
#
# 1 0.011515 -0.002911 -0.003350 0.000000 0.000000 0.000000
# 2 -0.002911 0.011515 -0.003350 0.000000 0.000000 0.000000
# 3 -0.003350 -0.003350 0.012381 0.000000 0.000000 0.000000
# 4 0.000000 0.000000 0.000000 0.065973 0.000000 0.000000
# 5 0.000000 0.000000 0.000000 0.000000 0.065973 0.000000
# 6 0.000000 0.000000 0.000000 0.000000 0.000000 0.037922
#
#
# Mechanical properties :
#
#
# Convention : Reuss Voigt Hill
#
# Bulk Modulus (GPa) = 61.76840 61.79810 61.78325
# Shear Modulus (GPa) = 21.74887 24.68706 23.21797
#
# Velocity S-wave (km/s) = 3.63236 3.86995 3.75304
# Velocity P-wave (km/s) = 7.42053 7.58016 7.50077
#
# Compressibility (1/GPa) = 0.01618951
#
# Stress axis : x y z
#
# Youngs Moduli (GPa) = 86.84219 86.84219 80.77041
#
# Poissons Ratio (x) = 0.25279 0.27058
# Poissons Ratio (y) = 0.25279 0.27058
# Poissons Ratio (z) = 0.29092 0.29092
#
# Static dielectric constant tensor:
#      x y z
#    x 3.258670 0.000000 0.000000 
#    y 0.000000 3.258670 0.000000 
#    z 0.000000 0.000000 2.767490 
# 
# 
# High freq. dielectric constant tensor:
#      x y z
#    x 1.640360 0.000000 0.000000 
#    y 0.000000 1.640360 0.000000 
#    z 0.000000 0.000000 1.596340 
# 
# From -- ./inp_files/6668.got.cif
#   From: 2010.03.12/outbox.cif.g09.slc.cpg/sg120_4_cif.got.tgz:6668.got - 2010.04.06 16:00:44.
