data_PCOD8311626
_publ_section_title
;
Structure prediction by ZEFSAII (Michael W. Deem and Ramdas Pophale) SiO2 
 PCOD8311626
Probable space group: I -4 2 M
;
_chemical_formula_sum "Si O2"
_cell_formula_units_Z 62
_cell_length_a 11.514525
_cell_length_b 11.514525
_cell_length_c 24.868050
_cell_angle_alpha 90.000000
_cell_angle_beta 90.000000
_cell_angle_gamma 90.000000
_cell_volume 3297.112653
_symmetry_space_group_name_H-M "I -4 2 M"
_symmetry_group_IT_number 121
_symmetry_cell_setting 'tetragonal'
loop_
_space_group_symop_operation_xyz
x,y,z
y,-x,-z
-x,-y,z
-y,x,-z
x,-y,-z
-x,y,-z
-y,-x,z
y,x,z
1/2+x,1/2+y,1/2+z
1/2+y,1/2-x,1/2-z
1/2-x,1/2-y,1/2+z
1/2-y,1/2+x,1/2-z
1/2+x,1/2-y,1/2-z
1/2-x,1/2+y,1/2-z
1/2-y,1/2-x,1/2+z
1/2+y,1/2+x,1/2+z
loop_
_atom_site_type_symbol
_atom_site_label
_atom_site_fract_x
_atom_site_fract_y
_atom_site_fract_z
Si Si1 0.000000 0.000000 0.500000
Si Si2 0.672077 0.672077 0.938247
Si Si3 0.909753 0.090248 0.779381
Si Si4 0.500000 0.000000 0.250000
Si Si5 0.872356 0.445025 0.552144
Si Si6 0.791300 0.208701 0.680554
Si Si7 0.804648 0.476542 0.670944
O O1 0.917502 0.082499 0.535326
O O2 0.804935 0.637760 0.953425
O O3 0.657496 0.657496 0.874491
O O4 0.852632 0.147369 0.728860
O O5 0.975289 0.178771 0.817702
O O6 0.000000 0.000000 0.754864
O O7 0.458338 0.897518 0.290546
O O8 0.806429 0.500000 0.500000
O O9 0.819099 0.493305 0.607287
O O10 0.000000 0.500000 0.551193
O O11 0.817933 0.343181 0.685920
#
# Coordination Sequence:
#
# PCOD8311626 Si02
#       7
#     2   8   8   4  16   8  16
#     4  12  20  40  60  92 128 152 204 260 298 384
#     4  10  24  39  63  94 124 162 204 257 316 363
#     4  12  24  37  64  94 123 157 208 255 304 372
#     4  12  20  36  62  88 120 168 200 242 304 380
#     4  10  21  41  66  88 120 166 208 254 309 369
#     4  10  22  41  57  87 125 161 195 254 311 360
#     4  11  22  38  61  89 123 160 207 250 306 366
#
# _framework density 18.804331000000001
#
# number of rings (size 3 to 8) (size 9 to 14) (size 15 to 20)
#    0.000    1.290    5.161    1.548    0.903    1.032 
#    0.000    1.290    0.000    0.000    0.000    0.000 
#    0.000    0.000    0.000    0.000    0.000    0.000 
#
# Total GULP energy -384162.661727 kJ/mol
# GULP energy per Si atom -12392.343927 kJ/mol
# Density = 1.876153 g / cm^3
# Si number density = 18.804331 Si / 1000 Ang^3
#
#
#
# Elastic Constant Matrix: (Units=GPa)
#
#
# Indices 1 2 3 4 5 6 
#
# 1 104.3454 50.7406 68.0976 0.0000 0.0000 0.0000
# 2 50.7406 104.3428 68.0976 0.0000 0.0000 0.0000
# 3 68.0976 68.0976 188.9332 0.0000 0.0000 0.0000
# 4 0.0000 0.0000 0.0000 23.7441 0.0000 0.0000
# 5 0.0000 0.0000 0.0000 0.0000 23.7423 0.0000
# 6 0.0000 0.0000 0.0000 0.0000 0.0000 32.7723
#
#
#
# Elastic Compliance Matrix: (Units=1/GPa)
#
#
# Indices 1 2 3 4 5 6 
#
# 1 0.014045 -0.004611 -0.003400 0.000000 0.000000 0.000000
# 2 -0.004611 0.014045 -0.003401 0.000000 0.000000 0.000000
# 3 -0.003400 -0.003401 0.007744 0.000000 0.000000 0.000000
# 4 0.000000 0.000000 0.000000 0.042116 0.000000 0.000000
# 5 0.000000 0.000000 0.000000 0.000000 0.042119 0.000000
# 6 0.000000 0.000000 0.000000 0.000000 0.000000 0.030514
#
#
# Mechanical properties :
#
#
# Convention : Reuss Voigt Hill
#
# Bulk Modulus (GPa) = 76.85764 85.72142 81.28953
# Shear Modulus (GPa) = 28.13064 30.09745 29.11404
#
# Velocity S-wave (km/s) = 3.87197 4.00504 3.93907
# Velocity P-wave (km/s) = 7.80708 8.18975 8.00071
#
# Compressibility (1/GPa) = 0.01301107
#
# Stress axis : x y z
#
# Youngs Moduli (GPa) = 71.20122 71.19888 129.13000
#
# Poissons Ratio (x) = 0.32827 0.43909
# Poissons Ratio (y) = 0.32828 0.43911
# Poissons Ratio (z) = 0.24211 0.24211
#
# Static dielectric constant tensor:
#      x y z
#    x 3.516530 0.000000 0.000000 
#    y 0.000000 3.516520 0.000000 
#    z 0.000000 0.000000 4.130730 
# 
# 
# High freq. dielectric constant tensor:
#      x y z
#    x 1.727260 0.000000 0.000000 
#    y 0.000000 1.727260 0.000000 
#    z 0.000000 0.000000 1.753030 
# 
# From -- ./inp_files/6999.got.cif
#   From: 2010.03.12/outbox.cif.g09.slc.cpg/sg121_4_cif.got.tgz:6999.got - 2010.04.06 16:06:48.
