data_PCOD8311710
_publ_section_title
;
Structure prediction by ZEFSAII (Michael W. Deem and Ramdas Pophale) SiO2 
 PCOD8311710
Probable space group: I -4 2 M
;
_chemical_formula_sum "Si O2"
_cell_formula_units_Z 52
_cell_length_a 16.685040
_cell_length_b 16.685040
_cell_length_c 8.883740
_cell_angle_alpha 90.000000
_cell_angle_beta 90.000000
_cell_angle_gamma 90.000000
_cell_volume 2473.149352
_symmetry_space_group_name_H-M "I -4 2 M"
_symmetry_group_IT_number 121
_symmetry_cell_setting 'tetragonal'
loop_
_space_group_symop_operation_xyz
x,y,z
y,-x,-z
-x,-y,z
-y,x,-z
x,-y,-z
-x,y,-z
-y,-x,z
y,x,z
1/2+x,1/2+y,1/2+z
1/2+y,1/2-x,1/2-z
1/2-x,1/2-y,1/2+z
1/2-y,1/2+x,1/2-z
1/2+x,1/2-y,1/2-z
1/2-x,1/2+y,1/2-z
1/2-y,1/2-x,1/2+z
1/2+y,1/2+x,1/2+z
loop_
_atom_site_type_symbol
_atom_site_label
_atom_site_fract_x
_atom_site_fract_y
_atom_site_fract_z
Si Si1 0.127360 0.127360 0.282628
Si Si2 0.295712 0.094306 0.144334
Si Si3 0.000000 0.000000 0.308112
Si Si4 0.286221 0.084979 0.801821
Si Si5 0.625343 0.374658 0.871589
O O1 0.211428 0.101453 0.221499
O O2 0.145296 0.145296 0.457874
O O3 0.061363 0.061363 0.223705
O O4 0.362591 0.153150 0.205932
O O5 0.322729 0.003980 0.182257
O O6 0.281002 0.117822 0.970967
O O7 0.057933 0.942068 0.401731
O O8 0.200009 0.088618 0.720271
#
# Coordination Sequence:
#
# PCOD8311710 Si02
#       5
#     8  16   4  16   8
#     4  12  23  42  68  98 134 169 212 261 321 384
#     4  11  25  44  66  95 129 170 217 265 322 380
#     4  12  25  40  69 106 133 168 209 258 321 384
#     4  11  25  44  66  95 129 170 217 265 322 380
#     4  12  23  42  68  98 134 169 212 261 321 384
#
# _framework density 21.025824
#
# number of rings (size 3 to 8) (size 9 to 14) (size 15 to 20)
#    0.000    0.615    3.077    5.077    0.000    4.308 
#    0.000    6.154    0.000    0.000    0.000    0.000 
#    0.000    0.000    0.000    0.000    0.000    0.000 
#
# Total GULP energy -322183.289932 kJ/mol
# GULP energy per Si atom -12391.664997 kJ/mol
# Density = 2.097797 g / cm^3
# Si number density = 21.025824 Si / 1000 Ang^3
#
#
#
# Elastic Constant Matrix: (Units=GPa)
#
#
# Indices 1 2 3 4 5 6 
#
# 1 79.3726 91.3715 60.4975 0.0000 0.0000 0.0000
# 2 91.3715 79.3744 60.4980 0.0000 0.0000 0.0000
# 3 60.4975 60.4980 171.9202 0.0000 0.0000 0.0000
# 4 0.0000 0.0000 0.0000 32.4616 0.0000 0.0000
# 5 0.0000 0.0000 0.0000 0.0000 32.4616 0.0000
# 6 0.0000 0.0000 0.0000 0.0000 0.0000 46.3304
#
#
#
# Elastic Compliance Matrix: (Units=1/GPa)
#
#
# Indices 1 2 3 4 5 6 
#
# 1 -0.037773 0.045575 -0.002746 0.000000 0.000000 0.000000
# 2 0.045575 -0.037772 -0.002746 0.000000 0.000000 0.000000
# 3 -0.002746 -0.002746 0.007749 0.000000 0.000000 0.000000
# 4 0.000000 0.000000 0.000000 0.030806 0.000000 0.000000
# 5 0.000000 0.000000 0.000000 0.000000 0.030806 0.000000
# 6 0.000000 0.000000 0.000000 0.000000 0.000000 0.021584
#
#
# Mechanical properties :
#
#
# Convention : Reuss Voigt Hill
#
# Bulk Modulus (GPa) = 80.83277 83.93348 82.38312
# Shear Modulus (GPa) = -82.44956 30.13739 -26.15608
#
# Velocity S-wave (km/s) = -6.26886 3.79007 -3.53086
# Velocity P-wave (km/s) = 3.72427 7.69147 4.75860
#
# Compressibility (1/GPa) = 0.01237122
#
# Stress axis : x y z
#
# Youngs Moduli (GPa) = -26.47415 -26.47479 129.04953
#
# Poissons Ratio (x) = 1.20658 0.35431
# Poissons Ratio (y) = 1.20655 0.35432
# Poissons Ratio (z) = -0.07269 -0.07269
#
# Static dielectric constant tensor:
#      x y z
#    x 3.881670 0.000000 0.000000 
#    y 0.000000 3.881700 0.000000 
#    z 0.000000 0.000000 3.923300 
# 
# 
# High freq. dielectric constant tensor:
#      x y z
#    x 1.836640 0.000000 0.000000 
#    y 0.000000 1.836640 0.000000 
#    z 0.000000 0.000000 1.833300 
# 
# From -- ./inp_files/1292.got.cif
#   From: 2010.03.12/outbox.cif.g09.slc.cpg/sg121_1_cif.got.tgz:1292.got - 2010.04.06 16:06:48.
