data_PCOD8311658
_publ_section_title
;
Structure prediction by ZEFSAII (Michael W. Deem and Ramdas Pophale) SiO2 
 PCOD8311658
Probable space group: I -4 2 M
;
_chemical_formula_sum "Si O2"
_cell_formula_units_Z 40
_cell_length_a 9.893155
_cell_length_b 9.893155
_cell_length_c 19.868063
_cell_angle_alpha 90.000000
_cell_angle_beta 90.000000
_cell_angle_gamma 90.000000
_cell_volume 1944.577047
_symmetry_space_group_name_H-M "I -4 2 M"
_symmetry_group_IT_number 121
_symmetry_cell_setting 'tetragonal'
loop_
_space_group_symop_operation_xyz
x,y,z
y,-x,-z
-x,-y,z
-y,x,-z
x,-y,-z
-x,y,-z
-y,-x,z
y,x,z
1/2+x,1/2+y,1/2+z
1/2+y,1/2-x,1/2-z
1/2-x,1/2-y,1/2+z
1/2-y,1/2+x,1/2-z
1/2+x,1/2-y,1/2-z
1/2-x,1/2+y,1/2-z
1/2-y,1/2-x,1/2+z
1/2+y,1/2+x,1/2+z
loop_
_atom_site_type_symbol
_atom_site_label
_atom_site_fract_x
_atom_site_fract_y
_atom_site_fract_z
Si Si1 0.500000 0.500000 0.000000
Si Si2 0.077211 0.709516 0.646580
Si Si3 0.500000 0.500000 0.500000
Si Si4 0.000000 0.500000 0.250000
Si Si5 0.793475 0.206526 0.041835
Si Si6 0.816129 0.816129 0.589383
O O1 0.409332 0.590669 0.954835
O O2 0.149483 0.850518 0.669660
O O3 0.092471 0.598507 0.704692
O O4 0.154570 0.657403 0.578700
O O5 0.916150 0.725440 0.634544
O O6 0.407758 0.592243 0.549002
O O7 0.773282 0.226719 0.961488
#
# Coordination Sequence:
#
# PCOD8311658 Si02
#       6
#     2  16   2   4   8   8
#     4  12  12  36  60 110 120 132 212 276 346 364
#     4  10  24  43  67  98 128 178 230 273 328 394
#     4  12  28  44  56 102 144 172 200 272 374 408
#     4  12  28  44  58  96 144 196 228 246 336 408
#     4  10  24  43  67 100 131 168 219 280 360 383
#     4  12  18  39  75 105 127 156 226 302 338 384
#
# _framework density 20.570028000000001
#
# number of rings (size 3 to 8) (size 9 to 14) (size 15 to 20)
#    1.200    0.000    6.000    0.000    8.400    0.000 
#    3.600    0.000    0.000    0.000    0.000    0.000 
#    0.000    0.000    0.000    0.000    0.000    0.000 
#
# Total GULP energy -247870.880543 kJ/mol
# GULP energy per Si atom -12393.544027 kJ/mol
# Density = 2.052321 g / cm^3
# Si number density = 20.570028 Si / 1000 Ang^3
#
#
#
# Elastic Constant Matrix: (Units=GPa)
#
#
# Indices 1 2 3 4 5 6 
#
# 1 78.9580 54.7569 40.5610 0.0000 0.0000 0.0000
# 2 54.7569 78.9578 40.5599 0.0000 0.0000 0.0000
# 3 40.5610 40.5599 81.8428 0.0000 0.0000 0.0000
# 4 0.0000 0.0000 0.0000 32.2500 0.0000 0.0000
# 5 0.0000 0.0000 0.0000 0.0000 32.2503 0.0000
# 6 0.0000 0.0000 0.0000 0.0000 0.0000 47.3731
#
#
#
# Elastic Compliance Matrix: (Units=1/GPa)
#
#
# Indices 1 2 3 4 5 6 
#
# 1 0.026007 -0.015313 -0.005300 0.000000 0.000000 0.000000
# 2 -0.015313 0.026007 -0.005299 0.000000 0.000000 0.000000
# 3 -0.005300 -0.005299 0.017472 0.000000 0.000000 0.000000
# 4 0.000000 0.000000 0.000000 0.031008 0.000000 0.000000
# 5 0.000000 0.000000 0.000000 0.000000 0.031007 0.000000
# 6 0.000000 0.000000 0.000000 0.000000 0.000000 0.021109
#
#
# Mechanical properties :
#
#
# Convention : Reuss Voigt Hill
#
# Bulk Modulus (GPa) = 56.62454 56.83492 56.72973
# Shear Modulus (GPa) = 23.77299 29.30006 26.53652
#
# Velocity S-wave (km/s) = 3.40326 3.77822 3.59563
# Velocity P-wave (km/s) = 6.55975 6.83544 6.69902
#
# Compressibility (1/GPa) = 0.01766019
#
# Stress axis : x y z
#
# Youngs Moduli (GPa) = 38.45055 38.45114 57.23600
#
# Poissons Ratio (x) = 0.58882 0.30336
# Poissons Ratio (y) = 0.58881 0.30331
# Poissons Ratio (z) = 0.20379 0.20377
#
# Static dielectric constant tensor:
#      x y z
#    x 3.644760 0.000000 0.000000 
#    y 0.000000 3.644760 0.000000 
#    z 0.000000 0.000000 3.597630 
# 
# 
# High freq. dielectric constant tensor:
#      x y z
#    x 1.795430 0.000000 0.000000 
#    y 0.000000 1.795430 0.000000 
#    z 0.000000 0.000000 1.785320 
# 
# From -- ./inp_files/4878.got.cif
#   From: 2010.03.12/outbox.cif.g09.slc.cpg/sg121_3_cif.got.tgz:4878.got - 2010.04.06 16:06:48.
