data_PCOD8311629
_publ_section_title
;
Structure prediction by ZEFSAII (Michael W. Deem and Ramdas Pophale) SiO2 
 PCOD8311629
Probable space group: I -4 2 M
;
_chemical_formula_sum "Si O2"
_cell_formula_units_Z 80
_cell_length_a 18.275207
_cell_length_b 18.275207
_cell_length_c 13.508922
_cell_angle_alpha 90.000000
_cell_angle_beta 90.000000
_cell_angle_gamma 90.000000
_cell_volume 4511.752875
_symmetry_space_group_name_H-M "I -4 2 M"
_symmetry_group_IT_number 121
_symmetry_cell_setting 'tetragonal'
loop_
_space_group_symop_operation_xyz
x,y,z
y,-x,-z
-x,-y,z
-y,x,-z
x,-y,-z
-x,y,-z
-y,-x,z
y,x,z
1/2+x,1/2+y,1/2+z
1/2+y,1/2-x,1/2-z
1/2-x,1/2-y,1/2+z
1/2-y,1/2+x,1/2-z
1/2+x,1/2-y,1/2-z
1/2-x,1/2+y,1/2-z
1/2-y,1/2-x,1/2+z
1/2+y,1/2+x,1/2+z
loop_
_atom_site_type_symbol
_atom_site_label
_atom_site_fract_x
_atom_site_fract_y
_atom_site_fract_z
Si Si1 0.643094 0.104605 0.322772
Si Si2 0.617093 0.503498 0.614434
Si Si3 0.226583 0.104884 0.818260
Si Si4 0.037000 0.421185 0.358961
Si Si5 0.828483 0.417885 0.507852
O O1 0.724382 0.113346 0.279629
O O2 0.582396 0.103587 0.237187
O O3 0.624035 0.169105 0.401840
O O4 0.639427 0.025650 0.376129
O O5 0.640078 0.500000 0.500000
O O6 0.551803 0.448198 0.635182
O O7 0.585576 0.585576 0.641605
O O8 0.688236 0.476287 0.676871
O O9 0.165006 0.165006 0.812973
O O10 0.275047 0.122806 0.915608
O O11 0.088503 0.422435 0.453844
O O12 0.000000 0.500000 0.343746
O O13 0.797848 0.500000 0.500000
#
# Coordination Sequence:
#
# PCOD8311629 Si02
#       5
#    16  16  16  16  16
#     4  11  19  31  50  74 103 136 166 212 258 309
#     4   8  14  28  51  73  94 126 171 223 266 297
#     4  10  22  35  47  72 108 142 178 211 252 318
#     4  11  18  30  50  79 106 123 161 217 260 303
#     4  11  21  31  53  78 103 131 172 213 266 310
#
# _framework density 17.731466000000001
#
# number of rings (size 3 to 8) (size 9 to 14) (size 15 to 20)
#    0.000    1.800    4.000    3.000    0.000    0.800 
#    0.000    0.000    0.000    9.600    0.000    1.400 
#    0.000    0.000    0.000    0.000    0.000   38.600 
#
# Total GULP energy -495553.689102 kJ/mol
# GULP energy per Si atom -12388.842228 kJ/mol
# Density = 1.769111 g / cm^3
# Si number density = 17.731466 Si / 1000 Ang^3
#
#
#
# Elastic Constant Matrix: (Units=GPa)
#
#
# Indices 1 2 3 4 5 6 
#
# 1 85.6610 36.7310 34.2741 0.0000 0.0000 0.0000
# 2 36.7310 85.6611 34.2741 0.0000 0.0000 0.0000
# 3 34.2741 34.2741 81.3538 0.0000 0.0000 0.0000
# 4 0.0000 0.0000 0.0000 18.1660 0.0000 0.0000
# 5 0.0000 0.0000 0.0000 0.0000 18.1666 0.0000
# 6 0.0000 0.0000 0.0000 0.0000 0.0000 17.8321
#
#
#
# Elastic Compliance Matrix: (Units=1/GPa)
#
#
# Indices 1 2 3 4 5 6 
#
# 1 0.015566 -0.004872 -0.004505 0.000000 0.000000 0.000000
# 2 -0.004872 0.015566 -0.004505 0.000000 0.000000 0.000000
# 3 -0.004505 -0.004505 0.016088 0.000000 0.000000 0.000000
# 4 0.000000 0.000000 0.000000 0.055048 0.000000 0.000000
# 5 0.000000 0.000000 0.000000 0.000000 0.055046 0.000000
# 6 0.000000 0.000000 0.000000 0.000000 0.000000 0.056079
#
#
# Mechanical properties :
#
#
# Convention : Reuss Voigt Hill
#
# Bulk Modulus (GPa) = 51.40177 51.47047 51.43612
# Shear Modulus (GPa) = 20.19053 20.65940 20.42496
#
# Velocity S-wave (km/s) = 3.37810 3.41710 3.39765
# Velocity P-wave (km/s) = 6.65337 6.68278 6.66809
#
# Compressibility (1/GPa) = 0.01945458
#
# Stress axis : x y z
#
# Youngs Moduli (GPa) = 64.24454 64.24459 62.15794
#
# Poissons Ratio (x) = 0.31299 0.28004
# Poissons Ratio (y) = 0.31299 0.28004
# Poissons Ratio (z) = 0.28944 0.28944
#
# Static dielectric constant tensor:
#      x y z
#    x 3.364820 0.000000 0.000000 
#    y 0.000000 3.364810 0.000000 
#    z 0.000000 0.000000 3.269460 
# 
# 
# High freq. dielectric constant tensor:
#      x y z
#    x 1.671240 0.000000 0.000000 
#    y 0.000000 1.671240 0.000000 
#    z 0.000000 0.000000 1.670750 
# 
# From -- ./inp_files/4252.got.cif
#   From: 2010.03.12/outbox.cif.g09.slc.cpg/sg121_3_cif.got.tgz:4252.got - 2010.04.06 16:06:48.
