data_PCOD8311772
_publ_section_title
;
Structure prediction by ZEFSAII (Michael W. Deem and Ramdas Pophale) SiO2 
 PCOD8311772
Probable space group: I -4 2 D
;
_chemical_formula_sum "Si O2"
_cell_formula_units_Z 96
_cell_length_a 17.187207
_cell_length_b 17.187207
_cell_length_c 16.212049
_cell_angle_alpha 90.000000
_cell_angle_beta 90.000000
_cell_angle_gamma 90.000000
_cell_volume 4789.040644
_symmetry_space_group_name_H-M "I -4 2 D"
_symmetry_group_IT_number 122
_symmetry_cell_setting 'tetragonal'
loop_
_space_group_symop_operation_xyz
x,y,z
y,-x,-z
-x,-y,z
-y,x,-z
x,1/2-y,1/4-z
-x,1/2+y,1/4-z
-y,1/2-x,1/4+z
y,1/2+x,1/4+z
1/2+x,1/2+y,1/2+z
1/2+y,1/2-x,1/2-z
1/2-x,1/2-y,1/2+z
1/2-y,1/2+x,1/2-z
1/2+x,-y,3/4-z
1/2-x,y,3/4-z
1/2-y,-x,3/4+z
1/2+y,x,3/4+z
loop_
_atom_site_type_symbol
_atom_site_label
_atom_site_fract_x
_atom_site_fract_y
_atom_site_fract_z
Si Si1 0.861768 0.250000 0.125000
Si Si2 0.000000 0.500000 0.557639
Si Si3 0.397301 0.521910 0.046968
Si Si4 0.776199 0.348027 0.244005
Si Si5 0.862119 0.962885 0.779348
Si Si6 0.130213 0.865921 0.843733
Si Si7 0.004886 0.250368 0.363278
O O1 0.808150 0.269279 0.203245
O O2 0.913071 0.173299 0.145866
O O3 0.062597 0.545004 0.615318
O O4 0.052192 0.437176 0.504400
O O5 0.304783 0.527201 0.058497
O O6 0.432200 0.579333 0.977120
O O7 0.830983 0.375550 0.317531
O O8 0.690277 0.327209 0.278247
O O9 0.781777 0.415474 0.175178
O O10 0.797979 0.959386 0.706885
O O11 0.884995 0.048452 0.810462
O O12 0.050182 0.818238 0.851696
#
# Coordination Sequence:
#
# PCOD8311772 Si02
#       7
#     8   8  16  16  16  16  16
#     4  12  22  38  58  86 126 154 202 258 314 366
#     4   8  17  32  54  83 108 146 192 246 300 351
#     4   8  16  33  59  86 114 147 199 254 302 361
#     4  10  23  37  56  86 117 158 201 242 306 370
#     4  10  20  35  57  81 113 155 196 251 297 365
#     4  10  21  39  57  80 120 154 197 242 306 365
#     4  10  19  37  60  82 115 162 197 244 307 356
#
# _framework density 20.045767999999999
#
# number of rings (size 3 to 8) (size 9 to 14) (size 15 to 20)
#    0.000    2.500    1.667    2.000    2.333    1.333 
#    0.000    0.000    0.000    0.000    0.000    0.000 
#    0.000    0.000    0.000    0.000    0.000    0.000 
#
# Total GULP energy -594648.408039 kJ/mol
# GULP energy per Si atom -12388.508501 kJ/mol
# Density = 2.000014 g / cm^3
# Si number density = 20.045768 Si / 1000 Ang^3
#
#
#
# Elastic Constant Matrix: (Units=GPa)
#
#
# Indices 1 2 3 4 5 6 
#
# 1 90.9161 53.3697 46.2718 0.0000 0.0000 0.0000
# 2 53.3697 90.9161 46.2718 0.0000 0.0000 0.0000
# 3 46.2718 46.2718 88.6515 0.0000 0.0000 0.0000
# 4 0.0000 0.0000 0.0000 29.1604 0.0000 0.0000
# 5 0.0000 0.0000 0.0000 0.0000 29.1604 0.0000
# 6 0.0000 0.0000 0.0000 0.0000 0.0000 30.0641
#
#
#
# Elastic Compliance Matrix: (Units=1/GPa)
#
#
# Indices 1 2 3 4 5 6 
#
# 1 0.018526 -0.008108 -0.005438 0.000000 0.000000 0.000000
# 2 -0.008108 0.018526 -0.005438 0.000000 0.000000 0.000000
# 3 -0.005438 -0.005438 0.016957 0.000000 0.000000 0.000000
# 4 0.000000 0.000000 0.000000 0.034293 0.000000 0.000000
# 5 0.000000 0.000000 0.000000 0.000000 0.034293 0.000000
# 6 0.000000 0.000000 0.000000 0.000000 0.000000 0.033262
#
#
# Mechanical properties :
#
#
# Convention : Reuss Voigt Hill
#
# Bulk Modulus (GPa) = 62.33624 62.47894 62.40759
# Shear Modulus (GPa) = 25.10392 25.98166 25.54279
#
# Velocity S-wave (km/s) = 3.54267 3.60407 3.57350
# Velocity P-wave (km/s) = 6.92087 6.96813 6.94454
#
# Compressibility (1/GPa) = 0.01604203
#
# Stress axis : x y z
#
# Youngs Moduli (GPa) = 53.97780 53.97780 58.97317
#
# Poissons Ratio (x) = 0.43763 0.32070
# Poissons Ratio (y) = 0.43763 0.32070
# Poissons Ratio (z) = 0.29353 0.29353
#
# Static dielectric constant tensor:
#      x y z
#    x 3.523390 0.000000 0.000000 
#    y 0.000000 3.523390 0.000000 
#    z 0.000000 0.000000 3.856760 
# 
# 
# High freq. dielectric constant tensor:
#      x y z
#    x 1.763560 0.000000 0.000000 
#    y 0.000000 1.763560 0.000000 
#    z 0.000000 0.000000 1.791410 
# 
# From -- ./inp_files/6343.got.cif
#   From: 2010.03.12/outbox.cif.g09.slc.cpg/sg122_4_cif.got.tgz:6343.got - 2010.04.06 16:17:16.
