data_PCOD8311791
_publ_section_title
;
Structure prediction by ZEFSAII (Michael W. Deem and Ramdas Pophale) SiO2 
 PCOD8311791
Probable space group: I -4 2 D
;
_chemical_formula_sum "Si O2"
_cell_formula_units_Z 64
_cell_length_a 16.597556
_cell_length_b 16.597556
_cell_length_c 13.493908
_cell_angle_alpha 90.000000
_cell_angle_beta 90.000000
_cell_angle_gamma 90.000000
_cell_volume 3717.286463
_symmetry_space_group_name_H-M "I -4 2 D"
_symmetry_group_IT_number 122
_symmetry_cell_setting 'tetragonal'
loop_
_space_group_symop_operation_xyz
x,y,z
y,-x,-z
-x,-y,z
-y,x,-z
x,1/2-y,1/4-z
-x,1/2+y,1/4-z
-y,1/2-x,1/4+z
y,1/2+x,1/4+z
1/2+x,1/2+y,1/2+z
1/2+y,1/2-x,1/2-z
1/2-x,1/2-y,1/2+z
1/2-y,1/2+x,1/2-z
1/2+x,-y,3/4-z
1/2-x,y,3/4-z
1/2-y,-x,3/4+z
1/2+y,x,3/4+z
loop_
_atom_site_type_symbol
_atom_site_label
_atom_site_fract_x
_atom_site_fract_y
_atom_site_fract_z
Si Si1 0.157701 0.016541 0.390272
Si Si2 0.129413 0.838288 0.348891
Si Si3 0.541216 0.843133 0.354813
Si Si4 0.188706 0.233065 0.462312
O O1 0.250000 0.045729 0.375000
O O2 0.095469 0.084284 0.349692
O O3 0.146042 0.933002 0.332219
O O4 0.131955 0.003720 0.503840
O O5 0.158805 0.809660 0.458658
O O6 0.182573 0.792395 0.266165
O O7 0.035252 0.819378 0.325990
O O8 0.599178 0.766476 0.336381
O O9 0.250000 0.216137 0.375000
#
# Coordination Sequence:
#
# PCOD8311791 Si02
#       4
#    16  16  16  16
#     4  11  18  29  44  77 112 131 157 199 270 319
#     4  10  20  32  48  80 105 131 172 208 250 320
#     4  11  19  27  50  75 105 133 159 210 260 315
#     4  10  20  34  53  72 107 140 166 213 260 302
#
# _framework density 17.216858999999999
#
# number of rings (size 3 to 8) (size 9 to 14) (size 15 to 20)
#    0.000    1.500   10.000    1.500    0.000    0.000 
#    0.000    0.000    5.500    0.000    0.000    0.000 
#    0.000    0.000    0.000    0.000    0.000    0.000 
#
# Total GULP energy -396443.861311 kJ/mol
# GULP energy per Si atom -12388.870666 kJ/mol
# Density = 1.717767 g / cm^3
# Si number density = 17.216859 Si / 1000 Ang^3
#
#
#
# Elastic Constant Matrix: (Units=GPa)
#
#
# Indices 1 2 3 4 5 6 
#
# 1 115.1511 27.3655 39.1716 0.0000 0.0000 0.0000
# 2 27.3655 115.1511 39.1716 0.0000 0.0000 0.0000
# 3 39.1716 39.1716 47.3331 0.0000 0.0000 0.0000
# 4 0.0000 0.0000 0.0000 13.0916 0.0000 0.0000
# 5 0.0000 0.0000 0.0000 0.0000 13.0916 0.0000
# 6 0.0000 0.0000 0.0000 0.0000 0.0000 19.9926
#
#
#
# Elastic Compliance Matrix: (Units=1/GPa)
#
#
# Indices 1 2 3 4 5 6 
#
# 1 0.012132 0.000741 -0.010653 0.000000 0.000000 0.000000
# 2 0.000741 0.012132 -0.010653 0.000000 0.000000 0.000000
# 3 -0.010653 -0.010653 0.038760 0.000000 0.000000 0.000000
# 4 0.000000 0.000000 0.000000 0.076385 0.000000 0.000000
# 5 0.000000 0.000000 0.000000 0.000000 0.076385 0.000000
# 6 0.000000 0.000000 0.000000 0.000000 0.000000 0.050019
#
#
# Mechanical properties :
#
#
# Convention : Reuss Voigt Hill
#
# Bulk Modulus (GPa) = 45.67809 54.33920 50.00864
# Shear Modulus (GPa) = 15.91134 20.69694 18.30414
#
# Velocity S-wave (km/s) = 3.04332 3.47094 3.26414
# Velocity P-wave (km/s) = 6.24001 6.90604 6.58145
#
# Compressibility (1/GPa) = 0.02189233
#
# Stress axis : x y z
#
# Youngs Moduli (GPa) = 82.42533 82.42533 25.79997
#
# Poissons Ratio (x) = -0.06106 0.27486
# Poissons Ratio (y) = -0.06106 0.27486
# Poissons Ratio (z) = 0.87811 0.87811
#
# Static dielectric constant tensor:
#      x y z
#    x 3.336050 0.000000 0.000000 
#    y 0.000000 3.336050 0.000000 
#    z 0.000000 0.000000 2.790790 
# 
# 
# High freq. dielectric constant tensor:
#      x y z
#    x 1.663630 0.000000 0.000000 
#    y 0.000000 1.663630 0.000000 
#    z 0.000000 0.000000 1.600940 
# 
# From -- ./inp_files/4057.got.cif
#   From: 2010.03.12/outbox.cif.g09.slc.cpg/sg122_3_cif.got.tgz:4057.got - 2010.04.06 16:17:16.
