data_PCOD8311307
_publ_section_title
;
Structure prediction by ZEFSAII (Michael W. Deem and Ramdas Pophale) SiO2 
 PCOD8311307
Probable space group: I -4 C 2
;
_chemical_formula_sum "Si O2"
_cell_formula_units_Z 112
_cell_length_a 14.492099
_cell_length_b 14.492099
_cell_length_c 24.367110
_cell_angle_alpha 90.000000
_cell_angle_beta 90.000000
_cell_angle_gamma 90.000000
_cell_volume 5117.603187
_symmetry_space_group_name_H-M "I -4 C 2"
_symmetry_group_IT_number 120
_symmetry_cell_setting 'tetragonal'
loop_
_space_group_symop_operation_xyz
x,y,z
y,-x,-z
-x,-y,z
-y,x,-z
y,x,1/2-z
-y,-x,1/2-z
-x,y,1/2+z
x,-y,1/2+z
1/2+x,1/2+y,1/2+z
1/2+y,1/2-x,1/2-z
1/2-x,1/2-y,1/2+z
1/2-y,1/2+x,1/2-z
1/2+y,1/2+x,-z
1/2-y,1/2-x,-z
1/2-x,1/2+y,z
1/2+x,1/2-y,z
loop_
_atom_site_type_symbol
_atom_site_label
_atom_site_fract_x
_atom_site_fract_y
_atom_site_fract_z
Si Si1 0.529236 0.726662 0.087070
Si Si2 0.580490 0.786646 0.794105
Si Si3 0.487966 0.245422 0.959349
Si Si4 0.337170 0.651000 0.114657
Si Si5 0.240532 0.621648 0.725873
Si Si6 0.667882 0.730968 0.397309
Si Si7 0.580966 0.071088 0.605856
O O1 0.444229 0.676968 0.117101
O O2 0.620558 0.671724 0.103405
O O3 0.535334 0.829251 0.110177
O O4 0.516366 0.727083 0.022143
O O5 0.628337 0.698682 0.823818
O O6 0.487952 0.757058 0.761569
O O7 0.651331 0.830523 0.751772
O O8 0.550954 0.861534 0.839404
O O9 0.438375 0.325603 0.924047
O O10 0.595096 0.236327 0.942755
O O11 0.437402 0.148085 0.947021
O O12 0.275345 0.733156 0.088395
O O13 0.333618 0.666383 0.750000
O O14 0.232688 0.635238 0.661191
O O15 0.500000 0.000000 0.599345
#
# Coordination Sequence:
#
# PCOD8311307 Si02
#       7
#    16  16  16  16  16  16  16
#     4  12  25  40  76 101 141 203 234 287 373 424
#     4  11  26  47  73 103 142 190 234 304 361 433
#     4  11  24  44  66 104 149 190 241 295 354 431
#     4  11  24  47  68 103 149 184 241 302 353 431
#     4  12  25  46  76 104 141 188 243 292 366 427
#     4  12  24  46  70 103 149 188 240 302 353 427
#     4  11  23  41  67 106 146 177 243 307 350 424
#
# _framework density 21.885245000000001
#
# number of rings (size 3 to 8) (size 9 to 14) (size 15 to 20)
#    0.000    0.571    7.143    2.143    2.000    5.714 
#    0.000    1.429    0.000    0.000    0.000    0.000 
#    0.000    0.000    0.000    0.000    0.000    0.000 
#
# Total GULP energy -694728.748300 kJ/mol
# GULP energy per Si atom -12405.870505 kJ/mol
# Density = 2.183543 g / cm^3
# Si number density = 21.885245 Si / 1000 Ang^3
#
#
#
# Elastic Constant Matrix: (Units=GPa)
#
#
# Indices 1 2 3 4 5 6 
#
# 1 124.6374 47.8080 37.1125 0.0000 0.0000 0.0000
# 2 47.8080 124.6382 37.1114 0.0000 0.0000 0.0000
# 3 37.1125 37.1114 89.3957 0.0000 0.0000 0.0000
# 4 0.0000 0.0000 0.0000 33.9563 0.0000 0.0000
# 5 0.0000 0.0000 0.0000 0.0000 33.9562 0.0000
# 6 0.0000 0.0000 0.0000 0.0000 0.0000 42.1365
#
#
#
# Elastic Compliance Matrix: (Units=1/GPa)
#
#
# Indices 1 2 3 4 5 6 
#
# 1 0.010038 -0.002978 -0.002931 0.000000 0.000000 0.000000
# 2 -0.002978 0.010038 -0.002931 0.000000 0.000000 0.000000
# 3 -0.002931 -0.002931 0.013620 0.000000 0.000000 0.000000
# 4 0.000000 0.000000 0.000000 0.029450 0.000000 0.000000
# 5 0.000000 0.000000 0.000000 0.000000 0.029450 0.000000
# 6 0.000000 0.000000 0.000000 0.000000 0.000000 0.023732
#
#
# Mechanical properties :
#
#
# Convention : Reuss Voigt Hill
#
# Bulk Modulus (GPa) = 62.43579 64.74833 63.59206
# Shear Modulus (GPa) = 35.88177 36.45242 36.16709
#
# Velocity S-wave (km/s) = 4.05352 4.08562 4.06960
# Velocity P-wave (km/s) = 7.10624 7.20458 7.15558
#
# Compressibility (1/GPa) = 0.01601645
#
# Stress axis : x y z
#
# Youngs Moduli (GPa) = 99.61905 99.62061 73.42205
#
# Poissons Ratio (x) = 0.29663 0.21522
# Poissons Ratio (y) = 0.29663 0.21520
# Poissons Ratio (z) = 0.29201 0.29199
#
# Static dielectric constant tensor:
#      x y z
#    x 4.087330 0.000000 0.000000 
#    y 0.000000 4.087320 0.000000 
#    z 0.000000 0.000000 3.877140 
# 
# 
# High freq. dielectric constant tensor:
#      x y z
#    x 1.866630 0.000000 0.000000 
#    y 0.000000 1.866630 0.000000 
#    z 0.000000 0.000000 1.856150 
# 
# From -- ./inp_files/5947.got.cif
#   From: 2010.03.12/outbox.cif.g09.slc.cpg/sg120_3_cif.got.tgz:5947.got - 2010.04.06 16:00:44.
