data_PCOD8311209
_publ_section_title
;
Structure prediction by ZEFSAII (Michael W. Deem and Ramdas Pophale) SiO2 
 PCOD8311209
Probable space group: I -4 C 2
;
_chemical_formula_sum "Si O2"
_cell_formula_units_Z 96
_cell_length_a 20.090706
_cell_length_b 20.090706
_cell_length_c 13.489653
_cell_angle_alpha 90.000000
_cell_angle_beta 90.000000
_cell_angle_gamma 90.000000
_cell_volume 5444.915886
_symmetry_space_group_name_H-M "I -4 C 2"
_symmetry_group_IT_number 120
_symmetry_cell_setting 'tetragonal'
loop_
_space_group_symop_operation_xyz
x,y,z
y,-x,-z
-x,-y,z
-y,x,-z
y,x,1/2-z
-y,-x,1/2-z
-x,y,1/2+z
x,-y,1/2+z
1/2+x,1/2+y,1/2+z
1/2+y,1/2-x,1/2-z
1/2-x,1/2-y,1/2+z
1/2-y,1/2+x,1/2-z
1/2+y,1/2+x,-z
1/2-y,1/2-x,-z
1/2-x,1/2+y,z
1/2+x,1/2-y,z
loop_
_atom_site_type_symbol
_atom_site_label
_atom_site_fract_x
_atom_site_fract_y
_atom_site_fract_z
Si Si1 0.903043 0.458177 0.240953
Si Si2 0.501921 0.606443 0.498936
Si Si3 0.192114 0.912953 0.863700
Si Si4 0.574678 0.166430 0.067642
Si Si5 0.166811 0.562932 0.041470
Si Si6 0.805469 0.918435 0.136075
O O1 0.918719 0.530215 0.286030
O O2 0.861653 0.417837 0.321829
O O3 0.863196 0.467540 0.140683
O O4 0.562144 0.559650 0.461436
O O5 0.525098 0.651512 0.590884
O O6 0.479643 0.650600 0.405134
O O7 0.257779 0.900054 0.929297
O O8 0.150562 0.845235 0.870584
O O9 0.211037 0.933040 0.751049
O O10 0.622375 0.122375 0.000000
O O11 0.497538 0.165887 0.035756
O O12 0.240568 0.588918 0.067149
O O13 0.125111 0.625111 0.000000
#
# Coordination Sequence:
#
# PCOD8311209 Si02
#       6
#    16  16  16  16  16  16
#     4  11  22  36  55  82 114 139 181 234 274 320
#     4   9  18  34  58  88 115 138 174 226 277 326
#     4  10  21  37  58  82 110 146 185 223 270 330
#     4  12  23  36  57  83 110 145 185 227 276 321
#     4  12  23  36  57  83 110 145 185 227 276 321
#     4  10  21  37  58  82 110 146 185 223 270 330
#
# _framework density 17.631126999999999
#
# number of rings (size 3 to 8) (size 9 to 14) (size 15 to 20)
#    0.000    1.333    6.667    0.000    0.000    1.667 
#    0.000    3.333    0.000    0.000    0.000    0.000 
#    0.000    0.000    0.000    0.000    0.000    0.000 
#
# Total GULP energy -595206.034576 kJ/mol
# GULP energy per Si atom -12400.125720 kJ/mol
# Density = 1.759100 g / cm^3
# Si number density = 17.631127 Si / 1000 Ang^3
#
#
#
# Elastic Constant Matrix: (Units=GPa)
#
#
# Indices 1 2 3 4 5 6 
#
# 1 100.8229 46.1814 34.4482 0.0000 0.0000 0.0000
# 2 46.1814 100.8229 34.4482 0.0000 0.0000 0.0000
# 3 34.4482 34.4482 75.9968 0.0000 0.0000 0.0000
# 4 0.0000 0.0000 0.0000 30.0954 0.0000 0.0000
# 5 0.0000 0.0000 0.0000 0.0000 30.0954 0.0000
# 6 0.0000 0.0000 0.0000 0.0000 0.0000 20.1691
#
#
#
# Elastic Compliance Matrix: (Units=1/GPa)
#
#
# Indices 1 2 3 4 5 6 
#
# 1 0.013469 -0.004832 -0.003915 0.000000 0.000000 0.000000
# 2 -0.004832 0.013469 -0.003915 0.000000 0.000000 0.000000
# 3 -0.003915 -0.003915 0.016708 0.000000 0.000000 0.000000
# 4 0.000000 0.000000 0.000000 0.033228 0.000000 0.000000
# 5 0.000000 0.000000 0.000000 0.000000 0.033228 0.000000
# 6 0.000000 0.000000 0.000000 0.000000 0.000000 0.049581
#
#
# Mechanical properties :
#
#
# Convention : Reuss Voigt Hill
#
# Bulk Modulus (GPa) = 54.57952 56.42201 55.50077
# Shear Modulus (GPa) = 26.16233 26.90963 26.53598
#
# Velocity S-wave (km/s) = 3.85628 3.91097 3.88372
# Velocity P-wave (km/s) = 7.13102 7.24328 7.18737
#
# Compressibility (1/GPa) = 0.01832189
#
# Stress axis : x y z
#
# Youngs Moduli (GPa) = 74.24299 74.24299 59.85203
#
# Poissons Ratio (x) = 0.35873 0.23433
# Poissons Ratio (y) = 0.35873 0.23433
# Poissons Ratio (z) = 0.29068 0.29068
#
# Static dielectric constant tensor:
#      x y z
#    x 3.276870 0.000000 0.000000 
#    y 0.000000 3.276870 0.000000 
#    z 0.000000 0.000000 3.279470 
# 
# 
# High freq. dielectric constant tensor:
#      x y z
#    x 1.682330 0.000000 0.000000 
#    y 0.000000 1.682330 0.000000 
#    z 0.000000 0.000000 1.683260 
# 
# From -- ./inp_files/2711.got.cif
#   From: 2010.03.12/outbox.cif.g09.slc.cpg/sg120_2_cif.got.tgz:2711.got - 2010.04.06 16:00:44.
