data_PCOD8311092
_publ_section_title
;
Structure prediction by ZEFSAII (Michael W. Deem and Ramdas Pophale) SiO2 
 PCOD8311092
Probable space group: I -4 M 2
;
_chemical_formula_sum "Si O2"
_cell_formula_units_Z 40
_cell_length_a 10.210095
_cell_length_b 10.210095
_cell_length_c 19.427809
_cell_angle_alpha 90.000000
_cell_angle_beta 90.000000
_cell_angle_gamma 90.000000
_cell_volume 2025.272152
_symmetry_space_group_name_H-M "I -4 M 2"
_symmetry_group_IT_number 119
_symmetry_cell_setting 'tetragonal'
loop_
_space_group_symop_operation_xyz
x,y,z
y,-x,-z
-x,-y,z
-y,x,-z
y,x,-z
-y,-x,-z
-x,y,z
x,-y,z
1/2+x,1/2+y,1/2+z
1/2+y,1/2-x,1/2-z
1/2-x,1/2-y,1/2+z
1/2-y,1/2+x,1/2-z
1/2+y,1/2+x,1/2-z
1/2-y,1/2-x,1/2-z
1/2-x,1/2+y,1/2+z
1/2+x,1/2-y,1/2+z
loop_
_atom_site_type_symbol
_atom_site_label
_atom_site_fract_x
_atom_site_fract_y
_atom_site_fract_z
Si Si1 0.000000 0.500000 0.031371
Si Si2 0.500000 0.500000 0.500000
Si Si3 0.230570 0.500000 0.576657
Si Si4 0.000000 0.000000 0.500000
Si Si5 0.232702 0.654814 0.826151
Si Si6 0.229706 0.000000 0.608592
O O1 0.124794 0.500000 0.080175
O O2 0.000000 0.629284 0.985607
O O3 0.375899 0.500000 0.548884
O O4 0.214883 0.370555 0.621460
O O5 0.129973 0.000000 0.545210
O O6 0.229456 0.500000 0.833811
O O7 0.196588 0.696588 0.750000
O O8 0.375161 0.709163 0.843271
#
# Coordination Sequence:
#
# PCOD8311092 Si02
#       6
#     4   2   8   2  16   8
#     4  12  24  44  68 102 138 174 220 264 334 402
#     4  12  28  44  62 108 140 164 220 278 356 384
#     4  12  24  44  71  95 135 179 216 273 327 401
#     4  12  20  44  66  96 140 180 220 266 320 412
#     4  12  24  45  71  96 130 177 227 271 324 398
#     4  12  26  42  69 103 135 173 218 275 333 385
#
# _framework density 19.750433999999998
#
# number of rings (size 3 to 8) (size 9 to 14) (size 15 to 20)
#    0.000    0.000    6.000    4.800    0.000    3.200 
#    0.000    0.000    0.000    0.000    0.000    0.000 
#    0.000    0.000    0.000    0.000    0.000    0.000 
#
# Total GULP energy -248162.933569 kJ/mol
# GULP energy per Si atom -12408.146678 kJ/mol
# Density = 1.970548 g / cm^3
# Si number density = 19.750434 Si / 1000 Ang^3
#
#
#
# Elastic Constant Matrix: (Units=GPa)
#
#
# Indices 1 2 3 4 5 6 
#
# 1 196.8326 60.0234 74.9358 0.0000 0.0000 0.0000
# 2 60.0234 196.8326 74.9358 0.0000 0.0000 0.0000
# 3 74.9358 74.9358 108.6956 0.0000 0.0000 0.0000
# 4 0.0000 0.0000 0.0000 78.3600 0.0000 0.0000
# 5 0.0000 0.0000 0.0000 0.0000 78.3600 0.0000
# 6 0.0000 0.0000 0.0000 0.0000 0.0000 54.0639
#
#
#
# Elastic Compliance Matrix: (Units=1/GPa)
#
#
# Indices 1 2 3 4 5 6 
#
# 1 0.006911 -0.000398 -0.004490 0.000000 0.000000 0.000000
# 2 -0.000398 0.006911 -0.004490 0.000000 0.000000 0.000000
# 3 -0.004490 -0.004490 0.015391 0.000000 0.000000 0.000000
# 4 0.000000 0.000000 0.000000 0.012762 0.000000 0.000000
# 5 0.000000 0.000000 0.000000 0.000000 0.012762 0.000000
# 6 0.000000 0.000000 0.000000 0.000000 0.000000 0.018497
#
#
# Mechanical properties :
#
#
# Convention : Reuss Voigt Hill
#
# Bulk Modulus (GPa) = 95.63312 102.46117 99.04715
# Shear Modulus (GPa) = 52.36875 61.65451 57.01163
#
# Velocity S-wave (km/s) = 5.15488 5.59326 5.37854
# Velocity P-wave (km/s) = 9.16277 9.68005 9.42496
#
# Compressibility (1/GPa) = 0.01045663
#
# Stress axis : x y z
#
# Youngs Moduli (GPa) = 144.68956 144.68956 64.97171
#
# Poissons Ratio (x) = 0.05760 0.29174
# Poissons Ratio (y) = 0.05760 0.29174
# Poissons Ratio (z) = 0.64970 0.64970
#
# Static dielectric constant tensor:
#      x y z
#    x 3.801880 0.000000 0.000000 
#    y 0.000000 3.801880 0.000000 
#    z 0.000000 0.000000 3.702620 
# 
# 
# High freq. dielectric constant tensor:
#      x y z
#    x 1.789940 0.000000 0.000000 
#    y 0.000000 1.789940 0.000000 
#    z 0.000000 0.000000 1.783490 
# 
# From -- ./inp_files/8280.got.cif
#   From: 2010.03.12/outbox.cif.g09.slc.cpg/sg119_5_cif.got.tgz:8280.got - 2010.04.14 02:25:26.
