data_PCOD8311627
_publ_section_title
;
Structure prediction by ZEFSAII (Michael W. Deem and Ramdas Pophale) SiO2 
 PCOD8311627
Probable space group: I -4 2 M
;
_chemical_formula_sum "Si O2"
_cell_formula_units_Z 112
_cell_length_a 15.830961
_cell_length_b 15.830961
_cell_length_c 22.291355
_cell_angle_alpha 90.000000
_cell_angle_beta 90.000000
_cell_angle_gamma 90.000000
_cell_volume 5586.644370
_symmetry_space_group_name_H-M "I -4 2 M"
_symmetry_group_IT_number 121
_symmetry_cell_setting 'tetragonal'
loop_
_space_group_symop_operation_xyz
x,y,z
y,-x,-z
-x,-y,z
-y,x,-z
x,-y,-z
-x,y,-z
-y,-x,z
y,x,z
1/2+x,1/2+y,1/2+z
1/2+y,1/2-x,1/2-z
1/2-x,1/2-y,1/2+z
1/2-y,1/2+x,1/2-z
1/2+x,1/2-y,1/2-z
1/2-x,1/2+y,1/2-z
1/2-y,1/2-x,1/2+z
1/2+y,1/2+x,1/2+z
loop_
_atom_site_type_symbol
_atom_site_label
_atom_site_fract_x
_atom_site_fract_y
_atom_site_fract_z
Si Si1 0.587753 0.133158 0.465777
Si Si2 0.318351 0.180868 0.418508
Si Si3 0.689764 0.004842 0.391183
Si Si4 0.127397 0.999637 0.568433
Si Si5 0.214805 0.917864 0.170710
Si Si6 0.740106 0.602995 0.641491
Si Si7 0.774866 0.360285 0.794464
O O1 0.500000 0.116197 0.500000
O O2 0.660389 0.160210 0.512467
O O3 0.615130 0.047795 0.430447
O O4 0.579514 0.208339 0.418143
O O5 0.225619 0.225619 0.415234
O O6 0.388153 0.243510 0.391522
O O7 0.326865 0.094339 0.379793
O O8 0.773854 0.009256 0.429121
O O9 0.708630 0.052545 0.329252
O O10 0.079627 0.079627 0.599393
O O11 0.103466 0.000000 0.500000
O O12 0.087866 0.912135 0.596286
O O13 0.121105 0.878896 0.176733
O O14 0.273766 0.883300 0.224484
O O15 0.205156 0.018213 0.171986
O O16 0.661603 0.661603 0.622854
O O17 0.797971 0.647608 0.691525
O O18 0.687514 0.312487 0.813503
#
# Coordination Sequence:
#
# PCOD8311627 Si02
#       7
#    16  16  16  16  16  16  16
#     4  11  22  41  60  88 125 157 204 257 310 364
#     4  11  23  38  59  86 120 159 198 250 309 363
#     4  11  22  34  58  86 117 159 199 239 294 366
#     4   9  17  30  49  77 115 152 188 232 277 336
#     4  10  22  41  62  88 122 153 198 260 305 356
#     4  10  21  41  69  90 117 163 206 250 308 373
#     4   9  21  40  61  88 121 159 200 247 298 356
#
# _framework density 20.047813999999999
#
# number of rings (size 3 to 8) (size 9 to 14) (size 15 to 20)
#    0.000    1.857    1.429    3.000    2.000    4.286 
#    0.000    0.714    0.000    1.714    0.000    0.000 
#    0.000    0.000    0.000    0.000    0.000    0.000 
#
# Total GULP energy -693982.351985 kJ/mol
# GULP energy per Si atom -12392.542000 kJ/mol
# Density = 2.000218 g / cm^3
# Si number density = 20.047814 Si / 1000 Ang^3
#
#
#
# Elastic Constant Matrix: (Units=GPa)
#
#
# Indices 1 2 3 4 5 6 
#
# 1 132.8164 36.6174 21.0690 0.0000 0.0000 0.0000
# 2 36.6174 132.8158 21.0681 0.0000 0.0000 0.0000
# 3 21.0690 21.0681 58.5595 0.0000 0.0000 0.0000
# 4 0.0000 0.0000 0.0000 -18.7311 0.0000 0.0000
# 5 0.0000 0.0000 0.0000 0.0000 -18.6548 0.0000
# 6 0.0000 0.0000 0.0000 0.0000 0.0000 23.7022
#
#
#
# Elastic Compliance Matrix: (Units=1/GPa)
#
#
# Indices 1 2 3 4 5 6 
#
# 1 0.008439 -0.001957 -0.002332 0.000000 0.000000 0.000000
# 2 -0.001957 0.008439 -0.002332 0.000000 0.000000 0.000000
# 3 -0.002332 -0.002332 0.018755 0.000000 0.000000 0.000000
# 4 0.000000 0.000000 0.000000 -0.053387 0.000000 0.000000
# 5 0.000000 0.000000 0.000000 0.000000 -0.053606 0.000000
# 6 0.000000 0.000000 0.000000 0.000000 0.000000 0.042190
#
#
# Mechanical properties :
#
#
# Convention : Reuss Voigt Hill
#
# Bulk Modulus (GPa) = 44.66210 53.52229 49.09220
# Shear Modulus (GPa) = -590.61149 13.62575 -288.49287
#
# Velocity S-wave (km/s) = -17.18258 2.60986 -12.00895
# Velocity P-wave (km/s) = 19.26989 5.98641 12.95167
#
# Compressibility (1/GPa) = 0.02239035
#
# Stress axis : x y z
#
# Youngs Moduli (GPa) = 118.50340 118.50342 53.31990
#
# Poissons Ratio (x) = 0.23186 0.12435
# Poissons Ratio (y) = 0.23186 0.12434
# Poissons Ratio (z) = 0.27637 0.27635
#
# Static dielectric constant tensor:
#      x y z
#    x 3.992580 0.000000 0.000000 
#    y 0.000000 3.992170 0.000000 
#    z 0.000000 0.000000 3.408150 
# 
# 
# High freq. dielectric constant tensor:
#      x y z
#    x 1.785700 0.000000 0.000000 
#    y 0.000000 1.785700 0.000000 
#    z 0.000000 0.000000 1.763220 
# 
# From -- ./inp_files/7207.got.cif
#   From: 2010.03.12/outbox.cif.g09.slc.cpg/sg121_4_cif.got.tgz:7207.got - 2010.04.06 16:06:48.
