data_PCOD8311737
_publ_section_title
;
Structure prediction by ZEFSAII (Michael W. Deem and Ramdas Pophale) SiO2 
 PCOD8311737
Probable space group: I -4 2 D
;
_chemical_formula_sum "Si O2"
_cell_formula_units_Z 128
_cell_length_a 17.556361
_cell_length_b 17.556361
_cell_length_c 25.577435
_cell_angle_alpha 90.000000
_cell_angle_beta 90.000000
_cell_angle_gamma 90.000000
_cell_volume 7883.625661
_symmetry_space_group_name_H-M "I -4 2 D"
_symmetry_group_IT_number 122
_symmetry_cell_setting 'tetragonal'
loop_
_space_group_symop_operation_xyz
x,y,z
y,-x,-z
-x,-y,z
-y,x,-z
x,1/2-y,1/4-z
-x,1/2+y,1/4-z
-y,1/2-x,1/4+z
y,1/2+x,1/4+z
1/2+x,1/2+y,1/2+z
1/2+y,1/2-x,1/2-z
1/2-x,1/2-y,1/2+z
1/2-y,1/2+x,1/2-z
1/2+x,-y,3/4-z
1/2-x,y,3/4-z
1/2-y,-x,3/4+z
1/2+y,x,3/4+z
loop_
_atom_site_type_symbol
_atom_site_label
_atom_site_fract_x
_atom_site_fract_y
_atom_site_fract_z
Si Si1 0.202838 0.869946 0.110362
Si Si2 0.336937 0.087066 0.038529
Si Si3 0.694568 0.773608 0.542805
Si Si4 0.910725 0.500000 0.983936
Si Si5 0.202838 0.130054 0.110362
Si Si6 0.912934 0.663063 0.961471
Si Si7 0.194568 0.726392 0.042805
Si Si8 0.091477 1.000000 0.142740
O O1 0.283298 0.902721 0.089144
O O2 0.173146 0.804841 0.071586
O O3 0.224216 0.836660 0.166994
O O4 0.132979 0.928423 0.115360
O O5 0.422941 0.122969 0.043796
O O6 0.283298 0.097279 0.089144
O O7 0.347968 0.000000 0.025659
O O8 0.298838 0.118580 0.986166
O O9 0.673146 0.695159 0.571586
O O10 0.724216 0.836660 0.583006
O O11 0.618580 0.798838 0.513834
O O12 0.761298 0.761298 0.500000
O O13 0.877031 0.577059 0.956204
O O14 0.000000 0.500000 0.975474
O O15 0.890888 0.500000 0.045659
O O16 0.132979 0.071577 0.115360
O O17 0.000000 0.000000 0.131312
#
# Coordination Sequence:
#
# PCOD8311737 Si02
#       8
#    16  16  16  16  16  16  16  16
#     4  10  19  33  50  73 100 137 170 205 257 305
#     4  10  18  31  51  72 100 130 171 211 257 302
#     4   9  19  32  50  70  98 134 169 207 251 312
#     4   9  18  30  48  76  99 127 164 216 249 291
#     4  10  19  33  50  73 100 137 170 205 257 305
#     4  10  18  31  51  72 100 130 171 211 257 302
#     4   9  19  32  50  70  98 134 169 207 251 312
#     4  11  20  32  50  76 104 135 175 215 248 296
#
# _framework density 16.236184999999999
#
# number of rings (size 3 to 8) (size 9 to 14) (size 15 to 20)
#    0.000    2.250    3.750    0.000    0.000    1.000 
#    0.000    2.500    0.000   13.500    0.000    0.000 
#    0.000    0.000    0.000    0.000    0.000    0.000 
#
# Total GULP energy -792909.242956 kJ/mol
# GULP energy per Si atom -12389.206921 kJ/mol
# Density = 1.619923 g / cm^3
# Si number density = 16.236185 Si / 1000 Ang^3
#
#
#
# Elastic Constant Matrix: (Units=GPa)
#
#
# Indices 1 2 3 4 5 6 
#
# 1 107.3748 50.7032 46.9955 0.0000 0.0000 0.0000
# 2 50.7032 107.3748 46.9955 0.0000 0.0000 0.0000
# 3 46.9955 46.9955 92.7796 0.0000 0.0000 0.0000
# 4 0.0000 0.0000 0.0000 17.9081 0.0000 0.0000
# 5 0.0000 0.0000 0.0000 0.0000 17.9081 0.0000
# 6 0.0000 0.0000 0.0000 0.0000 0.0000 14.7137
#
#
#
# Elastic Compliance Matrix: (Units=1/GPa)
#
#
# Indices 1 2 3 4 5 6 
#
# 1 0.013349 -0.004297 -0.004585 0.000000 0.000000 0.000000
# 2 -0.004297 0.013349 -0.004585 0.000000 0.000000 0.000000
# 3 -0.004585 -0.004585 0.015423 0.000000 0.000000 0.000000
# 4 0.000000 0.000000 0.000000 0.055841 0.000000 0.000000
# 5 0.000000 0.000000 0.000000 0.000000 0.055841 0.000000
# 6 0.000000 0.000000 0.000000 0.000000 0.000000 0.067964
#
#
# Mechanical properties :
#
#
# Convention : Reuss Voigt Hill
#
# Bulk Modulus (GPa) = 65.84590 66.32416 66.08503
# Shear Modulus (GPa) = 19.70343 20.96164 20.33253
#
# Velocity S-wave (km/s) = 3.48738 3.59701 3.54262
# Velocity P-wave (km/s) = 7.54048 7.62821 7.58447
#
# Compressibility (1/GPa) = 0.01518697
#
# Stress axis : x y z
#
# Youngs Moduli (GPa) = 74.91239 74.91239 64.83672
#
# Poissons Ratio (x) = 0.32187 0.29729
# Poissons Ratio (y) = 0.32187 0.29729
# Poissons Ratio (z) = 0.34349 0.34349
#
# Static dielectric constant tensor:
#      x y z
#    x 3.222110 0.000000 0.000000 
#    y 0.000000 3.222110 0.000000 
#    z 0.000000 0.000000 3.166730 
# 
# 
# High freq. dielectric constant tensor:
#      x y z
#    x 1.620430 0.000000 0.000000 
#    y 0.000000 1.620430 0.000000 
#    z 0.000000 0.000000 1.617310 
# 
# From -- ./inp_files/8228.got.cif
#   From: 2010.03.12/outbox.cif.g09.slc.cpg/sg122_5_cif.got.tgz:8228.got - 2010.04.06 16:17:16.
