data_PCOD8311228
_publ_section_title
;
Structure prediction by ZEFSAII (Michael W. Deem and Ramdas Pophale) SiO2 
 PCOD8311228
Probable space group: I -4 C 2
;
_chemical_formula_sum "Si O2"
_cell_formula_units_Z 96
_cell_length_a 22.014343
_cell_length_b 22.014343
_cell_length_c 10.887870
_cell_angle_alpha 90.000000
_cell_angle_beta 90.000000
_cell_angle_gamma 90.000000
_cell_volume 5276.602568
_symmetry_space_group_name_H-M "I -4 C 2"
_symmetry_group_IT_number 120
_symmetry_cell_setting 'tetragonal'
loop_
_space_group_symop_operation_xyz
x,y,z
y,-x,-z
-x,-y,z
-y,x,-z
y,x,1/2-z
-y,-x,1/2-z
-x,y,1/2+z
x,-y,1/2+z
1/2+x,1/2+y,1/2+z
1/2+y,1/2-x,1/2-z
1/2-x,1/2-y,1/2+z
1/2-y,1/2+x,1/2-z
1/2+y,1/2+x,-z
1/2-y,1/2-x,-z
1/2-x,1/2+y,z
1/2+x,1/2-y,z
loop_
_atom_site_type_symbol
_atom_site_label
_atom_site_fract_x
_atom_site_fract_y
_atom_site_fract_z
Si Si1 0.293319 0.044801 0.365434
Si Si2 0.592244 0.982762 0.218055
Si Si3 0.363671 0.267948 0.805972
Si Si4 0.671760 0.229874 0.755743
Si Si5 0.103227 0.603227 0.000000
Si Si6 0.580815 0.237038 0.558738
Si Si7 0.842854 0.342854 0.500000
O O1 0.341561 0.011231 0.277730
O O2 0.242954 0.081325 0.288259
O O3 0.332711 0.089162 0.451503
O O4 0.256562 0.992620 0.440026
O O5 0.549038 0.937542 0.296518
O O6 0.599610 0.955467 0.084737
O O7 0.324389 0.324389 0.750000
O O8 0.324125 0.206650 0.816625
O O9 0.391408 0.276055 0.943937
O O10 0.711083 0.288918 0.750000
O O11 0.610626 0.254672 0.689518
O O12 0.664315 0.208478 0.895910
O O13 0.098630 0.666856 0.065263
#
# Coordination Sequence:
#
# PCOD8311228 Si02
#       7
#    16  16  16  16   8  16   8
#     4  11  24  36  58  82 113 152 199 245 296 343
#     4  11  24  35  49  76 109 159 210 249 287 329
#     4  10  22  40  60  82 114 155 194 240 303 355
#     4  10  22  36  60  81 110 149 198 240 300 351
#     4  12  20  36  52  72 109 152 201 244 284 338
#     4  12  22  37  60  80 116 148 198 245 294 354
#     4  10  24  37  52  85 117 156 193 247 288 357
#
# _framework density 18.193525000000001
#
# number of rings (size 3 to 8) (size 9 to 14) (size 15 to 20)
#    0.000    1.167    5.000    1.000   11.667    1.333 
#    0.000    0.000    0.000    0.000    0.000    0.000 
#    0.000    5.333    0.000    0.000    0.000    0.000 
#
# Total GULP energy -594736.902226 kJ/mol
# GULP energy per Si atom -12390.352130 kJ/mol
# Density = 1.815212 g / cm^3
# Si number density = 18.193525 Si / 1000 Ang^3
#
#
#
# Elastic Constant Matrix: (Units=GPa)
#
#
# Indices 1 2 3 4 5 6 
#
# 1 65.4874 39.6258 35.3563 0.0000 0.0000 0.0000
# 2 39.6258 65.4940 35.3568 0.0000 0.0000 0.0000
# 3 35.3563 35.3568 110.2638 0.0000 0.0000 0.0000
# 4 0.0000 0.0000 0.0000 2.7296 0.0000 0.0000
# 5 0.0000 0.0000 0.0000 0.0000 2.7175 0.0000
# 6 0.0000 0.0000 0.0000 0.0000 0.0000 19.6249
#
#
#
# Elastic Compliance Matrix: (Units=1/GPa)
#
#
# Indices 1 2 3 4 5 6 
#
# 1 0.025398 -0.013266 -0.003890 0.000000 0.000000 0.000000
# 2 -0.013266 0.025395 -0.003889 0.000000 0.000000 0.000000
# 3 -0.003890 -0.003889 0.011563 0.000000 0.000000 0.000000
# 4 0.000000 0.000000 0.000000 0.366350 0.000000 0.000000
# 5 0.000000 0.000000 0.000000 0.000000 0.367987 0.000000
# 6 0.000000 0.000000 0.000000 0.000000 0.000000 0.050956
#
#
# Mechanical properties :
#
#
# Convention : Reuss Voigt Hill
#
# Bulk Modulus (GPa) = 49.34577 51.32479 50.33528
# Shear Modulus (GPa) = 5.57728 13.74149 9.65939
#
# Velocity S-wave (km/s) = 1.75277 2.75125 2.30668
# Velocity P-wave (km/s) = 5.59266 6.19388 5.90093
#
# Compressibility (1/GPa) = 0.02026516
#
# Stress axis : x y z
#
# Youngs Moduli (GPa) = 39.37381 39.37839 86.47903
#
# Poissons Ratio (x) = 0.52241 0.33639
# Poissons Ratio (y) = 0.52235 0.33632
# Poissons Ratio (z) = 0.15316 0.15315
#
# Static dielectric constant tensor:
#      x y z
#    x 3.221710 0.000000 0.000000 
#    y 0.000000 3.221780 0.000000 
#    z 0.000000 0.000000 3.596250 
# 
# 
# High freq. dielectric constant tensor:
#      x y z
#    x 1.679370 0.000000 0.000000 
#    y 0.000000 1.679370 0.000000 
#    z 0.000000 0.000000 1.716020 
# 
# From -- ./inp_files/2761.got.cif
#   From: 2010.03.12/outbox.cif.g09.slc.cpg/sg120_2_cif.got.tgz:2761.got - 2010.04.06 16:00:44.
