data_PCOD8311598
_publ_section_title
;
Structure prediction by ZEFSAII (Michael W. Deem and Ramdas Pophale) SiO2 
 PCOD8311598
Probable space group: I -4 2 M
;
_chemical_formula_sum "Si O2"
_cell_formula_units_Z 80
_cell_length_a 11.497070
_cell_length_b 11.497070
_cell_length_c 31.884776
_cell_angle_alpha 90.000000
_cell_angle_beta 90.000000
_cell_angle_gamma 90.000000
_cell_volume 4214.613185
_symmetry_space_group_name_H-M "I -4 2 M"
_symmetry_group_IT_number 121
_symmetry_cell_setting 'tetragonal'
loop_
_space_group_symop_operation_xyz
x,y,z
y,-x,-z
-x,-y,z
-y,x,-z
x,-y,-z
-x,y,-z
-y,-x,z
y,x,z
1/2+x,1/2+y,1/2+z
1/2+y,1/2-x,1/2-z
1/2-x,1/2-y,1/2+z
1/2-y,1/2+x,1/2-z
1/2+x,1/2-y,1/2-z
1/2-x,1/2+y,1/2-z
1/2-y,1/2-x,1/2+z
1/2+y,1/2+x,1/2+z
loop_
_atom_site_type_symbol
_atom_site_label
_atom_site_fract_x
_atom_site_fract_y
_atom_site_fract_z
Si Si1 0.366229 0.999313 0.930133
Si Si2 0.645545 0.829687 0.708294
Si Si3 0.733481 0.915164 0.299631
Si Si4 0.239656 0.426992 0.346303
Si Si5 0.868274 0.681650 0.502504
O O1 0.276715 0.017938 0.892163
O O2 0.500000 0.000000 0.914279
O O3 0.339837 0.876776 0.952585
O O4 0.340817 0.096587 0.964381
O O5 0.730292 0.730292 0.692674
O O6 0.629155 0.833485 0.758170
O O7 0.523355 0.795538 0.687722
O O8 0.710247 0.948451 0.694277
O O9 0.870009 0.870009 0.297191
O O10 0.676595 0.852465 0.339722
O O11 0.370795 0.370795 0.341275
O O12 0.796737 0.796737 0.496819
O O13 0.000000 0.721373 0.500000
#
# Coordination Sequence:
#
# PCOD8311598 Si02
#       5
#    16  16  16  16  16
#     4   9  18  34  56  80 109 150 192 232 276 338
#     4  11  22  36  55  79 110 146 184 236 297 355
#     4  10  21  36  56  80 106 144 190 236 292 353
#     4  11  22  36  58  85 111 148 197 244 294 352
#     4   9  18  33  55  83 114 147 184 227 283 341
#
# _framework density 18.981573999999998
#
# number of rings (size 3 to 8) (size 9 to 14) (size 15 to 20)
#    0.000    2.000    2.000    3.600    0.000    1.800 
#    0.000    2.000    0.000    9.600    0.000    5.600 
#    0.000    0.000    0.000    0.000    0.000    0.000 
#
# Total GULP energy -495611.276804 kJ/mol
# GULP energy per Si atom -12390.281920 kJ/mol
# Density = 1.893837 g / cm^3
# Si number density = 18.981574 Si / 1000 Ang^3
#
#
#
# Elastic Constant Matrix: (Units=GPa)
#
#
# Indices 1 2 3 4 5 6 
#
# 1 86.4398 59.1818 22.9009 0.0000 0.0000 0.0000
# 2 59.1818 86.4398 22.9009 0.0001 0.0000 0.0000
# 3 22.9009 22.9009 64.2651 0.0001 0.0000 0.0000
# 4 0.0000 0.0001 0.0001 -316.6203 -0.0009 0.0000
# 5 0.0000 0.0000 0.0000 -0.0009 -316.6201 0.0000
# 6 0.0000 0.0000 0.0000 0.0000 0.0000 40.9639
#
#
#
# Elastic Compliance Matrix: (Units=1/GPa)
#
#
# Indices 1 2 3 4 5 6 
#
# 1 0.022210 -0.014476 -0.002756 0.000000 0.000000 0.000000
# 2 -0.014476 0.022210 -0.002756 0.000000 0.000000 0.000000
# 3 -0.002756 -0.002756 0.017525 0.000000 0.000000 0.000000
# 4 0.000000 0.000000 0.000000 -0.003158 0.000000 0.000000
# 5 0.000000 0.000000 0.000000 0.000000 -0.003158 0.000000
# 6 0.000000 0.000000 0.000000 0.000000 0.000000 0.024412
#
#
# Mechanical properties :
#
#
# Convention : Reuss Voigt Hill
#
# Bulk Modulus (GPa) = 45.51940 49.67910 47.59925
# Shear Modulus (GPa) = 39.26508 -109.64457 -35.18974
#
# Velocity S-wave (km/s) = 4.55311 -7.60849 -4.31035
# Velocity P-wave (km/s) = 7.18846 7.13837 0.59900
#
# Compressibility (1/GPa) = 0.02196866
#
# Stress axis : x y z
#
# Youngs Moduli (GPa) = 45.02435 45.02435 57.06209
#
# Poissons Ratio (x) = 0.65178 0.15726
# Poissons Ratio (y) = 0.65178 0.15726
# Poissons Ratio (z) = 0.12409 0.12409
#
# Static dielectric constant tensor:
#      x y z
#    x 4.294240 0.000000 0.000000 
#    y 0.000000 4.294240 0.000000 
#    z 0.000000 0.000000 3.424470 
# 
# 
# High freq. dielectric constant tensor:
#      x y z
#    x 1.730380 0.000000 0.000000 
#    y 0.000000 1.730380 0.000000 
#    z 0.000000 0.000000 1.733490 
# 
# From -- ./inp_files/8015.got.cif
#   From: 2010.03.12/outbox.cif.g09.slc.cpg/sg121_5_cif.got.tgz:8015.got - 2010.04.06 16:06:48.
