data_PCOD8311478
_publ_section_title
;
Structure prediction by ZEFSAII (Michael W. Deem and Ramdas Pophale) SiO2 
 PCOD8311478
Probable space group: I -4 2 M
;
_chemical_formula_sum "Si O2"
_cell_formula_units_Z 96
_cell_length_a 16.523584
_cell_length_b 16.523584
_cell_length_c 18.629984
_cell_angle_alpha 90.000000
_cell_angle_beta 90.000000
_cell_angle_gamma 90.000000
_cell_volume 5086.522701
_symmetry_space_group_name_H-M "I -4 2 M"
_symmetry_group_IT_number 121
_symmetry_cell_setting 'tetragonal'
loop_
_space_group_symop_operation_xyz
x,y,z
y,-x,-z
-x,-y,z
-y,x,-z
x,-y,-z
-x,y,-z
-y,-x,z
y,x,z
1/2+x,1/2+y,1/2+z
1/2+y,1/2-x,1/2-z
1/2-x,1/2-y,1/2+z
1/2-y,1/2+x,1/2-z
1/2+x,1/2-y,1/2-z
1/2-x,1/2+y,1/2-z
1/2-y,1/2-x,1/2+z
1/2+y,1/2+x,1/2+z
loop_
_atom_site_type_symbol
_atom_site_label
_atom_site_fract_x
_atom_site_fract_y
_atom_site_fract_z
Si Si1 0.711541 0.984782 0.419733
Si Si2 0.315638 0.554099 0.207937
Si Si3 0.372667 0.914455 0.914117
Si Si4 0.908250 0.226356 0.198240
Si Si5 0.153625 0.590689 0.573992
Si Si6 0.797597 0.669607 0.713802
O O1 0.788216 0.990311 0.366034
O O2 0.670022 0.897923 0.406925
O O3 0.745420 0.000000 0.500000
O O4 0.641965 0.049827 0.405129
O O5 0.404624 0.595377 0.199863
O O6 0.316413 0.489507 0.272856
O O7 0.250166 0.623000 0.224113
O O8 0.311276 0.892435 0.850800
O O9 0.398050 0.008937 0.909041
O O10 0.325990 0.902124 0.989489
O O11 0.839173 0.160827 0.193480
O O12 0.916737 0.263352 0.118619
O O13 0.881925 0.298110 0.252910
O O14 0.744944 0.744944 0.684643
#
# Coordination Sequence:
#
# PCOD8311478 Si02
#       6
#    16  16  16  16  16  16
#     4  10  20  35  55  84 119 150 180 227 289 352
#     4  11  22  38  59  82 113 151 194 242 289 344
#     4  10  19  34  55  82 117 150 179 224 292 357
#     4  11  22  37  57  83 111 147 195 243 288 342
#     4  10  20  33  54  84 117 147 182 224 287 357
#     4  10  20  34  55  82 108 138 185 236 284 341
#
# _framework density 18.873403
#
# number of rings (size 3 to 8) (size 9 to 14) (size 15 to 20)
#    0.000    1.667    5.000    0.500    0.000    3.000 
#    0.000    3.333    0.000    0.000    0.000    0.000 
#    0.000    0.000    0.000    0.000    0.000    0.000 
#
# Total GULP energy -594988.988032 kJ/mol
# GULP energy per Si atom -12395.603917 kJ/mol
# Density = 1.883045 g / cm^3
# Si number density = 18.873403 Si / 1000 Ang^3
#
#
#
# Elastic Constant Matrix: (Units=GPa)
#
#
# Indices 1 2 3 4 5 6 
#
# 1 64.5618 25.4218 40.2451 0.0000 0.0000 0.0000
# 2 25.4218 64.5592 40.2467 0.0000 0.0000 0.0000
# 3 40.2451 40.2467 108.6029 0.0000 0.0000 0.0000
# 4 0.0000 0.0000 0.0000 22.3865 0.0000 0.0000
# 5 0.0000 0.0000 0.0000 0.0000 22.3863 0.0000
# 6 0.0000 0.0000 0.0000 0.0000 0.0000 33.1709
#
#
#
# Elastic Compliance Matrix: (Units=1/GPa)
#
#
# Indices 1 2 3 4 5 6 
#
# 1 0.021086 -0.004463 -0.006160 0.000000 0.000000 0.000000
# 2 -0.004463 0.021088 -0.006161 0.000000 0.000000 0.000000
# 3 -0.006160 -0.006161 0.013774 0.000000 0.000000 0.000000
# 4 0.000000 0.000000 0.000000 0.044670 0.000000 0.000000
# 5 0.000000 0.000000 0.000000 0.000000 0.044670 0.000000
# 6 0.000000 0.000000 0.000000 0.000000 0.000000 0.030147
#
#
# Mechanical properties :
#
#
# Convention : Reuss Voigt Hill
#
# Bulk Modulus (GPa) = 44.68313 49.95014 47.31664
# Shear Modulus (GPa) = 23.09864 24.37609 23.73736
#
# Velocity S-wave (km/s) = 3.50218 3.59772 3.55028
# Velocity P-wave (km/s) = 6.33090 6.61676 6.47541
#
# Compressibility (1/GPa) = 0.02237981
#
# Stress axis : x y z
#
# Youngs Moduli (GPa) = 47.42416 47.42057 72.60165
#
# Poissons Ratio (x) = 0.21164 0.44723
# Poissons Ratio (y) = 0.21165 0.44730
# Poissons Ratio (z) = 0.29214 0.29216
#
# Static dielectric constant tensor:
#      x y z
#    x 3.348240 0.000000 0.000000 
#    y 0.000000 3.348230 0.000000 
#    z 0.000000 0.000000 3.552280 
# 
# 
# High freq. dielectric constant tensor:
#      x y z
#    x 1.716770 0.000000 0.000000 
#    y 0.000000 1.716770 0.000000 
#    z 0.000000 0.000000 1.738210 
# 
# From -- ./inp_files/5407.got.cif
#   From: 2010.03.12/outbox.cif.g09.slc.cpg/sg121_3_cif.got.tgz:5407.got - 2010.04.06 16:06:48.
