data_PCOD8311965
_publ_section_title
;
Structure prediction by ZEFSAII (Michael W. Deem and Ramdas Pophale) SiO2 
 PCOD8311965
Probable space group: I -4 2 D
;
_chemical_formula_sum "Si O2"
_cell_formula_units_Z 80
_cell_length_a 10.901107
_cell_length_b 10.901107
_cell_length_c 22.962296
_cell_angle_alpha 90.000000
_cell_angle_beta 90.000000
_cell_angle_gamma 90.000000
_cell_volume 2728.704556
_symmetry_space_group_name_H-M "I -4 2 D"
_symmetry_group_IT_number 122
_symmetry_cell_setting 'tetragonal'
loop_
_space_group_symop_operation_xyz
x,y,z
y,-x,-z
-x,-y,z
-y,x,-z
x,1/2-y,1/4-z
-x,1/2+y,1/4-z
-y,1/2-x,1/4+z
y,1/2+x,1/4+z
1/2+x,1/2+y,1/2+z
1/2+y,1/2-x,1/2-z
1/2-x,1/2-y,1/2+z
1/2-y,1/2+x,1/2-z
1/2+x,-y,3/4-z
1/2-x,y,3/4-z
1/2-y,-x,3/4+z
1/2+y,x,3/4+z
loop_
_atom_site_type_symbol
_atom_site_label
_atom_site_fract_x
_atom_site_fract_y
_atom_site_fract_z
Si Si1 0.675683 0.055506 0.450445
Si Si2 0.326692 0.696954 0.063814
Si Si3 0.433518 0.759797 0.522377
Si Si4 0.909874 0.327338 0.835870
Si Si5 0.599150 0.900194 0.663417
O O1 0.568704 0.103104 0.494305
O O2 0.797196 0.148116 0.460489
O O3 0.619832 0.067521 0.385134
O O4 0.728130 0.926956 0.475430
O O5 0.373291 0.750000 0.125000
O O6 0.194940 0.756226 0.055031
O O7 0.339797 0.547987 0.061413
O O8 0.537785 0.732632 0.570524
O O9 0.454934 0.664087 0.470381
O O10 0.883521 0.194397 0.861725
O O11 0.500000 0.000000 0.642732
#
# Coordination Sequence:
#
# PCOD8311965 Si02
#       5
#    16  16  16  16  16
#     4  10  24  46  71 100 151 193 236 307 374 449
#     4  12  25  42  73 110 139 194 250 302 377 447
#     4  11  24  43  73 103 142 191 248 306 371 441
#     4  10  23  47  71 100 144 194 244 299 376 442
#     4  11  21  47  73  99 143 194 240 311 372 429
#
# _framework density 29.317943
#
# number of rings (size 3 to 8) (size 9 to 14) (size 15 to 20)
#    0.000    1.200    4.000    1.800    5.600    0.000 
#   21.600    0.000    0.000    0.000    0.000    0.000 
#    0.000    0.000    0.000    0.000    0.000    0.000 
#
# Total GULP energy -495663.242626 kJ/mol
# GULP energy per Si atom -12391.581066 kJ/mol
# Density = 2.925121 g / cm^3
# Si number density = 29.317943 Si / 1000 Ang^3
#
#
#
# Elastic Constant Matrix: (Units=GPa)
#
#
# Indices 1 2 3 4 5 6 
#
# 1 103.9547 24.1287 27.9665 0.0000 0.0000 0.0000
# 2 24.1287 103.9547 27.9665 0.0000 0.0000 0.0000
# 3 27.9665 27.9665 41.7346 0.0000 0.0000 0.0000
# 4 0.0000 0.0000 0.0000 30.2015 0.0000 0.0000
# 5 0.0000 0.0000 0.0000 0.0000 30.2015 0.0000
# 6 0.0000 0.0000 0.0000 0.0000 0.0000 56.4834
#
#
#
# Elastic Compliance Matrix: (Units=1/GPa)
#
#
# Indices 1 2 3 4 5 6 
#
# 1 0.011782 -0.000745 -0.007396 0.000000 0.000000 0.000000
# 2 -0.000745 0.011782 -0.007396 0.000000 0.000000 0.000000
# 3 -0.007396 -0.007396 0.033873 0.000000 0.000000 0.000000
# 4 0.000000 0.000000 0.000000 0.033111 0.000000 0.000000
# 5 0.000000 0.000000 0.000000 0.000000 0.033111 0.000000
# 6 0.000000 0.000000 0.000000 0.000000 0.000000 0.017704
#
#
# Mechanical properties :
#
#
# Convention : Reuss Voigt Hill
#
# Bulk Modulus (GPa) = 37.93143 45.52970 41.73057
# Shear Modulus (GPa) = 27.58987 34.68278 31.13632
#
# Velocity S-wave (km/s) = 3.07099 3.44319 3.26240
# Velocity P-wave (km/s) = 5.05378 5.60096 5.33439
#
# Compressibility (1/GPa) = 0.02636336
#
# Stress axis : x y z
#
# Youngs Moduli (GPa) = 84.87356 84.87356 29.52183
#
# Poissons Ratio (x) = 0.06323 0.21835
# Poissons Ratio (y) = 0.06323 0.21835
# Poissons Ratio (z) = 0.62773 0.62773
#
# Static dielectric constant tensor:
#      x y z
#    x 5.316000 0.000000 0.000000 
#    y 0.000000 5.316000 0.000000 
#    z 0.000000 0.000000 5.851650 
# 
# 
# High freq. dielectric constant tensor:
#      x y z
#    x 2.197410 0.000000 0.000000 
#    y 0.000000 2.197410 0.000000 
#    z 0.000000 0.000000 2.209550 
# 
# From -- ./inp_files/9400.got.cif
#   From: 2010.03.12/outbox.cif.g09.slc.cpg/sg122_5_cif.got.tgz:9400.got - 2010.04.06 16:17:16.
