data_PCOD8311313
_publ_section_title
;
Structure prediction by ZEFSAII (Michael W. Deem and Ramdas Pophale) SiO2 
 PCOD8311313
Probable space group: I -4 C 2
;
_chemical_formula_sum "Si O2"
_cell_formula_units_Z 116
_cell_length_a 17.538293
_cell_length_b 17.538293
_cell_length_c 17.310973
_cell_angle_alpha 90.000000
_cell_angle_beta 90.000000
_cell_angle_gamma 90.000000
_cell_volume 5324.711983
_symmetry_space_group_name_H-M "I -4 C 2"
_symmetry_group_IT_number 120
_symmetry_cell_setting 'tetragonal'
loop_
_space_group_symop_operation_xyz
x,y,z
y,-x,-z
-x,-y,z
-y,x,-z
y,x,1/2-z
-y,-x,1/2-z
-x,y,1/2+z
x,-y,1/2+z
1/2+x,1/2+y,1/2+z
1/2+y,1/2-x,1/2-z
1/2-x,1/2-y,1/2+z
1/2-y,1/2+x,1/2-z
1/2+y,1/2+x,-z
1/2-y,1/2-x,-z
1/2-x,1/2+y,z
1/2+x,1/2-y,z
loop_
_atom_site_type_symbol
_atom_site_label
_atom_site_fract_x
_atom_site_fract_y
_atom_site_fract_z
Si Si1 0.733764 0.883937 0.035864
Si Si2 0.783382 0.549893 0.836177
Si Si3 0.179513 0.133993 0.666292
Si Si4 0.944432 0.568826 0.089305
Si Si5 0.700142 0.003712 0.164616
Si Si6 0.500000 0.500000 0.500000
Si Si7 0.466786 0.346913 0.080317
Si Si8 0.295897 0.231503 0.583404
O O1 0.790934 0.822094 0.072186
O O2 0.700998 0.937715 0.101695
O O3 0.660724 0.839277 0.000000
O O4 0.784011 0.936281 0.979496
O O5 0.852620 0.513155 0.886111
O O6 0.803864 0.536224 0.747499
O O7 0.700407 0.519803 0.860549
O O8 0.786950 0.639666 0.854718
O O9 0.169376 0.169376 0.750000
O O10 0.225314 0.055748 0.664270
O O11 0.098992 0.113266 0.629469
O O12 0.216022 0.200835 0.615233
O O13 0.871045 0.557808 0.144510
O O14 0.000000 0.500000 0.105830
O O15 0.923113 0.576888 0.000000
O O16 0.419600 0.512192 0.454664
O O17 0.309742 0.190259 0.500000
#
# Coordination Sequence:
#
# PCOD8311313 Si02
#       8
#    16  16  16  16  16   4  16  16
#     4  11  25  43  74 109 141 184 255 306 361 442
#     4  12  27  43  72 103 148 194 237 295 377 439
#     4  12  25  47  70 103 146 193 236 303 374 431
#     4  11  27  44  68 102 147 195 243 298 362 440
#     4  12  28  43  70 110 146 189 238 305 369 444
#     4  12  28  48  82 108 140 196 250 320 364 460
#     4  12  25  48  75 105 145 193 246 305 374 438
#     4  11  24  44  71 103 136 189 249 299 354 437
#
# _framework density 21.785216999999999
#
# number of rings (size 3 to 8) (size 9 to 14) (size 15 to 20)
#    0.000    0.414    5.517    2.897    9.655    0.000 
#    0.000    0.345    0.000    0.000    0.000    0.000 
#    0.000    0.000    0.000    0.000    0.000    0.000 
#
# Total GULP energy -719145.316593 kJ/mol
# GULP energy per Si atom -12399.057183 kJ/mol
# Density = 2.173563 g / cm^3
# Si number density = 21.785217 Si / 1000 Ang^3
#
#
#
# Elastic Constant Matrix: (Units=GPa)
#
#
# Indices 1 2 3 4 5 6 
#
# 1 110.6522 30.8644 43.4775 0.0000 0.0000 0.0000
# 2 30.8644 110.6531 43.4783 0.0000 0.0000 0.0000
# 3 43.4775 43.4783 137.7218 0.0000 0.0000 0.0000
# 4 0.0000 0.0000 0.0000 40.1565 0.0000 0.0000
# 5 0.0000 0.0000 0.0000 0.0000 40.1404 0.0000
# 6 0.0000 0.0000 0.0000 0.0000 0.0000 43.1254
#
#
#
# Elastic Compliance Matrix: (Units=1/GPa)
#
#
# Indices 1 2 3 4 5 6 
#
# 1 0.010650 -0.001883 -0.002768 0.000000 0.000000 0.000000
# 2 -0.001883 0.010650 -0.002768 0.000000 0.000000 0.000000
# 3 -0.002768 -0.002768 0.009008 0.000000 0.000000 0.000000
# 4 0.000000 0.000000 0.000000 0.024903 0.000000 0.000000
# 5 0.000000 0.000000 0.000000 0.000000 0.024913 0.000000
# 6 0.000000 0.000000 0.000000 0.000000 0.000000 0.023188
#
#
# Mechanical properties :
#
#
# Convention : Reuss Voigt Hill
#
# Bulk Modulus (GPa) = 64.63438 66.07416 65.35427
# Shear Modulus (GPa) = 40.54956 40.76493 40.65725
#
# Velocity S-wave (km/s) = 4.31900 4.33045 4.32473
# Velocity P-wave (km/s) = 7.38952 7.44308 7.41635
#
# Compressibility (1/GPa) = 0.01547164
#
# Stress axis : x y z
#
# Youngs Moduli (GPa) = 93.89632 93.89664 111.00661
#
# Poissons Ratio (x) = 0.17682 0.30722
# Poissons Ratio (y) = 0.17682 0.30723
# Poissons Ratio (z) = 0.25987 0.25988
#
# Static dielectric constant tensor:
#      x y z
#    x -3.613930 0.000010 0.000000 
#    y 0.000010 -3.636570 0.000000 
#    z 0.000000 0.000000 3.978700 
# 
# 
# High freq. dielectric constant tensor:
#      x y z
#    x 1.865430 0.000000 0.000000 
#    y 0.000000 1.865430 0.000000 
#    z 0.000000 0.000000 1.857670 
# 
# From -- ./inp_files/4595.got.cif
#   From: 2010.03.12/outbox.cif.g09.slc.cpg/sg120_3_cif.got.tgz:4595.got - 2010.04.06 16:00:44.
