data_PCOD8311877
_publ_section_title
;
Structure prediction by ZEFSAII (Michael W. Deem and Ramdas Pophale) SiO2 
 PCOD8311877
Probable space group: I -4 2 D
;
_chemical_formula_sum "Si O2"
_cell_formula_units_Z 80
_cell_length_a 17.563214
_cell_length_b 17.563214
_cell_length_c 13.200648
_cell_angle_alpha 90.000000
_cell_angle_beta 90.000000
_cell_angle_gamma 90.000000
_cell_volume 4071.957502
_symmetry_space_group_name_H-M "I -4 2 D"
_symmetry_group_IT_number 122
_symmetry_cell_setting 'tetragonal'
loop_
_space_group_symop_operation_xyz
x,y,z
y,-x,-z
-x,-y,z
-y,x,-z
x,1/2-y,1/4-z
-x,1/2+y,1/4-z
-y,1/2-x,1/4+z
y,1/2+x,1/4+z
1/2+x,1/2+y,1/2+z
1/2+y,1/2-x,1/2-z
1/2-x,1/2-y,1/2+z
1/2-y,1/2+x,1/2-z
1/2+x,-y,3/4-z
1/2-x,y,3/4-z
1/2-y,-x,3/4+z
1/2+y,x,3/4+z
loop_
_atom_site_type_symbol
_atom_site_label
_atom_site_fract_x
_atom_site_fract_y
_atom_site_fract_z
Si Si1 0.331816 0.975245 0.349838
Si Si2 0.435618 0.938924 0.009672
Si Si3 0.950091 0.341597 0.859952
Si Si4 0.085441 0.329960 0.175891
Si Si5 0.712878 0.578780 0.483471
O O1 0.250000 0.940035 0.375000
O O2 0.389602 0.906782 0.335965
O O3 0.363983 0.031007 0.436769
O O4 0.314886 0.022691 0.248898
O O5 0.500000 0.000000 0.983095
O O6 0.372946 0.976716 0.081443
O O7 0.396617 0.914359 0.906362
O O8 0.913372 0.273919 0.925888
O O9 0.107715 0.250000 0.125000
O O10 0.149644 0.355383 0.255714
O O11 0.005269 0.324381 0.234478
O O12 0.750000 0.593780 0.375000
#
# Coordination Sequence:
#
# PCOD8311877 Si02
#       5
#    16  16  16  16  16
#     4  11  23  38  67  95 126 165 206 260 318 386
#     4  10  21  39  65  92 122 164 214 260 310 372
#     4  11  21  42  63  94 129 162 209 264 315 374
#     4  11  24  44  63  92 131 167 213 269 313 378
#     4  11  25  42  66  94 129 169 217 261 318 385
#
# _framework density 19.646571000000002
#
# number of rings (size 3 to 8) (size 9 to 14) (size 15 to 20)
#    0.000    1.200    6.000    1.200    2.800    2.400 
#    0.000    3.000    0.000    0.000    0.000    0.000 
#    0.000    0.000    0.000    0.000    0.000    0.000 
#
# Total GULP energy -496069.938756 kJ/mol
# GULP energy per Si atom -12401.748469 kJ/mol
# Density = 1.960185 g / cm^3
# Si number density = 19.646571 Si / 1000 Ang^3
#
#
#
# Elastic Constant Matrix: (Units=GPa)
#
#
# Indices 1 2 3 4 5 6 
#
# 1 78.6862 26.2176 27.1524 0.0000 0.0000 0.0000
# 2 26.2176 78.6862 27.1524 0.0000 0.0000 0.0000
# 3 27.1524 27.1524 95.3793 0.0000 0.0000 0.0000
# 4 0.0000 0.0000 0.0000 27.5566 0.0000 0.0000
# 5 0.0000 0.0000 0.0000 0.0000 27.5566 0.0000
# 6 0.0000 0.0000 0.0000 0.0000 0.0000 23.4141
#
#
#
# Elastic Compliance Matrix: (Units=1/GPa)
#
#
# Indices 1 2 3 4 5 6 
#
# 1 0.015120 -0.003939 -0.003183 0.000000 0.000000 0.000000
# 2 -0.003939 0.015120 -0.003183 0.000000 0.000000 0.000000
# 3 -0.003183 -0.003183 0.012297 0.000000 0.000000 0.000000
# 4 0.000000 0.000000 0.000000 0.036289 0.000000 0.000000
# 5 0.000000 0.000000 0.000000 0.000000 0.036289 0.000000
# 6 0.000000 0.000000 0.000000 0.000000 0.000000 0.042709
#
#
# Mechanical properties :
#
#
# Convention : Reuss Voigt Hill
#
# Bulk Modulus (GPa) = 45.60824 45.97740 45.79282
# Shear Modulus (GPa) = 26.91914 27.18740 27.05327
#
# Velocity S-wave (km/s) = 3.70560 3.72401 3.71482
# Velocity P-wave (km/s) = 6.44774 6.47643 6.46210
#
# Compressibility (1/GPa) = 0.02192586
#
# Stress axis : x y z
#
# Youngs Moduli (GPa) = 66.13941 66.13941 81.32347
#
# Poissons Ratio (x) = 0.26055 0.25883
# Poissons Ratio (y) = 0.26055 0.25883
# Poissons Ratio (z) = 0.21050 0.21050
#
# Static dielectric constant tensor:
#      x y z
#    x 3.567260 0.000000 0.000000 
#    y 0.000000 3.567260 0.000000 
#    z 0.000000 0.000000 3.687700 
# 
# 
# High freq. dielectric constant tensor:
#      x y z
#    x 1.764350 0.000000 0.000000 
#    y 0.000000 1.764350 0.000000 
#    z 0.000000 0.000000 1.774570 
# 
# From -- ./inp_files/5309.got.cif
#   From: 2010.03.12/outbox.cif.g09.slc.cpg/sg122_3_cif.got.tgz:5309.got - 2010.04.06 16:17:16.
