data_PCOD8311957
_publ_section_title
;
Structure prediction by ZEFSAII (Michael W. Deem and Ramdas Pophale) SiO2 
 PCOD8311957
Probable space group: I -4 2 D
;
_chemical_formula_sum "Si O2"
_cell_formula_units_Z 72
_cell_length_a 11.246525
_cell_length_b 11.246525
_cell_length_c 24.924433
_cell_angle_alpha 90.000000
_cell_angle_beta 90.000000
_cell_angle_gamma 90.000000
_cell_volume 3152.550073
_symmetry_space_group_name_H-M "I -4 2 D"
_symmetry_group_IT_number 122
_symmetry_cell_setting 'tetragonal'
loop_
_space_group_symop_operation_xyz
x,y,z
y,-x,-z
-x,-y,z
-y,x,-z
x,1/2-y,1/4-z
-x,1/2+y,1/4-z
-y,1/2-x,1/4+z
y,1/2+x,1/4+z
1/2+x,1/2+y,1/2+z
1/2+y,1/2-x,1/2-z
1/2-x,1/2-y,1/2+z
1/2-y,1/2+x,1/2-z
1/2+x,-y,3/4-z
1/2-x,y,3/4-z
1/2-y,-x,3/4+z
1/2+y,x,3/4+z
loop_
_atom_site_type_symbol
_atom_site_label
_atom_site_fract_x
_atom_site_fract_y
_atom_site_fract_z
Si Si1 0.388858 0.750638 0.318129
Si Si2 0.437627 0.655188 0.528604
Si Si3 0.790664 0.116925 0.245650
Si Si4 0.750000 0.056188 0.875000
Si Si5 0.548055 0.626914 0.145998
O O1 0.329845 0.830051 0.271099
O O2 0.526924 0.735761 0.302878
O O3 0.321623 0.626968 0.328445
O O4 0.373647 0.816809 0.374963
O O5 0.543722 0.648771 0.483987
O O6 0.369495 0.777900 0.526308
O O7 0.482831 0.651941 0.590475
O O8 0.867401 0.045700 0.289909
O O9 0.500000 0.500000 0.125051
O O10 0.483164 0.750000 0.125000
#
# Coordination Sequence:
#
# PCOD8311957 Si02
#       5
#    16  16  16   8  16
#     4  11  24  47  70 106 148 190 252 316 384 459
#     4  11  25  46  72 104 149 194 249 316 380 461
#     4  11  25  44  73 104 145 191 249 310 383 466
#     4  12  24  50  74 102 152 202 248 322 388 462
#     4  10  23  43  66 104 148 190 242 318 376 453
#
# _framework density 22.838652
#
# number of rings (size 3 to 8) (size 9 to 14) (size 15 to 20)
#    0.000    1.111    5.556    0.000    9.333    5.333 
#    0.000    0.000    0.000    0.000    0.000    0.000 
#    0.000    0.000    0.000    0.000    0.000    0.000 
#
# Total GULP energy -446140.134229 kJ/mol
# GULP energy per Si atom -12392.781506 kJ/mol
# Density = 2.278667 g / cm^3
# Si number density = 22.838652 Si / 1000 Ang^3
#
#
#
# Elastic Constant Matrix: (Units=GPa)
#
#
# Indices 1 2 3 4 5 6 
#
# 1 121.3508 43.7414 18.7780 0.0000 0.0000 0.0000
# 2 43.7414 121.3508 18.7780 0.0000 0.0000 0.0000
# 3 18.7780 18.7780 61.6892 0.0000 0.0000 0.0000
# 4 0.0000 0.0000 0.0000 34.0197 0.0000 0.0000
# 5 0.0000 0.0000 0.0000 0.0000 34.0197 0.0000
# 6 0.0000 0.0000 0.0000 0.0000 0.0000 36.0627
#
#
#
# Elastic Compliance Matrix: (Units=1/GPa)
#
#
# Indices 1 2 3 4 5 6 
#
# 1 0.009696 -0.003189 -0.001981 0.000000 0.000000 0.000000
# 2 -0.003189 0.009696 -0.001981 0.000000 0.000000 0.000000
# 3 -0.001981 -0.001981 0.017416 0.000000 0.000000 0.000000
# 4 0.000000 0.000000 0.000000 0.029395 0.000000 0.000000
# 5 0.000000 0.000000 0.000000 0.000000 0.029395 0.000000
# 6 0.000000 0.000000 0.000000 0.000000 0.000000 0.027730
#
#
# Mechanical properties :
#
#
# Convention : Reuss Voigt Hill
#
# Bulk Modulus (GPa) = 44.42839 51.88730 48.15785
# Shear Modulus (GPa) = 34.45141 35.69331 35.07236
#
# Velocity S-wave (km/s) = 3.88812 3.95757 3.92300
# Velocity P-wave (km/s) = 6.29698 6.60693 6.45382
#
# Compressibility (1/GPa) = 0.02250813
#
# Stress axis : x y z
#
# Youngs Moduli (GPa) = 103.13054 103.13054 57.41747
#
# Poissons Ratio (x) = 0.32884 0.11374
# Poissons Ratio (y) = 0.32884 0.11374
# Poissons Ratio (z) = 0.20430 0.20430
#
# Static dielectric constant tensor:
#      x y z
#    x 4.137350 0.000000 0.000000 
#    y 0.000000 4.137350 0.000000 
#    z 0.000000 0.000000 3.985720 
# 
# 
# High freq. dielectric constant tensor:
#      x y z
#    x 1.897760 0.000000 0.000000 
#    y 0.000000 1.897760 0.000000 
#    z 0.000000 0.000000 1.894460 
# 
# From -- ./inp_files/8612.got.cif
#   From: 2010.03.12/outbox.cif.g09.slc.cpg/sg122_5_cif.got.tgz:8612.got - 2010.04.06 16:17:16.
