data_PCOD8311136
_publ_section_title
;
Structure prediction by ZEFSAII (Michael W. Deem and Ramdas Pophale) SiO2 
 PCOD8311136
Probable space group: I -4 C 2
;
_chemical_formula_sum "Si O2"
_cell_formula_units_Z 48
_cell_length_a 16.170972
_cell_length_b 16.170972
_cell_length_c 9.078786
_cell_angle_alpha 90.000000
_cell_angle_beta 90.000000
_cell_angle_gamma 90.000000
_cell_volume 2374.105584
_symmetry_space_group_name_H-M "I -4 C 2"
_symmetry_group_IT_number 120
_symmetry_cell_setting 'tetragonal'
loop_
_space_group_symop_operation_xyz
x,y,z
y,-x,-z
-x,-y,z
-y,x,-z
y,x,1/2-z
-y,-x,1/2-z
-x,y,1/2+z
x,-y,1/2+z
1/2+x,1/2+y,1/2+z
1/2+y,1/2-x,1/2-z
1/2-x,1/2-y,1/2+z
1/2-y,1/2+x,1/2-z
1/2+y,1/2+x,-z
1/2-y,1/2-x,-z
1/2-x,1/2+y,z
1/2+x,1/2-y,z
loop_
_atom_site_type_symbol
_atom_site_label
_atom_site_fract_x
_atom_site_fract_y
_atom_site_fract_z
Si Si1 0.906467 0.406467 0.000000
Si Si2 0.656252 0.436730 0.587892
Si Si3 0.500000 0.000000 0.750000
Si Si4 0.274768 0.436737 0.388727
Si Si5 0.000000 0.000000 0.750000
O O1 0.918412 0.310888 0.033938
O O2 0.931203 0.458679 0.144819
O O3 0.693441 0.472817 0.438735
O O4 0.630107 0.342558 0.557715
O O5 0.728915 0.437177 0.711843
O O6 0.580971 0.495406 0.645827
#
# Coordination Sequence:
#
# PCOD8311136 Si02
#       5
#     8  16   4  16   4
#     4  11  22  42  62  82 108 147 196 242 282 335
#     4  10  19  33  54  86 116 149 181 223 276 337
#     4  10  24  42  64  78 104 154 196 230 284 346
#     4  10  20  35  56  82 115 145 186 230 279 335
#     4   8  16  30  52  78 116 150 176 202 268 354
#
# _framework density 20.218139999999998
#
# number of rings (size 3 to 8) (size 9 to 14) (size 15 to 20)
#    0.000    2.333    0.000    6.000    0.000    1.333 
#    0.000   20.000    0.000    0.000    0.000    0.000 
#    0.000    0.000    0.000    0.000    0.000    0.000 
#
# Total GULP energy -297443.391858 kJ/mol
# GULP energy per Si atom -12393.474661 kJ/mol
# Density = 2.017212 g / cm^3
# Si number density = 20.218140 Si / 1000 Ang^3
#
#
#
# Elastic Constant Matrix: (Units=GPa)
#
#
# Indices 1 2 3 4 5 6 
#
# 1 104.8852 56.0816 45.5469 0.0000 0.0000 0.0000
# 2 56.0816 104.8852 45.5469 0.0000 0.0000 0.0000
# 3 45.5469 45.5469 94.6152 0.0000 0.0000 0.0000
# 4 0.0000 0.0000 0.0000 23.5969 0.0000 0.0000
# 5 0.0000 0.0000 0.0000 0.0000 23.5969 0.0000
# 6 0.0000 0.0000 0.0000 0.0000 0.0000 22.3644
#
#
#
# Elastic Compliance Matrix: (Units=1/GPa)
#
#
# Indices 1 2 3 4 5 6 
#
# 1 0.014514 -0.005976 -0.004110 0.000000 0.000000 0.000000
# 2 -0.005976 0.014514 -0.004110 0.000000 0.000000 0.000000
# 3 -0.004110 -0.004110 0.014527 0.000000 0.000000 0.000000
# 4 0.000000 0.000000 0.000000 0.042378 0.000000 0.000000
# 5 0.000000 0.000000 0.000000 0.000000 0.042378 0.000000
# 6 0.000000 0.000000 0.000000 0.000000 0.000000 0.044714
#
#
# Mechanical properties :
#
#
# Convention : Reuss Voigt Hill
#
# Bulk Modulus (GPa) = 65.95376 66.52626 66.24001
# Shear Modulus (GPa) = 24.21617 24.39232 24.30424
#
# Velocity S-wave (km/s) = 3.46460 3.47718 3.47089
# Velocity P-wave (km/s) = 6.97829 7.00690 6.99261
#
# Compressibility (1/GPa) = 0.01516214
#
# Stress axis : x y z
#
# Youngs Moduli (GPa) = 68.89686 68.89686 68.83942
#
# Poissons Ratio (x) = 0.41172 0.28296
# Poissons Ratio (y) = 0.41172 0.28296
# Poissons Ratio (z) = 0.28319 0.28319
#
# Static dielectric constant tensor:
#      x y z
#    x 3.526850 0.000000 0.000000 
#    y 0.000000 3.526850 0.000000 
#    z 0.000000 0.000000 3.925850 
# 
# 
# High freq. dielectric constant tensor:
#      x y z
#    x 1.772380 0.000000 0.000000 
#    y 0.000000 1.772380 0.000000 
#    z 0.000000 0.000000 1.801780 
# 
# From -- ./inp_files/954.got.cif
#   From: 2010.03.12/outbox.cif.g09.slc.cpg/sg120_1_cif.got.tgz:954.got - 2010.04.06 16:00:44.
