data_PCOD8311610
_publ_section_title
;
Structure prediction by ZEFSAII (Michael W. Deem and Ramdas Pophale) SiO2 
 PCOD8311610
Probable space group: I -4 2 M
;
_chemical_formula_sum "Si O2"
_cell_formula_units_Z 128
_cell_length_a 22.716878
_cell_length_b 22.716878
_cell_length_c 12.452718
_cell_angle_alpha 90.000000
_cell_angle_beta 90.000000
_cell_angle_gamma 90.000000
_cell_volume 6426.306640
_symmetry_space_group_name_H-M "I -4 2 M"
_symmetry_group_IT_number 121
_symmetry_cell_setting 'tetragonal'
loop_
_space_group_symop_operation_xyz
x,y,z
y,-x,-z
-x,-y,z
-y,x,-z
x,-y,-z
-x,y,-z
-y,-x,z
y,x,z
1/2+x,1/2+y,1/2+z
1/2+y,1/2-x,1/2-z
1/2-x,1/2-y,1/2+z
1/2-y,1/2+x,1/2-z
1/2+x,1/2-y,1/2-z
1/2-x,1/2+y,1/2-z
1/2-y,1/2-x,1/2+z
1/2+y,1/2+x,1/2+z
loop_
_atom_site_type_symbol
_atom_site_label
_atom_site_fract_x
_atom_site_fract_y
_atom_site_fract_z
Si Si1 0.267155 0.362656 0.640065
Si Si2 0.056895 0.755177 0.673727
Si Si3 0.655461 0.563301 0.012591
Si Si4 0.782827 0.928247 0.730474
Si Si5 0.070205 0.440221 0.280528
Si Si6 0.868701 0.331721 0.341891
Si Si7 0.936355 0.353252 0.548745
Si Si8 0.931439 0.834466 0.966833
O O1 0.301717 0.301717 0.632728
O O2 0.287175 0.398534 0.745439
O O3 0.199258 0.347952 0.655206
O O4 0.281626 0.403501 0.537445
O O5 0.060299 0.785598 0.557738
O O6 0.073466 0.687243 0.654185
O O7 0.992515 0.754518 0.725339
O O8 0.611969 0.611969 0.965179
O O9 0.669485 0.578364 0.135924
O O10 0.623642 0.500000 0.000000
O O11 0.732318 0.878834 0.712373
O O12 0.815590 0.921697 0.843780
O O13 0.078377 0.510138 0.279741
O O14 0.123092 0.409832 0.219543
O O15 0.069352 0.419739 0.405715
O O16 0.886649 0.334586 0.465929
O O17 0.000000 0.341486 0.500000
O O18 0.895462 0.895462 0.987861
O O19 0.000000 0.844053 0.000000
#
# Coordination Sequence:
#
# PCOD8311610 Si02
#       8
#    16  16  16  16  16  16  16  16
#     4  11  26  44  65  96 133 171 217 273 329 394
#     4  11  19  41  68  92 121 168 219 257 322 387
#     4  10  21  37  63  95 125 162 204 255 320 384
#     4  11  22  41  69  94 125 171 217 263 316 390
#     4  11  24  40  60  92 126 164 214 268 325 385
#     4  12  25  42  65  93 129 167 219 272 326 391
#     4  12  21  41  64  91 127 169 215 270 324 389
#     4  11  25  46  71 101 135 175 223 274 334 405
#
# _framework density 19.918129
#
# number of rings (size 3 to 8) (size 9 to 14) (size 15 to 20)
#    0.000    0.875    6.250    1.125    1.750    1.750 
#    0.000    1.250    0.000    1.500    0.000    0.000 
#    0.000    0.000    0.000    0.000    0.000    0.000 
#
# Total GULP energy -793501.587550 kJ/mol
# GULP energy per Si atom -12398.462305 kJ/mol
# Density = 1.987279 g / cm^3
# Si number density = 19.918129 Si / 1000 Ang^3
#
#
#
# Elastic Constant Matrix: (Units=GPa)
#
#
# Indices 1 2 3 4 5 6 
#
# 1 86.7763 41.4473 26.9239 0.0000 0.0000 0.0000
# 2 41.4473 86.7763 26.9239 0.0000 0.0000 0.0000
# 3 26.9239 26.9239 108.5048 0.0000 0.0000 0.0000
# 4 0.0000 0.0000 0.0000 23.8115 0.0000 0.0000
# 5 0.0000 0.0000 0.0000 0.0000 23.8115 0.0000
# 6 0.0000 0.0000 0.0000 0.0000 0.0000 26.5315
#
#
#
# Elastic Compliance Matrix: (Units=1/GPa)
#
#
# Indices 1 2 3 4 5 6 
#
# 1 0.015384 -0.006677 -0.002160 0.000000 0.000000 0.000000
# 2 -0.006677 0.015384 -0.002160 0.000000 0.000000 0.000000
# 3 -0.002160 -0.002160 0.010288 0.000000 0.000000 0.000000
# 4 0.000000 0.000000 0.000000 0.041996 0.000000 0.000000
# 5 0.000000 0.000000 0.000000 0.000000 0.041996 0.000000
# 6 0.000000 0.000000 0.000000 0.000000 0.000000 0.037691
#
#
# Mechanical properties :
#
#
# Convention : Reuss Voigt Hill
#
# Bulk Modulus (GPa) = 52.46782 52.51638 52.49210
# Shear Modulus (GPa) = 26.16591 27.28174 26.72382
#
# Velocity S-wave (km/s) = 3.62839 3.70495 3.66687
# Velocity P-wave (km/s) = 6.62967 6.68772 6.65876
#
# Compressibility (1/GPa) = 0.01905930
#
# Stress axis : x y z
#
# Youngs Moduli (GPa) = 65.00466 65.00466 97.19808
#
# Poissons Ratio (x) = 0.43406 0.20998
# Poissons Ratio (y) = 0.43406 0.20998
# Poissons Ratio (z) = 0.14043 0.14043
#
# Static dielectric constant tensor:
#      x y z
#    x 3.646930 0.000000 0.000000 
#    y 0.000000 3.646930 0.000000 
#    z 0.000000 0.000000 3.925720 
# 
# 
# High freq. dielectric constant tensor:
#      x y z
#    x 1.776510 0.000000 0.000000 
#    y 0.000000 1.776510 0.000000 
#    z 0.000000 0.000000 1.784950 
# 
# From -- ./inp_files/3561.got.cif
#   From: 2010.03.12/outbox.cif.g09.slc.cpg/sg121_2_cif.got.tgz:3561.got - 2010.04.06 16:06:48.
