data_PCOD8311967
_publ_section_title
;
Structure prediction by ZEFSAII (Michael W. Deem and Ramdas Pophale) SiO2 
 PCOD8311967
Probable space group: I -4 2 D
;
_chemical_formula_sum "Si O2"
_cell_formula_units_Z 80
_cell_length_a 13.829893
_cell_length_b 13.829893
_cell_length_c 18.440039
_cell_angle_alpha 90.000000
_cell_angle_beta 90.000000
_cell_angle_gamma 90.000000
_cell_volume 3526.951400
_symmetry_space_group_name_H-M "I -4 2 D"
_symmetry_group_IT_number 122
_symmetry_cell_setting 'tetragonal'
loop_
_space_group_symop_operation_xyz
x,y,z
y,-x,-z
-x,-y,z
-y,x,-z
x,1/2-y,1/4-z
-x,1/2+y,1/4-z
-y,1/2-x,1/4+z
y,1/2+x,1/4+z
1/2+x,1/2+y,1/2+z
1/2+y,1/2-x,1/2-z
1/2-x,1/2-y,1/2+z
1/2-y,1/2+x,1/2-z
1/2+x,-y,3/4-z
1/2-x,y,3/4-z
1/2-y,-x,3/4+z
1/2+y,x,3/4+z
loop_
_atom_site_type_symbol
_atom_site_label
_atom_site_fract_x
_atom_site_fract_y
_atom_site_fract_z
Si Si1 0.148529 0.453991 0.855942
Si Si2 0.243458 0.568967 0.460875
Si Si3 0.587186 0.720521 0.982615
Si Si4 0.101589 0.031097 0.238465
Si Si5 0.735062 0.655452 0.460927
O O1 0.250000 0.402547 0.875000
O O2 0.084638 0.367858 0.823611
O O3 0.171636 0.544606 0.804521
O O4 0.098447 0.499585 0.926764
O O5 0.250000 0.583699 0.375000
O O6 0.144157 0.617609 0.484706
O O7 0.244869 0.455941 0.481881
O O8 0.323320 0.627464 0.507861
O O9 0.690770 0.769892 0.999693
O O10 0.520228 0.806956 0.950081
O O11 0.000000 0.000000 0.200940
O O12 0.750000 0.670007 0.375000
#
# Coordination Sequence:
#
# PCOD8311967 Si02
#       5
#    16  16  16  16  16
#     4  10  24  40  65 102 136 182 234 276 348 416
#     4  11  26  46  72 104 135 183 243 283 356 419
#     4  11  22  43  69  97 140 182 227 280 349 416
#     4  11  23  44  64  98 136 181 220 290 345 408
#     4  11  24  47  71 103 143 186 231 301 347 405
#
# _framework density 22.682480000000002
#
# number of rings (size 3 to 8) (size 9 to 14) (size 15 to 20)
#    0.000    1.200    2.000    4.200    2.800    6.000 
#    0.000    0.000    0.000    0.000    0.000    0.000 
#    0.000    0.000    0.000    0.000    0.000    0.000 
#
# Total GULP energy -495790.686435 kJ/mol
# GULP energy per Si atom -12394.767161 kJ/mol
# Density = 2.263085 g / cm^3
# Si number density = 22.682480 Si / 1000 Ang^3
#
#
#
# Elastic Constant Matrix: (Units=GPa)
#
#
# Indices 1 2 3 4 5 6 
#
# 1 109.9724 41.8291 30.8824 0.0000 0.0000 0.0000
# 2 41.8291 109.9724 30.8824 0.0000 0.0000 0.0000
# 3 30.8824 30.8824 83.0027 0.0000 0.0000 0.0000
# 4 0.0000 0.0000 0.0000 28.2564 0.0000 0.0000
# 5 0.0000 0.0000 0.0000 0.0000 28.2564 0.0000
# 6 0.0000 0.0000 0.0000 0.0000 0.0000 45.4967
#
#
#
# Elastic Compliance Matrix: (Units=1/GPa)
#
#
# Indices 1 2 3 4 5 6 
#
# 1 0.011219 -0.003456 -0.002888 0.000000 0.000000 0.000000
# 2 -0.003456 0.011219 -0.002888 0.000000 0.000000 0.000000
# 3 -0.002888 -0.002888 0.014197 0.000000 0.000000 0.000000
# 4 0.000000 0.000000 0.000000 0.035390 0.000000 0.000000
# 5 0.000000 0.000000 0.000000 0.000000 0.035390 0.000000
# 6 0.000000 0.000000 0.000000 0.000000 0.000000 0.021980
#
#
# Mechanical properties :
#
#
# Convention : Reuss Voigt Hill
#
# Bulk Modulus (GPa) = 55.03723 56.68168 55.85945
# Shear Modulus (GPa) = 32.48515 33.69213 33.08864
#
# Velocity S-wave (km/s) = 3.78851 3.85825 3.82354
# Velocity P-wave (km/s) = 6.59196 6.70011 6.64626
#
# Compressibility (1/GPa) = 0.01816952
#
# Stress axis : x y z
#
# Youngs Moduli (GPa) = 89.13590 89.13590 70.43728
#
# Poissons Ratio (x) = 0.30806 0.20344
# Poissons Ratio (y) = 0.30806 0.20344
# Poissons Ratio (z) = 0.25745 0.25745
#
# Static dielectric constant tensor:
#      x y z
#    x 4.186080 0.000000 0.000000 
#    y 0.000000 4.186080 0.000000 
#    z 0.000000 0.000000 4.564590 
# 
# 
# High freq. dielectric constant tensor:
#      x y z
#    x 1.905800 0.000000 0.000000 
#    y 0.000000 1.905800 0.000000 
#    z 0.000000 0.000000 1.874690 
# 
# From -- ./inp_files/7091.got.cif
#   From: 2010.03.12/outbox.cif.g09.slc.cpg/sg122_4_cif.got.tgz:7091.got - 2010.04.06 16:17:16.
