data_PCOD8311247
_publ_section_title
;
Structure prediction by ZEFSAII (Michael W. Deem and Ramdas Pophale) SiO2 
 PCOD8311247
Probable space group: I -4 C 2
;
_chemical_formula_sum "Si O2"
_cell_formula_units_Z 80
_cell_length_a 11.137362
_cell_length_b 11.137362
_cell_length_c 33.183029
_cell_angle_alpha 90.000000
_cell_angle_beta 90.000000
_cell_angle_gamma 90.000000
_cell_volume 4116.050536
_symmetry_space_group_name_H-M "I -4 C 2"
_symmetry_group_IT_number 120
_symmetry_cell_setting 'tetragonal'
loop_
_space_group_symop_operation_xyz
x,y,z
y,-x,-z
-x,-y,z
-y,x,-z
y,x,1/2-z
-y,-x,1/2-z
-x,y,1/2+z
x,-y,1/2+z
1/2+x,1/2+y,1/2+z
1/2+y,1/2-x,1/2-z
1/2-x,1/2-y,1/2+z
1/2-y,1/2+x,1/2-z
1/2+y,1/2+x,-z
1/2-y,1/2-x,-z
1/2-x,1/2+y,z
1/2+x,1/2-y,z
loop_
_atom_site_type_symbol
_atom_site_label
_atom_site_fract_x
_atom_site_fract_y
_atom_site_fract_z
Si Si1 0.462557 0.303875 0.499970
Si Si2 0.596599 0.904633 0.350725
Si Si3 0.012481 0.193633 0.204193
Si Si4 0.101721 0.601729 0.439755
Si Si5 0.510242 0.305055 0.795402
O O1 0.360626 0.405612 0.499991
O O2 0.447171 0.222254 0.539463
O O3 0.447331 0.222404 0.460423
O O4 0.696869 0.974982 0.325795
O O5 0.641258 0.859059 0.394317
O O6 0.529391 0.804475 0.324898
O O7 0.500000 0.000000 0.363405
O O8 0.982872 0.239966 0.249253
O O9 0.901926 0.109853 0.192126
O O10 0.136987 0.121134 0.200404
O O11 0.000000 0.500000 0.443006
#
# Coordination Sequence:
#
# PCOD8311247 Si02
#       5
#    16  16  16  16  16
#     4  10  22  41  69  93 112 156 203 240 296 367
#     4  11  25  37  58  92 123 160 200 244 303 357
#     4   9  21  40  60  84 117 160 207 255 299 344
#     4  10  24  41  59  91 129 155 190 251 302 349
#     4   9  21  40  60  84 117 160 207 255 299 344
#
# _framework density 19.436105999999999
#
# number of rings (size 3 to 8) (size 9 to 14) (size 15 to 20)
#    0.000    2.200    0.000    2.400   11.200    4.800 
#    0.000    4.000    0.000    0.000    0.000    0.000 
#    0.000    0.000    0.000    0.000    0.000    0.000 
#
# Total GULP energy -495846.744198 kJ/mol
# GULP energy per Si atom -12396.168605 kJ/mol
# Density = 1.939187 g / cm^3
# Si number density = 19.436106 Si / 1000 Ang^3
#
#
#
# Elastic Constant Matrix: (Units=GPa)
#
#
# Indices 1 2 3 4 5 6 
#
# 1 106.1862 38.4566 58.5755 0.0000 0.0000 0.0000
# 2 38.4566 106.1862 58.5755 0.0000 0.0000 0.0000
# 3 58.5755 58.5755 155.8374 0.0000 0.0000 0.0000
# 4 0.0000 0.0000 0.0000 -0.6046 0.0000 0.0000
# 5 0.0000 0.0000 0.0000 0.0000 -0.6045 0.0000
# 6 0.0000 0.0000 0.0000 0.0000 0.0000 29.0607
#
#
#
# Elastic Compliance Matrix: (Units=1/GPa)
#
#
# Indices 1 2 3 4 5 6 
#
# 1 0.012352 -0.002413 -0.003736 0.000000 0.000000 0.000000
# 2 -0.002413 0.012352 -0.003736 0.000000 0.000000 0.000000
# 3 -0.003736 -0.003736 0.009225 0.000000 0.000000 0.000000
# 4 0.000000 0.000000 0.000000 -1.654113 -0.000003 0.000000
# 5 0.000000 0.000000 0.000000 -0.000003 -1.654129 0.000000
# 6 0.000000 0.000000 0.000000 0.000000 0.000000 0.034411
#
#
# Mechanical properties :
#
#
# Convention : Reuss Voigt Hill
#
# Bulk Modulus (GPa) = 70.61927 75.49165 73.05546
# Shear Modulus (GPa) = -1.55501 19.74380 9.09440
#
# Velocity S-wave (km/s) = -0.89543 3.19067 2.16548
# Velocity P-wave (km/s) = 5.94507 7.24562 6.62733
#
# Compressibility (1/GPa) = 0.01416044
#
# Stress axis : x y z
#
# Youngs Moduli (GPa) = 80.95821 80.95821 108.39524
#
# Poissons Ratio (x) = 0.19532 0.40497
# Poissons Ratio (y) = 0.19532 0.40497
# Poissons Ratio (z) = 0.30246 0.30246
#
# Static dielectric constant tensor:
#      x y z
#    x 3.629490 0.000000 0.000000 
#    y 0.000000 3.629490 0.000000 
#    z 0.000000 0.000000 3.602520 
# 
# 
# High freq. dielectric constant tensor:
#      x y z
#    x 1.761080 0.000000 0.000000 
#    y 0.000000 1.761080 0.000000 
#    z 0.000000 0.000000 1.760160 
# 
# From -- ./inp_files/6495.got.cif
#   From: 2010.03.12/outbox.cif.g09.slc.cpg/sg120_4_cif.got.tgz:6495.got - 2010.04.06 16:00:44.
