data_PCOD8311826
_publ_section_title
;
Structure prediction by ZEFSAII (Michael W. Deem and Ramdas Pophale) SiO2 
 PCOD8311826
Probable space group: I -4 2 D
;
_chemical_formula_sum "Si O2"
_cell_formula_units_Z 112
_cell_length_a 13.602562
_cell_length_b 13.602562
_cell_length_c 30.420271
_cell_angle_alpha 90.000000
_cell_angle_beta 90.000000
_cell_angle_gamma 90.000000
_cell_volume 5628.653403
_symmetry_space_group_name_H-M "I -4 2 D"
_symmetry_group_IT_number 122
_symmetry_cell_setting 'tetragonal'
loop_
_space_group_symop_operation_xyz
x,y,z
y,-x,-z
-x,-y,z
-y,x,-z
x,1/2-y,1/4-z
-x,1/2+y,1/4-z
-y,1/2-x,1/4+z
y,1/2+x,1/4+z
1/2+x,1/2+y,1/2+z
1/2+y,1/2-x,1/2-z
1/2-x,1/2-y,1/2+z
1/2-y,1/2+x,1/2-z
1/2+x,-y,3/4-z
1/2-x,y,3/4-z
1/2-y,-x,3/4+z
1/2+y,x,3/4+z
loop_
_atom_site_type_symbol
_atom_site_label
_atom_site_fract_x
_atom_site_fract_y
_atom_site_fract_z
Si Si1 0.791726 0.247591 0.284901
Si Si2 0.983254 0.217529 0.911329
Si Si3 0.735690 0.924692 0.178066
Si Si4 0.236600 0.522765 0.982074
Si Si5 0.112712 0.908694 0.018166
Si Si6 0.847769 0.457361 0.850700
Si Si7 0.577007 0.079678 0.072307
O O1 0.872495 0.274670 0.321053
O O2 0.683942 0.265743 0.305706
O O3 0.804594 0.134295 0.269659
O O4 0.810934 0.320979 0.243753
O O5 0.972828 0.193940 0.859184
O O6 0.047510 0.130483 0.933006
O O7 0.043311 0.313039 0.926738
O O8 0.632229 0.924879 0.151079
O O9 0.730773 0.998896 0.218718
O O10 0.330326 0.513298 0.949915
O O11 0.163435 0.438582 0.964365
O O12 0.000194 0.870867 0.015857
O O13 0.750000 0.416014 0.875000
O O14 0.886351 0.549368 0.878200
O O15 0.500000 0.000000 0.056031
#
# Coordination Sequence:
#
# PCOD8311826 Si02
#       7
#    16  16  16  16  16  16  16
#     4  10  20  38  58  81 112 156 194 235 282 351
#     4  11  20  35  62  84 111 149 194 235 287 357
#     4  11  20  33  53  85 116 151 184 235 287 335
#     4  10  21  34  54  83 120 149 193 237 287 343
#     4   9  20  39  66  86 104 142 197 244 289 338
#     4   9  19  36  53  77 110 155 199 227 269 354
#     4  11  18  33  56  83 108 150 196 231 279 344
#
# _framework density 19.898187
#
# number of rings (size 3 to 8) (size 9 to 14) (size 15 to 20)
#    0.000    1.857    2.857    3.000    0.000    2.286 
#    0.000    2.143    6.286    8.571    0.000    0.000 
#    0.000    0.000    0.000    0.000    0.000    0.000 
#
# Total GULP energy -693947.083884 kJ/mol
# GULP energy per Si atom -12391.912212 kJ/mol
# Density = 1.985290 g / cm^3
# Si number density = 19.898187 Si / 1000 Ang^3
#
#
#
# Elastic Constant Matrix: (Units=GPa)
#
#
# Indices 1 2 3 4 5 6 
#
# 1 59.0614 13.0035 22.9109 0.0000 0.0000 0.0000
# 2 13.0035 59.0614 22.9109 0.0000 0.0000 0.0000
# 3 22.9109 22.9109 132.2143 0.0000 0.0000 0.0000
# 4 0.0000 0.0000 0.0000 20.8437 0.0000 0.0000
# 5 0.0000 0.0000 0.0000 0.0000 20.8437 0.0000
# 6 0.0000 0.0000 0.0000 0.0000 0.0000 24.4498
#
#
#
# Elastic Compliance Matrix: (Units=1/GPa)
#
#
# Indices 1 2 3 4 5 6 
#
# 1 0.018653 -0.003059 -0.002702 0.000000 0.000000 0.000000
# 2 -0.003059 0.018653 -0.002702 0.000000 0.000000 0.000000
# 3 -0.002702 -0.002702 0.008500 0.000000 0.000000 0.000000
# 4 0.000000 0.000000 0.000000 0.047976 0.000000 0.000000
# 5 0.000000 0.000000 0.000000 0.000000 0.047976 0.000000
# 6 0.000000 0.000000 0.000000 0.000000 0.000000 0.040900
#
#
# Mechanical properties :
#
#
# Convention : Reuss Voigt Hill
#
# Bulk Modulus (GPa) = 34.62608 40.88753 37.75680
# Shear Modulus (GPa) = 23.89921 25.99489 24.94705
#
# Velocity S-wave (km/s) = 3.46941 3.61833 3.54465
# Velocity P-wave (km/s) = 5.78692 6.16842 5.98071
#
# Compressibility (1/GPa) = 0.02887996
#
# Stress axis : x y z
#
# Youngs Moduli (GPa) = 53.61006 53.61006 117.64655
#
# Poissons Ratio (x) = 0.16397 0.31792
# Poissons Ratio (y) = 0.16397 0.31792
# Poissons Ratio (z) = 0.14487 0.14487
#
# Static dielectric constant tensor:
#      x y z
#    x 3.749350 0.000000 0.000000 
#    y 0.000000 3.749350 0.000000 
#    z 0.000000 0.000000 3.631690 
# 
# 
# High freq. dielectric constant tensor:
#      x y z
#    x 1.766940 0.000000 0.000000 
#    y 0.000000 1.766940 0.000000 
#    z 0.000000 0.000000 1.769530 
# 
# From -- ./inp_files/8142.got.cif
#   From: 2010.03.12/outbox.cif.g09.slc.cpg/sg122_5_cif.got.tgz:8142.got - 2010.04.06 16:17:16.
