data_PCOD8311283
_publ_section_title
;
Structure prediction by ZEFSAII (Michael W. Deem and Ramdas Pophale) SiO2 
 PCOD8311283
Probable space group: I -4 C 2
;
_chemical_formula_sum "Si O2"
_cell_formula_units_Z 104
_cell_length_a 19.397690
_cell_length_b 19.397690
_cell_length_c 15.826317
_cell_angle_alpha 90.000000
_cell_angle_beta 90.000000
_cell_angle_gamma 90.000000
_cell_volume 5954.974269
_symmetry_space_group_name_H-M "I -4 C 2"
_symmetry_group_IT_number 120
_symmetry_cell_setting 'tetragonal'
loop_
_space_group_symop_operation_xyz
x,y,z
y,-x,-z
-x,-y,z
-y,x,-z
y,x,1/2-z
-y,-x,1/2-z
-x,y,1/2+z
x,-y,1/2+z
1/2+x,1/2+y,1/2+z
1/2+y,1/2-x,1/2-z
1/2-x,1/2-y,1/2+z
1/2-y,1/2+x,1/2-z
1/2+y,1/2+x,-z
1/2-y,1/2-x,-z
1/2-x,1/2+y,z
1/2+x,1/2-y,z
loop_
_atom_site_type_symbol
_atom_site_label
_atom_site_fract_x
_atom_site_fract_y
_atom_site_fract_z
Si Si1 0.728336 0.771665 0.000000
Si Si2 0.820776 0.754101 0.831868
Si Si3 0.722033 0.597706 0.589864
Si Si4 0.638366 0.754607 0.739112
Si Si5 0.422405 0.662049 0.111356
Si Si6 0.311019 0.555527 0.571497
Si Si7 0.453788 0.433711 0.156356
O O1 0.744369 0.730587 0.086599
O O2 0.747198 0.852197 0.017530
O O3 0.801300 0.801300 0.750000
O O4 0.822152 0.673818 0.802257
O O5 0.897770 0.773148 0.859474
O O6 0.772054 0.605296 0.670833
O O7 0.643259 0.611517 0.621703
O O8 0.724219 0.518741 0.562537
O O9 0.702778 0.702778 0.750000
O O10 0.579578 0.722501 0.680143
O O11 0.497187 0.627650 0.123796
O O12 0.411760 0.696888 0.020561
O O13 0.392610 0.554677 0.590401
O O14 0.500000 0.500000 0.157910
O O15 0.421901 0.421901 0.250000
#
# Coordination Sequence:
#
# PCOD8311283 Si02
#       7
#     8  16  16  16  16  16  16
#     4  12  20  40  60  78 108 162 196 240 306 346
#     4  11  20  36  58  83 109 152 201 256 289 344
#     4  11  21  37  55  77 112 155 193 238 292 349
#     4   9  18  35  55  72 101 152 195 236 289 336
#     4  11  20  33  52  74 110 155 200 226 274 342
#     4  12  23  34  51  85 115 147 196 246 286 345
#     4  11  23  33  46  69 112 163 193 223 275 341
#
# _framework density 17.464390999999999
#
# number of rings (size 3 to 8) (size 9 to 14) (size 15 to 20)
#    0.000    1.077    7.692    2.308    4.308    0.000 
#    0.000    0.000    0.000    0.000    0.000    0.000 
#    0.000   13.538    0.000    0.000    0.000    0.000 
#
# Total GULP energy -644291.187993 kJ/mol
# GULP energy per Si atom -12390.215154 kJ/mol
# Density = 1.742464 g / cm^3
# Si number density = 17.464391 Si / 1000 Ang^3
#
#
#
# Elastic Constant Matrix: (Units=GPa)
#
#
# Indices 1 2 3 4 5 6 
#
# 1 59.5188 39.1604 20.4514 0.0000 0.0000 0.0000
# 2 39.1604 59.5202 20.4515 0.0000 0.0000 0.0000
# 3 20.4514 20.4515 106.9169 0.0000 0.0000 0.0000
# 4 0.0000 0.0000 0.0000 26.2772 0.0000 0.0000
# 5 0.0000 0.0000 0.0000 0.0000 26.2771 0.0000
# 6 0.0000 0.0000 0.0000 0.0000 0.0000 31.8607
#
#
#
# Elastic Compliance Matrix: (Units=1/GPa)
#
#
# Indices 1 2 3 4 5 6 
#
# 1 0.030063 -0.019056 -0.002105 0.000000 0.000000 0.000000
# 2 -0.019056 0.030062 -0.002105 0.000000 0.000000 0.000000
# 3 -0.002105 -0.002105 0.010158 0.000000 0.000000 0.000000
# 4 0.000000 0.000000 0.000000 0.038056 0.000000 0.000000
# 5 0.000000 0.000000 0.000000 0.000000 0.038056 0.000000
# 6 0.000000 0.000000 0.000000 0.000000 0.000000 0.031387
#
#
# Mechanical properties :
#
#
# Convention : Reuss Voigt Hill
#
# Bulk Modulus (GPa) = 42.10528 42.89804 42.50166
# Shear Modulus (GPa) = 21.53028 26.60918 24.06973
#
# Velocity S-wave (km/s) = 3.51495 3.90760 3.71646
# Velocity P-wave (km/s) = 6.37454 6.70638 6.54256
#
# Compressibility (1/GPa) = 0.02374999
#
# Stress axis : x y z
#
# Youngs Moduli (GPa) = 33.26389 33.26471 98.43975
#
# Poissons Ratio (x) = 0.63389 0.20726
# Poissons Ratio (y) = 0.63387 0.20724
# Poissons Ratio (z) = 0.07003 0.07003
#
# Static dielectric constant tensor:
#      x y z
#    x 3.268610 0.000000 0.000000 
#    y 0.000000 3.268580 0.000000 
#    z 0.000000 0.000000 3.801330 
# 
# 
# High freq. dielectric constant tensor:
#      x y z
#    x 1.640900 0.000000 0.000000 
#    y 0.000000 1.640900 0.000000 
#    z 0.000000 0.000000 1.704370 
# 
# From -- ./inp_files/4516.got.cif
#   From: 2010.03.12/outbox.cif.g09.slc.cpg/sg120_3_cif.got.tgz:4516.got - 2010.04.06 16:00:44.
