data_PCOD8311076
_publ_section_title
;
Structure prediction by ZEFSAII (Michael W. Deem and Ramdas Pophale) SiO2 
 PCOD8311076
Probable space group: I -4 M 2
;
_chemical_formula_sum "Si O2"
_cell_formula_units_Z 50
_cell_length_a 13.561719
_cell_length_b 13.561719
_cell_length_c 12.613709
_cell_angle_alpha 90.000000
_cell_angle_beta 90.000000
_cell_angle_gamma 90.000000
_cell_volume 2319.916162
_symmetry_space_group_name_H-M "I -4 M 2"
_symmetry_group_IT_number 119
_symmetry_cell_setting 'tetragonal'
loop_
_space_group_symop_operation_xyz
x,y,z
y,-x,-z
-x,-y,z
-y,x,-z
y,x,-z
-y,-x,-z
-x,y,z
x,-y,z
1/2+x,1/2+y,1/2+z
1/2+y,1/2-x,1/2-z
1/2-x,1/2-y,1/2+z
1/2-y,1/2+x,1/2-z
1/2+y,1/2+x,1/2-z
1/2-y,1/2-x,1/2-z
1/2-x,1/2+y,1/2+z
1/2+x,1/2-y,1/2+z
loop_
_atom_site_type_symbol
_atom_site_label
_atom_site_fract_x
_atom_site_fract_y
_atom_site_fract_z
Si Si1 0.390331 0.681316 0.771867
Si Si2 0.500000 0.500000 0.500000
Si Si3 0.611801 0.000000 0.042903
Si Si4 0.500000 0.685967 0.336490
Si Si5 0.326809 0.798132 0.576954
O O1 0.500000 0.641323 0.789928
O O2 0.319668 0.592340 0.741208
O O3 0.389866 0.756887 0.674388
O O4 0.352613 0.729425 0.880592
O O5 0.500000 0.599771 0.427809
O O6 0.500000 0.000000 0.091267
O O7 0.702132 0.000000 0.124287
O O8 0.622966 0.898843 0.977190
O O9 0.291585 0.708416 0.500000
#
# Coordination Sequence:
#
# PCOD8311076 Si02
#       5
#    16   2   8   8  16
#     4  11  22  41  67  99 129 168 235 293 346 403
#     4  12  20  36  84 104 126 172 256 332 332 400
#     4  12  24  42  68 101 140 187 230 281 358 430
#     4  12  22  40  72 102 130 173 240 301 352 407
#     4  11  23  42  66  95 136 181 227 285 346 424
#
# _framework density 21.552502
#
# number of rings (size 3 to 8) (size 9 to 14) (size 15 to 20)
#    0.000    0.640    6.400    2.880    0.000    0.000 
#    5.760    0.000    3.520    0.000    0.000    0.000 
#    0.000    0.000    0.000    0.000    0.000    0.000 
#
# Total GULP energy -309904.489499 kJ/mol
# GULP energy per Si atom -12396.179580 kJ/mol
# Density = 2.150345 g / cm^3
# Si number density = 21.552502 Si / 1000 Ang^3
#
#
#
# Elastic Constant Matrix: (Units=GPa)
#
#
# Indices 1 2 3 4 5 6 
#
# 1 149.9031 55.4801 41.9155 0.0000 0.0000 0.0000
# 2 55.4801 149.9048 41.9159 0.0000 0.0000 0.0000
# 3 41.9155 41.9159 68.6411 0.0000 0.0000 0.0000
# 4 0.0000 0.0000 0.0000 26.7402 0.0000 0.0000
# 5 0.0000 0.0000 0.0000 0.0000 26.7394 0.0000
# 6 0.0000 0.0000 0.0000 0.0000 0.0000 32.3178
#
#
#
# Elastic Compliance Matrix: (Units=1/GPa)
#
#
# Indices 1 2 3 4 5 6 
#
# 1 0.008538 -0.002053 -0.003960 0.000000 0.000000 0.000000
# 2 -0.002053 0.008538 -0.003960 0.000000 0.000000 0.000000
# 3 -0.003960 -0.003960 0.019405 0.000000 0.000000 0.000000
# 4 0.000000 0.000000 0.000000 0.037397 0.000000 0.000000
# 5 0.000000 0.000000 0.000000 0.000000 0.037398 0.000000
# 6 0.000000 0.000000 0.000000 0.000000 0.000000 0.030943
#
#
# Mechanical properties :
#
#
# Convention : Reuss Voigt Hill
#
# Bulk Modulus (GPa) = 60.47842 71.89689 66.18766
# Shear Modulus (GPa) = 29.81926 32.43531 31.12729
#
# Velocity S-wave (km/s) = 3.72366 3.88357 3.80446
# Velocity P-wave (km/s) = 6.82711 7.31716 7.07638
#
# Compressibility (1/GPa) = 0.01653482
#
# Stress axis : x y z
#
# Youngs Moduli (GPa) = 117.12316 117.12444 51.53237
#
# Poissons Ratio (x) = 0.24041 0.20408
# Poissons Ratio (y) = 0.24040 0.20408
# Poissons Ratio (z) = 0.46385 0.46385
#
# Static dielectric constant tensor:
#      x y z
#    x 3.904400 0.000000 0.000000 
#    y 0.000000 3.904390 0.000000 
#    z 0.000000 0.000000 3.789730 
# 
# 
# High freq. dielectric constant tensor:
#      x y z
#    x 1.850720 0.000000 0.000000 
#    y 0.000000 1.850720 0.000000 
#    z 0.000000 0.000000 1.824330 
# 
# From -- ./inp_files/3490.got.cif
#   From: 2010.03.12/outbox.cif.g09.slc.cpg/sg119_2_cif.got.tgz:3490.got - 2010.04.14 02:25:26.
