data_PCOD8311309
_publ_section_title
;
Structure prediction by ZEFSAII (Michael W. Deem and Ramdas Pophale) SiO2 
 PCOD8311309
Probable space group: I -4 C 2
;
_chemical_formula_sum "Si O2"
_cell_formula_units_Z 96
_cell_length_a 14.268667
_cell_length_b 14.268667
_cell_length_c 21.085027
_cell_angle_alpha 90.000000
_cell_angle_beta 90.000000
_cell_angle_gamma 90.000000
_cell_volume 4292.803077
_symmetry_space_group_name_H-M "I -4 C 2"
_symmetry_group_IT_number 120
_symmetry_cell_setting 'tetragonal'
loop_
_space_group_symop_operation_xyz
x,y,z
y,-x,-z
-x,-y,z
-y,x,-z
y,x,1/2-z
-y,-x,1/2-z
-x,y,1/2+z
x,-y,1/2+z
1/2+x,1/2+y,1/2+z
1/2+y,1/2-x,1/2-z
1/2-x,1/2-y,1/2+z
1/2-y,1/2+x,1/2-z
1/2+y,1/2+x,-z
1/2-y,1/2-x,-z
1/2-x,1/2+y,z
1/2+x,1/2-y,z
loop_
_atom_site_type_symbol
_atom_site_label
_atom_site_fract_x
_atom_site_fract_y
_atom_site_fract_z
Si Si1 0.233996 0.050254 0.371192
Si Si2 0.349025 0.041691 0.246318
Si Si3 0.424628 0.578671 0.579648
Si Si4 0.661805 0.301715 0.466959
Si Si5 0.008227 0.737737 0.883249
Si Si6 0.938107 0.419596 0.572992
O O1 0.273008 0.066118 0.300621
O O2 0.197512 0.145547 0.403753
O O3 0.320841 0.013596 0.413443
O O4 0.155807 0.969894 0.373987
O O5 0.434925 0.114493 0.248658
O O6 0.290733 0.057262 0.182190
O O7 0.500000 0.500000 0.560996
O O8 0.383958 0.622941 0.514778
O O9 0.342248 0.532546 0.621002
O O10 0.746676 0.246676 0.500000
O O11 0.582928 0.230249 0.441296
O O12 0.923391 0.666527 0.898643
O O13 0.937785 0.437785 0.500000
O O14 0.000000 0.500000 0.607762
#
# Coordination Sequence:
#
# PCOD8311309 Si02
#       6
#    16  16  16  16  16  16
#     4  12  25  46  75 106 147 206 253 308 382 459
#     4  11  26  51  76 105 152 204 259 324 380 454
#     4  12  27  50  77 111 159 207 245 318 398 472
#     4  12  28  44  77 118 153 199 260 326 391 466
#     4  12  26  46  74 111 151 199 255 313 385 466
#     4  11  23  42  69 107 144 185 248 324 381 440
#
# _framework density 22.363011
#
# number of rings (size 3 to 8) (size 9 to 14) (size 15 to 20)
#    0.000    0.333    3.333    5.500    9.333    1.333 
#    0.000    2.500    0.000    0.000    0.000    0.000 
#    0.000    0.000    0.000    0.000    0.000    0.000 
#
# Total GULP energy -595234.370333 kJ/mol
# GULP energy per Si atom -12400.716049 kJ/mol
# Density = 2.231211 g / cm^3
# Si number density = 22.363011 Si / 1000 Ang^3
#
#
#
# Elastic Constant Matrix: (Units=GPa)
#
#
# Indices 1 2 3 4 5 6 
#
# 1 110.2285 55.4584 34.9912 0.0000 0.0000 0.0000
# 2 55.4584 110.2285 34.9912 0.0000 0.0000 0.0000
# 3 34.9912 34.9912 110.7309 0.0000 0.0000 0.0000
# 4 0.0000 0.0000 0.0000 31.2932 0.0000 0.0000
# 5 0.0000 0.0000 0.0000 0.0000 31.2932 0.0000
# 6 0.0000 0.0000 0.0000 0.0000 0.0000 39.7280
#
#
#
# Elastic Compliance Matrix: (Units=1/GPa)
#
#
# Indices 1 2 3 4 5 6 
#
# 1 0.012612 -0.005647 -0.002201 0.000000 0.000000 0.000000
# 2 -0.005647 0.012612 -0.002201 0.000000 0.000000 0.000000
# 3 -0.002201 -0.002201 0.010422 0.000000 0.000000 0.000000
# 4 0.000000 0.000000 0.000000 0.031956 0.000000 0.000000
# 5 0.000000 0.000000 0.000000 0.000000 0.031956 0.000000
# 6 0.000000 0.000000 0.000000 0.000000 0.000000 0.025171
#
#
# Mechanical properties :
#
#
# Convention : Reuss Voigt Hill
#
# Bulk Modulus (GPa) = 64.31603 64.67437 64.49520
# Shear Modulus (GPa) = 33.33160 34.17935 33.75548
#
# Velocity S-wave (km/s) = 3.86486 3.91370 3.88936
# Velocity P-wave (km/s) = 6.98131 7.02892 7.00516
#
# Compressibility (1/GPa) = 0.01554822
#
# Stress axis : x y z
#
# Youngs Moduli (GPa) = 79.29186 79.29186 95.95144
#
# Poissons Ratio (x) = 0.44772 0.21119
# Poissons Ratio (y) = 0.44772 0.21119
# Poissons Ratio (z) = 0.17452 0.17452
#
# Static dielectric constant tensor:
#      x y z
#    x 4.303590 0.000000 0.000000 
#    y 0.000000 4.303590 0.000000 
#    z 0.000000 0.000000 4.005630 
# 
# 
# High freq. dielectric constant tensor:
#      x y z
#    x 1.888800 0.000000 0.000000 
#    y 0.000000 1.888800 0.000000 
#    z 0.000000 0.000000 1.875470 
# 
# From -- ./inp_files/5369.got.cif
#   From: 2010.03.12/outbox.cif.g09.slc.cpg/sg120_3_cif.got.tgz:5369.got - 2010.04.06 16:00:44.
