data_PCOD8311769
_publ_section_title
;
Structure prediction by ZEFSAII (Michael W. Deem and Ramdas Pophale) SiO2 
 PCOD8311769
Probable space group: I -4 2 D
;
_chemical_formula_sum "Si O2"
_cell_formula_units_Z 72
_cell_length_a 11.552387
_cell_length_b 11.552387
_cell_length_c 25.853679
_cell_angle_alpha 90.000000
_cell_angle_beta 90.000000
_cell_angle_gamma 90.000000
_cell_volume 3450.371124
_symmetry_space_group_name_H-M "I -4 2 D"
_symmetry_group_IT_number 122
_symmetry_cell_setting 'tetragonal'
loop_
_space_group_symop_operation_xyz
x,y,z
y,-x,-z
-x,-y,z
-y,x,-z
x,1/2-y,1/4-z
-x,1/2+y,1/4-z
-y,1/2-x,1/4+z
y,1/2+x,1/4+z
1/2+x,1/2+y,1/2+z
1/2+y,1/2-x,1/2-z
1/2-x,1/2-y,1/2+z
1/2-y,1/2+x,1/2-z
1/2+x,-y,3/4-z
1/2-x,y,3/4-z
1/2-y,-x,3/4+z
1/2+y,x,3/4+z
loop_
_atom_site_type_symbol
_atom_site_label
_atom_site_fract_x
_atom_site_fract_y
_atom_site_fract_z
Si Si1 0.894094 0.668931 0.045045
Si Si2 0.349249 0.116407 0.110190
Si Si3 0.000000 0.500000 0.533258
Si Si4 0.096183 0.408583 0.160751
Si Si5 0.355381 0.421613 0.027744
O O1 0.926378 0.617165 0.100595
O O2 0.923205 0.804059 0.048905
O O3 0.762074 0.651106 0.026971
O O4 0.970532 0.609803 0.001400
O O5 0.321253 0.250000 0.125000
O O6 0.455005 0.105103 0.069725
O O7 0.232630 0.056594 0.086593
O O8 0.386494 0.050702 0.162606
O O9 0.000000 0.500000 0.179124
O O10 0.343994 0.543917 0.998200
#
# Coordination Sequence:
#
# PCOD8311769 Si02
#       5
#    16  16   8  16  16
#     4  10  21  38  65  94 123 174 226 278 333 397
#     4  11  22  42  64  93 138 174 213 278 338 393
#     4  12  24  38  65 100 128 175 224 274 336 412
#     4  10  20  44  67  88 127 179 225 277 340 389
#     4  10  19  36  64  97 131 177 217 265 336 405
#
# _framework density 20.867321
#
# number of rings (size 3 to 8) (size 9 to 14) (size 15 to 20)
#    0.000    1.556    5.556    2.667    0.000    0.000 
#    4.000    0.000    4.889    0.000    0.000    0.000 
#    0.000    0.000    0.000    0.000    0.000    0.000 
#
# Total GULP energy -446050.521623 kJ/mol
# GULP energy per Si atom -12390.292267 kJ/mol
# Density = 2.081983 g / cm^3
# Si number density = 20.867321 Si / 1000 Ang^3
#
#
#
# Elastic Constant Matrix: (Units=GPa)
#
#
# Indices 1 2 3 4 5 6 
#
# 1 121.1568 67.1837 55.3885 0.0000 0.0000 0.0000
# 2 67.1837 121.1568 55.3885 0.0000 0.0000 0.0000
# 3 55.3885 55.3885 113.6103 0.0000 0.0000 0.0000
# 4 0.0000 0.0000 0.0000 34.4953 0.0000 0.0000
# 5 0.0000 0.0000 0.0000 0.0000 34.4953 0.0000
# 6 0.0000 0.0000 0.0000 0.0000 0.0000 38.7029
#
#
#
# Elastic Compliance Matrix: (Units=1/GPa)
#
#
# Indices 1 2 3 4 5 6 
#
# 1 0.012986 -0.005542 -0.003629 0.000000 0.000000 0.000000
# 2 -0.005542 0.012986 -0.003629 0.000000 0.000000 0.000000
# 3 -0.003629 -0.003629 0.012341 0.000000 0.000000 0.000000
# 4 0.000000 0.000000 0.000000 0.028989 0.000000 0.000000
# 5 0.000000 0.000000 0.000000 0.000000 0.028989 0.000000
# 6 0.000000 0.000000 0.000000 0.000000 0.000000 0.025838
#
#
# Mechanical properties :
#
#
# Convention : Reuss Voigt Hill
#
# Bulk Modulus (GPa) = 78.66544 79.09394 78.87969
# Shear Modulus (GPa) = 32.90179 33.40292 33.15235
#
# Velocity S-wave (km/s) = 3.97509 4.00525 3.99020
# Velocity P-wave (km/s) = 7.67126 7.70551 7.68841
#
# Compressibility (1/GPa) = 0.01271206
#
# Stress axis : x y z
#
# Youngs Moduli (GPa) = 77.00617 77.00617 81.03222
#
# Poissons Ratio (x) = 0.42675 0.29409
# Poissons Ratio (y) = 0.42675 0.29409
# Poissons Ratio (z) = 0.27948 0.27948
#
# Static dielectric constant tensor:
#      x y z
#    x 3.640140 0.000000 0.000000 
#    y 0.000000 3.640140 0.000000 
#    z 0.000000 0.000000 4.051070 
# 
# 
# High freq. dielectric constant tensor:
#      x y z
#    x 1.805110 0.000000 0.000000 
#    y 0.000000 1.805110 0.000000 
#    z 0.000000 0.000000 1.829140 
# 
# From -- ./inp_files/8597.got.cif
#   From: 2010.03.12/outbox.cif.g09.slc.cpg/sg122_5_cif.got.tgz:8597.got - 2010.04.06 16:17:16.
