data_PCOD8311577
_publ_section_title
;
Structure prediction by ZEFSAII (Michael W. Deem and Ramdas Pophale) SiO2 
 PCOD8311577
Probable space group: I -4 2 M
;
_chemical_formula_sum "Si O2"
_cell_formula_units_Z 96
_cell_length_a 14.339661
_cell_length_b 14.339661
_cell_length_c 23.732923
_cell_angle_alpha 90.000000
_cell_angle_beta 90.000000
_cell_angle_gamma 90.000000
_cell_volume 4880.103120
_symmetry_space_group_name_H-M "I -4 2 M"
_symmetry_group_IT_number 121
_symmetry_cell_setting 'tetragonal'
loop_
_space_group_symop_operation_xyz
x,y,z
y,-x,-z
-x,-y,z
-y,x,-z
x,-y,-z
-x,y,-z
-y,-x,z
y,x,z
1/2+x,1/2+y,1/2+z
1/2+y,1/2-x,1/2-z
1/2-x,1/2-y,1/2+z
1/2-y,1/2+x,1/2-z
1/2+x,1/2-y,1/2-z
1/2-x,1/2+y,1/2-z
1/2-y,1/2-x,1/2+z
1/2+y,1/2+x,1/2+z
loop_
_atom_site_type_symbol
_atom_site_label
_atom_site_fract_x
_atom_site_fract_y
_atom_site_fract_z
Si Si1 0.320738 0.170320 0.032507
Si Si2 0.105873 0.255808 0.354641
Si Si3 0.961941 0.186005 0.442965
Si Si4 0.578822 0.732371 0.637394
Si Si5 0.149090 0.540130 0.252009
Si Si6 0.611718 0.233533 0.581574
O O1 0.256646 0.256646 0.014251
O O2 0.424295 0.211203 0.039289
O O3 0.296221 0.132952 0.093643
O O4 0.308120 0.094576 0.981885
O O5 0.190118 0.190118 0.334202
O O6 0.042982 0.283518 0.301673
O O7 0.147165 0.350315 0.381715
O O8 0.043350 0.197628 0.397868
O O9 0.881376 0.118625 0.417320
O O10 0.000000 0.138850 0.500000
O O11 0.633683 0.633683 0.646347
O O12 0.570773 0.789498 0.694882
O O13 0.477952 0.717689 0.609458
O O14 0.112214 0.435224 0.257680
O O15 0.685196 0.314805 0.578794
#
# Coordination Sequence:
#
# PCOD8311577 Si02
#       6
#    16  16  16  16  16  16
#     4   9  19  36  59  89 124 160 197 246 307 366
#     4  11  22  39  61  86 124 167 204 251 317 372
#     4  11  21  36  60  91 125 163 206 252 306 372
#     4  11  22  39  63  90 121 158 206 256 309 369
#     4  11  23  41  63  87 119 157 210 263 306 369
#     4  10  20  38  61  87 123 161 200 248 310 374
#
# _framework density 19.671714999999999
#
# number of rings (size 3 to 8) (size 9 to 14) (size 15 to 20)
#    0.000    1.500    3.333    2.500    0.000    1.500 
#    0.000    1.667    0.000    5.000    0.000    0.000 
#    0.000    0.000    0.000    0.000    0.000    0.000 
#
# Total GULP energy -594966.335373 kJ/mol
# GULP energy per Si atom -12395.131987 kJ/mol
# Density = 1.962694 g / cm^3
# Si number density = 19.671715 Si / 1000 Ang^3
#
#
#
# Elastic Constant Matrix: (Units=GPa)
#
#
# Indices 1 2 3 4 5 6 
#
# 1 71.4145 16.0858 25.2159 0.0000 0.0000 0.0000
# 2 16.0858 71.4178 25.2155 0.0000 0.0000 0.0000
# 3 25.2159 25.2155 92.8304 0.0000 0.0000 0.0000
# 4 0.0000 0.0000 0.0000 31.6380 0.0000 0.0000
# 5 0.0000 0.0000 0.0000 0.0000 31.6382 0.0000
# 6 0.0000 0.0000 0.0000 0.0000 0.0000 32.2323
#
#
#
# Elastic Compliance Matrix: (Units=1/GPa)
#
#
# Indices 1 2 3 4 5 6 
#
# 1 0.015812 -0.002262 -0.003681 0.000000 0.000000 0.000000
# 2 -0.002262 0.015811 -0.003680 0.000000 0.000000 0.000000
# 3 -0.003681 -0.003680 0.012772 0.000000 0.000000 0.000000
# 4 0.000000 0.000000 0.000000 0.031608 0.000000 0.000000
# 5 0.000000 0.000000 0.000000 0.000000 0.031607 0.000000
# 6 0.000000 0.000000 0.000000 0.000000 0.000000 0.031025
#
#
# Mechanical properties :
#
#
# Convention : Reuss Voigt Hill
#
# Bulk Modulus (GPa) = 39.76309 40.96635 40.36472
# Shear Modulus (GPa) = 30.07284 30.37807 30.22545
#
# Velocity S-wave (km/s) = 3.91415 3.93396 3.92407
# Velocity P-wave (km/s) = 6.37845 6.44243 6.41052
#
# Compressibility (1/GPa) = 0.02514895
#
# Stress axis : x y z
#
# Youngs Moduli (GPa) = 63.24373 63.24718 78.29739
#
# Poissons Ratio (x) = 0.14306 0.28819
# Poissons Ratio (y) = 0.14305 0.28816
# Poissons Ratio (z) = 0.23278 0.23277
#
# Static dielectric constant tensor:
#      x y z
#    x 3.601760 0.000000 0.000000 
#    y 0.000000 3.601770 0.000000 
#    z 0.000000 0.000000 3.646730 
# 
# 
# High freq. dielectric constant tensor:
#      x y z
#    x 1.760900 0.000000 0.000000 
#    y 0.000000 1.760900 0.000000 
#    z 0.000000 0.000000 1.774670 
# 
# From -- ./inp_files/6389.got.cif
#   From: 2010.03.12/outbox.cif.g09.slc.cpg/sg121_4_cif.got.tgz:6389.got - 2010.04.06 16:06:48.
