data_PCOD8311908
_publ_section_title
;
Structure prediction by ZEFSAII (Michael W. Deem and Ramdas Pophale) SiO2 
 PCOD8311908
Probable space group: I -4 2 D
;
_chemical_formula_sum "Si O2"
_cell_formula_units_Z 48
_cell_length_a 9.131087
_cell_length_b 9.131087
_cell_length_c 23.979724
_cell_angle_alpha 90.000000
_cell_angle_beta 90.000000
_cell_angle_gamma 90.000000
_cell_volume 1999.351448
_symmetry_space_group_name_H-M "I -4 2 D"
_symmetry_group_IT_number 122
_symmetry_cell_setting 'tetragonal'
loop_
_space_group_symop_operation_xyz
x,y,z
y,-x,-z
-x,-y,z
-y,x,-z
x,1/2-y,1/4-z
-x,1/2+y,1/4-z
-y,1/2-x,1/4+z
y,1/2+x,1/4+z
1/2+x,1/2+y,1/2+z
1/2+y,1/2-x,1/2-z
1/2-x,1/2-y,1/2+z
1/2-y,1/2+x,1/2-z
1/2+x,-y,3/4-z
1/2-x,y,3/4-z
1/2-y,-x,3/4+z
1/2+y,x,3/4+z
loop_
_atom_site_type_symbol
_atom_site_label
_atom_site_fract_x
_atom_site_fract_y
_atom_site_fract_z
Si Si1 0.250000 0.513794 0.375000
Si Si2 0.763225 0.237301 0.043296
Si Si3 0.516069 0.250000 0.125000
Si Si4 0.766174 0.597019 0.569944
O O1 0.296416 0.409043 0.323935
O O2 0.382862 0.620194 0.392974
O O3 0.620431 0.305213 0.073897
O O4 0.745745 0.062760 0.044977
O O5 0.778855 0.279125 0.978584
O O6 0.411758 0.114820 0.107225
#
# Coordination Sequence:
#
# PCOD8311908 Si02
#       4
#     8  16   8  16
#     4  10  22  38  72 106 136 170 232 308 358 404
#     4  11  22  45  72 106 137 187 238 298 349 436
#     4  10  26  46  60 106 152 178 228 296 370 412
#     4  11  22  45  72 106 137 187 238 298 349 436
#
# _framework density 24.007784000000001
#
# number of rings (size 3 to 8) (size 9 to 14) (size 15 to 20)
#    0.000    1.333    3.333    2.000    0.000    0.000 
#   36.000    0.000    0.000    0.000    0.000    0.000 
#    0.000    0.000    0.000    0.000    0.000    0.000 
#
# Total GULP energy -297497.006027 kJ/mol
# GULP energy per Si atom -12395.708584 kJ/mol
# Density = 2.395314 g / cm^3
# Si number density = 24.007784 Si / 1000 Ang^3
#
#
#
# Elastic Constant Matrix: (Units=GPa)
#
#
# Indices 1 2 3 4 5 6 
#
# 1 134.0837 32.3071 58.0497 0.0000 0.0000 0.0000
# 2 32.3071 134.0837 58.0497 0.0000 0.0000 0.0000
# 3 58.0497 58.0497 122.4185 0.0000 0.0000 0.0000
# 4 0.0000 0.0000 0.0000 27.7092 0.0000 0.0000
# 5 0.0000 0.0000 0.0000 0.0000 27.7092 0.0000
# 6 0.0000 0.0000 0.0000 0.0000 0.0000 62.0532
#
#
#
# Elastic Compliance Matrix: (Units=1/GPa)
#
#
# Indices 1 2 3 4 5 6 
#
# 1 0.009404 -0.000422 -0.004259 0.000000 0.000000 0.000000
# 2 -0.000422 0.009404 -0.004259 0.000000 0.000000 0.000000
# 3 -0.004259 -0.004259 0.012208 0.000000 0.000000 0.000000
# 4 0.000000 0.000000 0.000000 0.036089 0.000000 0.000000
# 5 0.000000 0.000000 0.000000 0.000000 0.036089 0.000000
# 6 0.000000 0.000000 0.000000 0.000000 0.000000 0.016115
#
#
# Mechanical properties :
#
#
# Convention : Reuss Voigt Hill
#
# Bulk Modulus (GPa) = 76.13169 76.37768 76.25468
# Shear Modulus (GPa) = 35.31902 39.63960 37.47931
#
# Velocity S-wave (km/s) = 3.83972 4.06780 3.95540
# Velocity P-wave (km/s) = 7.17203 7.34476 7.25891
#
# Compressibility (1/GPa) = 0.01313513
#
# Stress axis : x y z
#
# Youngs Moduli (GPa) = 106.34257 106.34256 81.91425
#
# Poissons Ratio (x) = 0.04486 0.34888
# Poissons Ratio (y) = 0.04486 0.34888
# Poissons Ratio (z) = 0.45292 0.45292
#
# Static dielectric constant tensor:
#      x y z
#    x 4.215580 0.000000 0.000000 
#    y 0.000000 4.215580 0.000000 
#    z 0.000000 0.000000 4.505610 
# 
# 
# High freq. dielectric constant tensor:
#      x y z
#    x 1.944970 0.000000 0.000000 
#    y 0.000000 1.944970 0.000000 
#    z 0.000000 0.000000 1.953080 
# 
# From -- ./inp_files/9125.got.cif
#   From: 2010.03.12/outbox.cif.g09.slc.cpg/sg122_5_cif.got.tgz:9125.got - 2010.04.06 16:17:16.
