data_PCOD8311396
_publ_section_title
;
Structure prediction by ZEFSAII (Michael W. Deem and Ramdas Pophale) SiO2 
 PCOD8311396
Probable space group: I -4 2 M
;
_chemical_formula_sum "Si O2"
_cell_formula_units_Z 96
_cell_length_a 20.266816
_cell_length_b 20.266816
_cell_length_c 12.246256
_cell_angle_alpha 90.000000
_cell_angle_beta 90.000000
_cell_angle_gamma 90.000000
_cell_volume 5030.074102
_symmetry_space_group_name_H-M "I -4 2 M"
_symmetry_group_IT_number 121
_symmetry_cell_setting 'tetragonal'
loop_
_space_group_symop_operation_xyz
x,y,z
y,-x,-z
-x,-y,z
-y,x,-z
x,-y,-z
-x,y,-z
-y,-x,z
y,x,z
1/2+x,1/2+y,1/2+z
1/2+y,1/2-x,1/2-z
1/2-x,1/2-y,1/2+z
1/2-y,1/2+x,1/2-z
1/2+x,1/2-y,1/2-z
1/2-x,1/2+y,1/2-z
1/2-y,1/2-x,1/2+z
1/2+y,1/2+x,1/2+z
loop_
_atom_site_type_symbol
_atom_site_label
_atom_site_fract_x
_atom_site_fract_y
_atom_site_fract_z
Si Si1 0.242001 0.137635 0.188429
Si Si2 0.154115 0.263936 0.605287
Si Si3 0.996497 0.602869 0.270089
Si Si4 0.084090 0.288910 0.821570
Si Si5 0.175717 0.929159 0.009867
Si Si6 0.317927 0.897395 0.610276
O O1 0.195482 0.195482 0.235202
O O2 0.302082 0.170859 0.122286
O O3 0.266461 0.094340 0.290192
O O4 0.202356 0.090394 0.108421
O O5 0.199167 0.199167 0.584257
O O6 0.107102 0.253726 0.709517
O O7 0.105042 0.278590 0.503546
O O8 0.943492 0.559412 0.199286
O O9 0.959651 0.631150 0.378909
O O10 0.021609 0.663012 0.195983
O O11 0.061332 0.234131 0.904973
O O12 0.145282 0.327908 0.873867
O O13 0.124292 0.875709 0.054940
O O14 0.140056 0.000000 0.000000
#
# Coordination Sequence:
#
# PCOD8311396 Si02
#       6
#    16  16  16  16  16  16
#     4   9  18  31  50  78 108 140 182 229 284 338
#     4  10  19  31  53  83 111 142 186 241 293 343
#     4   9  19  35  54  74 110 155 200 240 274 335
#     4  10  20  35  56  78 112 147 191 236 285 338
#     4  11  22  37  57  80 107 141 181 229 286 348
#     4  10  18  32  55  78 113 148 188 234 286 333
#
# _framework density 19.085204999999998
#
# number of rings (size 3 to 8) (size 9 to 14) (size 15 to 20)
#    0.000    2.167    1.667    2.000    0.000    2.167 
#    0.000    0.000    3.667    4.000    0.000    0.000 
#    0.000    0.000    0.000    5.500    0.000    0.000 
#
# Total GULP energy -595061.372573 kJ/mol
# GULP energy per Si atom -12397.111929 kJ/mol
# Density = 1.904177 g / cm^3
# Si number density = 19.085205 Si / 1000 Ang^3
#
#
#
# Elastic Constant Matrix: (Units=GPa)
#
#
# Indices 1 2 3 4 5 6 
#
# 1 72.7614 37.2603 21.5252 0.0000 0.0000 0.0000
# 2 37.2603 72.7648 21.5265 0.0000 0.0000 0.0000
# 3 21.5252 21.5265 78.1770 0.0000 0.0000 0.0000
# 4 0.0000 0.0000 0.0000 18.1098 0.0000 0.0000
# 5 0.0000 0.0000 0.0000 0.0000 18.1099 0.0000
# 6 0.0000 0.0000 0.0000 0.0000 0.0000 30.2311
#
#
#
# Elastic Compliance Matrix: (Units=1/GPa)
#
#
# Indices 1 2 3 4 5 6 
#
# 1 0.019177 -0.008990 -0.002805 0.000000 0.000000 0.000000
# 2 -0.008990 0.019176 -0.002805 0.000000 0.000000 0.000000
# 3 -0.002805 -0.002805 0.014336 0.000000 0.000000 0.000000
# 4 0.000000 0.000000 0.000000 0.055219 0.000000 0.000000
# 5 0.000000 0.000000 0.000000 0.000000 0.055218 0.000000
# 6 0.000000 0.000000 0.000000 0.000000 0.000000 0.033079
#
#
# Mechanical properties :
#
#
# Convention : Reuss Voigt Hill
#
# Bulk Modulus (GPa) = 42.57173 42.70303 42.63738
# Shear Modulus (GPa) = 21.43764 22.84956 22.14360
#
# Velocity S-wave (km/s) = 3.35514 3.46387 3.40994
# Velocity P-wave (km/s) = 6.11260 6.19850 6.15570
#
# Compressibility (1/GPa) = 0.02348976
#
# Stress axis : x y z
#
# Youngs Moduli (GPa) = 52.14567 52.14780 69.75398
#
# Poissons Ratio (x) = 0.46882 0.19564
# Poissons Ratio (y) = 0.46880 0.19566
# Poissons Ratio (z) = 0.14625 0.14627
#
# Static dielectric constant tensor:
#      x y z
#    x 3.513280 0.000000 0.000000 
#    y 0.000000 3.513280 0.000000 
#    z 0.000000 0.000000 3.278190 
# 
# 
# High freq. dielectric constant tensor:
#      x y z
#    x 1.731580 0.000000 0.000000 
#    y 0.000000 1.731580 0.000000 
#    z 0.000000 0.000000 1.725360 
# 
# From -- ./inp_files/3299.got.cif
#   From: 2010.03.12/outbox.cif.g09.slc.cpg/sg121_2_cif.got.tgz:3299.got - 2010.04.06 16:06:48.
