data_PCOD8311088
_publ_section_title
;
Structure prediction by ZEFSAII (Michael W. Deem and Ramdas Pophale) SiO2 
 PCOD8311088
Probable space group: I -4 M 2
;
_chemical_formula_sum "Si O2"
_cell_formula_units_Z 52
_cell_length_a 11.362662
_cell_length_b 11.362662
_cell_length_c 18.703172
_cell_angle_alpha 90.000000
_cell_angle_beta 90.000000
_cell_angle_gamma 90.000000
_cell_volume 2414.768178
_symmetry_space_group_name_H-M "I -4 M 2"
_symmetry_group_IT_number 119
_symmetry_cell_setting 'tetragonal'
loop_
_space_group_symop_operation_xyz
x,y,z
y,-x,-z
-x,-y,z
-y,x,-z
y,x,-z
-y,-x,-z
-x,y,z
x,-y,z
1/2+x,1/2+y,1/2+z
1/2+y,1/2-x,1/2-z
1/2-x,1/2-y,1/2+z
1/2-y,1/2+x,1/2-z
1/2+y,1/2+x,1/2-z
1/2-y,1/2-x,1/2-z
1/2-x,1/2+y,1/2+z
1/2+x,1/2-y,1/2+z
loop_
_atom_site_type_symbol
_atom_site_label
_atom_site_fract_x
_atom_site_fract_y
_atom_site_fract_z
Si Si1 0.866298 0.866298 0.000000
Si Si2 0.709637 0.500000 0.116933
Si Si3 0.365741 0.865741 0.250000
Si Si4 0.000000 0.500000 0.250000
Si Si5 0.500000 0.500000 0.000000
Si Si6 0.235409 0.000000 0.780160
Si Si7 0.224091 0.242378 0.133205
O O1 0.837820 0.775847 0.936789
O O2 0.000000 0.845280 0.025647
O O3 0.609420 0.500000 0.055402
O O4 0.675923 0.500000 0.201384
O O5 0.784589 0.620387 0.108745
O O6 0.500000 0.842978 0.272060
O O7 0.339060 0.783627 0.180831
O O8 0.000000 0.376871 0.208643
O O9 0.193928 0.882813 0.818913
#
# Coordination Sequence:
#
# PCOD8311088 Si02
#       7
#     8   8   8   2   2   8  16
#     4  11  25  44  65  93 138 182 232 281 345 408
#     4  12  24  44  68  98 137 184 225 287 344 415
#     4  11  25  44  71 101 136 176 228 285 339 412
#     4  12  16  36  64 100 128 144 220 282 324 400
#     4  12  32  44  56 104 148 190 240 276 352 448
#     4  12  20  38  72 103 126 169 225 287 344 398
#     4  12  23  44  69 101 134 178 226 292 343 413
#
# _framework density 21.534158000000001
#
# number of rings (size 3 to 8) (size 9 to 14) (size 15 to 20)
#    0.000    0.308    7.692    1.846    2.154    0.000 
#    5.538    0.000    0.000    0.000    0.000    0.000 
#    0.000    0.000    0.000    0.000    0.000    0.000 
#
# Total GULP energy -322097.140975 kJ/mol
# GULP energy per Si atom -12388.351576 kJ/mol
# Density = 2.148515 g / cm^3
# Si number density = 21.534158 Si / 1000 Ang^3
#
#
#
# Elastic Constant Matrix: (Units=GPa)
#
#
# Indices 1 2 3 4 5 6 
#
# 1 83.1914 29.0865 43.4690 0.0000 0.0000 0.0000
# 2 29.0865 83.1914 43.4690 0.0000 0.0000 0.0000
# 3 43.4690 43.4690 150.1032 0.0000 0.0000 0.0000
# 4 0.0000 0.0000 0.0000 40.2413 0.0000 0.0000
# 5 0.0000 0.0000 0.0000 0.0000 40.2413 0.0000
# 6 0.0000 0.0000 0.0000 0.0000 0.0000 25.9199
#
#
#
# Elastic Compliance Matrix: (Units=1/GPa)
#
#
# Indices 1 2 3 4 5 6 
#
# 1 0.014982 -0.003501 -0.003325 0.000000 0.000000 0.000000
# 2 -0.003501 0.014982 -0.003325 0.000000 0.000000 0.000000
# 3 -0.003325 -0.003325 0.008588 0.000000 0.000000 0.000000
# 4 0.000000 0.000000 0.000000 0.024850 0.000000 0.000000
# 5 0.000000 0.000000 0.000000 0.000000 0.024850 0.000000
# 6 0.000000 0.000000 0.000000 0.000000 0.000000 0.038580
#
#
# Mechanical properties :
#
#
# Convention : Reuss Voigt Hill
#
# Bulk Modulus (GPa) = 54.79342 60.94835 57.87088
# Shear Modulus (GPa) = 32.63363 34.64462 33.63913
#
# Velocity S-wave (km/s) = 3.89708 4.01536 3.95667
# Velocity P-wave (km/s) = 6.76386 7.06131 6.91418
#
# Compressibility (1/GPa) = 0.01825037
#
# Stress axis : x y z
#
# Youngs Moduli (GPa) = 66.74788 66.74788 116.44472
#
# Poissons Ratio (x) = 0.23367 0.38716
# Poissons Ratio (y) = 0.23367 0.38716
# Poissons Ratio (z) = 0.22192 0.22192
#
# Static dielectric constant tensor:
#      x y z
#    x 3.997000 0.000000 0.000000 
#    y 0.000000 3.997000 0.000000 
#    z 0.000000 0.000000 3.909580 
# 
# 
# High freq. dielectric constant tensor:
#      x y z
#    x 1.839090 0.000000 0.000000 
#    y 0.000000 1.839090 0.000000 
#    z 0.000000 0.000000 1.849100 
# 
# From -- ./inp_files/7363.got.cif
#   From: 2010.03.12/outbox.cif.g09.slc.cpg/sg119_4_cif.got.tgz:7363.got - 2010.04.14 02:25:26.
