data_PCOD8311988
_publ_section_title
;
Structure prediction by ZEFSAII (Michael W. Deem and Ramdas Pophale) SiO2 
 PCOD8311988
Probable space group: I -4 2 D
;
_chemical_formula_sum "Si O2"
_cell_formula_units_Z 92
_cell_length_a 14.150010
_cell_length_b 14.150010
_cell_length_c 20.948364
_cell_angle_alpha 90.000000
_cell_angle_beta 90.000000
_cell_angle_gamma 90.000000
_cell_volume 4194.339739
_symmetry_space_group_name_H-M "I -4 2 D"
_symmetry_group_IT_number 122
_symmetry_cell_setting 'tetragonal'
loop_
_space_group_symop_operation_xyz
x,y,z
y,-x,-z
-x,-y,z
-y,x,-z
x,1/2-y,1/4-z
-x,1/2+y,1/4-z
-y,1/2-x,1/4+z
y,1/2+x,1/4+z
1/2+x,1/2+y,1/2+z
1/2+y,1/2-x,1/2-z
1/2-x,1/2-y,1/2+z
1/2-y,1/2+x,1/2-z
1/2+x,-y,3/4-z
1/2-x,y,3/4-z
1/2-y,-x,3/4+z
1/2+y,x,3/4+z
loop_
_atom_site_type_symbol
_atom_site_label
_atom_site_fract_x
_atom_site_fract_y
_atom_site_fract_z
Si Si1 0.500000 0.000000 0.250000
Si Si2 0.235717 0.239796 0.552614
Si Si3 0.923762 0.835235 0.237098
Si Si4 0.040894 0.156136 0.591191
Si Si5 0.074336 0.805451 0.989889
Si Si6 0.000000 0.500000 0.934586
Si Si7 0.895277 0.478612 0.352861
O O1 0.478249 0.903186 0.209933
O O2 0.272055 0.250000 0.625000
O O3 0.311216 0.176907 0.514287
O O4 0.134733 0.189145 0.554471
O O5 0.229400 0.339922 0.514504
O O6 0.968035 0.831568 0.165833
O O7 0.975888 0.749461 0.274330
O O8 0.937449 0.932930 0.272129
O O9 0.993898 0.250000 0.625000
O O10 0.062101 0.075787 0.644417
O O11 0.101608 0.882061 0.937044
O O12 0.064372 0.857209 0.058608
O O13 0.000000 0.500000 0.376950
#
# Coordination Sequence:
#
# PCOD8311988 Si02
#       7
#     4  16  16  16  16   8  16
#     4  10  24  48  80 100 132 186 220 290 356 402
#     4  11  21  39  67  93 130 179 222 277 341 403
#     4  12  23  38  63  95 133 177 230 272 342 408
#     4  10  24  47  73  99 133 171 229 283 344 405
#     4  12  21  39  63  94 133 179 223 272 331 410
#     4  11  26  43  66  99 134 175 232 294 336 407
#     4  12  21  38  61  92 136 180 218 270 334 401
#
# _framework density 21.934322000000002
#
# number of rings (size 3 to 8) (size 9 to 14) (size 15 to 20)
#    0.000    0.696    6.087    2.609    2.435    0.000 
#    0.000    0.000   11.478    0.000    0.000    0.000 
#    0.000    0.000    0.000    0.000    0.000    0.000 
#
# Total GULP energy -569937.711560 kJ/mol
# GULP energy per Si atom -12389.950251 kJ/mol
# Density = 2.188440 g / cm^3
# Si number density = 21.934322 Si / 1000 Ang^3
#
#
#
# Elastic Constant Matrix: (Units=GPa)
#
#
# Indices 1 2 3 4 5 6 
#
# 1 95.5047 16.8512 28.0414 0.0000 0.0000 0.0000
# 2 16.8512 95.5047 28.0414 0.0000 0.0000 0.0000
# 3 28.0414 28.0414 78.8421 0.0000 0.0000 0.0000
# 4 0.0000 0.0000 0.0000 27.0036 0.0000 0.0000
# 5 0.0000 0.0000 0.0000 0.0000 27.0036 0.0000
# 6 0.0000 0.0000 0.0000 0.0000 0.0000 43.3170
#
#
#
# Elastic Compliance Matrix: (Units=1/GPa)
#
#
# Indices 1 2 3 4 5 6 
#
# 1 0.011768 -0.000946 -0.003849 0.000000 0.000000 0.000000
# 2 -0.000946 0.011768 -0.003849 0.000000 0.000000 0.000000
# 3 -0.003849 -0.003849 0.015421 0.000000 0.000000 0.000000
# 4 0.000000 0.000000 0.000000 0.037032 0.000000 0.000000
# 5 0.000000 0.000000 0.000000 0.000000 0.037032 0.000000
# 6 0.000000 0.000000 0.000000 0.000000 0.000000 0.023086
#
#
# Mechanical properties :
#
#
# Convention : Reuss Voigt Hill
#
# Bulk Modulus (GPa) = 46.14890 46.19106 46.16998
# Shear Modulus (GPa) = 31.12988 32.59268 31.86128
#
# Velocity S-wave (km/s) = 3.77136 3.85895 3.81540
# Velocity P-wave (km/s) = 6.32846 6.39999 6.36432
#
# Compressibility (1/GPa) = 0.02166899
#
# Stress axis : x y z
#
# Youngs Moduli (GPa) = 84.97825 84.97825 64.84514
#
# Poissons Ratio (x) = 0.08041 0.24958
# Poissons Ratio (y) = 0.08041 0.24958
# Poissons Ratio (z) = 0.32707 0.32707
#
# Static dielectric constant tensor:
#      x y z
#    x 3.967370 0.000000 0.000000 
#    y 0.000000 3.967370 0.000000 
#    z 0.000000 0.000000 3.953540 
# 
# 
# High freq. dielectric constant tensor:
#      x y z
#    x 1.861060 0.000000 0.000000 
#    y 0.000000 1.861060 0.000000 
#    z 0.000000 0.000000 1.848430 
# 
# From -- ./inp_files/7361.got.cif
#   From: 2010.03.12/outbox.cif.g09.slc.cpg/sg122_4_cif.got.tgz:7361.got - 2010.04.06 16:17:16.
