data_PCOD8311415
_publ_section_title
;
Structure prediction by ZEFSAII (Michael W. Deem and Ramdas Pophale) SiO2 
 PCOD8311415
Probable space group: I -4 2 M
;
_chemical_formula_sum "Si O2"
_cell_formula_units_Z 80
_cell_length_a 12.661061
_cell_length_b 12.661061
_cell_length_c 25.218015
_cell_angle_alpha 90.000000
_cell_angle_beta 90.000000
_cell_angle_gamma 90.000000
_cell_volume 4042.509983
_symmetry_space_group_name_H-M "I -4 2 M"
_symmetry_group_IT_number 121
_symmetry_cell_setting 'tetragonal'
loop_
_space_group_symop_operation_xyz
x,y,z
y,-x,-z
-x,-y,z
-y,x,-z
x,-y,-z
-x,y,-z
-y,-x,z
y,x,z
1/2+x,1/2+y,1/2+z
1/2+y,1/2-x,1/2-z
1/2-x,1/2-y,1/2+z
1/2-y,1/2+x,1/2-z
1/2+x,1/2-y,1/2-z
1/2-x,1/2+y,1/2-z
1/2-y,1/2-x,1/2+z
1/2+y,1/2+x,1/2+z
loop_
_atom_site_type_symbol
_atom_site_label
_atom_site_fract_x
_atom_site_fract_y
_atom_site_fract_z
Si Si1 0.620088 0.960295 0.946941
Si Si2 0.501331 0.327269 0.266543
Si Si3 0.933259 0.236022 0.343472
Si Si4 0.877261 0.535181 0.666992
Si Si5 0.766508 0.935956 0.446717
O O1 0.636576 0.835381 0.953228
O O2 0.500000 0.000000 0.949689
O O3 0.665087 0.001924 0.891264
O O4 0.680876 0.000000 0.000000
O O5 0.606623 0.393378 0.283107
O O6 0.396598 0.396598 0.279506
O O7 0.508177 0.306243 0.203464
O O8 0.488681 0.212205 0.293879
O O9 0.850819 0.149182 0.360878
O O10 0.871729 0.339993 0.324815
O O11 0.994605 0.264180 0.396442
O O12 0.000000 0.500000 0.678825
O O13 0.869234 0.869234 0.432926
O O14 0.789430 0.000000 0.500000
#
# Coordination Sequence:
#
# PCOD8311415 Si02
#       5
#    16  16  16  16  16
#     4  10  18  39  63  82 119 156 193 244 295 354
#     4  10  24  44  63  86 123 168 208 255 312 365
#     4  11  23  39  60  89 123 162 200 246 308 365
#     4  11  22  39  64  93 118 155 207 255 297 361
#     4  12  23  37  60  90 121 158 199 243 299 367
#
# _framework density 19.789684000000001
#
# number of rings (size 3 to 8) (size 9 to 14) (size 15 to 20)
#    0.000    1.200    6.000    1.800    2.800    3.000 
#    0.000    1.000    0.000    0.000    0.000    1.400 
#    0.000    0.000    0.000    0.000    0.000    0.000 
#
# Total GULP energy -495666.654757 kJ/mol
# GULP energy per Si atom -12391.666369 kJ/mol
# Density = 1.974464 g / cm^3
# Si number density = 19.789684 Si / 1000 Ang^3
#
#
#
# Elastic Constant Matrix: (Units=GPa)
#
#
# Indices 1 2 3 4 5 6 
#
# 1 77.1552 30.8097 42.4115 0.0000 0.0000 0.0000
# 2 30.8097 77.1593 42.4115 0.0000 0.0000 0.0000
# 3 42.4115 42.4115 110.7209 0.0000 0.0000 0.0000
# 4 0.0000 0.0000 0.0000 25.0660 0.0000 0.0000
# 5 0.0000 0.0000 0.0000 0.0000 25.0666 0.0000
# 6 0.0000 0.0000 0.0000 0.0000 0.0000 18.7368
#
#
#
# Elastic Compliance Matrix: (Units=1/GPa)
#
#
# Indices 1 2 3 4 5 6 
#
# 1 0.017413 -0.004163 -0.005075 0.000000 0.000000 0.000000
# 2 -0.004163 0.017412 -0.005075 0.000000 0.000000 0.000000
# 3 -0.005075 -0.005075 0.012920 0.000000 0.000000 0.000000
# 4 0.000000 0.000000 0.000000 0.039895 0.000000 0.000000
# 5 0.000000 0.000000 0.000000 0.000000 0.039894 0.000000
# 6 0.000000 0.000000 0.000000 0.000000 0.000000 0.053371
#
#
# Mechanical properties :
#
#
# Convention : Reuss Voigt Hill
#
# Bulk Modulus (GPa) = 52.30709 55.14452 53.72580
# Shear Modulus (GPa) = 23.15840 23.73406 23.44623
#
# Velocity S-wave (km/s) = 3.42457 3.46687 3.44578
# Velocity P-wave (km/s) = 6.49044 6.62958 6.56038
#
# Compressibility (1/GPa) = 0.01911787
#
# Stress axis : x y z
#
# Youngs Moduli (GPa) = 57.42735 57.43131 77.40078
#
# Poissons Ratio (x) = 0.23911 0.39284
# Poissons Ratio (y) = 0.23909 0.39280
# Poissons Ratio (z) = 0.29147 0.29146
#
# Static dielectric constant tensor:
#      x y z
#    x 3.462350 0.000000 0.000000 
#    y 0.000000 3.462350 0.000000 
#    z 0.000000 0.000000 4.024380 
# 
# 
# High freq. dielectric constant tensor:
#      x y z
#    x 1.757300 0.000000 0.000000 
#    y 0.000000 1.757300 0.000000 
#    z 0.000000 0.000000 1.789030 
# 
# From -- ./inp_files/8063.got.cif
#   From: 2010.03.12/outbox.cif.g09.slc.cpg/sg121_5_cif.got.tgz:8063.got - 2010.04.06 16:06:48.
