data_PCOD8311368
_publ_section_title
;
Structure prediction by ZEFSAII (Michael W. Deem and Ramdas Pophale) SiO2 
 PCOD8311368
Probable space group: I -4 2 M
;
_chemical_formula_sum "Si O2"
_cell_formula_units_Z 96
_cell_length_a 24.999779
_cell_length_b 24.999779
_cell_length_c 9.692383
_cell_angle_alpha 90.000000
_cell_angle_beta 90.000000
_cell_angle_gamma 90.000000
_cell_volume 6057.632275
_symmetry_space_group_name_H-M "I -4 2 M"
_symmetry_group_IT_number 121
_symmetry_cell_setting 'tetragonal'
loop_
_space_group_symop_operation_xyz
x,y,z
y,-x,-z
-x,-y,z
-y,x,-z
x,-y,-z
-x,y,-z
-y,-x,z
y,x,z
1/2+x,1/2+y,1/2+z
1/2+y,1/2-x,1/2-z
1/2-x,1/2-y,1/2+z
1/2-y,1/2+x,1/2-z
1/2+x,1/2-y,1/2-z
1/2-x,1/2+y,1/2-z
1/2-y,1/2-x,1/2+z
1/2+y,1/2+x,1/2+z
loop_
_atom_site_type_symbol
_atom_site_label
_atom_site_fract_x
_atom_site_fract_y
_atom_site_fract_z
Si Si1 0.438993 0.215219 0.759361
Si Si2 0.754828 0.668673 0.333883
Si Si3 0.556229 0.864012 0.528371
Si Si4 0.671586 0.241976 0.345168
Si Si5 0.216568 0.555757 0.710345
Si Si6 0.847681 0.440797 0.978900
O O1 0.439947 0.156857 0.685470
O O2 0.389799 0.250960 0.703515
O O3 0.497338 0.244225 0.736526
O O4 0.430554 0.203121 0.921015
O O5 0.699645 0.699645 0.306881
O O6 0.773114 0.673748 0.493326
O O7 0.802137 0.693321 0.240197
O O8 0.743447 0.606884 0.290008
O O9 0.500000 0.894785 0.500000
O O10 0.556368 0.810208 0.438708
O O11 0.605028 0.900652 0.486185
O O12 0.702984 0.297017 0.315196
O O13 0.171012 0.566620 0.823060
O O14 0.870848 0.500000 0.000000
#
# Coordination Sequence:
#
# PCOD8311368 Si02
#       6
#    16  16  16  16  16  16
#     4  10  20  32  46  64  87 117 151 187 225 270
#     4  10  20  32  48  70  94 119 148 186 231 276
#     4  10  18  29  45  61  81 113 150 190 230 262
#     4  10  20  32  48  70  94 119 148 186 231 276
#     4  10  20  32  46  64  87 117 151 187 225 270
#     4  10  20  31  43  61  85 115 152 190 228 266
#
# _framework density 15.847776
#
# number of rings (size 3 to 8) (size 9 to 14) (size 15 to 20)
#    0.000    2.000    1.667    3.000    2.333    0.333 
#    0.000    0.000    0.000    6.000    0.000    0.000 
#    0.000    0.667    0.000    3.667    0.000    9.333 
#
# Total GULP energy -594918.618180 kJ/mol
# GULP energy per Si atom -12394.137879 kJ/mol
# Density = 1.581171 g / cm^3
# Si number density = 15.847776 Si / 1000 Ang^3
#
#
#
# Elastic Constant Matrix: (Units=GPa)
#
#
# Indices 1 2 3 4 5 6 
#
# 1 90.1524 45.2902 17.9506 0.0000 0.0000 0.0000
# 2 45.2902 90.1533 17.9509 0.0000 0.0000 0.0000
# 3 17.9506 17.9509 53.7206 0.0000 0.0000 0.0000
# 4 0.0000 0.0000 0.0000 18.0843 0.0000 0.0000
# 5 0.0000 0.0000 0.0000 0.0000 18.0845 0.0000
# 6 0.0000 0.0000 0.0000 0.0000 0.0000 20.9633
#
#
#
# Elastic Compliance Matrix: (Units=1/GPa)
#
#
# Indices 1 2 3 4 5 6 
#
# 1 0.015196 -0.007095 -0.002707 0.000000 0.000000 0.000000
# 2 -0.007095 0.015195 -0.002707 0.000000 0.000000 0.000000
# 3 -0.002707 -0.002707 0.020424 0.000000 0.000000 0.000000
# 4 0.000000 0.000000 0.000000 0.055297 0.000000 0.000000
# 5 0.000000 0.000000 0.000000 0.000000 0.055296 0.000000
# 6 0.000000 0.000000 0.000000 0.000000 0.000000 0.047702
#
#
# Mechanical properties :
#
#
# Convention : Reuss Voigt Hill
#
# Bulk Modulus (GPa) = 38.76300 44.04551 41.40425
# Shear Modulus (GPa) = 20.59937 21.61540 21.10739
#
# Velocity S-wave (km/s) = 3.60922 3.69716 3.65346
# Velocity P-wave (km/s) = 6.47158 6.78812 6.63174
#
# Compressibility (1/GPa) = 0.02579780
#
# Stress axis : x y z
#
# Youngs Moduli (GPa) = 65.80891 65.80938 48.96245
#
# Poissons Ratio (x) = 0.46690 0.13253
# Poissons Ratio (y) = 0.46690 0.13254
# Poissons Ratio (z) = 0.17813 0.17814
#
# Static dielectric constant tensor:
#      x y z
#    x 2.976390 0.000000 0.000000 
#    y 0.000000 2.976390 0.000000 
#    z 0.000000 0.000000 3.215260 
# 
# 
# High freq. dielectric constant tensor:
#      x y z
#    x 1.578350 0.000000 0.000000 
#    y 0.000000 1.578350 0.000000 
#    z 0.000000 0.000000 1.634650 
# 
# From -- ./inp_files/2067.got.cif
#   From: 2010.03.12/outbox.cif.g09.slc.cpg/sg121_2_cif.got.tgz:2067.got - 2010.04.06 16:06:48.
