data_PCOD8311735
_publ_section_title
;
Structure prediction by ZEFSAII (Michael W. Deem and Ramdas Pophale) SiO2 
 PCOD8311735
Probable space group: I -4 2 D
;
_chemical_formula_sum "Si O2"
_cell_formula_units_Z 96
_cell_length_a 12.508421
_cell_length_b 12.508421
_cell_length_c 32.690890
_cell_angle_alpha 90.000000
_cell_angle_beta 90.000000
_cell_angle_gamma 90.000000
_cell_volume 5114.836130
_symmetry_space_group_name_H-M "I -4 2 D"
_symmetry_group_IT_number 122
_symmetry_cell_setting 'tetragonal'
loop_
_space_group_symop_operation_xyz
x,y,z
y,-x,-z
-x,-y,z
-y,x,-z
x,1/2-y,1/4-z
-x,1/2+y,1/4-z
-y,1/2-x,1/4+z
y,1/2+x,1/4+z
1/2+x,1/2+y,1/2+z
1/2+y,1/2-x,1/2-z
1/2-x,1/2-y,1/2+z
1/2-y,1/2+x,1/2-z
1/2+x,-y,3/4-z
1/2-x,y,3/4-z
1/2-y,-x,3/4+z
1/2+y,x,3/4+z
loop_
_atom_site_type_symbol
_atom_site_label
_atom_site_fract_x
_atom_site_fract_y
_atom_site_fract_z
Si Si1 0.679024 0.892447 0.837374
Si Si2 0.191806 0.343808 0.652218
Si Si3 0.167172 0.279873 0.973690
Si Si4 0.870065 0.785352 0.062079
Si Si5 0.247329 0.008622 0.085345
Si Si6 0.138146 0.096527 0.508810
O O1 0.750000 0.853904 0.875000
O O2 0.718341 0.826799 0.797004
O O3 0.556558 0.859954 0.847519
O O4 0.685018 0.018176 0.831742
O O5 0.135912 0.250000 0.625000
O O6 0.315235 0.309485 0.661475
O O7 0.190511 0.454607 0.626479
O O8 0.133169 0.356997 0.695305
O O9 0.070754 0.320864 0.943214
O O10 0.109873 0.250531 0.015886
O O11 0.260058 0.366330 0.981994
O O12 0.788669 0.885420 0.061116
O O13 0.031418 0.139586 0.487166
#
# Coordination Sequence:
#
# PCOD8311735 Si02
#       6
#    16  16  16  16  16  16
#     4  10  20  29  50  83 117 150 185 235 276 322
#     4   9  19  36  59  80 115 153 188 235 286 342
#     4   9  21  33  56  80 113 145 185 242 281 338
#     4  10  17  34  51  80 119 159 191 214 279 348
#     4   9  19  30  54  82 116 148 187 233 273 335
#     4  10  22  41  63  80 104 145 195 242 304 362
#
# _framework density 18.768930000000001
#
# number of rings (size 3 to 8) (size 9 to 14) (size 15 to 20)
#    1.000    1.500    0.000    3.000    2.333    0.000 
#    3.000    4.167    0.000   14.000    0.000    0.000 
#    0.000    0.000    0.000    0.000    0.000    0.000 
#
# Total GULP energy -594639.470602 kJ/mol
# GULP energy per Si atom -12388.322304 kJ/mol
# Density = 1.872621 g / cm^3
# Si number density = 18.768930 Si / 1000 Ang^3
#
#
#
# Elastic Constant Matrix: (Units=GPa)
#
#
# Indices 1 2 3 4 5 6 
#
# 1 72.0946 30.9655 30.9971 0.0000 0.0000 0.0000
# 2 30.9655 72.0946 30.9971 0.0000 0.0000 0.0000
# 3 30.9971 30.9971 105.3891 0.0000 0.0000 0.0000
# 4 0.0000 0.0000 0.0000 27.2108 0.0000 0.0000
# 5 0.0000 0.0000 0.0000 0.0000 27.2108 0.0000
# 6 0.0000 0.0000 0.0000 0.0000 0.0000 23.5035
#
#
#
# Elastic Compliance Matrix: (Units=1/GPa)
#
#
# Indices 1 2 3 4 5 6 
#
# 1 0.018051 -0.006262 -0.003467 0.000000 0.000000 0.000000
# 2 -0.006262 0.018051 -0.003467 0.000000 0.000000 0.000000
# 3 -0.003467 -0.003467 0.011528 0.000000 0.000000 0.000000
# 4 0.000000 0.000000 0.000000 0.036750 0.000000 0.000000
# 5 0.000000 0.000000 0.000000 0.000000 0.036750 0.000000
# 6 0.000000 0.000000 0.000000 0.000000 0.000000 0.042547
#
#
# Mechanical properties :
#
#
# Convention : Reuss Voigt Hill
#
# Bulk Modulus (GPa) = 47.08863 48.38864 47.73863
# Shear Modulus (GPa) = 25.36128 26.02625 25.69377
#
# Velocity S-wave (km/s) = 3.67991 3.72784 3.70395
# Velocity P-wave (km/s) = 6.57257 6.66080 6.61683
#
# Compressibility (1/GPa) = 0.02123655
#
# Stress axis : x y z
#
# Youngs Moduli (GPa) = 55.39790 55.39791 86.74333
#
# Poissons Ratio (x) = 0.34693 0.30077
# Poissons Ratio (y) = 0.34693 0.30077
# Poissons Ratio (z) = 0.19208 0.19208
#
# Static dielectric constant tensor:
#      x y z
#    x 3.221870 0.000000 0.000000 
#    y 0.000000 3.221870 0.000000 
#    z 0.000000 0.000000 3.597790 
# 
# 
# High freq. dielectric constant tensor:
#      x y z
#    x 1.707310 0.000000 0.000000 
#    y 0.000000 1.707310 0.000000 
#    z 0.000000 0.000000 1.742300 
# 
# From -- ./inp_files/9609.got.cif
#   From: 2010.03.12/outbox.cif.g09.slc.cpg/sg122_5_cif.got.tgz:9609.got - 2010.04.06 16:17:16.
