data_PCOD8311616
_publ_section_title
;
Structure prediction by ZEFSAII (Michael W. Deem and Ramdas Pophale) SiO2 
 PCOD8311616
Probable space group: I -4 2 M
;
_chemical_formula_sum "Si O2"
_cell_formula_units_Z 68
_cell_length_a 11.065666
_cell_length_b 11.065666
_cell_length_c 26.669862
_cell_angle_alpha 90.000000
_cell_angle_beta 90.000000
_cell_angle_gamma 90.000000
_cell_volume 3265.696973
_symmetry_space_group_name_H-M "I -4 2 M"
_symmetry_group_IT_number 121
_symmetry_cell_setting 'tetragonal'
loop_
_space_group_symop_operation_xyz
x,y,z
y,-x,-z
-x,-y,z
-y,x,-z
x,-y,-z
-x,y,-z
-y,-x,z
y,x,z
1/2+x,1/2+y,1/2+z
1/2+y,1/2-x,1/2-z
1/2-x,1/2-y,1/2+z
1/2-y,1/2+x,1/2-z
1/2+x,1/2-y,1/2-z
1/2-x,1/2+y,1/2-z
1/2-y,1/2-x,1/2+z
1/2+y,1/2+x,1/2+z
loop_
_atom_site_type_symbol
_atom_site_label
_atom_site_fract_x
_atom_site_fract_y
_atom_site_fract_z
Si Si1 0.808634 0.005927 0.853392
Si Si2 0.003023 0.190716 0.646884
Si Si3 0.853796 0.648648 0.920787
Si Si4 0.306851 0.982072 0.251293
Si Si5 0.500000 0.000000 0.000000
O O1 0.911369 0.911369 0.865993
O O2 0.694724 0.967030 0.887082
O O3 0.783537 0.003494 0.794252
O O4 0.859822 0.140179 0.867366
O O5 0.885240 0.114761 0.662281
O O6 0.963913 0.293194 0.608003
O O7 0.059606 0.241713 0.698059
O O8 0.105417 0.105417 0.621642
O O9 0.754629 0.754629 0.933014
O O10 0.912316 0.590647 0.969868
O O11 0.395813 0.876185 0.234423
#
# Coordination Sequence:
#
# PCOD8311616 Si02
#       5
#    16  16  16  16   4
#     4  10  21  38  61  89 125 169 208 243 296 363
#     4  10  21  38  61  89 125 169 208 243 296 363
#     4  10  24  46  65  91 126 155 199 264 313 360
#     4  11  22  33  54  90 134 171 208 245 290 356
#     4  12  28  44  72  94 116 152 208 260 320 394
#
# _framework density 20.822509
#
# number of rings (size 3 to 8) (size 9 to 14) (size 15 to 20)
#    0.000    1.647    2.353    1.412    3.294    6.588 
#    0.000    0.000    0.000    0.000    0.000    0.000 
#    0.000    0.000    0.000    0.000    0.000    0.000 
#
# Total GULP energy -421480.152539 kJ/mol
# GULP energy per Si atom -12396.475075 kJ/mol
# Density = 2.077512 g / cm^3
# Si number density = 20.822509 Si / 1000 Ang^3
#
#
#
# Elastic Constant Matrix: (Units=GPa)
#
#
# Indices 1 2 3 4 5 6 
#
# 1 91.5342 52.0574 52.9026 0.0000 0.0000 0.0000
# 2 52.0574 91.5322 52.9024 0.0000 0.0000 0.0000
# 3 52.9026 52.9024 124.4834 0.0000 0.0000 0.0000
# 4 0.0000 0.0000 0.0000 30.1258 0.0000 0.0000
# 5 0.0000 0.0000 0.0000 0.0000 30.1243 0.0000
# 6 0.0000 0.0000 0.0000 0.0000 0.0000 38.6067
#
#
#
# Elastic Compliance Matrix: (Units=1/GPa)
#
#
# Indices 1 2 3 4 5 6 
#
# 1 0.017735 -0.007596 -0.004309 0.000000 0.000000 0.000000
# 2 -0.007596 0.017736 -0.004309 0.000000 0.000000 0.000000
# 3 -0.004309 -0.004309 0.011696 0.000000 0.000000 0.000000
# 4 0.000000 0.000000 0.000000 0.033194 0.000000 0.000000
# 5 0.000000 0.000000 0.000000 0.000000 0.033196 0.000000
# 6 0.000000 0.000000 0.000000 0.000000 0.000000 0.025902
#
#
# Mechanical properties :
#
#
# Convention : Reuss Voigt Hill
#
# Bulk Modulus (GPa) = 67.85009 69.25273 68.55141
# Shear Modulus (GPa) = 28.28048 29.75052 29.01550
#
# Velocity S-wave (km/s) = 3.68933 3.78400 3.73697
# Velocity P-wave (km/s) = 7.12769 7.24033 7.18423
#
# Compressibility (1/GPa) = 0.01473837
#
# Stress axis : x y z
#
# Youngs Moduli (GPa) = 56.38435 56.38289 85.50212
#
# Poissons Ratio (x) = 0.42830 0.36842
# Poissons Ratio (y) = 0.42831 0.36843
# Poissons Ratio (z) = 0.24295 0.24296
#
# Static dielectric constant tensor:
#      x y z
#    x 3.967080 0.000000 0.000000 
#    y 0.000000 3.967090 0.000000 
#    z 0.000000 0.000000 3.422950 
# 
# 
# High freq. dielectric constant tensor:
#      x y z
#    x 1.824700 0.000000 0.000000 
#    y 0.000000 1.824700 0.000000 
#    z 0.000000 0.000000 1.785640 
# 
# From -- ./inp_files/7570.got.cif
#   From: 2010.03.12/outbox.cif.g09.slc.cpg/sg121_4_cif.got.tgz:7570.got - 2010.04.06 16:06:48.
