data_PCOD8311039
_publ_section_title
;
Structure prediction by ZEFSAII (Michael W. Deem and Ramdas Pophale) SiO2 
 PCOD8311039
Probable space group: I -4 M 2
;
_chemical_formula_sum "Si O2"
_cell_formula_units_Z 40
_cell_length_a 10.434145
_cell_length_b 10.434145
_cell_length_c 19.537702
_cell_angle_alpha 90.000000
_cell_angle_beta 90.000000
_cell_angle_gamma 90.000000
_cell_volume 2127.096616
_symmetry_space_group_name_H-M "I -4 M 2"
_symmetry_group_IT_number 119
_symmetry_cell_setting 'tetragonal'
loop_
_space_group_symop_operation_xyz
x,y,z
y,-x,-z
-x,-y,z
-y,x,-z
y,x,-z
-y,-x,-z
-x,y,z
x,-y,z
1/2+x,1/2+y,1/2+z
1/2+y,1/2-x,1/2-z
1/2-x,1/2-y,1/2+z
1/2-y,1/2+x,1/2-z
1/2+y,1/2+x,1/2-z
1/2-y,1/2-x,1/2-z
1/2-x,1/2+y,1/2+z
1/2+x,1/2-y,1/2+z
loop_
_atom_site_type_symbol
_atom_site_label
_atom_site_fract_x
_atom_site_fract_y
_atom_site_fract_z
Si Si1 0.500000 0.000000 0.750000
Si Si2 0.500000 0.500000 0.500000
Si Si3 0.218561 0.500000 0.139893
Si Si4 0.151605 0.230093 0.576052
Si Si5 0.000000 0.270558 0.932318
Si Si6 0.500000 0.000000 0.965636
O O1 0.500000 0.132472 0.792096
O O2 0.500000 0.622656 0.451778
O O3 0.306600 0.373972 0.132790
O O4 0.128439 0.500000 0.075553
O O5 0.209761 0.209761 0.500000
O O6 0.198939 0.367133 0.607303
O O7 0.000000 0.227194 0.568299
O O8 0.000000 0.366510 0.995778
#
# Coordination Sequence:
#
# PCOD8311039 Si02
#       6
#     2   2   8  16   8   4
#     4  10  28  48  68  80 128 196 226 270 304 398
#     4  12  20  24  44  72 128 180 196 220 280 416
#     4  11  22  38  62  87 121 173 228 256 316 382
#     4  12  20  32  59  96 133 163 201 272 347 395
#     4  12  19  32  48  92 133 164 192 248 344 396
#     4  11  16  33  52  82 130 165 183 252 322 391
#
# _framework density 18.804974000000001
#
# number of rings (size 3 to 8) (size 9 to 14) (size 15 to 20)
#    0.000    0.400   10.000    0.600    0.000    1.600 
#    0.000    0.000    8.800    0.000    0.000    0.000 
#    0.000    0.000    0.000    0.000    0.000    0.000 
#
# Total GULP energy -247836.403153 kJ/mol
# GULP energy per Si atom -12391.820158 kJ/mol
# Density = 1.876217 g / cm^3
# Si number density = 18.804974 Si / 1000 Ang^3
#
#
#
# Elastic Constant Matrix: (Units=GPa)
#
#
# Indices 1 2 3 4 5 6 
#
# 1 171.4674 48.5718 27.8586 0.0000 0.0000 0.0000
# 2 48.5718 171.4674 27.8586 0.0000 0.0000 0.0000
# 3 27.8586 27.8586 46.3580 0.0000 0.0000 0.0000
# 4 0.0000 0.0000 0.0000 19.9032 0.0000 0.0000
# 5 0.0000 0.0000 0.0000 0.0000 19.9032 0.0000
# 6 0.0000 0.0000 0.0000 0.0000 0.0000 40.7395
#
#
#
# Elastic Compliance Matrix: (Units=1/GPa)
#
#
# Indices 1 2 3 4 5 6 
#
# 1 0.006749 -0.001388 -0.003221 0.000000 0.000000 0.000000
# 2 -0.001388 0.006749 -0.003221 0.000000 0.000000 0.000000
# 3 -0.003221 -0.003221 0.025443 0.000000 0.000000 0.000000
# 4 0.000000 0.000000 0.000000 0.050243 0.000000 0.000000
# 5 0.000000 0.000000 0.000000 0.000000 0.050243 0.000000
# 6 0.000000 0.000000 0.000000 0.000000 0.000000 0.024546
#
#
# Mechanical properties :
#
#
# Convention : Reuss Voigt Hill
#
# Bulk Modulus (GPa) = 42.95816 66.43010 54.69413
# Shear Modulus (GPa) = 26.68173 35.10941 30.89557
#
# Velocity S-wave (km/s) = 3.77087 4.32560 4.05773
# Velocity P-wave (km/s) = 6.46938 7.76854 7.14854
#
# Compressibility (1/GPa) = 0.02327846
#
# Stress axis : x y z
#
# Youngs Moduli (GPa) = 148.17776 148.17776 39.30373
#
# Poissons Ratio (x) = 0.20572 0.12661
# Poissons Ratio (y) = 0.20572 0.12661
# Poissons Ratio (z) = 0.47732 0.47732
#
# Static dielectric constant tensor:
#      x y z
#    x 4.188970 0.000000 0.000000 
#    y 0.000000 4.188970 0.000000 
#    z 0.000000 0.000000 2.833350 
# 
# 
# High freq. dielectric constant tensor:
#      x y z
#    x 1.762700 0.000000 0.000000 
#    y 0.000000 1.762700 0.000000 
#    z 0.000000 0.000000 1.643350 
# 
# From -- ./inp_files/5999.got.cif
#   From: 2010.03.12/outbox.cif.g09.slc.cpg/sg119_3_cif.got.tgz:5999.got - 2010.04.14 02:25:26.
