data_PCOD8311329
_publ_section_title
;
Structure prediction by ZEFSAII (Michael W. Deem and Ramdas Pophale) SiO2 
 PCOD8311329
Probable space group: I -4 C 2
;
_chemical_formula_sum "Si O2"
_cell_formula_units_Z 48
_cell_length_a 12.043519
_cell_length_b 12.043519
_cell_length_c 13.783748
_cell_angle_alpha 90.000000
_cell_angle_beta 90.000000
_cell_angle_gamma 90.000000
_cell_volume 1999.282335
_symmetry_space_group_name_H-M "I -4 C 2"
_symmetry_group_IT_number 120
_symmetry_cell_setting 'tetragonal'
loop_
_space_group_symop_operation_xyz
x,y,z
y,-x,-z
-x,-y,z
-y,x,-z
y,x,1/2-z
-y,-x,1/2-z
-x,y,1/2+z
x,-y,1/2+z
1/2+x,1/2+y,1/2+z
1/2+y,1/2-x,1/2-z
1/2-x,1/2-y,1/2+z
1/2-y,1/2+x,1/2-z
1/2+y,1/2+x,-z
1/2-y,1/2-x,-z
1/2-x,1/2+y,z
1/2+x,1/2-y,z
loop_
_atom_site_type_symbol
_atom_site_label
_atom_site_fract_x
_atom_site_fract_y
_atom_site_fract_z
Si Si1 0.484396 0.870283 0.386208
Si Si2 0.175912 0.991351 0.972209
Si Si3 0.232230 0.400742 0.296331
O O1 0.529297 0.792822 0.473103
O O2 0.544445 0.841003 0.286681
O O3 0.353058 0.845678 0.372945
O O4 0.500000 0.000000 0.411983
O O5 0.195620 0.009363 0.856998
O O6 0.116335 0.099195 0.017792
O O7 0.310032 0.310032 0.250000
#
# Coordination Sequence:
#
# PCOD8311329 Si02
#       3
#    16  16  16
#     4  12  26  50  75 111 150 195 255 312 379 461
#     4  11  27  49  76 115 152 201 257 313 387 454
#     4  12  25  48  75 107 152 198 249 316 381 454
#
# _framework density 24.008616
#
# number of rings (size 3 to 8) (size 9 to 14) (size 15 to 20)
#    0.000    0.333    6.667    1.000    4.667    4.000 
#    6.000    0.000    0.000    0.000    0.000    0.000 
#    0.000    0.000    0.000    0.000    0.000    0.000 
#
# Total GULP energy -297624.283742 kJ/mol
# GULP energy per Si atom -12401.011823 kJ/mol
# Density = 2.395397 g / cm^3
# Si number density = 24.008616 Si / 1000 Ang^3
#
#
#
# Elastic Constant Matrix: (Units=GPa)
#
#
# Indices 1 2 3 4 5 6 
#
# 1 127.8503 48.4775 40.2364 0.0000 0.0000 0.0000
# 2 48.4775 127.8503 40.2364 -0.0001 0.0000 0.0000
# 3 40.2364 40.2364 71.2242 0.0000 0.0000 0.0000
# 4 0.0000 -0.0001 0.0000 -9.1871 0.0001 0.0000
# 5 0.0000 0.0000 0.0000 0.0001 -9.1869 0.0000
# 6 0.0000 0.0000 0.0000 0.0000 0.0000 29.8187
#
#
#
# Elastic Compliance Matrix: (Units=1/GPa)
#
#
# Indices 1 2 3 4 5 6 
#
# 1 0.010120 -0.002479 -0.004317 0.000000 0.000000 0.000000
# 2 -0.002479 0.010120 -0.004317 0.000000 0.000000 0.000000
# 3 -0.004317 -0.004317 0.018918 0.000000 0.000000 0.000000
# 4 0.000000 0.000000 0.000000 -0.108848 -0.000001 0.000000
# 5 0.000000 0.000000 0.000000 -0.000001 -0.108851 0.000000
# 6 0.000000 0.000000 0.000000 0.000000 0.000000 0.033536
#
#
# Mechanical properties :
#
#
# Convention : Reuss Voigt Hill
#
# Bulk Modulus (GPa) = 59.05616 64.98060 62.01838
# Shear Modulus (GPa) = -42.68508 15.48725 -13.59892
#
# Velocity S-wave (km/s) = -4.22110 2.54258 -2.38254
# Velocity P-wave (km/s) = 0.94574 5.97862 4.28009
#
# Compressibility (1/GPa) = 0.01693303
#
# Stress axis : x y z
#
# Youngs Moduli (GPa) = 98.81350 98.81349 52.86101
#
# Poissons Ratio (x) = 0.24493 0.22819
# Poissons Ratio (y) = 0.24493 0.22819
# Poissons Ratio (z) = 0.42656 0.42656
#
# Static dielectric constant tensor:
#      x y z
#    x 4.738850 0.000000 0.000000 
#    y 0.000000 4.738850 0.000000 
#    z 0.000000 0.000000 4.585050 
# 
# 
# High freq. dielectric constant tensor:
#      x y z
#    x 1.955850 0.000000 0.000000 
#    y 0.000000 1.955850 0.000000 
#    z 0.000000 0.000000 1.969970 
# 
# From -- ./inp_files/3948.got.cif
#   From: 2010.03.12/outbox.cif.g09.slc.cpg/sg120_2_cif.got.tgz:3948.got - 2010.04.06 16:00:44.
