data_PCOD8311198
_publ_section_title
;
Structure prediction by ZEFSAII (Michael W. Deem and Ramdas Pophale) SiO2 
 PCOD8311198
Probable space group: I -4 C 2
;
_chemical_formula_sum "Si O2"
_cell_formula_units_Z 128
_cell_length_a 22.723528
_cell_length_b 22.723528
_cell_length_c 11.817468
_cell_angle_alpha 90.000000
_cell_angle_beta 90.000000
_cell_angle_gamma 90.000000
_cell_volume 6102.052706
_symmetry_space_group_name_H-M "I -4 C 2"
_symmetry_group_IT_number 120
_symmetry_cell_setting 'tetragonal'
loop_
_space_group_symop_operation_xyz
x,y,z
y,-x,-z
-x,-y,z
-y,x,-z
y,x,1/2-z
-y,-x,1/2-z
-x,y,1/2+z
x,-y,1/2+z
1/2+x,1/2+y,1/2+z
1/2+y,1/2-x,1/2-z
1/2-x,1/2-y,1/2+z
1/2-y,1/2+x,1/2-z
1/2+y,1/2+x,-z
1/2-y,1/2-x,-z
1/2-x,1/2+y,z
1/2+x,1/2-y,z
loop_
_atom_site_type_symbol
_atom_site_label
_atom_site_fract_x
_atom_site_fract_y
_atom_site_fract_z
Si Si1 0.703823 0.619979 0.589929
Si Si2 0.276866 0.098190 0.863206
Si Si3 0.084183 0.172057 0.796049
Si Si4 0.321994 0.119458 0.191714
Si Si5 0.695990 0.597814 0.947613
Si Si6 0.131048 0.462745 0.498616
Si Si7 0.087057 0.666974 0.560757
Si Si8 0.960095 0.867770 0.256223
O O1 0.733436 0.607276 0.469137
O O2 0.751532 0.627440 0.690490
O O3 0.665418 0.679820 0.583169
O O4 0.662891 0.565808 0.629972
O O5 0.238352 0.078472 0.754835
O O6 0.314658 0.156521 0.837561
O O7 0.328498 0.050472 0.887704
O O8 0.144586 0.144586 0.750000
O O9 0.030210 0.130622 0.759475
O O10 0.083969 0.170309 0.930066
O O11 0.348135 0.094102 0.307383
O O12 0.336705 0.069065 0.101559
O O13 0.764117 0.582913 0.955277
O O14 0.668017 0.554796 0.856581
O O15 0.064478 0.435523 0.500000
O O16 0.131241 0.533459 0.500684
O O17 0.146177 0.646177 0.500000
O O18 0.933778 0.933778 0.250000
#
# Coordination Sequence:
#
# PCOD8311198 Si02
#       8
#    16  16  16  16  16  16  16  16
#     4  10  20  42  65  90 127 174 222 265 330 413
#     4  10  21  41  64  95 127 172 220 266 337 402
#     4  12  25  41  64  96 134 168 220 276 327 388
#     4  10  22  41  65  93 129 174 216 274 335 406
#     4  11  24  41  62  97 129 176 221 270 336 397
#     4   9  22  42  66  88 123 178 225 259 331 400
#     4  12  25  38  61 101 136 164 221 283 331 388
#     4  10  24  41  66  92 126 175 222 270 331 390
#
# _framework density 20.976548000000001
#
# number of rings (size 3 to 8) (size 9 to 14) (size 15 to 20)
#    0.000    1.500    2.500    2.625    5.250    3.500 
#    2.250    0.000    0.000    4.500    0.000    0.000 
#    0.000    0.000    0.000    0.000    0.000    0.000 
#
# Total GULP energy -793282.946752 kJ/mol
# GULP energy per Si atom -12395.046043 kJ/mol
# Density = 2.092880 g / cm^3
# Si number density = 20.976548 Si / 1000 Ang^3
#
#
#
# Elastic Constant Matrix: (Units=GPa)
#
#
# Indices 1 2 3 4 5 6 
#
# 1 53.9254 29.8685 36.3718 0.0000 0.0000 0.0000
# 2 29.8685 53.9256 36.3707 0.0000 0.0000 0.0000
# 3 36.3718 36.3707 108.5479 0.0000 0.0000 0.0000
# 4 0.0000 0.0000 0.0000 22.4596 0.0000 0.0000
# 5 0.0000 0.0000 0.0000 0.0000 22.4599 0.0000
# 6 0.0000 0.0000 0.0000 0.0000 0.0000 22.8976
#
#
#
# Elastic Compliance Matrix: (Units=1/GPa)
#
#
# Indices 1 2 3 4 5 6 
#
# 1 0.029199 -0.012369 -0.005639 0.000000 0.000000 0.000000
# 2 -0.012369 0.029198 -0.005639 0.000000 0.000000 0.000000
# 3 -0.005639 -0.005639 0.012991 0.000000 0.000000 0.000000
# 4 0.000000 0.000000 0.000000 0.044524 0.000000 0.000000
# 5 0.000000 0.000000 0.000000 0.000000 0.044524 0.000000
# 6 0.000000 0.000000 0.000000 0.000000 0.000000 0.043673
#
#
# Mechanical properties :
#
#
# Convention : Reuss Voigt Hill
#
# Bulk Modulus (GPa) = 41.50403 46.84678 44.17541
# Shear Modulus (GPa) = 19.27258 21.14927 20.21093
#
# Velocity S-wave (km/s) = 3.03441 3.17871 3.10740
# Velocity P-wave (km/s) = 5.66619 5.98780 5.82921
#
# Compressibility (1/GPa) = 0.02409405
#
# Stress axis : x y z
#
# Youngs Moduli (GPa) = 34.24772 34.24851 76.97358
#
# Poissons Ratio (x) = 0.42363 0.43408
# Poissons Ratio (y) = 0.42362 0.43403
# Poissons Ratio (z) = 0.19314 0.19312
#
# Static dielectric constant tensor:
#      x y z
#    x 3.745660 0.000000 0.000000 
#    y 0.000000 3.745660 0.000000 
#    z 0.000000 0.000000 4.037380 
# 
# 
# High freq. dielectric constant tensor:
#      x y z
#    x 1.812580 0.000000 0.000000 
#    y 0.000000 1.812580 0.000000 
#    z 0.000000 0.000000 1.831720 
# 
# From -- ./inp_files/2900.got.cif
#   From: 2010.03.12/outbox.cif.g09.slc.cpg/sg120_2_cif.got.tgz:2900.got - 2010.04.06 16:00:44.
