data_PCOD8311125
_publ_section_title
;
Structure prediction by ZEFSAII (Michael W. Deem and Ramdas Pophale) SiO2 
 PCOD8311125
Probable space group: I -4 C 2
;
_chemical_formula_sum "Si O2"
_cell_formula_units_Z 108
_cell_length_a 20.978588
_cell_length_b 20.978588
_cell_length_c 13.520719
_cell_angle_alpha 90.000000
_cell_angle_beta 90.000000
_cell_angle_gamma 90.000000
_cell_volume 5950.484041
_symmetry_space_group_name_H-M "I -4 C 2"
_symmetry_group_IT_number 120
_symmetry_cell_setting 'tetragonal'
loop_
_space_group_symop_operation_xyz
x,y,z
y,-x,-z
-x,-y,z
-y,x,-z
y,x,1/2-z
-y,-x,1/2-z
-x,y,1/2+z
x,-y,1/2+z
1/2+x,1/2+y,1/2+z
1/2+y,1/2-x,1/2-z
1/2-x,1/2-y,1/2+z
1/2-y,1/2+x,1/2-z
1/2+y,1/2+x,-z
1/2-y,1/2-x,-z
1/2-x,1/2+y,z
1/2+x,1/2-y,z
loop_
_atom_site_type_symbol
_atom_site_label
_atom_site_fract_x
_atom_site_fract_y
_atom_site_fract_z
Si Si1 0.854607 0.949118 0.047565
Si Si2 0.726567 0.773434 0.000000
Si Si3 0.271155 0.454844 0.727654
Si Si4 0.500000 0.500000 0.250000
Si Si5 0.839666 0.837036 0.909840
Si Si6 0.532938 0.388562 0.132320
Si Si7 0.320609 0.216335 0.788417
Si Si8 0.597194 0.257376 0.752399
O O1 0.790375 0.956064 0.111510
O O2 0.912657 0.943453 0.122944
O O3 0.864948 0.879667 0.997950
O O4 0.860839 0.006293 0.970485
O O5 0.797287 0.780597 0.956485
O O6 0.678392 0.785980 0.908332
O O7 0.330309 0.444779 0.800269
O O8 0.226905 0.393244 0.747193
O O9 0.236078 0.522753 0.751940
O O10 0.485183 0.434991 0.188376
O O11 0.797296 0.885617 0.844934
O O12 0.895417 0.803580 0.847583
O O13 0.271060 0.271060 0.750000
O O14 0.301010 0.147355 0.743139
#
# Coordination Sequence:
#
# PCOD8311125 Si02
#       8
#    16   8  16   4  16  16  16  16
#     4  12  22  37  52  76 110 158 192 237 280 335
#     4  10  18  34  58  84 108 151 191 232 294 352
#     4  12  24  38  57  86 114 145 204 246 286 351
#     4  12  24  38  44  68 114 164 192 230 272 328
#     4  10  19  34  59  79 111 151 193 232 293 343
#     4  12  25  36  50  75 113 158 200 232 277 336
#     4  11  21  39  62  84 117 152 192 247 297 346
#     4  10  21  39  57  84 114 153 187 245 294 345
#
# _framework density 18.149784
#
# number of rings (size 3 to 8) (size 9 to 14) (size 15 to 20)
#    0.000    0.889    7.407    2.667    2.074    0.000 
#    0.000    0.000    0.000    0.444    0.000    0.000 
#    0.000    1.481    0.000    0.000    0.000    0.000 
#
# Total GULP energy -668983.228589 kJ/mol
# GULP energy per Si atom -12388.578307 kJ/mol
# Density = 1.810847 g / cm^3
# Si number density = 18.149784 Si / 1000 Ang^3
#
#
#
# Elastic Constant Matrix: (Units=GPa)
#
#
# Indices 1 2 3 4 5 6 
#
# 1 89.7938 37.5284 21.7115 0.0000 0.0000 0.0000
# 2 37.5284 89.7936 21.7113 0.0000 0.0000 0.0000
# 3 21.7115 21.7113 74.9939 0.0000 0.0000 0.0000
# 4 0.0000 0.0000 0.0000 23.3238 0.0000 0.0000
# 5 0.0000 0.0000 0.0000 0.0000 23.3241 0.0000
# 6 0.0000 0.0000 0.0000 0.0000 0.0000 25.1309
#
#
#
# Elastic Compliance Matrix: (Units=1/GPa)
#
#
# Indices 1 2 3 4 5 6 
#
# 1 0.013924 -0.005209 -0.002523 0.000000 0.000000 0.000000
# 2 -0.005209 0.013924 -0.002523 0.000000 0.000000 0.000000
# 3 -0.002523 -0.002523 0.014795 0.000000 0.000000 0.000000
# 4 0.000000 0.000000 0.000000 0.042875 0.000000 0.000000
# 5 0.000000 0.000000 0.000000 0.000000 0.042874 0.000000
# 6 0.000000 0.000000 0.000000 0.000000 0.000000 0.039792
#
#
# Mechanical properties :
#
#
# Convention : Reuss Voigt Hill
#
# Bulk Modulus (GPa) = 45.18228 46.27597 45.72913
# Shear Modulus (GPa) = 25.50095 25.93111 25.71603
#
# Velocity S-wave (km/s) = 3.75244 3.78395 3.76823
# Velocity P-wave (km/s) = 6.61230 6.68155 6.64702
#
# Compressibility (1/GPa) = 0.02213257
#
# Stress axis : x y z
#
# Youngs Moduli (GPa) = 71.81930 71.81918 67.58925
#
# Poissons Ratio (x) = 0.37413 0.17053
# Poissons Ratio (y) = 0.37413 0.17052
# Poissons Ratio (z) = 0.18120 0.18119
#
# Static dielectric constant tensor:
#      x y z
#    x 3.219150 0.000000 0.000000 
#    y 0.000000 3.219160 0.000000 
#    z 0.000000 0.000000 3.662570 
# 
# 
# High freq. dielectric constant tensor:
#      x y z
#    x 1.676100 0.000000 0.000000 
#    y 0.000000 1.676100 0.000000 
#    z 0.000000 0.000000 1.727770 
# 
# From -- ./inp_files/3698.got.cif
#   From: 2010.03.12/outbox.cif.g09.slc.cpg/sg120_2_cif.got.tgz:3698.got - 2010.04.06 16:00:44.
