data_PCOD8311291
_publ_section_title
;
Structure prediction by ZEFSAII (Michael W. Deem and Ramdas Pophale) SiO2 
 PCOD8311291
Probable space group: I -4 C 2
;
_chemical_formula_sum "Si O2"
_cell_formula_units_Z 88
_cell_length_a 13.301702
_cell_length_b 13.301702
_cell_length_c 21.525376
_cell_angle_alpha 90.000000
_cell_angle_beta 90.000000
_cell_angle_gamma 90.000000
_cell_volume 3808.598346
_symmetry_space_group_name_H-M "I -4 C 2"
_symmetry_group_IT_number 120
_symmetry_cell_setting 'tetragonal'
loop_
_space_group_symop_operation_xyz
x,y,z
y,-x,-z
-x,-y,z
-y,x,-z
y,x,1/2-z
-y,-x,1/2-z
-x,y,1/2+z
x,-y,1/2+z
1/2+x,1/2+y,1/2+z
1/2+y,1/2-x,1/2-z
1/2-x,1/2-y,1/2+z
1/2-y,1/2+x,1/2-z
1/2+y,1/2+x,-z
1/2-y,1/2-x,-z
1/2-x,1/2+y,z
1/2+x,1/2-y,z
loop_
_atom_site_type_symbol
_atom_site_label
_atom_site_fract_x
_atom_site_fract_y
_atom_site_fract_z
Si Si1 0.002051 0.619999 0.086703
Si Si2 0.681172 0.259334 0.103494
Si Si3 0.324821 0.175180 0.000000
Si Si4 0.116904 0.582622 0.777647
Si Si5 0.900011 0.058615 0.679709
Si Si6 0.126124 0.784796 0.303093
O O1 0.890438 0.666570 0.082712
O O2 0.000000 0.500000 0.074072
O O3 0.048136 0.644560 0.153919
O O4 0.069856 0.678137 0.036747
O O5 0.615350 0.341159 0.139561
O O6 0.773327 0.209844 0.143080
O O7 0.729756 0.317902 0.045739
O O8 0.126262 0.494071 0.725320
O O9 0.194805 0.656211 0.745227
O O10 0.905541 0.094459 0.750000
O O11 0.803232 0.984688 0.667868
O O12 0.000000 0.000000 0.656838
O O13 0.127053 0.872948 0.250000
#
# Coordination Sequence:
#
# PCOD8311291 Si02
#       6
#    16  16   8  16  16  16
#     4  12  26  51  79 107 148 195 249 321 382 454
#     4  12  29  48  74 107 149 199 262 311 374 455
#     4  12  33  48  73 102 146 202 266 302 367 454
#     4  11  21  40  71 112 140 173 232 309 386 449
#     4  11  25  47  72 112 157 195 237 309 396 466
#     4  12  24  40  73 109 153 190 237 301 384 463
#
# _framework density 23.105613999999999
#
# number of rings (size 3 to 8) (size 9 to 14) (size 15 to 20)
#    0.000    0.364    5.455    3.000   12.727    0.000 
#    0.000    0.000    0.000    0.000    0.000    0.000 
#    0.000    0.000    0.000    0.000    0.000    0.000 
#
# Total GULP energy -545110.957541 kJ/mol
# GULP energy per Si atom -12388.885399 kJ/mol
# Density = 2.305302 g / cm^3
# Si number density = 23.105614 Si / 1000 Ang^3
#
#
#
# Elastic Constant Matrix: (Units=GPa)
#
#
# Indices 1 2 3 4 5 6 
#
# 1 133.2241 24.8964 49.7860 0.0000 0.0000 0.0000
# 2 24.8964 133.2158 49.7844 0.0000 0.0000 0.0000
# 3 49.7860 49.7844 118.6710 0.0000 0.0000 0.0000
# 4 0.0000 0.0000 0.0000 36.3397 0.0000 0.0000
# 5 0.0000 0.0000 0.0000 0.0000 36.3402 0.0000
# 6 0.0000 0.0000 0.0000 0.0000 0.0000 51.6618
#
#
#
# Elastic Compliance Matrix: (Units=1/GPa)
#
#
# Indices 1 2 3 4 5 6 
#
# 1 0.008913 -0.000318 -0.003606 0.000000 0.000000 0.000000
# 2 -0.000318 0.008914 -0.003606 0.000000 0.000000 0.000000
# 3 -0.003606 -0.003606 0.011452 0.000000 0.000000 0.000000
# 4 0.000000 0.000000 0.000000 0.027518 0.000000 0.000000
# 5 0.000000 0.000000 0.000000 0.000000 0.027518 0.000000
# 6 0.000000 0.000000 0.000000 0.000000 0.000000 0.019357
#
#
# Mechanical properties :
#
#
# Convention : Reuss Voigt Hill
#
# Bulk Modulus (GPa) = 70.32838 70.44940 70.38889
# Shear Modulus (GPa) = 40.49532 42.24461 41.36997
#
# Velocity S-wave (km/s) = 4.19097 4.28053 4.23599
# Velocity P-wave (km/s) = 7.34322 7.41532 7.37936
#
# Compressibility (1/GPa) = 0.01421901
#
# Stress axis : x y z
#
# Youngs Moduli (GPa) = 112.19424 112.18729 87.31984
#
# Poissons Ratio (x) = 0.03570 0.31486
# Poissons Ratio (y) = 0.03570 0.31487
# Poissons Ratio (z) = 0.40455 0.40454
#
# Static dielectric constant tensor:
#      x y z
#    x 4.329170 0.000000 0.000000 
#    y 0.000000 4.329190 0.000000 
#    z 0.000000 0.000000 4.016420 
# 
# 
# High freq. dielectric constant tensor:
#      x y z
#    x 1.920340 0.000000 0.000000 
#    y 0.000000 1.920340 0.000000 
#    z 0.000000 0.000000 1.902690 
# 
# From -- ./inp_files/5269.got.cif
#   From: 2010.03.12/outbox.cif.g09.slc.cpg/sg120_3_cif.got.tgz:5269.got - 2010.04.06 16:00:44.
