data_PCOD8311151
_publ_section_title
;
Structure prediction by ZEFSAII (Michael W. Deem and Ramdas Pophale) SiO2 
 PCOD8311151
Probable space group: I -4 C 2
;
_chemical_formula_sum "Si O2"
_cell_formula_units_Z 112
_cell_length_a 25.899204
_cell_length_b 25.899204
_cell_length_c 11.063723
_cell_angle_alpha 90.000000
_cell_angle_beta 90.000000
_cell_angle_gamma 90.000000
_cell_volume 7421.199844
_symmetry_space_group_name_H-M "I -4 C 2"
_symmetry_group_IT_number 120
_symmetry_cell_setting 'tetragonal'
loop_
_space_group_symop_operation_xyz
x,y,z
y,-x,-z
-x,-y,z
-y,x,-z
y,x,1/2-z
-y,-x,1/2-z
-x,y,1/2+z
x,-y,1/2+z
1/2+x,1/2+y,1/2+z
1/2+y,1/2-x,1/2-z
1/2-x,1/2-y,1/2+z
1/2-y,1/2+x,1/2-z
1/2+y,1/2+x,-z
1/2-y,1/2-x,-z
1/2-x,1/2+y,z
1/2+x,1/2-y,z
loop_
_atom_site_type_symbol
_atom_site_label
_atom_site_fract_x
_atom_site_fract_y
_atom_site_fract_z
Si Si1 0.710249 0.877088 0.500000
Si Si2 0.168222 0.247237 0.772581
Si Si3 0.400750 0.183553 0.136296
Si Si4 0.599251 0.816448 0.863702
Si Si5 0.959579 0.373648 0.499999
Si Si6 0.668222 0.252763 0.227417
Si Si7 0.000000 0.347879 0.249999
O O1 0.664685 0.835316 0.500000
O O2 0.748135 0.870556 0.614457
O O3 0.683247 0.933283 0.500000
O O4 0.748135 0.870555 0.385545
O O5 0.188749 0.188749 0.750000
O O6 0.136773 0.267395 0.655845
O O7 0.217516 0.282484 0.801363
O O8 0.368846 0.131154 0.164013
O O9 0.448702 0.186320 0.228746
O O10 0.421418 0.184890 0.999999
O O11 0.636774 0.767396 0.844153
O O12 0.551299 0.813681 0.771251
O O13 0.918418 0.418418 0.500000
O O14 0.992963 0.380354 0.375498
O O15 0.992963 0.380354 0.624500
O O16 0.688750 0.311251 0.250000
#
# Coordination Sequence:
#
# PCOD8311151 Si02
#       7
#    16  16  16  16  16  16  16
#     4   9  16  28  43  61  84 111 143 175 213 263
#     4   9  17  27  42  64  89 113 136 169 214 267
#     4  10  20  32  46  65  87 112 145 185 228 271
#     4  10  20  32  46  65  87 112 145 185 228 271
#     4  11  22  36  52  68  87 114 153 199 242 284
#     4   9  17  27  42  64  89 113 136 169 214 267
#     4  12  20  34  52  69  84 114 152 193 236 278
#
# _framework density 15.091899
#
# number of rings (size 3 to 8) (size 9 to 14) (size 15 to 20)
#    0.000    2.000    4.286    0.857    2.000    0.000 
#    0.000    0.000    0.000   10.286    0.000    0.000 
#    0.000    0.000    0.000    0.000    0.000    0.714 
#
# Total GULP energy -693855.666590 kJ/mol
# GULP energy per Si atom -12390.279761 kJ/mol
# Density = 1.505755 g / cm^3
# Si number density = 15.091899 Si / 1000 Ang^3
#
#
#
# Elastic Constant Matrix: (Units=GPa)
#
#
# Indices 1 2 3 4 5 6 
#
# 1 40.4598 37.5337 27.9864 0.0000 0.0000 0.0000
# 2 37.5337 40.4588 27.9862 0.0000 0.0000 0.0000
# 3 27.9864 27.9862 109.7160 0.0000 0.0000 0.0000
# 4 0.0000 0.0000 0.0000 19.0898 0.0000 0.0000
# 5 0.0000 0.0000 0.0000 0.0000 19.0902 0.0000
# 6 0.0000 0.0000 0.0000 0.0000 0.0000 11.7819
#
#
#
# Elastic Compliance Matrix: (Units=1/GPa)
#
#
# Indices 1 2 3 4 5 6 
#
# 1 0.178753 -0.163061 -0.004003 0.000000 0.000000 0.000000
# 2 -0.163061 0.178758 -0.004004 0.000000 0.000000 0.000000
# 3 -0.004003 -0.004004 0.011157 0.000000 0.000000 0.000000
# 4 0.000000 0.000000 0.000000 0.052384 0.000000 0.000000
# 5 0.000000 0.000000 0.000000 0.000000 0.052383 0.000000
# 6 0.000000 0.000000 0.000000 0.000000 0.000000 0.084876
#
#
# Mechanical properties :
#
#
# Convention : Reuss Voigt Hill
#
# Bulk Modulus (GPa) = 37.68937 41.96081 39.82509
# Shear Modulus (GPa) = 5.49880 16.46759 10.98319
#
# Velocity S-wave (km/s) = 1.91088 3.30685 2.70062
# Velocity P-wave (km/s) = 5.46773 6.51492 6.01416
#
# Compressibility (1/GPa) = 0.02653268
#
# Stress axis : x y z
#
# Youngs Moduli (GPa) = 5.59432 5.59416 89.63132
#
# Poissons Ratio (x) = 0.91219 0.35880
# Poissons Ratio (y) = 0.91221 0.35886
# Poissons Ratio (z) = 0.02239 0.02240
#
# Static dielectric constant tensor:
#      x y z
#    x 2.727530 0.000000 0.000000 
#    y 0.000000 2.727540 0.000000 
#    z 0.000000 0.000000 3.238370 
# 
# 
# High freq. dielectric constant tensor:
#      x y z
#    x 1.535560 0.000000 0.000000 
#    y 0.000000 1.535560 0.000000 
#    z 0.000000 0.000000 1.605820 
# 
# From -- ./inp_files/2876.got.cif
#   From: 2010.03.12/outbox.cif.g09.slc.cpg/sg120_2_cif.got.tgz:2876.got - 2010.04.06 16:00:44.
