data_PCOD8311448
_publ_section_title
;
Structure prediction by ZEFSAII (Michael W. Deem and Ramdas Pophale) SiO2 
 PCOD8311448
Probable space group: I -4 2 M
;
_chemical_formula_sum "Si O2"
_cell_formula_units_Z 88
_cell_length_a 12.383070
_cell_length_b 12.383070
_cell_length_c 29.530612
_cell_angle_alpha 90.000000
_cell_angle_beta 90.000000
_cell_angle_gamma 90.000000
_cell_volume 4528.236524
_symmetry_space_group_name_H-M "I -4 2 M"
_symmetry_group_IT_number 121
_symmetry_cell_setting 'tetragonal'
loop_
_space_group_symop_operation_xyz
x,y,z
y,-x,-z
-x,-y,z
-y,x,-z
x,-y,-z
-x,y,-z
-y,-x,z
y,x,z
1/2+x,1/2+y,1/2+z
1/2+y,1/2-x,1/2-z
1/2-x,1/2-y,1/2+z
1/2-y,1/2+x,1/2-z
1/2+x,1/2-y,1/2-z
1/2-x,1/2+y,1/2-z
1/2-y,1/2-x,1/2+z
1/2+y,1/2+x,1/2+z
loop_
_atom_site_type_symbol
_atom_site_label
_atom_site_fract_x
_atom_site_fract_y
_atom_site_fract_z
Si Si1 0.191762 0.638484 0.857764
Si Si2 0.500000 0.314408 0.500000
Si Si3 0.701997 0.132752 0.143722
Si Si4 0.549631 0.276120 0.195840
Si Si5 0.725820 0.451052 0.298566
Si Si6 0.515918 0.117768 0.429832
O O1 0.258683 0.741318 0.873775
O O2 0.273757 0.547395 0.840036
O O3 0.115425 0.669015 0.815200
O O4 0.126868 0.605105 0.902448
O O5 0.393245 0.393245 0.495055
O O6 0.515474 0.228982 0.458880
O O7 0.771649 0.228352 0.120914
O O8 0.628449 0.177241 0.184291
O O9 0.785783 0.050729 0.167224
O O10 0.627322 0.082181 0.105322
O O11 0.609014 0.390986 0.190487
O O12 0.509506 0.258916 0.247130
O O13 0.617370 0.382631 0.303117
O O14 0.500000 0.000000 0.455242
#
# Coordination Sequence:
#
# PCOD8311448 Si02
#       6
#    16   8  16  16  16  16
#     4  10  20  35  53  78 112 149 192 241 286 333
#     4  11  25  44  68  98 125 147 176 224 292 363
#     4  10  20  34  53  79 113 150 192 239 288 336
#     4  10  19  32  49  74 108 152 201 246 287 329
#     4   9  19  31  48  74 107 151 201 248 294 335
#     4  11  21  40  64  90 115 150 187 229 277 350
#
# _framework density 19.433615
#
# number of rings (size 3 to 8) (size 9 to 14) (size 15 to 20)
#    0.000    1.909    1.818    2.455    0.000    3.636 
#    0.000    3.636    0.000    0.000    0.000    0.000 
#    0.000    2.909    0.000    0.000    0.000    0.000 
#
# Total GULP energy -545093.631584 kJ/mol
# GULP energy per Si atom -12388.491627 kJ/mol
# Density = 1.938938 g / cm^3
# Si number density = 19.433615 Si / 1000 Ang^3
#
#
#
# Elastic Constant Matrix: (Units=GPa)
#
#
# Indices 1 2 3 4 5 6 
#
# 1 87.6605 35.4444 32.6971 0.0000 0.0000 0.0000
# 2 35.4444 87.6567 32.6960 0.0000 0.0000 0.0000
# 3 32.6971 32.6960 77.9704 0.0000 0.0000 0.0000
# 4 0.0000 0.0000 0.0000 26.2657 0.0000 0.0000
# 5 0.0000 0.0000 0.0000 0.0000 26.2659 0.0000
# 6 0.0000 0.0000 0.0000 0.0000 0.0000 22.1493
#
#
#
# Elastic Compliance Matrix: (Units=1/GPa)
#
#
# Indices 1 2 3 4 5 6 
#
# 1 0.014801 -0.004350 -0.004383 0.000000 0.000000 0.000000
# 2 -0.004350 0.014802 -0.004383 0.000000 0.000000 0.000000
# 3 -0.004383 -0.004383 0.016501 0.000000 0.000000 0.000000
# 4 0.000000 0.000000 0.000000 0.038073 0.000000 0.000000
# 5 0.000000 0.000000 0.000000 0.000000 0.038072 0.000000
# 6 0.000000 0.000000 0.000000 0.000000 0.000000 0.045148
#
#
# Mechanical properties :
#
#
# Convention : Reuss Voigt Hill
#
# Bulk Modulus (GPa) = 50.31957 50.55138 50.43548
# Shear Modulus (GPa) = 24.96840 25.09951 25.03395
#
# Velocity S-wave (km/s) = 3.58831 3.59771 3.59301
# Velocity P-wave (km/s) = 6.56637 6.58232 6.57435
#
# Compressibility (1/GPa) = 0.01987298
#
# Stress axis : x y z
#
# Youngs Moduli (GPa) = 67.56135 67.55876 60.60183
#
# Poissons Ratio (x) = 0.29390 0.26560
# Poissons Ratio (y) = 0.29391 0.26560
# Poissons Ratio (z) = 0.29611 0.29609
#
# Static dielectric constant tensor:
#      x y z
#    x 3.639470 0.000000 0.000000 
#    y 0.000000 3.639480 0.000000 
#    z 0.000000 0.000000 3.367570 
# 
# 
# High freq. dielectric constant tensor:
#      x y z
#    x 1.760750 0.000000 0.000000 
#    y 0.000000 1.760750 0.000000 
#    z 0.000000 0.000000 1.733040 
# 
# From -- ./inp_files/8189.got.cif
#   From: 2010.03.12/outbox.cif.g09.slc.cpg/sg121_5_cif.got.tgz:8189.got - 2010.04.06 16:06:48.
