data_PCOD8311972
_publ_section_title
;
Structure prediction by ZEFSAII (Michael W. Deem and Ramdas Pophale) SiO2 
 PCOD8311972
Probable space group: I -4 2 D
;
_chemical_formula_sum "Si O2"
_cell_formula_units_Z 60
_cell_length_a 11.071686
_cell_length_b 11.071686
_cell_length_c 22.063485
_cell_angle_alpha 90.000000
_cell_angle_beta 90.000000
_cell_angle_gamma 90.000000
_cell_volume 2704.591212
_symmetry_space_group_name_H-M "I -4 2 D"
_symmetry_group_IT_number 122
_symmetry_cell_setting 'tetragonal'
loop_
_space_group_symop_operation_xyz
x,y,z
y,-x,-z
-x,-y,z
-y,x,-z
x,1/2-y,1/4-z
-x,1/2+y,1/4-z
-y,1/2-x,1/4+z
y,1/2+x,1/4+z
1/2+x,1/2+y,1/2+z
1/2+y,1/2-x,1/2-z
1/2-x,1/2-y,1/2+z
1/2-y,1/2+x,1/2-z
1/2+x,-y,3/4-z
1/2-x,y,3/4-z
1/2-y,-x,3/4+z
1/2+y,x,3/4+z
loop_
_atom_site_type_symbol
_atom_site_label
_atom_site_fract_x
_atom_site_fract_y
_atom_site_fract_z
Si Si1 0.222111 0.593452 0.305223
Si Si2 0.943469 0.655044 0.785014
Si Si3 0.500000 0.000000 0.750000
Si Si4 0.000000 0.500000 0.606851
Si Si5 0.842615 0.886168 0.740792
O O1 0.250000 0.612315 0.375000
O O2 0.184177 0.720445 0.276646
O O3 0.329169 0.520329 0.270377
O O4 0.111465 0.501635 0.296253
O O5 0.859176 0.582861 0.736893
O O6 0.929506 0.598401 0.851947
O O7 0.909310 0.796077 0.787859
O O8 0.072162 0.401404 0.567538
#
# Coordination Sequence:
#
# PCOD8311972 Si02
#       5
#    16  16   4   8  16
#     4  10  24  42  67  93 135 184 220 292 331 426
#     4   9  23  43  64 102 139 173 228 295 347 419
#     4   8  20  46  56  92 134 164 236 264 338 392
#     4  10  25  43  72 102 139 189 226 304 352 416
#     4  11  25  44  68 104 135 181 240 274 363 422
#
# _framework density 22.184497
#
# number of rings (size 3 to 8) (size 9 to 14) (size 15 to 20)
#    0.000    2.400    0.000    0.000   11.200    7.467 
#    0.000    0.000    0.000    0.000    0.000    0.000 
#    0.000    0.000    0.000    0.000    0.000    0.000 
#
# Total GULP energy -371752.552415 kJ/mol
# GULP energy per Si atom -12391.751747 kJ/mol
# Density = 2.213400 g / cm^3
# Si number density = 22.184497 Si / 1000 Ang^3
#
#
#
# Elastic Constant Matrix: (Units=GPa)
#
#
# Indices 1 2 3 4 5 6 
#
# 1 95.8032 48.7877 38.1391 0.0000 0.0000 0.0000
# 2 48.7877 95.8032 38.1391 0.0000 0.0000 0.0000
# 3 38.1391 38.1391 101.4409 0.0000 0.0000 0.0000
# 4 0.0000 0.0000 0.0000 28.2118 0.0000 0.0000
# 5 0.0000 0.0000 0.0000 0.0000 28.2118 0.0000
# 6 0.0000 0.0000 0.0000 0.0000 0.0000 45.9728
#
#
#
# Elastic Compliance Matrix: (Units=1/GPa)
#
#
# Indices 1 2 3 4 5 6 
#
# 1 0.014948 -0.006321 -0.003244 0.000000 0.000000 0.000000
# 2 -0.006321 0.014948 -0.003244 0.000000 0.000000 0.000000
# 3 -0.003244 -0.003244 0.012297 0.000000 0.000000 0.000000
# 4 0.000000 0.000000 0.000000 0.035446 0.000000 0.000000
# 5 0.000000 0.000000 0.000000 0.000000 0.035446 0.000000
# 6 0.000000 0.000000 0.000000 0.000000 0.000000 0.021752
#
#
# Mechanical properties :
#
#
# Convention : Reuss Voigt Hill
#
# Bulk Modulus (GPa) = 60.32462 60.35325 60.33893
# Shear Modulus (GPa) = 30.12401 31.67804 30.90103
#
# Velocity S-wave (km/s) = 3.68895 3.78290 3.73622
# Velocity P-wave (km/s) = 6.73763 6.80769 6.77275
#
# Compressibility (1/GPa) = 0.01657698
#
# Stress axis : x y z
#
# Youngs Moduli (GPa) = 66.89681 66.89681 81.32078
#
# Poissons Ratio (x) = 0.42287 0.26377
# Poissons Ratio (y) = 0.42287 0.26377
# Poissons Ratio (z) = 0.21699 0.21699
#
# Static dielectric constant tensor:
#      x y z
#    x 4.078020 0.000000 0.000000 
#    y 0.000000 4.078020 0.000000 
#    z 0.000000 0.000000 3.822830 
# 
# 
# High freq. dielectric constant tensor:
#      x y z
#    x 1.875290 0.000000 0.000000 
#    y 0.000000 1.875290 0.000000 
#    z 0.000000 0.000000 1.856270 
# 
# From -- ./inp_files/6963.got.cif
#   From: 2010.03.12/outbox.cif.g09.slc.cpg/sg122_4_cif.got.tgz:6963.got - 2010.04.06 16:17:16.
