data_PCOD8311312
_publ_section_title
;
Structure prediction by ZEFSAII (Michael W. Deem and Ramdas Pophale) SiO2 
 PCOD8311312
Probable space group: I -4 C 2
;
_chemical_formula_sum "Si O2"
_cell_formula_units_Z 96
_cell_length_a 14.154628
_cell_length_b 14.154628
_cell_length_c 23.137280
_cell_angle_alpha 90.000000
_cell_angle_beta 90.000000
_cell_angle_gamma 90.000000
_cell_volume 4635.634885
_symmetry_space_group_name_H-M "I -4 C 2"
_symmetry_group_IT_number 120
_symmetry_cell_setting 'tetragonal'
loop_
_space_group_symop_operation_xyz
x,y,z
y,-x,-z
-x,-y,z
-y,x,-z
y,x,1/2-z
-y,-x,1/2-z
-x,y,1/2+z
x,-y,1/2+z
1/2+x,1/2+y,1/2+z
1/2+y,1/2-x,1/2-z
1/2-x,1/2-y,1/2+z
1/2-y,1/2+x,1/2-z
1/2+y,1/2+x,-z
1/2-y,1/2-x,-z
1/2-x,1/2+y,z
1/2+x,1/2-y,z
loop_
_atom_site_type_symbol
_atom_site_label
_atom_site_fract_x
_atom_site_fract_y
_atom_site_fract_z
Si Si1 0.612889 0.907154 0.755251
Si Si2 0.469920 0.404002 0.312389
Si Si3 0.394381 0.758049 0.973731
Si Si4 0.892430 0.250667 0.978357
Si Si5 0.152056 0.255161 0.844395
Si Si6 0.741715 0.630237 0.657561
O O1 0.514816 0.884964 0.722157
O O2 0.695157 0.901210 0.708144
O O3 0.623403 0.842579 0.811502
O O4 0.500000 0.500000 0.347336
O O5 0.439171 0.439171 0.250000
O O6 0.375751 0.356025 0.339048
O O7 0.561067 0.333975 0.312106
O O8 0.499327 0.741377 0.997891
O O9 0.390853 0.781773 0.905936
O O10 0.353394 0.853394 0.000000
O O11 0.333275 0.666859 0.992076
O O12 0.892806 0.248130 0.909490
O O13 0.850032 0.350032 0.000000
O O14 0.260118 0.286050 0.837325
#
# Coordination Sequence:
#
# PCOD8311312 Si02
#       6
#    16  16  16  16  16  16
#     4  11  24  41  68 103 138 178 228 282 351 430
#     4  11  26  44  67 108 143 178 235 285 352 435
#     4  11  24  47  70 102 136 182 238 293 352 417
#     4  11  24  47  70  99 140 182 240 296 349 422
#     4  12  24  45  73  98 141 184 230 287 356 422
#     4  12  24  45  69  98 142 185 229 292 354 423
#
# _framework density 20.709136999999998
#
# number of rings (size 3 to 8) (size 9 to 14) (size 15 to 20)
#    0.000    0.667    6.667    1.500    4.667    3.333 
#    0.000    0.000    0.000    0.000    0.000    0.000 
#    0.000    0.000    0.000    0.000    0.000    0.000 
#
# Total GULP energy -594823.637002 kJ/mol
# GULP energy per Si atom -12392.159104 kJ/mol
# Density = 2.066200 g / cm^3
# Si number density = 20.709137 Si / 1000 Ang^3
#
#
#
# Elastic Constant Matrix: (Units=GPa)
#
#
# Indices 1 2 3 4 5 6 
#
# 1 143.0845 22.8667 19.9448 0.0000 0.0000 0.0000
# 2 22.8667 143.0845 19.9448 0.0000 0.0000 0.0000
# 3 19.9448 19.9448 68.5868 0.0000 0.0000 0.0000
# 4 0.0000 0.0000 0.0000 -29.1878 0.0000 0.0000
# 5 0.0000 0.0000 0.0000 0.0000 -29.1878 0.0000
# 6 0.0000 0.0000 0.0000 0.0000 0.0000 38.2851
#
#
#
# Elastic Compliance Matrix: (Units=1/GPa)
#
#
# Indices 1 2 3 4 5 6 
#
# 1 0.007398 -0.000920 -0.001884 0.000000 0.000000 0.000000
# 2 -0.000920 0.007398 -0.001884 0.000000 0.000000 0.000000
# 3 -0.001884 -0.001884 0.015676 0.000000 0.000000 0.000000
# 4 0.000000 0.000000 0.000000 -0.034261 0.000000 0.000000
# 5 0.000000 0.000000 0.000000 0.000000 -0.034261 0.000000
# 6 0.000000 0.000000 0.000000 0.000000 0.000000 0.026120
#
#
# Mechanical properties :
#
#
# Convention : Reuss Voigt Hill
#
# Bulk Modulus (GPa) = 47.39952 53.36316 50.38134
# Shear Modulus (GPa) = 1116.38485 15.44852 565.91669
#
# Velocity S-wave (km/s) = 23.24325 2.73422 16.54879
# Velocity P-wave (km/s) = 27.26297 5.98263 19.73653
#
# Compressibility (1/GPa) = 0.02109726
#
# Stress axis : x y z
#
# Youngs Moduli (GPa) = 135.16290 135.16290 63.79267
#
# Poissons Ratio (x) = 0.12432 0.12018
# Poissons Ratio (y) = 0.12432 0.12018
# Poissons Ratio (z) = 0.25465 0.25465
#
# Static dielectric constant tensor:
#      x y z
#    x 6.422100 0.000000 0.000000 
#    y 0.000000 6.422100 0.000000 
#    z 0.000000 0.000000 3.702450 
# 
# 
# High freq. dielectric constant tensor:
#      x y z
#    x 1.821430 0.000000 0.000000 
#    y 0.000000 1.821430 0.000000 
#    z 0.000000 0.000000 1.803610 
# 
# From -- ./inp_files/5340.got.cif
#   From: 2010.03.12/outbox.cif.g09.slc.cpg/sg120_3_cif.got.tgz:5340.got - 2010.04.06 16:00:44.
