data_PCOD8311301
_publ_section_title
;
Structure prediction by ZEFSAII (Michael W. Deem and Ramdas Pophale) SiO2 
 PCOD8311301
Probable space group: I -4 C 2
;
_chemical_formula_sum "Si O2"
_cell_formula_units_Z 96
_cell_length_a 21.426462
_cell_length_b 21.426462
_cell_length_c 9.218538
_cell_angle_alpha 90.000000
_cell_angle_beta 90.000000
_cell_angle_gamma 90.000000
_cell_volume 4232.168790
_symmetry_space_group_name_H-M "I -4 C 2"
_symmetry_group_IT_number 120
_symmetry_cell_setting 'tetragonal'
loop_
_space_group_symop_operation_xyz
x,y,z
y,-x,-z
-x,-y,z
-y,x,-z
y,x,1/2-z
-y,-x,1/2-z
-x,y,1/2+z
x,-y,1/2+z
1/2+x,1/2+y,1/2+z
1/2+y,1/2-x,1/2-z
1/2-x,1/2-y,1/2+z
1/2-y,1/2+x,1/2-z
1/2+y,1/2+x,-z
1/2-y,1/2-x,-z
1/2-x,1/2+y,z
1/2+x,1/2-y,z
loop_
_atom_site_type_symbol
_atom_site_label
_atom_site_fract_x
_atom_site_fract_y
_atom_site_fract_z
Si Si1 0.307080 0.192920 0.000000
Si Si2 0.443068 0.193258 0.124443
Si Si3 0.710635 0.289366 0.250000
Si Si4 0.858833 0.081850 0.063742
Si Si5 0.740471 0.860809 0.478947
Si Si6 0.663067 0.529104 0.361509
Si Si7 0.140131 0.452592 0.052452
O O1 0.296643 0.124190 0.941120
O O2 0.287530 0.233410 0.863296
O O3 0.472786 0.261663 0.139807
O O4 0.443719 0.154991 0.276899
O O5 0.477478 0.150386 0.003480
O O6 0.644837 0.282810 0.166586
O O7 0.913358 0.133291 0.046592
O O8 0.865570 0.035933 0.201074
O O9 0.792567 0.118489 0.096286
O O10 0.858704 0.037468 0.923545
O O11 0.706382 0.793619 0.500000
O O12 0.688333 0.912364 0.456839
O O13 0.071668 0.428333 0.000000
#
# Coordination Sequence:
#
# PCOD8311301 Si02
#       7
#     8  16   8  16  16  16  16
#     4  12  28  42  73 110 148 200 245 312 380 464
#     4  12  25  47  77 106 146 195 250 304 393 446
#     4  12  26  40  70 106 154 187 243 302 390 446
#     4  11  25  44  68  97 141 182 244 293 368 430
#     4  11  22  41  66 101 142 185 228 302 368 437
#     4  11  24  44  69 100 136 188 231 305 354 451
#     4  11  26  47  76 104 152 191 250 308 371 457
#
# _framework density 22.683406000000002
#
# number of rings (size 3 to 8) (size 9 to 14) (size 15 to 20)
#    0.000    0.667    4.167    3.000    4.667    3.667 
#    0.000    2.083    0.000    0.000    0.000    0.000 
#    0.000    0.000    0.000    0.000    0.000    0.000 
#
# Total GULP energy -594699.735805 kJ/mol
# GULP energy per Si atom -12389.577829 kJ/mol
# Density = 2.263178 g / cm^3
# Si number density = 22.683406 Si / 1000 Ang^3
#
#
#
# Elastic Constant Matrix: (Units=GPa)
#
#
# Indices 1 2 3 4 5 6 
#
# 1 8.6190 93.8851 46.0047 0.0000 0.0000 0.0000
# 2 93.8851 8.6207 46.0010 0.0000 0.0000 0.0000
# 3 46.0047 46.0010 117.5541 0.0000 0.0000 0.0000
# 4 0.0000 0.0000 0.0000 35.2536 0.0000 0.0000
# 5 0.0000 0.0000 0.0000 0.0000 35.2534 0.0000
# 6 0.0000 0.0000 0.0000 0.0000 0.0000 41.8975
#
#
#
# Elastic Compliance Matrix: (Units=1/GPa)
#
#
# Indices 1 2 3 4 5 6 
#
# 1 0.001654 0.013383 -0.005884 0.000000 0.000000 0.000000
# 2 0.013383 0.001655 -0.005885 0.000000 0.000000 0.000000
# 3 -0.005884 -0.005885 0.013112 0.000000 0.000000 0.000000
# 4 0.000000 0.000000 0.000000 0.028366 0.000000 0.000000
# 5 0.000000 0.000000 0.000000 0.000000 0.028366 0.000000
# 6 0.000000 0.000000 0.000000 0.000000 0.000000 0.023868
#
#
# Mechanical properties :
#
#
# Convention : Reuss Voigt Hill
#
# Bulk Modulus (GPa) = 50.89363 56.28616 53.58990
# Shear Modulus (GPa) = 49.82836 19.07444 34.45140
#
# Velocity S-wave (km/s) = 4.69197 2.90297 3.90140
# Velocity P-wave (km/s) = 7.19986 6.00866 6.63106
#
# Compressibility (1/GPa) = 0.01964882
#
# Stress axis : x y z
#
# Youngs Moduli (GPa) = 604.47353 604.17200 76.26313
#
# Poissons Ratio (x) = -8.08555 0.44876
# Poissons Ratio (y) = -8.08958 0.44881
# Poissons Ratio (z) = 3.55695 3.55559
#
# Static dielectric constant tensor:
#      x y z
#    x 4.211430 0.000000 0.000000 
#    y 0.000000 4.211460 0.000000 
#    z 0.000000 0.000000 4.636980 
# 
# 
# High freq. dielectric constant tensor:
#      x y z
#    x 1.894420 0.000000 0.000000 
#    y 0.000000 1.894420 0.000000 
#    z 0.000000 0.000000 1.894270 
# 
# From -- ./inp_files/1583.got.cif
#   From: 2010.03.12/outbox.cif.g09.slc.cpg/sg120_1_cif.got.tgz:1583.got - 2010.04.06 16:00:44.
