data_PCOD8311842
_publ_section_title
;
Structure prediction by ZEFSAII (Michael W. Deem and Ramdas Pophale) SiO2 
 PCOD8311842
Probable space group: I -4 2 D
;
_chemical_formula_sum "Si O2"
_cell_formula_units_Z 56
_cell_length_a 11.823682
_cell_length_b 11.823682
_cell_length_c 21.615383
_cell_angle_alpha 90.000000
_cell_angle_beta 90.000000
_cell_angle_gamma 90.000000
_cell_volume 3021.818785
_symmetry_space_group_name_H-M "I -4 2 D"
_symmetry_group_IT_number 122
_symmetry_cell_setting 'tetragonal'
loop_
_space_group_symop_operation_xyz
x,y,z
y,-x,-z
-x,-y,z
-y,x,-z
x,1/2-y,1/4-z
-x,1/2+y,1/4-z
-y,1/2-x,1/4+z
y,1/2+x,1/4+z
1/2+x,1/2+y,1/2+z
1/2+y,1/2-x,1/2-z
1/2-x,1/2-y,1/2+z
1/2-y,1/2+x,1/2-z
1/2+x,-y,3/4-z
1/2-x,y,3/4-z
1/2-y,-x,3/4+z
1/2+y,x,3/4+z
loop_
_atom_site_type_symbol
_atom_site_label
_atom_site_fract_x
_atom_site_fract_y
_atom_site_fract_z
Si Si1 0.712418 0.662257 0.270965
Si Si2 0.872853 0.520766 0.971179
Si Si3 0.900369 0.780240 0.195485
Si Si4 0.750000 0.672925 0.875000
O O1 0.602390 0.684096 0.228071
O O2 0.829140 0.693046 0.237046
O O3 0.729270 0.533479 0.291964
O O4 0.684437 0.743539 0.328703
O O5 0.830407 0.590745 0.912938
O O6 0.000000 0.500000 0.953649
O O7 0.860839 0.592785 0.035356
O O8 0.872910 0.750000 0.125000
#
# Coordination Sequence:
#
# PCOD8311842 Si02
#       4
#    16  16  16   8
#     4  10  21  39  59  90 115 154 200 235 311 343
#     4   9  21  38  57  85 117 154 192 241 293 350
#     4  10  21  38  61  87 119 154 196 252 288 361
#     4  10  20  40  60  78 124 150 188 254 278 356
#
# _framework density 18.531884999999999
#
# number of rings (size 3 to 8) (size 9 to 14) (size 15 to 20)
#    0.000    2.286    1.429    0.000    2.000    7.429 
#   10.286    0.000    0.000    0.000    0.000    0.000 
#    0.000    0.000    0.000    0.000    0.000    0.000 
#
# Total GULP energy -346931.669584 kJ/mol
# GULP energy per Si atom -12390.416771 kJ/mol
# Density = 1.848971 g / cm^3
# Si number density = 18.531885 Si / 1000 Ang^3
#
#
#
# Elastic Constant Matrix: (Units=GPa)
#
#
# Indices 1 2 3 4 5 6 
#
# 1 105.5312 47.4380 57.3015 0.0000 0.0000 0.0000
# 2 47.4380 105.5312 57.3015 0.0000 0.0000 0.0000
# 3 57.3015 57.3015 127.3305 0.0000 0.0000 0.0000
# 4 0.0000 0.0000 0.0000 22.2793 0.0000 0.0000
# 5 0.0000 0.0000 0.0000 0.0000 22.2793 0.0000
# 6 0.0000 0.0000 0.0000 0.0000 0.0000 24.4325
#
#
#
# Elastic Compliance Matrix: (Units=1/GPa)
#
#
# Indices 1 2 3 4 5 6 
#
# 1 0.013538 -0.003676 -0.004438 0.000000 0.000000 0.000000
# 2 -0.003676 0.013538 -0.004438 0.000000 0.000000 0.000000
# 3 -0.004438 -0.004438 0.011848 0.000000 0.000000 0.000000
# 4 0.000000 0.000000 0.000000 0.044885 0.000000 0.000000
# 5 0.000000 0.000000 0.000000 0.000000 0.044885 0.000000
# 6 0.000000 0.000000 0.000000 0.000000 0.000000 0.040929
#
#
# Mechanical properties :
#
#
# Convention : Reuss Voigt Hill
#
# Bulk Modulus (GPa) = 72.35969 73.60832 72.98401
# Shear Modulus (GPa) = 25.08351 25.55499 25.31925
#
# Velocity S-wave (km/s) = 3.68303 3.71748 3.70030
# Velocity P-wave (km/s) = 7.56420 7.63101 7.59768
#
# Compressibility (1/GPa) = 0.01381985
#
# Stress axis : x y z
#
# Youngs Moduli (GPa) = 73.86588 73.86588 84.40071
#
# Poissons Ratio (x) = 0.27151 0.37460
# Poissons Ratio (y) = 0.27151 0.37460
# Poissons Ratio (z) = 0.32784 0.32784
#
# Static dielectric constant tensor:
#      x y z
#    x 3.654480 0.000000 0.000000 
#    y 0.000000 3.654480 0.000000 
#    z 0.000000 0.000000 3.421230 
# 
# 
# High freq. dielectric constant tensor:
#      x y z
#    x 1.724250 0.000000 0.000000 
#    y 0.000000 1.724250 0.000000 
#    z 0.000000 0.000000 1.717490 
# 
# From -- ./inp_files/6791.got.cif
#   From: 2010.03.12/outbox.cif.g09.slc.cpg/sg122_4_cif.got.tgz:6791.got - 2010.04.06 16:17:16.
