data_PCOD8311948
_publ_section_title
;
Structure prediction by ZEFSAII (Michael W. Deem and Ramdas Pophale) SiO2 
 PCOD8311948
Probable space group: I -4 2 D
;
_chemical_formula_sum "Si O2"
_cell_formula_units_Z 32
_cell_length_a 7.969567
_cell_length_b 7.969567
_cell_length_c 17.837472
_cell_angle_alpha 90.000000
_cell_angle_beta 90.000000
_cell_angle_gamma 90.000000
_cell_volume 1132.929164
_symmetry_space_group_name_H-M "I -4 2 D"
_symmetry_group_IT_number 122
_symmetry_cell_setting 'tetragonal'
loop_
_space_group_symop_operation_xyz
x,y,z
y,-x,-z
-x,-y,z
-y,x,-z
x,1/2-y,1/4-z
-x,1/2+y,1/4-z
-y,1/2-x,1/4+z
y,1/2+x,1/4+z
1/2+x,1/2+y,1/2+z
1/2+y,1/2-x,1/2-z
1/2-x,1/2-y,1/2+z
1/2-y,1/2+x,1/2-z
1/2+x,-y,3/4-z
1/2-x,y,3/4-z
1/2-y,-x,3/4+z
1/2+y,x,3/4+z
loop_
_atom_site_type_symbol
_atom_site_label
_atom_site_fract_x
_atom_site_fract_y
_atom_site_fract_z
Si Si1 0.890221 0.270382 0.277321
Si Si2 0.578049 0.828284 0.331041
O O1 0.782979 0.440201 0.271731
O O2 0.787170 0.111715 0.242825
O O3 0.935220 0.249101 0.364742
O O4 0.750000 0.852409 0.375000
O O5 0.500000 0.000000 0.301774
#
# Coordination Sequence:
#
# PCOD8311948 Si02
#       2
#    16  16
#     4   9  20  46  77 114 159 217 279 349 427 510
#     4  10  22  48  72 116 162 214 277 347 426 507
#
# _framework density 28.245367999999999
#
# number of rings (size 3 to 8) (size 9 to 14) (size 15 to 20)
#    0.000    2.500    0.000    0.000    0.000    0.000 
#   45.000    5.000    0.000    0.000    0.000    0.000 
#    0.000    0.000    0.000    0.000    0.000    0.000 
#
# Total GULP energy -198377.521039 kJ/mol
# GULP energy per Si atom -12398.595065 kJ/mol
# Density = 2.818108 g / cm^3
# Si number density = 28.245368 Si / 1000 Ang^3
#
#
#
# Elastic Constant Matrix: (Units=GPa)
#
#
# Indices 1 2 3 4 5 6 
#
# 1 130.2413 65.3814 46.2141 0.0000 0.0000 0.0000
# 2 65.3814 130.2413 46.2141 0.0000 0.0000 0.0000
# 3 46.2141 46.2141 139.8620 0.0000 0.0000 0.0000
# 4 0.0000 0.0000 0.0000 44.8790 0.0000 0.0000
# 5 0.0000 0.0000 0.0000 0.0000 44.8790 0.0000
# 6 0.0000 0.0000 0.0000 0.0000 0.0000 68.5151
#
#
#
# Elastic Compliance Matrix: (Units=1/GPa)
#
#
# Indices 1 2 3 4 5 6 
#
# 1 0.010738 -0.004680 -0.002002 0.000000 0.000000 0.000000
# 2 -0.004680 0.010738 -0.002002 0.000000 0.000000 0.000000
# 3 -0.002002 -0.002002 0.008473 0.000000 0.000000 0.000000
# 4 0.000000 0.000000 0.000000 0.022282 0.000000 0.000000
# 5 0.000000 0.000000 0.000000 0.000000 0.022282 0.000000
# 6 0.000000 0.000000 0.000000 0.000000 0.000000 0.014595
#
#
# Mechanical properties :
#
#
# Convention : Reuss Voigt Hill
#
# Bulk Modulus (GPa) = 79.48181 79.55153 79.51667
# Shear Modulus (GPa) = 45.18014 47.82364 46.50189
#
# Velocity S-wave (km/s) = 4.00379 4.11925 4.06193
# Velocity P-wave (km/s) = 7.04092 7.13091 7.08606
#
# Compressibility (1/GPa) = 0.01258150
#
# Stress axis : x y z
#
# Youngs Moduli (GPa) = 93.12966 93.12966 118.02665
#
# Poissons Ratio (x) = 0.43586 0.23624
# Poissons Ratio (y) = 0.43586 0.23624
# Poissons Ratio (z) = 0.18641 0.18641
#
# Static dielectric constant tensor:
#      x y z
#    x 5.522100 0.000000 0.000000 
#    y 0.000000 5.522100 0.000000 
#    z 0.000000 0.000000 5.297630 
# 
# 
# High freq. dielectric constant tensor:
#      x y z
#    x 2.148640 0.000000 0.000000 
#    y 0.000000 2.148640 0.000000 
#    z 0.000000 0.000000 2.169630 
# 
# From -- ./inp_files/6549.got.cif
#   From: 2010.03.12/outbox.cif.g09.slc.cpg/sg122_4_cif.got.tgz:6549.got - 2010.04.06 16:17:16.
