data_PCOD8311055
_publ_section_title
;
Structure prediction by ZEFSAII (Michael W. Deem and Ramdas Pophale) SiO2 
 PCOD8311055
Probable space group: I -4 M 2
;
_chemical_formula_sum "Si O2"
_cell_formula_units_Z 56
_cell_length_a 19.157906
_cell_length_b 19.157906
_cell_length_c 8.820871
_cell_angle_alpha 90.000000
_cell_angle_beta 90.000000
_cell_angle_gamma 90.000000
_cell_volume 3237.483375
_symmetry_space_group_name_H-M "I -4 M 2"
_symmetry_group_IT_number 119
_symmetry_cell_setting 'tetragonal'
loop_
_space_group_symop_operation_xyz
x,y,z
y,-x,-z
-x,-y,z
-y,x,-z
y,x,-z
-y,-x,-z
-x,y,z
x,-y,z
1/2+x,1/2+y,1/2+z
1/2+y,1/2-x,1/2-z
1/2-x,1/2-y,1/2+z
1/2-y,1/2+x,1/2-z
1/2+y,1/2+x,1/2-z
1/2-y,1/2-x,1/2-z
1/2-x,1/2+y,1/2+z
1/2+x,1/2-y,1/2+z
loop_
_atom_site_type_symbol
_atom_site_label
_atom_site_fract_x
_atom_site_fract_y
_atom_site_fract_z
Si Si1 0.702894 0.694258 0.679096
Si Si2 0.077897 0.277829 0.648048
Si Si3 0.576292 0.923709 0.250000
Si Si4 0.918975 0.828509 0.395920
O O1 0.700619 0.700619 0.500000
O O2 0.734900 0.765101 0.750000
O O3 0.753013 0.629797 0.720548
O O4 0.625309 0.678639 0.742085
O O5 0.083670 0.361750 0.626672
O O6 0.095570 0.242829 0.487686
O O7 0.000000 0.255623 0.698732
O O8 0.500000 0.917486 0.330947
O O9 0.893133 0.893133 0.500000
O O10 0.000000 0.839771 0.354298
#
# Coordination Sequence:
#
# PCOD8311055 Si02
#       4
#    16  16   8  16
#     4  11  21  33  52  74 104 138 176 218 261 305
#     4   9  17  31  51  75 102 131 167 208 254 307
#     4   9  16  26  46  74 102 132 166 204 243 294
#     4   9  19  35  55  77 103 136 171 212 263 318
#
# _framework density 17.297385999999999
#
# number of rings (size 3 to 8) (size 9 to 14) (size 15 to 20)
#    0.000    2.429    1.429    2.571    0.000    1.429 
#    0.000    0.000    0.000    0.000    0.000    4.000 
#    0.000    9.143    0.000    0.000    0.000    0.000 
#
# Total GULP energy -346977.264832 kJ/mol
# GULP energy per Si atom -12392.045173 kJ/mol
# Density = 1.725802 g / cm^3
# Si number density = 17.297386 Si / 1000 Ang^3
#
#
#
# Elastic Constant Matrix: (Units=GPa)
#
#
# Indices 1 2 3 4 5 6 
#
# 1 125.0452 41.0444 47.4065 0.0000 0.0000 0.0000
# 2 41.0444 125.0461 47.4055 0.0000 0.0000 0.0000
# 3 47.4065 47.4055 115.4983 0.0000 0.0000 0.0000
# 4 0.0000 0.0000 0.0000 17.2295 0.0000 0.0000
# 5 0.0000 0.0000 0.0000 0.0000 17.2300 0.0000
# 6 0.0000 0.0000 0.0000 0.0000 0.0000 22.2782
#
#
#
# Elastic Compliance Matrix: (Units=1/GPa)
#
#
# Indices 1 2 3 4 5 6 
#
# 1 0.009884 -0.002021 -0.003228 0.000000 0.000000 0.000000
# 2 -0.002021 0.009884 -0.003227 0.000000 0.000000 0.000000
# 3 -0.003228 -0.003227 0.011308 0.000000 0.000000 0.000000
# 4 0.000000 0.000000 0.000000 0.058040 0.000000 0.000000
# 5 0.000000 0.000000 0.000000 0.000000 0.058038 0.000000
# 6 0.000000 0.000000 0.000000 0.000000 0.000000 0.044887
#
#
# Mechanical properties :
#
#
# Convention : Reuss Voigt Hill
#
# Bulk Modulus (GPa) = 70.80050 70.81137 70.80593
# Shear Modulus (GPa) = 23.39731 26.66308 25.03020
#
# Velocity S-wave (km/s) = 3.68183 3.93039 3.80814
# Velocity P-wave (km/s) = 7.68731 7.85008 7.76912
#
# Compressibility (1/GPa) = 0.01412419
#
# Stress axis : x y z
#
# Youngs Moduli (GPa) = 101.17389 101.17557 88.43674
#
# Poissons Ratio (x) = 0.20444 0.28543
# Poissons Ratio (y) = 0.20444 0.28542
# Poissons Ratio (z) = 0.32654 0.32653
#
# Static dielectric constant tensor:
#      x y z
#    x 3.525740 0.000000 0.000000 
#    y 0.000000 3.525730 0.000000 
#    z 0.000000 0.000000 2.808170 
# 
# 
# High freq. dielectric constant tensor:
#      x y z
#    x 1.683170 0.000000 0.000000 
#    y 0.000000 1.683170 0.000000 
#    z 0.000000 0.000000 1.619760 
# 
# From -- ./inp_files/1975.got.cif
#   From: 2010.03.12/outbox.cif.g09.slc.cpg/sg119_1_cif.got.tgz:1975.got - 2010.04.14 02:25:26.
