data_PCOD8311720
_publ_section_title
;
Structure prediction by ZEFSAII (Michael W. Deem and Ramdas Pophale) SiO2 
 PCOD8311720
Probable space group: I -4 2 M
;
_chemical_formula_sum "Si O2"
_cell_formula_units_Z 56
_cell_length_a 26.255947
_cell_length_b 26.255947
_cell_length_c 5.246112
_cell_angle_alpha 90.000000
_cell_angle_beta 90.000000
_cell_angle_gamma 90.000000
_cell_volume 3616.537164
_symmetry_space_group_name_H-M "I -4 2 M"
_symmetry_group_IT_number 121
_symmetry_cell_setting 'tetragonal'
loop_
_space_group_symop_operation_xyz
x,y,z
y,-x,-z
-x,-y,z
-y,x,-z
x,-y,-z
-x,y,-z
-y,-x,z
y,x,z
1/2+x,1/2+y,1/2+z
1/2+y,1/2-x,1/2-z
1/2-x,1/2-y,1/2+z
1/2-y,1/2+x,1/2-z
1/2+x,1/2-y,1/2-z
1/2-x,1/2+y,1/2-z
1/2-y,1/2-x,1/2+z
1/2+y,1/2+x,1/2+z
loop_
_atom_site_type_symbol
_atom_site_label
_atom_site_fract_x
_atom_site_fract_y
_atom_site_fract_z
Si Si1 0.931849 0.152095 0.722266
Si Si2 0.813060 0.272740 0.255162
Si Si3 0.000000 0.918748 0.000000
Si Si4 0.894717 0.191341 0.224831
O O1 0.880953 0.119048 0.712169
O O2 0.981282 0.115931 0.763905
O O3 0.934677 0.183549 0.458741
O O4 0.926961 0.190145 0.963782
O O5 0.769639 0.230362 0.254005
O O6 0.808386 0.307355 0.507077
O O7 0.868176 0.246156 0.252916
O O8 0.953541 0.953541 0.894312
O O9 0.853097 0.146904 0.224299
#
# Coordination Sequence:
#
# PCOD8311720 Si02
#       4
#    16  16   8  16
#     4   9  17  28  40  52  67  87 110 142 184 224
#     4   9  15  22  34  52  71  89 107 125 147 188
#     4   9  18  32  46  58  70  88 122 166 206 242
#     4   9  16  26  38  52  70  89 107 129 165 212
#
# _framework density 15.484425999999999
#
# number of rings (size 3 to 8) (size 9 to 14) (size 15 to 20)
#    0.000    3.000    0.000    1.714    0.000    8.000 
#    0.000    4.286    0.000   12.000    0.000    0.000 
#    0.000    0.000    0.000    0.000    0.000    0.000 
#
# Total GULP energy -347037.647476 kJ/mol
# GULP energy per Si atom -12394.201696 kJ/mol
# Density = 1.544918 g / cm^3
# Si number density = 15.484426 Si / 1000 Ang^3
#
#
#
# Elastic Constant Matrix: (Units=GPa)
#
#
# Indices 1 2 3 4 5 6 
#
# 1 32.5390 29.9768 18.9660 0.0000 0.0000 0.0000
# 2 29.9768 32.5384 18.9657 0.0000 0.0000 0.0000
# 3 18.9660 18.9657 110.6782 0.0000 0.0000 0.0000
# 4 0.0000 0.0000 0.0000 11.4222 0.0000 0.0000
# 5 0.0000 0.0000 0.0000 0.0000 11.4222 0.0000
# 6 0.0000 0.0000 0.0000 0.0000 0.0000 28.8535
#
#
#
# Elastic Compliance Matrix: (Units=1/GPa)
#
#
# Indices 1 2 3 4 5 6 
#
# 1 0.204094 -0.186243 -0.003059 0.000000 0.000000 0.000000
# 2 -0.186243 0.204097 -0.003059 0.000000 0.000000 0.000000
# 3 -0.003059 -0.003059 0.010084 0.000000 0.000000 0.000000
# 4 0.000000 0.000000 0.000000 0.087549 0.000000 0.000000
# 5 0.000000 0.000000 0.000000 0.000000 0.087548 0.000000
# 6 0.000000 0.000000 0.000000 0.000000 0.000000 0.034658
#
#
# Mechanical properties :
#
#
# Convention : Reuss Voigt Hill
#
# Bulk Modulus (GPa) = 29.80504 34.61919 32.21212
# Shear Modulus (GPa) = 4.88311 17.52940 11.20625
#
# Velocity S-wave (km/s) = 1.77775 3.36827 2.69311
# Velocity P-wave (km/s) = 4.84810 6.12641 5.52436
#
# Compressibility (1/GPa) = 0.03355137
#
# Stress axis : x y z
#
# Youngs Moduli (GPa) = 4.89971 4.89963 99.17062
#
# Poissons Ratio (x) = 0.91252 0.30339
# Poissons Ratio (y) = 0.91254 0.30336
# Poissons Ratio (z) = 0.01499 0.01499
#
# Static dielectric constant tensor:
#      x y z
#    x 2.688340 0.000000 0.000000 
#    y 0.000000 2.688330 0.000000 
#    z 0.000000 0.000000 3.262740 
# 
# 
# High freq. dielectric constant tensor:
#      x y z
#    x 1.540530 0.000000 0.000000 
#    y 0.000000 1.540530 0.000000 
#    z 0.000000 0.000000 1.616350 
# 
# From -- ./inp_files/395.got.cif
#   From: 2010.03.12/outbox.cif.g09.slc.cpg/sg121_1_cif.got.tgz:395.got - 2010.04.06 16:06:48.
