data_PCOD8311199
_publ_section_title
;
Structure prediction by ZEFSAII (Michael W. Deem and Ramdas Pophale) SiO2 
 PCOD8311199
Probable space group: I -4 C 2
;
_chemical_formula_sum "Si O2"
_cell_formula_units_Z 120
_cell_length_a 14.873478
_cell_length_b 14.873478
_cell_length_c 26.777792
_cell_angle_alpha 90.000000
_cell_angle_beta 90.000000
_cell_angle_gamma 90.000000
_cell_volume 5923.792460
_symmetry_space_group_name_H-M "I -4 C 2"
_symmetry_group_IT_number 120
_symmetry_cell_setting 'tetragonal'
loop_
_space_group_symop_operation_xyz
x,y,z
y,-x,-z
-x,-y,z
-y,x,-z
y,x,1/2-z
-y,-x,1/2-z
-x,y,1/2+z
x,-y,1/2+z
1/2+x,1/2+y,1/2+z
1/2+y,1/2-x,1/2-z
1/2-x,1/2-y,1/2+z
1/2-y,1/2+x,1/2-z
1/2+y,1/2+x,-z
1/2-y,1/2-x,-z
1/2-x,1/2+y,z
1/2+x,1/2-y,z
loop_
_atom_site_type_symbol
_atom_site_label
_atom_site_fract_x
_atom_site_fract_y
_atom_site_fract_z
Si Si1 0.201404 0.193870 0.304874
Si Si2 0.000000 0.000000 0.085809
Si Si3 0.960491 0.191889 0.956396
Si Si4 0.804301 0.440060 0.144327
Si Si5 0.664594 0.099978 0.209753
Si Si6 0.038100 0.190065 0.122867
Si Si7 0.533909 0.147172 0.678379
Si Si8 0.226168 0.869882 0.980632
O O1 0.168825 0.168825 0.250000
O O2 0.152104 0.279252 0.327626
O O3 0.307510 0.214207 0.303794
O O4 0.167751 0.109206 0.335213
O O5 0.910336 0.988896 0.053796
O O6 0.012566 0.905305 0.114820
O O7 0.947779 0.255323 0.908428
O O8 0.867029 0.186108 0.987537
O O9 0.038989 0.235576 0.988139
O O10 0.780417 0.525596 0.178520
O O11 0.912492 0.426419 0.144473
O O12 0.562668 0.105535 0.190356
O O13 0.668209 0.081053 0.268534
O O14 0.096182 0.230604 0.076548
O O15 0.969338 0.263630 0.143964
O O16 0.307050 0.807050 0.000000
#
# Coordination Sequence:
#
# PCOD8311199 Si02
#       8
#    16   8  16  16  16  16  16  16
#     4  11  21  42  63  94 136 170 219 274 327 405
#     4  10  20  45  65  94 128 170 227 270 343 400
#     4  11  25  42  72  96 127 178 227 282 340 417
#     4  12  23  39  65 102 130 169 226 279 330 390
#     4  11  23  39  67  94 136 185 223 263 331 416
#     4  10  23  42  66  94 130 176 220 285 337 408
#     4  11  22  40  67  95 136 180 225 266 336 411
#     4  11  24  45  69  98 134 175 226 285 348 408
#
# _framework density 20.257294000000002
#
# number of rings (size 3 to 8) (size 9 to 14) (size 15 to 20)
#    0.000    1.067    5.333    2.800    3.733    3.733 
#    0.000    0.333    0.000    0.800    0.000    0.000 
#    0.000    0.000    0.000    0.000    0.000    0.000 
#
# Total GULP energy -743457.111083 kJ/mol
# GULP energy per Si atom -12390.951851 kJ/mol
# Density = 2.021119 g / cm^3
# Si number density = 20.257294 Si / 1000 Ang^3
#
#
#
# Elastic Constant Matrix: (Units=GPa)
#
#
# Indices 1 2 3 4 5 6 
#
# 1 102.2735 48.7056 54.5731 0.0000 0.0000 0.0000
# 2 48.7056 102.2735 54.5731 0.0000 0.0000 0.0000
# 3 54.5731 54.5731 111.2052 0.0000 0.0000 0.0000
# 4 0.0000 0.0000 0.0000 33.1532 0.0000 0.0000
# 5 0.0000 0.0000 0.0000 0.0000 33.1532 0.0000
# 6 0.0000 0.0000 0.0000 0.0000 0.0000 38.2396
#
#
#
# Elastic Compliance Matrix: (Units=1/GPa)
#
#
# Indices 1 2 3 4 5 6 
#
# 1 0.014467 -0.004201 -0.005038 0.000000 0.000000 0.000000
# 2 -0.004201 0.014467 -0.005038 0.000000 0.000000 0.000000
# 3 -0.005038 -0.005038 0.013937 0.000000 0.000000 0.000000
# 4 0.000000 0.000000 0.000000 0.030163 0.000000 0.000000
# 5 0.000000 0.000000 0.000000 0.000000 0.030163 0.000000
# 6 0.000000 0.000000 0.000000 0.000000 0.000000 0.026151
#
#
# Mechanical properties :
#
#
# Convention : Reuss Voigt Hill
#
# Bulk Modulus (GPa) = 69.84792 70.16173 70.00483
# Shear Modulus (GPa) = 30.73672 31.43590 31.08631
#
# Velocity S-wave (km/s) = 3.89950 3.94360 3.92161
# Velocity P-wave (km/s) = 7.40473 7.44624 7.42551
#
# Compressibility (1/GPa) = 0.01431682
#
# Stress axis : x y z
#
# Youngs Moduli (GPa) = 69.12502 69.12502 71.75309
#
# Poissons Ratio (x) = 0.29042 0.36146
# Poissons Ratio (y) = 0.29042 0.36146
# Poissons Ratio (z) = 0.34822 0.34822
#
# Static dielectric constant tensor:
#      x y z
#    x 3.865920 0.000000 0.000000 
#    y 0.000000 3.865920 0.000000 
#    z 0.000000 0.000000 3.928600 
# 
# 
# High freq. dielectric constant tensor:
#      x y z
#    x 1.795650 0.000000 0.000000 
#    y 0.000000 1.795650 0.000000 
#    z 0.000000 0.000000 1.789710 
# 
# From -- ./inp_files/6726.got.cif
#   From: 2010.03.12/outbox.cif.g09.slc.cpg/sg120_4_cif.got.tgz:6726.got - 2010.04.06 16:00:44.
