data_PCOD8311381
_publ_section_title
;
Structure prediction by ZEFSAII (Michael W. Deem and Ramdas Pophale) SiO2 
 PCOD8311381
Probable space group: I -4 2 M
;
_chemical_formula_sum "Si O2"
_cell_formula_units_Z 72
_cell_length_a 22.385332
_cell_length_b 22.385332
_cell_length_c 8.324975
_cell_angle_alpha 90.000000
_cell_angle_beta 90.000000
_cell_angle_gamma 90.000000
_cell_volume 4171.670686
_symmetry_space_group_name_H-M "I -4 2 M"
_symmetry_group_IT_number 121
_symmetry_cell_setting 'tetragonal'
loop_
_space_group_symop_operation_xyz
x,y,z
y,-x,-z
-x,-y,z
-y,x,-z
x,-y,-z
-x,y,-z
-y,-x,z
y,x,z
1/2+x,1/2+y,1/2+z
1/2+y,1/2-x,1/2-z
1/2-x,1/2-y,1/2+z
1/2-y,1/2+x,1/2-z
1/2+x,1/2-y,1/2-z
1/2-x,1/2+y,1/2-z
1/2-y,1/2-x,1/2+z
1/2+y,1/2+x,1/2+z
loop_
_atom_site_type_symbol
_atom_site_label
_atom_site_fract_x
_atom_site_fract_y
_atom_site_fract_z
Si Si1 0.767724 0.670749 0.754482
Si Si2 0.087169 0.181232 0.104380
Si Si3 0.960795 0.818850 0.756607
Si Si4 0.245985 0.144239 0.604335
Si Si5 0.500000 0.590992 0.000000
O O1 0.729220 0.729220 0.785192
O O2 0.739574 0.629649 0.613179
O O3 0.831802 0.695920 0.700342
O O4 0.767774 0.634743 0.921415
O O5 0.124297 0.124297 0.176099
O O6 0.029420 0.198744 0.209200
O O7 0.071278 0.164131 0.922567
O O8 0.921782 0.767189 0.672991
O O9 0.963621 0.873331 0.634095
O O10 0.187664 0.187664 0.618623
O O11 0.549355 0.549355 0.912078
#
# Coordination Sequence:
#
# PCOD8311381 Si02
#       5
#    16  16  16  16   8
#     4   9  18  31  49  70  92 119 152 194 243 295
#     4  10  20  34  49  68  95 127 164 204 247 289
#     4  11  21  32  49  69  93 126 165 207 246 285
#     4  10  18  30  48  69  92 119 154 195 242 292
#     4  11  22  34  46  62  88 126 170 209 244 282
#
# _framework density 17.259271999999999
#
# number of rings (size 3 to 8) (size 9 to 14) (size 15 to 20)
#    0.000    1.889    0.000    5.333    0.000    5.333 
#    0.000    0.000    0.000    8.000    0.000    0.000 
#    0.000    0.889    0.000   10.222    0.000   10.000 
#
# Total GULP energy -446043.151053 kJ/mol
# GULP energy per Si atom -12390.087529 kJ/mol
# Density = 1.721999 g / cm^3
# Si number density = 17.259272 Si / 1000 Ang^3
#
#
#
# Elastic Constant Matrix: (Units=GPa)
#
#
# Indices 1 2 3 4 5 6 
#
# 1 88.7145 66.2819 43.9557 0.0000 0.0000 0.0000
# 2 66.2819 88.7145 43.9557 0.0000 0.0000 0.0000
# 3 43.9557 43.9557 93.4420 0.0000 0.0000 0.0000
# 4 0.0000 0.0000 0.0000 26.9731 0.0000 0.0000
# 5 0.0000 0.0000 0.0000 0.0000 26.9731 0.0000
# 6 0.0000 0.0000 0.0000 0.0000 0.0000 32.1127
#
#
#
# Elastic Compliance Matrix: (Units=1/GPa)
#
#
# Indices 1 2 3 4 5 6 
#
# 1 0.026689 -0.017889 -0.004139 0.000000 0.000000 0.000000
# 2 -0.017889 0.026689 -0.004139 0.000000 0.000000 0.000000
# 3 -0.004139 -0.004139 0.014596 0.000000 0.000000 0.000000
# 4 0.000000 0.000000 0.000000 0.037074 0.000000 0.000000
# 5 0.000000 0.000000 0.000000 0.000000 0.037074 0.000000
# 6 0.000000 0.000000 0.000000 0.000000 0.000000 0.031140
#
#
# Mechanical properties :
#
#
# Convention : Reuss Voigt Hill
#
# Bulk Modulus (GPa) = 63.94749 64.36196 64.15472
# Shear Modulus (GPa) = 21.66281 24.99030 23.32656
#
# Velocity S-wave (km/s) = 3.54664 3.80930 3.68031
# Velocity P-wave (km/s) = 7.34187 7.53126 7.43717
#
# Compressibility (1/GPa) = 0.01563783
#
# Stress axis : x y z
#
# Youngs Moduli (GPa) = 37.46903 37.46903 68.51108
#
# Poissons Ratio (x) = 0.67029 0.28359
# Poissons Ratio (y) = 0.67029 0.28359
# Poissons Ratio (z) = 0.15510 0.15510
#
# Static dielectric constant tensor:
#      x y z
#    x 3.104650 0.000000 0.000000 
#    y 0.000000 3.104650 0.000000 
#    z 0.000000 0.000000 3.425690 
# 
# 
# High freq. dielectric constant tensor:
#      x y z
#    x 1.639780 0.000000 0.000000 
#    y 0.000000 1.639780 0.000000 
#    z 0.000000 0.000000 1.680790 
# 
# From -- ./inp_files/1683.got.cif
#   From: 2010.03.12/outbox.cif.g09.slc.cpg/sg121_1_cif.got.tgz:1683.got - 2010.04.06 16:06:48.
