data_PCOD8311571
_publ_section_title
;
Structure prediction by ZEFSAII (Michael W. Deem and Ramdas Pophale) SiO2 
 PCOD8311571
Probable space group: I -4 2 M
;
_chemical_formula_sum "Si O2"
_cell_formula_units_Z 112
_cell_length_a 14.839148
_cell_length_b 14.839148
_cell_length_c 22.628058
_cell_angle_alpha 90.000000
_cell_angle_beta 90.000000
_cell_angle_gamma 90.000000
_cell_volume 4982.705462
_symmetry_space_group_name_H-M "I -4 2 M"
_symmetry_group_IT_number 121
_symmetry_cell_setting 'tetragonal'
loop_
_space_group_symop_operation_xyz
x,y,z
y,-x,-z
-x,-y,z
-y,x,-z
x,-y,-z
-x,y,-z
-y,-x,z
y,x,z
1/2+x,1/2+y,1/2+z
1/2+y,1/2-x,1/2-z
1/2-x,1/2-y,1/2+z
1/2-y,1/2+x,1/2-z
1/2+x,1/2-y,1/2-z
1/2-x,1/2+y,1/2-z
1/2-y,1/2-x,1/2+z
1/2+y,1/2+x,1/2+z
loop_
_atom_site_type_symbol
_atom_site_label
_atom_site_fract_x
_atom_site_fract_y
_atom_site_fract_z
Si Si1 0.309104 0.458218 0.084760
Si Si2 0.062984 0.418645 0.343251
Si Si3 0.869087 0.276413 0.563793
Si Si4 0.966797 0.678583 0.226611
Si Si5 0.176012 0.679619 0.867125
Si Si6 0.504086 0.359710 0.786210
Si Si7 0.104123 0.249147 0.018427
O O1 0.387237 0.387237 0.061177
O O2 0.285410 0.545030 0.041419
O O3 0.214770 0.408580 0.099983
O O4 0.339762 0.507256 0.144611
O O5 0.087324 0.338213 0.386214
O O6 0.014378 0.381210 0.284635
O O7 0.158250 0.458960 0.323132
O O8 0.000000 0.500000 0.369965
O O9 0.788587 0.211414 0.586781
O O10 0.830871 0.341217 0.512730
O O11 0.870789 0.657485 0.195253
O O12 0.976445 0.781534 0.242514
O O13 0.260880 0.739121 0.850302
O O14 0.107681 0.730465 0.911693
O O15 0.607091 0.392910 0.774617
O O16 0.438313 0.438313 0.768118
O O17 0.154160 0.154160 0.004341
O O18 0.000000 0.244070 0.000000
#
# Coordination Sequence:
#
# PCOD8311571 Si02
#       7
#    16  16  16  16  16  16  16
#     4  10  20  37  60  88 127 172 216 263 322 384
#     4  12  23  38  58  90 130 166 206 262 322 384
#     4  11  24  41  66  96 129 169 221 275 321 381
#     4  12  20  35  59  86 123 166 212 259 322 387
#     4  10  22  39  62  90 125 169 213 265 327 388
#     4  10  21  36  55  84 123 165 212 262 315 384
#     4  10  23  46  69  97 128 163 213 272 330 386
#
# _framework density 22.477747000000001
#
# number of rings (size 3 to 8) (size 9 to 14) (size 15 to 20)
#    0.000    1.286    2.857    3.429    0.000    2.714 
#    0.000    1.429    0.000    1.714    0.000    8.000 
#    0.000    0.000    0.000    0.000    0.000    0.000 
#
# Total GULP energy -693779.715650 kJ/mol
# GULP energy per Si atom -12388.923494 kJ/mol
# Density = 2.242659 g / cm^3
# Si number density = 22.477747 Si / 1000 Ang^3
#
#
#
# Elastic Constant Matrix: (Units=GPa)
#
#
# Indices 1 2 3 4 5 6 
#
# 1 127.5425 57.9316 30.2728 0.0000 0.0000 0.0000
# 2 57.9316 127.5445 30.2740 0.0000 0.0000 0.0000
# 3 30.2728 30.2740 36.4804 0.0000 0.0000 0.0000
# 4 0.0000 0.0000 0.0000 16.8438 0.0000 0.0000
# 5 0.0000 0.0000 0.0000 0.0000 16.8452 0.0000
# 6 0.0000 0.0000 0.0000 0.0000 0.0000 30.2743
#
#
#
# Elastic Compliance Matrix: (Units=1/GPa)
#
#
# Indices 1 2 3 4 5 6 
#
# 1 0.010880 -0.003485 -0.006136 0.000000 0.000000 0.000000
# 2 -0.003485 0.010880 -0.006137 0.000000 0.000000 0.000000
# 3 -0.006136 -0.006137 0.037597 0.000000 0.000000 0.000000
# 4 0.000000 0.000000 0.000000 0.059369 0.000000 0.000000
# 5 0.000000 0.000000 0.000000 0.000000 0.059364 0.000000
# 6 0.000000 0.000000 0.000000 0.000000 0.000000 0.033031
#
#
# Mechanical properties :
#
#
# Convention : Reuss Voigt Hill
#
# Bulk Modulus (GPa) = 35.91934 58.72492 47.32213
# Shear Modulus (GPa) = 19.84765 24.33190 22.08978
#
# Velocity S-wave (km/s) = 2.97474 3.29369 3.13827
# Velocity P-wave (km/s) = 5.27384 6.37550 5.85066
#
# Compressibility (1/GPa) = 0.02784016
#
# Stress axis : x y z
#
# Youngs Moduli (GPa) = 91.91094 91.91103 26.59785
#
# Poissons Ratio (x) = 0.32034 0.16322
# Poissons Ratio (y) = 0.32034 0.16323
# Poissons Ratio (z) = 0.56400 0.56404
#
# Static dielectric constant tensor:
#      x y z
#    x 4.321830 0.000000 0.000000 
#    y 0.000000 4.321830 0.000000 
#    z 0.000000 0.000000 3.873840 
# 
# 
# High freq. dielectric constant tensor:
#      x y z
#    x 1.896270 0.000000 0.000000 
#    y 0.000000 1.896270 0.000000 
#    z 0.000000 0.000000 1.866800 
# 
# From -- ./inp_files/7211.got.cif
#   From: 2010.03.12/outbox.cif.g09.slc.cpg/sg121_4_cif.got.tgz:7211.got - 2010.04.06 16:06:48.
