data_PCOD8311109
_publ_section_title
;
Structure prediction by ZEFSAII (Michael W. Deem and Ramdas Pophale) SiO2 
 PCOD8311109
Probable space group: I -4 C 2
;
_chemical_formula_sum "Si O2"
_cell_formula_units_Z 108
_cell_length_a 17.330473
_cell_length_b 17.330473
_cell_length_c 17.677014
_cell_angle_alpha 90.000000
_cell_angle_beta 90.000000
_cell_angle_gamma 90.000000
_cell_volume 5309.207974
_symmetry_space_group_name_H-M "I -4 C 2"
_symmetry_group_IT_number 120
_symmetry_cell_setting 'tetragonal'
loop_
_space_group_symop_operation_xyz
x,y,z
y,-x,-z
-x,-y,z
-y,x,-z
y,x,1/2-z
-y,-x,1/2-z
-x,y,1/2+z
x,-y,1/2+z
1/2+x,1/2+y,1/2+z
1/2+y,1/2-x,1/2-z
1/2-x,1/2-y,1/2+z
1/2-y,1/2+x,1/2-z
1/2+y,1/2+x,-z
1/2-y,1/2-x,-z
1/2-x,1/2+y,z
1/2+x,1/2-y,z
loop_
_atom_site_type_symbol
_atom_site_label
_atom_site_fract_x
_atom_site_fract_y
_atom_site_fract_z
Si Si1 0.463486 0.337723 0.744158
Si Si2 0.500000 0.000000 0.250000
Si Si3 0.016720 0.743281 0.595456
Si Si4 0.133249 0.866752 0.250000
Si Si5 0.155914 0.727843 0.790289
Si Si6 0.108714 0.386722 0.830822
Si Si7 0.770811 0.618740 0.041134
Si Si8 0.236248 0.843253 0.393166
O O1 0.416132 0.416132 0.750000
O O2 0.467151 0.311355 0.655865
O O3 0.546477 0.355265 0.780050
O O4 0.427012 0.269616 0.795565
O O5 0.430883 0.968324 0.196718
O O6 0.050918 0.663313 0.627465
O O7 0.053133 0.763375 0.513783
O O8 0.925990 0.736786 0.576541
O O9 0.194057 0.850948 0.314006
O O10 0.211718 0.788283 0.750000
O O11 0.149996 0.649726 0.742064
O O12 0.187183 0.707626 0.874393
O O13 0.086461 0.311946 0.882429
O O14 0.701195 0.679456 0.050952
O O15 0.840393 0.659608 0.000000
#
# Coordination Sequence:
#
# PCOD8311109 Si02
#       8
#    16   4  16   8  16  16  16  16
#     4   9  19  33  58  87 116 145 192 250 300 362
#     4  12  24  36  62  96 124 160 196 258 324 372
#     4   9  21  38  57  83 119 161 198 246 310 372
#     4  10  19  34  56  86 118 151 184 246 318 352
#     4  10  17  32  60  89 110 146 201 253 299 341
#     4  10  20  38  59  88 124 158 195 250 313 373
#     4  10  21  39  59  78 117 167 201 243 306 367
#     4  11  19  36  60  84 114 153 205 252 300 358
#
# _framework density 20.342016999999998
#
# number of rings (size 3 to 8) (size 9 to 14) (size 15 to 20)
#    0.000    2.074    2.222    1.111    2.074    2.370 
#    2.667    6.296    0.000    0.000    0.000    0.000 
#    0.000    0.000    0.000    0.000    0.000    0.000 
#
# Total GULP energy -669367.166583 kJ/mol
# GULP energy per Si atom -12395.688270 kJ/mol
# Density = 2.029572 g / cm^3
# Si number density = 20.342017 Si / 1000 Ang^3
#
#
#
# Elastic Constant Matrix: (Units=GPa)
#
#
# Indices 1 2 3 4 5 6 
#
# 1 87.7016 34.0642 30.1529 0.0000 0.0000 0.0000
# 2 34.0642 87.7048 30.1554 0.0000 0.0000 0.0000
# 3 30.1529 30.1554 49.5103 0.0000 0.0000 0.0000
# 4 0.0000 0.0000 0.0000 25.2964 0.0000 0.0000
# 5 0.0000 0.0000 0.0000 0.0000 25.2955 0.0000
# 6 0.0000 0.0000 0.0000 0.0000 0.0000 35.4021
#
#
#
# Elastic Compliance Matrix: (Units=1/GPa)
#
#
# Indices 1 2 3 4 5 6 
#
# 1 0.015201 -0.003442 -0.007162 0.000000 0.000000 0.000000
# 2 -0.003442 0.015201 -0.007163 0.000000 0.000000 0.000000
# 3 -0.007162 -0.007163 0.028922 0.000000 0.000000 0.000000
# 4 0.000000 0.000000 0.000000 0.039531 0.000000 0.000000
# 5 0.000000 0.000000 0.000000 0.000000 0.039533 0.000000
# 6 0.000000 0.000000 0.000000 0.000000 0.000000 0.028247
#
#
# Mechanical properties :
#
#
# Convention : Reuss Voigt Hill
#
# Bulk Modulus (GPa) = 42.02991 45.96242 43.99617
# Shear Modulus (GPa) = 23.79831 25.90174 24.85003
#
# Velocity S-wave (km/s) = 3.42410 3.57222 3.49895
# Velocity P-wave (km/s) = 6.02819 6.29748 6.16431
#
# Compressibility (1/GPa) = 0.02379258
#
# Stress axis : x y z
#
# Youngs Moduli (GPa) = 65.78342 65.78346 34.57569
#
# Poissons Ratio (x) = 0.22641 0.24762
# Poissons Ratio (y) = 0.22641 0.24765
# Poissons Ratio (z) = 0.47112 0.47118
#
# Static dielectric constant tensor:
#      x y z
#    x 3.967690 0.000000 0.000000 
#    y 0.000000 3.967700 0.000000 
#    z 0.000000 0.000000 3.737390 
# 
# 
# High freq. dielectric constant tensor:
#      x y z
#    x 1.797380 0.000000 0.000000 
#    y 0.000000 1.797380 0.000000 
#    z 0.000000 0.000000 1.768660 
# 
# From -- ./inp_files/5517.got.cif
#   From: 2010.03.12/outbox.cif.g09.slc.cpg/sg120_3_cif.got.tgz:5517.got - 2010.04.06 16:00:44.
