data_PCOD8311717
_publ_section_title
;
Structure prediction by ZEFSAII (Michael W. Deem and Ramdas Pophale) SiO2 
 PCOD8311717
Probable space group: I -4 2 M
;
_chemical_formula_sum "Si O2"
_cell_formula_units_Z 48
_cell_length_a 10.084888
_cell_length_b 10.084888
_cell_length_c 24.047456
_cell_angle_alpha 90.000000
_cell_angle_beta 90.000000
_cell_angle_gamma 90.000000
_cell_volume 2445.745694
_symmetry_space_group_name_H-M "I -4 2 M"
_symmetry_group_IT_number 121
_symmetry_cell_setting 'tetragonal'
loop_
_space_group_symop_operation_xyz
x,y,z
y,-x,-z
-x,-y,z
-y,x,-z
x,-y,-z
-x,y,-z
-y,-x,z
y,x,z
1/2+x,1/2+y,1/2+z
1/2+y,1/2-x,1/2-z
1/2-x,1/2-y,1/2+z
1/2-y,1/2+x,1/2-z
1/2+x,1/2-y,1/2-z
1/2-x,1/2+y,1/2-z
1/2-y,1/2-x,1/2+z
1/2+y,1/2+x,1/2+z
loop_
_atom_site_type_symbol
_atom_site_label
_atom_site_fract_x
_atom_site_fract_y
_atom_site_fract_z
Si Si1 0.493085 0.716906 0.938958
Si Si2 0.103308 0.324860 0.334346
Si Si3 0.006432 0.216033 0.223486
O O1 0.349166 0.650835 0.928375
O O2 0.602179 0.602179 0.936848
O O3 0.519455 0.827962 0.891539
O O4 0.500000 0.785254 0.000000
O O5 0.211581 0.211581 0.339600
O O6 0.176035 0.466609 0.323795
O O7 0.008652 0.290877 0.282495
O O8 0.894190 0.105811 0.228631
O O9 0.147675 0.147675 0.208521
#
# Coordination Sequence:
#
# PCOD8311717 Si02
#       3
#    16  16  16
#     4   8  13  22  39  65  97 130 159 189 230 279
#     4   9  16  26  41  63  94 128 157 188 231 279
#     4   9  17  28  42  63  93 127 160 193 230 275
#
# _framework density 19.625917999999999
#
# number of rings (size 3 to 8) (size 9 to 14) (size 15 to 20)
#    0.000    3.333    0.000    2.000    0.000    4.667 
#    0.000    0.000    0.000    0.000    0.000    4.667 
#    0.000   18.667    0.000   76.333    0.000    3.000 
#
# Total GULP energy -297369.286419 kJ/mol
# GULP energy per Si atom -12390.386934 kJ/mol
# Density = 1.958125 g / cm^3
# Si number density = 19.625918 Si / 1000 Ang^3
#
#
#
# Elastic Constant Matrix: (Units=GPa)
#
#
# Indices 1 2 3 4 5 6 
#
# 1 49.6195 29.4073 62.3310 0.0000 0.0000 0.0000
# 2 29.4073 49.6197 62.3312 0.0000 0.0000 0.0000
# 3 62.3310 62.3312 181.4734 0.0000 0.0000 0.0000
# 4 0.0000 0.0000 0.0000 16.7767 0.0000 0.0000
# 5 0.0000 0.0000 0.0000 0.0000 16.7770 0.0000
# 6 0.0000 0.0000 0.0000 0.0000 0.0000 21.5282
#
#
#
# Elastic Compliance Matrix: (Units=1/GPa)
#
#
# Indices 1 2 3 4 5 6 
#
# 1 0.038546 -0.010929 -0.009486 0.000000 0.000000 0.000000
# 2 -0.010929 0.038546 -0.009486 0.000000 0.000000 0.000000
# 3 -0.009486 -0.009486 0.012027 0.000000 0.000000 0.000000
# 4 0.000000 0.000000 0.000000 0.059607 0.000000 0.000000
# 5 0.000000 0.000000 0.000000 0.000000 0.059606 0.000000
# 6 0.000000 0.000000 0.000000 0.000000 0.000000 0.046451
#
#
# Mechanical properties :
#
#
# Convention : Reuss Voigt Hill
#
# Bulk Modulus (GPa) = 34.10830 65.42794 49.76812
# Shear Modulus (GPa) = 15.41520 19.45924 17.43722
#
# Velocity S-wave (km/s) = 2.80563 3.15224 2.98397
# Velocity P-wave (km/s) = 5.28321 6.83072 6.10619
#
# Compressibility (1/GPa) = 0.02931837
#
# Stress axis : x y z
#
# Youngs Moduli (GPa) = 25.94291 25.94295 83.14819
#
# Poissons Ratio (x) = 0.28352 0.78873
# Poissons Ratio (y) = 0.28352 0.78873
# Poissons Ratio (z) = 0.24609 0.24609
#
# Static dielectric constant tensor:
#      x y z
#    x 3.554050 0.000000 0.000000 
#    y 0.000000 3.554050 0.000000 
#    z 0.000000 0.000000 3.938440 
# 
# 
# High freq. dielectric constant tensor:
#      x y z
#    x 1.745010 0.000000 0.000000 
#    y 0.000000 1.745010 0.000000 
#    z 0.000000 0.000000 1.750050 
# 
# From -- ./inp_files/4896.got.cif
#   From: 2010.03.12/outbox.cif.g09.slc.cpg/sg121_3_cif.got.tgz:4896.got - 2010.04.06 16:06:48.
