data_PCOD8311047
_publ_section_title
;
Structure prediction by ZEFSAII (Michael W. Deem and Ramdas Pophale) SiO2 
 PCOD8311047
Probable space group: I -4 M 2
;
_chemical_formula_sum "Si O2"
_cell_formula_units_Z 96
_cell_length_a 13.718492
_cell_length_b 13.718492
_cell_length_c 26.712667
_cell_angle_alpha 90.000000
_cell_angle_beta 90.000000
_cell_angle_gamma 90.000000
_cell_volume 5027.244399
_symmetry_space_group_name_H-M "I -4 M 2"
_symmetry_group_IT_number 119
_symmetry_cell_setting 'tetragonal'
loop_
_space_group_symop_operation_xyz
x,y,z
y,-x,-z
-x,-y,z
-y,x,-z
y,x,-z
-y,-x,-z
-x,y,z
x,-y,z
1/2+x,1/2+y,1/2+z
1/2+y,1/2-x,1/2-z
1/2-x,1/2-y,1/2+z
1/2-y,1/2+x,1/2-z
1/2+y,1/2+x,1/2-z
1/2-y,1/2-x,1/2-z
1/2-x,1/2+y,1/2+z
1/2+x,1/2-y,1/2+z
loop_
_atom_site_type_symbol
_atom_site_label
_atom_site_fract_x
_atom_site_fract_y
_atom_site_fract_z
Si Si1 0.890952 0.690668 0.044653
Si Si2 0.248228 0.727611 0.127137
Si Si3 0.802182 0.610609 0.944588
Si Si4 0.892814 0.107187 0.000000
Si Si5 0.892452 0.892452 0.500000
Si Si6 0.887683 0.891944 0.305339
Si Si7 0.247683 0.613550 0.281147
O O1 0.814422 0.662101 0.087670
O O2 0.000000 0.658972 0.060011
O O3 0.866737 0.638961 0.992315
O O4 0.882040 0.808277 0.041110
O O5 0.310006 0.815627 0.100048
O O6 0.327952 0.659284 0.151700
O O7 0.172351 0.768614 0.167839
O O8 0.829082 0.500000 0.928210
O O9 0.687436 0.620767 0.956935
O O10 0.000000 0.117007 0.974145
O O11 0.000000 0.880739 0.475477
O O12 0.871685 0.845234 0.250907
O O13 0.000000 0.898131 0.318742
O O14 0.840763 0.000000 0.304883
O O15 0.226952 0.500000 0.292921
O O16 0.155501 0.655501 0.250000
#
# Coordination Sequence:
#
# PCOD8311047 Si02
#       7
#    16  16  16   8   8  16  16
#     4  11  21  36  54  76 112 151 188 226 270 319
#     4  11  19  34  54  84 105 140 182 229 271 319
#     4  11  21  35  51  75 113 151 188 226 267 318
#     4   9  17  32  54  76 101 139 186 232 274 309
#     4   9  17  30  50  72  99 139 182 226 270 307
#     4   9  19  36  57  81 108 136 170 222 285 338
#     4   9  19  35  56  79 110 141 175 220 275 338
#
# _framework density 19.095948
#
# number of rings (size 3 to 8) (size 9 to 14) (size 15 to 20)
#    0.000    2.000    3.333    1.000    0.000    1.833 
#    0.000    3.333    0.000    7.000    0.000    0.000 
#    0.000   17.667    0.000    0.000    0.000    0.000 
#
# Total GULP energy -594870.885441 kJ/mol
# GULP energy per Si atom -12393.143447 kJ/mol
# Density = 1.905248 g / cm^3
# Si number density = 19.095948 Si / 1000 Ang^3
#
#
#
# Elastic Constant Matrix: (Units=GPa)
#
#
# Indices 1 2 3 4 5 6 
#
# 1 119.9895 37.1093 48.6659 0.0000 0.0000 0.0000
# 2 37.1093 119.9889 48.6660 0.0000 0.0000 0.0000
# 3 48.6659 48.6660 110.6085 0.0000 0.0000 0.0000
# 4 0.0000 0.0000 0.0000 19.4685 0.0000 0.0000
# 5 0.0000 0.0000 0.0000 0.0000 19.4683 0.0000
# 6 0.0000 0.0000 0.0000 0.0000 0.0000 22.2236
#
#
#
# Elastic Compliance Matrix: (Units=1/GPa)
#
#
# Indices 1 2 3 4 5 6 
#
# 1 0.010408 -0.001657 -0.003850 0.000000 0.000000 0.000000
# 2 -0.001657 0.010408 -0.003850 0.000000 0.000000 0.000000
# 3 -0.003850 -0.003850 0.012429 0.000000 0.000000 0.000000
# 4 0.000000 0.000000 0.000000 0.051365 0.000000 0.000000
# 5 0.000000 0.000000 0.000000 0.000000 0.051366 0.000000
# 6 0.000000 0.000000 0.000000 0.000000 0.000000 0.044997
#
#
# Mechanical properties :
#
#
# Convention : Reuss Voigt Hill
#
# Bulk Modulus (GPa) = 68.82419 68.82992 68.82706
# Shear Modulus (GPa) = 24.44603 26.64180 25.54391
#
# Velocity S-wave (km/s) = 3.58183 3.73923 3.66137
# Velocity P-wave (km/s) = 7.29558 7.40033 7.34814
#
# Compressibility (1/GPa) = 0.01452977
#
# Stress axis : x y z
#
# Youngs Moduli (GPa) = 96.07771 96.07711 80.45703
#
# Poissons Ratio (x) = 0.15924 0.30978
# Poissons Ratio (y) = 0.15924 0.30978
# Poissons Ratio (z) = 0.36992 0.36992
#
# Static dielectric constant tensor:
#      x y z
#    x 3.638980 0.000000 0.000000 
#    y 0.000000 3.638990 0.000000 
#    z 0.000000 0.000000 3.405790 
# 
# 
# High freq. dielectric constant tensor:
#      x y z
#    x 1.740400 0.000000 0.000000 
#    y 0.000000 1.740400 0.000000 
#    z 0.000000 0.000000 1.723830 
# 
# From -- ./inp_files/8766.got.cif
#   From: 2010.03.12/outbox.cif.g09.slc.cpg/sg119_5_cif.got.tgz:8766.got - 2010.04.14 02:25:26.
