data_PCOD8311553
_publ_section_title
;
Structure prediction by ZEFSAII (Michael W. Deem and Ramdas Pophale) SiO2 
 PCOD8311553
Probable space group: I -4 2 M
;
_chemical_formula_sum "Si O2"
_cell_formula_units_Z 112
_cell_length_a 13.775330
_cell_length_b 13.775330
_cell_length_c 32.052908
_cell_angle_alpha 90.000000
_cell_angle_beta 90.000000
_cell_angle_gamma 90.000000
_cell_volume 6082.350739
_symmetry_space_group_name_H-M "I -4 2 M"
_symmetry_group_IT_number 121
_symmetry_cell_setting 'tetragonal'
loop_
_space_group_symop_operation_xyz
x,y,z
y,-x,-z
-x,-y,z
-y,x,-z
x,-y,-z
-x,y,-z
-y,-x,z
y,x,z
1/2+x,1/2+y,1/2+z
1/2+y,1/2-x,1/2-z
1/2-x,1/2-y,1/2+z
1/2-y,1/2+x,1/2-z
1/2+x,1/2-y,1/2-z
1/2-x,1/2+y,1/2-z
1/2-y,1/2-x,1/2+z
1/2+y,1/2+x,1/2+z
loop_
_atom_site_type_symbol
_atom_site_label
_atom_site_fract_x
_atom_site_fract_y
_atom_site_fract_z
Si Si1 0.885488 0.392268 0.750509
Si Si2 0.299529 0.457875 0.546866
Si Si3 0.739766 0.105575 0.330651
Si Si4 0.781888 0.376630 0.167174
Si Si5 0.152722 0.696762 0.419718
Si Si6 0.713654 0.868226 0.911060
Si Si7 0.103776 0.522915 0.047518
O O1 0.871393 0.503635 0.737049
O O2 0.819866 0.365375 0.789826
O O3 0.852918 0.325887 0.712176
O O4 0.293378 0.500000 0.500000
O O5 0.401993 0.401993 0.553052
O O6 0.210379 0.386319 0.555635
O O7 0.289002 0.542550 0.581879
O O8 0.848368 0.151633 0.326931
O O9 0.683800 0.155232 0.369611
O O10 0.744726 0.989824 0.337454
O O11 0.682743 0.317258 0.161358
O O12 0.863850 0.341825 0.133591
O O13 0.198612 0.801389 0.431665
O O14 0.040784 0.691092 0.433300
O O15 0.768645 0.768645 0.917680
O O16 0.635401 0.872302 0.947817
O O17 0.000000 0.500000 0.069920
O O18 0.093512 0.500000 0.000000
#
# Coordination Sequence:
#
# PCOD8311553 Si02
#       7
#    16  16  16  16  16  16  16
#     4   9  19  33  56  87 114 142 179 229 286 342
#     4  11  23  39  59  84 114 151 193 235 287 355
#     4  10  20  36  58  83 112 148 189 237 286 336
#     4  10  21  37  56  82 114 149 189 233 283 342
#     4  10  21  36  56  83 111 144 189 235 283 336
#     4  11  23  37  56  82 114 151 186 230 288 343
#     4  11  21  35  56  80 107 143 187 234 280 326
#
# _framework density 18.413931999999999
#
# number of rings (size 3 to 8) (size 9 to 14) (size 15 to 20)
#    0.000    1.714    2.857    1.714    2.000    3.000 
#    0.000    0.000    0.000    0.429    0.000    3.000 
#    0.000    0.000    0.000    0.000    0.000    0.000 
#
# Total GULP energy -694089.744321 kJ/mol
# GULP energy per Si atom -12394.459720 kJ/mol
# Density = 1.837202 g / cm^3
# Si number density = 18.413932 Si / 1000 Ang^3
#
#
#
# Elastic Constant Matrix: (Units=GPa)
#
#
# Indices 1 2 3 4 5 6 
#
# 1 97.2487 55.8091 52.6279 0.0000 0.0000 0.0000
# 2 55.8091 97.2490 52.6277 0.0000 0.0000 0.0000
# 3 52.6279 52.6277 97.4252 0.0000 0.0000 0.0000
# 4 0.0000 0.0000 0.0000 26.7206 0.0000 0.0000
# 5 0.0000 0.0000 0.0000 0.0000 26.7205 0.0000
# 6 0.0000 0.0000 0.0000 0.0000 0.0000 23.9618
#
#
#
# Elastic Compliance Matrix: (Units=1/GPa)
#
#
# Indices 1 2 3 4 5 6 
#
# 1 0.017263 -0.006868 -0.005615 0.000000 0.000000 0.000000
# 2 -0.006868 0.017263 -0.005615 0.000000 0.000000 0.000000
# 3 -0.005615 -0.005615 0.016331 0.000000 0.000000 0.000000
# 4 0.000000 0.000000 0.000000 0.037424 0.000000 0.000000
# 5 0.000000 0.000000 0.000000 0.000000 0.037424 0.000000
# 6 0.000000 0.000000 0.000000 0.000000 0.000000 0.041733
#
#
# Mechanical properties :
#
#
# Convention : Reuss Voigt Hill
#
# Bulk Modulus (GPa) = 68.21343 68.22803 68.22073
# Shear Modulus (GPa) = 23.97816 24.20446 24.09131
#
# Velocity S-wave (km/s) = 3.61248 3.62949 3.62099
# Velocity P-wave (km/s) = 7.38410 7.39575 7.38993
#
# Compressibility (1/GPa) = 0.01465987
#
# Stress axis : x y z
#
# Youngs Moduli (GPa) = 57.92652 57.92689 61.23381
#
# Poissons Ratio (x) = 0.39785 0.34385
# Poissons Ratio (y) = 0.39785 0.34384
# Poissons Ratio (z) = 0.32527 0.32527
#
# Static dielectric constant tensor:
#      x y z
#    x 3.520910 0.000000 0.000000 
#    y 0.000000 3.520910 0.000000 
#    z 0.000000 0.000000 3.478540 
# 
# 
# High freq. dielectric constant tensor:
#      x y z
#    x 1.711250 0.000000 0.000000 
#    y 0.000000 1.711250 0.000000 
#    z 0.000000 0.000000 1.717850 
# 
# From -- ./inp_files/8425.got.cif
#   From: 2010.03.12/outbox.cif.g09.slc.cpg/sg121_5_cif.got.tgz:8425.got - 2010.04.06 16:06:48.
