data_PCOD8311617
_publ_section_title
;
Structure prediction by ZEFSAII (Michael W. Deem and Ramdas Pophale) SiO2 
 PCOD8311617
Probable space group: I -4 2 M
;
_chemical_formula_sum "Si O2"
_cell_formula_units_Z 64
_cell_length_a 11.246438
_cell_length_b 11.246438
_cell_length_c 22.325586
_cell_angle_alpha 90.000000
_cell_angle_beta 90.000000
_cell_angle_gamma 90.000000
_cell_volume 2823.792977
_symmetry_space_group_name_H-M "I -4 2 M"
_symmetry_group_IT_number 121
_symmetry_cell_setting 'tetragonal'
loop_
_space_group_symop_operation_xyz
x,y,z
y,-x,-z
-x,-y,z
-y,x,-z
x,-y,-z
-x,y,-z
-y,-x,z
y,x,z
1/2+x,1/2+y,1/2+z
1/2+y,1/2-x,1/2-z
1/2-x,1/2-y,1/2+z
1/2-y,1/2+x,1/2-z
1/2+x,1/2-y,1/2-z
1/2-x,1/2+y,1/2-z
1/2-y,1/2-x,1/2+z
1/2+y,1/2+x,1/2+z
loop_
_atom_site_type_symbol
_atom_site_label
_atom_site_fract_x
_atom_site_fract_y
_atom_site_fract_z
Si Si1 0.759011 0.947013 0.638241
Si Si2 0.504374 0.691953 0.731416
Si Si3 0.134978 0.515407 0.375968
Si Si4 0.305341 0.115275 0.457404
O O1 0.886622 0.886622 0.629201
O O2 0.735770 0.977600 0.707860
O O3 0.657334 0.856713 0.611913
O O4 0.759618 0.070849 0.602893
O O5 0.416975 0.583026 0.724732
O O6 0.639527 0.639527 0.731383
O O7 0.477542 0.776058 0.675670
O O8 0.158996 0.438025 0.436827
O O9 0.000000 0.500000 0.353078
O O10 0.224521 0.224521 0.483479
O O11 0.314603 0.000000 0.500000
#
# Coordination Sequence:
#
# PCOD8311617 Si02
#       4
#    16  16  16  16
#     4  10  22  37  59  91 128 170 217 267 322 387
#     4  10  21  38  61  91 131 177 221 266 323 392
#     4  10  23  37  59  89 127 167 214 267 326 387
#     4  11  24  42  65  91 124 168 218 271 331 391
#
# _framework density 22.664553000000002
#
# number of rings (size 3 to 8) (size 9 to 14) (size 15 to 20)
#    0.000    1.750    0.000    3.000    7.000    7.250 
#    0.000    0.000    0.000    0.000    0.000    0.000 
#    0.000   36.000    0.000    0.000    0.000    0.000 
#
# Total GULP energy -396481.276135 kJ/mol
# GULP energy per Si atom -12390.039879 kJ/mol
# Density = 2.261297 g / cm^3
# Si number density = 22.664553 Si / 1000 Ang^3
#
#
#
# Elastic Constant Matrix: (Units=GPa)
#
#
# Indices 1 2 3 4 5 6 
#
# 1 80.6651 26.8409 35.6613 0.0000 0.0000 0.0000
# 2 26.8409 80.6661 35.6616 0.0000 0.0000 0.0000
# 3 35.6613 35.6616 89.0103 0.0000 0.0000 0.0000
# 4 0.0000 0.0000 0.0000 40.5287 0.0000 0.0000
# 5 0.0000 0.0000 0.0000 0.0000 40.5278 0.0000
# 6 0.0000 0.0000 0.0000 0.0000 0.0000 27.2598
#
#
#
# Elastic Compliance Matrix: (Units=1/GPa)
#
#
# Indices 1 2 3 4 5 6 
#
# 1 0.015624 -0.002955 -0.005076 0.000000 0.000000 0.000000
# 2 -0.002955 0.015624 -0.005076 0.000000 0.000000 0.000000
# 3 -0.005076 -0.005076 0.015302 0.000000 0.000000 0.000000
# 4 0.000000 0.000000 0.000000 0.024674 0.000000 0.000000
# 5 0.000000 0.000000 0.000000 0.000000 0.024674 0.000000
# 6 0.000000 0.000000 0.000000 0.000000 0.000000 0.036684
#
#
# Mechanical properties :
#
#
# Convention : Reuss Voigt Hill
#
# Bulk Modulus (GPa) = 49.17165 49.62991 49.40078
# Shear Modulus (GPa) = 30.19792 31.80844 31.00318
#
# Velocity S-wave (km/s) = 3.65415 3.75032 3.70255
# Velocity P-wave (km/s) = 6.28858 6.37953 6.33421
#
# Compressibility (1/GPa) = 0.02033692
#
# Stress axis : x y z
#
# Youngs Moduli (GPa) = 64.00353 64.00431 65.35143
#
# Poissons Ratio (x) = 0.18912 0.33172
# Poissons Ratio (y) = 0.18912 0.33171
# Poissons Ratio (z) = 0.32487 0.32488
#
# Static dielectric constant tensor:
#      x y z
#    x 4.283730 0.000000 0.000000 
#    y 0.000000 4.283730 0.000000 
#    z 0.000000 0.000000 4.174060 
# 
# 
# High freq. dielectric constant tensor:
#      x y z
#    x 1.889900 0.000000 0.000000 
#    y 0.000000 1.889900 0.000000 
#    z 0.000000 0.000000 1.888160 
# 
# From -- ./inp_files/6011.got.cif
#   From: 2010.03.12/outbox.cif.g09.slc.cpg/sg121_4_cif.got.tgz:6011.got - 2010.04.06 16:06:48.
