data_PCOD8311233
_publ_section_title
;
Structure prediction by ZEFSAII (Michael W. Deem and Ramdas Pophale) SiO2 
 PCOD8311233
Probable space group: I -4 C 2
;
_chemical_formula_sum "Si O2"
_cell_formula_units_Z 64
_cell_length_a 19.157567
_cell_length_b 19.157567
_cell_length_c 9.561415
_cell_angle_alpha 90.000000
_cell_angle_beta 90.000000
_cell_angle_gamma 90.000000
_cell_volume 3509.157612
_symmetry_space_group_name_H-M "I -4 C 2"
_symmetry_group_IT_number 120
_symmetry_cell_setting 'tetragonal'
loop_
_space_group_symop_operation_xyz
x,y,z
y,-x,-z
-x,-y,z
-y,x,-z
y,x,1/2-z
-y,-x,1/2-z
-x,y,1/2+z
x,-y,1/2+z
1/2+x,1/2+y,1/2+z
1/2+y,1/2-x,1/2-z
1/2-x,1/2-y,1/2+z
1/2-y,1/2+x,1/2-z
1/2+y,1/2+x,-z
1/2-y,1/2-x,-z
1/2-x,1/2+y,z
1/2+x,1/2-y,z
loop_
_atom_site_type_symbol
_atom_site_label
_atom_site_fract_x
_atom_site_fract_y
_atom_site_fract_z
Si Si1 0.853724 0.243038 0.336926
Si Si2 0.794304 0.005742 0.279408
Si Si3 0.144621 0.758712 0.661986
Si Si4 0.515059 0.611558 0.971707
O O1 0.819839 0.180162 0.250000
O O2 0.933431 0.253551 0.286908
O O3 0.850865 0.221413 0.499001
O O4 0.813601 0.315371 0.307624
O O5 0.748337 0.935423 0.291027
O O6 0.821479 0.029908 0.431132
O O7 0.863212 0.992642 0.186743
O O8 0.178607 0.821394 0.750000
O O9 0.578066 0.557492 0.977976
#
# Coordination Sequence:
#
# PCOD8311233 Si02
#       4
#    16  16  16  16
#     4  10  22  39  59  83 112 148 193 239 281 332
#     4  12  22  35  56  81 110 154 186 228 280 332
#     4  10  22  39  59  83 112 148 193 239 281 332
#     4  11  22  34  50  78 116 151 186 218 264 335
#
# _framework density 18.237995999999999
#
# number of rings (size 3 to 8) (size 9 to 14) (size 15 to 20)
#    0.000    1.250    2.500    4.500    3.500    2.000 
#    0.000    0.000    0.000    0.750    0.000    3.500 
#    0.000    0.000    0.000    0.000    0.000    0.000 
#
# Total GULP energy -396945.019054 kJ/mol
# GULP energy per Si atom -12404.531845 kJ/mol
# Density = 1.819649 g / cm^3
# Si number density = 18.237996 Si / 1000 Ang^3
#
#
#
# Elastic Constant Matrix: (Units=GPa)
#
#
# Indices 1 2 3 4 5 6 
#
# 1 101.4546 49.1176 37.9732 0.0000 0.0000 0.0000
# 2 49.1176 101.4544 37.9734 0.0000 0.0000 0.0000
# 3 37.9732 37.9734 80.5656 0.0000 0.0000 0.0000
# 4 0.0000 0.0000 0.0000 29.2380 0.0000 0.0000
# 5 0.0000 0.0000 0.0000 0.0000 29.2380 0.0000
# 6 0.0000 0.0000 0.0000 0.0000 0.0000 24.9190
#
#
#
# Elastic Compliance Matrix: (Units=1/GPa)
#
#
# Indices 1 2 3 4 5 6 
#
# 1 0.013910 -0.005197 -0.004107 0.000000 0.000000 0.000000
# 2 -0.005197 0.013910 -0.004107 0.000000 0.000000 0.000000
# 3 -0.004107 -0.004107 0.016283 0.000000 0.000000 0.000000
# 4 0.000000 0.000000 0.000000 0.034202 0.000000 0.000000
# 5 0.000000 0.000000 0.000000 0.000000 0.034202 0.000000
# 6 0.000000 0.000000 0.000000 0.000000 0.000000 0.040130
#
#
# Mechanical properties :
#
#
# Convention : Reuss Voigt Hill
#
# Bulk Modulus (GPa) = 57.86236 59.28922 58.57579
# Shear Modulus (GPa) = 26.99514 27.23969 27.11742
#
# Velocity S-wave (km/s) = 3.85146 3.86886 3.86017
# Velocity P-wave (km/s) = 7.18147 7.24822 7.21492
#
# Compressibility (1/GPa) = 0.01728239
#
# Stress axis : x y z
#
# Youngs Moduli (GPa) = 71.89186 71.89155 61.41232
#
# Poissons Ratio (x) = 0.37363 0.25219
# Poissons Ratio (y) = 0.37363 0.25220
# Poissons Ratio (z) = 0.29523 0.29523
#
# Static dielectric constant tensor:
#      x y z
#    x 3.275560 0.000000 0.000000 
#    y 0.000000 3.275560 0.000000 
#    z 0.000000 0.000000 3.540740 
# 
# 
# High freq. dielectric constant tensor:
#      x y z
#    x 1.687310 0.000000 0.000000 
#    y 0.000000 1.687310 0.000000 
#    z 0.000000 0.000000 1.729860 
# 
# From -- ./inp_files/1245.got.cif
#   From: 2010.03.12/outbox.cif.g09.slc.cpg/sg120_1_cif.got.tgz:1245.got - 2010.04.06 16:00:44.
