data_PCOD8311712
_publ_section_title
;
Structure prediction by ZEFSAII (Michael W. Deem and Ramdas Pophale) SiO2 
 PCOD8311712
Probable space group: I -4 2 M
;
_chemical_formula_sum "Si O2"
_cell_formula_units_Z 22
_cell_length_a 6.976097
_cell_length_b 6.976097
_cell_length_c 21.485288
_cell_angle_alpha 90.000000
_cell_angle_beta 90.000000
_cell_angle_gamma 90.000000
_cell_volume 1045.601508
_symmetry_space_group_name_H-M "I -4 2 M"
_symmetry_group_IT_number 121
_symmetry_cell_setting 'tetragonal'
loop_
_space_group_symop_operation_xyz
x,y,z
y,-x,-z
-x,-y,z
-y,x,-z
x,-y,-z
-x,y,-z
-y,-x,z
y,x,z
1/2+x,1/2+y,1/2+z
1/2+y,1/2-x,1/2-z
1/2-x,1/2-y,1/2+z
1/2-y,1/2+x,1/2-z
1/2+x,1/2-y,1/2-z
1/2-x,1/2+y,1/2-z
1/2-y,1/2-x,1/2+z
1/2+y,1/2+x,1/2+z
loop_
_atom_site_type_symbol
_atom_site_label
_atom_site_fract_x
_atom_site_fract_y
_atom_site_fract_z
Si Si1 0.347852 0.347852 0.321864
Si Si2 0.000000 0.500000 0.750000
Si Si3 0.694692 0.694692 0.465827
Si Si4 0.000000 0.000000 0.500000
O O1 0.500000 0.500000 0.295219
O O2 0.393978 0.139405 0.296933
O O3 0.355794 0.355794 0.395782
O O4 0.768338 0.500000 0.500000
O O5 0.858854 0.858854 0.461887
#
# Coordination Sequence:
#
# PCOD8311712 Si02
#       4
#     8   4   8   2
#     4  12  26  47  70 103 144 180 237 282 343 412
#     4  12  28  44  74 104 136 192 228 286 340 408
#     4  11  26  47  71 100 146 183 223 287 352 406
#     4  12  28  40  68 116 128 180 236 272 358 412
#
# _framework density 21.040517999999999
#
# number of rings (size 3 to 8) (size 9 to 14) (size 15 to 20)
#    0.000    0.364    7.273    1.091   10.182    2.909 
#    0.000    0.000    0.000    0.000    0.000    0.000 
#    0.000    0.000    0.000    0.000    0.000    0.000 
#
# Total GULP energy -136371.662661 kJ/mol
# GULP energy per Si atom -12397.423878 kJ/mol
# Density = 2.099263 g / cm^3
# Si number density = 21.040518 Si / 1000 Ang^3
#
#
#
# Elastic Constant Matrix: (Units=GPa)
#
#
# Indices 1 2 3 4 5 6 
#
# 1 123.7139 83.5132 46.5972 0.0000 0.0000 0.0000
# 2 83.5132 123.7139 46.5972 0.0000 0.0000 0.0000
# 3 46.5972 46.5972 148.4256 0.0000 0.0000 0.0000
# 4 0.0000 0.0000 0.0000 19.4754 0.0000 0.0000
# 5 0.0000 0.0000 0.0000 0.0000 19.4754 0.0000
# 6 0.0000 0.0000 0.0000 0.0000 0.0000 64.0693
#
#
#
# Elastic Compliance Matrix: (Units=1/GPa)
#
#
# Indices 1 2 3 4 5 6 
#
# 1 0.015247 -0.009628 -0.001764 0.000000 0.000000 0.000000
# 2 -0.009628 0.015247 -0.001764 0.000000 0.000000 0.000000
# 3 -0.001764 -0.001764 0.007845 0.000000 0.000000 0.000000
# 4 0.000000 0.000000 0.000000 0.051347 0.000000 0.000000
# 5 0.000000 0.000000 0.000000 0.000000 0.051347 0.000000
# 6 0.000000 0.000000 0.000000 0.000000 0.000000 0.015608
#
#
# Mechanical properties :
#
#
# Convention : Reuss Voigt Hill
#
# Bulk Modulus (GPa) = 83.14789 83.25207 83.19998
# Shear Modulus (GPa) = 26.74337 35.21373 30.97855
#
# Velocity S-wave (km/s) = 3.56903 4.09542 3.84126
# Velocity P-wave (km/s) = 7.52249 7.87507 7.70080
#
# Compressibility (1/GPa) = 0.01202676
#
# Stress axis : x y z
#
# Youngs Moduli (GPa) = 65.58645 65.58644 127.46990
#
# Poissons Ratio (x) = 0.63147 0.22486
# Poissons Ratio (y) = 0.63147 0.22486
# Poissons Ratio (z) = 0.11570 0.11570
#
# Static dielectric constant tensor:
#      x y z
#    x 3.965680 0.000000 0.000000 
#    y 0.000000 3.965680 0.000000 
#    z 0.000000 0.000000 3.595430 
# 
# 
# High freq. dielectric constant tensor:
#      x y z
#    x 1.839840 0.000000 0.000000 
#    y 0.000000 1.839840 0.000000 
#    z 0.000000 0.000000 1.819920 
# 
# From -- ./inp_files/3625.got.cif
#   From: 2010.03.12/outbox.cif.g09.slc.cpg/sg121_2_cif.got.tgz:3625.got - 2010.04.06 16:06:48.
