data_PCOD8311305
_publ_section_title
;
Structure prediction by ZEFSAII (Michael W. Deem and Ramdas Pophale) SiO2 
 PCOD8311305
Probable space group: I -4 C 2
;
_chemical_formula_sum "Si O2"
_cell_formula_units_Z 112
_cell_length_a 15.117341
_cell_length_b 15.117341
_cell_length_c 26.979558
_cell_angle_alpha 90.000000
_cell_angle_beta 90.000000
_cell_angle_gamma 90.000000
_cell_volume 6165.746279
_symmetry_space_group_name_H-M "I -4 C 2"
_symmetry_group_IT_number 120
_symmetry_cell_setting 'tetragonal'
loop_
_space_group_symop_operation_xyz
x,y,z
y,-x,-z
-x,-y,z
-y,x,-z
y,x,1/2-z
-y,-x,1/2-z
-x,y,1/2+z
x,-y,1/2+z
1/2+x,1/2+y,1/2+z
1/2+y,1/2-x,1/2-z
1/2-x,1/2-y,1/2+z
1/2-y,1/2+x,1/2-z
1/2+y,1/2+x,-z
1/2-y,1/2-x,-z
1/2-x,1/2+y,z
1/2+x,1/2-y,z
loop_
_atom_site_type_symbol
_atom_site_label
_atom_site_fract_x
_atom_site_fract_y
_atom_site_fract_z
Si Si1 0.747427 0.486550 0.598292
Si Si2 0.500187 0.354105 0.305697
Si Si3 0.645494 0.500531 0.305664
Si Si4 0.326801 0.303110 0.940307
Si Si5 0.664734 0.681832 0.055325
Si Si6 0.571595 0.075756 0.056575
Si Si7 0.016820 0.240408 0.097625
O O1 0.728479 0.500829 0.656669
O O2 0.736623 0.577136 0.568840
O O3 0.678632 0.414758 0.578049
O O4 0.846311 0.453667 0.589666
O O5 0.584962 0.415184 0.315943
O O6 0.411781 0.411187 0.312889
O O7 0.503567 0.315509 0.249929
O O8 0.727016 0.504378 0.344085
O O9 0.253702 0.232412 0.921020
O O10 0.316116 0.395620 0.912585
O O11 0.315042 0.322271 0.997719
O O12 0.563400 0.706468 0.064183
O O13 0.529223 0.157788 0.084768
O O14 0.500000 0.000000 0.054649
O O15 0.600605 0.100605 0.000000
#
# Coordination Sequence:
#
# PCOD8311305 Si02
#       7
#    16  16  16  16  16  16  16
#     4  12  21  37  62  86 119 154 198 254 298 353
#     4   9  18  35  59  87 117 151 190 238 301 367
#     4   9  18  35  59  87 117 151 190 238 301 367
#     4  11  23  37  55  85 122 157 195 243 300 362
#     4  11  23  37  55  85 122 157 195 243 300 362
#     4  11  24  42  62  83 118 171 211 230 285 376
#     4  12  21  37  62  86 119 154 198 254 298 353
#
# _framework density 18.164874000000001
#
# number of rings (size 3 to 8) (size 9 to 14) (size 15 to 20)
#    0.000    1.286    4.286    4.286    0.000    2.857 
#    0.000    1.429    6.286    3.429    0.000    0.000 
#    0.000    0.000    0.000    0.000    0.000    0.000 
#
# Total GULP energy -694480.549152 kJ/mol
# GULP energy per Si atom -12401.438378 kJ/mol
# Density = 1.812353 g / cm^3
# Si number density = 18.164874 Si / 1000 Ang^3
#
#
#
# Elastic Constant Matrix: (Units=GPa)
#
#
# Indices 1 2 3 4 5 6 
#
# 1 86.1344 -10.9093 29.4571 0.0000 0.0000 0.0000
# 2 -10.9093 86.1344 29.4571 0.0000 0.0000 0.0000
# 3 29.4571 29.4571 118.3820 0.0000 0.0000 0.0000
# 4 0.0000 0.0000 0.0000 23.1694 0.0000 0.0000
# 5 0.0000 0.0000 0.0000 0.0000 23.1694 0.0000
# 6 0.0000 0.0000 0.0000 0.0000 0.0000 29.0819
#
#
#
# Elastic Compliance Matrix: (Units=1/GPa)
#
#
# Indices 1 2 3 4 5 6 
#
# 1 0.013408 0.003103 -0.004108 0.000000 0.000000 0.000000
# 2 0.003103 0.013408 -0.004108 0.000000 0.000000 0.000000
# 3 -0.004108 -0.004108 0.010492 0.000000 0.000000 0.000000
# 4 0.000000 0.000000 0.000000 0.043160 0.000000 0.000000
# 5 0.000000 0.000000 0.000000 0.000000 0.043160 0.000000
# 6 0.000000 0.000000 0.000000 0.000000 0.000000 0.034386
#
#
# Mechanical properties :
#
#
# Convention : Reuss Voigt Hill
#
# Bulk Modulus (GPa) = 36.92743 42.96229 39.94486
# Shear Modulus (GPa) = 28.20587 31.26053 29.73320
#
# Velocity S-wave (km/s) = 3.94479 4.15291 4.05019
# Velocity P-wave (km/s) = 6.41262 6.83361 6.62646
#
# Compressibility (1/GPa) = 0.02708014
#
# Stress axis : x y z
#
# Youngs Moduli (GPa) = 74.58315 74.58315 95.31204
#
# Poissons Ratio (x) = -0.23145 0.39159
# Poissons Ratio (y) = -0.23145 0.39159
# Poissons Ratio (z) = 0.30642 0.30642
#
# Static dielectric constant tensor:
#      x y z
#    x 3.366880 0.000000 0.000000 
#    y 0.000000 3.366880 0.000000 
#    z 0.000000 0.000000 3.299790 
# 
# 
# High freq. dielectric constant tensor:
#      x y z
#    x 1.702110 0.000000 0.000000 
#    y 0.000000 1.702110 0.000000 
#    z 0.000000 0.000000 1.701420 
# 
# From -- ./inp_files/6287.got.cif
#   From: 2010.03.12/outbox.cif.g09.slc.cpg/sg120_4_cif.got.tgz:6287.got - 2010.04.06 16:00:44.
