data_PCOD8311006
_publ_section_title
;
Structure prediction by ZEFSAII (Michael W. Deem and Ramdas Pophale) SiO2 
 PCOD8311006
Probable space group: I -4 M 2
;
_chemical_formula_sum "Si O2"
_cell_formula_units_Z 64
_cell_length_a 15.325468
_cell_length_b 15.325468
_cell_length_c 12.951986
_cell_angle_alpha 90.000000
_cell_angle_beta 90.000000
_cell_angle_gamma 90.000000
_cell_volume 3042.032556
_symmetry_space_group_name_H-M "I -4 M 2"
_symmetry_group_IT_number 119
_symmetry_cell_setting 'tetragonal'
loop_
_space_group_symop_operation_xyz
x,y,z
y,-x,-z
-x,-y,z
-y,x,-z
y,x,-z
-y,-x,-z
-x,y,z
x,-y,z
1/2+x,1/2+y,1/2+z
1/2+y,1/2-x,1/2-z
1/2-x,1/2-y,1/2+z
1/2-y,1/2+x,1/2-z
1/2+y,1/2+x,1/2-z
1/2-y,1/2-x,1/2-z
1/2-x,1/2+y,1/2+z
1/2+x,1/2-y,1/2+z
loop_
_atom_site_type_symbol
_atom_site_label
_atom_site_fract_x
_atom_site_fract_y
_atom_site_fract_z
Si Si1 0.596004 0.229653 0.802788
Si Si2 0.096004 0.229653 0.947212
Si Si3 0.183631 0.902697 0.283980
Si Si4 0.683630 0.902698 0.466020
O O1 0.500000 0.199607 0.764090
O O2 0.667942 0.167942 0.750000
O O3 0.608280 0.330835 0.773067
O O4 0.600199 0.232781 0.925697
O O5 0.100199 0.232782 0.824303
O O6 0.108279 0.330834 0.976934
O O7 0.000000 0.199605 0.985909
O O8 0.167942 0.167942 0.000000
O O9 0.250001 0.876339 0.375000
O O10 0.144780 0.000000 0.304501
O O11 0.644778 0.000000 0.445499
#
# Coordination Sequence:
#
# PCOD8311006 Si02
#       4
#    16  16  16  16
#     4  11  23  38  59  86 118 157 198 242 293 350
#     4  11  23  38  59  86 118 157 198 242 293 350
#     4  10  21  38  61  87 115 151 195 243 298 358
#     4  10  21  38  61  87 115 151 195 243 298 358
#
# _framework density 21.038564999999998
#
# number of rings (size 3 to 8) (size 9 to 14) (size 15 to 20)
#    0.000    1.500    0.000    6.000    0.000    5.500 
#    0.000    5.000    0.000    9.000    0.000    0.000 
#    0.000    0.000    0.000    0.000    0.000    0.000 
#
# Total GULP energy -396605.940706 kJ/mol
# GULP energy per Si atom -12393.935647 kJ/mol
# Density = 2.099068 g / cm^3
# Si number density = 21.038565 Si / 1000 Ang^3
#
#
#
# Elastic Constant Matrix: (Units=GPa)
#
#
# Indices 1 2 3 4 5 6 
#
# 1 140.2878 72.6016 35.9599 0.0000 0.0000 0.0000
# 2 72.6016 140.2878 35.9599 0.0000 0.0000 0.0000
# 3 35.9599 35.9599 79.1636 0.0000 0.0000 0.0000
# 4 0.0000 0.0000 0.0000 26.9533 0.0000 0.0000
# 5 0.0000 0.0000 0.0000 0.0000 26.9533 0.0000
# 6 0.0000 0.0000 0.0000 0.0000 0.0000 17.6244
#
#
#
# Elastic Compliance Matrix: (Units=1/GPa)
#
#
# Indices 1 2 3 4 5 6 
#
# 1 0.010161 -0.004613 -0.002521 0.000000 0.000000 0.000000
# 2 -0.004613 0.010161 -0.002521 0.000000 0.000000 0.000000
# 3 -0.002521 -0.002521 0.014922 0.000000 0.000000 0.000000
# 4 0.000000 0.000000 0.000000 0.037101 0.000000 0.000000
# 5 0.000000 0.000000 0.000000 0.000000 0.037101 0.000000
# 6 0.000000 0.000000 0.000000 0.000000 0.000000 0.056739
#
#
# Mechanical properties :
#
#
# Convention : Reuss Voigt Hill
#
# Bulk Modulus (GPa) = 62.74542 72.08691 67.41616
# Shear Modulus (GPa) = 26.20455 28.65404 27.42929
#
# Velocity S-wave (km/s) = 3.53306 3.69450 3.61468
# Velocity P-wave (km/s) = 6.82145 7.24829 7.03810
#
# Compressibility (1/GPa) = 0.01593742
#
# Stress axis : x y z
#
# Youngs Moduli (GPa) = 98.41139 98.41139 67.01533
#
# Poissons Ratio (x) = 0.45394 0.16891
# Poissons Ratio (y) = 0.45394 0.16891
# Poissons Ratio (z) = 0.24805 0.24805
#
# Static dielectric constant tensor:
#      x y z
#    x 3.857010 0.000000 0.000000 
#    y 0.000000 3.857010 0.000000 
#    z 0.000000 0.000000 4.000550 
# 
# 
# High freq. dielectric constant tensor:
#      x y z
#    x 1.816310 0.000000 0.000000 
#    y 0.000000 1.816310 0.000000 
#    z 0.000000 0.000000 1.844080 
# 
# From -- ./inp_files/5080.got.cif
#   From: 2010.03.12/outbox.cif.g09.slc.cpg/sg119_3_cif.got.tgz:5080.got - 2010.04.14 02:25:26.
