data_PCOD8311766
_publ_section_title
;
Structure prediction by ZEFSAII (Michael W. Deem and Ramdas Pophale) SiO2 
 PCOD8311766
Probable space group: I -4 2 D
;
_chemical_formula_sum "Si O2"
_cell_formula_units_Z 112
_cell_length_a 15.661268
_cell_length_b 15.661268
_cell_length_c 24.002235
_cell_angle_alpha 90.000000
_cell_angle_beta 90.000000
_cell_angle_gamma 90.000000
_cell_volume 5887.155759
_symmetry_space_group_name_H-M "I -4 2 D"
_symmetry_group_IT_number 122
_symmetry_cell_setting 'tetragonal'
loop_
_space_group_symop_operation_xyz
x,y,z
y,-x,-z
-x,-y,z
-y,x,-z
x,1/2-y,1/4-z
-x,1/2+y,1/4-z
-y,1/2-x,1/4+z
y,1/2+x,1/4+z
1/2+x,1/2+y,1/2+z
1/2+y,1/2-x,1/2-z
1/2-x,1/2-y,1/2+z
1/2-y,1/2+x,1/2-z
1/2+x,-y,3/4-z
1/2-x,y,3/4-z
1/2-y,-x,3/4+z
1/2+y,x,3/4+z
loop_
_atom_site_type_symbol
_atom_site_label
_atom_site_fract_x
_atom_site_fract_y
_atom_site_fract_z
Si Si1 0.725231 0.931997 0.051110
Si Si2 0.590591 0.038088 0.404555
Si Si3 0.910026 0.280597 0.564418
Si Si4 0.569600 0.202039 0.682011
Si Si5 0.475910 0.885899 0.220591
Si Si6 0.377828 0.243899 0.795079
Si Si7 0.620605 0.811695 0.676126
O O1 0.637000 0.895413 0.076786
O O2 0.808884 0.886146 0.077127
O O3 0.728337 0.030683 0.068414
O O4 0.731054 0.924242 0.983760
O O5 0.609363 0.025008 0.338682
O O6 0.500000 0.000000 0.419086
O O7 0.646884 0.980256 0.446507
O O8 0.933882 0.250000 0.625000
O O9 0.811616 0.308799 0.566432
O O10 0.928000 0.204140 0.520887
O O11 0.583650 0.250000 0.625000
O O12 0.646334 0.134888 0.685746
O O13 0.477620 0.153016 0.680254
O O14 0.402170 0.958357 0.227902
O O15 0.367218 0.249281 0.728942
O O16 0.634032 0.750000 0.625000
#
# Coordination Sequence:
#
# PCOD8311766 Si02
#       7
#    16  16  16  16  16  16  16
#     4  10  21  35  61  83 111 157 192 238 309 358
#     4  11  20  38  58  81 120 155 194 253 301 361
#     4  10  22  35  56  85 114 151 199 244 296 359
#     4   9  19  38  60  81 116 146 187 249 296 356
#     4  10  21  38  57  82 117 158 202 248 294 349
#     4  10  19  35  58  84 110 150 192 238 295 358
#     4   9  20  37  54  83 115 147 190 239 294 359
#
# _framework density 19.024467999999999
#
# number of rings (size 3 to 8) (size 9 to 14) (size 15 to 20)
#    0.000    2.143    2.857    0.429    0.000    5.714 
#    0.000    5.714    0.000    0.000    0.000    0.000 
#    0.000    0.000    0.000    0.000    0.000    0.000 
#
# Total GULP energy -693738.949137 kJ/mol
# GULP energy per Si atom -12388.195520 kJ/mol
# Density = 1.898117 g / cm^3
# Si number density = 19.024468 Si / 1000 Ang^3
#
#
#
# Elastic Constant Matrix: (Units=GPa)
#
#
# Indices 1 2 3 4 5 6 
#
# 1 127.6159 64.9134 29.7367 0.0000 0.0000 0.0000
# 2 64.9134 127.6159 29.7367 0.0000 0.0000 0.0000
# 3 29.7367 29.7367 73.3316 0.0000 0.0000 0.0000
# 4 0.0000 0.0000 0.0000 21.0888 0.0000 0.0000
# 5 0.0000 0.0000 0.0000 0.0000 21.0888 0.0000
# 6 0.0000 0.0000 0.0000 0.0000 0.0000 33.2514
#
#
#
# Elastic Compliance Matrix: (Units=1/GPa)
#
#
# Indices 1 2 3 4 5 6 
#
# 1 0.010943 -0.005005 -0.002408 0.000000 0.000000 0.000000
# 2 -0.005005 0.010943 -0.002408 0.000000 0.000000 0.000000
# 3 -0.002408 -0.002408 0.015589 0.000000 0.000000 0.000000
# 4 0.000000 0.000000 0.000000 0.047419 0.000000 0.000000
# 5 0.000000 0.000000 0.000000 0.000000 0.047419 0.000000
# 6 0.000000 0.000000 0.000000 0.000000 0.000000 0.030074
#
#
# Mechanical properties :
#
#
# Convention : Reuss Voigt Hill
#
# Bulk Modulus (GPa) = 56.07349 64.14858 60.11104
# Shear Modulus (GPa) = 26.59956 28.69757 27.64857
#
# Velocity S-wave (km/s) = 3.74328 3.88810 3.81637
# Velocity P-wave (km/s) = 6.94415 7.34497 7.14737
#
# Compressibility (1/GPa) = 0.01783374
#
# Stress axis : x y z
#
# Youngs Moduli (GPa) = 91.38204 91.38204 64.14577
#
# Poissons Ratio (x) = 0.45739 0.15445
# Poissons Ratio (y) = 0.45739 0.15445
# Poissons Ratio (z) = 0.22003 0.22003
#
# Static dielectric constant tensor:
#      x y z
#    x 3.723690 0.000000 0.000000 
#    y 0.000000 3.723690 0.000000 
#    z 0.000000 0.000000 3.483290 
# 
# 
# High freq. dielectric constant tensor:
#      x y z
#    x 1.740670 0.000000 0.000000 
#    y 0.000000 1.740670 0.000000 
#    z 0.000000 0.000000 1.728820 
# 
# From -- ./inp_files/8126.got.cif
#   From: 2010.03.12/outbox.cif.g09.slc.cpg/sg122_5_cif.got.tgz:8126.got - 2010.04.06 16:17:16.
