data_PCOD8311961
_publ_section_title
;
Structure prediction by ZEFSAII (Michael W. Deem and Ramdas Pophale) SiO2 
 PCOD8311961
Probable space group: I -4 2 D
;
_chemical_formula_sum "Si O2"
_cell_formula_units_Z 108
_cell_length_a 29.013117
_cell_length_b 29.013117
_cell_length_c 5.631659
_cell_angle_alpha 90.000000
_cell_angle_beta 90.000000
_cell_angle_gamma 90.000000
_cell_volume 4740.510675
_symmetry_space_group_name_H-M "I -4 2 D"
_symmetry_group_IT_number 122
_symmetry_cell_setting 'tetragonal'
loop_
_space_group_symop_operation_xyz
x,y,z
y,-x,-z
-x,-y,z
-y,x,-z
x,1/2-y,1/4-z
-x,1/2+y,1/4-z
-y,1/2-x,1/4+z
y,1/2+x,1/4+z
1/2+x,1/2+y,1/2+z
1/2+y,1/2-x,1/2-z
1/2-x,1/2-y,1/2+z
1/2-y,1/2+x,1/2-z
1/2+x,-y,3/4-z
1/2-x,y,3/4-z
1/2-y,-x,3/4+z
1/2+y,x,3/4+z
loop_
_atom_site_type_symbol
_atom_site_label
_atom_site_fract_x
_atom_site_fract_y
_atom_site_fract_z
Si Si1 0.944213 0.037881 0.615152
Si Si2 0.750000 0.839260 0.375000
Si Si3 0.195236 0.515799 0.868075
Si Si4 0.473039 0.696886 0.615231
Si Si5 0.663704 0.803137 0.610757
Si Si6 0.686219 0.872908 0.000226
Si Si7 0.356770 0.901254 0.202988
Si Si8 0.000000 0.000000 0.000000
O O1 0.898689 0.067434 0.628707
O O2 0.987517 0.064609 0.498923
O O3 0.959360 0.028016 0.879038
O O4 0.706050 0.807211 0.426966
O O5 0.734007 0.871185 0.153282
O O6 0.250000 0.513942 0.875000
O O7 0.176494 0.491716 0.620394
O O8 0.177860 0.568715 0.865319
O O9 0.175916 0.493843 0.117458
O O10 0.486246 0.750000 0.625000
O O11 0.418264 0.688641 0.588485
O O12 0.650304 0.750000 0.625000
O O13 0.617713 0.829302 0.525487
O O14 0.681072 0.825485 0.855036
O O15 0.641736 0.878362 0.162561
#
# Coordination Sequence:
#
# PCOD8311961 Si02
#       8
#    16   8  16  16  16  16  16   4
#     4   9  21  43  68 101 136 179 233 297 364 441
#     4  10  24  44  72 100 142 186 242 306 370 442
#     4  10  25  45  72 102 142 194 235 300 367 443
#     4  10  23  44  75 102 139 183 241 295 363 433
#     4  11  27  43  70 103 144 192 246 302 370 441
#     4  11  26  44  71 105 139 187 241 312 361 446
#     4  11  27  43  69 101 145 187 247 298 365 445
#     4   8  18  44  76  94 140 172 230 296 364 450
#
# _framework density 22.782356
#
# number of rings (size 3 to 8) (size 9 to 14) (size 15 to 20)
#    0.000    1.926    0.000    1.333   15.556    4.148 
#    0.000    0.000    0.000    0.000    0.000    0.000 
#    0.000    0.000    0.000    0.000    0.000    0.000 
#
# Total GULP energy -669198.089417 kJ/mol
# GULP energy per Si atom -12392.557211 kJ/mol
# Density = 2.273050 g / cm^3
# Si number density = 22.782356 Si / 1000 Ang^3
#
#
#
# Elastic Constant Matrix: (Units=GPa)
#
#
# Indices 1 2 3 4 5 6 
#
# 1 125.4737 50.5053 49.5424 0.0000 0.0000 0.0000
# 2 50.5053 125.4737 49.5424 0.0000 0.0000 0.0000
# 3 49.5424 49.5424 154.1098 0.0000 0.0000 0.0000
# 4 0.0000 0.0000 0.0000 11.5941 0.0000 0.0000
# 5 0.0000 0.0000 0.0000 0.0000 11.5941 0.0000
# 6 0.0000 0.0000 0.0000 0.0000 0.0000 35.4689
#
#
#
# Elastic Compliance Matrix: (Units=1/GPa)
#
#
# Indices 1 2 3 4 5 6 
#
# 1 0.010139 -0.003200 -0.002231 0.000000 0.000000 0.000000
# 2 -0.003200 0.010139 -0.002231 0.000000 0.000000 0.000000
# 3 -0.002231 -0.002231 0.007923 0.000000 0.000000 0.000000
# 4 0.000000 0.000000 0.000000 0.086251 0.000000 0.000000
# 5 0.000000 0.000000 0.000000 0.000000 0.086251 0.000000
# 6 0.000000 0.000000 0.000000 0.000000 0.000000 0.028194
#
#
# Mechanical properties :
#
#
# Convention : Reuss Voigt Hill
#
# Bulk Modulus (GPa) = 77.65361 78.24858 77.95109
# Shear Modulus (GPa) = 20.11983 28.76255 24.44119
#
# Velocity S-wave (km/s) = 2.97498 3.55701 3.27893
# Velocity P-wave (km/s) = 6.77935 7.16174 6.97317
#
# Compressibility (1/GPa) = 0.01287770
#
# Stress axis : x y z
#
# Youngs Moduli (GPa) = 98.63227 98.63227 126.21502
#
# Poissons Ratio (x) = 0.31565 0.28152
# Poissons Ratio (y) = 0.31565 0.28152
# Poissons Ratio (z) = 0.22000 0.22000
#
# Static dielectric constant tensor:
#      x y z
#    x 4.075880 0.000000 0.000000 
#    y 0.000000 4.075880 0.000000 
#    z 0.000000 0.000000 4.422190 
# 
# 
# High freq. dielectric constant tensor:
#      x y z
#    x 1.895870 0.000000 0.000000 
#    y 0.000000 1.895870 0.000000 
#    z 0.000000 0.000000 1.904780 
# 
# From -- ./inp_files/1557.got.cif
#   From: 2010.03.12/outbox.cif.g09.slc.cpg/sg122_1_cif.got.tgz:1557.got - 2010.04.06 16:17:16.
