data_PCOD8311361
_publ_section_title
;
Structure prediction by ZEFSAII (Michael W. Deem and Ramdas Pophale) SiO2 
 PCOD8311361
Probable space group: I -4 2 M
;
_chemical_formula_sum "Si O2"
_cell_formula_units_Z 112
_cell_length_a 16.107397
_cell_length_b 16.107397
_cell_length_c 24.417071
_cell_angle_alpha 90.000000
_cell_angle_beta 90.000000
_cell_angle_gamma 90.000000
_cell_volume 6334.966051
_symmetry_space_group_name_H-M "I -4 2 M"
_symmetry_group_IT_number 121
_symmetry_cell_setting 'tetragonal'
loop_
_space_group_symop_operation_xyz
x,y,z
y,-x,-z
-x,-y,z
-y,x,-z
x,-y,-z
-x,y,-z
-y,-x,z
y,x,z
1/2+x,1/2+y,1/2+z
1/2+y,1/2-x,1/2-z
1/2-x,1/2-y,1/2+z
1/2-y,1/2+x,1/2-z
1/2+x,1/2-y,1/2-z
1/2-x,1/2+y,1/2-z
1/2-y,1/2-x,1/2+z
1/2+y,1/2+x,1/2+z
loop_
_atom_site_type_symbol
_atom_site_label
_atom_site_fract_x
_atom_site_fract_y
_atom_site_fract_z
Si Si1 0.239852 0.105332 0.333352
Si Si2 0.092071 0.227640 0.015163
Si Si3 0.796255 0.338118 0.282746
Si Si4 0.284930 0.850103 0.097957
Si Si5 0.463765 0.773609 0.373598
Si Si6 0.933785 0.201059 0.296077
Si Si7 0.371345 0.501261 0.689953
O O1 0.151616 0.151616 0.332569
O O2 0.292280 0.126975 0.278726
O O3 0.294127 0.135859 0.385509
O O4 0.222185 0.006462 0.339837
O O5 0.148059 0.148059 0.028196
O O6 0.082577 0.287255 0.068421
O O7 0.133481 0.282995 0.967291
O O8 0.000000 0.195340 0.000000
O O9 0.710164 0.289837 0.297264
O O10 0.817126 0.412137 0.325227
O O11 0.872312 0.276574 0.288987
O O12 0.200220 0.799781 0.115648
O O13 0.297624 0.938765 0.127831
O O14 0.462540 0.674770 0.362031
O O15 0.883422 0.116579 0.311723
O O16 0.981407 0.192719 0.238567
O O17 0.414319 0.585682 0.669998
O O18 0.437536 0.437536 0.714281
#
# Coordination Sequence:
#
# PCOD8311361 Si02
#       7
#    16  16  16  16  16  16  16
#     4  10  19  33  53  73  98 135 175 212 259 316
#     4   9  18  30  46  70 100 136 177 215 250 297
#     4  10  20  31  46  71 100 133 168 207 256 301
#     4   9  19  34  51  72 101 139 176 211 253 300
#     4  11  18  30  49  71 102 137 175 211 246 297
#     4  10  20  33  48  70 103 133 167 216 263 311
#     4  10  18  27  43  69 100 134 169 205 251 303
#
# _framework density 17.679652000000001
#
# number of rings (size 3 to 8) (size 9 to 14) (size 15 to 20)
#    0.000    2.143    1.429    3.000    0.000    3.857 
#    0.000    0.714    0.000    0.857    0.000    3.000 
#    0.000    1.143    0.000   15.714    0.000    0.000 
#
# Total GULP energy -693899.186646 kJ/mol
# GULP energy per Si atom -12391.056904 kJ/mol
# Density = 1.763941 g / cm^3
# Si number density = 17.679652 Si / 1000 Ang^3
#
#
#
# Elastic Constant Matrix: (Units=GPa)
#
#
# Indices 1 2 3 4 5 6 
#
# 1 79.1508 31.4828 29.7661 0.0000 0.0000 0.0000
# 2 31.4828 79.1508 29.7663 0.0000 0.0000 0.0000
# 3 29.7661 29.7663 66.3197 0.0000 0.0000 0.0000
# 4 0.0000 0.0000 0.0000 23.9169 0.0000 0.0000
# 5 0.0000 0.0000 0.0000 0.0000 23.9174 0.0000
# 6 0.0000 0.0000 0.0000 0.0000 0.0000 26.0015
#
#
#
# Elastic Compliance Matrix: (Units=1/GPa)
#
#
# Indices 1 2 3 4 5 6 
#
# 1 0.016448 -0.004531 -0.005349 0.000000 0.000000 0.000000
# 2 -0.004531 0.016448 -0.005349 0.000000 0.000000 0.000000
# 3 -0.005349 -0.005349 0.019880 0.000000 0.000000 0.000000
# 4 0.000000 0.000000 0.000000 0.041812 0.000000 0.000000
# 5 0.000000 0.000000 0.000000 0.000000 0.041811 0.000000
# 6 0.000000 0.000000 0.000000 0.000000 0.000000 0.038459
#
#
# Mechanical properties :
#
#
# Convention : Reuss Voigt Hill
#
# Bulk Modulus (GPa) = 44.80487 45.18350 44.99419
# Shear Modulus (GPa) = 23.50148 23.67421 23.58784
#
# Velocity S-wave (km/s) = 3.64991 3.66329 3.65661
# Velocity P-wave (km/s) = 6.56963 6.59585 6.58275
#
# Compressibility (1/GPa) = 0.02231900
#
# Stress axis : x y z
#
# Youngs Moduli (GPa) = 60.79876 60.79869 50.30241
#
# Poissons Ratio (x) = 0.27546 0.26905
# Poissons Ratio (y) = 0.27546 0.26905
# Poissons Ratio (z) = 0.32519 0.32520
#
# Static dielectric constant tensor:
#      x y z
#    x 3.251790 0.000000 0.000000 
#    y 0.000000 3.251790 0.000000 
#    z 0.000000 0.000000 3.223040 
# 
# 
# High freq. dielectric constant tensor:
#      x y z
#    x 1.672810 0.000000 0.000000 
#    y 0.000000 1.672810 0.000000 
#    z 0.000000 0.000000 1.662060 
# 
# From -- ./inp_files/7212.got.cif
#   From: 2010.03.12/outbox.cif.g09.slc.cpg/sg121_4_cif.got.tgz:7212.got - 2010.04.06 16:06:48.
