data_PCOD8311901
_publ_section_title
;
Structure prediction by ZEFSAII (Michael W. Deem and Ramdas Pophale) SiO2 
 PCOD8311901
Probable space group: I -4 2 D
;
_chemical_formula_sum "Si O2"
_cell_formula_units_Z 64
_cell_length_a 18.299566
_cell_length_b 18.299566
_cell_length_c 9.670671
_cell_angle_alpha 90.000000
_cell_angle_beta 90.000000
_cell_angle_gamma 90.000000
_cell_volume 3238.457400
_symmetry_space_group_name_H-M "I -4 2 D"
_symmetry_group_IT_number 122
_symmetry_cell_setting 'tetragonal'
loop_
_space_group_symop_operation_xyz
x,y,z
y,-x,-z
-x,-y,z
-y,x,-z
x,1/2-y,1/4-z
-x,1/2+y,1/4-z
-y,1/2-x,1/4+z
y,1/2+x,1/4+z
1/2+x,1/2+y,1/2+z
1/2+y,1/2-x,1/2-z
1/2-x,1/2-y,1/2+z
1/2-y,1/2+x,1/2-z
1/2+x,-y,3/4-z
1/2-x,y,3/4-z
1/2-y,-x,3/4+z
1/2+y,x,3/4+z
loop_
_atom_site_type_symbol
_atom_site_label
_atom_site_fract_x
_atom_site_fract_y
_atom_site_fract_z
Si Si1 0.921172 0.536566 0.915952
Si Si2 0.330319 0.412093 0.359319
Si Si3 0.973543 0.667174 0.342565
Si Si4 0.000591 0.330907 0.848003
O O1 0.931171 0.624064 0.911518
O O2 0.860425 0.514646 0.804619
O O3 0.000000 0.500000 0.883649
O O4 0.893628 0.514355 0.066512
O O5 0.250000 0.376331 0.375000
O O6 0.332617 0.488949 0.442655
O O7 0.388490 0.354576 0.418696
O O8 0.344825 0.430364 0.198000
O O9 0.978764 0.746329 0.412632
#
# Coordination Sequence:
#
# PCOD8311901 Si02
#       4
#    16  16  16  16
#     4  12  20  37  63  86 113 153 203 243 289 349
#     4  10  22  38  58  88 120 155 199 247 292 353
#     4  11  23  37  61  87 120 157 198 245 300 344
#     4  11  21  37  58  89 120 150 199 250 290 349
#
# _framework density 19.762494
#
# number of rings (size 3 to 8) (size 9 to 14) (size 15 to 20)
#    0.000    1.000    5.000    2.250    0.000    0.000 
#    0.000    2.500    0.000   12.000    0.000    0.000 
#    0.000    0.000    0.000    0.000    0.000    0.000 
#
# Total GULP energy -396805.402255 kJ/mol
# GULP energy per Si atom -12400.168820 kJ/mol
# Density = 1.971751 g / cm^3
# Si number density = 19.762494 Si / 1000 Ang^3
#
#
#
# Elastic Constant Matrix: (Units=GPa)
#
#
# Indices 1 2 3 4 5 6 
#
# 1 86.2398 41.3447 4.8528 0.0000 0.0000 0.0000
# 2 41.3447 86.2398 4.8528 0.0000 0.0000 0.0000
# 3 4.8528 4.8528 63.2729 0.0000 0.0000 0.0000
# 4 0.0000 0.0000 0.0000 27.3846 0.0000 0.0000
# 5 0.0000 0.0000 0.0000 0.0000 27.3846 0.0000
# 6 0.0000 0.0000 0.0000 0.0000 0.0000 23.5523
#
#
#
# Elastic Compliance Matrix: (Units=1/GPa)
#
#
# Indices 1 2 3 4 5 6 
#
# 1 0.015079 -0.007195 -0.000605 0.000000 0.000000 0.000000
# 2 -0.007195 0.015079 -0.000605 0.000000 0.000000 0.000000
# 3 -0.000605 -0.000605 0.015897 0.000000 0.000000 0.000000
# 4 0.000000 0.000000 0.000000 0.036517 0.000000 0.000000
# 5 0.000000 0.000000 0.000000 0.000000 0.036517 0.000000
# 6 0.000000 0.000000 0.000000 0.000000 0.000000 0.042459
#
#
# Mechanical properties :
#
#
# Convention : Reuss Voigt Hill
#
# Bulk Modulus (GPa) = 34.19212 37.53923 35.86567
# Shear Modulus (GPa) = 26.58083 27.97779 27.27931
#
# Velocity S-wave (km/s) = 3.67142 3.76666 3.71935
# Velocity P-wave (km/s) = 5.94235 6.16063 6.05248
#
# Compressibility (1/GPa) = 0.02924651
#
# Stress axis : x y z
#
# Youngs Moduli (GPa) = 66.31714 66.31714 62.90379
#
# Poissons Ratio (x) = 0.47716 0.03804
# Poissons Ratio (y) = 0.47716 0.03804
# Poissons Ratio (z) = 0.04010 0.04010
#
# Static dielectric constant tensor:
#      x y z
#    x 3.614730 0.000000 0.000000 
#    y 0.000000 3.614730 0.000000 
#    z 0.000000 0.000000 3.593600 
# 
# 
# High freq. dielectric constant tensor:
#      x y z
#    x 1.759060 0.000000 0.000000 
#    y 0.000000 1.759060 0.000000 
#    z 0.000000 0.000000 1.784350 
# 
# From -- ./inp_files/2540.got.cif
#   From: 2010.03.12/outbox.cif.g09.slc.cpg/sg122_2_cif.got.tgz:2540.got - 2010.04.06 16:17:16.
