data_PCOD8311140
_publ_section_title
;
Structure prediction by ZEFSAII (Michael W. Deem and Ramdas Pophale) SiO2 
 PCOD8311140
Probable space group: I -4 C 2
;
_chemical_formula_sum "Si O2"
_cell_formula_units_Z 96
_cell_length_a 21.236131
_cell_length_b 21.236131
_cell_length_c 11.013585
_cell_angle_alpha 90.000000
_cell_angle_beta 90.000000
_cell_angle_gamma 90.000000
_cell_volume 4966.832330
_symmetry_space_group_name_H-M "I -4 C 2"
_symmetry_group_IT_number 120
_symmetry_cell_setting 'tetragonal'
loop_
_space_group_symop_operation_xyz
x,y,z
y,-x,-z
-x,-y,z
-y,x,-z
y,x,1/2-z
-y,-x,1/2-z
-x,y,1/2+z
x,-y,1/2+z
1/2+x,1/2+y,1/2+z
1/2+y,1/2-x,1/2-z
1/2-x,1/2-y,1/2+z
1/2-y,1/2+x,1/2-z
1/2+y,1/2+x,-z
1/2-y,1/2-x,-z
1/2-x,1/2+y,z
1/2+x,1/2-y,z
loop_
_atom_site_type_symbol
_atom_site_label
_atom_site_fract_x
_atom_site_fract_y
_atom_site_fract_z
Si Si1 0.252681 0.006495 0.197317
Si Si2 0.549022 0.265306 0.046018
Si Si3 0.639091 0.920097 0.793839
Si Si4 0.213908 0.648348 0.159909
Si Si5 0.044599 0.619127 0.592170
Si Si6 0.685651 0.736021 0.582326
O O1 0.307982 0.955401 0.214490
O O2 0.214982 0.013005 0.327103
O O3 0.280375 0.073369 0.158502
O O4 0.211676 0.984957 0.079077
O O5 0.555731 0.189551 0.044434
O O6 0.618923 0.294486 0.042481
O O7 0.667418 0.859431 0.866565
O O8 0.583819 0.889862 0.714502
O O9 0.608955 0.970188 0.886491
O O10 0.234432 0.678640 0.286219
O O11 0.262171 0.680841 0.065850
O O12 0.065814 0.565814 0.500000
O O13 0.704898 0.795103 0.500000
#
# Coordination Sequence:
#
# PCOD8311140 Si02
#       6
#    16  16  16  16  16  16
#     4  10  20  34  56  78 105 141 185 236 283 334
#     4  10  19  36  59  76 103 146 182 231 284 342
#     4  11  19  36  51  72 105 140 191 244 284 321
#     4  10  21  36  51  80 107 141 193 243 286 330
#     4  11  21  35  52  67  99 142 194 234 283 334
#     4  10  19  34  57  74 103 144 191 235 285 353
#
# _framework density 19.328213000000002
#
# number of rings (size 3 to 8) (size 9 to 14) (size 15 to 20)
#    0.000    1.667    6.667    1.500    0.000    3.000 
#    0.000    6.667    0.000    0.000    0.000    0.000 
#    0.000    0.667    0.000   20.000    0.000    7.167 
#
# Total GULP energy -594642.055165 kJ/mol
# GULP energy per Si atom -12388.376149 kJ/mol
# Density = 1.928422 g / cm^3
# Si number density = 19.328213 Si / 1000 Ang^3
#
#
#
# Elastic Constant Matrix: (Units=GPa)
#
#
# Indices 1 2 3 4 5 6 
#
# 1 64.8899 47.6835 25.2968 0.0000 0.0000 0.0000
# 2 47.6835 64.8889 25.2974 0.0000 0.0000 0.0000
# 3 25.2968 25.2974 100.1711 0.0000 0.0000 0.0000
# 4 0.0000 0.0000 0.0000 17.7608 0.0000 0.0000
# 5 0.0000 0.0000 0.0000 0.0000 17.7615 0.0000
# 6 0.0000 0.0000 0.0000 0.0000 0.0000 24.9843
#
#
#
# Elastic Compliance Matrix: (Units=1/GPa)
#
#
# Indices 1 2 3 4 5 6 
#
# 1 0.034070 -0.024050 -0.002530 0.000000 0.000000 0.000000
# 2 -0.024050 0.034070 -0.002531 0.000000 0.000000 0.000000
# 3 -0.002530 -0.002531 0.011261 0.000000 0.000000 0.000000
# 4 0.000000 0.000000 0.000000 0.056304 0.000000 0.000000
# 5 0.000000 0.000000 0.000000 0.000000 0.056301 0.000000
# 6 0.000000 0.000000 0.000000 0.000000 0.000000 0.040025
#
#
# Mechanical properties :
#
#
# Convention : Reuss Voigt Hill
#
# Bulk Modulus (GPa) = 47.21497 47.38950 47.30223
# Shear Modulus (GPa) = 16.81731 20.87946 18.84838
#
# Velocity S-wave (km/s) = 2.95293 3.29029 3.12617
# Velocity P-wave (km/s) = 6.00895 6.24550 6.12836
#
# Compressibility (1/GPa) = 0.02117973
#
# Stress axis : x y z
#
# Youngs Moduli (GPa) = 29.35165 29.35100 88.80167
#
# Poissons Ratio (x) = 0.70588 0.22469
# Poissons Ratio (y) = 0.70589 0.22474
# Poissons Ratio (z) = 0.07427 0.07428
#
# Static dielectric constant tensor:
#      x y z
#    x 3.526320 0.000000 0.000000 
#    y 0.000000 3.526320 0.000000 
#    z 0.000000 0.000000 3.920720 
# 
# 
# High freq. dielectric constant tensor:
#      x y z
#    x 1.718440 0.000000 0.000000 
#    y 0.000000 1.718440 0.000000 
#    z 0.000000 0.000000 1.765620 
# 
# From -- ./inp_files/2719.got.cif
#   From: 2010.03.12/outbox.cif.g09.slc.cpg/sg120_2_cif.got.tgz:2719.got - 2010.04.06 16:00:44.
