data_PCOD8311786
_publ_section_title
;
Structure prediction by ZEFSAII (Michael W. Deem and Ramdas Pophale) SiO2 
 PCOD8311786
Probable space group: I -4 2 D
;
_chemical_formula_sum "Si O2"
_cell_formula_units_Z 88
_cell_length_a 12.788426
_cell_length_b 12.788426
_cell_length_c 26.187646
_cell_angle_alpha 90.000000
_cell_angle_beta 90.000000
_cell_angle_gamma 90.000000
_cell_volume 4282.828176
_symmetry_space_group_name_H-M "I -4 2 D"
_symmetry_group_IT_number 122
_symmetry_cell_setting 'tetragonal'
loop_
_space_group_symop_operation_xyz
x,y,z
y,-x,-z
-x,-y,z
-y,x,-z
x,1/2-y,1/4-z
-x,1/2+y,1/4-z
-y,1/2-x,1/4+z
y,1/2+x,1/4+z
1/2+x,1/2+y,1/2+z
1/2+y,1/2-x,1/2-z
1/2-x,1/2-y,1/2+z
1/2-y,1/2+x,1/2-z
1/2+x,-y,3/4-z
1/2-x,y,3/4-z
1/2-y,-x,3/4+z
1/2+y,x,3/4+z
loop_
_atom_site_type_symbol
_atom_site_label
_atom_site_fract_x
_atom_site_fract_y
_atom_site_fract_z
Si Si1 0.926624 0.249240 0.976299
Si Si2 0.586740 0.283189 0.267858
Si Si3 0.570719 0.905678 0.425028
Si Si4 0.750000 0.799078 0.375000
Si Si5 0.732470 0.412526 0.434202
Si Si6 0.356858 0.251414 0.971139
O O1 0.838357 0.335153 0.987840
O O2 0.985698 0.223931 0.029668
O O3 0.874477 0.149991 0.947759
O O4 0.006179 0.300487 0.936577
O O5 0.556373 0.366517 0.224587
O O6 0.667057 0.339131 0.305854
O O7 0.478593 0.249497 0.295257
O O8 0.636937 0.177582 0.244567
O O9 0.650625 0.875002 0.380823
O O10 0.500000 0.000000 0.404562
O O11 0.721737 0.727616 0.326401
O O12 0.750000 0.445848 0.375000
#
# Coordination Sequence:
#
# PCOD8311786 Si02
#       6
#    16  16  16   8  16  16
#     4  10  22  42  65  87 132 164 215 275 321 408
#     4   9  20  38  61  87 121 160 208 250 321 389
#     4  10  19  41  61  83 124 167 196 256 322 371
#     4  10  24  36  58  96 120 148 216 258 310 376
#     4  10  23  41  63  97 125 172 221 273 339 402
#     4  10  20  40  61  87 121 163 198 263 315 384
#
# _framework density 20.547172
#
# number of rings (size 3 to 8) (size 9 to 14) (size 15 to 20)
#    0.000    2.182    1.818    1.091    3.818    0.727 
#    8.182    1.818    0.000    0.000    0.000    0.000 
#    0.000    0.000    0.000    0.000    0.000    0.000 
#
# Total GULP energy -545307.322312 kJ/mol
# GULP energy per Si atom -12393.348234 kJ/mol
# Density = 2.050041 g / cm^3
# Si number density = 20.547172 Si / 1000 Ang^3
#
#
#
# Elastic Constant Matrix: (Units=GPa)
#
#
# Indices 1 2 3 4 5 6 
#
# 1 112.8986 39.9367 22.2801 0.0000 0.0000 0.0000
# 2 39.9367 112.8986 22.2801 0.0000 0.0000 0.0000
# 3 22.2801 22.2801 71.0583 0.0000 0.0000 0.0000
# 4 0.0000 0.0000 0.0000 22.4370 0.0000 0.0000
# 5 0.0000 0.0000 0.0000 0.0000 22.4370 0.0000
# 6 0.0000 0.0000 0.0000 0.0000 0.0000 24.9897
#
#
#
# Elastic Compliance Matrix: (Units=1/GPa)
#
#
# Indices 1 2 3 4 5 6 
#
# 1 0.010454 -0.003252 -0.002258 0.000000 0.000000 0.000000
# 2 -0.003252 0.010454 -0.002258 0.000000 0.000000 0.000000
# 3 -0.002258 -0.002258 0.015489 0.000000 0.000000 0.000000
# 4 0.000000 0.000000 0.000000 0.044569 0.000000 0.000000
# 5 0.000000 0.000000 0.000000 0.000000 0.044569 0.000000
# 6 0.000000 0.000000 0.000000 0.000000 0.000000 0.040016
#
#
# Mechanical properties :
#
#
# Convention : Reuss Voigt Hill
#
# Bulk Modulus (GPa) = 47.93926 51.76104 49.85015
# Shear Modulus (GPa) = 26.59002 28.12998 27.36000
#
# Velocity S-wave (km/s) = 3.60126 3.70407 3.65303
# Velocity P-wave (km/s) = 6.37762 6.59845 6.48898
#
# Compressibility (1/GPa) = 0.02085973
#
# Stress axis : x y z
#
# Youngs Moduli (GPa) = 95.66134 95.66134 64.56235
#
# Poissons Ratio (x) = 0.31111 0.14578
# Poissons Ratio (y) = 0.31111 0.14578
# Poissons Ratio (z) = 0.21600 0.21600
#
# Static dielectric constant tensor:
#      x y z
#    x 3.672710 0.000000 0.000000 
#    y 0.000000 3.672710 0.000000 
#    z 0.000000 0.000000 3.548840 
# 
# 
# High freq. dielectric constant tensor:
#      x y z
#    x 1.803640 0.000000 0.000000 
#    y 0.000000 1.803640 0.000000 
#    z 0.000000 0.000000 1.786650 
# 
# From -- ./inp_files/9502.got.cif
#   From: 2010.03.12/outbox.cif.g09.slc.cpg/sg122_5_cif.got.tgz:9502.got - 2010.04.06 16:17:16.
