data_PCOD8311220
_publ_section_title
;
Structure prediction by ZEFSAII (Michael W. Deem and Ramdas Pophale) SiO2 
 PCOD8311220
Probable space group: I -4 C 2
;
_chemical_formula_sum "Si O2"
_cell_formula_units_Z 112
_cell_length_a 14.098194
_cell_length_b 14.098194
_cell_length_c 26.823742
_cell_angle_alpha 90.000000
_cell_angle_beta 90.000000
_cell_angle_gamma 90.000000
_cell_volume 5331.462123
_symmetry_space_group_name_H-M "I -4 C 2"
_symmetry_group_IT_number 120
_symmetry_cell_setting 'tetragonal'
loop_
_space_group_symop_operation_xyz
x,y,z
y,-x,-z
-x,-y,z
-y,x,-z
y,x,1/2-z
-y,-x,1/2-z
-x,y,1/2+z
x,-y,1/2+z
1/2+x,1/2+y,1/2+z
1/2+y,1/2-x,1/2-z
1/2-x,1/2-y,1/2+z
1/2-y,1/2+x,1/2-z
1/2+y,1/2+x,-z
1/2-y,1/2-x,-z
1/2-x,1/2+y,z
1/2+x,1/2-y,z
loop_
_atom_site_type_symbol
_atom_site_label
_atom_site_fract_x
_atom_site_fract_y
_atom_site_fract_z
Si Si1 0.130740 0.341429 0.771587
Si Si2 0.205446 0.486888 0.655853
Si Si3 0.793647 0.999009 0.391310
Si Si4 0.138058 0.940380 0.995180
Si Si5 0.038497 0.378193 0.673845
Si Si6 0.192594 0.208514 0.156337
Si Si7 0.298352 0.362582 0.093198
O O1 0.119799 0.335228 0.712065
O O2 0.107300 0.447202 0.791809
O O3 0.233544 0.308422 0.791574
O O4 0.052117 0.271708 0.796124
O O5 0.089572 0.473383 0.651759
O O6 0.247786 0.384384 0.663571
O O7 0.247166 0.539687 0.608151
O O8 0.795199 0.961609 0.447997
O O9 0.827790 0.913583 0.356061
O O10 0.686890 0.022658 0.374355
O O11 0.857065 0.093912 0.384942
O O12 0.194030 0.870700 0.033201
O O13 0.040369 0.888841 0.977937
O O14 0.235493 0.273062 0.111173
#
# Coordination Sequence:
#
# PCOD8311220 Si02
#       7
#    16  16  16  16  16  16  16
#     4  10  22  37  59  87 116 161 203 250 299 374
#     4  11  21  36  59  89 120 155 202 253 304 363
#     4  10  21  39  60  89 123 162 201 259 312 365
#     4   9  18  35  62  88 118 166 210 246 308 382
#     4  11  20  38  60  85 119 157 211 248 304 362
#     4  10  22  38  59  91 119 159 202 258 308 361
#     4  10  21  39  58  91 124 156 207 256 307 370
#
# _framework density 21.007369000000001
#
# number of rings (size 3 to 8) (size 9 to 14) (size 15 to 20)
#    0.000    1.857    2.857    1.286    0.000    2.857 
#    0.000    0.714    0.000    0.000    3.714    6.000 
#    0.000    0.000    0.000    0.000    0.000    0.000 
#
# Total GULP energy -693746.464960 kJ/mol
# GULP energy per Si atom -12388.329731 kJ/mol
# Density = 2.095956 g / cm^3
# Si number density = 21.007369 Si / 1000 Ang^3
#
#
#
# Elastic Constant Matrix: (Units=GPa)
#
#
# Indices 1 2 3 4 5 6 
#
# 1 70.7754 22.4569 20.5243 0.0000 0.0000 0.0000
# 2 22.4569 70.7754 20.5243 0.0000 0.0000 0.0000
# 3 20.5243 20.5243 88.3446 0.0000 0.0000 0.0000
# 4 0.0000 0.0000 0.0000 26.3382 0.0000 0.0000
# 5 0.0000 0.0000 0.0000 0.0000 26.3382 0.0000
# 6 0.0000 0.0000 0.0000 0.0000 0.0000 24.3165
#
#
#
# Elastic Compliance Matrix: (Units=1/GPa)
#
#
# Indices 1 2 3 4 5 6 
#
# 1 0.016322 -0.004374 -0.002776 0.000000 0.000000 0.000000
# 2 -0.004374 0.016322 -0.002776 0.000000 0.000000 0.000000
# 3 -0.002776 -0.002776 0.012609 0.000000 0.000000 0.000000
# 4 0.000000 0.000000 0.000000 0.037968 0.000000 0.000000
# 5 0.000000 0.000000 0.000000 0.000000 0.037968 0.000000
# 6 0.000000 0.000000 0.000000 0.000000 0.000000 0.041124
#
#
# Mechanical properties :
#
#
# Convention : Reuss Voigt Hill
#
# Bulk Modulus (GPa) = 39.36698 39.65626 39.51162
# Shear Modulus (GPa) = 26.22863 26.49122 26.35993
#
# Velocity S-wave (km/s) = 3.53731 3.55497 3.54615
# Velocity P-wave (km/s) = 5.95514 5.98069 5.96793
#
# Compressibility (1/GPa) = 0.02540200
#
# Stress axis : x y z
#
# Youngs Moduli (GPa) = 61.26691 61.26691 79.30810
#
# Poissons Ratio (x) = 0.26798 0.22014
# Poissons Ratio (y) = 0.26798 0.22014
# Poissons Ratio (z) = 0.17006 0.17006
#
# Static dielectric constant tensor:
#      x y z
#    x 3.967020 0.000000 0.000000 
#    y 0.000000 3.967020 0.000000 
#    z 0.000000 0.000000 3.648450 
# 
# 
# High freq. dielectric constant tensor:
#      x y z
#    x 1.826020 0.000000 0.000000 
#    y 0.000000 1.826020 0.000000 
#    z 0.000000 0.000000 1.802850 
# 
# From -- ./inp_files/6286.got.cif
#   From: 2010.03.12/outbox.cif.g09.slc.cpg/sg120_4_cif.got.tgz:6286.got - 2010.04.06 16:00:44.
