data_PCOD8311939
_publ_section_title
;
Structure prediction by ZEFSAII (Michael W. Deem and Ramdas Pophale) SiO2 
 PCOD8311939
Probable space group: I -4 2 D
;
_chemical_formula_sum "Si O2"
_cell_formula_units_Z 64
_cell_length_a 10.672937
_cell_length_b 10.672937
_cell_length_c 25.045442
_cell_angle_alpha 90.000000
_cell_angle_beta 90.000000
_cell_angle_gamma 90.000000
_cell_volume 2852.965975
_symmetry_space_group_name_H-M "I -4 2 D"
_symmetry_group_IT_number 122
_symmetry_cell_setting 'tetragonal'
loop_
_space_group_symop_operation_xyz
x,y,z
y,-x,-z
-x,-y,z
-y,x,-z
x,1/2-y,1/4-z
-x,1/2+y,1/4-z
-y,1/2-x,1/4+z
y,1/2+x,1/4+z
1/2+x,1/2+y,1/2+z
1/2+y,1/2-x,1/2-z
1/2-x,1/2-y,1/2+z
1/2-y,1/2+x,1/2-z
1/2+x,-y,3/4-z
1/2-x,y,3/4-z
1/2-y,-x,3/4+z
1/2+y,x,3/4+z
loop_
_atom_site_type_symbol
_atom_site_label
_atom_site_fract_x
_atom_site_fract_y
_atom_site_fract_z
Si Si1 0.750000 0.129275 0.875000
Si Si2 0.184819 0.451131 0.668322
Si Si3 0.121292 0.366264 0.229283
Si Si4 0.000000 0.000000 0.668263
Si Si5 0.730846 0.102589 0.483680
O O1 0.631727 0.212250 0.889843
O O2 0.696215 0.054556 0.823626
O O3 0.116740 0.526764 0.620966
O O4 0.251153 0.548118 0.707675
O O5 0.087617 0.358842 0.699589
O O6 0.150813 0.516014 0.224281
O O7 0.249307 0.293701 0.240848
O O8 0.973429 0.879832 0.705016
#
# Coordination Sequence:
#
# PCOD8311939 Si02
#       5
#     8  16  16   8  16
#     4  10  22  44  66  96 142 186 230 304 354 418
#     4  11  22  43  65  99 144 175 241 301 348 432
#     4  10  23  49  70 102 150 185 239 305 357 440
#     4  12  22  43  68 104 142 194 227 310 368 422
#     4  11  25  41  72 104 138 194 243 294 369 443
#
# _framework density 22.432794000000001
#
# number of rings (size 3 to 8) (size 9 to 14) (size 15 to 20)
#    0.000    1.250    5.000    1.500    7.000    0.000 
#    9.000    0.000    0.000    0.000    0.000    0.000 
#    0.000    0.000    0.000    0.000    0.000    0.000 
#
# Total GULP energy -396490.326470 kJ/mol
# GULP energy per Si atom -12390.322702 kJ/mol
# Density = 2.238174 g / cm^3
# Si number density = 22.432794 Si / 1000 Ang^3
#
#
#
# Elastic Constant Matrix: (Units=GPa)
#
#
# Indices 1 2 3 4 5 6 
#
# 1 81.7004 35.7313 50.4981 0.0000 0.0000 0.0000
# 2 35.7313 81.7003 50.4981 0.0000 0.0000 0.0000
# 3 50.4981 50.4981 119.8471 0.0000 0.0000 0.0000
# 4 0.0000 0.0000 0.0000 47.4883 0.0000 0.0000
# 5 0.0000 0.0000 0.0000 0.0000 47.4883 0.0000
# 6 0.0000 0.0000 0.0000 0.0000 0.0000 32.5761
#
#
#
# Elastic Compliance Matrix: (Units=1/GPa)
#
#
# Indices 1 2 3 4 5 6 
#
# 1 0.017555 -0.004199 -0.005627 0.000000 0.000000 0.000000
# 2 -0.004199 0.017555 -0.005627 0.000000 0.000000 0.000000
# 3 -0.005627 -0.005627 0.013086 0.000000 0.000000 0.000000
# 4 0.000000 0.000000 0.000000 0.021058 0.000000 0.000000
# 5 0.000000 0.000000 0.000000 0.000000 0.021058 0.000000
# 6 0.000000 0.000000 0.000000 0.000000 0.000000 0.030697
#
#
# Mechanical properties :
#
#
# Convention : Reuss Voigt Hill
#
# Bulk Modulus (GPa) = 57.84521 61.85588 59.85054
# Shear Modulus (GPa) = 31.71008 35.27853 33.49431
#
# Velocity S-wave (km/s) = 3.76381 3.96994 3.86825
# Velocity P-wave (km/s) = 6.68808 6.97479 6.83294
#
# Compressibility (1/GPa) = 0.01728752
#
# Stress axis : x y z
#
# Youngs Moduli (GPa) = 56.96529 56.96528 76.41657
#
# Poissons Ratio (x) = 0.23921 0.43002
# Poissons Ratio (y) = 0.23921 0.43002
# Poissons Ratio (z) = 0.32056 0.32056
#
# Static dielectric constant tensor:
#      x y z
#    x 4.018300 0.000000 0.000000 
#    y 0.000000 4.018300 0.000000 
#    z 0.000000 0.000000 4.450440 
# 
# 
# High freq. dielectric constant tensor:
#      x y z
#    x 1.877290 0.000000 0.000000 
#    y 0.000000 1.877290 0.000000 
#    z 0.000000 0.000000 1.891990 
# 
# From -- ./inp_files/7890.got.cif
#   From: 2010.03.12/outbox.cif.g09.slc.cpg/sg122_4_cif.got.tgz:7890.got - 2010.04.06 16:17:16.
