data_PCOD8311059
_publ_section_title
;
Structure prediction by ZEFSAII (Michael W. Deem and Ramdas Pophale) SiO2 
 PCOD8311059
Probable space group: I -4 M 2
;
_chemical_formula_sum "Si O2"
_cell_formula_units_Z 52
_cell_length_a 10.442145
_cell_length_b 10.442145
_cell_length_c 24.092987
_cell_angle_alpha 90.000000
_cell_angle_beta 90.000000
_cell_angle_gamma 90.000000
_cell_volume 2627.060566
_symmetry_space_group_name_H-M "I -4 M 2"
_symmetry_group_IT_number 119
_symmetry_cell_setting 'tetragonal'
loop_
_space_group_symop_operation_xyz
x,y,z
y,-x,-z
-x,-y,z
-y,x,-z
y,x,-z
-y,-x,-z
-x,y,z
x,-y,z
1/2+x,1/2+y,1/2+z
1/2+y,1/2-x,1/2-z
1/2-x,1/2-y,1/2+z
1/2-y,1/2+x,1/2-z
1/2+y,1/2+x,1/2-z
1/2-y,1/2-x,1/2-z
1/2-x,1/2+y,1/2+z
1/2+x,1/2-y,1/2+z
loop_
_atom_site_type_symbol
_atom_site_label
_atom_site_fract_x
_atom_site_fract_y
_atom_site_fract_z
Si Si1 0.746303 0.787603 0.874211
Si Si2 0.000000 0.500000 0.250000
Si Si3 0.646915 0.000000 0.083875
Si Si4 0.500000 0.500000 0.500000
Si Si5 0.000000 0.234737 0.315442
Si Si6 0.000000 0.726475 0.041846
Si Si7 0.641903 0.500000 0.301563
O O1 0.625962 0.704503 0.852796
O O2 0.869450 0.705629 0.892072
O O3 0.689984 0.871602 0.925177
O O4 0.785514 0.874930 0.822496
O O5 0.000000 0.621161 0.291101
O O6 0.500000 0.000000 0.100848
O O7 0.660955 0.000000 0.017601
O O8 0.500000 0.380306 0.540705
O O9 0.000000 0.135742 0.264809
O O10 0.500000 0.500000 0.326448
#
# Coordination Sequence:
#
# PCOD8311059 Si02
#       7
#    16   2   8   2   8   8   8
#     4  11  22  40  63  95 125 170 214 268 325 379
#     4  12  16  36  56 104 112 152 184 288 316 380
#     4  12  25  40  61  92 135 169 218 264 325 402
#     4  12  16  36  68  96 112 156 212 260 300 388
#     4  12  23  38  65  95 132 155 218 270 335 385
#     4  11  21  37  66  93 124 159 214 269 320 372
#     4  11  21  37  67  88 126 164 214 267 321 376
#
# _framework density 19.793986
#
# number of rings (size 3 to 8) (size 9 to 14) (size 15 to 20)
#    0.000    0.615    7.692    0.923    4.308    1.231 
#    0.000    0.000    0.000    0.000    0.000    0.000 
#    0.000    0.000    0.000    0.000    0.000    0.000 
#
# Total GULP energy -322360.037988 kJ/mol
# GULP energy per Si atom -12398.463000 kJ/mol
# Density = 1.974893 g / cm^3
# Si number density = 19.793986 Si / 1000 Ang^3
#
#
#
# Elastic Constant Matrix: (Units=GPa)
#
#
# Indices 1 2 3 4 5 6 
#
# 1 116.6453 20.7170 42.9649 0.0000 0.0000 0.0000
# 2 20.7170 116.6453 42.9649 0.0000 0.0000 0.0000
# 3 42.9649 42.9649 119.3267 0.0000 0.0000 0.0000
# 4 0.0000 0.0000 0.0000 18.4232 0.0000 0.0000
# 5 0.0000 0.0000 0.0000 0.0000 18.4232 0.0000
# 6 0.0000 0.0000 0.0000 0.0000 0.0000 14.3578
#
#
#
# Elastic Compliance Matrix: (Units=1/GPa)
#
#
# Indices 1 2 3 4 5 6 
#
# 1 0.009910 -0.000514 -0.003383 0.000000 0.000000 0.000000
# 2 -0.000514 0.009910 -0.003383 0.000000 0.000000 0.000000
# 3 -0.003383 -0.003383 0.010817 0.000000 0.000000 0.000000
# 4 0.000000 0.000000 0.000000 0.054279 0.000000 0.000000
# 5 0.000000 0.000000 0.000000 0.000000 0.054279 0.000000
# 6 0.000000 0.000000 0.000000 0.000000 0.000000 0.069648
#
#
# Mechanical properties :
#
#
# Convention : Reuss Voigt Hill
#
# Bulk Modulus (GPa) = 62.20252 62.87899 62.54076
# Shear Modulus (GPa) = 21.85647 26.63886 24.24767
#
# Velocity S-wave (km/s) = 3.32655 3.67250 3.50380
# Velocity P-wave (km/s) = 6.80057 7.05824 6.93060
#
# Compressibility (1/GPa) = 0.01607652
#
# Stress axis : x y z
#
# Youngs Moduli (GPa) = 100.90316 100.90316 92.44915
#
# Poissons Ratio (x) = 0.05186 0.31279
# Poissons Ratio (y) = 0.05186 0.31279
# Poissons Ratio (z) = 0.34139 0.34139
#
# Static dielectric constant tensor:
#      x y z
#    x 3.569020 0.000000 0.000000 
#    y 0.000000 3.569020 0.000000 
#    z 0.000000 0.000000 3.626210 
# 
# 
# High freq. dielectric constant tensor:
#      x y z
#    x 1.761460 0.000000 0.000000 
#    y 0.000000 1.761460 0.000000 
#    z 0.000000 0.000000 1.779470 
# 
# From -- ./inp_files/7367.got.cif
#   From: 2010.03.12/outbox.cif.g09.slc.cpg/sg119_4_cif.got.tgz:7367.got - 2010.04.14 02:25:26.
