data_PCOD8311384
_publ_section_title
;
Structure prediction by ZEFSAII (Michael W. Deem and Ramdas Pophale) SiO2 
 PCOD8311384
Probable space group: I -4 2 M
;
_chemical_formula_sum "Si O2"
_cell_formula_units_Z 80
_cell_length_a 29.403325
_cell_length_b 29.403325
_cell_length_c 5.315076
_cell_angle_alpha 90.000000
_cell_angle_beta 90.000000
_cell_angle_gamma 90.000000
_cell_volume 4595.178301
_symmetry_space_group_name_H-M "I -4 2 M"
_symmetry_group_IT_number 121
_symmetry_cell_setting 'tetragonal'
loop_
_space_group_symop_operation_xyz
x,y,z
y,-x,-z
-x,-y,z
-y,x,-z
x,-y,-z
-x,y,-z
-y,-x,z
y,x,z
1/2+x,1/2+y,1/2+z
1/2+y,1/2-x,1/2-z
1/2-x,1/2-y,1/2+z
1/2-y,1/2+x,1/2-z
1/2+x,1/2-y,1/2-z
1/2-x,1/2+y,1/2-z
1/2-y,1/2-x,1/2+z
1/2+y,1/2+x,1/2+z
loop_
_atom_site_type_symbol
_atom_site_label
_atom_site_fract_x
_atom_site_fract_y
_atom_site_fract_z
Si Si1 0.271067 0.195112 0.749940
Si Si2 0.200261 0.053875 0.250002
Si Si3 0.401523 0.474028 0.749997
Si Si4 0.513793 0.786835 0.250000
Si Si5 0.769663 0.903134 0.750001
O O1 0.236897 0.236897 0.749939
O O2 0.302487 0.197508 0.499930
O O3 0.242425 0.149316 0.749963
O O4 0.152813 0.028264 0.249975
O O5 0.239472 0.015344 0.249998
O O6 0.202333 0.085568 0.497564
O O7 0.202340 0.085577 0.002473
O O8 0.418106 0.500000 0.500000
O O9 0.423973 0.423973 0.750003
O O10 0.418102 0.500000 0.000000
O O11 0.500000 0.815033 0.500000
O O12 0.567298 0.776810 0.249998
O O13 0.500000 0.815033 0.000000
#
# Coordination Sequence:
#
# PCOD8311384 Si02
#       5
#    16  16  16  16  16
#     4  10  21  35  47  63  92 126 158 192 223 258
#     4  10  19  33  52  75  95 110 140 195 251 285
#     4  12  25  40  55  70  92 120 150 188 236 297
#     4   8  14  25  42  64  88 106 128 172 230 275
#     4  10  18  30  51  71  90 118 147 178 233 290
#
# _framework density 17.409552000000001
#
# number of rings (size 3 to 8) (size 9 to 14) (size 15 to 20)
#    0.000    2.000    0.000    6.600    0.000    2.800 
#    0.000    0.000    0.000    0.000    0.000    0.000 
#    0.000    0.000    0.000    0.000    0.000    0.000 
#
# Total GULP energy -495791.191347 kJ/mol
# GULP energy per Si atom -12394.779784 kJ/mol
# Density = 1.736993 g / cm^3
# Si number density = 17.409552 Si / 1000 Ang^3
#
#
#
# Elastic Constant Matrix: (Units=GPa)
#
#
# Indices 1 2 3 4 5 6 
#
# 1 35.8637 4.6333 19.2530 0.0000 0.0000 0.0000
# 2 4.6333 35.8637 19.2530 0.0000 0.0000 0.0000
# 3 19.2530 19.2530 187.8913 0.0000 0.0000 0.0000
# 4 0.0000 0.0000 0.0000 17.8601 0.0000 0.0000
# 5 0.0000 0.0000 0.0000 0.0000 17.8601 0.0000
# 6 0.0000 0.0000 0.0000 0.0000 0.0000 19.1296
#
#
#
# Elastic Compliance Matrix: (Units=1/GPa)
#
#
# Indices 1 2 3 4 5 6 
#
# 1 0.029689 -0.002331 -0.002803 0.000000 0.000000 0.000000
# 2 -0.002331 0.029689 -0.002803 0.000000 0.000000 0.000000
# 3 -0.002803 -0.002803 0.005897 0.000000 0.000000 0.000000
# 4 0.000000 0.000000 0.000000 0.055991 0.000000 0.000000
# 5 0.000000 0.000000 0.000000 0.000000 0.055991 0.000000
# 6 0.000000 0.000000 0.000000 0.000000 0.000000 0.052275
#
#
# Mechanical properties :
#
#
# Convention : Reuss Voigt Hill
#
# Bulk Modulus (GPa) = 20.24268 38.43303 29.33785
# Shear Modulus (GPa) = 19.09314 25.40191 22.24752
#
# Velocity S-wave (km/s) = 3.31525 3.82393 3.57864
# Velocity P-wave (km/s) = 5.12904 6.45139 5.82784
#
# Compressibility (1/GPa) = 0.04940058
#
# Stress axis : x y z
#
# Youngs Moduli (GPa) = 33.68202 33.68202 169.58493
#
# Poissons Ratio (x) = 0.07850 0.47542
# Poissons Ratio (y) = 0.07850 0.47542
# Poissons Ratio (z) = 0.09442 0.09442
#
# Static dielectric constant tensor:
#      x y z
#    x 2.805570 0.000000 0.000000 
#    y 0.000000 2.805570 0.000000 
#    z 0.000000 0.000000 4.601320 
# 
# 
# High freq. dielectric constant tensor:
#      x y z
#    x 1.624970 0.000000 0.000000 
#    y 0.000000 1.624970 0.000000 
#    z 0.000000 0.000000 1.719240 
# 
# From -- ./inp_files/584.got.cif
#   From: 2010.03.12/outbox.cif.g09.slc.cpg/sg121_1_cif.got.tgz:584.got - 2010.04.06 16:06:48.
