data_PCOD8311146
_publ_section_title
;
Structure prediction by ZEFSAII (Michael W. Deem and Ramdas Pophale) SiO2 
 PCOD8311146
Probable space group: I -4 C 2
;
_chemical_formula_sum "Si O2"
_cell_formula_units_Z 64
_cell_length_a 13.451775
_cell_length_b 13.451775
_cell_length_c 16.616495
_cell_angle_alpha 90.000000
_cell_angle_beta 90.000000
_cell_angle_gamma 90.000000
_cell_volume 3006.758935
_symmetry_space_group_name_H-M "I -4 C 2"
_symmetry_group_IT_number 120
_symmetry_cell_setting 'tetragonal'
loop_
_space_group_symop_operation_xyz
x,y,z
y,-x,-z
-x,-y,z
-y,x,-z
y,x,1/2-z
-y,-x,1/2-z
-x,y,1/2+z
x,-y,1/2+z
1/2+x,1/2+y,1/2+z
1/2+y,1/2-x,1/2-z
1/2-x,1/2-y,1/2+z
1/2-y,1/2+x,1/2-z
1/2+y,1/2+x,-z
1/2-y,1/2-x,-z
1/2-x,1/2+y,z
1/2+x,1/2-y,z
loop_
_atom_site_type_symbol
_atom_site_label
_atom_site_fract_x
_atom_site_fract_y
_atom_site_fract_z
Si Si1 0.859353 0.797099 0.837624
Si Si2 0.893791 0.680495 0.585240
Si Si3 0.225473 0.074486 0.162268
Si Si4 0.256669 0.096903 0.342409
O O1 0.847331 0.847331 0.750000
O O2 0.789808 0.846701 0.904967
O O3 0.839728 0.679971 0.828109
O O4 0.969487 0.807197 0.875131
O O5 0.869436 0.630565 0.500000
O O6 0.840361 0.606075 0.647741
O O7 0.011884 0.694780 0.601083
O O8 0.219002 0.054709 0.257578
O O9 0.152183 0.157523 0.123250
#
# Coordination Sequence:
#
# PCOD8311146 Si02
#       4
#    16  16  16  16
#     4  11  20  39  66  95 128 174 229 285 343 409
#     4  11  24  40  61  96 137 175 220 289 352 402
#     4  10  20  37  64  94 127 181 227 275 338 408
#     4  10  19  39  63  93 133 172 232 275 333 418
#
# _framework density 21.285377
#
# number of rings (size 3 to 8) (size 9 to 14) (size 15 to 20)
#    0.000    1.500    7.500    0.000    0.000    6.000 
#    0.000    3.750    0.000    6.000    0.000    0.000 
#    0.000    0.000    0.000    0.000    0.000    0.000 
#
# Total GULP energy -396425.368731 kJ/mol
# GULP energy per Si atom -12388.292773 kJ/mol
# Density = 2.123693 g / cm^3
# Si number density = 21.285377 Si / 1000 Ang^3
#
#
#
# Elastic Constant Matrix: (Units=GPa)
#
#
# Indices 1 2 3 4 5 6 
#
# 1 144.1574 36.4347 23.0143 0.0000 0.0000 0.0000
# 2 36.4347 144.1572 23.0143 0.0000 0.0000 0.0000
# 3 23.0143 23.0143 63.1412 0.0000 0.0000 0.0000
# 4 0.0000 0.0000 0.0000 23.1906 0.0000 0.0000
# 5 0.0000 0.0000 0.0000 0.0000 23.1909 0.0000
# 6 0.0000 0.0000 0.0000 0.0000 0.0000 17.2047
#
#
#
# Elastic Compliance Matrix: (Units=1/GPa)
#
#
# Indices 1 2 3 4 5 6 
#
# 1 0.007694 -0.001589 -0.002225 0.000000 0.000000 0.000000
# 2 -0.001589 0.007694 -0.002225 0.000000 0.000000 0.000000
# 3 -0.002225 -0.002225 0.017460 0.000000 0.000000 0.000000
# 4 0.000000 0.000000 0.000000 0.043121 0.000000 0.000000
# 5 0.000000 0.000000 0.000000 0.000000 0.043120 0.000000
# 6 0.000000 0.000000 0.000000 0.000000 0.000000 0.058124
#
#
# Mechanical properties :
#
#
# Convention : Reuss Voigt Hill
#
# Bulk Modulus (GPa) = 48.15015 57.37583 52.76299
# Shear Modulus (GPa) = 25.48244 30.65007 28.06625
#
# Velocity S-wave (km/s) = 3.46378 3.79880 3.63515
# Velocity P-wave (km/s) = 6.21831 6.80111 6.51623
#
# Compressibility (1/GPa) = 0.02076837
#
# Stress axis : x y z
#
# Youngs Moduli (GPa) = 129.97532 129.97512 57.27536
#
# Poissons Ratio (x) = 0.20657 0.12744
# Poissons Ratio (y) = 0.20657 0.12744
# Poissons Ratio (z) = 0.28920 0.28920
#
# Static dielectric constant tensor:
#      x y z
#    x 3.917840 0.000000 0.000000 
#    y 0.000000 3.917840 0.000000 
#    z 0.000000 0.000000 3.520770 
# 
# 
# High freq. dielectric constant tensor:
#      x y z
#    x 1.835850 0.000000 0.000000 
#    y 0.000000 1.835850 0.000000 
#    z 0.000000 0.000000 1.798690 
# 
# From -- ./inp_files/4146.got.cif
#   From: 2010.03.12/outbox.cif.g09.slc.cpg/sg120_3_cif.got.tgz:4146.got - 2010.04.06 16:00:44.
