data_PCOD8311656
_publ_section_title
;
Structure prediction by ZEFSAII (Michael W. Deem and Ramdas Pophale) SiO2 
 PCOD8311656
Probable space group: I -4 2 M
;
_chemical_formula_sum "Si O2"
_cell_formula_units_Z 112
_cell_length_a 15.584493
_cell_length_b 15.584493
_cell_length_c 23.610978
_cell_angle_alpha 90.000000
_cell_angle_beta 90.000000
_cell_angle_gamma 90.000000
_cell_volume 5734.549858
_symmetry_space_group_name_H-M "I -4 2 M"
_symmetry_group_IT_number 121
_symmetry_cell_setting 'tetragonal'
loop_
_space_group_symop_operation_xyz
x,y,z
y,-x,-z
-x,-y,z
-y,x,-z
x,-y,-z
-x,y,-z
-y,-x,z
y,x,z
1/2+x,1/2+y,1/2+z
1/2+y,1/2-x,1/2-z
1/2-x,1/2-y,1/2+z
1/2-y,1/2+x,1/2-z
1/2+x,1/2-y,1/2-z
1/2-x,1/2+y,1/2-z
1/2-y,1/2-x,1/2+z
1/2+y,1/2+x,1/2+z
loop_
_atom_site_type_symbol
_atom_site_label
_atom_site_fract_x
_atom_site_fract_y
_atom_site_fract_z
Si Si1 0.138832 0.999868 0.833950
Si Si2 0.620002 0.114287 0.613843
Si Si3 0.234595 0.094349 0.474473
Si Si4 0.111639 0.561725 0.833700
Si Si5 0.312710 0.176669 0.581227
Si Si6 0.315678 0.033111 0.789590
Si Si7 0.253092 0.002898 0.063524
O O1 0.093500 0.906501 0.833746
O O2 0.175306 0.025337 0.895843
O O3 0.217254 0.001494 0.789046
O O4 0.071151 0.071151 0.815028
O O5 0.713563 0.098154 0.585376
O O6 0.621001 0.171820 0.672642
O O7 0.557803 0.162732 0.569231
O O8 0.580370 0.022963 0.633255
O O9 0.144204 0.144204 0.466660
O O10 0.295517 0.141654 0.518809
O O11 0.215252 0.000000 0.500000
O O12 0.186195 0.602129 0.872113
O O13 0.152085 0.538285 0.773602
O O14 0.034302 0.627606 0.825398
O O15 0.239026 0.239026 0.602423
O O16 0.401349 0.225860 0.581048
O O17 0.218298 0.000000 0.000000
#
# Coordination Sequence:
#
# PCOD8311656 Si02
#       7
#    16  16  16  16  16  16  16
#     4  10  23  43  62  83 118 165 213 253 299 365
#     4  11  22  37  59  94 128 157 195 249 312 364
#     4  11  24  42  64  91 125 163 207 259 310 369
#     4  12  22  38  63  93 125 161 203 254 313 377
#     4  11  23  38  61  90 123 159 205 254 303 368
#     4  11  24  37  64  94 125 161 203 259 313 374
#     4  11  22  36  60  93 126 161 195 248 303 374
#
# _framework density 19.530737999999999
#
# number of rings (size 3 to 8) (size 9 to 14) (size 15 to 20)
#    0.000    1.000    7.143    0.857    0.000    4.143 
#    0.000    2.857    0.000    0.000    0.000    0.000 
#    0.000    0.000    0.000    0.000    0.000    0.000 
#
# Total GULP energy -693988.319414 kJ/mol
# GULP energy per Si atom -12392.648561 kJ/mol
# Density = 1.948629 g / cm^3
# Si number density = 19.530738 Si / 1000 Ang^3
#
#
#
# Elastic Constant Matrix: (Units=GPa)
#
#
# Indices 1 2 3 4 5 6 
#
# 1 102.6207 43.2224 21.1560 0.0000 0.0000 0.0000
# 2 43.2224 102.6218 21.1560 0.0000 0.0000 0.0000
# 3 21.1560 21.1560 66.5475 0.0000 0.0000 0.0000
# 4 0.0000 0.0000 0.0000 19.6653 0.0000 0.0000
# 5 0.0000 0.0000 0.0000 0.0000 19.6652 0.0000
# 6 0.0000 0.0000 0.0000 0.0000 0.0000 26.6909
#
#
#
# Elastic Compliance Matrix: (Units=1/GPa)
#
#
# Indices 1 2 3 4 5 6 
#
# 1 0.012194 -0.004641 -0.002401 0.000000 0.000000 0.000000
# 2 -0.004641 0.012194 -0.002401 0.000000 0.000000 0.000000
# 3 -0.002401 -0.002401 0.016554 0.000000 0.000000 0.000000
# 4 0.000000 0.000000 0.000000 0.050851 0.000000 0.000000
# 5 0.000000 0.000000 0.000000 0.000000 0.050851 0.000000
# 6 0.000000 0.000000 0.000000 0.000000 0.000000 0.037466
#
#
# Mechanical properties :
#
#
# Convention : Reuss Voigt Hill
#
# Bulk Modulus (GPa) = 45.34078 49.20654 47.27366
# Shear Modulus (GPa) = 24.23077 25.62133 24.92605
#
# Velocity S-wave (km/s) = 3.52610 3.62587 3.57634
# Velocity P-wave (km/s) = 6.31216 6.54052 6.42735
#
# Compressibility (1/GPa) = 0.02205520
#
# Stress axis : x y z
#
# Youngs Moduli (GPa) = 82.00492 82.00582 60.40977
#
# Poissons Ratio (x) = 0.38059 0.14506
# Poissons Ratio (y) = 0.38059 0.14506
# Poissons Ratio (z) = 0.19692 0.19692
#
# Static dielectric constant tensor:
#      x y z
#    x 3.573290 0.000000 0.000000 
#    y 0.000000 3.573290 0.000000 
#    z 0.000000 0.000000 3.788350 
# 
# 
# High freq. dielectric constant tensor:
#      x y z
#    x 1.753920 0.000000 0.000000 
#    y 0.000000 1.753920 0.000000 
#    z 0.000000 0.000000 1.760230 
# 
# From -- ./inp_files/7177.got.cif
#   From: 2010.03.12/outbox.cif.g09.slc.cpg/sg121_4_cif.got.tgz:7177.got - 2010.04.06 16:06:48.
