data_PCOD8311540
_publ_section_title
;
Structure prediction by ZEFSAII (Michael W. Deem and Ramdas Pophale) SiO2 
 PCOD8311540
Probable space group: I -4 2 M
;
_chemical_formula_sum "Si O2"
_cell_formula_units_Z 56
_cell_length_a 12.541977
_cell_length_b 12.541977
_cell_length_c 17.407985
_cell_angle_alpha 90.000000
_cell_angle_beta 90.000000
_cell_angle_gamma 90.000000
_cell_volume 2738.296705
_symmetry_space_group_name_H-M "I -4 2 M"
_symmetry_group_IT_number 121
_symmetry_cell_setting 'tetragonal'
loop_
_space_group_symop_operation_xyz
x,y,z
y,-x,-z
-x,-y,z
-y,x,-z
x,-y,-z
-x,y,-z
-y,-x,z
y,x,z
1/2+x,1/2+y,1/2+z
1/2+y,1/2-x,1/2-z
1/2-x,1/2-y,1/2+z
1/2-y,1/2+x,1/2-z
1/2+x,1/2-y,1/2-z
1/2-x,1/2+y,1/2-z
1/2-y,1/2-x,1/2+z
1/2+y,1/2+x,1/2+z
loop_
_atom_site_type_symbol
_atom_site_label
_atom_site_fract_x
_atom_site_fract_y
_atom_site_fract_z
Si Si1 0.058683 0.763186 0.335646
Si Si2 0.672286 0.500000 0.000000
Si Si3 0.397621 0.774603 0.288951
Si Si4 0.992744 0.172999 0.083388
O O1 0.129952 0.870049 0.318656
O O2 0.036278 0.755540 0.427238
O O3 0.109615 0.655387 0.299319
O O4 0.944181 0.761569 0.293403
O O5 0.598137 0.401864 0.027359
O O6 0.304376 0.695625 0.312923
O O7 0.490922 0.762825 0.352290
O O8 0.078475 0.078475 0.087377
O O9 0.875569 0.124432 0.097643
O O10 0.000000 0.228528 0.000000
#
# Coordination Sequence:
#
# PCOD8311540 Si02
#       4
#    16   8  16  16
#     4  10  21  37  58  85 114 150 192 235 287 339
#     4   9  18  36  62  87 112 146 194 247 288 331
#     4  10  20  35  55  81 113 147 186 233 280 334
#     4   8  14  27  49  76 104 135 174 222 275 327
#
# _framework density 20.450669999999999
#
# number of rings (size 3 to 8) (size 9 to 14) (size 15 to 20)
#    0.000    2.714    0.000    2.571    0.000    3.429 
#    5.143    0.000    0.000    0.000    0.000    0.000 
#    0.000    0.000    0.000    0.000    0.000    0.000 
#
# Total GULP energy -346877.735238 kJ/mol
# GULP energy per Si atom -12388.490544 kJ/mol
# Density = 2.040412 g / cm^3
# Si number density = 20.450670 Si / 1000 Ang^3
#
#
#
# Elastic Constant Matrix: (Units=GPa)
#
#
# Indices 1 2 3 4 5 6 
#
# 1 48.2891 18.1566 28.2543 0.0000 0.0000 0.0000
# 2 18.1566 48.2882 28.2537 0.0000 0.0000 0.0000
# 3 28.2543 28.2537 120.3095 0.0000 0.0000 0.0000
# 4 0.0000 0.0000 0.0000 19.7136 0.0000 0.0000
# 5 0.0000 0.0000 0.0000 0.0000 19.7137 0.0000
# 6 0.0000 0.0000 0.0000 0.0000 0.0000 22.1031
#
#
#
# Elastic Compliance Matrix: (Units=1/GPa)
#
#
# Indices 1 2 3 4 5 6 
#
# 1 0.025996 -0.007191 -0.004417 0.000000 0.000000 0.000000
# 2 -0.007191 0.025997 -0.004416 0.000000 0.000000 0.000000
# 3 -0.004417 -0.004416 0.010386 0.000000 0.000000 0.000000
# 4 0.000000 0.000000 0.000000 0.050727 0.000000 0.000000
# 5 0.000000 0.000000 0.000000 0.000000 0.050726 0.000000
# 6 0.000000 0.000000 0.000000 0.000000 0.000000 0.045243
#
#
# Mechanical properties :
#
#
# Convention : Reuss Voigt Hill
#
# Bulk Modulus (GPa) = 32.96814 40.69064 36.82939
# Shear Modulus (GPa) = 19.90188 21.78755 20.84471
#
# Velocity S-wave (km/s) = 3.12294 3.26754 3.19606
# Velocity P-wave (km/s) = 5.39995 5.84602 5.62741
#
# Compressibility (1/GPa) = 0.03033231
#
# Stress axis : x y z
#
# Youngs Moduli (GPa) = 38.46685 38.46628 96.28098
#
# Poissons Ratio (x) = 0.27660 0.42523
# Poissons Ratio (y) = 0.27660 0.42522
# Poissons Ratio (z) = 0.16989 0.16988
#
# Static dielectric constant tensor:
#      x y z
#    x 3.585800 0.000000 0.000000 
#    y 0.000000 3.585800 0.000000 
#    z 0.000000 0.000000 3.778510 
# 
# 
# High freq. dielectric constant tensor:
#      x y z
#    x 1.769490 0.000000 0.000000 
#    y 0.000000 1.769490 0.000000 
#    z 0.000000 0.000000 1.807820 
# 
# From -- ./inp_files/3947.got.cif
#   From: 2010.03.12/outbox.cif.g09.slc.cpg/sg121_2_cif.got.tgz:3947.got - 2010.04.06 16:06:48.
