data_PCOD8311096
_publ_section_title
;
Structure prediction by ZEFSAII (Michael W. Deem and Ramdas Pophale) SiO2 
 PCOD8311096
Probable space group: I -4 M 2
;
_chemical_formula_sum "Si O2"
_cell_formula_units_Z 96
_cell_length_a 25.059520
_cell_length_b 25.059520
_cell_length_c 7.842303
_cell_angle_alpha 90.000000
_cell_angle_beta 90.000000
_cell_angle_gamma 90.000000
_cell_volume 4924.805851
_symmetry_space_group_name_H-M "I -4 M 2"
_symmetry_group_IT_number 119
_symmetry_cell_setting 'tetragonal'
loop_
_space_group_symop_operation_xyz
x,y,z
y,-x,-z
-x,-y,z
-y,x,-z
y,x,-z
-y,-x,-z
-x,y,z
x,-y,z
1/2+x,1/2+y,1/2+z
1/2+y,1/2-x,1/2-z
1/2-x,1/2-y,1/2+z
1/2-y,1/2+x,1/2-z
1/2+y,1/2+x,1/2-z
1/2-y,1/2-x,1/2-z
1/2-x,1/2+y,1/2+z
1/2+x,1/2-y,1/2+z
loop_
_atom_site_type_symbol
_atom_site_label
_atom_site_fract_x
_atom_site_fract_y
_atom_site_fract_z
Si Si1 0.758377 0.936807 0.084205
Si Si2 0.060298 0.643948 0.036212
Si Si3 0.435904 0.329657 0.721312
Si Si4 0.436701 0.261920 0.038134
Si Si5 0.146771 0.439750 0.059781
Si Si6 0.061182 0.057155 0.299933
O O1 0.697850 0.917419 0.051392
O O2 0.797849 0.912853 0.940957
O O3 0.758384 0.000000 0.065231
O O4 0.779339 0.918869 0.271075
O O5 0.098587 0.595287 0.983677
O O6 0.061546 0.651067 0.237842
O O7 0.000000 0.631024 0.974843
O O8 0.500000 0.330271 0.726043
O O9 0.413829 0.390809 0.708650
O O10 0.413923 0.302509 0.895979
O O11 0.500000 0.260423 0.021490
O O12 0.415363 0.202096 0.008853
O O13 0.137201 0.500000 0.994260
O O14 0.066312 0.066312 0.500000
O O15 0.000000 0.051905 0.245983
O O16 0.089591 0.000000 0.249444
#
# Coordination Sequence:
#
# PCOD8311096 Si02
#       6
#    16  16  16  16  16  16
#     4   9  16  26  41  60  81 111 153 198 245 287
#     4   9  16  26  39  56  83 119 157 203 258 311
#     4   9  15  26  44  63  86 116 150 188 226 271
#     4   9  16  26  41  60  81 111 153 198 245 288
#     4   9  16  26  39  56  83 119 157 204 258 309
#     4   8  14  25  44  71  99 129 161 184 213 270
#
# _framework density 19.493155000000002
#
# number of rings (size 3 to 8) (size 9 to 14) (size 15 to 20)
#    0.000    3.167    1.667    0.500    0.000    1.000 
#    0.000    1.667    0.000    2.000    0.000   16.333 
#    0.000    8.000   11.333    0.000    0.667    0.167 
#
# Total GULP energy -594748.579620 kJ/mol
# GULP energy per Si atom -12390.595409 kJ/mol
# Density = 1.944879 g / cm^3
# Si number density = 19.493155 Si / 1000 Ang^3
#
#
#
# Elastic Constant Matrix: (Units=GPa)
#
#
# Indices 1 2 3 4 5 6 
#
# 1 92.5157 31.1818 38.9377 0.0000 0.0000 0.0000
# 2 31.1818 92.5157 38.9377 0.0000 0.0000 0.0000
# 3 38.9377 38.9377 96.2171 0.0000 0.0000 0.0000
# 4 0.0000 0.0000 0.0000 8.0112 0.0000 0.0000
# 5 0.0000 0.0000 0.0000 0.0000 8.0112 0.0000
# 6 0.0000 0.0000 0.0000 0.0000 0.0000 1.3936
#
#
#
# Elastic Compliance Matrix: (Units=1/GPa)
#
#
# Indices 1 2 3 4 5 6 
#
# 1 0.013576 -0.002728 -0.004390 0.000000 0.000000 0.000000
# 2 -0.002728 0.013576 -0.004390 0.000000 0.000000 0.000000
# 3 -0.004390 -0.004390 0.013946 0.000000 0.000000 0.000000
# 4 0.000000 0.000000 0.000000 0.124825 0.000000 0.000000
# 5 0.000000 0.000000 0.000000 0.000000 0.124825 0.000000
# 6 0.000000 0.000000 0.000000 0.000000 0.000000 0.717574
#
#
# Mechanical properties :
#
#
# Convention : Reuss Voigt Hill
#
# Bulk Modulus (GPa) = 55.30286 55.48474 55.39380
# Shear Modulus (GPa) = 4.81990 14.96262 9.89126
#
# Velocity S-wave (km/s) = 1.57416 2.77354 2.25505
# Velocity P-wave (km/s) = 5.63347 6.22753 5.93793
#
# Compressibility (1/GPa) = 0.01808225
#
# Stress axis : x y z
#
# Youngs Moduli (GPa) = 73.65869 73.65869 71.70331
#
# Poissons Ratio (x) = 0.20095 0.31478
# Poissons Ratio (y) = 0.20095 0.31478
# Poissons Ratio (z) = 0.32337 0.32337
#
# Static dielectric constant tensor:
#      x y z
#    x 3.468040 0.000000 0.000000 
#    y 0.000000 3.468040 0.000000 
#    z 0.000000 0.000000 3.604860 
# 
# 
# High freq. dielectric constant tensor:
#      x y z
#    x 1.721060 0.000000 0.000000 
#    y 0.000000 1.721060 0.000000 
#    z 0.000000 0.000000 1.762000 
# 
# From -- ./inp_files/2833.got.cif
#   From: 2010.03.12/outbox.cif.g09.slc.cpg/sg119_2_cif.got.tgz:2833.got - 2010.04.14 02:25:26.
