data_PCOD8311401
_publ_section_title
;
Structure prediction by ZEFSAII (Michael W. Deem and Ramdas Pophale) SiO2 
 PCOD8311401
Probable space group: I -4 2 M
;
_chemical_formula_sum "Si O2"
_cell_formula_units_Z 68
_cell_length_a 17.041898
_cell_length_b 17.041898
_cell_length_c 12.308222
_cell_angle_alpha 90.000000
_cell_angle_beta 90.000000
_cell_angle_gamma 90.000000
_cell_volume 3574.631220
_symmetry_space_group_name_H-M "I -4 2 M"
_symmetry_group_IT_number 121
_symmetry_cell_setting 'tetragonal'
loop_
_space_group_symop_operation_xyz
x,y,z
y,-x,-z
-x,-y,z
-y,x,-z
x,-y,-z
-x,y,-z
-y,-x,z
y,x,z
1/2+x,1/2+y,1/2+z
1/2+y,1/2-x,1/2-z
1/2-x,1/2-y,1/2+z
1/2-y,1/2+x,1/2-z
1/2+x,1/2-y,1/2-z
1/2-x,1/2+y,1/2-z
1/2-y,1/2-x,1/2+z
1/2+y,1/2+x,1/2+z
loop_
_atom_site_type_symbol
_atom_site_label
_atom_site_fract_x
_atom_site_fract_y
_atom_site_fract_z
Si Si1 0.162786 0.286319 0.985073
Si Si2 0.500000 0.000000 0.750000
Si Si3 0.064112 0.653676 0.826998
Si Si4 0.786826 0.909279 0.531235
Si Si5 0.092688 0.720325 0.238706
O O1 0.218802 0.218802 0.037628
O O2 0.128960 0.249314 0.873945
O O3 0.087451 0.308488 0.057639
O O4 0.214700 0.365644 0.970413
O O5 0.432020 0.976071 0.835274
O O6 0.141441 0.643086 0.755651
O O7 0.001222 0.709663 0.769004
O O8 0.869273 0.869273 0.496518
O O9 0.778553 0.895633 0.660898
O O10 0.787054 0.000000 0.500000
#
# Coordination Sequence:
#
# PCOD8311401 Si02
#       5
#    16   4  16  16  16
#     4  10  20  33  51  76 105 137 171 206 249 305
#     4   8  16  32  50  76 108 138 170 212 260 306
#     4   9  18  31  50  75 105 136 169 206 252 304
#     4  10  21  36  54  74  98 130 168 212 254 294
#     4  10  18  33  52  76 104 134 166 205 252 302
#
# _framework density 19.022943000000001
#
# number of rings (size 3 to 8) (size 9 to 14) (size 15 to 20)
#    0.000    2.353    0.000    2.824    0.000    3.059 
#    0.000    8.235    0.000    0.000    0.000    0.000 
#    0.000    1.882    0.000    0.000    0.000    0.000 
#
# Total GULP energy -421258.566616 kJ/mol
# GULP energy per Si atom -12389.957842 kJ/mol
# Density = 1.897965 g / cm^3
# Si number density = 19.022943 Si / 1000 Ang^3
#
#
#
# Elastic Constant Matrix: (Units=GPa)
#
#
# Indices 1 2 3 4 5 6 
#
# 1 66.0472 35.3471 22.6716 0.0000 0.0000 0.0000
# 2 35.3471 66.0472 22.6716 0.0000 0.0000 0.0000
# 3 22.6716 22.6716 90.1557 0.0000 0.0000 0.0000
# 4 0.0000 0.0000 0.0000 19.6465 0.0000 0.0000
# 5 0.0000 0.0000 0.0000 0.0000 19.6465 0.0000
# 6 0.0000 0.0000 0.0000 0.0000 0.0000 20.0456
#
#
#
# Elastic Compliance Matrix: (Units=1/GPa)
#
#
# Indices 1 2 3 4 5 6 
#
# 1 0.021843 -0.010731 -0.002794 0.000000 0.000000 0.000000
# 2 -0.010731 0.021843 -0.002794 0.000000 0.000000 0.000000
# 3 -0.002794 -0.002794 0.012497 0.000000 0.000000 0.000000
# 4 0.000000 0.000000 0.000000 0.050900 0.000000 0.000000
# 5 0.000000 0.000000 0.000000 0.000000 0.050900 0.000000
# 6 0.000000 0.000000 0.000000 0.000000 0.000000 0.049886
#
#
# Mechanical properties :
#
#
# Convention : Reuss Voigt Hill
#
# Bulk Modulus (GPa) = 42.47359 42.62566 42.54962
# Shear Modulus (GPa) = 20.13246 21.30502 20.71874
#
# Velocity S-wave (km/s) = 3.25672 3.35022 3.30380
# Velocity P-wave (km/s) = 6.04298 6.11730 6.08026
#
# Compressibility (1/GPa) = 0.02354404
#
# Stress axis : x y z
#
# Youngs Moduli (GPa) = 45.78188 45.78188 80.01705
#
# Poissons Ratio (x) = 0.49127 0.22360
# Poissons Ratio (y) = 0.49127 0.22360
# Poissons Ratio (z) = 0.12793 0.12793
#
# Static dielectric constant tensor:
#      x y z
#    x 3.386760 0.000000 0.000000 
#    y 0.000000 3.386760 0.000000 
#    z 0.000000 0.000000 3.346620 
# 
# 
# High freq. dielectric constant tensor:
#      x y z
#    x 1.727410 0.000000 0.000000 
#    y 0.000000 1.727410 0.000000 
#    z 0.000000 0.000000 1.728130 
# 
# From -- ./inp_files/3033.got.cif
#   From: 2010.03.12/outbox.cif.g09.slc.cpg/sg121_2_cif.got.tgz:3033.got - 2010.04.06 16:06:48.
