data_PCOD8311581
_publ_section_title
;
Structure prediction by ZEFSAII (Michael W. Deem and Ramdas Pophale) SiO2 
 PCOD8311581
Probable space group: I -4 2 M
;
_chemical_formula_sum "Si O2"
_cell_formula_units_Z 88
_cell_length_a 12.687887
_cell_length_b 12.687887
_cell_length_c 27.319921
_cell_angle_alpha 90.000000
_cell_angle_beta 90.000000
_cell_angle_gamma 90.000000
_cell_volume 4398.028541
_symmetry_space_group_name_H-M "I -4 2 M"
_symmetry_group_IT_number 121
_symmetry_cell_setting 'tetragonal'
loop_
_space_group_symop_operation_xyz
x,y,z
y,-x,-z
-x,-y,z
-y,x,-z
x,-y,-z
-x,y,-z
-y,-x,z
y,x,z
1/2+x,1/2+y,1/2+z
1/2+y,1/2-x,1/2-z
1/2-x,1/2-y,1/2+z
1/2-y,1/2+x,1/2-z
1/2+x,1/2-y,1/2-z
1/2-x,1/2+y,1/2-z
1/2-y,1/2-x,1/2+z
1/2+y,1/2+x,1/2+z
loop_
_atom_site_type_symbol
_atom_site_label
_atom_site_fract_x
_atom_site_fract_y
_atom_site_fract_z
Si Si1 0.000744 0.827668 0.387143
Si Si2 0.264686 0.568164 0.783744
Si Si3 0.525214 0.120051 0.942918
Si Si4 0.244571 0.580413 0.409152
Si Si5 0.761741 0.409815 0.301662
Si Si6 0.000000 0.171045 0.000000
O O1 0.906461 0.906461 0.399555
O O2 0.998208 0.800611 0.329581
O O3 0.971124 0.719798 0.416287
O O4 0.113016 0.886985 0.399848
O O5 0.361711 0.638290 0.764215
O O6 0.225005 0.495986 0.739851
O O7 0.169361 0.640949 0.800916
O O8 0.645741 0.144502 0.929648
O O9 0.500000 0.000000 0.923474
O O10 0.500000 0.126767 0.000000
O O11 0.341484 0.658517 0.405148
O O12 0.230901 0.532323 0.354768
O O13 0.262122 0.488623 0.449920
O O14 0.651680 0.348321 0.294467
O O15 0.104610 0.104610 0.005079
#
# Coordination Sequence:
#
# PCOD8311581 Si02
#       6
#    16  16  16  16  16   8
#     4  10  21  40  66  92 124 165 208 263 321 372
#     4  10  21  39  60  88 122 157 204 253 305 369
#     4  11  23  38  58  89 123 158 205 252 308 375
#     4  10  20  39  60  79 115 158 194 238 301 364
#     4  10  21  37  60  86 115 158 199 239 301 366
#     4   9  18  32  55  86 114 148 197 244 286 347
#
# _framework density 20.008963999999999
#
# number of rings (size 3 to 8) (size 9 to 14) (size 15 to 20)
#    0.000    1.909    1.818    2.182    0.000    5.091 
#    0.000    3.636    0.000    0.000    0.000    0.000 
#    0.000    0.000    0.000    0.000    0.000    0.000 
#
# Total GULP energy -545188.970734 kJ/mol
# GULP energy per Si atom -12390.658426 kJ/mol
# Density = 1.996342 g / cm^3
# Si number density = 20.008964 Si / 1000 Ang^3
#
#
#
# Elastic Constant Matrix: (Units=GPa)
#
#
# Indices 1 2 3 4 5 6 
#
# 1 83.5506 15.0861 46.3552 0.0000 0.0000 0.0000
# 2 15.0861 83.5523 46.3549 0.0000 0.0000 0.0000
# 3 46.3552 46.3549 143.2758 0.0000 0.0000 0.0000
# 4 0.0000 0.0000 0.0000 34.8957 0.0000 0.0000
# 5 0.0000 0.0000 0.0000 0.0000 34.8954 0.0000
# 6 0.0000 0.0000 0.0000 0.0000 0.0000 21.1076
#
#
#
# Elastic Compliance Matrix: (Units=1/GPa)
#
#
# Indices 1 2 3 4 5 6 
#
# 1 0.014587 -0.000019 -0.004713 0.000000 0.000000 0.000000
# 2 -0.000019 0.014587 -0.004713 0.000000 0.000000 0.000000
# 3 -0.004713 -0.004713 0.010029 0.000000 0.000000 0.000000
# 4 0.000000 0.000000 0.000000 0.028657 0.000000 0.000000
# 5 0.000000 0.000000 0.000000 0.000000 0.028657 0.000000
# 6 0.000000 0.000000 0.000000 0.000000 0.000000 0.047376
#
#
# Mechanical properties :
#
#
# Convention : Reuss Voigt Hill
#
# Bulk Modulus (GPa) = 49.23082 58.44121 53.83601
# Shear Modulus (GPa) = 29.48880 31.68523 30.58701
#
# Velocity S-wave (km/s) = 3.84315 3.98370 3.91406
# Velocity P-wave (km/s) = 6.65964 7.10146 6.88410
#
# Compressibility (1/GPa) = 0.02031248
#
# Stress axis : x y z
#
# Youngs Moduli (GPa) = 68.55279 68.55472 99.70642
#
# Poissons Ratio (x) = 0.00129 0.46996
# Poissons Ratio (y) = 0.00129 0.46995
# Poissons Ratio (z) = 0.32312 0.32312
#
# Static dielectric constant tensor:
#      x y z
#    x 3.637550 0.000000 0.000000 
#    y 0.000000 3.637550 0.000000 
#    z 0.000000 0.000000 3.903500 
# 
# 
# High freq. dielectric constant tensor:
#      x y z
#    x 1.772400 0.000000 0.000000 
#    y 0.000000 1.772400 0.000000 
#    z 0.000000 0.000000 1.790540 
# 
# From -- ./inp_files/8233.got.cif
#   From: 2010.03.12/outbox.cif.g09.slc.cpg/sg121_5_cif.got.tgz:8233.got - 2010.04.06 16:06:48.
