data_PCOD8311529
_publ_section_title
;
Structure prediction by ZEFSAII (Michael W. Deem and Ramdas Pophale) SiO2 
 PCOD8311529
Probable space group: I -4 2 M
;
_chemical_formula_sum "Si O2"
_cell_formula_units_Z 128
_cell_length_a 19.197405
_cell_length_b 19.197405
_cell_length_c 19.871213
_cell_angle_alpha 90.000000
_cell_angle_beta 90.000000
_cell_angle_gamma 90.000000
_cell_volume 7323.343968
_symmetry_space_group_name_H-M "I -4 2 M"
_symmetry_group_IT_number 121
_symmetry_cell_setting 'tetragonal'
loop_
_space_group_symop_operation_xyz
x,y,z
y,-x,-z
-x,-y,z
-y,x,-z
x,-y,-z
-x,y,-z
-y,-x,z
y,x,z
1/2+x,1/2+y,1/2+z
1/2+y,1/2-x,1/2-z
1/2-x,1/2-y,1/2+z
1/2-y,1/2+x,1/2-z
1/2+x,1/2-y,1/2-z
1/2-x,1/2+y,1/2-z
1/2-y,1/2-x,1/2+z
1/2+y,1/2+x,1/2+z
loop_
_atom_site_type_symbol
_atom_site_label
_atom_site_fract_x
_atom_site_fract_y
_atom_site_fract_z
Si Si1 0.238877 0.355420 0.032906
Si Si2 0.136731 0.252605 0.685620
Si Si3 0.830988 0.051714 0.061733
Si Si4 0.834703 0.719254 0.294615
Si Si5 0.161965 0.278721 0.927692
Si Si6 0.285495 0.481811 0.805062
Si Si7 0.500882 0.610553 0.307029
Si Si8 0.333673 0.553379 0.050156
O O1 0.299354 0.299354 0.031225
O O2 0.218390 0.370218 0.109769
O O3 0.171660 0.327542 0.992913
O O4 0.266311 0.422682 0.992656
O O5 0.178848 0.178848 0.689349
O O6 0.177633 0.310483 0.728529
O O7 0.058021 0.245351 0.713834
O O8 0.892865 0.107136 0.054081
O O9 0.754937 0.086286 0.065091
O O10 0.836716 0.009619 0.131169
O O11 0.835048 0.000000 0.000000
O O12 0.792092 0.792092 0.301501
O O13 0.822347 0.670113 0.359117
O O14 0.917596 0.733177 0.291068
O O15 0.218177 0.218177 0.926009
O O16 0.351848 0.469998 0.757983
O O17 0.309533 0.484527 0.882275
O O18 0.446772 0.553229 0.331852
O O19 0.574645 0.574645 0.288385
O O20 0.383031 0.616970 0.070803
O O21 0.373737 0.500000 0.000000
#
# Coordination Sequence:
#
# PCOD8311529 Si02
#       8
#    16  16  16  16  16  16  16  16
#     4   9  17  32  50  71 101 136 173 217 263 306
#     4  10  21  35  53  79 112 145 180 228 279 324
#     4  10  20  34  53  76 104 141 180 222 277 337
#     4  10  20  35  54  78 106 140 184 230 275 324
#     4   9  17  31  51  72  98 133 174 224 273 313
#     4  12  21  34  57  79 107 148 192 227 267 328
#     4  10  21  34  48  73 111 148 180 218 268 330
#     4  11  21  33  50  77 112 147 182 216 256 315
#
# _framework density 17.478354
#
# number of rings (size 3 to 8) (size 9 to 14) (size 15 to 20)
#    0.000    1.875    2.500    2.625    0.000    4.250 
#    0.000    2.500    0.000    0.375    0.000    0.000 
#    0.000    0.500    0.000    0.000    0.000    0.000 
#
# Total GULP energy -793446.980909 kJ/mol
# GULP energy per Si atom -12397.609077 kJ/mol
# Density = 1.743857 g / cm^3
# Si number density = 17.478354 Si / 1000 Ang^3
#
#
#
# Elastic Constant Matrix: (Units=GPa)
#
#
# Indices 1 2 3 4 5 6 
#
# 1 71.1969 38.1426 41.5570 0.0000 0.0000 0.0000
# 2 38.1426 71.1976 41.5566 0.0000 0.0000 0.0000
# 3 41.5570 41.5566 111.6132 0.0000 0.0000 0.0000
# 4 0.0000 0.0000 0.0000 26.5929 0.0000 0.0000
# 5 0.0000 0.0000 0.0000 0.0000 26.5930 0.0000
# 6 0.0000 0.0000 0.0000 0.0000 0.0000 17.6073
#
#
#
# Elastic Compliance Matrix: (Units=1/GPa)
#
#
# Indices 1 2 3 4 5 6 
#
# 1 0.021505 -0.008748 -0.004750 0.000000 0.000000 0.000000
# 2 -0.008748 0.021504 -0.004749 0.000000 0.000000 0.000000
# 3 -0.004750 -0.004749 0.012496 0.000000 0.000000 0.000000
# 4 0.000000 0.000000 0.000000 0.037604 0.000000 0.000000
# 5 0.000000 0.000000 0.000000 0.000000 0.037604 0.000000
# 6 0.000000 0.000000 0.000000 0.000000 0.000000 0.056795
#
#
# Mechanical properties :
#
#
# Convention : Reuss Voigt Hill
#
# Bulk Modulus (GPa) = 52.60241 55.16889 53.88565
# Shear Modulus (GPa) = 21.70712 23.00873 22.35793
#
# Velocity S-wave (km/s) = 3.52794 3.63218 3.58044
# Velocity P-wave (km/s) = 6.83786 7.01591 6.92745
#
# Compressibility (1/GPa) = 0.01901054
#
# Stress axis : x y z
#
# Youngs Moduli (GPa) = 46.50148 46.50234 80.02423
#
# Poissons Ratio (x) = 0.40682 0.38008
# Poissons Ratio (y) = 0.40682 0.38006
# Poissons Ratio (z) = 0.22086 0.22085
#
# Static dielectric constant tensor:
#      x y z
#    x 3.136110 0.000000 0.000000 
#    y 0.000000 3.136100 0.000000 
#    z 0.000000 0.000000 3.415720 
# 
# 
# High freq. dielectric constant tensor:
#      x y z
#    x 1.650150 0.000000 0.000000 
#    y 0.000000 1.650150 0.000000 
#    z 0.000000 0.000000 1.694670 
# 
# From -- ./inp_files/5658.got.cif
#   From: 2010.03.12/outbox.cif.g09.slc.cpg/sg121_3_cif.got.tgz:5658.got - 2010.04.06 16:06:48.
