data_PCOD8311142
_publ_section_title
;
Structure prediction by ZEFSAII (Michael W. Deem and Ramdas Pophale) SiO2 
 PCOD8311142
Probable space group: I -4 C 2
;
_chemical_formula_sum "Si O2"
_cell_formula_units_Z 72
_cell_length_a 26.290065
_cell_length_b 26.290065
_cell_length_c 5.300572
_cell_angle_alpha 90.000000
_cell_angle_beta 90.000000
_cell_angle_gamma 90.000000
_cell_volume 3663.583192
_symmetry_space_group_name_H-M "I -4 C 2"
_symmetry_group_IT_number 120
_symmetry_cell_setting 'tetragonal'
loop_
_space_group_symop_operation_xyz
x,y,z
y,-x,-z
-x,-y,z
-y,x,-z
y,x,1/2-z
-y,-x,1/2-z
-x,y,1/2+z
x,-y,1/2+z
1/2+x,1/2+y,1/2+z
1/2+y,1/2-x,1/2-z
1/2-x,1/2-y,1/2+z
1/2-y,1/2+x,1/2-z
1/2+y,1/2+x,-z
1/2-y,1/2-x,-z
1/2-x,1/2+y,z
1/2+x,1/2-y,z
loop_
_atom_site_type_symbol
_atom_site_label
_atom_site_fract_x
_atom_site_fract_y
_atom_site_fract_z
Si Si1 0.260516 0.892579 0.522248
Si Si2 0.726884 0.773117 0.000000
Si Si3 0.525599 0.101488 0.939339
Si Si4 0.555615 0.788369 0.480975
Si Si5 0.018122 0.191199 0.471905
O O1 0.258298 0.832009 0.539345
O O2 0.285331 0.906090 0.254822
O O3 0.204970 0.921584 0.535799
O O4 0.292611 0.911573 0.762931
O O5 0.755813 0.755813 0.750000
O O6 0.509557 0.080026 0.666297
O O7 0.521970 0.162003 0.945864
O O8 0.582779 0.082779 0.000000
O O9 0.514958 0.743126 0.493549
O O10 0.001763 0.160252 0.725401
#
# Coordination Sequence:
#
# PCOD8311142 Si02
#       5
#    16   8  16  16  16
#     4  10  20  33  55  70  93 128 156 196 262 294
#     4  12  26  40  50  72 108 140 175 202 223 296
#     4  12  25  38  52  69  95 126 158 202 254 324
#     4  10  19  35  54  79  93 107 154 220 266 302
#     4   8  14  27  47  70  91 104 136 200 260 291
#
# _framework density 19.652892999999999
#
# number of rings (size 3 to 8) (size 9 to 14) (size 15 to 20)
#    0.000    1.778    0.000    7.333    3.111    1.333 
#    0.000    0.000    0.000    0.000    0.000    0.000 
#    0.000    0.000    0.000    0.000    0.000    0.000 
#
# Total GULP energy -445991.963954 kJ/mol
# GULP energy per Si atom -12388.665665 kJ/mol
# Density = 1.960816 g / cm^3
# Si number density = 19.652893 Si / 1000 Ang^3
#
#
#
# Elastic Constant Matrix: (Units=GPa)
#
#
# Indices 1 2 3 4 5 6 
#
# 1 89.0551 -34.6720 13.6244 0.0000 0.0000 0.0000
# 2 -34.6720 89.0980 13.6325 0.0000 0.0000 0.0000
# 3 13.6244 13.6325 149.2545 0.0000 0.0000 0.0000
# 4 0.0000 0.0000 0.0000 21.8492 0.0000 0.0000
# 5 0.0000 0.0000 0.0000 0.0000 21.8498 0.0000
# 6 0.0000 0.0000 0.0000 0.0000 0.0000 14.4900
#
#
#
# Elastic Compliance Matrix: (Units=1/GPa)
#
#
# Indices 1 2 3 4 5 6 
#
# 1 0.013675 0.005591 -0.001759 0.000000 0.000000 0.000000
# 2 0.005591 0.013668 -0.001759 0.000000 0.000000 0.000000
# 3 -0.001759 -0.001759 0.007021 0.000000 0.000000 0.000000
# 4 0.000000 0.000000 0.000000 0.045768 0.000000 0.000000
# 5 0.000000 0.000000 0.000000 0.000000 0.045767 0.000000
# 6 0.000000 0.000000 0.000000 0.000000 0.000000 0.069013
#
#
# Mechanical properties :
#
#
# Convention : Reuss Voigt Hill
#
# Bulk Modulus (GPa) = 25.96735 34.73080 30.34908
# Shear Modulus (GPa) = 24.55756 33.95931 29.25844
#
# Velocity S-wave (km/s) = 3.53875 4.16138 3.86263
# Velocity P-wave (km/s) = 5.47163 6.38748 5.94721
#
# Compressibility (1/GPa) = 0.03850990
#
# Stress axis : x y z
#
# Youngs Moduli (GPa) = 73.12793 73.16237 142.42659
#
# Poissons Ratio (x) = -0.40902 0.25051
# Poissons Ratio (y) = -0.40883 0.25049
# Poissons Ratio (z) = 0.12862 0.12867
#
# Static dielectric constant tensor:
#      x y z
#    x 3.138770 0.000000 0.000000 
#    y 0.000000 3.138740 0.000000 
#    z 0.000000 0.000000 5.743430 
# 
# 
# High freq. dielectric constant tensor:
#      x y z
#    x 1.710690 0.000000 0.000000 
#    y 0.000000 1.710690 0.000000 
#    z 0.000000 0.000000 1.818170 
# 
# From -- ./inp_files/403.got.cif
#   From: 2010.03.12/outbox.cif.g09.slc.cpg/sg120_1_cif.got.tgz:403.got - 2010.04.06 16:00:44.
