data_PCOD8311454
_publ_section_title
;
Structure prediction by ZEFSAII (Michael W. Deem and Ramdas Pophale) SiO2 
 PCOD8311454
Probable space group: I -4 2 M
;
_chemical_formula_sum "Si O2"
_cell_formula_units_Z 80
_cell_length_a 17.105535
_cell_length_b 17.105535
_cell_length_c 14.957562
_cell_angle_alpha 90.000000
_cell_angle_beta 90.000000
_cell_angle_gamma 90.000000
_cell_volume 4376.572584
_symmetry_space_group_name_H-M "I -4 2 M"
_symmetry_group_IT_number 121
_symmetry_cell_setting 'tetragonal'
loop_
_space_group_symop_operation_xyz
x,y,z
y,-x,-z
-x,-y,z
-y,x,-z
x,-y,-z
-x,y,-z
-y,-x,z
y,x,z
1/2+x,1/2+y,1/2+z
1/2+y,1/2-x,1/2-z
1/2-x,1/2-y,1/2+z
1/2-y,1/2+x,1/2-z
1/2+x,1/2-y,1/2-z
1/2-x,1/2+y,1/2-z
1/2-y,1/2-x,1/2+z
1/2+y,1/2+x,1/2+z
loop_
_atom_site_type_symbol
_atom_site_label
_atom_site_fract_x
_atom_site_fract_y
_atom_site_fract_z
Si Si1 0.938169 0.187495 0.768276
Si Si2 0.305572 0.570213 0.066568
Si Si3 0.689514 0.181589 0.018479
Si Si4 0.897897 0.766014 0.827684
Si Si5 0.817240 0.312352 0.820122
O O1 0.886513 0.113488 0.802606
O O2 0.961517 0.175398 0.665061
O O3 0.888946 0.266838 0.775579
O O4 0.016856 0.194421 0.825901
O O5 0.376991 0.623010 0.030630
O O6 0.227036 0.621245 0.070195
O O7 0.293438 0.500000 0.000000
O O8 0.765082 0.234919 0.005712
O O9 0.715205 0.108724 0.080865
O O10 0.659618 0.156336 0.919552
O O11 0.833484 0.833484 0.826602
O O12 0.885389 0.707749 0.742650
O O13 0.742181 0.257820 0.827887
#
# Coordination Sequence:
#
# PCOD8311454 Si02
#       5
#    16  16  16  16  16
#     4  10  20  33  51  78 112 139 172 226 278 323
#     4  10  19  32  50  78 112 143 178 224 273 329
#     4   9  17  31  52  74  97 135 190 229 257 314
#     4  10  19  33  53  77 106 144 183 220 271 327
#     4   9  17  32  52  74 101 136 180 226 264 309
#
# _framework density 18.279143000000001
#
# number of rings (size 3 to 8) (size 9 to 14) (size 15 to 20)
#    0.000    2.400    2.000    1.200    0.000    3.800 
#    0.000    2.000    0.000    0.600    0.000    7.000 
#    0.000    0.000    0.000    0.000    0.000    0.000 
#
# Total GULP energy -495821.333784 kJ/mol
# GULP energy per Si atom -12395.533345 kJ/mol
# Density = 1.823754 g / cm^3
# Si number density = 18.279143 Si / 1000 Ang^3
#
#
#
# Elastic Constant Matrix: (Units=GPa)
#
#
# Indices 1 2 3 4 5 6 
#
# 1 44.4727 44.1169 27.1408 0.0000 0.0000 0.0000
# 2 44.1169 44.4565 27.1408 0.0000 0.0000 0.0000
# 3 27.1408 27.1408 94.5905 0.0000 0.0000 0.0000
# 4 0.0000 0.0000 0.0000 25.2267 0.0000 0.0000
# 5 0.0000 0.0000 0.0000 0.0000 25.2262 0.0000
# 6 0.0000 0.0000 0.0000 0.0000 0.0000 16.3813
#
#
#
# Elastic Compliance Matrix: (Units=1/GPa)
#
#
# Indices 1 2 3 4 5 6 
#
# 1 1.444697 -1.431317 -0.003840 0.000000 0.000000 0.000000
# 2 -1.431317 1.445333 -0.004021 0.000000 0.000000 0.000000
# 3 -0.003840 -0.004021 0.012827 0.000000 0.000000 0.000000
# 4 0.000000 0.000000 0.000000 0.039641 0.000000 0.000000
# 5 0.000000 0.000000 0.000000 0.000000 0.039641 0.000000
# 6 0.000000 0.000000 0.000000 0.000000 0.000000 0.061045
#
#
# Mechanical properties :
#
#
# Convention : Reuss Voigt Hill
#
# Bulk Modulus (GPa) = 40.81409 42.25743 41.53576
# Shear Modulus (GPa) = 0.84321 19.04159 9.94240
#
# Velocity S-wave (km/s) = 0.67993 3.23106 2.33474
# Velocity P-wave (km/s) = 4.79511 6.08996 5.48091
#
# Compressibility (1/GPa) = 0.02450134
#
# Stress axis : x y z
#
# Youngs Moduli (GPa) = 0.69219 0.69188 77.95900
#
# Poissons Ratio (x) = 0.99030 0.29935
# Poissons Ratio (y) = 0.99074 0.31344
# Poissons Ratio (z) = 0.00266 0.00278
#
# Static dielectric constant tensor:
#      x y z
#    x 3.107460 0.000000 0.000000 
#    y 0.000000 3.107460 0.000000 
#    z 0.000000 0.000000 3.695600 
# 
# 
# High freq. dielectric constant tensor:
#      x y z
#    x 1.678000 0.000000 0.000000 
#    y 0.000000 1.678000 0.000000 
#    z 0.000000 0.000000 1.722860 
# 
# From -- ./inp_files/4240.got.cif
#   From: 2010.03.12/outbox.cif.g09.slc.cpg/sg121_3_cif.got.tgz:4240.got - 2010.04.06 16:06:48.
