data_PCOD8311879
_publ_section_title
;
Structure prediction by ZEFSAII (Michael W. Deem and Ramdas Pophale) SiO2 
 PCOD8311879
Probable space group: I -4 2 D
;
_chemical_formula_sum "Si O2"
_cell_formula_units_Z 96
_cell_length_a 14.162354
_cell_length_b 14.162354
_cell_length_c 22.862785
_cell_angle_alpha 90.000000
_cell_angle_beta 90.000000
_cell_angle_gamma 90.000000
_cell_volume 4585.640705
_symmetry_space_group_name_H-M "I -4 2 D"
_symmetry_group_IT_number 122
_symmetry_cell_setting 'tetragonal'
loop_
_space_group_symop_operation_xyz
x,y,z
y,-x,-z
-x,-y,z
-y,x,-z
x,1/2-y,1/4-z
-x,1/2+y,1/4-z
-y,1/2-x,1/4+z
y,1/2+x,1/4+z
1/2+x,1/2+y,1/2+z
1/2+y,1/2-x,1/2-z
1/2-x,1/2-y,1/2+z
1/2-y,1/2+x,1/2-z
1/2+x,-y,3/4-z
1/2-x,y,3/4-z
1/2-y,-x,3/4+z
1/2+y,x,3/4+z
loop_
_atom_site_type_symbol
_atom_site_label
_atom_site_fract_x
_atom_site_fract_y
_atom_site_fract_z
Si Si1 0.106100 0.663492 0.085325
Si Si2 0.264012 0.448723 0.740599
Si Si3 0.659497 0.765081 0.246584
Si Si4 0.171285 0.943307 0.742628
Si Si5 0.792558 0.997816 0.109950
Si Si6 0.696990 0.330596 0.432078
O O1 0.071226 0.750000 0.125000
O O2 0.125938 0.575330 0.128383
O O3 0.030524 0.640785 0.034247
O O4 0.205837 0.685539 0.054571
O O5 0.243981 0.549405 0.770631
O O6 0.186030 0.373374 0.761524
O O7 0.369525 0.415159 0.757859
O O8 0.254128 0.456811 0.670784
O O9 0.721299 0.725513 0.192900
O O10 0.199335 0.971105 0.676485
O O11 0.267728 0.894758 0.764848
O O12 0.843688 0.914713 0.073740
O O13 0.750000 0.368179 0.375000
#
# Coordination Sequence:
#
# PCOD8311879 Si02
#       6
#    16  16  16  16  16  16
#     4  11  23  39  64  93 131 173 216 269 326 389
#     4  10  23  43  68  93 129 169 219 272 332 393
#     4  10  21  40  67  90 126 173 211 276 330 384
#     4  11  23  41  65  93 136 174 214 272 329 394
#     4  11  23  40  66  94 128 169 221 264 322 403
#     4  11  20  43  63  91 133 174 214 264 329 392
#
# _framework density 20.934913999999999
#
# number of rings (size 3 to 8) (size 9 to 14) (size 15 to 20)
#    0.000    1.333    5.000    2.500    0.000    3.000 
#    0.000    4.167    7.333    0.000    0.000    0.000 
#    0.000    0.000    0.000    0.000    0.000    0.000 
#
# Total GULP energy -595119.574723 kJ/mol
# GULP energy per Si atom -12398.324473 kJ/mol
# Density = 2.088726 g / cm^3
# Si number density = 20.934914 Si / 1000 Ang^3
#
#
#
# Elastic Constant Matrix: (Units=GPa)
#
#
# Indices 1 2 3 4 5 6 
#
# 1 123.7239 40.5770 23.0907 0.0000 0.0000 0.0000
# 2 40.5770 123.7239 23.0907 0.0000 0.0000 0.0000
# 3 23.0907 23.0907 56.9553 0.0000 0.0000 0.0000
# 4 0.0000 0.0000 0.0000 38.1424 0.0000 0.0000
# 5 0.0000 0.0000 0.0000 0.0000 38.1424 0.0000
# 6 0.0000 0.0000 0.0000 0.0000 0.0000 15.3229
#
#
#
# Elastic Compliance Matrix: (Units=1/GPa)
#
#
# Indices 1 2 3 4 5 6 
#
# 1 0.009448 -0.002579 -0.002785 0.000000 0.000000 0.000000
# 2 -0.002579 0.009448 -0.002785 0.000000 0.000000 0.000000
# 3 -0.002785 -0.002785 0.019816 0.000000 0.000000 0.000000
# 4 0.000000 0.000000 0.000000 0.026218 0.000000 0.000000
# 5 0.000000 0.000000 0.000000 0.000000 0.026218 0.000000
# 6 0.000000 0.000000 0.000000 0.000000 0.000000 0.065262
#
#
# Mechanical properties :
#
#
# Convention : Reuss Voigt Hill
#
# Bulk Modulus (GPa) = 44.61396 53.10222 48.85809
# Shear Modulus (GPa) = 27.75038 32.83116 30.29077
#
# Velocity S-wave (km/s) = 3.64477 3.96441 3.80794
# Velocity P-wave (km/s) = 6.25056 6.80998 6.53626
#
# Compressibility (1/GPa) = 0.02241451
#
# Stress axis : x y z
#
# Youngs Moduli (GPa) = 105.84208 105.84208 50.46495
#
# Poissons Ratio (x) = 0.27295 0.14054
# Poissons Ratio (y) = 0.27295 0.14054
# Poissons Ratio (z) = 0.29476 0.29476
#
# Static dielectric constant tensor:
#      x y z
#    x 3.886100 0.000000 0.000000 
#    y 0.000000 3.886100 0.000000 
#    z 0.000000 0.000000 3.724040 
# 
# 
# High freq. dielectric constant tensor:
#      x y z
#    x 1.819050 0.000000 0.000000 
#    y 0.000000 1.819050 0.000000 
#    z 0.000000 0.000000 1.808210 
# 
# From -- ./inp_files/7279.got.cif
#   From: 2010.03.12/outbox.cif.g09.slc.cpg/sg122_4_cif.got.tgz:7279.got - 2010.04.06 16:17:16.
