data_PCOD8311618
_publ_section_title
;
Structure prediction by ZEFSAII (Michael W. Deem and Ramdas Pophale) SiO2 
 PCOD8311618
Probable space group: I -4 2 M
;
_chemical_formula_sum "Si O2"
_cell_formula_units_Z 96
_cell_length_a 20.507825
_cell_length_b 20.507825
_cell_length_c 11.569053
_cell_angle_alpha 90.000000
_cell_angle_beta 90.000000
_cell_angle_gamma 90.000000
_cell_volume 4865.606873
_symmetry_space_group_name_H-M "I -4 2 M"
_symmetry_group_IT_number 121
_symmetry_cell_setting 'tetragonal'
loop_
_space_group_symop_operation_xyz
x,y,z
y,-x,-z
-x,-y,z
-y,x,-z
x,-y,-z
-x,y,-z
-y,-x,z
y,x,z
1/2+x,1/2+y,1/2+z
1/2+y,1/2-x,1/2-z
1/2-x,1/2-y,1/2+z
1/2-y,1/2+x,1/2-z
1/2+x,1/2-y,1/2-z
1/2-x,1/2+y,1/2-z
1/2-y,1/2-x,1/2+z
1/2+y,1/2+x,1/2+z
loop_
_atom_site_type_symbol
_atom_site_label
_atom_site_fract_x
_atom_site_fract_y
_atom_site_fract_z
Si Si1 0.054272 0.579209 0.294678
Si Si2 0.571610 0.171617 0.460734
Si Si3 0.615362 0.204786 0.701750
Si Si4 0.151676 0.254392 0.217810
Si Si5 0.675125 0.567444 0.160913
Si Si6 0.576470 0.679702 0.899822
O O1 0.074165 0.524867 0.195812
O O2 0.096235 0.570735 0.413367
O O3 0.065748 0.651308 0.250024
O O4 0.500000 0.191583 0.500000
O O5 0.620562 0.188079 0.565790
O O6 0.593303 0.222407 0.363433
O O7 0.686418 0.200594 0.757730
O O8 0.588706 0.275546 0.737379
O O9 0.194422 0.194422 0.165772
O O10 0.118135 0.234797 0.337032
O O11 0.607959 0.607959 0.176234
O O12 0.664291 0.490234 0.168499
O O13 0.705253 0.575048 0.032029
O O14 0.609706 0.609706 0.896299
#
# Coordination Sequence:
#
# PCOD8311618 Si02
#       6
#    16  16  16  16  16  16
#     4  10  22  40  58  84 119 160 207 251 297 353
#     4  11  22  40  61  86 120 160 203 258 309 365
#     4  11  23  37  58  87 122 159 202 251 305 366
#     4  10  23  39  58  85 119 161 204 248 307 368
#     4  10  21  38  62  91 121 156 202 253 311 376
#     4   9  20  39  62  88 121 158 200 255 306 367
#
# _framework density 19.730322999999999
#
# number of rings (size 3 to 8) (size 9 to 14) (size 15 to 20)
#    0.000    1.833    1.667    1.500    7.000    2.333 
#    0.000    1.667    0.000    0.000    0.000    0.000 
#    0.000    4.000    0.000    0.000    0.000    0.000 
#
# Total GULP energy -594697.275997 kJ/mol
# GULP energy per Si atom -12389.526583 kJ/mol
# Density = 1.968542 g / cm^3
# Si number density = 19.730323 Si / 1000 Ang^3
#
#
#
# Elastic Constant Matrix: (Units=GPa)
#
#
# Indices 1 2 3 4 5 6 
#
# 1 77.7273 21.6395 20.8724 0.0000 0.0000 0.0000
# 2 21.6395 77.7273 20.8724 0.0000 0.0000 0.0000
# 3 20.8724 20.8724 76.2379 0.0000 0.0000 0.0000
# 4 0.0000 0.0000 0.0000 28.8834 0.0000 0.0000
# 5 0.0000 0.0000 0.0000 0.0000 28.8834 0.0000
# 6 0.0000 0.0000 0.0000 0.0000 0.0000 28.4592
#
#
#
# Elastic Compliance Matrix: (Units=1/GPa)
#
#
# Indices 1 2 3 4 5 6 
#
# 1 0.014600 -0.003229 -0.003113 0.000000 0.000000 0.000000
# 2 -0.003229 0.014600 -0.003113 0.000000 0.000000 0.000000
# 3 -0.003113 -0.003113 0.014822 0.000000 0.000000 0.000000
# 4 0.000000 0.000000 0.000000 0.034622 0.000000 0.000000
# 5 0.000000 0.000000 0.000000 0.000000 0.034622 0.000000
# 6 0.000000 0.000000 0.000000 0.000000 0.000000 0.035138
#
#
# Mechanical properties :
#
#
# Convention : Reuss Voigt Hill
#
# Bulk Modulus (GPa) = 39.82227 39.82899 39.82563
# Shear Modulus (GPa) = 28.45992 28.46576 28.46284
#
# Velocity S-wave (km/s) = 3.80207 3.80246 3.80227
# Velocity P-wave (km/s) = 6.28502 6.28561 6.28531
#
# Compressibility (1/GPa) = 0.02511158
#
# Stress axis : x y z
#
# Youngs Moduli (GPa) = 68.49119 68.49119 67.46931
#
# Poissons Ratio (x) = 0.22114 0.21005
# Poissons Ratio (y) = 0.22114 0.21005
# Poissons Ratio (z) = 0.21324 0.21324
#
# Static dielectric constant tensor:
#      x y z
#    x 3.624910 0.000000 0.000000 
#    y 0.000000 3.624910 0.000000 
#    z 0.000000 0.000000 3.741920 
# 
# 
# High freq. dielectric constant tensor:
#      x y z
#    x 1.770180 0.000000 0.000000 
#    y 0.000000 1.770180 0.000000 
#    z 0.000000 0.000000 1.753430 
# 
# From -- ./inp_files/3319.got.cif
#   From: 2010.03.12/outbox.cif.g09.slc.cpg/sg121_2_cif.got.tgz:3319.got - 2010.04.06 16:06:48.
