data_PCOD8311038
_publ_section_title
;
Structure prediction by ZEFSAII (Michael W. Deem and Ramdas Pophale) SiO2 
 PCOD8311038
Probable space group: I -4 M 2
;
_chemical_formula_sum "Si O2"
_cell_formula_units_Z 96
_cell_length_a 15.241046
_cell_length_b 15.241046
_cell_length_c 18.669759
_cell_angle_alpha 90.000000
_cell_angle_beta 90.000000
_cell_angle_gamma 90.000000
_cell_volume 4336.788669
_symmetry_space_group_name_H-M "I -4 M 2"
_symmetry_group_IT_number 119
_symmetry_cell_setting 'tetragonal'
loop_
_space_group_symop_operation_xyz
x,y,z
y,-x,-z
-x,-y,z
-y,x,-z
y,x,-z
-y,-x,-z
-x,y,z
x,-y,z
1/2+x,1/2+y,1/2+z
1/2+y,1/2-x,1/2-z
1/2-x,1/2-y,1/2+z
1/2-y,1/2+x,1/2-z
1/2+y,1/2+x,1/2-z
1/2-y,1/2-x,1/2-z
1/2-x,1/2+y,1/2+z
1/2+x,1/2-y,1/2+z
loop_
_atom_site_type_symbol
_atom_site_label
_atom_site_fract_x
_atom_site_fract_y
_atom_site_fract_z
Si Si1 0.712109 0.597950 0.053210
Si Si2 0.660925 0.405190 0.347301
Si Si3 0.326748 0.099750 0.929131
Si Si4 0.904070 0.329615 0.680797
Si Si5 0.904032 0.264569 0.917149
Si Si6 0.099930 0.129045 0.693344
O O1 0.699490 0.500000 0.020061
O O2 0.817294 0.607514 0.067624
O O3 0.659534 0.601772 0.126983
O O4 0.671853 0.671853 0.000000
O O5 0.637285 0.500000 0.381406
O O6 0.764747 0.387063 0.359966
O O7 0.603530 0.332574 0.386445
O O8 0.642689 0.412821 0.263294
O O9 0.370348 0.000000 0.928034
O O10 0.263049 0.109134 0.997888
O O11 0.889603 0.389603 0.750000
O O12 0.832562 0.336730 0.618304
O O13 0.899529 0.231588 0.708868
O O14 0.000000 0.351738 0.648342
O O15 0.000000 0.300366 0.896725
O O16 0.000000 0.095393 0.681420
#
# Coordination Sequence:
#
# PCOD8311038 Si02
#       6
#    16  16  16  16  16  16
#     4  12  26  44  69  99 135 180 225 278 341 411
#     4  11  22  39  63  90 122 166 218 273 331 394
#     4  10  24  44  67  94 127 172 227 280 339 402
#     4  11  22  37  60  92 129 171 216 265 325 394
#     4  11  22  38  59  89 128 168 211 267 328 394
#     4  11  24  41  64  95 131 172 218 274 336 399
#
# _framework density 22.136192999999999
#
# number of rings (size 3 to 8) (size 9 to 14) (size 15 to 20)
#    0.000    1.000    1.667    5.500    0.000    6.667 
#    0.000    2.500    0.000    6.000    0.000    2.333 
#    0.000    0.000    0.000    0.000    0.000    0.000 
#
# Total GULP energy -594966.188301 kJ/mol
# GULP energy per Si atom -12395.128923 kJ/mol
# Density = 2.208581 g / cm^3
# Si number density = 22.136193 Si / 1000 Ang^3
#
#
#
# Elastic Constant Matrix: (Units=GPa)
#
#
# Indices 1 2 3 4 5 6 
#
# 1 134.3579 42.9880 33.2756 0.0000 0.0000 0.0000
# 2 42.9880 134.3579 33.2756 0.0000 0.0000 0.0000
# 3 33.2756 33.2756 86.5705 0.0000 0.0000 0.0000
# 4 0.0000 0.0000 0.0000 25.4589 0.0000 0.0000
# 5 0.0000 0.0000 0.0000 0.0000 25.4589 0.0000
# 6 0.0000 0.0000 0.0000 0.0000 0.0000 -1.2261
#
#
#
# Elastic Compliance Matrix: (Units=1/GPa)
#
#
# Indices 1 2 3 4 5 6 
#
# 1 0.008767 -0.002178 -0.002533 0.000000 0.000000 0.000000
# 2 -0.002178 0.008767 -0.002533 0.000000 0.000000 0.000000
# 3 -0.002533 -0.002533 0.013498 0.000000 0.000000 0.000000
# 4 0.000000 0.000000 0.000000 0.039279 0.000000 0.000000
# 5 0.000000 0.000000 0.000000 0.000000 0.039279 0.000000
# 6 0.000000 0.000000 0.000000 0.000000 0.000000 -0.815612
#
#
# Mechanical properties :
#
#
# Convention : Reuss Voigt Hill
#
# Bulk Modulus (GPa) = 60.43849 63.81829 62.12839
# Shear Modulus (GPa) = -7.28841 26.32149 9.51654
#
# Velocity S-wave (km/s) = -1.81650 3.45203 2.07567
# Velocity P-wave (km/s) = 4.79194 6.69187 5.81996
#
# Compressibility (1/GPa) = 0.01654575
#
# Stress axis : x y z
#
# Youngs Moduli (GPa) = 114.06647 114.06647 74.08348
#
# Poissons Ratio (x) = 0.24840 0.18763
# Poissons Ratio (y) = 0.24840 0.18763
# Poissons Ratio (z) = 0.28890 0.28890
#
# Static dielectric constant tensor:
#      x y z
#    x 4.119830 0.000000 0.000000 
#    y 0.000000 4.119830 0.000000 
#    z 0.000000 0.000000 3.878050 
# 
# 
# High freq. dielectric constant tensor:
#      x y z
#    x 1.874920 0.000000 0.000000 
#    y 0.000000 1.874920 0.000000 
#    z 0.000000 0.000000 1.865750 
# 
# From -- ./inp_files/7762.got.cif
#   From: 2010.03.12/outbox.cif.g09.slc.cpg/sg119_4_cif.got.tgz:7762.got - 2010.04.14 02:25:26.
