data_PCOD8311097
_publ_section_title
;
Structure prediction by ZEFSAII (Michael W. Deem and Ramdas Pophale) SiO2 
 PCOD8311097
Probable space group: I -4 M 2
;
_chemical_formula_sum "Si O2"
_cell_formula_units_Z 56
_cell_length_a 9.643730
_cell_length_b 9.643730
_cell_length_c 35.780685
_cell_angle_alpha 90.000000
_cell_angle_beta 90.000000
_cell_angle_gamma 90.000000
_cell_volume 3327.658389
_symmetry_space_group_name_H-M "I -4 M 2"
_symmetry_group_IT_number 119
_symmetry_cell_setting 'tetragonal'
loop_
_space_group_symop_operation_xyz
x,y,z
y,-x,-z
-x,-y,z
-y,x,-z
y,x,-z
-y,-x,-z
-x,y,z
x,-y,z
1/2+x,1/2+y,1/2+z
1/2+y,1/2-x,1/2-z
1/2-x,1/2-y,1/2+z
1/2-y,1/2+x,1/2-z
1/2+y,1/2+x,1/2-z
1/2-y,1/2-x,1/2-z
1/2-x,1/2+y,1/2+z
1/2+x,1/2-y,1/2+z
loop_
_atom_site_type_symbol
_atom_site_label
_atom_site_fract_x
_atom_site_fract_y
_atom_site_fract_z
Si Si1 0.160080 0.160080 0.500000
Si Si2 0.838935 0.839244 0.858781
Si Si3 0.660095 0.839515 0.929369
Si Si4 0.654349 0.164961 0.209100
O O1 0.207960 0.250666 0.464846
O O2 0.000000 0.187445 0.509913
O O3 0.752586 0.790301 0.894642
O O4 0.780300 0.756096 0.823117
O O5 0.000000 0.806645 0.866447
O O6 0.814111 0.000000 0.850227
O O7 0.500000 0.811342 0.919394
O O8 0.686660 0.000000 0.938855
O O9 0.500000 0.224950 0.201715
O O10 0.711354 0.211354 0.250000
O O11 0.648709 0.000000 0.208952
#
# Coordination Sequence:
#
# PCOD8311097 Si02
#       4
#     8  16  16  16
#     4   9  18  32  48  65  86 112 142 177 214 250
#     4   9  17  29  45  65  88 113 142 177 214 250
#     4   9  18  32  47  63  87 117 143 170 211 259
#     4   8  14  26  44  64  86 113 144 177 213 252
#
# _framework density 16.828651000000001
#
# number of rings (size 3 to 8) (size 9 to 14) (size 15 to 20)
#    0.000    3.286    0.000    0.857    0.000    2.286 
#    0.000    1.429    0.000    1.714    0.000    0.000 
#    0.000    0.000    0.000    0.000    0.000    0.000 
#
# Total GULP energy -347151.309846 kJ/mol
# GULP energy per Si atom -12398.261066 kJ/mol
# Density = 1.679035 g / cm^3
# Si number density = 16.828651 Si / 1000 Ang^3
#
#
#
# Elastic Constant Matrix: (Units=GPa)
#
#
# Indices 1 2 3 4 5 6 
#
# 1 57.3468 34.1359 75.3643 0.0000 0.0000 0.0000
# 2 34.1359 57.3468 75.3643 0.0000 0.0000 0.0000
# 3 75.3643 75.3643 191.1936 0.0000 0.0000 0.0000
# 4 0.0000 0.0000 0.0000 33.2874 0.0000 0.0000
# 5 0.0000 0.0000 0.0000 0.0000 33.2874 0.0000
# 6 0.0000 0.0000 0.0000 0.0000 0.0000 16.3482
#
#
#
# Elastic Compliance Matrix: (Units=1/GPa)
#
#
# Indices 1 2 3 4 5 6 
#
# 1 0.037133 -0.005950 -0.012292 0.000000 0.000000 0.000000
# 2 -0.005950 0.037133 -0.012292 0.000000 0.000000 0.000000
# 3 -0.012292 -0.012292 0.014920 0.000000 0.000000 0.000000
# 4 0.000000 0.000000 0.000000 0.030041 0.000000 0.000000
# 5 0.000000 0.000000 0.000000 0.000000 0.030041 0.000000
# 6 0.000000 0.000000 0.000000 0.000000 0.000000 0.061169
#
#
# Mechanical properties :
#
#
# Convention : Reuss Voigt Hill
#
# Bulk Modulus (GPa) = 35.56206 75.06847 55.31527
# Shear Modulus (GPa) = 17.80132 24.65280 21.22706
#
# Velocity S-wave (km/s) = 3.25591 3.83159 3.55542
# Velocity P-wave (km/s) = 5.94242 8.01743 7.05661
#
# Compressibility (1/GPa) = 0.02811986
#
# Stress axis : x y z
#
# Youngs Moduli (GPa) = 26.93023 26.93023 67.02196
#
# Poissons Ratio (x) = 0.16024 0.82381
# Poissons Ratio (y) = 0.16024 0.82381
# Poissons Ratio (z) = 0.33102 0.33102
#
# Static dielectric constant tensor:
#      x y z
#    x 3.067450 0.000000 0.000000 
#    y 0.000000 3.067450 0.000000 
#    z 0.000000 0.000000 3.383670 
# 
# 
# High freq. dielectric constant tensor:
#      x y z
#    x 1.631450 0.000000 0.000000 
#    y 0.000000 1.631450 0.000000 
#    z 0.000000 0.000000 1.656090 
# 
# From -- ./inp_files/7249.got.cif
#   From: 2010.03.12/outbox.cif.g09.slc.cpg/sg119_4_cif.got.tgz:7249.got - 2010.04.14 02:25:26.
