data_PCOD8311421
_publ_section_title
;
Structure prediction by ZEFSAII (Michael W. Deem and Ramdas Pophale) SiO2 
 PCOD8311421
Probable space group: I -4 2 M
;
_chemical_formula_sum "Si O2"
_cell_formula_units_Z 80
_cell_length_a 18.927606
_cell_length_b 18.927606
_cell_length_c 13.267781
_cell_angle_alpha 90.000000
_cell_angle_beta 90.000000
_cell_angle_gamma 90.000000
_cell_volume 4753.239182
_symmetry_space_group_name_H-M "I -4 2 M"
_symmetry_group_IT_number 121
_symmetry_cell_setting 'tetragonal'
loop_
_space_group_symop_operation_xyz
x,y,z
y,-x,-z
-x,-y,z
-y,x,-z
x,-y,-z
-x,y,-z
-y,-x,z
y,x,z
1/2+x,1/2+y,1/2+z
1/2+y,1/2-x,1/2-z
1/2-x,1/2-y,1/2+z
1/2-y,1/2+x,1/2-z
1/2+x,1/2-y,1/2-z
1/2-x,1/2+y,1/2-z
1/2-y,1/2-x,1/2+z
1/2+y,1/2+x,1/2+z
loop_
_atom_site_type_symbol
_atom_site_label
_atom_site_fract_x
_atom_site_fract_y
_atom_site_fract_z
Si Si1 0.638716 0.244390 0.675679
Si Si2 0.841437 0.045915 0.692295
Si Si3 0.851871 0.966545 0.892600
Si Si4 0.785669 0.095894 0.384309
Si Si5 0.644414 0.240659 0.088280
O O1 0.707156 0.292845 0.688246
O O2 0.580522 0.280749 0.603495
O O3 0.604810 0.234523 0.787067
O O4 0.663006 0.169886 0.626147
O O5 0.913312 0.086689 0.658564
O O6 0.774957 0.098062 0.677139
O O7 0.845434 0.028109 0.810435
O O8 0.829349 0.977217 0.623229
O O9 0.917610 0.917610 0.860243
O O10 0.866345 0.000000 0.000000
O O11 0.843633 0.156368 0.387615
O O12 0.737209 0.098494 0.484843
O O13 0.713314 0.286687 0.064013
#
# Coordination Sequence:
#
# PCOD8311421 Si02
#       5
#    16  16  16  16  16
#     4   8  16  30  45  62  86 116 151 193 234 268
#     4  10  19  29  43  65  93 123 156 189 220 269
#     4  10  20  32  46  66  94 127 160 192 228 276
#     4   9  17  29  44  63  90 121 151 184 224 275
#     4   9  17  29  45  64  86 116 153 192 233 268
#
# _framework density 16.830628000000001
#
# number of rings (size 3 to 8) (size 9 to 14) (size 15 to 20)
#    0.000    2.800    0.000    3.000    0.000    4.200 
#    0.000    7.000    0.000    7.200    0.000    0.000 
#    0.000   41.600    0.000    0.000    0.000    0.000 
#
# Total GULP energy -495728.667210 kJ/mol
# GULP energy per Si atom -12393.216680 kJ/mol
# Density = 1.679232 g / cm^3
# Si number density = 16.830628 Si / 1000 Ang^3
#
#
#
# Elastic Constant Matrix: (Units=GPa)
#
#
# Indices 1 2 3 4 5 6 
#
# 1 51.8834 49.1676 37.8587 0.0000 0.0000 0.0000
# 2 49.1676 51.8873 37.8577 0.0000 0.0000 0.0000
# 3 37.8587 37.8577 93.5366 0.0000 0.0000 0.0000
# 4 0.0000 0.0000 0.0000 21.8709 0.0000 0.0000
# 5 0.0000 0.0000 0.0000 0.0000 21.8707 0.0000
# 6 0.0000 0.0000 0.0000 0.0000 0.0000 30.1882
#
#
#
# Elastic Compliance Matrix: (Units=1/GPa)
#
#
# Indices 1 2 3 4 5 6 
#
# 1 0.191085 -0.176870 -0.005755 0.000000 0.000000 0.000000
# 2 -0.176870 0.191061 -0.005742 0.000000 0.000000 0.000000
# 3 -0.005755 -0.005742 0.015344 0.000000 0.000000 0.000000
# 4 0.000000 0.000000 0.000000 0.045723 0.000000 0.000000
# 5 0.000000 0.000000 0.000000 0.000000 0.045723 0.000000
# 6 0.000000 0.000000 0.000000 0.000000 0.000000 0.033126
#
#
# Mechanical properties :
#
#
# Convention : Reuss Voigt Hill
#
# Bulk Modulus (GPa) = 48.17836 49.67503 48.92669
# Shear Modulus (GPa) = 5.52050 19.61418 12.56734
#
# Velocity S-wave (km/s) = 1.81305 3.41748 2.73554
# Velocity P-wave (km/s) = 5.75069 6.71945 6.25385
#
# Compressibility (1/GPa) = 0.02075620
#
# Stress axis : x y z
#
# Youngs Moduli (GPa) = 5.23327 5.23394 65.17048
#
# Poissons Ratio (x) = 0.92573 0.37508
# Poissons Ratio (y) = 0.92561 0.37419
# Poissons Ratio (z) = 0.03012 0.03005
#
# Static dielectric constant tensor:
#      x y z
#    x 3.083250 0.000000 0.000000 
#    y 0.000000 3.083240 0.000000 
#    z 0.000000 0.000000 3.433380 
# 
# 
# High freq. dielectric constant tensor:
#      x y z
#    x 1.619460 0.000000 0.000000 
#    y 0.000000 1.619460 0.000000 
#    z 0.000000 0.000000 1.656880 
# 
# From -- ./inp_files/4271.got.cif
#   From: 2010.03.12/outbox.cif.g09.slc.cpg/sg121_3_cif.got.tgz:4271.got - 2010.04.06 16:06:48.
