data_PCOD8311594
_publ_section_title
;
Structure prediction by ZEFSAII (Michael W. Deem and Ramdas Pophale) SiO2 
 PCOD8311594
Probable space group: I -4 2 M
;
_chemical_formula_sum "Si O2"
_cell_formula_units_Z 48
_cell_length_a 21.617381
_cell_length_b 21.617381
_cell_length_c 5.056146
_cell_angle_alpha 90.000000
_cell_angle_beta 90.000000
_cell_angle_gamma 90.000000
_cell_volume 2362.793459
_symmetry_space_group_name_H-M "I -4 2 M"
_symmetry_group_IT_number 121
_symmetry_cell_setting 'tetragonal'
loop_
_space_group_symop_operation_xyz
x,y,z
y,-x,-z
-x,-y,z
-y,x,-z
x,-y,-z
-x,y,-z
-y,-x,z
y,x,z
1/2+x,1/2+y,1/2+z
1/2+y,1/2-x,1/2-z
1/2-x,1/2-y,1/2+z
1/2-y,1/2+x,1/2-z
1/2+x,1/2-y,1/2-z
1/2-x,1/2+y,1/2-z
1/2-y,1/2-x,1/2+z
1/2+y,1/2+x,1/2+z
loop_
_atom_site_type_symbol
_atom_site_label
_atom_site_fract_x
_atom_site_fract_y
_atom_site_fract_z
Si Si1 0.383754 0.933966 0.076245
Si Si2 0.925871 0.925871 0.496630
Si Si3 0.720452 0.835007 0.960756
Si Si4 0.138784 0.861217 0.006843
O O1 0.412158 0.936092 0.368574
O O2 0.325621 0.891085 0.042778
O O3 0.357900 0.000000 0.000000
O O4 0.894595 0.894595 0.749760
O O5 0.000000 0.913355 0.500000
O O6 0.892799 0.892799 0.248283
O O7 0.712096 0.793105 0.700642
O O8 0.786867 0.868681 0.983718
#
# Coordination Sequence:
#
# PCOD8311594 Si02
#       4
#    16   8  16   8
#     4  10  21  35  52  77 111 149 189 236 283 332
#     4  11  26  45  62  89 126 157 200 261 308 353
#     4  10  21  38  59  90 125 151 189 249 300 346
#     4  12  22  40  70  91 112 163 204 232 306 388
#
# _framework density 20.314938999999999
#
# number of rings (size 3 to 8) (size 9 to 14) (size 15 to 20)
#    0.000    1.500    0.000    5.000    0.000    6.000 
#    0.000    0.000    0.000    0.000    0.000    0.000 
#    0.000    0.000    0.000    0.000    0.000    0.000 
#
# Total GULP energy -297358.729343 kJ/mol
# GULP energy per Si atom -12389.947056 kJ/mol
# Density = 2.026870 g / cm^3
# Si number density = 20.314939 Si / 1000 Ang^3
#
#
#
# Elastic Constant Matrix: (Units=GPa)
#
#
# Indices 1 2 3 4 5 6 
#
# 1 161.4918 6.5774 51.5024 0.0000 0.0000 0.0000
# 2 6.5774 161.4890 51.5010 0.0000 0.0000 0.0000
# 3 51.5024 51.5010 153.5264 0.0000 0.0000 0.0000
# 4 0.0000 0.0000 0.0000 23.9412 0.0000 0.0000
# 5 0.0000 0.0000 0.0000 0.0000 23.9422 0.0000
# 6 0.0000 0.0000 0.0000 0.0000 0.0000 29.0709
#
#
#
# Elastic Compliance Matrix: (Units=1/GPa)
#
#
# Indices 1 2 3 4 5 6 
#
# 1 0.006972 0.000517 -0.002513 0.000000 0.000000 0.000000
# 2 0.000517 0.006973 -0.002513 0.000000 0.000000 0.000000
# 3 -0.002513 -0.002513 0.008199 0.000000 0.000000 0.000000
# 4 0.000000 0.000000 0.000000 0.041769 0.000000 0.000000
# 5 0.000000 0.000000 0.000000 0.000000 0.041767 0.000000
# 6 0.000000 0.000000 0.000000 0.000000 0.000000 0.034399
#
#
# Mechanical properties :
#
#
# Convention : Reuss Voigt Hill
#
# Bulk Modulus (GPa) = 76.16850 77.29654 76.73252
# Shear Modulus (GPa) = 32.57946 39.85263 36.21604
#
# Velocity S-wave (km/s) = 4.00899 4.43396 4.22682
# Velocity P-wave (km/s) = 7.68144 8.02154 7.85333
#
# Compressibility (1/GPa) = 0.01312879
#
# Stress axis : x y z
#
# Youngs Moduli (GPa) = 143.42088 143.41899 121.96261
#
# Poissons Ratio (x) = -0.07419 0.30644
# Poissons Ratio (y) = -0.07419 0.30643
# Poissons Ratio (z) = 0.36035 0.36034
#
# Static dielectric constant tensor:
#      x y z
#    x 3.768260 0.000000 0.000000 
#    y 0.000000 3.768300 0.000000 
#    z 0.000000 0.000000 4.320980 
# 
# 
# High freq. dielectric constant tensor:
#      x y z
#    x 1.803050 0.000000 0.000000 
#    y 0.000000 1.803060 0.000000 
#    z 0.000000 0.000000 1.815400 
# 
# From -- ./inp_files/325.got.cif
#   From: 2010.03.12/outbox.cif.g09.slc.cpg/sg121_1_cif.got.tgz:325.got - 2010.04.06 16:06:48.
