data_PCOD8311184
_publ_section_title
;
Structure prediction by ZEFSAII (Michael W. Deem and Ramdas Pophale) SiO2 
 PCOD8311184
Probable space group: I -4 C 2
;
_chemical_formula_sum "Si O2"
_cell_formula_units_Z 112
_cell_length_a 14.491128
_cell_length_b 14.491128
_cell_length_c 25.419730
_cell_angle_alpha 90.000000
_cell_angle_beta 90.000000
_cell_angle_gamma 90.000000
_cell_volume 5337.960042
_symmetry_space_group_name_H-M "I -4 C 2"
_symmetry_group_IT_number 120
_symmetry_cell_setting 'tetragonal'
loop_
_space_group_symop_operation_xyz
x,y,z
y,-x,-z
-x,-y,z
-y,x,-z
y,x,1/2-z
-y,-x,1/2-z
-x,y,1/2+z
x,-y,1/2+z
1/2+x,1/2+y,1/2+z
1/2+y,1/2-x,1/2-z
1/2-x,1/2-y,1/2+z
1/2-y,1/2+x,1/2-z
1/2+y,1/2+x,-z
1/2-y,1/2-x,-z
1/2-x,1/2+y,z
1/2+x,1/2-y,z
loop_
_atom_site_type_symbol
_atom_site_label
_atom_site_fract_x
_atom_site_fract_y
_atom_site_fract_z
Si Si1 0.093112 0.943411 0.806943
Si Si2 0.200229 0.117953 0.801414
Si Si3 0.787712 0.375261 0.640978
Si Si4 0.309233 0.266330 0.552172
Si Si5 0.460140 0.638414 0.991903
Si Si6 0.210267 0.945754 0.608709
Si Si7 0.617584 0.906286 0.744739
O O1 0.105477 0.894524 0.750000
O O2 0.090368 0.867193 0.851775
O O3 0.178127 0.012791 0.818203
O O4 0.000000 0.000000 0.808919
O O5 0.138742 0.138742 0.750000
O O6 0.169311 0.187719 0.846971
O O7 0.309290 0.127715 0.788887
O O8 0.822048 0.324320 0.588260
O O9 0.785255 0.488141 0.636745
O O10 0.857406 0.357178 0.689305
O O11 0.250559 0.249442 0.500000
O O12 0.412200 0.292327 0.533082
O O13 0.255528 0.350843 0.581633
O O14 0.481130 0.676919 0.934724
O O15 0.553358 0.607549 0.020452
O O16 0.516702 0.875072 0.762151
#
# Coordination Sequence:
#
# PCOD8311184 Si02
#       7
#    16  16  16  16  16  16  16
#     4  11  19  34  58  97 133 161 194 254 334 401
#     4  10  20  38  60  92 133 167 207 273 324 383
#     4  11  23  41  64  96 128 170 217 272 328 395
#     4  11  24  42  60  94 131 168 218 274 331 388
#     4   9  20  38  63  93 124 164 212 275 337 391
#     4  11  23  38  67  92 132 173 210 269 336 398
#     4  10  24  45  64  87 131 179 225 265 309 395
#
# _framework density 20.9818
#
# number of rings (size 3 to 8) (size 9 to 14) (size 15 to 20)
#    0.000    1.571    4.286    0.857    8.000    0.000 
#    0.000    0.000    0.000    0.000    0.000    0.000 
#    0.000    0.000    0.000    0.000    0.000    0.000 
#
# Total GULP energy -694138.722359 kJ/mol
# GULP energy per Si atom -12395.334328 kJ/mol
# Density = 2.093404 g / cm^3
# Si number density = 20.981800 Si / 1000 Ang^3
#
#
#
# Elastic Constant Matrix: (Units=GPa)
#
#
# Indices 1 2 3 4 5 6 
#
# 1 71.8737 23.5171 31.3372 0.0000 0.0000 0.0000
# 2 23.5171 71.8735 31.3373 0.0000 0.0000 0.0000
# 3 31.3372 31.3373 97.1704 0.0000 0.0000 0.0000
# 4 0.0000 0.0000 0.0000 15.9516 0.0000 0.0000
# 5 0.0000 0.0000 0.0000 0.0000 15.9498 0.0000
# 6 0.0000 0.0000 0.0000 0.0000 0.0000 30.4017
#
#
#
# Elastic Compliance Matrix: (Units=1/GPa)
#
#
# Indices 1 2 3 4 5 6 
#
# 1 0.016991 -0.003689 -0.004290 0.000000 0.000000 0.000000
# 2 -0.003689 0.016991 -0.004290 0.000000 0.000000 0.000000
# 3 -0.004290 -0.004290 0.013058 0.000000 0.000000 0.000000
# 4 0.000000 0.000000 0.000000 0.062690 0.000000 0.000000
# 5 0.000000 0.000000 0.000000 0.000000 0.062697 0.000000
# 6 0.000000 0.000000 0.000000 0.000000 0.000000 0.032893
#
#
# Mechanical properties :
#
#
# Convention : Reuss Voigt Hill
#
# Bulk Modulus (GPa) = 44.43967 45.92230 45.18098
# Shear Modulus (GPa) = 21.06532 22.77568 21.92050
#
# Velocity S-wave (km/s) = 3.17200 3.29826 3.23575
# Velocity P-wave (km/s) = 5.88571 6.03647 5.96156
#
# Compressibility (1/GPa) = 0.02250242
#
# Stress axis : x y z
#
# Youngs Moduli (GPa) = 58.85577 58.85547 76.58092
#
# Poissons Ratio (x) = 0.21712 0.32851
# Poissons Ratio (y) = 0.21712 0.32852
# Poissons Ratio (z) = 0.25248 0.25248
#
# Static dielectric constant tensor:
#      x y z
#    x 3.900280 0.000000 0.000000 
#    y 0.000000 3.900300 0.000000 
#    z 0.000000 0.000000 3.939900 
# 
# 
# High freq. dielectric constant tensor:
#      x y z
#    x 1.808740 0.000000 0.000000 
#    y 0.000000 1.808740 0.000000 
#    z 0.000000 0.000000 1.828880 
# 
# From -- ./inp_files/5926.got.cif
#   From: 2010.03.12/outbox.cif.g09.slc.cpg/sg120_3_cif.got.tgz:5926.got - 2010.04.06 16:00:44.
