data_PCOD8311684
_publ_section_title
;
Structure prediction by ZEFSAII (Michael W. Deem and Ramdas Pophale) SiO2 
 PCOD8311684
Probable space group: I -4 2 M
;
_chemical_formula_sum "Si O2"
_cell_formula_units_Z 84
_cell_length_a 21.503049
_cell_length_b 21.503049
_cell_length_c 10.028181
_cell_angle_alpha 90.000000
_cell_angle_beta 90.000000
_cell_angle_gamma 90.000000
_cell_volume 4636.841525
_symmetry_space_group_name_H-M "I -4 2 M"
_symmetry_group_IT_number 121
_symmetry_cell_setting 'tetragonal'
loop_
_space_group_symop_operation_xyz
x,y,z
y,-x,-z
-x,-y,z
-y,x,-z
x,-y,-z
-x,y,-z
-y,-x,z
y,x,z
1/2+x,1/2+y,1/2+z
1/2+y,1/2-x,1/2-z
1/2-x,1/2-y,1/2+z
1/2-y,1/2+x,1/2-z
1/2+x,1/2-y,1/2-z
1/2-x,1/2+y,1/2-z
1/2-y,1/2-x,1/2+z
1/2+y,1/2+x,1/2+z
loop_
_atom_site_type_symbol
_atom_site_label
_atom_site_fract_x
_atom_site_fract_y
_atom_site_fract_z
Si Si1 0.500000 0.500000 0.833212
Si Si2 0.347009 0.243278 0.021145
Si Si3 0.243853 0.143595 0.013950
Si Si4 0.269119 0.433902 0.268225
Si Si5 0.405012 0.405012 0.228703
Si Si6 0.073687 0.223414 0.284041
Si Si7 0.904823 0.095178 0.579489
O O1 0.456931 0.543070 0.740968
O O2 0.542841 0.542841 0.926627
O O3 0.305440 0.305440 0.003587
O O4 0.391758 0.247881 0.146508
O O5 0.305278 0.182992 0.045353
O O6 0.388249 0.233911 0.888092
O O7 0.189766 0.189766 0.960254
O O8 0.261977 0.092461 0.903046
O O9 0.220138 0.110676 0.146845
O O10 0.342586 0.429915 0.296211
O O11 0.248787 0.504929 0.240581
O O12 0.390124 0.390124 0.073740
O O13 0.067305 0.154998 0.346855
#
# Coordination Sequence:
#
# PCOD8311684 Si02
#       7
#     4  16  16  16   8  16   8
#     4  12  25  32  52  77 118 165 204 257 246 285
#     4  11  21  38  60  82 106 146 197 241 284 327
#     4  11  23  38  56  80 114 152 185 231 296 341
#     4  12  22  36  56  81 115 145 192 235 277 327
#     4  12  21  33  50  80 109 150 204 239 265 297
#     4  12  22  36  56  81 115 145 192 235 277 327
#     4  12  21  33  50  80 109 150 204 239 265 297
#
# _framework density 18.115780000000001
#
# number of rings (size 3 to 8) (size 9 to 14) (size 15 to 20)
#    0.000    0.381    7.619    3.143    0.000    3.048 
#    0.000    0.000    0.000    1.143    0.000    0.000 
#    0.000   53.333    0.000    0.000    0.000    0.000 
#
# Total GULP energy -520940.579174 kJ/mol
# GULP energy per Si atom -12403.347123 kJ/mol
# Density = 1.807455 g / cm^3
# Si number density = 18.115780 Si / 1000 Ang^3
#
#
#
# Elastic Constant Matrix: (Units=GPa)
#
#
# Indices 1 2 3 4 5 6 
#
# 1 83.6144 39.4373 23.4704 0.0000 0.0000 0.0000
# 2 39.4373 83.6148 23.4707 0.0000 0.0000 0.0000
# 3 23.4704 23.4707 89.4860 0.0000 0.0000 0.0000
# 4 0.0000 0.0000 0.0000 22.1119 0.0000 0.0000
# 5 0.0000 0.0000 0.0000 0.0000 22.1118 0.0000
# 6 0.0000 0.0000 0.0000 0.0000 0.0000 24.1383
#
#
#
# Elastic Compliance Matrix: (Units=1/GPa)
#
#
# Indices 1 2 3 4 5 6 
#
# 1 0.015833 -0.006803 -0.002368 0.000000 0.000000 0.000000
# 2 -0.006803 0.015833 -0.002368 0.000000 0.000000 0.000000
# 3 -0.002368 -0.002368 0.012417 0.000000 0.000000 0.000000
# 4 0.000000 0.000000 0.000000 0.045225 0.000000 0.000000
# 5 0.000000 0.000000 0.000000 0.000000 0.045225 0.000000
# 6 0.000000 0.000000 0.000000 0.000000 0.000000 0.041428
#
#
# Mechanical properties :
#
#
# Convention : Reuss Voigt Hill
#
# Bulk Modulus (GPa) = 47.61032 47.71913 47.66472
# Shear Modulus (GPa) = 24.26693 25.02818 24.64755
#
# Velocity S-wave (km/s) = 3.66395 3.72098 3.69257
# Velocity P-wave (km/s) = 6.65113 6.69771 6.67446
#
# Compressibility (1/GPa) = 0.02100385
#
# Stress axis : x y z
#
# Youngs Moduli (GPa) = 63.15869 63.15889 80.53261
#
# Poissons Ratio (x) = 0.42967 0.19073
# Poissons Ratio (y) = 0.42967 0.19074
# Poissons Ratio (z) = 0.14959 0.14959
#
# Static dielectric constant tensor:
#      x y z
#    x 3.341850 0.000000 0.000000 
#    y 0.000000 3.341840 0.000000 
#    z 0.000000 0.000000 3.319280 
# 
# 
# High freq. dielectric constant tensor:
#      x y z
#    x 1.687520 0.000000 0.000000 
#    y 0.000000 1.687520 0.000000 
#    z 0.000000 0.000000 1.708300 
# 
# From -- ./inp_files/3262.got.cif
#   From: 2010.03.12/outbox.cif.g09.slc.cpg/sg121_2_cif.got.tgz:3262.got - 2010.04.06 16:06:48.
