data_PCOD8311651
_publ_section_title
;
Structure prediction by ZEFSAII (Michael W. Deem and Ramdas Pophale) SiO2 
 PCOD8311651
Probable space group: I -4 2 M
;
_chemical_formula_sum "Si O2"
_cell_formula_units_Z 48
_cell_length_a 10.163518
_cell_length_b 10.163518
_cell_length_c 23.131648
_cell_angle_alpha 90.000000
_cell_angle_beta 90.000000
_cell_angle_gamma 90.000000
_cell_volume 2389.432114
_symmetry_space_group_name_H-M "I -4 2 M"
_symmetry_group_IT_number 121
_symmetry_cell_setting 'tetragonal'
loop_
_space_group_symop_operation_xyz
x,y,z
y,-x,-z
-x,-y,z
-y,x,-z
x,-y,-z
-x,y,-z
-y,-x,z
y,x,z
1/2+x,1/2+y,1/2+z
1/2+y,1/2-x,1/2-z
1/2-x,1/2-y,1/2+z
1/2-y,1/2+x,1/2-z
1/2+x,1/2-y,1/2-z
1/2-x,1/2+y,1/2-z
1/2-y,1/2-x,1/2+z
1/2+y,1/2+x,1/2+z
loop_
_atom_site_type_symbol
_atom_site_label
_atom_site_fract_x
_atom_site_fract_y
_atom_site_fract_z
Si Si1 0.638346 0.862708 0.527449
Si Si2 0.360575 0.853112 0.842081
Si Si3 0.000484 0.211689 0.749830
O O1 0.500000 0.815060 0.500000
O O2 0.748364 0.748364 0.519856
O O3 0.602979 0.898262 0.593820
O O4 0.689409 0.000000 0.500000
O O5 0.280502 0.719499 0.848536
O O6 0.486600 0.819631 0.801496
O O7 0.277397 0.967126 0.811053
O O8 0.138645 0.138645 0.760261
O O9 0.887158 0.112843 0.729578
#
# Coordination Sequence:
#
# PCOD8311651 Si02
#       3
#    16  16  16
#     4  10  23  41  59  84 117 153 197 242 282 334
#     4   9  19  35  54  79 109 140 180 228 277 333
#     4   9  18  33  54  80 108 137 172 221 282 342
#
# _framework density 20.088453999999999
#
# number of rings (size 3 to 8) (size 9 to 14) (size 15 to 20)
#    0.000    2.667    0.000    0.000    0.000    9.333 
#    0.000   10.000    0.000    0.000    0.000    0.000 
#    0.000    0.000    0.000    0.000    0.000    0.000 
#
# Total GULP energy -297413.628719 kJ/mol
# GULP energy per Si atom -12392.234530 kJ/mol
# Density = 2.004273 g / cm^3
# Si number density = 20.088454 Si / 1000 Ang^3
#
#
#
# Elastic Constant Matrix: (Units=GPa)
#
#
# Indices 1 2 3 4 5 6 
#
# 1 91.6766 45.0843 51.3460 0.0000 0.0000 0.0000
# 2 45.0843 91.6787 51.3470 0.0000 0.0000 0.0000
# 3 51.3460 51.3470 185.2002 0.0000 0.0000 0.0000
# 4 0.0000 0.0000 0.0000 27.8018 0.0000 0.0000
# 5 0.0000 0.0000 0.0000 0.0000 27.8022 0.0000
# 6 0.0000 0.0000 0.0000 0.0000 0.0000 40.0895
#
#
#
# Elastic Compliance Matrix: (Units=1/GPa)
#
#
# Indices 1 2 3 4 5 6 
#
# 1 0.015349 -0.006114 -0.002560 0.000000 0.000000 0.000000
# 2 -0.006114 0.015348 -0.002560 0.000000 0.000000 0.000000
# 3 -0.002560 -0.002560 0.006819 0.000000 0.000000 0.000000
# 4 0.000000 0.000000 0.000000 0.035969 0.000000 0.000000
# 5 0.000000 0.000000 0.000000 0.000000 0.035968 0.000000
# 6 0.000000 0.000000 0.000000 0.000000 0.000000 0.024944
#
#
# Mechanical properties :
#
#
# Convention : Reuss Voigt Hill
#
# Bulk Modulus (GPa) = 66.45787 73.79001 70.12394
# Shear Modulus (GPa) = 30.88673 33.85726 32.37200
#
# Velocity S-wave (km/s) = 3.92540 4.10983 4.01867
# Velocity P-wave (km/s) = 7.32799 7.70280 7.51773
#
# Compressibility (1/GPa) = 0.01504713
#
# Stress axis : x y z
#
# Youngs Moduli (GPa) = 65.15291 65.15419 146.64472
#
# Poissons Ratio (x) = 0.39835 0.37544
# Poissons Ratio (y) = 0.39834 0.37545
# Poissons Ratio (z) = 0.16681 0.16681
#
# Static dielectric constant tensor:
#      x y z
#    x 3.642960 0.000000 0.000000 
#    y 0.000000 3.642960 0.000000 
#    z 0.000000 0.000000 3.965440 
# 
# 
# High freq. dielectric constant tensor:
#      x y z
#    x 1.784660 0.000000 0.000000 
#    y 0.000000 1.784660 0.000000 
#    z 0.000000 0.000000 1.787000 
# 
# From -- ./inp_files/4902.got.cif
#   From: 2010.03.12/outbox.cif.g09.slc.cpg/sg121_3_cif.got.tgz:4902.got - 2010.04.06 16:06:48.
