data_PCOD8311805
_publ_section_title
;
Structure prediction by ZEFSAII (Michael W. Deem and Ramdas Pophale) SiO2 
 PCOD8311805
Probable space group: I -4 2 D
;
_chemical_formula_sum "Si O2"
_cell_formula_units_Z 76
_cell_length_a 14.642291
_cell_length_b 14.642291
_cell_length_c 20.618501
_cell_angle_alpha 90.000000
_cell_angle_beta 90.000000
_cell_angle_gamma 90.000000
_cell_volume 4420.538279
_symmetry_space_group_name_H-M "I -4 2 D"
_symmetry_group_IT_number 122
_symmetry_cell_setting 'tetragonal'
loop_
_space_group_symop_operation_xyz
x,y,z
y,-x,-z
-x,-y,z
-y,x,-z
x,1/2-y,1/4-z
-x,1/2+y,1/4-z
-y,1/2-x,1/4+z
y,1/2+x,1/4+z
1/2+x,1/2+y,1/2+z
1/2+y,1/2-x,1/2-z
1/2-x,1/2-y,1/2+z
1/2-y,1/2+x,1/2-z
1/2+x,-y,3/4-z
1/2-x,y,3/4-z
1/2-y,-x,3/4+z
1/2+y,x,3/4+z
loop_
_atom_site_type_symbol
_atom_site_label
_atom_site_fract_x
_atom_site_fract_y
_atom_site_fract_z
Si Si1 0.000000 0.500000 0.250000
Si Si2 0.757168 0.859830 0.018938
Si Si3 0.373757 0.576411 0.987997
Si Si4 0.663555 0.756747 0.913652
Si Si5 0.250000 0.851123 0.375000
Si Si6 0.058956 0.317178 0.294144
O O1 0.034641 0.423401 0.299330
O O2 0.714141 0.816155 0.083364
O O3 0.761416 0.969729 0.021949
O O4 0.691415 0.843417 0.957523
O O5 0.855444 0.809894 0.006056
O O6 0.316132 0.585883 0.920489
O O7 0.474045 0.620380 0.984095
O O8 0.326321 0.634597 0.042696
O O9 0.750000 0.719037 0.875000
O O10 0.582666 0.785282 0.866075
#
# Coordination Sequence:
#
# PCOD8311805 Si02
#       6
#     4  16  16  16   8  16
#     4   8  16  28  48  72 100 132 164 200 258 288
#     4   9  18  32  50  76 100 137 171 213 264 307
#     4  10  21  35  55  79 102 140 177 218 273 317
#     4   9  18  32  53  72 100 135 171 210 260 312
#     4  10  20  36  54  78 108 136 180 226 262 332
#     4   9  16  32  49  72 104 133 169 211 253 316
#
# _framework density 17.192477
#
# number of rings (size 3 to 8) (size 9 to 14) (size 15 to 20)
#    0.000    2.737    0.000    1.263    1.474    0.000 
#   13.263    0.000    0.000    5.053    0.000    0.000 
#    0.000    0.000    0.000    0.000    0.000    0.000 
#
# Total GULP energy -470875.440209 kJ/mol
# GULP energy per Si atom -12391.458953 kJ/mol
# Density = 1.715335 g / cm^3
# Si number density = 17.192477 Si / 1000 Ang^3
#
#
#
# Elastic Constant Matrix: (Units=GPa)
#
#
# Indices 1 2 3 4 5 6 
#
# 1 89.6452 45.4381 47.5566 0.0000 0.0000 0.0000
# 2 45.4381 89.6452 47.5566 0.0000 0.0000 0.0000
# 3 47.5566 47.5566 103.3119 0.0000 0.0000 0.0000
# 4 0.0000 0.0000 0.0000 24.0244 0.0000 0.0000
# 5 0.0000 0.0000 0.0000 0.0000 24.0244 0.0000
# 6 0.0000 0.0000 0.0000 0.0000 0.0000 27.1239
#
#
#
# Elastic Compliance Matrix: (Units=1/GPa)
#
#
# Indices 1 2 3 4 5 6 
#
# 1 0.016787 -0.005834 -0.005042 0.000000 0.000000 0.000000
# 2 -0.005834 0.016787 -0.005042 0.000000 0.000000 0.000000
# 3 -0.005042 -0.005042 0.014321 0.000000 0.000000 0.000000
# 4 0.000000 0.000000 0.000000 0.041624 0.000000 0.000000
# 5 0.000000 0.000000 0.000000 0.000000 0.041624 0.000000
# 6 0.000000 0.000000 0.000000 0.000000 0.000000 0.036868
#
#
# Mechanical properties :
#
#
# Convention : Reuss Voigt Hill
#
# Bulk Modulus (GPa) = 62.26835 62.63389 62.45112
# Shear Modulus (GPa) = 24.36652 24.50462 24.43557
#
# Velocity S-wave (km/s) = 3.76876 3.77942 3.77410
# Velocity P-wave (km/s) = 7.43203 7.45355 7.44280
#
# Compressibility (1/GPa) = 0.01605952
#
# Stress axis : x y z
#
# Youngs Moduli (GPa) = 59.57055 59.57055 69.82697
#
# Poissons Ratio (x) = 0.34753 0.35205
# Poissons Ratio (y) = 0.34753 0.35205
# Poissons Ratio (z) = 0.30034 0.30034
#
# Static dielectric constant tensor:
#      x y z
#    x 3.295540 0.000000 0.000000 
#    y 0.000000 3.295540 0.000000 
#    z 0.000000 0.000000 3.278600 
# 
# 
# High freq. dielectric constant tensor:
#      x y z
#    x 1.664980 0.000000 0.000000 
#    y 0.000000 1.664980 0.000000 
#    z 0.000000 0.000000 1.662930 
# 
# From -- ./inp_files/7094.got.cif
#   From: 2010.03.12/outbox.cif.g09.slc.cpg/sg122_4_cif.got.tgz:7094.got - 2010.04.06 16:17:16.
