data_PCOD8311382
_publ_section_title
;
Structure prediction by ZEFSAII (Michael W. Deem and Ramdas Pophale) SiO2 
 PCOD8311382
Probable space group: I -4 2 M
;
_chemical_formula_sum "Si O2"
_cell_formula_units_Z 58
_cell_length_a 18.992585
_cell_length_b 18.992585
_cell_length_c 8.379643
_cell_angle_alpha 90.000000
_cell_angle_beta 90.000000
_cell_angle_gamma 90.000000
_cell_volume 3022.690452
_symmetry_space_group_name_H-M "I -4 2 M"
_symmetry_group_IT_number 121
_symmetry_cell_setting 'tetragonal'
loop_
_space_group_symop_operation_xyz
x,y,z
y,-x,-z
-x,-y,z
-y,x,-z
x,-y,-z
-x,y,-z
-y,-x,z
y,x,z
1/2+x,1/2+y,1/2+z
1/2+y,1/2-x,1/2-z
1/2-x,1/2-y,1/2+z
1/2-y,1/2+x,1/2-z
1/2+x,1/2-y,1/2-z
1/2-x,1/2+y,1/2-z
1/2-y,1/2-x,1/2+z
1/2+y,1/2+x,1/2+z
loop_
_atom_site_type_symbol
_atom_site_label
_atom_site_fract_x
_atom_site_fract_y
_atom_site_fract_z
Si Si1 0.987605 0.800252 0.816121
Si Si2 0.944206 0.055794 0.290311
Si Si3 0.000000 0.000000 0.000000
Si Si4 0.645892 0.761768 0.196008
Si Si5 0.247793 0.868050 0.672798
O O1 0.966845 0.863019 0.686796
O O2 0.923160 0.745352 0.807007
O O3 0.056608 0.763377 0.750320
O O4 0.000000 0.823406 0.000000
O O5 0.000000 0.000000 0.372792
O O6 0.949751 0.050249 0.099910
O O7 0.695724 0.695724 0.234748
O O8 0.685487 0.833409 0.240378
O O9 0.623774 0.764864 0.012539
O O10 0.177714 0.822287 0.701053
#
# Coordination Sequence:
#
# PCOD8311382 Si02
#       5
#    16   8   2  16  16
#     4  12  21  33  58  83 117 155 193 237 291 344
#     4  10  18  30  48  76 119 152 192 221 276 344
#     4   8  16  32  40  72 118 152 184 228 258 336
#     4  10  21  39  56  82 113 151 199 245 289 346
#     4  10  22  37  58  81 114 152 197 245 294 341
#
# _framework density 19.188203999999999
#
# number of rings (size 3 to 8) (size 9 to 14) (size 15 to 20)
#    0.414    1.103    2.759    3.310    1.931    2.207 
#    0.000    0.000    0.000    0.828    0.000    5.793 
#    0.000    0.000    0.000    0.000    0.000    0.000 
#
# Total GULP energy -359353.712659 kJ/mol
# GULP energy per Si atom -12391.507333 kJ/mol
# Density = 1.914453 g / cm^3
# Si number density = 19.188204 Si / 1000 Ang^3
#
#
#
# Elastic Constant Matrix: (Units=GPa)
#
#
# Indices 1 2 3 4 5 6 
#
# 1 122.2057 63.2152 35.4666 0.0000 0.0000 0.0000
# 2 63.2152 122.2064 35.4662 0.0000 0.0000 0.0000
# 3 35.4666 35.4662 71.5095 0.0000 0.0000 0.0000
# 4 0.0000 0.0000 0.0000 24.0769 0.0000 0.0000
# 5 0.0000 0.0000 0.0000 0.0000 24.0779 0.0000
# 6 0.0000 0.0000 0.0000 0.0000 0.0000 27.9455
#
#
#
# Elastic Compliance Matrix: (Units=1/GPa)
#
#
# Indices 1 2 3 4 5 6 
#
# 1 0.011804 -0.005148 -0.003301 0.000000 0.000000 0.000000
# 2 -0.005148 0.011804 -0.003301 0.000000 0.000000 0.000000
# 3 -0.003301 -0.003301 0.017259 0.000000 0.000000 0.000000
# 4 0.000000 0.000000 0.000000 0.041534 0.000000 0.000000
# 5 0.000000 0.000000 0.000000 0.000000 0.041532 0.000000
# 6 0.000000 0.000000 0.000000 0.000000 0.000000 0.035784
#
#
# Mechanical properties :
#
#
# Convention : Reuss Voigt Hill
#
# Bulk Modulus (GPa) = 57.58366 64.91308 61.24837
# Shear Modulus (GPa) = 26.45433 27.33829 26.89631
#
# Velocity S-wave (km/s) = 3.71708 3.77867 3.74800
# Velocity P-wave (km/s) = 6.96400 7.27605 7.12174
#
# Compressibility (1/GPa) = 0.01736604
#
# Stress axis : x y z
#
# Youngs Moduli (GPa) = 84.71738 84.71830 57.94182
#
# Poissons Ratio (x) = 0.43612 0.19128
# Poissons Ratio (y) = 0.43612 0.19127
# Poissons Ratio (z) = 0.27967 0.27966
#
# Static dielectric constant tensor:
#      x y z
#    x 3.435280 0.000000 0.000000 
#    y 0.000000 3.435280 0.000000 
#    z 0.000000 0.000000 3.523620 
# 
# 
# High freq. dielectric constant tensor:
#      x y z
#    x 1.732510 0.000000 0.000000 
#    y 0.000000 1.732510 0.000000 
#    z 0.000000 0.000000 1.753730 
# 
# From -- ./inp_files/1403.got.cif
#   From: 2010.03.12/outbox.cif.g09.slc.cpg/sg121_1_cif.got.tgz:1403.got - 2010.04.06 16:06:48.
