data_PCOD8311167
_publ_section_title
;
Structure prediction by ZEFSAII (Michael W. Deem and Ramdas Pophale) SiO2 
 PCOD8311167
Probable space group: I -4 C 2
;
_chemical_formula_sum "Si O2"
_cell_formula_units_Z 64
_cell_length_a 14.921895
_cell_length_b 14.921895
_cell_length_c 15.778205
_cell_angle_alpha 90.000000
_cell_angle_beta 90.000000
_cell_angle_gamma 90.000000
_cell_volume 3513.221677
_symmetry_space_group_name_H-M "I -4 C 2"
_symmetry_group_IT_number 120
_symmetry_cell_setting 'tetragonal'
loop_
_space_group_symop_operation_xyz
x,y,z
y,-x,-z
-x,-y,z
-y,x,-z
y,x,1/2-z
-y,-x,1/2-z
-x,y,1/2+z
x,-y,1/2+z
1/2+x,1/2+y,1/2+z
1/2+y,1/2-x,1/2-z
1/2-x,1/2-y,1/2+z
1/2-y,1/2+x,1/2-z
1/2+y,1/2+x,-z
1/2-y,1/2-x,-z
1/2-x,1/2+y,z
1/2+x,1/2-y,z
loop_
_atom_site_type_symbol
_atom_site_label
_atom_site_fract_x
_atom_site_fract_y
_atom_site_fract_z
Si Si1 0.692540 0.112200 0.420821
Si Si2 0.493222 0.138424 0.726919
Si Si3 0.378474 0.727040 0.320573
Si Si4 0.869604 0.065444 0.515258
O O1 0.624622 0.124622 0.500000
O O2 0.687968 0.200562 0.362785
O O3 0.793910 0.099972 0.451121
O O4 0.661796 0.025340 0.367885
O O5 0.571903 0.091489 0.781426
O O6 0.465202 0.226752 0.778218
O O7 0.323189 0.676811 0.250000
O O8 0.414196 0.655859 0.388145
O O9 0.959389 0.118649 0.493339
#
# Coordination Sequence:
#
# PCOD8311167 Si02
#       4
#    16  16  16  16
#     4   9  19  36  56  79 107 139 175 218 270 321
#     4   9  18  34  54  79 107 135 175 223 266 317
#     4  10  20  35  56  80 106 138 178 222 267 320
#     4  10  21  37  53  75 109 143 178 219 262 319
#
# _framework density 18.216899000000002
#
# number of rings (size 3 to 8) (size 9 to 14) (size 15 to 20)
#    0.000    2.500    0.000    1.500    0.000    4.000 
#    0.000   31.250    0.000    0.000    0.000    0.000 
#    0.000    0.000    0.000    0.000    0.000    0.000 
#
# Total GULP energy -396833.354728 kJ/mol
# GULP energy per Si atom -12401.042335 kJ/mol
# Density = 1.817544 g / cm^3
# Si number density = 18.216899 Si / 1000 Ang^3
#
#
#
# Elastic Constant Matrix: (Units=GPa)
#
#
# Indices 1 2 3 4 5 6 
#
# 1 106.1462 62.5793 81.2223 0.0000 0.0000 0.0000
# 2 62.5793 106.1448 81.2221 0.0000 0.0000 0.0000
# 3 81.2223 81.2221 158.2933 0.0000 0.0000 0.0000
# 4 0.0000 0.0000 0.0000 34.7552 0.0000 0.0000
# 5 0.0000 0.0000 0.0000 0.0000 34.7559 0.0000
# 6 0.0000 0.0000 0.0000 0.0000 0.0000 28.5666
#
#
#
# Elastic Compliance Matrix: (Units=1/GPa)
#
#
# Indices 1 2 3 4 5 6 
#
# 1 0.017333 -0.005620 -0.006010 0.000000 0.000000 0.000000
# 2 -0.005620 0.017334 -0.006010 0.000000 0.000000 0.000000
# 3 -0.006010 -0.006010 0.012485 0.000000 0.000000 0.000000
# 4 0.000000 0.000000 0.000000 0.028773 0.000000 0.000000
# 5 0.000000 0.000000 0.000000 0.000000 0.028772 0.000000
# 6 0.000000 0.000000 0.000000 0.000000 0.000000 0.035006
#
#
# Mechanical properties :
#
#
# Convention : Reuss Voigt Hill
#
# Bulk Modulus (GPa) = 84.23945 91.18129 87.71037
# Shear Modulus (GPa) = 27.94215 29.31959 28.63087
#
# Velocity S-wave (km/s) = 3.92070 4.01617 3.96872
# Velocity P-wave (km/s) = 8.17549 8.46570 8.32186
#
# Compressibility (1/GPa) = 0.01187092
#
# Stress axis : x y z
#
# Youngs Moduli (GPa) = 57.69239 57.69133 80.09433
#
# Poissons Ratio (x) = 0.32423 0.48138
# Poissons Ratio (y) = 0.32424 0.48139
# Poissons Ratio (z) = 0.34674 0.34674
#
# Static dielectric constant tensor:
#      x y z
#    x 3.390440 0.000000 0.000000 
#    y 0.000000 3.390430 0.000000 
#    z 0.000000 0.000000 3.482100 
# 
# 
# High freq. dielectric constant tensor:
#      x y z
#    x 1.706320 0.000000 0.000000 
#    y 0.000000 1.706320 0.000000 
#    z 0.000000 0.000000 1.712380 
# 
# From -- ./inp_files/3289.got.cif
#   From: 2010.03.12/outbox.cif.g09.slc.cpg/sg120_2_cif.got.tgz:3289.got - 2010.04.06 16:00:44.
