data_PCOD8311999
_publ_section_title
;
Structure prediction by ZEFSAII (Michael W. Deem and Ramdas Pophale) SiO2 
 PCOD8311999
Probable space group: I -4 2 D
;
_chemical_formula_sum "Si O2"
_cell_formula_units_Z 44
_cell_length_a 13.669144
_cell_length_b 13.669144
_cell_length_c 10.589972
_cell_angle_alpha 90.000000
_cell_angle_beta 90.000000
_cell_angle_gamma 90.000000
_cell_volume 1978.688589
_symmetry_space_group_name_H-M "I -4 2 D"
_symmetry_group_IT_number 122
_symmetry_cell_setting 'tetragonal'
loop_
_space_group_symop_operation_xyz
x,y,z
y,-x,-z
-x,-y,z
-y,x,-z
x,1/2-y,1/4-z
-x,1/2+y,1/4-z
-y,1/2-x,1/4+z
y,1/2+x,1/4+z
1/2+x,1/2+y,1/2+z
1/2+y,1/2-x,1/2-z
1/2-x,1/2-y,1/2+z
1/2-y,1/2+x,1/2-z
1/2+x,-y,3/4-z
1/2-x,y,3/4-z
1/2-y,-x,3/4+z
1/2+y,x,3/4+z
loop_
_atom_site_type_symbol
_atom_site_label
_atom_site_fract_x
_atom_site_fract_y
_atom_site_fract_z
Si Si1 0.119068 0.353632 0.091159
Si Si2 0.250000 0.805399 0.375000
Si Si3 0.579004 0.872281 0.299128
Si Si4 0.500000 0.000000 0.750000
O O1 0.065406 0.250000 0.125000
O O2 0.232807 0.344118 0.136811
O O3 0.076892 0.444871 0.164069
O O4 0.108604 0.378491 0.944234
O O5 0.229276 0.875461 0.495026
O O6 0.462652 0.873588 0.278564
#
# Coordination Sequence:
#
# PCOD8311999 Si02
#       4
#    16   8  16   4
#     4  10  27  45  67 114 137 193 235 291 379 416
#     4  10  26  42  70 102 150 176 240 292 364 430
#     4  11  25  47  75 104 140 192 247 301 359 438
#     4  12  24  52  74 100 160 176 252 306 356 452
#
# _framework density 22.23695
#
# number of rings (size 3 to 8) (size 9 to 14) (size 15 to 20)
#    1.091    0.364    0.000    3.273   10.182    2.909 
#    0.000    0.000    0.000    0.000    0.000    0.000 
#    0.000    0.000    0.000    0.000    0.000    0.000 
#
# Total GULP energy -272564.222861 kJ/mol
# GULP energy per Si atom -12389.282857 kJ/mol
# Density = 2.218634 g / cm^3
# Si number density = 22.236950 Si / 1000 Ang^3
#
#
#
# Elastic Constant Matrix: (Units=GPa)
#
#
# Indices 1 2 3 4 5 6 
#
# 1 72.2474 38.7032 48.3708 0.0000 0.0000 0.0000
# 2 38.7032 72.2474 48.3708 0.0000 0.0000 0.0000
# 3 48.3708 48.3708 152.6403 0.0000 0.0000 0.0000
# 4 0.0000 0.0000 0.0000 28.3689 0.0000 0.0000
# 5 0.0000 0.0000 0.0000 0.0000 28.3689 0.0000
# 6 0.0000 0.0000 0.0000 0.0000 0.0000 48.5284
#
#
#
# Elastic Compliance Matrix: (Units=1/GPa)
#
#
# Indices 1 2 3 4 5 6 
#
# 1 0.021133 -0.008679 -0.003947 0.000000 0.000000 0.000000
# 2 -0.008679 0.021133 -0.003947 0.000000 0.000000 0.000000
# 3 -0.003947 -0.003947 0.009053 0.000000 0.000000 0.000000
# 4 0.000000 0.000000 0.000000 0.035250 0.000000 0.000000
# 5 0.000000 0.000000 0.000000 0.000000 0.035250 0.000000
# 6 0.000000 0.000000 0.000000 0.000000 0.000000 0.020606
#
#
# Mechanical properties :
#
#
# Convention : Reuss Voigt Hill
#
# Bulk Modulus (GPa) = 55.02210 63.11384 59.06797
# Shear Modulus (GPa) = 27.52902 31.83261 29.68082
#
# Velocity S-wave (km/s) = 3.52232 3.78765 3.65739
# Velocity P-wave (km/s) = 6.42959 6.89727 6.66753
#
# Compressibility (1/GPa) = 0.01817452
#
# Stress axis : x y z
#
# Youngs Moduli (GPa) = 47.31979 47.31979 110.46419
#
# Poissons Ratio (x) = 0.41067 0.43597
# Poissons Ratio (y) = 0.41067 0.43597
# Poissons Ratio (z) = 0.18676 0.18676
#
# Static dielectric constant tensor:
#      x y z
#    x 4.107050 0.000000 0.000000 
#    y 0.000000 4.107050 0.000000 
#    z 0.000000 0.000000 3.783600 
# 
# 
# High freq. dielectric constant tensor:
#      x y z
#    x 1.876940 0.000000 0.000000 
#    y 0.000000 1.876940 0.000000 
#    z 0.000000 0.000000 1.870270 
# 
# From -- ./inp_files/1926.got.cif
#   From: 2010.03.12/outbox.cif.g09.slc.cpg/sg122_1_cif.got.tgz:1926.got - 2010.04.06 16:17:16.
