data_PCOD8311994
_publ_section_title
;
Structure prediction by ZEFSAII (Michael W. Deem and Ramdas Pophale) SiO2 
 PCOD8311994
Probable space group: I -4 2 D
;
_chemical_formula_sum "Si O2"
_cell_formula_units_Z 96
_cell_length_a 13.695412
_cell_length_b 13.695412
_cell_length_c 21.800173
_cell_angle_alpha 90.000000
_cell_angle_beta 90.000000
_cell_angle_gamma 90.000000
_cell_volume 4088.934403
_symmetry_space_group_name_H-M "I -4 2 D"
_symmetry_group_IT_number 122
_symmetry_cell_setting 'tetragonal'
loop_
_space_group_symop_operation_xyz
x,y,z
y,-x,-z
-x,-y,z
-y,x,-z
x,1/2-y,1/4-z
-x,1/2+y,1/4-z
-y,1/2-x,1/4+z
y,1/2+x,1/4+z
1/2+x,1/2+y,1/2+z
1/2+y,1/2-x,1/2-z
1/2-x,1/2-y,1/2+z
1/2-y,1/2+x,1/2-z
1/2+x,-y,3/4-z
1/2-x,y,3/4-z
1/2-y,-x,3/4+z
1/2+y,x,3/4+z
loop_
_atom_site_type_symbol
_atom_site_label
_atom_site_fract_x
_atom_site_fract_y
_atom_site_fract_z
Si Si1 0.472516 0.722349 0.942180
Si Si2 0.655617 0.250000 0.125000
Si Si3 0.250000 0.508683 0.375000
Si Si4 0.751903 0.566268 0.507307
Si Si5 0.601260 0.045112 0.084674
Si Si6 0.054713 0.601536 0.358144
Si Si7 0.831378 0.773187 0.497101
O O1 0.491007 0.631037 0.897458
O O2 0.493728 0.822702 0.905585
O O3 0.362468 0.716116 0.966104
O O4 0.550196 0.718732 0.998177
O O5 0.591483 0.162269 0.094935
O O6 0.724756 0.202994 0.176437
O O7 0.264640 0.440595 0.434629
O O8 0.161116 0.581484 0.384232
O O9 0.820607 0.478205 0.531126
O O10 0.646858 0.558050 0.539916
O O11 0.798377 0.670704 0.526294
O O12 0.500000 0.000000 0.061995
O O13 0.000000 0.500000 0.356314
#
# Coordination Sequence:
#
# PCOD8311994 Si02
#       7
#    16   8   8  16  16  16  16
#     4  10  25  44  71 108 142 197 241 302 374 446
#     4  10  25  44  69  98 144 192 241 300 375 442
#     4  12  27  44  77  98 146 194 235 310 367 438
#     4  11  27  44  71 109 142 190 249 302 370 446
#     4  10  25  45  71 105 144 187 243 299 373 442
#     4  11  26  48  70 102 145 189 250 304 371 450
#     4  11  24  44  72 104 149 187 250 302 371 446
#
# _framework density 23.478000999999999
#
# number of rings (size 3 to 8) (size 9 to 14) (size 15 to 20)
#    0.000    1.333    0.000    2.500   14.000    4.000 
#    0.000    0.000    0.000    0.000    0.000    0.000 
#    0.000    0.000    0.000    0.000    0.000    0.000 
#
# Total GULP energy -595344.001319 kJ/mol
# GULP energy per Si atom -12403.000027 kJ/mol
# Density = 2.342456 g / cm^3
# Si number density = 23.478001 Si / 1000 Ang^3
#
#
#
# Elastic Constant Matrix: (Units=GPa)
#
#
# Indices 1 2 3 4 5 6 
#
# 1 139.4437 32.5198 34.4323 0.0000 0.0000 0.0000
# 2 32.5198 139.4437 34.4323 0.0000 0.0000 0.0000
# 3 34.4323 34.4323 100.1179 0.0000 0.0000 0.0000
# 4 0.0000 0.0000 0.0000 27.8348 0.0000 0.0000
# 5 0.0000 0.0000 0.0000 0.0000 27.8348 0.0000
# 6 0.0000 0.0000 0.0000 0.0000 0.0000 26.2576
#
#
#
# Elastic Compliance Matrix: (Units=1/GPa)
#
#
# Indices 1 2 3 4 5 6 
#
# 1 0.008048 -0.001304 -0.002319 0.000000 0.000000 0.000000
# 2 -0.001304 0.008048 -0.002319 0.000000 0.000000 0.000000
# 3 -0.002319 -0.002319 0.011584 0.000000 0.000000 0.000000
# 4 0.000000 0.000000 0.000000 0.035926 0.000000 0.000000
# 5 0.000000 0.000000 0.000000 0.000000 0.035926 0.000000
# 6 0.000000 0.000000 0.000000 0.000000 0.000000 0.038084
#
#
# Mechanical properties :
#
#
# Convention : Reuss Voigt Hill
#
# Bulk Modulus (GPa) = 63.31494 64.64157 63.97826
# Shear Modulus (GPa) = 32.30651 34.89347 33.59999
#
# Velocity S-wave (km/s) = 3.71352 3.85933 3.78713
# Velocity P-wave (km/s) = 6.73894 6.88853 6.81414
#
# Compressibility (1/GPa) = 0.01579406
#
# Stress axis : x y z
#
# Youngs Moduli (GPa) = 124.25097 124.25097 86.32912
#
# Poissons Ratio (x) = 0.16205 0.20023
# Poissons Ratio (y) = 0.16205 0.20023
# Poissons Ratio (z) = 0.28819 0.28819
#
# Static dielectric constant tensor:
#      x y z
#    x 4.124190 0.000000 0.000000 
#    y 0.000000 4.124190 0.000000 
#    z 0.000000 0.000000 4.119280 
# 
# 
# High freq. dielectric constant tensor:
#      x y z
#    x 1.933860 0.000000 0.000000 
#    y 0.000000 1.933860 0.000000 
#    z 0.000000 0.000000 1.924760 
# 
# From -- ./inp_files/7342.got.cif
#   From: 2010.03.12/outbox.cif.g09.slc.cpg/sg122_4_cif.got.tgz:7342.got - 2010.04.06 16:17:16.
