data_PCOD8311515
_publ_section_title
;
Structure prediction by ZEFSAII (Michael W. Deem and Ramdas Pophale) SiO2 
 PCOD8311515
Probable space group: I -4 2 M
;
_chemical_formula_sum "Si O2"
_cell_formula_units_Z 112
_cell_length_a 14.235875
_cell_length_b 14.235875
_cell_length_c 29.257324
_cell_angle_alpha 90.000000
_cell_angle_beta 90.000000
_cell_angle_gamma 90.000000
_cell_volume 5929.293291
_symmetry_space_group_name_H-M "I -4 2 M"
_symmetry_group_IT_number 121
_symmetry_cell_setting 'tetragonal'
loop_
_space_group_symop_operation_xyz
x,y,z
y,-x,-z
-x,-y,z
-y,x,-z
x,-y,-z
-x,y,-z
-y,-x,z
y,x,z
1/2+x,1/2+y,1/2+z
1/2+y,1/2-x,1/2-z
1/2-x,1/2-y,1/2+z
1/2-y,1/2+x,1/2-z
1/2+x,1/2-y,1/2-z
1/2-x,1/2+y,1/2-z
1/2-y,1/2-x,1/2+z
1/2+y,1/2+x,1/2+z
loop_
_atom_site_type_symbol
_atom_site_label
_atom_site_fract_x
_atom_site_fract_y
_atom_site_fract_z
Si Si1 0.197139 0.050955 0.919463
Si Si2 0.858793 0.442814 0.755223
Si Si3 0.252692 0.412159 0.888108
Si Si4 0.316512 0.166083 0.474781
Si Si5 0.131175 0.720530 0.167731
Si Si6 0.889785 0.731896 0.649242
Si Si7 0.859036 0.293319 0.930128
O O1 0.089819 0.089819 0.928673
O O2 0.267256 0.110185 0.949933
O O3 0.220387 0.066663 0.866534
O O4 0.215806 0.942162 0.930332
O O5 0.881616 0.551645 0.758905
O O6 0.789746 0.431187 0.712704
O O7 0.813213 0.406287 0.801609
O O8 0.343230 0.343230 0.885967
O O9 0.210989 0.418845 0.940263
O O10 0.167990 0.375332 0.855861
O O11 0.279763 0.515903 0.871055
O O12 0.220564 0.220564 0.483915
O O13 0.361828 0.139492 0.524306
O O14 0.223071 0.776930 0.182350
O O15 0.812555 0.812555 0.654011
O O16 0.857356 0.646554 0.615449
O O17 0.763046 0.236955 0.932380
#
# Coordination Sequence:
#
# PCOD8311515 Si02
#       7
#    16  16  16  16  16  16  16
#     4   9  17  31  54  78 102 141 190 227 267 330
#     4  11  21  34  54  79 107 140 179 226 278 331
#     4   9  18  36  59  79 102 140 188 230 271 330
#     4   8  16  32  54  77 105 143 182 220 273 332
#     4   9  17  33  54  74 100 137 179 224 273 333
#     4  11  23  37  54  81 114 146 183 230 286 337
#     4  10  20  33  49  76 116 149 178 227 282 331
#
# _framework density 18.889265999999999
#
# number of rings (size 3 to 8) (size 9 to 14) (size 15 to 20)
#    0.000    2.429    1.429    3.429    0.000    1.143 
#    0.000    0.000    0.000    6.000    0.000    6.000 
#    0.000    0.000    0.000    0.000    0.000    0.000 
#
# Total GULP energy -693737.450737 kJ/mol
# GULP energy per Si atom -12388.168763 kJ/mol
# Density = 1.884627 g / cm^3
# Si number density = 18.889266 Si / 1000 Ang^3
#
#
#
# Elastic Constant Matrix: (Units=GPa)
#
#
# Indices 1 2 3 4 5 6 
#
# 1 130.4764 -57.7096 35.6054 0.0000 0.0000 0.0000
# 2 -57.7096 130.4620 35.6072 0.0000 0.0000 0.0000
# 3 35.6054 35.6072 152.5428 0.0000 0.0000 0.0000
# 4 0.0000 0.0000 0.0000 23.0788 0.0000 0.0000
# 5 0.0000 0.0000 0.0000 0.0000 23.0785 0.0000
# 6 0.0000 0.0000 0.0000 0.0000 0.0000 21.5502
#
#
#
# Elastic Compliance Matrix: (Units=1/GPa)
#
#
# Indices 1 2 3 4 5 6 
#
# 1 0.011563 0.006250 -0.004158 0.000000 0.000000 0.000000
# 2 0.006250 0.011564 -0.004158 0.000000 0.000000 0.000000
# 3 -0.004158 -0.004158 0.008497 0.000000 0.000000 0.000000
# 4 0.000000 0.000000 0.000000 0.043330 0.000000 0.000000
# 5 0.000000 0.000000 0.000000 0.000000 0.043330 0.000000
# 6 0.000000 0.000000 0.000000 0.000000 0.000000 0.046403
#
#
# Mechanical properties :
#
#
# Convention : Reuss Voigt Hill
#
# Bulk Modulus (GPa) = 36.37474 48.94303 42.65888
# Shear Modulus (GPa) = 28.09241 40.20672 34.14957
#
# Velocity S-wave (km/s) = 3.86063 4.61862 4.25653
# Velocity P-wave (km/s) = 6.25869 7.37625 6.84033
#
# Compressibility (1/GPa) = 0.02749161
#
# Stress axis : x y z
#
# Youngs Moduli (GPa) = 86.48227 86.47156 117.69360
#
# Poissons Ratio (x) = -0.54042 0.48935
# Poissons Ratio (y) = -0.54049 0.48939
# Poissons Ratio (z) = 0.35958 0.35956
#
# Static dielectric constant tensor:
#      x y z
#    x 3.253970 0.000000 0.000000 
#    y 0.000000 3.253970 0.000000 
#    z 0.000000 0.000000 3.834480 
# 
# 
# High freq. dielectric constant tensor:
#      x y z
#    x 1.710610 0.000000 0.000000 
#    y 0.000000 1.710610 0.000000 
#    z 0.000000 0.000000 1.754350 
# 
# From -- ./inp_files/7727.got.cif
#   From: 2010.03.12/outbox.cif.g09.slc.cpg/sg121_4_cif.got.tgz:7727.got - 2010.04.06 16:06:48.
