data_PCOD8311818
_publ_section_title
;
Structure prediction by ZEFSAII (Michael W. Deem and Ramdas Pophale) SiO2 
 PCOD8311818
Probable space group: I -4 2 D
;
_chemical_formula_sum "Si O2"
_cell_formula_units_Z 112
_cell_length_a 14.563623
_cell_length_b 14.563623
_cell_length_c 27.383954
_cell_angle_alpha 90.000000
_cell_angle_beta 90.000000
_cell_angle_gamma 90.000000
_cell_volume 5808.112405
_symmetry_space_group_name_H-M "I -4 2 D"
_symmetry_group_IT_number 122
_symmetry_cell_setting 'tetragonal'
loop_
_space_group_symop_operation_xyz
x,y,z
y,-x,-z
-x,-y,z
-y,x,-z
x,1/2-y,1/4-z
-x,1/2+y,1/4-z
-y,1/2-x,1/4+z
y,1/2+x,1/4+z
1/2+x,1/2+y,1/2+z
1/2+y,1/2-x,1/2-z
1/2-x,1/2-y,1/2+z
1/2-y,1/2+x,1/2-z
1/2+x,-y,3/4-z
1/2-x,y,3/4-z
1/2-y,-x,3/4+z
1/2+y,x,3/4+z
loop_
_atom_site_type_symbol
_atom_site_label
_atom_site_fract_x
_atom_site_fract_y
_atom_site_fract_z
Si Si1 0.267150 0.861571 0.041549
Si Si2 0.102223 0.913400 0.979745
Si Si3 0.896599 0.525051 0.973968
Si Si4 0.537490 0.275123 0.403549
Si Si5 0.185704 0.671691 0.735792
Si Si6 0.869365 0.811732 0.672902
Si Si7 0.514078 0.255101 0.956617
O O1 0.366549 0.895364 0.026962
O O2 0.276146 0.751745 0.050909
O O3 0.234032 0.927712 0.085644
O O4 0.199371 0.871700 0.995467
O O5 0.073421 0.871314 0.926999
O O6 0.024461 0.888816 0.021040
O O7 0.848759 0.474592 0.927214
O O8 0.000000 0.500000 0.980148
O O9 0.843684 0.487634 0.021572
O O10 0.597507 0.193247 0.425814
O O11 0.555063 0.267322 0.346138
O O12 0.250799 0.659618 0.781779
O O13 0.085409 0.695617 0.756813
O O14 0.181487 0.577555 0.704405
O O15 0.858232 0.750000 0.625000
#
# Coordination Sequence:
#
# PCOD8311818 Si02
#       7
#    16  16  16  16  16  16  16
#     4  10  20  37  62  87 119 156 197 250 307 355
#     4   9  19  35  60  92 119 155 197 245 307 358
#     4  10  21  40  56  85 119 159 196 244 312 355
#     4  11  20  37  62  90 114 157 208 246 293 372
#     4  10  21  40  57  86 121 158 194 247 312 349
#     4  11  20  37  64  85 113 153 205 247 285 366
#     4  10  23  38  59  86 120 159 200 256 304 354
#
# _framework density 19.283374999999999
#
# number of rings (size 3 to 8) (size 9 to 14) (size 15 to 20)
#    0.000    1.857    4.286    0.000    0.000    0.857 
#   12.857    1.429    0.000    0.000    0.000    0.000 
#    0.000    0.000    0.000    0.000    0.000    0.000 
#
# Total GULP energy -693770.153062 kJ/mol
# GULP energy per Si atom -12388.752733 kJ/mol
# Density = 1.923949 g / cm^3
# Si number density = 19.283375 Si / 1000 Ang^3
#
#
#
# Elastic Constant Matrix: (Units=GPa)
#
#
# Indices 1 2 3 4 5 6 
#
# 1 100.0379 15.1789 15.4310 0.0000 0.0000 0.0000
# 2 15.1789 100.0379 15.4310 0.0000 0.0000 0.0000
# 3 15.4310 15.4310 54.5294 0.0000 0.0000 0.0000
# 4 0.0000 0.0000 0.0000 24.0886 0.0000 0.0000
# 5 0.0000 0.0000 0.0000 0.0000 24.0886 0.0000
# 6 0.0000 0.0000 0.0000 0.0000 0.0000 6.4508
#
#
#
# Elastic Compliance Matrix: (Units=1/GPa)
#
#
# Indices 1 2 3 4 5 6 
#
# 1 0.010588 -0.001197 -0.002658 0.000000 0.000000 0.000000
# 2 -0.001197 0.010588 -0.002658 0.000000 0.000000 0.000000
# 3 -0.002658 -0.002658 0.019843 0.000000 0.000000 0.000000
# 4 0.000000 0.000000 0.000000 0.041513 0.000000 0.000000
# 5 0.000000 0.000000 0.000000 0.000000 0.041513 0.000000
# 6 0.000000 0.000000 0.000000 0.000000 0.000000 0.155018
#
#
# Mechanical properties :
#
#
# Convention : Reuss Voigt Hill
#
# Bulk Modulus (GPa) = 35.72081 38.52080 37.12081
# Shear Modulus (GPa) = 16.58824 24.82990 20.70907
#
# Velocity S-wave (km/s) = 2.93616 3.59225 3.28065
# Velocity P-wave (km/s) = 5.48262 6.10125 5.80019
#
# Compressibility (1/GPa) = 0.02799488
#
# Stress axis : x y z
#
# Youngs Moduli (GPa) = 94.44925 94.44925 50.39601
#
# Poissons Ratio (x) = 0.11301 0.13393
# Poissons Ratio (y) = 0.11301 0.13393
# Poissons Ratio (z) = 0.25100 0.25100
#
# Static dielectric constant tensor:
#      x y z
#    x 3.928380 0.000000 0.000000 
#    y 0.000000 3.928380 0.000000 
#    z 0.000000 0.000000 3.281690 
# 
# 
# High freq. dielectric constant tensor:
#      x y z
#    x 1.763860 0.000000 0.000000 
#    y 0.000000 1.763860 0.000000 
#    z 0.000000 0.000000 1.713220 
# 
# From -- ./inp_files/8789.got.cif
#   From: 2010.03.12/outbox.cif.g09.slc.cpg/sg122_5_cif.got.tgz:8789.got - 2010.04.06 16:17:16.
