data_PCOD8311062
_publ_section_title
;
Structure prediction by ZEFSAII (Michael W. Deem and Ramdas Pophale) SiO2 
 PCOD8311062
Probable space group: I -4 M 2
;
_chemical_formula_sum "Si O2"
_cell_formula_units_Z 32
_cell_length_a 7.617369
_cell_length_b 7.617369
_cell_length_c 27.820076
_cell_angle_alpha 90.000000
_cell_angle_beta 90.000000
_cell_angle_gamma 90.000000
_cell_volume 1614.240727
_symmetry_space_group_name_H-M "I -4 M 2"
_symmetry_group_IT_number 119
_symmetry_cell_setting 'tetragonal'
loop_
_space_group_symop_operation_xyz
x,y,z
y,-x,-z
-x,-y,z
-y,x,-z
y,x,-z
-y,-x,-z
-x,y,z
x,-y,z
1/2+x,1/2+y,1/2+z
1/2+y,1/2-x,1/2-z
1/2-x,1/2-y,1/2+z
1/2-y,1/2+x,1/2-z
1/2+y,1/2+x,1/2-z
1/2-y,1/2-x,1/2-z
1/2-x,1/2+y,1/2+z
1/2+x,1/2-y,1/2+z
loop_
_atom_site_type_symbol
_atom_site_label
_atom_site_fract_x
_atom_site_fract_y
_atom_site_fract_z
Si Si1 0.000000 0.707697 0.320360
Si Si2 0.803416 0.303416 0.750000
Si Si3 0.203377 0.203377 0.000000
Si Si4 0.294223 0.000000 0.572780
O O1 0.825841 0.772466 0.294169
O O2 0.000000 0.500000 0.320096
O O3 0.000000 0.789602 0.374046
O O4 0.776167 0.500000 0.729921
O O5 0.262797 0.323569 0.044758
O O6 0.000000 0.236314 0.986009
O O7 0.500000 0.000000 0.579307
#
# Coordination Sequence:
#
# PCOD8311062 Si02
#       4
#     8   8   8   8
#     4  11  21  39  65  90 121 163 202 255 309 357
#     4  11  23  40  60  84 121 161 200 254 302 363
#     4   9  18  37  58  80 120 157 190 245 290 352
#     4   9  20  36  60  90 116 156 204 240 300 355
#
# _framework density 19.823563
#
# number of rings (size 3 to 8) (size 9 to 14) (size 15 to 20)
#    0.000    2.000    2.500    0.750    0.000    2.500 
#    9.000    5.000    0.000    0.000    0.000    0.000 
#    0.000    0.000    0.000    0.000    0.000    0.000 
#
# Total GULP energy -198373.492156 kJ/mol
# GULP energy per Si atom -12398.343260 kJ/mol
# Density = 1.977844 g / cm^3
# Si number density = 19.823563 Si / 1000 Ang^3
#
#
#
# Elastic Constant Matrix: (Units=GPa)
#
#
# Indices 1 2 3 4 5 6 
#
# 1 129.4025 49.0337 78.0624 0.0000 0.0000 0.0000
# 2 49.0337 129.4025 78.0624 0.0000 0.0000 0.0000
# 3 78.0624 78.0624 193.5905 0.0000 0.0000 0.0000
# 4 0.0000 0.0000 0.0000 10.8547 0.0000 0.0000
# 5 0.0000 0.0000 0.0000 0.0000 10.8547 0.0000
# 6 0.0000 0.0000 0.0000 0.0000 0.0000 23.7604
#
#
#
# Elastic Compliance Matrix: (Units=1/GPa)
#
#
# Indices 1 2 3 4 5 6 
#
# 1 0.010551 -0.001892 -0.003492 0.000000 0.000000 0.000000
# 2 -0.001892 0.010551 -0.003492 0.000000 0.000000 0.000000
# 3 -0.003492 -0.003492 0.007982 0.000000 0.000000 0.000000
# 4 0.000000 0.000000 0.000000 0.092126 0.000000 0.000000
# 5 0.000000 0.000000 0.000000 0.000000 0.092126 0.000000
# 6 0.000000 0.000000 0.000000 0.000000 0.000000 0.042087
#
#
# Mechanical properties :
#
#
# Convention : Reuss Voigt Hill
#
# Bulk Modulus (GPa) = 88.23571 95.85692 92.04632
# Shear Modulus (GPa) = 18.05377 25.57642 21.81510
#
# Velocity S-wave (km/s) = 3.02109 3.59584 3.32092
# Velocity P-wave (km/s) = 7.53502 8.10556 7.82549
#
# Compressibility (1/GPa) = 0.01133328
#
# Stress axis : x y z
#
# Youngs Moduli (GPa) = 94.77750 94.77752 125.28893
#
# Poissons Ratio (x) = 0.17928 0.43748
# Poissons Ratio (y) = 0.17928 0.43748
# Poissons Ratio (z) = 0.33094 0.33094
#
# Static dielectric constant tensor:
#      x y z
#    x 3.746830 0.000000 0.000000 
#    y 0.000000 3.746830 0.000000 
#    z 0.000000 0.000000 3.932270 
# 
# 
# High freq. dielectric constant tensor:
#      x y z
#    x 1.782250 0.000000 0.000000 
#    y 0.000000 1.782250 0.000000 
#    z 0.000000 0.000000 1.760240 
# 
# From -- ./inp_files/8178.got.cif
#   From: 2010.03.12/outbox.cif.g09.slc.cpg/sg119_5_cif.got.tgz:8178.got - 2010.04.14 02:25:26.
