data_PCOD8311746
_publ_section_title
;
Structure prediction by ZEFSAII (Michael W. Deem and Ramdas Pophale) SiO2 
 PCOD8311746
Probable space group: I -4 2 D
;
_chemical_formula_sum "Si O2"
_cell_formula_units_Z 80
_cell_length_a 11.232400
_cell_length_b 11.232400
_cell_length_c 26.653236
_cell_angle_alpha 90.000000
_cell_angle_beta 90.000000
_cell_angle_gamma 90.000000
_cell_volume 3362.753756
_symmetry_space_group_name_H-M "I -4 2 D"
_symmetry_group_IT_number 122
_symmetry_cell_setting 'tetragonal'
loop_
_space_group_symop_operation_xyz
x,y,z
y,-x,-z
-x,-y,z
-y,x,-z
x,1/2-y,1/4-z
-x,1/2+y,1/4-z
-y,1/2-x,1/4+z
y,1/2+x,1/4+z
1/2+x,1/2+y,1/2+z
1/2+y,1/2-x,1/2-z
1/2-x,1/2-y,1/2+z
1/2-y,1/2+x,1/2-z
1/2+x,-y,3/4-z
1/2-x,y,3/4-z
1/2-y,-x,3/4+z
1/2+y,x,3/4+z
loop_
_atom_site_type_symbol
_atom_site_label
_atom_site_fract_x
_atom_site_fract_y
_atom_site_fract_z
Si Si1 0.484427 0.801612 0.911063
Si Si2 0.387977 0.761029 0.808736
Si Si3 0.905038 0.689136 0.010478
Si Si4 0.094648 0.177256 0.561254
Si Si5 0.824678 0.665644 0.798561
O O1 0.462272 0.827867 0.852438
O O2 0.420688 0.896895 0.948874
O O3 0.433558 0.669342 0.919437
O O4 0.626684 0.780110 0.919377
O O5 0.465444 0.701790 0.764067
O O6 0.310314 0.869866 0.788084
O O7 0.301950 0.655589 0.829773
O O8 0.814204 0.673125 0.964444
O O9 0.094132 0.174012 0.500976
O O10 0.958553 0.162848 0.579069
#
# Coordination Sequence:
#
# PCOD8311746 Si02
#       5
#    16  16  16  16  16
#     4  10  20  38  63  93 127 166 212 261 327 402
#     4  10  23  42  64  91 124 172 226 270 315 383
#     4  10  22  41  67  85 132 168 218 273 323 374
#     4  10  18  35  60  89 128 166 203 250 323 388
#     4  10  18  34  59  90 125 167 198 250 331 388
#
# _framework density 23.790026000000001
#
# number of rings (size 3 to 8) (size 9 to 14) (size 15 to 20)
#    0.000    2.400    4.000    3.000    0.000    2.000 
#   10.800    0.000   26.400    0.000    0.000    0.000 
#    0.000    0.000    0.000    0.000    0.000    0.000 
#
# Total GULP energy -495529.327609 kJ/mol
# GULP energy per Si atom -12388.233190 kJ/mol
# Density = 2.373588 g / cm^3
# Si number density = 23.790026 Si / 1000 Ang^3
#
#
#
# Elastic Constant Matrix: (Units=GPa)
#
#
# Indices 1 2 3 4 5 6 
#
# 1 47.4718 13.0787 5.8619 0.0000 0.0000 0.0000
# 2 13.0787 47.4719 5.8619 0.0000 0.0000 0.0000
# 3 5.8619 5.8619 57.8278 0.0000 0.0000 0.0000
# 4 0.0000 0.0000 0.0000 19.7791 0.0000 0.0000
# 5 0.0000 0.0000 0.0000 0.0000 19.7791 0.0000
# 6 0.0000 0.0000 0.0000 0.0000 0.0000 22.7876
#
#
#
# Elastic Compliance Matrix: (Units=1/GPa)
#
#
# Indices 1 2 3 4 5 6 
#
# 1 0.022961 -0.006115 -0.001708 0.000000 0.000000 0.000000
# 2 -0.006115 0.022961 -0.001708 0.000000 0.000000 0.000000
# 3 -0.001708 -0.001708 0.017639 0.000000 0.000000 0.000000
# 4 0.000000 0.000000 0.000000 0.050558 0.000000 0.000000
# 5 0.000000 0.000000 0.000000 0.000000 0.050558 0.000000
# 6 0.000000 0.000000 0.000000 0.000000 0.000000 0.043883
#
#
# Mechanical properties :
#
#
# Convention : Reuss Voigt Hill
#
# Bulk Modulus (GPa) = 22.47195 22.48629 22.47912
# Shear Modulus (GPa) = 20.62245 21.00043 20.81144
#
# Velocity S-wave (km/s) = 2.94743 2.97432 2.96091
# Velocity P-wave (km/s) = 4.58798 4.61172 4.59987
#
# Compressibility (1/GPa) = 0.04449991
#
# Stress axis : x y z
#
# Youngs Moduli (GPa) = 43.55274 43.55275 56.69284
#
# Poissons Ratio (x) = 0.26632 0.09681
# Poissons Ratio (y) = 0.26632 0.09681
# Poissons Ratio (z) = 0.07437 0.07437
#
# Static dielectric constant tensor:
#      x y z
#    x 4.006500 0.000000 0.000000 
#    y 0.000000 4.006500 0.000000 
#    z 0.000000 0.000000 4.299710 
# 
# 
# High freq. dielectric constant tensor:
#      x y z
#    x 1.922780 0.000000 0.000000 
#    y 0.000000 1.922780 0.000000 
#    z 0.000000 0.000000 1.934920 
# 
# From -- ./inp_files/9356.got.cif
#   From: 2010.03.12/outbox.cif.g09.slc.cpg/sg122_5_cif.got.tgz:9356.got - 2010.04.06 16:17:16.
