data_PCOD8311417
_publ_section_title
;
Structure prediction by ZEFSAII (Michael W. Deem and Ramdas Pophale) SiO2 
 PCOD8311417
Probable space group: I -4 2 M
;
_chemical_formula_sum "Si O2"
_cell_formula_units_Z 96
_cell_length_a 22.699157
_cell_length_b 22.699157
_cell_length_c 12.220490
_cell_angle_alpha 90.000000
_cell_angle_beta 90.000000
_cell_angle_gamma 90.000000
_cell_volume 6296.628596
_symmetry_space_group_name_H-M "I -4 2 M"
_symmetry_group_IT_number 121
_symmetry_cell_setting 'tetragonal'
loop_
_space_group_symop_operation_xyz
x,y,z
y,-x,-z
-x,-y,z
-y,x,-z
x,-y,-z
-x,y,-z
-y,-x,z
y,x,z
1/2+x,1/2+y,1/2+z
1/2+y,1/2-x,1/2-z
1/2-x,1/2-y,1/2+z
1/2-y,1/2+x,1/2-z
1/2+x,1/2-y,1/2-z
1/2-x,1/2+y,1/2-z
1/2-y,1/2-x,1/2+z
1/2+y,1/2+x,1/2+z
loop_
_atom_site_type_symbol
_atom_site_label
_atom_site_fract_x
_atom_site_fract_y
_atom_site_fract_z
Si Si1 0.671989 0.771086 0.137668
Si Si2 0.951386 0.143277 0.303488
Si Si3 0.625846 0.721780 0.345019
Si Si4 0.323479 0.579313 0.223157
Si Si5 0.266040 0.364683 0.583912
Si Si6 0.565142 0.731460 0.005014
O O1 0.712277 0.712277 0.118511
O O2 0.645856 0.772807 0.260831
O O3 0.707674 0.830709 0.121772
O O4 0.616523 0.772203 0.054604
O O5 0.920855 0.079145 0.301574
O O6 0.926505 0.184499 0.207804
O O7 0.940164 0.172163 0.421940
O O8 0.020271 0.137168 0.277728
O O9 0.682447 0.682447 0.366510
O O10 0.606744 0.746527 0.464031
O O11 0.365905 0.634096 0.222220
O O12 0.281292 0.583321 0.330114
O O13 0.282686 0.584205 0.117489
O O14 0.320539 0.320539 0.579555
O O15 0.500000 0.762201 0.000000
#
# Coordination Sequence:
#
# PCOD8311417 Si02
#       6
#    16  16  16  16  16  16
#     4   9  16  26  43  61  81 111 142 174 218 274
#     4   9  17  30  45  57  78 118 155 184 225 263
#     4   8  15  28  41  56  77 105 140 171 208 265
#     4  10  19  28  40  62  87 110 148 196 227 255
#     4   9  18  27  39  61  84 107 139 182 225 262
#     4   9  17  29  44  62  85 113 147 184 225 269
#
# _framework density 15.246254
#
# number of rings (size 3 to 8) (size 9 to 14) (size 15 to 20)
#    0.000    3.000    0.000    2.500    2.333    1.000 
#    0.000    0.000    0.000    3.000    0.000    4.667 
#    0.000    0.000    0.000    3.000   12.667    0.000 
#
# Total GULP energy -594826.753475 kJ/mol
# GULP energy per Si atom -12392.224031 kJ/mol
# Density = 1.521155 g / cm^3
# Si number density = 15.246254 Si / 1000 Ang^3
#
#
#
# Elastic Constant Matrix: (Units=GPa)
#
#
# Indices 1 2 3 4 5 6 
#
# 1 32.9323 10.8393 20.4447 0.0000 0.0000 0.0000
# 2 10.8393 32.9326 20.4447 0.0000 0.0000 0.0000
# 3 20.4447 20.4447 127.4306 0.0000 0.0000 0.0000
# 4 0.0000 0.0000 0.0000 16.6487 0.0000 0.0000
# 5 0.0000 0.0000 0.0000 0.0000 16.6488 0.0000
# 6 0.0000 0.0000 0.0000 0.0000 0.0000 17.8248
#
#
#
# Elastic Compliance Matrix: (Units=1/GPa)
#
#
# Indices 1 2 3 4 5 6 
#
# 1 0.036068 -0.009195 -0.004312 0.000000 0.000000 0.000000
# 2 -0.009195 0.036068 -0.004311 0.000000 0.000000 0.000000
# 3 -0.004312 -0.004311 0.009231 0.000000 0.000000 0.000000
# 4 0.000000 0.000000 0.000000 0.060065 0.000000 0.000000
# 5 0.000000 0.000000 0.000000 0.000000 0.060064 0.000000
# 6 0.000000 0.000000 0.000000 0.000000 0.000000 0.056102
#
#
# Mechanical properties :
#
#
# Convention : Reuss Voigt Hill
#
# Bulk Modulus (GPa) = 21.86674 32.97255 27.41964
# Shear Modulus (GPa) = 16.20866 19.66226 17.93546
#
# Velocity S-wave (km/s) = 3.26410 3.59506 3.43357
# Velocity P-wave (km/s) = 5.34596 6.23748 5.80885
#
# Compressibility (1/GPa) = 0.04573156
#
# Stress axis : x y z
#
# Youngs Moduli (GPa) = 27.72514 27.72547 108.33216
#
# Poissons Ratio (x) = 0.25493 0.46708
# Poissons Ratio (y) = 0.25493 0.46707
# Poissons Ratio (z) = 0.11954 0.11954
#
# Static dielectric constant tensor:
#      x y z
#    x 2.727000 0.000000 0.000000 
#    y 0.000000 2.726980 0.000000 
#    z 0.000000 0.000000 3.359320 
# 
# 
# High freq. dielectric constant tensor:
#      x y z
#    x 1.548380 0.000000 0.000000 
#    y 0.000000 1.548380 0.000000 
#    z 0.000000 0.000000 1.605740 
# 
# From -- ./inp_files/3330.got.cif
#   From: 2010.03.12/outbox.cif.g09.slc.cpg/sg121_2_cif.got.tgz:3330.got - 2010.04.06 16:06:48.
