data_PCOD8311956
_publ_section_title
;
Structure prediction by ZEFSAII (Michael W. Deem and Ramdas Pophale) SiO2 
 PCOD8311956
Probable space group: I -4 2 D
;
_chemical_formula_sum "Si O2"
_cell_formula_units_Z 76
_cell_length_a 13.462770
_cell_length_b 13.462770
_cell_length_c 21.243626
_cell_angle_alpha 90.000000
_cell_angle_beta 90.000000
_cell_angle_gamma 90.000000
_cell_volume 3850.325978
_symmetry_space_group_name_H-M "I -4 2 D"
_symmetry_group_IT_number 122
_symmetry_cell_setting 'tetragonal'
loop_
_space_group_symop_operation_xyz
x,y,z
y,-x,-z
-x,-y,z
-y,x,-z
x,1/2-y,1/4-z
-x,1/2+y,1/4-z
-y,1/2-x,1/4+z
y,1/2+x,1/4+z
1/2+x,1/2+y,1/2+z
1/2+y,1/2-x,1/2-z
1/2-x,1/2-y,1/2+z
1/2-y,1/2+x,1/2-z
1/2+x,-y,3/4-z
1/2-x,y,3/4-z
1/2-y,-x,3/4+z
1/2+y,x,3/4+z
loop_
_atom_site_type_symbol
_atom_site_label
_atom_site_fract_x
_atom_site_fract_y
_atom_site_fract_z
Si Si1 0.223196 0.847404 0.269229
Si Si2 0.652876 0.419173 0.090503
Si Si3 0.788854 0.363514 0.308725
Si Si4 0.750000 0.993573 0.375000
Si Si5 0.528017 0.244433 0.456478
Si Si6 0.000000 0.000000 0.500000
O O1 0.265209 0.858559 0.198964
O O2 0.266269 0.742656 0.296339
O O3 0.255026 0.939040 0.312877
O O4 0.102862 0.840058 0.266253
O O5 0.575138 0.347146 0.125161
O O6 0.709315 0.484408 0.140865
O O7 0.597356 0.494075 0.043289
O O8 0.750000 0.406289 0.375000
O O9 0.908280 0.345006 0.307154
O O10 0.762305 0.441299 0.255382
#
# Coordination Sequence:
#
# PCOD8311956 Si02
#       6
#    16  16  16   8  16   4
#     4  10  23  43  65  95 140 175 229 291 354 411
#     4  12  24  39  67 102 137 177 232 287 354 425
#     4  10  23  45  70  93 140 182 233 289 351 410
#     4  12  22  40  68  96 134 180 230 290 360 416
#     4  10  25  43  68 101 136 184 237 285 351 426
#     4  12  24  36  68 104 132 176 220 282 368 432
#
# _framework density 19.738586999999999
#
# number of rings (size 3 to 8) (size 9 to 14) (size 15 to 20)
#    1.263    0.000    3.158    2.526    2.947    3.789 
#    0.000    0.000    0.000    0.000    0.000    0.000 
#    0.000    0.000    0.000    0.000    0.000    0.000 
#
# Total GULP energy -471100.777267 kJ/mol
# GULP energy per Si atom -12397.388875 kJ/mol
# Density = 1.969366 g / cm^3
# Si number density = 19.738587 Si / 1000 Ang^3
#
#
#
# Elastic Constant Matrix: (Units=GPa)
#
#
# Indices 1 2 3 4 5 6 
#
# 1 84.5430 20.0615 56.3613 0.0000 0.0000 0.0000
# 2 20.0615 84.5430 56.3613 0.0000 0.0000 0.0000
# 3 56.3613 56.3613 142.5499 0.0000 0.0000 0.0000
# 4 0.0000 0.0000 0.0000 38.4731 0.0000 0.0000
# 5 0.0000 0.0000 0.0000 0.0000 38.4731 0.0000
# 6 0.0000 0.0000 0.0000 0.0000 0.0000 34.7477
#
#
#
# Elastic Compliance Matrix: (Units=1/GPa)
#
#
# Indices 1 2 3 4 5 6 
#
# 1 0.016082 0.000574 -0.006586 0.000000 0.000000 0.000000
# 2 0.000574 0.016082 -0.006586 0.000000 0.000000 0.000000
# 3 -0.006586 -0.006586 0.012223 0.000000 0.000000 0.000000
# 4 0.000000 0.000000 0.000000 0.025992 0.000000 0.000000
# 5 0.000000 0.000000 0.000000 0.000000 0.025992 0.000000
# 6 0.000000 0.000000 0.000000 0.000000 0.000000 0.028779
#
#
# Mechanical properties :
#
#
# Convention : Reuss Voigt Hill
#
# Bulk Modulus (GPa) = 52.10166 64.13380 58.11773
# Shear Modulus (GPa) = 31.89934 34.26225 33.08079
#
# Velocity S-wave (km/s) = 4.02442 4.17081 4.09827
# Velocity P-wave (km/s) = 6.93165 7.46702 7.20431
#
# Compressibility (1/GPa) = 0.01919325
#
# Stress axis : x y z
#
# Youngs Moduli (GPa) = 62.17953 62.17953 81.81447
#
# Poissons Ratio (x) = -0.03570 0.53880
# Poissons Ratio (y) = -0.03570 0.53880
# Poissons Ratio (z) = 0.40949 0.40949
#
# Static dielectric constant tensor:
#      x y z
#    x 3.521570 0.000000 0.000000 
#    y 0.000000 3.521570 0.000000 
#    z 0.000000 0.000000 3.603130 
# 
# 
# High freq. dielectric constant tensor:
#      x y z
#    x 1.764430 0.000000 0.000000 
#    y 0.000000 1.764430 0.000000 
#    z 0.000000 0.000000 1.773300 
# 
# From -- ./inp_files/7138.got.cif
#   From: 2010.03.12/outbox.cif.g09.slc.cpg/sg122_4_cif.got.tgz:7138.got - 2010.04.06 16:17:16.
