data_PCOD8311893
_publ_section_title
;
Structure prediction by ZEFSAII (Michael W. Deem and Ramdas Pophale) SiO2 
 PCOD8311893
Probable space group: I -4 2 D
;
_chemical_formula_sum "Si O2"
_cell_formula_units_Z 96
_cell_length_a 14.388737
_cell_length_b 14.388737
_cell_length_c 21.916719
_cell_angle_alpha 90.000000
_cell_angle_beta 90.000000
_cell_angle_gamma 90.000000
_cell_volume 4537.544410
_symmetry_space_group_name_H-M "I -4 2 D"
_symmetry_group_IT_number 122
_symmetry_cell_setting 'tetragonal'
loop_
_space_group_symop_operation_xyz
x,y,z
y,-x,-z
-x,-y,z
-y,x,-z
x,1/2-y,1/4-z
-x,1/2+y,1/4-z
-y,1/2-x,1/4+z
y,1/2+x,1/4+z
1/2+x,1/2+y,1/2+z
1/2+y,1/2-x,1/2-z
1/2-x,1/2-y,1/2+z
1/2-y,1/2+x,1/2-z
1/2+x,-y,3/4-z
1/2-x,y,3/4-z
1/2-y,-x,3/4+z
1/2+y,x,3/4+z
loop_
_atom_site_type_symbol
_atom_site_label
_atom_site_fract_x
_atom_site_fract_y
_atom_site_fract_z
Si Si1 0.915643 0.886688 0.517907
Si Si2 0.394686 0.182456 0.985262
Si Si3 0.144655 0.830012 0.363264
Si Si4 0.194104 0.012841 0.814410
Si Si5 0.555697 0.145537 0.902355
Si Si6 0.642198 0.487891 0.522995
O O1 0.867170 0.791270 0.493103
O O2 0.884815 0.913930 0.586205
O O3 0.027502 0.880488 0.522854
O O4 0.334327 0.122054 0.937419
O O5 0.501083 0.182760 0.962007
O O6 0.373688 0.123272 0.047023
O O7 0.250000 0.853467 0.375000
O O8 0.127124 0.720265 0.373092
O O9 0.250000 0.995307 0.875000
O O10 0.253375 0.982130 0.754260
O O11 0.103846 0.947644 0.822691
O O12 0.483157 0.131966 0.846450
O O13 0.585673 0.400131 0.498750
#
# Coordination Sequence:
#
# PCOD8311893 Si02
#       6
#    16  16  16  16  16  16
#     4  10  21  44  71  96 136 180 223 283 357 409
#     4  11  24  43  66 105 132 174 238 284 337 426
#     4  10  22  42  70  94 134 179 226 279 352 412
#     4  12  24  42  67  97 139 183 228 280 347 415
#     4  12  23  43  66  99 137 175 225 294 334 412
#     4  11  24  42  65  92 132 181 220 272 345 405
#
# _framework density 21.156818000000001
#
# number of rings (size 3 to 8) (size 9 to 14) (size 15 to 20)
#    0.000    1.000    5.000    2.000    2.333    0.000 
#    9.000    2.500    0.000    0.000    0.000    0.000 
#    0.000    0.000    0.000    0.000    0.000    0.000 
#
# Total GULP energy -594700.595456 kJ/mol
# GULP energy per Si atom -12389.595739 kJ/mol
# Density = 2.110866 g / cm^3
# Si number density = 21.156818 Si / 1000 Ang^3
#
#
#
# Elastic Constant Matrix: (Units=GPa)
#
#
# Indices 1 2 3 4 5 6 
#
# 1 74.0540 6.0539 32.3836 0.0000 0.0000 0.0000
# 2 6.0539 74.0540 32.3836 0.0000 0.0000 0.0000
# 3 32.3836 32.3836 87.2112 0.0000 0.0000 0.0000
# 4 0.0000 0.0000 0.0000 33.3590 0.0000 0.0000
# 5 0.0000 0.0000 0.0000 0.0000 33.3590 0.0000
# 6 0.0000 0.0000 0.0000 0.0000 0.0000 31.6546
#
#
#
# Elastic Compliance Matrix: (Units=1/GPa)
#
#
# Indices 1 2 3 4 5 6 
#
# 1 0.016272 0.001566 -0.006624 0.000000 0.000000 0.000000
# 2 0.001566 0.016272 -0.006624 0.000000 0.000000 0.000000
# 3 -0.006624 -0.006624 0.016386 0.000000 0.000000 0.000000
# 4 0.000000 0.000000 0.000000 0.029977 0.000000 0.000000
# 5 0.000000 0.000000 0.000000 0.000000 0.029977 0.000000
# 6 0.000000 0.000000 0.000000 0.000000 0.000000 0.031591
#
#
# Mechanical properties :
#
#
# Convention : Reuss Voigt Hill
#
# Bulk Modulus (GPa) = 39.11258 41.88461 40.49859
# Shear Modulus (GPa) = 29.00902 30.64105 29.82504
#
# Velocity S-wave (km/s) = 3.70691 3.80976 3.75869
# Velocity P-wave (km/s) = 6.07031 6.26040 6.16609
#
# Compressibility (1/GPa) = 0.02556722
#
# Stress axis : x y z
#
# Youngs Moduli (GPa) = 61.45441 61.45441 61.02906
#
# Poissons Ratio (x) = -0.09626 0.40425
# Poissons Ratio (y) = -0.09626 0.40425
# Poissons Ratio (z) = 0.40707 0.40707
#
# Static dielectric constant tensor:
#      x y z
#    x 3.794620 0.000000 0.000000 
#    y 0.000000 3.794620 0.000000 
#    z 0.000000 0.000000 4.287270 
# 
# 
# High freq. dielectric constant tensor:
#      x y z
#    x 1.823820 0.000000 0.000000 
#    y 0.000000 1.823820 0.000000 
#    z 0.000000 0.000000 1.834240 
# 
# From -- ./inp_files/7274.got.cif
#   From: 2010.03.12/outbox.cif.g09.slc.cpg/sg122_4_cif.got.tgz:7274.got - 2010.04.06 16:17:16.
