data_PCOD8311645
_publ_section_title
;
Structure prediction by ZEFSAII (Michael W. Deem and Ramdas Pophale) SiO2 
 PCOD8311645
Probable space group: I -4 2 M
;
_chemical_formula_sum "Si O2"
_cell_formula_units_Z 40
_cell_length_a 11.716945
_cell_length_b 11.716945
_cell_length_c 12.567417
_cell_angle_alpha 90.000000
_cell_angle_beta 90.000000
_cell_angle_gamma 90.000000
_cell_volume 1725.340466
_symmetry_space_group_name_H-M "I -4 2 M"
_symmetry_group_IT_number 121
_symmetry_cell_setting 'tetragonal'
loop_
_space_group_symop_operation_xyz
x,y,z
y,-x,-z
-x,-y,z
-y,x,-z
x,-y,-z
-x,y,-z
-y,-x,z
y,x,z
1/2+x,1/2+y,1/2+z
1/2+y,1/2-x,1/2-z
1/2-x,1/2-y,1/2+z
1/2-y,1/2+x,1/2-z
1/2+x,1/2-y,1/2-z
1/2-x,1/2+y,1/2-z
1/2-y,1/2-x,1/2+z
1/2+y,1/2+x,1/2+z
loop_
_atom_site_type_symbol
_atom_site_label
_atom_site_fract_x
_atom_site_fract_y
_atom_site_fract_z
Si Si1 0.682485 0.502561 0.209104
Si Si2 0.685345 0.000000 0.500000
Si Si3 0.583958 0.770194 0.584514
O O1 0.577806 0.422195 0.238430
O O2 0.633488 0.633488 0.205041
O O3 0.734651 0.462680 0.097515
O O4 0.775565 0.484047 0.302860
O O5 0.607791 0.102665 0.457180
O O6 0.500000 0.709305 0.500000
O O7 0.702215 0.702215 0.593783
#
# Coordination Sequence:
#
# PCOD8311645 Si02
#       3
#    16   8  16
#     4  10  22  42  70 102 140 190 242 290 350 432
#     4  12  25  43  70 104 142 181 234 302 365 420
#     4  11  25  44  69 101 141 186 234 291 355 428
#
# _framework density 23.183831999999999
#
# number of rings (size 3 to 8) (size 9 to 14) (size 15 to 20)
#    0.000    1.200    0.000    5.400    5.600    3.600 
#    0.000    0.000    0.000    0.000    0.000    0.000 
#    0.000    0.000    0.000    0.000    0.000    0.000 
#
# Total GULP energy -247946.525292 kJ/mol
# GULP energy per Si atom -12397.326265 kJ/mol
# Density = 2.313106 g / cm^3
# Si number density = 23.183832 Si / 1000 Ang^3
#
#
#
# Elastic Constant Matrix: (Units=GPa)
#
#
# Indices 1 2 3 4 5 6 
#
# 1 97.2133 42.9237 58.8355 0.0000 0.0000 0.0000
# 2 42.9237 97.2129 58.8353 0.0000 0.0000 0.0000
# 3 58.8355 58.8353 222.5940 0.0000 0.0000 0.0000
# 4 0.0000 0.0000 0.0000 31.7973 0.0000 0.0000
# 5 0.0000 0.0000 0.0000 0.0000 31.7975 0.0000
# 6 0.0000 0.0000 0.0000 0.0000 0.0000 39.4231
#
#
#
# Elastic Compliance Matrix: (Units=1/GPa)
#
#
# Indices 1 2 3 4 5 6 
#
# 1 0.013796 -0.004624 -0.002424 0.000000 0.000000 0.000000
# 2 -0.004624 0.013796 -0.002424 0.000000 0.000000 0.000000
# 3 -0.002424 -0.002424 0.005774 0.000000 0.000000 0.000000
# 4 0.000000 0.000000 0.000000 0.031449 0.000000 0.000000
# 5 0.000000 0.000000 0.000000 0.000000 0.031449 0.000000
# 6 0.000000 0.000000 0.000000 0.000000 0.000000 0.025366
#
#
# Mechanical properties :
#
#
# Convention : Reuss Voigt Hill
#
# Bulk Modulus (GPa) = 69.34731 82.02323 75.68527
# Shear Modulus (GPa) = 34.39238 37.69862 36.04550
#
# Velocity S-wave (km/s) = 3.85575 4.03684 3.94733
# Velocity P-wave (km/s) = 7.05686 7.56203 7.31381
#
# Compressibility (1/GPa) = 0.01442017
#
# Stress axis : x y z
#
# Youngs Moduli (GPa) = 72.48696 72.48669 173.19072
#
# Poissons Ratio (x) = 0.33519 0.41984
# Poissons Ratio (y) = 0.33519 0.41984
# Poissons Ratio (z) = 0.17572 0.17572
#
# Static dielectric constant tensor:
#      x y z
#    x 4.134140 0.000000 0.000000 
#    y 0.000000 4.134140 0.000000 
#    z 0.000000 0.000000 4.499890 
# 
# 
# High freq. dielectric constant tensor:
#      x y z
#    x 1.911170 0.000000 0.000000 
#    y 0.000000 1.911170 0.000000 
#    z 0.000000 0.000000 1.933790 
# 
# From -- ./inp_files/3791.got.cif
#   From: 2010.03.12/outbox.cif.g09.slc.cpg/sg121_2_cif.got.tgz:3791.got - 2010.04.06 16:06:48.
