data_PCOD8311176
_publ_section_title
;
Structure prediction by ZEFSAII (Michael W. Deem and Ramdas Pophale) SiO2 
 PCOD8311176
Probable space group: I -4 C 2
;
_chemical_formula_sum "Si O2"
_cell_formula_units_Z 96
_cell_length_a 19.757292
_cell_length_b 19.757292
_cell_length_c 12.361450
_cell_angle_alpha 90.000000
_cell_angle_beta 90.000000
_cell_angle_gamma 90.000000
_cell_volume 4825.299266
_symmetry_space_group_name_H-M "I -4 C 2"
_symmetry_group_IT_number 120
_symmetry_cell_setting 'tetragonal'
loop_
_space_group_symop_operation_xyz
x,y,z
y,-x,-z
-x,-y,z
-y,x,-z
y,x,1/2-z
-y,-x,1/2-z
-x,y,1/2+z
x,-y,1/2+z
1/2+x,1/2+y,1/2+z
1/2+y,1/2-x,1/2-z
1/2-x,1/2-y,1/2+z
1/2-y,1/2+x,1/2-z
1/2+y,1/2+x,-z
1/2-y,1/2-x,-z
1/2-x,1/2+y,z
1/2+x,1/2-y,z
loop_
_atom_site_type_symbol
_atom_site_label
_atom_site_fract_x
_atom_site_fract_y
_atom_site_fract_z
Si Si1 0.498171 0.889836 0.489145
Si Si2 0.700505 0.069455 0.173385
Si Si3 0.777581 0.889412 0.464182
Si Si4 0.212972 0.676776 0.259825
Si Si5 0.021127 0.260750 0.612081
Si Si6 0.150010 0.241292 0.465310
O O1 0.551534 0.948467 0.500000
O O2 0.515672 0.854067 0.373493
O O3 0.509400 0.835355 0.584796
O O4 0.422594 0.922594 0.500000
O O5 0.673626 0.131592 0.247019
O O6 0.747686 0.029532 0.259220
O O7 0.741991 0.106159 0.079760
O O8 0.729853 0.856549 0.373938
O O9 0.841280 0.839905 0.477062
O O10 0.795716 0.966188 0.426234
O O11 0.248148 0.751853 0.250000
O O12 0.240417 0.632139 0.158809
O O13 0.088724 0.258403 0.542476
O O14 0.217688 0.282313 0.500000
#
# Coordination Sequence:
#
# PCOD8311176 Si02
#       6
#    16  16  16  16  16  16
#     4  10  23  40  53  78 122 174 217 251 308 379
#     4  11  21  36  60  86 125 158 216 267 322 381
#     4  10  23  37  57  88 128 160 200 266 338 385
#     4  10  20  36  63  91 119 162 211 270 334 388
#     4  11  24  37  61  90 119 164 210 274 323 386
#     4  11  21  40  64  94 125 159 217 271 334 399
#
# _framework density 19.895139
#
# number of rings (size 3 to 8) (size 9 to 14) (size 15 to 20)
#    0.000    1.500    1.667    5.000    4.667    2.000 
#    0.000    1.667    0.000    0.500    0.000    0.000 
#    0.000    0.000    0.000    0.000    0.000    0.000 
#
# Total GULP energy -594650.831121 kJ/mol
# GULP energy per Si atom -12388.558982 kJ/mol
# Density = 1.984986 g / cm^3
# Si number density = 19.895139 Si / 1000 Ang^3
#
#
#
# Elastic Constant Matrix: (Units=GPa)
#
#
# Indices 1 2 3 4 5 6 
#
# 1 73.8162 37.2870 43.7409 0.0000 0.0000 0.0000
# 2 37.2870 73.8160 43.7390 0.0000 0.0000 0.0000
# 3 43.7409 43.7390 135.5636 0.0000 0.0000 0.0000
# 4 0.0000 0.0000 0.0000 29.0708 0.0000 0.0000
# 5 0.0000 0.0000 0.0000 0.0000 29.0717 0.0000
# 6 0.0000 0.0000 0.0000 0.0000 0.0000 27.8405
#
#
#
# Elastic Compliance Matrix: (Units=1/GPa)
#
#
# Indices 1 2 3 4 5 6 
#
# 1 0.019721 -0.007655 -0.003893 0.000000 0.000000 0.000000
# 2 -0.007655 0.019721 -0.003893 0.000000 0.000000 0.000000
# 3 -0.003893 -0.003893 0.009889 0.000000 0.000000 0.000000
# 4 0.000000 0.000000 0.000000 0.034399 0.000000 0.000000
# 5 0.000000 0.000000 0.000000 0.000000 0.034398 0.000000
# 6 0.000000 0.000000 0.000000 0.000000 0.000000 0.035919
#
#
# Mechanical properties :
#
#
# Convention : Reuss Voigt Hill
#
# Bulk Modulus (GPa) = 54.20534 59.19216 56.69875
# Shear Modulus (GPa) = 26.16744 27.75852 26.96298
#
# Velocity S-wave (km/s) = 3.63060 3.73935 3.68537
# Velocity P-wave (km/s) = 6.69923 6.96134 6.83154
#
# Compressibility (1/GPa) = 0.01844837
#
# Stress axis : x y z
#
# Youngs Moduli (GPa) = 50.70764 50.70848 101.12385
#
# Poissons Ratio (x) = 0.38816 0.39371
# Poissons Ratio (y) = 0.38815 0.39366
# Poissons Ratio (z) = 0.19742 0.19740
#
# Static dielectric constant tensor:
#      x y z
#    x 3.728480 0.000000 0.000000 
#    y 0.000000 3.728470 0.000000 
#    z 0.000000 0.000000 3.953550 
# 
# 
# High freq. dielectric constant tensor:
#      x y z
#    x 1.751010 0.000000 0.000000 
#    y 0.000000 1.751010 0.000000 
#    z 0.000000 0.000000 1.800300 
# 
# From -- ./inp_files/2718.got.cif
#   From: 2010.03.12/outbox.cif.g09.slc.cpg/sg120_2_cif.got.tgz:2718.got - 2010.04.06 16:00:44.
