data_PCOD8311476
_publ_section_title
;
Structure prediction by ZEFSAII (Michael W. Deem and Ramdas Pophale) SiO2 
 PCOD8311476
Probable space group: I -4 2 M
;
_chemical_formula_sum "Si O2"
_cell_formula_units_Z 60
_cell_length_a 20.284303
_cell_length_b 20.284303
_cell_length_c 7.918705
_cell_angle_alpha 90.000000
_cell_angle_beta 90.000000
_cell_angle_gamma 90.000000
_cell_volume 3258.174518
_symmetry_space_group_name_H-M "I -4 2 M"
_symmetry_group_IT_number 121
_symmetry_cell_setting 'tetragonal'
loop_
_space_group_symop_operation_xyz
x,y,z
y,-x,-z
-x,-y,z
-y,x,-z
x,-y,-z
-x,y,-z
-y,-x,z
y,x,z
1/2+x,1/2+y,1/2+z
1/2+y,1/2-x,1/2-z
1/2-x,1/2-y,1/2+z
1/2-y,1/2+x,1/2-z
1/2+x,1/2-y,1/2-z
1/2-x,1/2+y,1/2-z
1/2-y,1/2-x,1/2+z
1/2+y,1/2+x,1/2+z
loop_
_atom_site_type_symbol
_atom_site_label
_atom_site_fract_x
_atom_site_fract_y
_atom_site_fract_z
Si Si1 0.742530 0.363134 0.096355
Si Si2 0.680038 0.130143 0.913072
Si Si3 0.951321 0.635838 0.797957
Si Si4 0.000000 0.500000 0.250000
Si Si5 0.217820 0.500000 0.000000
O O1 0.673788 0.326213 0.064513
O O2 0.754778 0.371049 0.297277
O O3 0.801921 0.320375 0.017650
O O4 0.737359 0.434519 0.006033
O O5 0.615999 0.122786 0.799529
O O6 0.679456 0.065929 0.036242
O O7 0.001216 0.673020 0.669871
O O8 0.980856 0.565192 0.858187
#
# Coordination Sequence:
#
# PCOD8311476 Si02
#       5
#    16  16  16   4   8
#     4  10  19  34  54  75  99 131 174 218 267 318
#     4   9  19  33  50  71 100 136 176 221 255 291
#     4  10  20  31  44  69 103 141 179 214 249 296
#     4  12  20  26  44  66 100 150 184 198 232 294
#     4  10  22  35  48  71 104 134 168 220 270 314
#
# _framework density 18.415220999999999
#
# number of rings (size 3 to 8) (size 9 to 14) (size 15 to 20)
#    0.000    2.133    0.000    5.600    0.000    8.000 
#    0.000    1.333    0.000    0.400    0.000    0.000 
#    0.000    0.000    0.000    0.000    0.000    0.000 
#
# Total GULP energy -371820.871976 kJ/mol
# GULP energy per Si atom -12394.029066 kJ/mol
# Density = 1.837331 g / cm^3
# Si number density = 18.415221 Si / 1000 Ang^3
#
#
#
# Elastic Constant Matrix: (Units=GPa)
#
#
# Indices 1 2 3 4 5 6 
#
# 1 86.5389 56.3427 22.2718 0.0000 0.0000 0.0000
# 2 56.3427 86.5354 22.2717 0.0000 0.0000 0.0000
# 3 22.2718 22.2717 87.1172 0.0000 0.0000 0.0000
# 4 0.0000 0.0000 0.0000 18.4827 0.0000 0.0000
# 5 0.0000 0.0000 0.0000 0.0000 18.4831 0.0000
# 6 0.0000 0.0000 0.0000 0.0000 0.0000 37.3455
#
#
#
# Elastic Compliance Matrix: (Units=1/GPa)
#
#
# Indices 1 2 3 4 5 6 
#
# 1 0.020361 -0.012757 -0.001944 0.000000 0.000000 0.000000
# 2 -0.012757 0.020362 -0.001944 0.000000 0.000000 0.000000
# 3 -0.001944 -0.001944 0.012473 0.000000 0.000000 0.000000
# 4 0.000000 0.000000 0.000000 0.054105 0.000000 0.000000
# 5 0.000000 0.000000 0.000000 0.000000 0.054104 0.000000
# 6 0.000000 0.000000 0.000000 0.000000 0.000000 0.026777
#
#
# Mechanical properties :
#
#
# Convention : Reuss Voigt Hill
#
# Bulk Modulus (GPa) = 50.23624 51.32933 50.78279
# Shear Modulus (GPa) = 21.91946 25.48260 23.70103
#
# Velocity S-wave (km/s) = 3.45380 3.72395 3.59142
# Velocity P-wave (km/s) = 6.57601 6.81354 6.69583
#
# Compressibility (1/GPa) = 0.01990595
#
# Stress axis : x y z
#
# Youngs Moduli (GPa) = 49.11250 49.11038 80.17386
#
# Poissons Ratio (x) = 0.62649 0.15587
# Poissons Ratio (y) = 0.62652 0.15588
# Poissons Ratio (z) = 0.09548 0.09549
#
# Static dielectric constant tensor:
#      x y z
#    x 3.188400 0.000000 0.000000 
#    y 0.000000 3.188400 0.000000 
#    z 0.000000 0.000000 3.898970 
# 
# 
# High freq. dielectric constant tensor:
#      x y z
#    x 1.678090 0.000000 0.000000 
#    y 0.000000 1.678090 0.000000 
#    z 0.000000 0.000000 1.733120 
# 
# From -- ./inp_files/1415.got.cif
#   From: 2010.03.12/outbox.cif.g09.slc.cpg/sg121_1_cif.got.tgz:1415.got - 2010.04.06 16:06:48.
