data_PCOD8311041
_publ_section_title
;
Structure prediction by ZEFSAII (Michael W. Deem and Ramdas Pophale) SiO2 
 PCOD8311041
Probable space group: I -4 M 2
;
_chemical_formula_sum "Si O2"
_cell_formula_units_Z 80
_cell_length_a 13.834692
_cell_length_b 13.834692
_cell_length_c 26.574601
_cell_angle_alpha 90.000000
_cell_angle_beta 90.000000
_cell_angle_gamma 90.000000
_cell_volume 5086.344157
_symmetry_space_group_name_H-M "I -4 M 2"
_symmetry_group_IT_number 119
_symmetry_cell_setting 'tetragonal'
loop_
_space_group_symop_operation_xyz
x,y,z
y,-x,-z
-x,-y,z
-y,x,-z
y,x,-z
-y,-x,-z
-x,y,z
x,-y,z
1/2+x,1/2+y,1/2+z
1/2+y,1/2-x,1/2-z
1/2-x,1/2-y,1/2+z
1/2-y,1/2+x,1/2-z
1/2+y,1/2+x,1/2-z
1/2-y,1/2-x,1/2-z
1/2-x,1/2+y,1/2+z
1/2+x,1/2-y,1/2+z
loop_
_atom_site_type_symbol
_atom_site_label
_atom_site_fract_x
_atom_site_fract_y
_atom_site_fract_z
Si Si1 0.393062 0.610353 0.765357
Si Si2 0.888689 0.888504 0.557988
Si Si3 0.707118 0.110786 0.204181
Si Si4 0.888487 0.387619 0.192329
Si Si5 0.703857 0.717411 0.854046
O O1 0.500000 0.639191 0.745718
O O2 0.388469 0.500000 0.782265
O O3 0.317165 0.630223 0.721096
O O4 0.369684 0.668832 0.815176
O O5 0.866341 0.866341 0.500000
O O6 0.819192 0.819026 0.590093
O O7 0.000000 0.865005 0.570526
O O8 0.866293 0.000000 0.570387
O O9 0.634170 0.134170 0.250000
O O10 0.689766 0.184338 0.157936
O O11 0.690368 0.000000 0.186789
O O12 0.865800 0.500000 0.182556
O O13 0.860107 0.360107 0.250000
O O14 0.831014 0.319549 0.152879
O O15 0.000000 0.365717 0.182833
#
# Coordination Sequence:
#
# PCOD8311041 Si02
#       5
#    16  16  16  16  16
#     4   9  16  26  42  65  90 111 136 175 217 254
#     4   9  18  32  49  69  89 104 125 168 224 271
#     4   9  19  31  41  59  87 119 151 180 210 247
#     4   9  17  27  39  61  94 125 148 170 203 253
#     4  11  18  26  45  64  83 114 149 178 208 253
#
# _framework density 15.728389
#
# number of rings (size 3 to 8) (size 9 to 14) (size 15 to 20)
#    0.000    2.600    0.000    5.400    0.000    5.000 
#    0.000    0.000    0.000    1.200    0.000    2.800 
#    0.000    0.000    0.000    1.800    0.000    0.200 
#
# Total GULP energy -495899.421619 kJ/mol
# GULP energy per Si atom -12397.485540 kJ/mol
# Density = 1.569259 g / cm^3
# Si number density = 15.728389 Si / 1000 Ang^3
#
#
#
# Elastic Constant Matrix: (Units=GPa)
#
#
# Indices 1 2 3 4 5 6 
#
# 1 83.8923 37.2206 41.8278 0.0000 0.0000 0.0000
# 2 37.2206 83.8923 41.8278 0.0000 0.0000 0.0000
# 3 41.8278 41.8278 74.6101 0.0000 0.0000 0.0000
# 4 0.0000 0.0000 0.0000 21.3971 0.0000 0.0000
# 5 0.0000 0.0000 0.0000 0.0000 21.3971 0.0000
# 6 0.0000 0.0000 0.0000 0.0000 0.0000 20.1819
#
#
#
# Elastic Compliance Matrix: (Units=1/GPa)
#
#
# Indices 1 2 3 4 5 6 
#
# 1 0.017450 -0.003976 -0.007554 0.000000 0.000000 0.000000
# 2 -0.003976 0.017450 -0.007554 0.000000 0.000000 0.000000
# 3 -0.007554 -0.007554 0.021873 0.000000 0.000000 0.000000
# 4 0.000000 0.000000 0.000000 0.046735 0.000000 0.000000
# 5 0.000000 0.000000 0.000000 0.000000 0.046735 0.000000
# 6 0.000000 0.000000 0.000000 0.000000 0.000000 0.049549
#
#
# Mechanical properties :
#
#
# Convention : Reuss Voigt Hill
#
# Bulk Modulus (GPa) = 53.74699 53.79414 53.77056
# Shear Modulus (GPa) = 20.47808 20.69647 20.58727
#
# Velocity S-wave (km/s) = 3.61221 3.63142 3.62183
# Velocity P-wave (km/s) = 7.18635 7.20133 7.19384
#
# Compressibility (1/GPa) = 0.01860569
#
# Stress axis : x y z
#
# Youngs Moduli (GPa) = 57.30525 57.30525 45.71864
#
# Poissons Ratio (x) = 0.22784 0.34536
# Poissons Ratio (y) = 0.22784 0.34536
# Poissons Ratio (z) = 0.43289 0.43289
#
# Static dielectric constant tensor:
#      x y z
#    x 3.134490 0.000000 0.000000 
#    y 0.000000 3.134490 0.000000 
#    z 0.000000 0.000000 2.628910 
# 
# 
# High freq. dielectric constant tensor:
#      x y z
#    x 1.608050 0.000000 0.000000 
#    y 0.000000 1.608050 0.000000 
#    z 0.000000 0.000000 1.549270 
# 
# From -- ./inp_files/7528.got.cif
#   From: 2010.03.12/outbox.cif.g09.slc.cpg/sg119_4_cif.got.tgz:7528.got - 2010.04.14 02:25:26.
