data_PCOD8311334
_publ_section_title
;
Structure prediction by ZEFSAII (Michael W. Deem and Ramdas Pophale) SiO2 
 PCOD8311334
Probable space group: I -4 C 2
;
_chemical_formula_sum "Si O2"
_cell_formula_units_Z 64
_cell_length_a 11.083369
_cell_length_b 11.083369
_cell_length_c 23.063571
_cell_angle_alpha 90.000000
_cell_angle_beta 90.000000
_cell_angle_gamma 90.000000
_cell_volume 2833.153703
_symmetry_space_group_name_H-M "I -4 C 2"
_symmetry_group_IT_number 120
_symmetry_cell_setting 'tetragonal'
loop_
_space_group_symop_operation_xyz
x,y,z
y,-x,-z
-x,-y,z
-y,x,-z
y,x,1/2-z
-y,-x,1/2-z
-x,y,1/2+z
x,-y,1/2+z
1/2+x,1/2+y,1/2+z
1/2+y,1/2-x,1/2-z
1/2-x,1/2-y,1/2+z
1/2-y,1/2+x,1/2-z
1/2+y,1/2+x,-z
1/2-y,1/2-x,-z
1/2-x,1/2+y,z
1/2+x,1/2-y,z
loop_
_atom_site_type_symbol
_atom_site_label
_atom_site_fract_x
_atom_site_fract_y
_atom_site_fract_z
Si Si1 0.500000 0.500000 0.139820
Si Si2 0.749676 0.750325 0.500000
Si Si3 0.125275 0.556336 0.318368
Si Si4 0.496404 0.738725 0.570094
Si Si5 0.789577 0.961318 0.718719
O O1 0.523308 0.609390 0.097810
O O2 0.387363 0.536017 0.181366
O O3 0.622416 0.746719 0.534622
O O4 0.760615 0.626376 0.464431
O O5 0.163402 0.498794 0.378934
O O6 0.100514 0.698164 0.326753
O O7 0.223506 0.542056 0.267043
O O8 0.000000 0.500000 0.297854
O O9 0.850955 0.850955 0.750000
#
# Coordination Sequence:
#
# PCOD8311334 Si02
#       5
#     8   8  16  16  16
#     4  12  27  47  78 114 152 203 248 311 398 470
#     4  12  30  54  76 110 148 200 274 336 392 450
#     4  12  27  45  72 109 153 199 245 307 387 468
#     4  12  29  49  80 107 150 200 261 332 387 459
#     4  12  25  44  71 114 154 197 239 305 376 486
#
# _framework density 22.589666999999999
#
# number of rings (size 3 to 8) (size 9 to 14) (size 15 to 20)
#    0.000    0.000    5.000    3.375   10.500    0.000 
#    0.000    0.000    0.000    0.000    0.000    0.000 
#    0.000    0.000    0.000    0.000    0.000    0.000 
#
# Total GULP energy -396563.055458 kJ/mol
# GULP energy per Si atom -12392.595483 kJ/mol
# Density = 2.253825 g / cm^3
# Si number density = 22.589667 Si / 1000 Ang^3
#
#
#
# Elastic Constant Matrix: (Units=GPa)
#
#
# Indices 1 2 3 4 5 6 
#
# 1 153.5024 38.6895 66.3641 0.0000 0.0000 0.0000
# 2 38.6895 153.5023 66.3638 0.0000 0.0000 0.0000
# 3 66.3641 66.3638 142.3679 0.0000 0.0000 0.0000
# 4 0.0000 0.0000 0.0000 21.3423 0.0000 0.0000
# 5 0.0000 0.0000 0.0000 0.0000 21.3421 0.0000
# 6 0.0000 0.0000 0.0000 0.0000 0.0000 35.8221
#
#
#
# Elastic Compliance Matrix: (Units=1/GPa)
#
#
# Indices 1 2 3 4 5 6 
#
# 1 0.008192 -0.000518 -0.003577 0.000000 0.000000 0.000000
# 2 -0.000518 0.008192 -0.003577 0.000000 0.000000 0.000000
# 3 -0.003577 -0.003577 0.010359 0.000000 0.000000 0.000000
# 4 0.000000 0.000000 0.000000 0.046855 0.000000 0.000000
# 5 0.000000 0.000000 0.000000 0.000000 0.046856 0.000000
# 6 0.000000 0.000000 0.000000 0.000000 0.000000 0.027916
#
#
# Mechanical properties :
#
#
# Convention : Reuss Voigt Hill
#
# Bulk Modulus (GPa) = 87.73554 88.02302 87.87928
# Shear Modulus (GPa) = 29.84861 34.23164 32.04012
#
# Velocity S-wave (km/s) = 3.63897 3.89700 3.77019
# Velocity P-wave (km/s) = 7.52192 7.70061 7.61179
#
# Compressibility (1/GPa) = 0.01139789
#
# Stress axis : x y z
#
# Youngs Moduli (GPa) = 122.07654 122.07670 96.53688
#
# Poissons Ratio (x) = 0.06327 0.34530
# Poissons Ratio (y) = 0.06327 0.34530
# Poissons Ratio (z) = 0.43665 0.43665
#
# Static dielectric constant tensor:
#      x y z
#    x 4.619140 0.000000 0.000000 
#    y 0.000000 4.619150 0.000000 
#    z 0.000000 0.000000 5.224130 
# 
# 
# High freq. dielectric constant tensor:
#      x y z
#    x 1.908200 0.000000 0.000000 
#    y 0.000000 1.908200 0.000000 
#    z 0.000000 0.000000 1.897970 
# 
# From -- ./inp_files/5693.got.cif
#   From: 2010.03.12/outbox.cif.g09.slc.cpg/sg120_3_cif.got.tgz:5693.got - 2010.04.06 16:00:44.
