data_PCOD8311026
_publ_section_title
;
Structure prediction by ZEFSAII (Michael W. Deem and Ramdas Pophale) SiO2 
 PCOD8311026
Probable space group: I -4 M 2
;
_chemical_formula_sum "Si O2"
_cell_formula_units_Z 112
_cell_length_a 14.141563
_cell_length_b 14.141563
_cell_length_c 26.508867
_cell_angle_alpha 90.000000
_cell_angle_beta 90.000000
_cell_angle_gamma 90.000000
_cell_volume 5301.344065
_symmetry_space_group_name_H-M "I -4 M 2"
_symmetry_group_IT_number 119
_symmetry_cell_setting 'tetragonal'
loop_
_space_group_symop_operation_xyz
x,y,z
y,-x,-z
-x,-y,z
-y,x,-z
y,x,-z
-y,-x,-z
-x,y,z
x,-y,z
1/2+x,1/2+y,1/2+z
1/2+y,1/2-x,1/2-z
1/2-x,1/2-y,1/2+z
1/2-y,1/2+x,1/2-z
1/2+y,1/2+x,1/2-z
1/2-y,1/2-x,1/2-z
1/2-x,1/2+y,1/2+z
1/2+x,1/2-y,1/2+z
loop_
_atom_site_type_symbol
_atom_site_label
_atom_site_fract_x
_atom_site_fract_y
_atom_site_fract_z
Si Si1 0.145564 0.601430 0.802058
Si Si2 0.389019 0.642387 0.229462
Si Si3 0.225208 0.889959 0.831362
Si Si4 0.391896 0.106250 0.470868
Si Si5 0.106200 0.747976 0.885706
Si Si6 0.892322 0.774355 0.460116
Si Si7 0.604448 0.758757 0.849039
O O1 0.139446 0.500000 0.830799
O O2 0.089186 0.589186 0.750000
O O3 0.250670 0.627492 0.785996
O O4 0.103128 0.684861 0.835238
O O5 0.500000 0.613242 0.230806
O O6 0.341941 0.619832 0.283002
O O7 0.331704 0.586579 0.186682
O O8 0.171082 0.840304 0.878353
O O9 0.325856 0.836700 0.824046
O O10 0.243459 0.000000 0.843683
O O11 0.500000 0.126884 0.484405
O O12 0.353378 0.182304 0.430415
O O13 0.334200 0.117789 0.522338
O O14 0.378999 0.000000 0.448696
O O15 0.000000 0.781998 0.897534
O O16 0.839014 0.839014 0.500000
O O17 0.853127 0.778052 0.402741
O O18 0.000000 0.809553 0.460639
O O19 0.500000 0.804847 0.857586
#
# Coordination Sequence:
#
# PCOD8311026 Si02
#       7
#    16  16  16  16  16  16  16
#     4  11  20  32  54  83 121 162 195 236 293 361
#     4  11  23  41  64  89 122 162 198 243 308 379
#     4  12  25  42  62  86 122 164 211 260 310 369
#     4   9  19  37  62  90 122 159 199 251 312 374
#     4  11  21  36  58  89 125 160 202 246 301 372
#     4  10  22  39  61  90 124 162 205 253 309 370
#     4  11  24  43  66  92 122 161 213 264 310 361
#
# _framework density 21.126719000000001
#
# number of rings (size 3 to 8) (size 9 to 14) (size 15 to 20)
#    0.000    1.286    2.857    3.000    0.000    5.143 
#    0.000    2.857    0.000    1.714    0.000    0.000 
#    0.000    5.714    0.000    0.000    0.000    0.000 
#
# Total GULP energy -694143.074150 kJ/mol
# GULP energy per Si atom -12395.412038 kJ/mol
# Density = 2.107863 g / cm^3
# Si number density = 21.126719 Si / 1000 Ang^3
#
#
#
# Elastic Constant Matrix: (Units=GPa)
#
#
# Indices 1 2 3 4 5 6 
#
# 1 114.7279 41.5740 30.1386 0.0000 0.0000 0.0000
# 2 41.5740 114.7279 30.1386 0.0000 0.0000 0.0000
# 3 30.1386 30.1386 90.1653 0.0000 0.0000 0.0000
# 4 0.0000 0.0000 0.0000 24.7752 0.0000 0.0000
# 5 0.0000 0.0000 0.0000 0.0000 24.7752 0.0000
# 6 0.0000 0.0000 0.0000 0.0000 0.0000 18.5541
#
#
#
# Elastic Compliance Matrix: (Units=1/GPa)
#
#
# Indices 1 2 3 4 5 6 
#
# 1 0.010507 -0.003163 -0.002455 0.000000 0.000000 0.000000
# 2 -0.003163 0.010507 -0.002455 0.000000 0.000000 0.000000
# 3 -0.002455 -0.002455 0.012732 0.000000 0.000000 0.000000
# 4 0.000000 0.000000 0.000000 0.040363 0.000000 0.000000
# 5 0.000000 0.000000 0.000000 0.000000 0.040363 0.000000
# 6 0.000000 0.000000 0.000000 0.000000 0.000000 0.053897
#
#
# Mechanical properties :
#
#
# Convention : Reuss Voigt Hill
#
# Bulk Modulus (GPa) = 56.81436 58.14707 57.48072
# Shear Modulus (GPa) = 26.26309 28.13887 27.20098
#
# Velocity S-wave (km/s) = 3.52962 3.65349 3.59209
# Velocity P-wave (km/s) = 6.60011 6.73647 6.66864
#
# Compressibility (1/GPa) = 0.01760118
#
# Stress axis : x y z
#
# Youngs Moduli (GPa) = 95.17256 95.17256 78.54245
#
# Poissons Ratio (x) = 0.30099 0.19282
# Poissons Ratio (y) = 0.30099 0.19282
# Poissons Ratio (z) = 0.23365 0.23365
#
# Static dielectric constant tensor:
#      x y z
#    x 3.890140 0.000000 0.000000 
#    y 0.000000 3.890140 0.000000 
#    z 0.000000 0.000000 3.775380 
# 
# 
# High freq. dielectric constant tensor:
#      x y z
#    x 1.828880 0.000000 0.000000 
#    y 0.000000 1.828880 0.000000 
#    z 0.000000 0.000000 1.815330 
# 
# From -- ./inp_files/8852.got.cif
#   From: 2010.03.12/outbox.cif.g09.slc.cpg/sg119_5_cif.got.tgz:8852.got - 2010.04.14 02:25:26.
