data_PCOD8311824
_publ_section_title
;
Structure prediction by ZEFSAII (Michael W. Deem and Ramdas Pophale) SiO2 
 PCOD8311824
Probable space group: I -4 2 D
;
_chemical_formula_sum "Si O2"
_cell_formula_units_Z 72
_cell_length_a 11.335432
_cell_length_b 11.335432
_cell_length_c 25.496902
_cell_angle_alpha 90.000000
_cell_angle_beta 90.000000
_cell_angle_gamma 90.000000
_cell_volume 3276.148407
_symmetry_space_group_name_H-M "I -4 2 D"
_symmetry_group_IT_number 122
_symmetry_cell_setting 'tetragonal'
loop_
_space_group_symop_operation_xyz
x,y,z
y,-x,-z
-x,-y,z
-y,x,-z
x,1/2-y,1/4-z
-x,1/2+y,1/4-z
-y,1/2-x,1/4+z
y,1/2+x,1/4+z
1/2+x,1/2+y,1/2+z
1/2+y,1/2-x,1/2-z
1/2-x,1/2-y,1/2+z
1/2-y,1/2+x,1/2-z
1/2+x,-y,3/4-z
1/2-x,y,3/4-z
1/2-y,-x,3/4+z
1/2+y,x,3/4+z
loop_
_atom_site_type_symbol
_atom_site_label
_atom_site_fract_x
_atom_site_fract_y
_atom_site_fract_z
Si Si1 0.242176 0.078755 0.467909
Si Si2 0.474946 0.680994 0.487957
Si Si3 0.690647 0.364823 0.718338
Si Si4 0.415912 0.201778 0.390506
Si Si5 0.500000 0.000000 0.330120
O O1 0.206939 0.201870 0.496240
O O2 0.319555 0.114229 0.417027
O O3 0.119887 0.012650 0.453366
O O4 0.315897 0.997036 0.507938
O O5 0.584130 0.627144 0.520403
O O6 0.430452 0.796758 0.519080
O O7 0.521415 0.712235 0.430677
O O8 0.716333 0.361435 0.655822
O O9 0.514940 0.117229 0.365192
#
# Coordination Sequence:
#
# PCOD8311824 Si02
#       5
#    16  16  16  16   8
#     4  11  22  40  69 105 141 173 221 291 351 424
#     4  11  25  46  69  90 137 185 236 293 330 408
#     4  11  22  42  72 101 139 178 228 286 360 411
#     4  11  23  43  69 103 136 187 228 285 355 415
#     4  10  20  37  70 104 142 166 212 280 363 414
#
# _framework density 21.977027
#
# number of rings (size 3 to 8) (size 9 to 14) (size 15 to 20)
#    0.000    1.111    2.222    6.667    0.000    0.889 
#    0.000   10.000    4.889    0.000    0.000    0.000 
#    0.000    0.000    0.000    0.000    0.000    0.000 
#
# Total GULP energy -446066.199053 kJ/mol
# GULP energy per Si atom -12390.727751 kJ/mol
# Density = 2.192701 g / cm^3
# Si number density = 21.977027 Si / 1000 Ang^3
#
#
#
# Elastic Constant Matrix: (Units=GPa)
#
#
# Indices 1 2 3 4 5 6 
#
# 1 86.0048 50.2915 50.6389 0.0000 0.0000 0.0000
# 2 50.2915 86.0048 50.6389 0.0000 0.0000 0.0000
# 3 50.6389 50.6389 112.2440 0.0000 0.0000 0.0000
# 4 0.0000 0.0000 0.0000 26.2545 0.0000 0.0000
# 5 0.0000 0.0000 0.0000 0.0000 26.2545 0.0000
# 6 0.0000 0.0000 0.0000 0.0000 0.0000 45.4095
#
#
#
# Elastic Compliance Matrix: (Units=1/GPa)
#
#
# Indices 1 2 3 4 5 6 
#
# 1 0.019519 -0.008482 -0.004979 0.000000 0.000000 0.000000
# 2 -0.008482 0.019519 -0.004979 0.000000 0.000000 0.000000
# 3 -0.004979 -0.004979 0.013402 0.000000 0.000000 0.000000
# 4 0.000000 0.000000 0.000000 0.038089 0.000000 0.000000
# 5 0.000000 0.000000 0.000000 0.000000 0.038089 0.000000
# 6 0.000000 0.000000 0.000000 0.000000 0.000000 0.022022
#
#
# Mechanical properties :
#
#
# Convention : Reuss Voigt Hill
#
# Bulk Modulus (GPa) = 64.27307 65.26579 64.76943
# Shear Modulus (GPa) = 25.94620 28.42931 27.18776
#
# Velocity S-wave (km/s) = 3.43972 3.60056 3.52106
# Velocity P-wave (km/s) = 6.71451 6.85909 6.78718
#
# Compressibility (1/GPa) = 0.01555862
#
# Stress axis : x y z
#
# Youngs Moduli (GPa) = 51.23244 51.23245 74.61582
#
# Poissons Ratio (x) = 0.43455 0.37154
# Poissons Ratio (y) = 0.43455 0.37154
# Poissons Ratio (z) = 0.25510 0.25510
#
# Static dielectric constant tensor:
#      x y z
#    x 4.218750 0.000000 0.000000 
#    y 0.000000 4.218750 0.000000 
#    z 0.000000 0.000000 3.861890 
# 
# 
# High freq. dielectric constant tensor:
#      x y z
#    x 1.866610 0.000000 0.000000 
#    y 0.000000 1.866610 0.000000 
#    z 0.000000 0.000000 1.848560 
# 
# From -- ./inp_files/8649.got.cif
#   From: 2010.03.12/outbox.cif.g09.slc.cpg/sg122_5_cif.got.tgz:8649.got - 2010.04.06 16:17:16.
