data_PCOD8311486
_publ_section_title
;
Structure prediction by ZEFSAII (Michael W. Deem and Ramdas Pophale) SiO2 
 PCOD8311486
Probable space group: I -4 2 M
;
_chemical_formula_sum "Si O2"
_cell_formula_units_Z 112
_cell_length_a 14.090172
_cell_length_b 14.090172
_cell_length_c 29.732532
_cell_angle_alpha 90.000000
_cell_angle_beta 90.000000
_cell_angle_gamma 90.000000
_cell_volume 5902.887199
_symmetry_space_group_name_H-M "I -4 2 M"
_symmetry_group_IT_number 121
_symmetry_cell_setting 'tetragonal'
loop_
_space_group_symop_operation_xyz
x,y,z
y,-x,-z
-x,-y,z
-y,x,-z
x,-y,-z
-x,y,-z
-y,-x,z
y,x,z
1/2+x,1/2+y,1/2+z
1/2+y,1/2-x,1/2-z
1/2-x,1/2-y,1/2+z
1/2-y,1/2+x,1/2-z
1/2+x,1/2-y,1/2-z
1/2-x,1/2+y,1/2-z
1/2-y,1/2-x,1/2+z
1/2+y,1/2+x,1/2+z
loop_
_atom_site_type_symbol
_atom_site_label
_atom_site_fract_x
_atom_site_fract_y
_atom_site_fract_z
Si Si1 0.216713 0.629810 0.536418
Si Si2 0.684177 0.923498 0.060712
Si Si3 0.349515 0.016143 0.239364
Si Si4 0.938523 0.210298 0.307206
Si Si5 0.993270 0.663409 0.448869
Si Si6 0.350426 0.503707 0.102736
Si Si7 0.141563 0.708318 0.840142
O O1 0.296667 0.703334 0.554595
O O2 0.238364 0.522143 0.551002
O O3 0.210576 0.642505 0.482253
O O4 0.116254 0.642439 0.562034
O O5 0.567346 0.923782 0.061473
O O6 0.722828 0.885212 0.107804
O O7 0.416349 0.094390 0.263751
O O8 0.313463 0.048777 0.190248
O O9 0.255255 0.003565 0.268758
O O10 0.865564 0.134437 0.285263
O O11 0.006141 0.159695 0.343213
O O12 0.881179 0.290019 0.334770
O O13 0.000000 0.694736 0.500000
O O14 0.023724 0.752228 0.419524
O O15 0.393972 0.606029 0.088066
O O16 0.421766 0.421766 0.087638
O O17 0.195607 0.804394 0.824274
#
# Coordination Sequence:
#
# PCOD8311486 Si02
#       7
#    16  16  16  16  16  16  16
#     4  10  21  36  55  82 115 148 185 235 287 330
#     4  10  20  36  58  82 110 148 190 231 275 338
#     4   9  19  35  53  80 109 136 178 230 284 331
#     4   9  18  34  54  76 107 144 182 226 278 338
#     4  10  20  34  53  79 111 147 189 232 276 328
#     4  10  20  32  48  75 110 148 187 223 274 343
#     4  10  19  34  58  83 104 143 192 230 273 335
#
# _framework density 18.973765
#
# number of rings (size 3 to 8) (size 9 to 14) (size 15 to 20)
#    0.000    2.286    1.429    1.286    0.000    6.286 
#    5.143    1.429    0.000    8.143    0.000    0.000 
#    0.000    0.000    0.000    0.000    0.000    0.000 
#
# Total GULP energy -693856.505685 kJ/mol
# GULP energy per Si atom -12390.294744 kJ/mol
# Density = 1.893058 g / cm^3
# Si number density = 18.973765 Si / 1000 Ang^3
#
#
#
# Elastic Constant Matrix: (Units=GPa)
#
#
# Indices 1 2 3 4 5 6 
#
# 1 71.5536 38.8105 23.3201 0.0000 0.0000 0.0000
# 2 38.8105 71.5526 23.3199 0.0000 0.0000 0.0000
# 3 23.3201 23.3199 77.0159 0.0000 0.0000 0.0000
# 4 0.0000 0.0000 0.0000 21.9483 0.0000 0.0000
# 5 0.0000 0.0000 0.0000 0.0000 21.9488 0.0000
# 6 0.0000 0.0000 0.0000 0.0000 0.0000 29.3512
#
#
#
# Elastic Compliance Matrix: (Units=1/GPa)
#
#
# Indices 1 2 3 4 5 6 
#
# 1 0.020466 -0.010075 -0.003146 0.000000 0.000000 0.000000
# 2 -0.010075 0.020466 -0.003146 0.000000 0.000000 0.000000
# 3 -0.003146 -0.003146 0.014890 0.000000 0.000000 0.000000
# 4 0.000000 0.000000 0.000000 0.045562 0.000000 0.000000
# 5 0.000000 0.000000 0.000000 0.000000 0.045561 0.000000
# 6 0.000000 0.000000 0.000000 0.000000 0.000000 0.034070
#
#
# Mechanical properties :
#
#
# Convention : Reuss Voigt Hill
#
# Bulk Modulus (GPa) = 43.31641 43.44700 43.38171
# Shear Modulus (GPa) = 22.57899 23.62775 23.10337
#
# Velocity S-wave (km/s) = 3.45340 3.53269 3.49327
# Velocity P-wave (km/s) = 6.22740 6.29190 6.25973
#
# Compressibility (1/GPa) = 0.02308594
#
# Stress axis : x y z
#
# Youngs Moduli (GPa) = 48.86207 48.86145 67.16076
#
# Poissons Ratio (x) = 0.49230 0.21130
# Poissons Ratio (y) = 0.49230 0.21130
# Poissons Ratio (z) = 0.15373 0.15373
#
# Static dielectric constant tensor:
#      x y z
#    x 3.427960 0.000000 0.000000 
#    y 0.000000 3.427960 0.000000 
#    z 0.000000 0.000000 3.286420 
# 
# 
# High freq. dielectric constant tensor:
#      x y z
#    x 1.728270 0.000000 0.000000 
#    y 0.000000 1.728270 0.000000 
#    z 0.000000 0.000000 1.719640 
# 
# From -- ./inp_files/8376.got.cif
#   From: 2010.03.12/outbox.cif.g09.slc.cpg/sg121_5_cif.got.tgz:8376.got - 2010.04.06 16:06:48.
