data_PCOD8311713
_publ_section_title
;
Structure prediction by ZEFSAII (Michael W. Deem and Ramdas Pophale) SiO2 
 PCOD8311713
Probable space group: I -4 2 M
;
_chemical_formula_sum "Si O2"
_cell_formula_units_Z 34
_cell_length_a 10.183690
_cell_length_b 10.183690
_cell_length_c 15.652038
_cell_angle_alpha 90.000000
_cell_angle_beta 90.000000
_cell_angle_gamma 90.000000
_cell_volume 1623.234389
_symmetry_space_group_name_H-M "I -4 2 M"
_symmetry_group_IT_number 121
_symmetry_cell_setting 'tetragonal'
loop_
_space_group_symop_operation_xyz
x,y,z
y,-x,-z
-x,-y,z
-y,x,-z
x,-y,-z
-x,y,-z
-y,-x,z
y,x,z
1/2+x,1/2+y,1/2+z
1/2+y,1/2-x,1/2-z
1/2-x,1/2-y,1/2+z
1/2-y,1/2+x,1/2-z
1/2+x,1/2-y,1/2-z
1/2-x,1/2+y,1/2-z
1/2-y,1/2-x,1/2+z
1/2+y,1/2+x,1/2+z
loop_
_atom_site_type_symbol
_atom_site_label
_atom_site_fract_x
_atom_site_fract_y
_atom_site_fract_z
Si Si1 0.329611 0.329611 0.127850
Si Si2 0.892490 0.892490 0.817293
Si Si3 0.000000 0.000000 0.500000
Si Si4 0.973700 0.645561 0.099528
O O1 0.385764 0.385764 0.215739
O O2 0.405895 0.405895 0.053896
O O3 0.176352 0.343352 0.121314
O O4 0.750374 0.934219 0.852576
O O5 0.000000 0.000000 0.845914
O O6 0.000000 0.500000 0.132881
O O7 0.000000 0.663887 0.000000
#
# Coordination Sequence:
#
# PCOD8311713 Si02
#       4
#     8   8   2  16
#     4  12  27  45  71 105 139 190 237 292 357 417
#     4  12  27  46  75 105 146 189 231 296 356 418
#     4  12  24  48  68  96 150 180 240 304 348 428
#     4  11  26  47  73 105 140 190 237 291 354 420
#
# _framework density 20.945834000000001
#
# number of rings (size 3 to 8) (size 9 to 14) (size 15 to 20)
#    0.000    0.471    3.529    4.235    6.588    1.882 
#    0.000    0.000    0.000    0.000    0.000    0.000 
#    0.000    0.000    0.000    0.000    0.000    0.000 
#
# Total GULP energy -210774.559514 kJ/mol
# GULP energy per Si atom -12398.503501 kJ/mol
# Density = 2.089816 g / cm^3
# Si number density = 20.945834 Si / 1000 Ang^3
#
#
#
# Elastic Constant Matrix: (Units=GPa)
#
#
# Indices 1 2 3 4 5 6 
#
# 1 172.4511 97.6352 57.0798 0.0000 0.0000 0.0000
# 2 97.6352 172.4511 57.0798 0.0000 0.0000 0.0000
# 3 57.0798 57.0798 107.0193 0.0000 0.0000 0.0000
# 4 0.0000 0.0000 0.0000 37.5042 0.0000 0.0000
# 5 0.0000 0.0000 0.0000 0.0000 37.5042 0.0000
# 6 0.0000 0.0000 0.0000 0.0000 0.0000 21.9734
#
#
#
# Elastic Compliance Matrix: (Units=1/GPa)
#
#
# Indices 1 2 3 4 5 6 
#
# 1 0.009073 -0.004293 -0.002550 0.000000 0.000000 0.000000
# 2 -0.004293 0.009073 -0.002550 0.000000 0.000000 0.000000
# 3 -0.002550 -0.002550 0.012064 0.000000 0.000000 0.000000
# 4 0.000000 0.000000 0.000000 0.026664 0.000000 0.000000
# 5 0.000000 0.000000 0.000000 0.000000 0.026664 0.000000
# 6 0.000000 0.000000 0.000000 0.000000 0.000000 0.045510
#
#
# Mechanical properties :
#
#
# Convention : Reuss Voigt Hill
#
# Bulk Modulus (GPa) = 87.52051 97.27903 92.39977
# Shear Modulus (GPa) = 32.97288 35.40480 34.18884
#
# Velocity S-wave (km/s) = 3.97192 4.11579 4.04449
# Velocity P-wave (km/s) = 7.93157 8.31446 8.12527
#
# Compressibility (1/GPa) = 0.01142589
#
# Stress axis : x y z
#
# Youngs Moduli (GPa) = 110.21536 110.21536 82.89288
#
# Poissons Ratio (x) = 0.47315 0.21134
# Poissons Ratio (y) = 0.47315 0.21134
# Poissons Ratio (z) = 0.28100 0.28100
#
# Static dielectric constant tensor:
#      x y z
#    x 4.066520 0.000000 0.000000 
#    y 0.000000 4.066520 0.000000 
#    z 0.000000 0.000000 4.237190 
# 
# 
# High freq. dielectric constant tensor:
#      x y z
#    x 1.845210 0.000000 0.000000 
#    y 0.000000 1.845210 0.000000 
#    z 0.000000 0.000000 1.828540 
# 
# From -- ./inp_files/3731.got.cif
#   From: 2010.03.12/outbox.cif.g09.slc.cpg/sg121_2_cif.got.tgz:3731.got - 2010.04.06 16:06:48.
