data_PCOD8311763
_publ_section_title
;
Structure prediction by ZEFSAII (Michael W. Deem and Ramdas Pophale) SiO2 
 PCOD8311763
Probable space group: I -4 2 D
;
_chemical_formula_sum "Si O2"
_cell_formula_units_Z 80
_cell_length_a 28.973542
_cell_length_b 28.973542
_cell_length_c 5.390488
_cell_angle_alpha 90.000000
_cell_angle_beta 90.000000
_cell_angle_gamma 90.000000
_cell_volume 4525.132133
_symmetry_space_group_name_H-M "I -4 2 D"
_symmetry_group_IT_number 122
_symmetry_cell_setting 'tetragonal'
loop_
_space_group_symop_operation_xyz
x,y,z
y,-x,-z
-x,-y,z
-y,x,-z
x,1/2-y,1/4-z
-x,1/2+y,1/4-z
-y,1/2-x,1/4+z
y,1/2+x,1/4+z
1/2+x,1/2+y,1/2+z
1/2+y,1/2-x,1/2-z
1/2-x,1/2-y,1/2+z
1/2-y,1/2+x,1/2-z
1/2+x,-y,3/4-z
1/2-x,y,3/4-z
1/2-y,-x,3/4+z
1/2+y,x,3/4+z
loop_
_atom_site_type_symbol
_atom_site_label
_atom_site_fract_x
_atom_site_fract_y
_atom_site_fract_z
Si Si1 0.063279 0.301155 0.233322
Si Si2 0.695248 0.537768 0.384007
Si Si3 0.818389 0.348127 0.515989
Si Si4 0.088450 0.804887 0.616745
Si Si5 0.107283 0.250000 0.625000
Si Si6 0.278941 0.250000 0.625000
O O1 0.066401 0.250000 0.125000
O O2 0.073613 0.291132 0.523102
O O3 0.014065 0.324635 0.175409
O O4 0.104613 0.332847 0.125847
O O5 0.750000 0.535278 0.375000
O O6 0.678125 0.566994 0.621387
O O7 0.678143 0.558489 0.121125
O O8 0.862141 0.328864 0.665096
O O9 0.774496 0.358125 0.688291
O O10 0.797236 0.308994 0.335001
O O11 0.093776 0.750000 0.625000
O O12 0.250000 0.243815 0.375000
#
# Coordination Sequence:
#
# PCOD8311763 Si02
#       6
#    16  16  16  16   8   8
#     4   9  19  33  56  75 100 134 188 233 270 309
#     4   9  20  35  53  74  98 137 176 223 277 325
#     4  11  22  35  51  78 106 149 187 229 257 311
#     4  10  22  35  50  74 110 143 173 213 276 325
#     4  10  19  34  56  76 104 140 192 234 265 304
#     4  12  25  36  50  74 114 158 200 220 251 302
#
# _framework density 17.679041000000002
#
# number of rings (size 3 to 8) (size 9 to 14) (size 15 to 20)
#    0.000    2.000    3.000    1.200   12.600    2.400 
#    0.000    0.000    0.000    0.000    0.000    0.000 
#    0.000    4.800    0.000    0.000    0.000    0.000 
#
# Total GULP energy -495565.947860 kJ/mol
# GULP energy per Si atom -12389.148697 kJ/mol
# Density = 1.763880 g / cm^3
# Si number density = 17.679041 Si / 1000 Ang^3
#
#
#
# Elastic Constant Matrix: (Units=GPa)
#
#
# Indices 1 2 3 4 5 6 
#
# 1 81.1855 34.0230 33.7108 0.0000 0.0000 0.0000
# 2 34.0230 81.1855 33.7108 0.0000 0.0000 0.0000
# 3 33.7108 33.7108 112.0485 0.0000 0.0000 0.0000
# 4 0.0000 0.0000 0.0000 20.9970 0.0000 0.0000
# 5 0.0000 0.0000 0.0000 0.0000 20.9970 0.0000
# 6 0.0000 0.0000 0.0000 0.0000 0.0000 11.2063
#
#
#
# Elastic Compliance Matrix: (Units=1/GPa)
#
#
# Indices 1 2 3 4 5 6 
#
# 1 0.015869 -0.005334 -0.003169 0.000000 0.000000 0.000000
# 2 -0.005334 0.015869 -0.003169 0.000000 0.000000 0.000000
# 3 -0.003169 -0.003169 0.010832 0.000000 0.000000 0.000000
# 4 0.000000 0.000000 0.000000 0.047626 0.000000 0.000000
# 5 0.000000 0.000000 0.000000 0.000000 0.047626 0.000000
# 6 0.000000 0.000000 0.000000 0.000000 0.000000 0.089235
#
#
# Mechanical properties :
#
#
# Convention : Reuss Voigt Hill
#
# Bulk Modulus (GPa) = 52.01987 53.03430 52.52709
# Shear Modulus (GPa) = 19.46957 22.17173 20.82065
#
# Velocity S-wave (km/s) = 3.32215 3.54521 3.43549
# Velocity P-wave (km/s) = 6.64862 6.84262 6.74632
#
# Compressibility (1/GPa) = 0.01922342
#
# Stress axis : x y z
#
# Youngs Moduli (GPa) = 63.01592 63.01592 92.32047
#
# Poissons Ratio (x) = 0.33614 0.29261
# Poissons Ratio (y) = 0.33614 0.29261
# Poissons Ratio (z) = 0.19973 0.19973
#
# Static dielectric constant tensor:
#      x y z
#    x 3.192720 0.000000 0.000000 
#    y 0.000000 3.192720 0.000000 
#    z 0.000000 0.000000 4.447980 
# 
# 
# High freq. dielectric constant tensor:
#      x y z
#    x 1.648940 0.000000 0.000000 
#    y 0.000000 1.648940 0.000000 
#    z 0.000000 0.000000 1.699590 
# 
# From -- ./inp_files/1339.got.cif
#   From: 2010.03.12/outbox.cif.g09.slc.cpg/sg122_1_cif.got.tgz:1339.got - 2010.04.06 16:17:16.
