data_PCOD8311830
_publ_section_title
;
Structure prediction by ZEFSAII (Michael W. Deem and Ramdas Pophale) SiO2 
 PCOD8311830
Probable space group: I -4 2 D
;
_chemical_formula_sum "Si O2"
_cell_formula_units_Z 84
_cell_length_a 15.017465
_cell_length_b 15.017465
_cell_length_c 18.059498
_cell_angle_alpha 90.000000
_cell_angle_beta 90.000000
_cell_angle_gamma 90.000000
_cell_volume 4072.854833
_symmetry_space_group_name_H-M "I -4 2 D"
_symmetry_group_IT_number 122
_symmetry_cell_setting 'tetragonal'
loop_
_space_group_symop_operation_xyz
x,y,z
y,-x,-z
-x,-y,z
-y,x,-z
x,1/2-y,1/4-z
-x,1/2+y,1/4-z
-y,1/2-x,1/4+z
y,1/2+x,1/4+z
1/2+x,1/2+y,1/2+z
1/2+y,1/2-x,1/2-z
1/2-x,1/2-y,1/2+z
1/2-y,1/2+x,1/2-z
1/2+x,-y,3/4-z
1/2-x,y,3/4-z
1/2-y,-x,3/4+z
1/2+y,x,3/4+z
loop_
_atom_site_type_symbol
_atom_site_label
_atom_site_fract_x
_atom_site_fract_y
_atom_site_fract_z
Si Si1 0.521977 0.201118 0.846730
Si Si2 0.927992 0.624557 0.875266
Si Si3 0.225288 0.750000 0.625000
Si Si4 0.365807 0.839314 0.716969
Si Si5 0.428558 0.425085 0.710156
Si Si6 0.500000 0.000000 0.250000
Si Si7 0.512448 0.750000 0.625000
O O1 0.507170 0.305643 0.858283
O O2 0.613570 0.175986 0.803638
O O3 0.440219 0.158580 0.801219
O O4 0.534214 0.162365 0.928438
O O5 0.834899 0.668368 0.852716
O O6 0.949253 0.566986 0.803772
O O7 0.918352 0.569776 0.951223
O O8 0.286403 0.772527 0.695779
O O9 0.455831 0.815102 0.675346
O O10 0.500000 0.500000 0.684947
O O11 0.438309 0.321849 0.679955
#
# Coordination Sequence:
#
# PCOD8311830 Si02
#       7
#    16  16   8  16  16   4   8
#     4  11  23  38  67 100 139 180 219 273 354 419
#     4  11  26  47  68  94 129 178 239 284 336 405
#     4   9  24  44  66  93 136 170 224 289 334 402
#     4  10  20  38  63  98 141 177 213 271 346 421
#     4  12  24  41  67 102 139 182 221 284 358 423
#     4  12  28  52  72  88 128 182 240 296 320 400
#     4  11  20  38  62  99 148 174 218 279 340 430
#
# _framework density 20.624354
#
# number of rings (size 3 to 8) (size 9 to 14) (size 15 to 20)
#    0.000    1.143    4.762    1.143    5.333    0.000 
#    0.000    0.000    0.000    0.000    0.000    0.000 
#    0.000    0.000    0.000    0.000    0.000    0.000 
#
# Total GULP energy -520446.225393 kJ/mol
# GULP energy per Si atom -12391.576795 kJ/mol
# Density = 2.057741 g / cm^3
# Si number density = 20.624354 Si / 1000 Ang^3
#
#
#
# Elastic Constant Matrix: (Units=GPa)
#
#
# Indices 1 2 3 4 5 6 
#
# 1 91.4871 48.9738 52.4359 0.0000 0.0000 0.0000
# 2 48.9738 91.4871 52.4359 0.0000 0.0000 0.0000
# 3 52.4359 52.4359 150.1541 0.0000 0.0000 0.0000
# 4 0.0000 0.0000 0.0000 29.5498 0.0000 0.0000
# 5 0.0000 0.0000 0.0000 0.0000 29.5498 0.0000
# 6 0.0000 0.0000 0.0000 0.0000 0.0000 18.9871
#
#
#
# Elastic Compliance Matrix: (Units=1/GPa)
#
#
# Indices 1 2 3 4 5 6 
#
# 1 0.016576 -0.006946 -0.003363 0.000000 0.000000 0.000000
# 2 -0.006946 0.016576 -0.003363 0.000000 0.000000 0.000000
# 3 -0.003363 -0.003363 0.009009 0.000000 0.000000 0.000000
# 4 0.000000 0.000000 0.000000 0.033841 0.000000 0.000000
# 5 0.000000 0.000000 0.000000 0.000000 0.033841 0.000000
# 6 0.000000 0.000000 0.000000 0.000000 0.000000 0.052667
#
#
# Mechanical properties :
#
#
# Convention : Reuss Voigt Hill
#
# Bulk Modulus (GPa) = 67.48924 71.20218 69.34571
# Shear Modulus (GPa) = 25.66818 27.56951 26.61885
#
# Velocity S-wave (km/s) = 3.53165 3.66012 3.59646
# Velocity P-wave (km/s) = 7.03024 7.24295 7.13738
#
# Compressibility (1/GPa) = 0.01481718
#
# Stress axis : x y z
#
# Youngs Moduli (GPa) = 60.32749 60.32749 111.00400
#
# Poissons Ratio (x) = 0.41902 0.37331
# Poissons Ratio (y) = 0.41902 0.37331
# Poissons Ratio (z) = 0.20289 0.20289
#
# Static dielectric constant tensor:
#      x y z
#    x 3.853940 0.000000 0.000000 
#    y 0.000000 3.853940 0.000000 
#    z 0.000000 0.000000 3.812660 
# 
# 
# High freq. dielectric constant tensor:
#      x y z
#    x 1.803710 0.000000 0.000000 
#    y 0.000000 1.803710 0.000000 
#    z 0.000000 0.000000 1.810550 
# 
# From -- ./inp_files/7241.got.cif
#   From: 2010.03.12/outbox.cif.g09.slc.cpg/sg122_4_cif.got.tgz:7241.got - 2010.04.06 16:17:16.
