data_PCOD8311479
_publ_section_title
;
Structure prediction by ZEFSAII (Michael W. Deem and Ramdas Pophale) SiO2 
 PCOD8311479
Probable space group: I -4 2 M
;
_chemical_formula_sum "Si O2"
_cell_formula_units_Z 96
_cell_length_a 17.005859
_cell_length_b 17.005859
_cell_length_c 17.949098
_cell_angle_alpha 90.000000
_cell_angle_beta 90.000000
_cell_angle_gamma 90.000000
_cell_volume 5190.865506
_symmetry_space_group_name_H-M "I -4 2 M"
_symmetry_group_IT_number 121
_symmetry_cell_setting 'tetragonal'
loop_
_space_group_symop_operation_xyz
x,y,z
y,-x,-z
-x,-y,z
-y,x,-z
x,-y,-z
-x,y,-z
-y,-x,z
y,x,z
1/2+x,1/2+y,1/2+z
1/2+y,1/2-x,1/2-z
1/2-x,1/2-y,1/2+z
1/2-y,1/2+x,1/2-z
1/2+x,1/2-y,1/2-z
1/2-x,1/2+y,1/2-z
1/2-y,1/2-x,1/2+z
1/2+y,1/2+x,1/2+z
loop_
_atom_site_type_symbol
_atom_site_label
_atom_site_fract_x
_atom_site_fract_y
_atom_site_fract_z
Si Si1 0.080197 0.791698 0.967097
Si Si2 0.115309 0.383308 0.310866
Si Si3 0.578101 0.711678 0.042494
Si Si4 0.182806 0.307216 0.444447
Si Si5 0.334134 0.943706 0.338578
Si Si6 0.529966 0.862672 0.584803
O O1 0.139359 0.860642 0.939566
O O2 0.057615 0.729075 0.902597
O O3 0.120002 0.736945 0.030290
O O4 0.000000 0.830355 0.000000
O O5 0.159495 0.318743 0.359591
O O6 0.158888 0.384206 0.231287
O O7 0.116030 0.465008 0.355058
O O8 0.026518 0.354882 0.301180
O O9 0.639616 0.639616 0.050659
O O10 0.558444 0.746728 0.125000
O O11 0.500000 0.680474 0.000000
O O12 0.608852 0.789060 0.997733
O O13 0.226315 0.226315 0.449122
O O14 0.397504 0.920858 0.401576
O O15 0.500000 0.875290 0.500000
#
# Coordination Sequence:
#
# PCOD8311479 Si02
#       6
#    16  16  16  16  16  16
#     4  10  19  34  56  84 111 145 198 246 287 344
#     4  12  22  37  54  86 129 158 187 238 306 374
#     4  11  23  41  65  91 117 157 214 266 309 362
#     4  10  20  36  59  82 110 151 199 242 294 362
#     4  12  24  35  56  91 127 158 190 244 305 380
#     4  11  21  35  54  83 117 160 193 234 295 358
#
# _framework density 18.494026999999999
#
# number of rings (size 3 to 8) (size 9 to 14) (size 15 to 20)
#    0.000    1.000    8.333    0.500    0.000    1.667 
#    0.000    0.000    0.000    1.000    0.000    0.000 
#    0.000    0.000    0.000    0.000    0.000    0.000 
#
# Total GULP energy -594748.456033 kJ/mol
# GULP energy per Si atom -12390.592834 kJ/mol
# Density = 1.845193 g / cm^3
# Si number density = 18.494027 Si / 1000 Ang^3
#
#
#
# Elastic Constant Matrix: (Units=GPa)
#
#
# Indices 1 2 3 4 5 6 
#
# 1 76.0528 25.1862 35.0799 0.0000 0.0000 0.0000
# 2 25.1862 76.0537 35.0796 0.0000 0.0000 0.0000
# 3 35.0799 35.0796 100.0313 0.0000 0.0000 0.0000
# 4 0.0000 0.0000 0.0000 14.5911 0.0000 0.0000
# 5 0.0000 0.0000 0.0000 0.0000 14.5913 0.0000
# 6 0.0000 0.0000 0.0000 0.0000 0.0000 74.0715
#
#
#
# Elastic Compliance Matrix: (Units=1/GPa)
#
#
# Indices 1 2 3 4 5 6 
#
# 1 0.016354 -0.003305 -0.004576 0.000000 0.000000 0.000000
# 2 -0.003305 0.016354 -0.004576 0.000000 0.000000 0.000000
# 3 -0.004576 -0.004576 0.013206 0.000000 0.000000 0.000000
# 4 0.000000 0.000000 0.000000 0.068535 0.000000 0.000000
# 5 0.000000 0.000000 0.000000 0.000000 0.068534 0.000000
# 6 0.000000 0.000000 0.000000 0.000000 0.000000 0.013500
#
#
# Mechanical properties :
#
#
# Convention : Reuss Voigt Hill
#
# Bulk Modulus (GPa) = 47.61952 49.20324 48.41138
# Shear Modulus (GPa) = 21.89161 31.10359 26.49760
#
# Velocity S-wave (km/s) = 3.44425 4.10545 3.78930
# Velocity P-wave (km/s) = 6.45148 7.00968 6.73636
#
# Compressibility (1/GPa) = 0.02099979
#
# Stress axis : x y z
#
# Youngs Moduli (GPa) = 61.14682 61.14790 75.72081
#
# Poissons Ratio (x) = 0.20210 0.34651
# Poissons Ratio (y) = 0.20210 0.34650
# Poissons Ratio (z) = 0.27982 0.27981
#
# Static dielectric constant tensor:
#      x y z
#    x 3.464970 0.000000 0.000000 
#    y 0.000000 3.464970 0.000000 
#    z 0.000000 0.000000 3.038480 
# 
# 
# High freq. dielectric constant tensor:
#      x y z
#    x 1.712040 0.000000 0.000000 
#    y 0.000000 1.712040 0.000000 
#    z 0.000000 0.000000 1.702080 
# 
# From -- ./inp_files/5387.got.cif
#   From: 2010.03.12/outbox.cif.g09.slc.cpg/sg121_3_cif.got.tgz:5387.got - 2010.04.06 16:06:48.
