data_PCOD8311120
_publ_section_title
;
Structure prediction by ZEFSAII (Michael W. Deem and Ramdas Pophale) SiO2 
 PCOD8311120
Probable space group: I -4 C 2
;
_chemical_formula_sum "Si O2"
_cell_formula_units_Z 96
_cell_length_a 23.329882
_cell_length_b 23.329882
_cell_length_c 10.006645
_cell_angle_alpha 90.000000
_cell_angle_beta 90.000000
_cell_angle_gamma 90.000000
_cell_volume 5446.450704
_symmetry_space_group_name_H-M "I -4 C 2"
_symmetry_group_IT_number 120
_symmetry_cell_setting 'tetragonal'
loop_
_space_group_symop_operation_xyz
x,y,z
y,-x,-z
-x,-y,z
-y,x,-z
y,x,1/2-z
-y,-x,1/2-z
-x,y,1/2+z
x,-y,1/2+z
1/2+x,1/2+y,1/2+z
1/2+y,1/2-x,1/2-z
1/2-x,1/2-y,1/2+z
1/2-y,1/2+x,1/2-z
1/2+y,1/2+x,-z
1/2-y,1/2-x,-z
1/2-x,1/2+y,z
1/2+x,1/2-y,z
loop_
_atom_site_type_symbol
_atom_site_label
_atom_site_fract_x
_atom_site_fract_y
_atom_site_fract_z
Si Si1 0.054841 0.648684 0.656085
Si Si2 0.069247 0.229724 0.231215
Si Si3 0.432393 0.336596 0.987957
Si Si4 0.946960 0.350425 0.344901
Si Si5 0.931929 0.155240 0.484088
Si Si6 0.933784 0.230823 0.245010
O O1 0.089333 0.704446 0.711966
O O2 0.035066 0.659823 0.501110
O O3 0.096127 0.594900 0.664553
O O4 0.001222 0.635165 0.751882
O O5 0.092976 0.195810 0.358992
O O6 0.001732 0.233000 0.249215
O O7 0.089418 0.194487 0.104143
O O8 0.405123 0.399439 0.005545
O O9 0.413842 0.291174 0.101217
O O10 0.499585 0.351821 0.985699
O O11 0.913468 0.294721 0.285713
O O12 0.910156 0.184872 0.349575
#
# Coordination Sequence:
#
# PCOD8311120 Si02
#       6
#    16  16  16  16  16  16
#     4  10  21  37  58  83 111 141 173 215 262 310
#     4   9  18  33  52  75 101 143 183 216 253 314
#     4  10  20  31  53  77 108 136 182 222 272 318
#     4  10  21  37  58  83 111 141 173 215 262 310
#     4  10  18  33  51  77 106 140 176 224 272 318
#     4   9  18  33  52  75 101 143 183 216 253 314
#
# _framework density 17.626159000000001
#
# number of rings (size 3 to 8) (size 9 to 14) (size 15 to 20)
#    0.000    2.333    1.667    1.000    7.000    1.333 
#    0.000    1.667    0.000   12.000    0.000    0.000 
#    0.000    0.000    0.000    0.000    0.000    0.000 
#
# Total GULP energy -594817.257599 kJ/mol
# GULP energy per Si atom -12392.026200 kJ/mol
# Density = 1.758604 g / cm^3
# Si number density = 17.626159 Si / 1000 Ang^3
#
#
#
# Elastic Constant Matrix: (Units=GPa)
#
#
# Indices 1 2 3 4 5 6 
#
# 1 68.2740 37.0113 24.6891 0.0000 0.0000 0.0000
# 2 37.0113 68.2740 24.6891 0.0000 0.0000 0.0000
# 3 24.6891 24.6891 63.3605 0.0000 0.0000 0.0000
# 4 0.0000 0.0000 0.0000 23.8268 0.0000 0.0000
# 5 0.0000 0.0000 0.0000 0.0000 23.8268 0.0000
# 6 0.0000 0.0000 0.0000 0.0000 0.0000 8.0196
#
#
#
# Elastic Compliance Matrix: (Units=1/GPa)
#
#
# Indices 1 2 3 4 5 6 
#
# 1 0.021804 -0.010183 -0.004529 0.000000 0.000000 0.000000
# 2 -0.010183 0.021804 -0.004529 0.000000 0.000000 0.000000
# 3 -0.004529 -0.004529 0.019312 0.000000 0.000000 0.000000
# 4 0.000000 0.000000 0.000000 0.041969 0.000000 0.000000
# 5 0.000000 0.000000 0.000000 0.000000 0.041969 0.000000
# 6 0.000000 0.000000 0.000000 0.000000 0.000000 0.124694
#
#
# Mechanical properties :
#
#
# Convention : Reuss Voigt Hill
#
# Bulk Modulus (GPa) = 40.91432 41.40975 41.16203
# Shear Modulus (GPa) = 15.71435 18.70260 17.20848
#
# Velocity S-wave (km/s) = 2.98910 3.26094 3.12797
# Velocity P-wave (km/s) = 5.93090 6.14188 6.03731
#
# Compressibility (1/GPa) = 0.02444132
#
# Stress axis : x y z
#
# Youngs Moduli (GPa) = 45.86225 45.86225 51.78145
#
# Poissons Ratio (x) = 0.46699 0.23450
# Poissons Ratio (y) = 0.46699 0.23450
# Poissons Ratio (z) = 0.20769 0.20769
#
# Static dielectric constant tensor:
#      x y z
#    x 3.173670 0.000000 0.000000 
#    y 0.000000 3.173670 0.000000 
#    z 0.000000 0.000000 3.795470 
# 
# 
# High freq. dielectric constant tensor:
#      x y z
#    x 1.660920 0.000000 0.000000 
#    y 0.000000 1.660920 0.000000 
#    z 0.000000 0.000000 1.706120 
# 
# From -- ./inp_files/1549.got.cif
#   From: 2010.03.12/outbox.cif.g09.slc.cpg/sg120_1_cif.got.tgz:1549.got - 2010.04.06 16:00:44.
