data_PCOD8311997
_publ_section_title
;
Structure prediction by ZEFSAII (Michael W. Deem and Ramdas Pophale) SiO2 
 PCOD8311997
Probable space group: I -4 2 D
;
_chemical_formula_sum "Si O2"
_cell_formula_units_Z 40
_cell_length_a 13.762159
_cell_length_b 13.762159
_cell_length_c 8.375343
_cell_angle_alpha 90.000000
_cell_angle_beta 90.000000
_cell_angle_gamma 90.000000
_cell_volume 1586.265009
_symmetry_space_group_name_H-M "I -4 2 D"
_symmetry_group_IT_number 122
_symmetry_cell_setting 'tetragonal'
loop_
_space_group_symop_operation_xyz
x,y,z
y,-x,-z
-x,-y,z
-y,x,-z
x,1/2-y,1/4-z
-x,1/2+y,1/4-z
-y,1/2-x,1/4+z
y,1/2+x,1/4+z
1/2+x,1/2+y,1/2+z
1/2+y,1/2-x,1/2-z
1/2-x,1/2-y,1/2+z
1/2-y,1/2+x,1/2-z
1/2+x,-y,3/4-z
1/2-x,y,3/4-z
1/2-y,-x,3/4+z
1/2+y,x,3/4+z
loop_
_atom_site_type_symbol
_atom_site_label
_atom_site_fract_x
_atom_site_fract_y
_atom_site_fract_z
Si Si1 0.643805 0.648351 0.060365
Si Si2 0.000000 0.500000 0.250000
Si Si3 0.862929 0.645681 0.068882
Si Si4 0.500000 0.000000 0.250000
O O1 0.600720 0.750000 0.125000
O O2 0.751435 0.632342 0.130095
O O3 0.572571 0.561208 0.117401
O O4 0.637804 0.643754 0.870660
O O5 0.073835 0.440252 0.140185
O O6 0.902901 0.750000 0.125000
#
# Coordination Sequence:
#
# PCOD8311997 Si02
#       4
#    16   4  16   4
#     4  10  25  48  74 109 152 199 253 317 383 460
#     4  12  26  48  84 114 150 204 266 316 398 460
#     4  10  25  49  75 109 152 195 256 321 380 460
#     4  12  26  40  80 102 150 200 256 306 378 456
#
# _framework density 25.216466
#
# number of rings (size 3 to 8) (size 9 to 14) (size 15 to 20)
#    0.000    1.600    0.000    1.200   11.200    3.200 
#    7.200    0.000    0.000    0.000    0.000    0.000 
#    0.000    0.000    0.000    0.000    0.000    0.000 
#
# Total GULP energy -248017.534935 kJ/mol
# GULP energy per Si atom -12400.876747 kJ/mol
# Density = 2.515907 g / cm^3
# Si number density = 25.216466 Si / 1000 Ang^3
#
#
#
# Elastic Constant Matrix: (Units=GPa)
#
#
# Indices 1 2 3 4 5 6 
#
# 1 170.1024 97.6833 32.5890 0.0000 0.0000 0.0000
# 2 97.6833 170.1024 32.5890 0.0000 0.0000 0.0000
# 3 32.5890 32.5890 78.9088 0.0000 0.0000 0.0000
# 4 0.0000 0.0000 0.0000 32.8939 0.0000 0.0000
# 5 0.0000 0.0000 0.0000 0.0000 32.8939 0.0000
# 6 0.0000 0.0000 0.0000 0.0000 0.0000 70.4246
#
#
#
# Elastic Compliance Matrix: (Units=1/GPa)
#
#
# Indices 1 2 3 4 5 6 
#
# 1 0.008980 -0.004828 -0.001715 0.000000 0.000000 0.000000
# 2 -0.004828 0.008980 -0.001715 0.000000 0.000000 0.000000
# 3 -0.001715 -0.001715 0.014089 0.000000 0.000000 0.000000
# 4 0.000000 0.000000 0.000000 0.030401 0.000000 0.000000
# 5 0.000000 0.000000 0.000000 0.000000 0.030401 0.000000
# 6 0.000000 0.000000 0.000000 0.000000 0.000000 0.014200
#
#
# Mechanical properties :
#
#
# Convention : Reuss Voigt Hill
#
# Bulk Modulus (GPa) = 64.37508 82.75960 73.56734
# Shear Modulus (GPa) = 38.83681 44.32593 41.58137
#
# Velocity S-wave (km/s) = 3.92872 4.19718 4.06517
# Velocity P-wave (km/s) = 6.79442 7.50862 7.16043
#
# Compressibility (1/GPa) = 0.01553396
#
# Stress axis : x y z
#
# Youngs Moduli (GPa) = 111.35744 111.35744 70.97676
#
# Poissons Ratio (x) = 0.53768 0.12170
# Poissons Ratio (y) = 0.53768 0.12170
# Poissons Ratio (z) = 0.19094 0.19094
#
# Static dielectric constant tensor:
#      x y z
#    x 5.282240 0.000000 0.000000 
#    y 0.000000 5.282240 0.000000 
#    z 0.000000 0.000000 4.169330 
# 
# 
# High freq. dielectric constant tensor:
#      x y z
#    x 2.026450 0.000000 0.000000 
#    y 0.000000 2.026450 0.000000 
#    z 0.000000 0.000000 1.984150 
# 
# From -- ./inp_files/1888.got.cif
#   From: 2010.03.12/outbox.cif.g09.slc.cpg/sg122_1_cif.got.tgz:1888.got - 2010.04.06 16:17:16.
