data_PCOD8311760
_publ_section_title
;
Structure prediction by ZEFSAII (Michael W. Deem and Ramdas Pophale) SiO2 
 PCOD8311760
Probable space group: I -4 2 D
;
_chemical_formula_sum "Si O2"
_cell_formula_units_Z 72
_cell_length_a 13.050743
_cell_length_b 13.050743
_cell_length_c 18.106647
_cell_angle_alpha 90.000000
_cell_angle_beta 90.000000
_cell_angle_gamma 90.000000
_cell_volume 3083.958390
_symmetry_space_group_name_H-M "I -4 2 D"
_symmetry_group_IT_number 122
_symmetry_cell_setting 'tetragonal'
loop_
_space_group_symop_operation_xyz
x,y,z
y,-x,-z
-x,-y,z
-y,x,-z
x,1/2-y,1/4-z
-x,1/2+y,1/4-z
-y,1/2-x,1/4+z
y,1/2+x,1/4+z
1/2+x,1/2+y,1/2+z
1/2+y,1/2-x,1/2-z
1/2-x,1/2-y,1/2+z
1/2-y,1/2+x,1/2-z
1/2+x,-y,3/4-z
1/2-x,y,3/4-z
1/2-y,-x,3/4+z
1/2+y,x,3/4+z
loop_
_atom_site_type_symbol
_atom_site_label
_atom_site_fract_x
_atom_site_fract_y
_atom_site_fract_z
Si Si1 0.130386 0.685055 0.360736
Si Si2 0.127514 0.120572 0.739247
Si Si3 0.500000 0.000000 0.598598
Si Si4 0.964613 0.361234 0.638444
Si Si5 0.804403 0.017100 0.546086
O O1 0.250000 0.657757 0.375000
O O2 0.115643 0.754204 0.287005
O O3 0.054191 0.587172 0.350890
O O4 0.088715 0.747447 0.432314
O O5 0.109765 0.225117 0.783889
O O6 0.054484 0.117377 0.668031
O O7 0.095483 0.031508 0.795888
O O8 0.914941 0.250000 0.625000
O O9 0.877169 0.448825 0.635030
O O10 0.008850 0.368155 0.720908
#
# Coordination Sequence:
#
# PCOD8311760 Si02
#       5
#    16  16   8  16  16
#     4  11  22  41  62  84 120 160 201 253 304 360
#     4  10  20  37  60  88 120 158 198 244 297 352
#     4  10  24  42  62  88 120 160 206 250 298 356
#     4  10  19  32  54  87 122 153 188 234 291 351
#     4  10  20  33  57  90 121 157 194 235 295 354
#
# _framework density 23.346619
#
# number of rings (size 3 to 8) (size 9 to 14) (size 15 to 20)
#    0.000    1.778    0.000    6.000    0.000    2.222 
#    0.000    6.667    0.000    0.000    0.000    1.556 
#    0.000    0.000    0.000    0.000    0.000    0.000 
#
# Total GULP energy -446070.194428 kJ/mol
# GULP energy per Si atom -12390.838734 kJ/mol
# Density = 2.329348 g / cm^3
# Si number density = 23.346619 Si / 1000 Ang^3
#
#
#
# Elastic Constant Matrix: (Units=GPa)
#
#
# Indices 1 2 3 4 5 6 
#
# 1 123.7964 46.8485 20.2233 0.0000 0.0000 0.0000
# 2 46.8485 123.7964 20.2233 0.0000 0.0000 0.0000
# 3 20.2233 20.2233 35.6565 0.0000 0.0000 0.0000
# 4 0.0000 0.0000 0.0000 32.9020 0.0000 0.0000
# 5 0.0000 0.0000 0.0000 0.0000 32.9020 0.0000
# 6 0.0000 0.0000 0.0000 0.0000 0.0000 34.7644
#
#
#
# Elastic Compliance Matrix: (Units=1/GPa)
#
#
# Indices 1 2 3 4 5 6 
#
# 1 0.009883 -0.003113 -0.003840 0.000000 0.000000 0.000000
# 2 -0.003113 0.009883 -0.003840 0.000000 0.000000 0.000000
# 3 -0.003840 -0.003840 0.032401 0.000000 0.000000 0.000000
# 4 0.000000 0.000000 0.000000 0.030393 0.000000 0.000000
# 5 0.000000 0.000000 0.000000 0.000000 0.030393 0.000000
# 6 0.000000 0.000000 0.000000 0.000000 0.000000 0.028765
#
#
# Mechanical properties :
#
#
# Convention : Reuss Voigt Hill
#
# Bulk Modulus (GPa) = 32.69887 50.87107 41.78497
# Shear Modulus (GPa) = 28.81877 33.17729 30.99803
#
# Velocity S-wave (km/s) = 3.51720 3.77380 3.64776
# Velocity P-wave (km/s) = 5.52544 6.38949 5.97311
#
# Compressibility (1/GPa) = 0.03058210
#
# Stress axis : x y z
#
# Youngs Moduli (GPa) = 101.18349 101.18349 30.86308
#
# Poissons Ratio (x) = 0.31496 0.11851
# Poissons Ratio (y) = 0.31496 0.11851
# Poissons Ratio (z) = 0.38853 0.38853
#
# Static dielectric constant tensor:
#      x y z
#    x 4.523320 0.000000 0.000000 
#    y 0.000000 4.523320 0.000000 
#    z 0.000000 0.000000 4.060050 
# 
# 
# High freq. dielectric constant tensor:
#      x y z
#    x 1.925870 0.000000 0.000000 
#    y 0.000000 1.925870 0.000000 
#    z 0.000000 0.000000 1.893070 
# 
# From -- ./inp_files/6139.got.cif
#   From: 2010.03.12/outbox.cif.g09.slc.cpg/sg122_4_cif.got.tgz:6139.got - 2010.04.06 16:17:16.
