data_PCOD8311520
_publ_section_title
;
Structure prediction by ZEFSAII (Michael W. Deem and Ramdas Pophale) SiO2 
 PCOD8311520
Probable space group: I -4 2 M
;
_chemical_formula_sum "Si O2"
_cell_formula_units_Z 96
_cell_length_a 16.209181
_cell_length_b 16.209181
_cell_length_c 22.152361
_cell_angle_alpha 90.000000
_cell_angle_beta 90.000000
_cell_angle_gamma 90.000000
_cell_volume 5820.257027
_symmetry_space_group_name_H-M "I -4 2 M"
_symmetry_group_IT_number 121
_symmetry_cell_setting 'tetragonal'
loop_
_space_group_symop_operation_xyz
x,y,z
y,-x,-z
-x,-y,z
-y,x,-z
x,-y,-z
-x,y,-z
-y,-x,z
y,x,z
1/2+x,1/2+y,1/2+z
1/2+y,1/2-x,1/2-z
1/2-x,1/2-y,1/2+z
1/2-y,1/2+x,1/2-z
1/2+x,1/2-y,1/2-z
1/2-x,1/2+y,1/2-z
1/2-y,1/2-x,1/2+z
1/2+y,1/2+x,1/2+z
loop_
_atom_site_type_symbol
_atom_site_label
_atom_site_fract_x
_atom_site_fract_y
_atom_site_fract_z
Si Si1 0.945656 0.182517 0.219602
Si Si2 0.515316 0.184069 0.566490
Si Si3 0.368095 0.500178 0.595337
Si Si4 0.032410 0.689995 0.710398
Si Si5 0.579060 0.941506 0.171660
Si Si6 0.698559 0.167304 0.143368
O O1 0.886182 0.113818 0.248979
O O2 0.001654 0.142463 0.167575
O O3 0.891223 0.256200 0.191337
O O4 0.004735 0.218197 0.271152
O O5 0.500000 0.146461 0.500000
O O6 0.490967 0.280359 0.563464
O O7 0.457097 0.134488 0.612802
O O8 0.611573 0.175819 0.585152
O O9 0.413693 0.586308 0.577192
O O10 0.423245 0.423245 0.574588
O O11 0.045250 0.634192 0.769432
O O12 0.115372 0.701272 0.672639
O O13 0.958539 0.650771 0.670246
O O14 0.500000 0.000000 0.173307
O O15 0.756435 0.243566 0.123797
#
# Coordination Sequence:
#
# PCOD8311520 Si02
#       6
#    16  16  16  16  16  16
#     4   9  17  29  47  72 102 129 163 209 253 303
#     4  11  22  35  50  73 101 136 173 218 259 303
#     4   9  18  33  51  71 100 139 178 208 239 292
#     4  12  17  32  54  75 102 135 167 209 268 320
#     4  12  18  31  51  77 101 129 167 208 256 322
#     4  10  20  33  50  73  99 134 175 214 258 312
#
# _framework density 16.494116999999999
#
# number of rings (size 3 to 8) (size 9 to 14) (size 15 to 20)
#    0.000    1.500    8.333    1.500    0.000    2.333 
#    0.000    1.667    0.000    0.000    0.000    0.000 
#    0.000    0.000    0.000    0.000    0.000    0.000 
#
# Total GULP energy -595015.199263 kJ/mol
# GULP energy per Si atom -12396.149985 kJ/mol
# Density = 1.645658 g / cm^3
# Si number density = 16.494117 Si / 1000 Ang^3
#
#
#
# Elastic Constant Matrix: (Units=GPa)
#
#
# Indices 1 2 3 4 5 6 
#
# 1 61.5129 18.3761 36.8004 0.0000 0.0000 0.0000
# 2 18.3761 61.5138 36.8009 0.0000 0.0000 0.0000
# 3 36.8004 36.8009 84.5951 0.0000 0.0000 0.0000
# 4 0.0000 0.0000 0.0000 11.2667 0.0000 0.0000
# 5 0.0000 0.0000 0.0000 0.0000 11.2661 0.0000
# 6 0.0000 0.0000 0.0000 0.0000 0.0000 27.1382
#
#
#
# Elastic Compliance Matrix: (Units=1/GPa)
#
#
# Indices 1 2 3 4 5 6 
#
# 1 0.022036 -0.001146 -0.009087 0.000000 0.000000 0.000000
# 2 -0.001146 0.022035 -0.009087 0.000000 0.000000 0.000000
# 3 -0.009087 -0.009087 0.019727 0.000000 0.000000 0.000000
# 4 0.000000 0.000000 0.000000 0.088757 0.000000 0.000000
# 5 0.000000 0.000000 0.000000 0.000000 0.088762 0.000000
# 6 0.000000 0.000000 0.000000 0.000000 0.000000 0.036848
#
#
# Mechanical properties :
#
#
# Convention : Reuss Voigt Hill
#
# Bulk Modulus (GPa) = 39.75067 43.50851 41.62959
# Shear Modulus (GPa) = 15.37549 17.64382 16.50966
#
# Velocity S-wave (km/s) = 3.05647 3.27418 3.16720
# Velocity P-wave (km/s) = 6.05048 6.38194 6.21842
#
# Compressibility (1/GPa) = 0.02515681
#
# Stress axis : x y z
#
# Youngs Moduli (GPa) = 45.38092 45.38137 50.69102
#
# Poissons Ratio (x) = 0.05202 0.46064
# Poissons Ratio (y) = 0.05202 0.46065
# Poissons Ratio (z) = 0.41239 0.41240
#
# Static dielectric constant tensor:
#      x y z
#    x 3.260710 0.000000 0.000000 
#    y 0.000000 3.260710 0.000000 
#    z 0.000000 0.000000 2.872630 
# 
# 
# High freq. dielectric constant tensor:
#      x y z
#    x 1.630140 0.000000 0.000000 
#    y 0.000000 1.630140 0.000000 
#    z 0.000000 0.000000 1.599420 
# 
# From -- ./inp_files/6537.got.cif
#   From: 2010.03.12/outbox.cif.g09.slc.cpg/sg121_4_cif.got.tgz:6537.got - 2010.04.06 16:06:48.
