data_PCOD8311164
_publ_section_title
;
Structure prediction by ZEFSAII (Michael W. Deem and Ramdas Pophale) SiO2 
 PCOD8311164
Probable space group: I -4 C 2
;
_chemical_formula_sum "Si O2"
_cell_formula_units_Z 128
_cell_length_a 17.899741
_cell_length_b 17.899741
_cell_length_c 22.279878
_cell_angle_alpha 90.000000
_cell_angle_beta 90.000000
_cell_angle_gamma 90.000000
_cell_volume 7138.489128
_symmetry_space_group_name_H-M "I -4 C 2"
_symmetry_group_IT_number 120
_symmetry_cell_setting 'tetragonal'
loop_
_space_group_symop_operation_xyz
x,y,z
y,-x,-z
-x,-y,z
-y,x,-z
y,x,1/2-z
-y,-x,1/2-z
-x,y,1/2+z
x,-y,1/2+z
1/2+x,1/2+y,1/2+z
1/2+y,1/2-x,1/2-z
1/2-x,1/2-y,1/2+z
1/2-y,1/2+x,1/2-z
1/2+y,1/2+x,-z
1/2-y,1/2-x,-z
1/2-x,1/2+y,z
1/2+x,1/2-y,z
loop_
_atom_site_type_symbol
_atom_site_label
_atom_site_fract_x
_atom_site_fract_y
_atom_site_fract_z
Si Si1 0.936185 0.554295 0.429655
Si Si2 0.767252 0.805378 0.093194
Si Si3 0.653786 0.302316 0.537730
Si Si4 0.625796 0.812810 0.627347
Si Si5 0.550309 0.109555 0.241125
Si Si6 0.923510 0.734527 0.928791
Si Si7 0.274187 0.003230 0.946836
Si Si8 0.702145 0.052539 0.644449
O O1 0.944311 0.555690 0.500000
O O2 0.852349 0.528402 0.416636
O O3 0.948538 0.634494 0.402017
O O4 0.000000 0.500000 0.401064
O O5 0.691126 0.770445 0.067295
O O6 0.807849 0.746827 0.138413
O O7 0.753278 0.875863 0.135029
O O8 0.811686 0.831184 0.033428
O O9 0.688428 0.377111 0.566330
O O10 0.566043 0.290915 0.553114
O O11 0.594727 0.860539 0.683182
O O12 0.661193 0.871271 0.579563
O O13 0.565315 0.756696 0.597357
O O14 0.463115 0.090197 0.228992
O O15 0.552999 0.177247 0.287215
O O16 0.976609 0.747312 0.870770
O O17 0.974615 0.716795 0.985791
#
# Coordination Sequence:
#
# PCOD8311164 Si02
#       8
#    16  16  16  16  16  16  16  16
#     4  11  21  28  48  83 113 137 177 226 287 353
#     4  10  20  35  57  83 116 149 189 236 290 346
#     4  10  20  35  52  86 122 148 181 238 300 349
#     4  11  23  39  57  82 114 158 197 228 282 351
#     4  11  25  40  55  81 122 157 190 239 285 337
#     4  11  21  35  57  85 116 151 189 232 291 351
#     4  12  20  34  58  83 117 149 184 233 292 355
#     4  12  21  37  57  81 114 155 191 235 285 338
#
# _framework density 17.930966000000002
#
# number of rings (size 3 to 8) (size 9 to 14) (size 15 to 20)
#    0.000    1.000    6.250    1.875    3.500    0.500 
#    0.000    0.000    0.000    3.375    0.000    0.000 
#    0.000    2.000    0.000    0.000    0.000    0.000 
#
# Total GULP energy -793059.171410 kJ/mol
# GULP energy per Si atom -12391.549553 kJ/mol
# Density = 1.789015 g / cm^3
# Si number density = 17.930966 Si / 1000 Ang^3
#
#
#
# Elastic Constant Matrix: (Units=GPa)
#
#
# Indices 1 2 3 4 5 6 
#
# 1 81.0392 53.1799 33.7551 0.0000 0.0000 0.0000
# 2 53.1799 81.0388 33.7551 0.0000 0.0000 0.0000
# 3 33.7551 33.7551 61.2580 0.0000 0.0000 0.0000
# 4 0.0000 0.0000 0.0000 24.6138 0.0000 0.0000
# 5 0.0000 0.0000 0.0000 0.0000 24.6138 0.0000
# 6 0.0000 0.0000 0.0000 0.0000 0.0000 33.0924
#
#
#
# Elastic Compliance Matrix: (Units=1/GPa)
#
#
# Indices 1 2 3 4 5 6 
#
# 1 0.023101 -0.012794 -0.005680 0.000000 0.000000 0.000000
# 2 -0.012794 0.023101 -0.005680 0.000000 0.000000 0.000000
# 3 -0.005680 -0.005680 0.022584 0.000000 0.000000 0.000000
# 4 0.000000 0.000000 0.000000 0.040628 0.000000 0.000000
# 5 0.000000 0.000000 0.000000 0.000000 0.040628 0.000000
# 6 0.000000 0.000000 0.000000 0.000000 0.000000 0.030218
#
#
# Mechanical properties :
#
#
# Convention : Reuss Voigt Hill
#
# Bulk Modulus (GPa) = 48.82874 51.63512 50.23193
# Shear Modulus (GPa) = 21.24113 23.30705 22.27409
#
# Velocity S-wave (km/s) = 3.44554 3.60921 3.52833
# Velocity P-wave (km/s) = 6.56656 6.79910 6.68384
#
# Compressibility (1/GPa) = 0.02047974
#
# Stress axis : x y z
#
# Youngs Moduli (GPa) = 43.28817 43.28785 44.27966
#
# Poissons Ratio (x) = 0.55382 0.25149
# Poissons Ratio (y) = 0.55382 0.25149
# Poissons Ratio (z) = 0.24586 0.24586
#
# Static dielectric constant tensor:
#      x y z
#    x 3.405210 0.000000 0.000000 
#    y 0.000000 3.405220 0.000000 
#    z 0.000000 0.000000 3.158400 
# 
# 
# High freq. dielectric constant tensor:
#      x y z
#    x 1.684070 0.000000 0.000000 
#    y 0.000000 1.684070 0.000000 
#    z 0.000000 0.000000 1.674500 
# 
# From -- ./inp_files/6030.got.cif
#   From: 2010.03.12/outbox.cif.g09.slc.cpg/sg120_4_cif.got.tgz:6030.got - 2010.04.06 16:00:44.
