data_PCOD8311200
_publ_section_title
;
Structure prediction by ZEFSAII (Michael W. Deem and Ramdas Pophale) SiO2 
 PCOD8311200
Probable space group: I -4 C 2
;
_chemical_formula_sum "Si O2"
_cell_formula_units_Z 112
_cell_length_a 16.638305
_cell_length_b 16.638305
_cell_length_c 21.723900
_cell_angle_alpha 90.000000
_cell_angle_beta 90.000000
_cell_angle_gamma 90.000000
_cell_volume 6013.896607
_symmetry_space_group_name_H-M "I -4 C 2"
_symmetry_group_IT_number 120
_symmetry_cell_setting 'tetragonal'
loop_
_space_group_symop_operation_xyz
x,y,z
y,-x,-z
-x,-y,z
-y,x,-z
y,x,1/2-z
-y,-x,1/2-z
-x,y,1/2+z
x,-y,1/2+z
1/2+x,1/2+y,1/2+z
1/2+y,1/2-x,1/2-z
1/2-x,1/2-y,1/2+z
1/2-y,1/2+x,1/2-z
1/2+y,1/2+x,-z
1/2-y,1/2-x,-z
1/2-x,1/2+y,z
1/2+x,1/2-y,z
loop_
_atom_site_type_symbol
_atom_site_label
_atom_site_fract_x
_atom_site_fract_y
_atom_site_fract_z
Si Si1 0.282844 0.691964 0.444701
Si Si2 0.366872 0.823760 0.375763
Si Si3 0.260943 0.023226 0.567809
Si Si4 0.873603 0.474077 0.959566
Si Si5 0.102361 0.415420 0.749400
Si Si6 0.380627 0.144240 0.617919
Si Si7 0.431573 0.395471 0.493221
O O1 0.234899 0.734899 0.500000
O O2 0.300743 0.756654 0.390985
O O3 0.232045 0.622403 0.411853
O O4 0.362146 0.644899 0.468245
O O5 0.451094 0.779085 0.386192
O O6 0.347121 0.895195 0.422802
O O7 0.365721 0.858656 0.306809
O O8 0.298978 0.101181 0.598927
O O9 0.166677 0.045343 0.561461
O O10 0.299524 0.004848 0.500992
O O11 0.901978 0.542901 0.911919
O O12 0.951367 0.451367 0.000000
O O13 0.109687 0.510445 0.738463
O O14 0.152146 0.390734 0.809325
O O15 0.406014 0.484154 0.467996
#
# Coordination Sequence:
#
# PCOD8311200 Si02
#       7
#    16  16  16  16  16  16  16
#     4  12  23  38  63  94 126 157 205 270 332 375
#     4  11  23  38  59  86 123 167 207 256 308 380
#     4  11  20  36  57  89 126 153 199 256 315 371
#     4  10  21  32  56  90 124 160 195 246 324 383
#     4  11  23  40  59  84 124 172 213 245 299 382
#     4  12  22  37  59  88 123 165 203 259 307 385
#     4  11  23  39  61  89 126 165 202 246 319 392
#
# _framework density 18.623532000000001
#
# number of rings (size 3 to 8) (size 9 to 14) (size 15 to 20)
#    0.000    0.857    7.143    1.714    0.000    4.571 
#    0.000    0.000    0.000    0.000    0.000    0.000 
#    0.000    0.000    0.000    0.000    0.000    0.000 
#
# Total GULP energy -694062.255863 kJ/mol
# GULP energy per Si atom -12393.968855 kJ/mol
# Density = 1.858114 g / cm^3
# Si number density = 18.623532 Si / 1000 Ang^3
#
#
#
# Elastic Constant Matrix: (Units=GPa)
#
#
# Indices 1 2 3 4 5 6 
#
# 1 64.1786 10.6836 25.2736 0.0000 0.0000 0.0000
# 2 10.6836 64.1786 25.2736 0.0000 0.0000 0.0000
# 3 25.2736 25.2736 108.2473 0.0000 0.0000 0.0000
# 4 0.0000 0.0000 0.0000 26.0645 0.0000 0.0000
# 5 0.0000 0.0000 0.0000 0.0000 26.0645 0.0000
# 6 0.0000 0.0000 0.0000 0.0000 0.0000 33.7833
#
#
#
# Elastic Compliance Matrix: (Units=1/GPa)
#
#
# Indices 1 2 3 4 5 6 
#
# 1 0.017276 -0.001418 -0.003702 0.000000 0.000000 0.000000
# 2 -0.001418 0.017276 -0.003702 0.000000 0.000000 0.000000
# 3 -0.003702 -0.003702 0.010967 0.000000 0.000000 0.000000
# 4 0.000000 0.000000 0.000000 0.038366 0.000000 0.000000
# 5 0.000000 0.000000 0.000000 0.000000 0.038366 0.000000
# 6 0.000000 0.000000 0.000000 0.000000 0.000000 0.029600
#
#
# Mechanical properties :
#
#
# Convention : Reuss Voigt Hill
#
# Bulk Modulus (GPa) = 35.87739 39.89622 37.88681
# Shear Modulus (GPa) = 27.96613 28.87403 28.42008
#
# Velocity S-wave (km/s) = 3.87932 3.94179 3.91068
# Velocity P-wave (km/s) = 6.27470 6.49507 6.38584
#
# Compressibility (1/GPa) = 0.02787271
#
# Stress axis : x y z
#
# Youngs Moduli (GPa) = 57.88516 57.88517 91.18245
#
# Poissons Ratio (x) = 0.08207 0.33760
# Poissons Ratio (y) = 0.08207 0.33760
# Poissons Ratio (z) = 0.21432 0.21432
#
# Static dielectric constant tensor:
#      x y z
#    x 3.529270 0.000000 0.000000 
#    y 0.000000 3.529270 0.000000 
#    z 0.000000 0.000000 3.201380 
# 
# 
# High freq. dielectric constant tensor:
#      x y z
#    x 1.728460 0.000000 0.000000 
#    y 0.000000 1.728460 0.000000 
#    z 0.000000 0.000000 1.689600 
# 
# From -- ./inp_files/5503.got.cif
#   From: 2010.03.12/outbox.cif.g09.slc.cpg/sg120_3_cif.got.tgz:5503.got - 2010.04.06 16:00:44.
