data_PCOD8311159
_publ_section_title
;
Structure prediction by ZEFSAII (Michael W. Deem and Ramdas Pophale) SiO2 
 PCOD8311159
Probable space group: I -4 C 2
;
_chemical_formula_sum "Si O2"
_cell_formula_units_Z 104
_cell_length_a 20.212651
_cell_length_b 20.212651
_cell_length_c 14.336173
_cell_angle_alpha 90.000000
_cell_angle_beta 90.000000
_cell_angle_gamma 90.000000
_cell_volume 5857.061549
_symmetry_space_group_name_H-M "I -4 C 2"
_symmetry_group_IT_number 120
_symmetry_cell_setting 'tetragonal'
loop_
_space_group_symop_operation_xyz
x,y,z
y,-x,-z
-x,-y,z
-y,x,-z
y,x,1/2-z
-y,-x,1/2-z
-x,y,1/2+z
x,-y,1/2+z
1/2+x,1/2+y,1/2+z
1/2+y,1/2-x,1/2-z
1/2-x,1/2-y,1/2+z
1/2-y,1/2+x,1/2-z
1/2+y,1/2+x,-z
1/2-y,1/2-x,-z
1/2-x,1/2+y,z
1/2+x,1/2-y,z
loop_
_atom_site_type_symbol
_atom_site_label
_atom_site_fract_x
_atom_site_fract_y
_atom_site_fract_z
Si Si1 0.897136 0.102865 0.750000
Si Si2 0.829607 0.228578 0.478818
Si Si3 0.328189 0.779076 0.781889
Si Si4 0.636567 0.504962 0.113057
Si Si5 0.252052 0.401191 0.832661
Si Si6 0.460613 0.268036 0.225791
Si Si7 0.642898 0.418275 0.937645
O O1 0.901167 0.172983 0.700674
O O2 0.954191 0.093013 0.826356
O O3 0.755673 0.255673 0.500000
O O4 0.853785 0.264750 0.385867
O O5 0.882138 0.249143 0.558566
O O6 0.823012 0.150523 0.466563
O O7 0.278886 0.721115 0.750000
O O8 0.292045 0.849714 0.772979
O O9 0.395944 0.779248 0.722095
O O10 0.701007 0.528743 0.170948
O O11 0.590855 0.565268 0.080668
O O12 0.660502 0.469169 0.019284
O O13 0.226072 0.475689 0.810928
O O14 0.447763 0.329330 0.157563
#
# Coordination Sequence:
#
# PCOD8311159 Si02
#       7
#     8  16  16  16  16  16  16
#     4  10  20  36  53  74 110 146 186 237 266 328
#     4  10  20  34  57  82 107 147 189 233 289 334
#     4  11  19  36  62  83 111 146 192 238 289 337
#     4  11  24  37  52  76 111 155 198 231 273 326
#     4  10  21  37  55  82 113 143 186 235 291 333
#     4  11  23  38  59  82 112 147 192 243 280 342
#     4  12  22  40  53  77 115 154 194 233 278 336
#
# _framework density 17.756345
#
# number of rings (size 3 to 8) (size 9 to 14) (size 15 to 20)
#    0.000    1.231    5.385    1.385    2.154    0.308 
#    2.769    0.000    0.000    0.462    0.000    0.000 
#    0.000    3.692    0.000    0.000    0.000    0.000 
#
# Total GULP energy -644663.929636 kJ/mol
# GULP energy per Si atom -12397.383262 kJ/mol
# Density = 1.771593 g / cm^3
# Si number density = 17.756345 Si / 1000 Ang^3
#
#
#
# Elastic Constant Matrix: (Units=GPa)
#
#
# Indices 1 2 3 4 5 6 
#
# 1 101.9555 70.5676 38.3100 0.0000 0.0000 0.0000
# 2 70.5676 101.9550 38.3123 0.0000 0.0000 0.0000
# 3 38.3100 38.3123 86.1701 0.0000 0.0000 0.0000
# 4 0.0000 0.0000 0.0000 25.0255 0.0000 0.0000
# 5 0.0000 0.0000 0.0000 0.0000 25.0255 0.0000
# 6 0.0000 0.0000 0.0000 0.0000 0.0000 20.7286
#
#
#
# Elastic Compliance Matrix: (Units=1/GPa)
#
#
# Indices 1 2 3 4 5 6 
#
# 1 0.019541 -0.012319 -0.003211 0.000000 0.000000 0.000000
# 2 -0.012319 0.019541 -0.003212 0.000000 0.000000 0.000000
# 3 -0.003211 -0.003212 0.014460 0.000000 0.000000 0.000000
# 4 0.000000 0.000000 0.000000 0.039959 0.000000 0.000000
# 5 0.000000 0.000000 0.000000 0.000000 0.039959 0.000000
# 6 0.000000 0.000000 0.000000 0.000000 0.000000 0.048243
#
#
# Mechanical properties :
#
#
# Convention : Reuss Voigt Hill
#
# Bulk Modulus (GPa) = 62.26342 64.94003 63.60173
# Shear Modulus (GPa) = 22.26788 23.68197 22.97493
#
# Velocity S-wave (km/s) = 3.54514 3.65597 3.60098
# Velocity P-wave (km/s) = 7.20409 7.38064 7.29290
#
# Compressibility (1/GPa) = 0.01606079
#
# Stress axis : x y z
#
# Youngs Moduli (GPa) = 51.17497 51.17349 69.15502
#
# Poissons Ratio (x) = 0.63039 0.22203
# Poissons Ratio (y) = 0.63040 0.22210
# Poissons Ratio (z) = 0.16430 0.16435
#
# Static dielectric constant tensor:
#      x y z
#    x 3.426210 0.000000 0.000000 
#    y 0.000000 3.426170 0.000000 
#    z 0.000000 0.000000 3.576460 
# 
# 
# High freq. dielectric constant tensor:
#      x y z
#    x 1.668850 0.000000 0.000000 
#    y 0.000000 1.668850 0.000000 
#    z 0.000000 0.000000 1.705440 
# 
# From -- ./inp_files/3672.got.cif
#   From: 2010.03.12/outbox.cif.g09.slc.cpg/sg120_2_cif.got.tgz:3672.got - 2010.04.06 16:00:44.
