data_PCOD8311630
_publ_section_title
;
Structure prediction by ZEFSAII (Michael W. Deem and Ramdas Pophale) SiO2 
 PCOD8311630
Probable space group: I -4 2 M
;
_chemical_formula_sum "Si O2"
_cell_formula_units_Z 52
_cell_length_a 10.635922
_cell_length_b 10.635922
_cell_length_c 27.405929
_cell_angle_alpha 90.000000
_cell_angle_beta 90.000000
_cell_angle_gamma 90.000000
_cell_volume 3100.236433
_symmetry_space_group_name_H-M "I -4 2 M"
_symmetry_group_IT_number 121
_symmetry_cell_setting 'tetragonal'
loop_
_space_group_symop_operation_xyz
x,y,z
y,-x,-z
-x,-y,z
-y,x,-z
x,-y,-z
-x,y,-z
-y,-x,z
y,x,z
1/2+x,1/2+y,1/2+z
1/2+y,1/2-x,1/2-z
1/2-x,1/2-y,1/2+z
1/2-y,1/2+x,1/2-z
1/2+x,1/2-y,1/2-z
1/2-x,1/2+y,1/2-z
1/2-y,1/2-x,1/2+z
1/2+y,1/2+x,1/2+z
loop_
_atom_site_type_symbol
_atom_site_label
_atom_site_fract_x
_atom_site_fract_y
_atom_site_fract_z
Si Si1 0.807158 0.807158 0.713845
Si Si2 0.997893 0.647038 0.649118
Si Si3 0.500000 0.500000 0.218071
Si Si4 0.004335 0.205652 0.445379
Si Si5 0.805259 0.194742 0.692640
O O1 0.725311 0.725311 0.751099
O O2 0.887857 0.711613 0.680888
O O3 0.902434 0.902434 0.744581
O O4 0.981612 0.681808 0.592414
O O5 0.138272 0.683677 0.666661
O O6 0.000000 0.500000 0.656367
O O7 0.412373 0.587628 0.184846
O O8 0.138244 0.138244 0.435352
O O9 0.000000 0.262427 0.500000
O O10 0.895721 0.104280 0.438931
#
# Coordination Sequence:
#
# PCOD8311630 Si02
#       5
#     8  16   4  16   8
#     4  10  22  36  51  74 109 140 180 214 255 311
#     4  11  22  34  55  79 106 140 178 217 265 313
#     4   8  20  36  56  64  93 152 165 220 260 288
#     4   9  17  33  58  82 104 132 170 222 277 321
#     4  10  22  36  51  74 109 140 180 214 255 311
#
# _framework density 16.772912999999999
#
# number of rings (size 3 to 8) (size 9 to 14) (size 15 to 20)
#    0.000    2.154    3.077    0.923    8.615    0.615 
#    0.000    0.000    0.000    0.000    0.000    0.000 
#    0.000    4.923    0.000    0.000    0.000    0.000 
#
# Total GULP energy -322119.666644 kJ/mol
# GULP energy per Si atom -12389.217948 kJ/mol
# Density = 1.673474 g / cm^3
# Si number density = 16.772913 Si / 1000 Ang^3
#
#
#
# Elastic Constant Matrix: (Units=GPa)
#
#
# Indices 1 2 3 4 5 6 
#
# 1 104.1893 48.5698 49.6699 0.0000 0.0000 0.0000
# 2 48.5698 104.1908 49.6703 0.0000 0.0000 0.0000
# 3 49.6699 49.6703 116.7542 0.0000 0.0000 0.0000
# 4 0.0000 0.0000 0.0000 19.0469 0.0000 0.0000
# 5 0.0000 0.0000 0.0000 0.0000 19.0468 0.0000
# 6 0.0000 0.0000 0.0000 0.0000 0.0000 21.0746
#
#
#
# Elastic Compliance Matrix: (Units=1/GPa)
#
#
# Indices 1 2 3 4 5 6 
#
# 1 0.013515 -0.004465 -0.003850 0.000000 0.000000 0.000000
# 2 -0.004465 0.013514 -0.003850 0.000000 0.000000 0.000000
# 3 -0.003850 -0.003850 0.011841 0.000000 0.000000 0.000000
# 4 0.000000 0.000000 0.000000 0.052502 0.000000 0.000000
# 5 0.000000 0.000000 0.000000 0.000000 0.052502 0.000000
# 6 0.000000 0.000000 0.000000 0.000000 0.000000 0.047450
#
#
# Mechanical properties :
#
#
# Convention : Reuss Voigt Hill
#
# Bulk Modulus (GPa) = 68.77372 68.99491 68.88431
# Shear Modulus (GPa) = 22.67567 23.64862 23.16215
#
# Velocity S-wave (km/s) = 3.68084 3.75898 3.72011
# Velocity P-wave (km/s) = 7.69133 7.75009 7.72077
#
# Compressibility (1/GPa) = 0.01454044
#
# Stress axis : x y z
#
# Youngs Moduli (GPa) = 73.99411 73.99512 84.45366
#
# Poissons Ratio (x) = 0.33036 0.32515
# Poissons Ratio (y) = 0.33035 0.32515
# Poissons Ratio (z) = 0.28488 0.28488
#
# Static dielectric constant tensor:
#      x y z
#    x 3.147530 0.000000 0.000000 
#    y 0.000000 3.147530 0.000000 
#    z 0.000000 0.000000 3.157920 
# 
# 
# High freq. dielectric constant tensor:
#      x y z
#    x 1.637470 0.000000 0.000000 
#    y 0.000000 1.637470 0.000000 
#    z 0.000000 0.000000 1.640120 
# 
# From -- ./inp_files/7449.got.cif
#   From: 2010.03.12/outbox.cif.g09.slc.cpg/sg121_4_cif.got.tgz:7449.got - 2010.04.06 16:06:48.
