data_PCOD8311071
_publ_section_title
;
Structure prediction by ZEFSAII (Michael W. Deem and Ramdas Pophale) SiO2 
 PCOD8311071
Probable space group: I -4 M 2
;
_chemical_formula_sum "Si O2"
_cell_formula_units_Z 112
_cell_length_a 14.770526
_cell_length_b 14.770526
_cell_length_c 22.511692
_cell_angle_alpha 90.000000
_cell_angle_beta 90.000000
_cell_angle_gamma 90.000000
_cell_volume 4911.340688
_symmetry_space_group_name_H-M "I -4 M 2"
_symmetry_group_IT_number 119
_symmetry_cell_setting 'tetragonal'
loop_
_space_group_symop_operation_xyz
x,y,z
y,-x,-z
-x,-y,z
-y,x,-z
y,x,-z
-y,-x,-z
-x,y,z
x,-y,z
1/2+x,1/2+y,1/2+z
1/2+y,1/2-x,1/2-z
1/2-x,1/2-y,1/2+z
1/2-y,1/2+x,1/2-z
1/2+y,1/2+x,1/2-z
1/2-y,1/2-x,1/2-z
1/2-x,1/2+y,1/2+z
1/2+x,1/2-y,1/2+z
loop_
_atom_site_type_symbol
_atom_site_label
_atom_site_fract_x
_atom_site_fract_y
_atom_site_fract_z
Si Si1 0.271678 0.101778 0.081797
Si Si2 0.845001 0.899096 0.317858
Si Si3 0.358359 0.098215 0.313022
Si Si4 0.642679 0.892699 0.529443
Si Si5 0.722961 0.601377 0.399402
Si Si6 0.097842 0.846683 0.440097
Si Si7 0.900824 0.253876 0.234771
O O1 0.318753 0.110476 0.145993
O O2 0.183904 0.166393 0.070617
O O3 0.234609 0.000000 0.074618
O O4 0.351454 0.118690 0.034417
O O5 0.744901 0.888853 0.293370
O O6 0.834764 0.879725 0.388840
O O7 0.904668 0.826678 0.282870
O O8 0.884735 0.000000 0.307894
O O9 0.408157 0.091844 0.250000
O O10 0.373154 0.000000 0.345052
O O11 0.598684 0.828725 0.580108
O O12 0.748066 0.878914 0.537349
O O13 0.613687 0.000000 0.534622
O O14 0.683410 0.500000 0.413644
O O15 0.714519 0.621475 0.329742
O O16 0.094472 0.905529 0.500000
O O17 0.000000 0.852012 0.408988
O O18 0.829365 0.329365 0.250000
O O19 0.000000 0.299153 0.234963
#
# Coordination Sequence:
#
# PCOD8311071 Si02
#       7
#    16  16  16  16  16  16  16
#     4  12  25  42  67  96 131 176 223 274 330 394
#     4  11  23  40  64  94 131 175 220 270 331 399
#     4  11  23  39  62  93 131 173 216 268 332 402
#     4  11  24  43  68  96 127 165 211 269 337 402
#     4  11  25  44  67  95 129 172 221 274 332 396
#     4  11  22  36  58  89 127 169 213 265 324 390
#     4  11  24  42  65  93 128 172 223 279 337 400
#
# _framework density 22.804362999999999
#
# number of rings (size 3 to 8) (size 9 to 14) (size 15 to 20)
#    0.000    0.857    0.000    8.143    0.000   10.714 
#    0.000    2.857    0.000    1.714    0.000    0.000 
#    0.000    0.000    0.000    0.000    0.000    0.000 
#
# Total GULP energy -694052.796540 kJ/mol
# GULP energy per Si atom -12393.799938 kJ/mol
# Density = 2.275246 g / cm^3
# Si number density = 22.804363 Si / 1000 Ang^3
#
#
#
# Elastic Constant Matrix: (Units=GPa)
#
#
# Indices 1 2 3 4 5 6 
#
# 1 109.0534 75.8791 33.6252 0.0000 0.0000 0.0000
# 2 75.8791 109.0530 33.6253 0.0000 0.0000 0.0000
# 3 33.6252 33.6253 126.9775 0.0000 0.0000 0.0000
# 4 0.0000 0.0000 0.0000 31.7663 0.0000 0.0000
# 5 0.0000 0.0000 0.0000 0.0000 31.7664 0.0000
# 6 0.0000 0.0000 0.0000 0.0000 0.0000 -1.6937
#
#
#
# Elastic Compliance Matrix: (Units=1/GPa)
#
#
# Indices 1 2 3 4 5 6 
#
# 1 0.018064 -0.012080 -0.001584 0.000000 0.000000 0.000000
# 2 -0.012080 0.018064 -0.001585 0.000000 0.000000 0.000000
# 3 -0.001584 -0.001585 0.008715 0.000000 0.000000 0.000000
# 4 0.000000 0.000000 0.000000 0.031480 0.000000 0.000000
# 5 0.000000 0.000000 0.000000 0.000000 0.031480 0.000000
# 6 0.000000 0.000000 0.000000 0.000000 0.000000 -0.590421
#
#
# Mechanical properties :
#
#
# Convention : Reuss Voigt Hill
#
# Bulk Modulus (GPa) = 69.71710 70.14925 69.93317
# Shear Modulus (GPa) = -11.17721 25.83143 7.32711
#
# Velocity S-wave (km/s) = -2.21630 3.36927 1.79444
# Velocity P-wave (km/s) = 4.90804 6.77968 5.91832
#
# Compressibility (1/GPa) = 0.01434368
#
# Stress axis : x y z
#
# Youngs Moduli (GPa) = 55.35946 55.35918 114.74970
#
# Poissons Ratio (x) = 0.66875 0.18182
# Poissons Ratio (y) = 0.66875 0.18183
# Poissons Ratio (z) = 0.08772 0.08772
#
# Static dielectric constant tensor:
#      x y z
#    x 4.010160 0.000000 0.000000 
#    y 0.000000 4.010170 0.000000 
#    z 0.000000 0.000000 4.188250 
# 
# 
# High freq. dielectric constant tensor:
#      x y z
#    x 1.903840 0.000000 0.000000 
#    y 0.000000 1.903840 0.000000 
#    z 0.000000 0.000000 1.903360 
# 
# From -- ./inp_files/8823.got.cif
#   From: 2010.03.12/outbox.cif.g09.slc.cpg/sg119_5_cif.got.tgz:8823.got - 2010.04.14 02:25:26.
