data_PCOD8311628
_publ_section_title
;
Structure prediction by ZEFSAII (Michael W. Deem and Ramdas Pophale) SiO2 
 PCOD8311628
Probable space group: I -4 2 M
;
_chemical_formula_sum "Si O2"
_cell_formula_units_Z 112
_cell_length_a 15.035466
_cell_length_b 15.035466
_cell_length_c 23.568790
_cell_angle_alpha 90.000000
_cell_angle_beta 90.000000
_cell_angle_gamma 90.000000
_cell_volume 5328.084117
_symmetry_space_group_name_H-M "I -4 2 M"
_symmetry_group_IT_number 121
_symmetry_cell_setting 'tetragonal'
loop_
_space_group_symop_operation_xyz
x,y,z
y,-x,-z
-x,-y,z
-y,x,-z
x,-y,-z
-x,y,-z
-y,-x,z
y,x,z
1/2+x,1/2+y,1/2+z
1/2+y,1/2-x,1/2-z
1/2-x,1/2-y,1/2+z
1/2-y,1/2+x,1/2-z
1/2+x,1/2-y,1/2-z
1/2-x,1/2+y,1/2-z
1/2-y,1/2-x,1/2+z
1/2+y,1/2+x,1/2+z
loop_
_atom_site_type_symbol
_atom_site_label
_atom_site_fract_x
_atom_site_fract_y
_atom_site_fract_z
Si Si1 0.226189 0.634246 0.023209
Si Si2 0.000488 0.858118 0.893287
Si Si3 0.276702 0.953580 0.409905
Si Si4 0.998180 0.140774 0.318319
Si Si5 0.179158 0.459926 0.443118
Si Si6 0.414762 0.949500 0.840874
Si Si7 0.728412 0.583904 0.714045
O O1 0.316159 0.683842 0.040656
O O2 0.223604 0.539893 0.051943
O O3 0.144901 0.690193 0.048612
O O4 0.221217 0.628432 0.954275
O O5 0.073675 0.926326 0.916678
O O6 0.024776 0.823618 0.831096
O O7 0.000581 0.777218 0.937029
O O8 0.904643 0.904643 0.888922
O O9 0.188885 0.953235 0.371695
O O10 0.361140 0.950608 0.369632
O O11 0.921927 0.078074 0.290418
O O12 0.036036 0.212847 0.274081
O O13 0.079557 0.079557 0.339775
O O14 0.133813 0.500000 0.500000
O O15 0.120191 0.482425 0.388516
O O16 0.335174 0.919584 0.797689
O O17 0.500000 0.000000 0.811386
O O18 0.684717 0.684717 0.713817
#
# Coordination Sequence:
#
# PCOD8311628 Si02
#       7
#    16  16  16  16  16  16  16
#     4  11  23  38  61  91 125 163 210 263 311 368
#     4   9  18  33  54  84 122 159 200 254 312 368
#     4  11  23  40  62  91 128 164 209 258 315 369
#     4  10  21  42  70  95 124 164 207 253 314 381
#     4  11  21  36  58  84 118 166 213 253 306 370
#     4  11  22  41  65  89 125 171 212 259 315 378
#     4   9  20  39  64  94 124 160 207 259 311 376
#
# _framework density 21.020688
#
# number of rings (size 3 to 8) (size 9 to 14) (size 15 to 20)
#    0.000    1.714    2.857    1.714    0.000    4.286 
#    2.571    0.714    0.000    3.429    0.000    0.000 
#    0.000    0.000    0.000    0.000    0.000    0.000 
#
# Total GULP energy -694138.809305 kJ/mol
# GULP energy per Si atom -12395.335880 kJ/mol
# Density = 2.097284 g / cm^3
# Si number density = 21.020688 Si / 1000 Ang^3
#
#
#
# Elastic Constant Matrix: (Units=GPa)
#
#
# Indices 1 2 3 4 5 6 
#
# 1 115.4682 45.7636 34.0090 0.0000 0.0000 0.0000
# 2 45.7636 115.4691 34.0093 0.0000 0.0000 0.0000
# 3 34.0090 34.0093 76.6743 0.0000 0.0000 0.0000
# 4 0.0000 0.0000 0.0000 24.3313 0.0000 0.0000
# 5 0.0000 0.0000 0.0000 0.0000 24.3311 0.0000
# 6 0.0000 0.0000 0.0000 0.0000 0.0000 30.6345
#
#
#
# Elastic Compliance Matrix: (Units=1/GPa)
#
#
# Indices 1 2 3 4 5 6 
#
# 1 0.010988 -0.003358 -0.003384 0.000000 0.000000 0.000000
# 2 -0.003358 0.010988 -0.003384 0.000000 0.000000 0.000000
# 3 -0.003384 -0.003384 0.016044 0.000000 0.000000 0.000000
# 4 0.000000 0.000000 0.000000 0.041099 0.000000 0.000000
# 5 0.000000 0.000000 0.000000 0.000000 0.041100 0.000000
# 6 0.000000 0.000000 0.000000 0.000000 0.000000 0.032643
#
#
# Mechanical properties :
#
#
# Convention : Reuss Voigt Hill
#
# Bulk Modulus (GPa) = 56.28367 59.46394 57.87381
# Shear Modulus (GPa) = 27.92698 28.78134 28.35416
#
# Velocity S-wave (km/s) = 3.64888 3.70427 3.67668
# Velocity P-wave (km/s) = 6.67727 6.82973 6.75393
#
# Compressibility (1/GPa) = 0.01776714
#
# Stress axis : x y z
#
# Youngs Moduli (GPa) = 91.00755 91.00822 62.32697
#
# Poissons Ratio (x) = 0.30562 0.21093
# Poissons Ratio (y) = 0.30561 0.21093
# Poissons Ratio (z) = 0.30800 0.30800
#
# Static dielectric constant tensor:
#      x y z
#    x 3.848560 0.000000 0.000000 
#    y 0.000000 3.848550 0.000000 
#    z 0.000000 0.000000 3.788680 
# 
# 
# High freq. dielectric constant tensor:
#      x y z
#    x 1.824970 0.000000 0.000000 
#    y 0.000000 1.824970 0.000000 
#    z 0.000000 0.000000 1.813370 
# 
# From -- ./inp_files/7172.got.cif
#   From: 2010.03.12/outbox.cif.g09.slc.cpg/sg121_4_cif.got.tgz:7172.got - 2010.04.06 16:06:48.
