data_PCOD8311542
_publ_section_title
;
Structure prediction by ZEFSAII (Michael W. Deem and Ramdas Pophale) SiO2 
 PCOD8311542
Probable space group: I -4 2 M
;
_chemical_formula_sum "Si O2"
_cell_formula_units_Z 72
_cell_length_a 11.490363
_cell_length_b 11.490363
_cell_length_c 27.477318
_cell_angle_alpha 90.000000
_cell_angle_beta 90.000000
_cell_angle_gamma 90.000000
_cell_volume 3627.787482
_symmetry_space_group_name_H-M "I -4 2 M"
_symmetry_group_IT_number 121
_symmetry_cell_setting 'tetragonal'
loop_
_space_group_symop_operation_xyz
x,y,z
y,-x,-z
-x,-y,z
-y,x,-z
x,-y,-z
-x,y,-z
-y,-x,z
y,x,z
1/2+x,1/2+y,1/2+z
1/2+y,1/2-x,1/2-z
1/2-x,1/2-y,1/2+z
1/2-y,1/2+x,1/2-z
1/2+x,1/2-y,1/2-z
1/2-x,1/2+y,1/2-z
1/2-y,1/2-x,1/2+z
1/2+y,1/2+x,1/2+z
loop_
_atom_site_type_symbol
_atom_site_label
_atom_site_fract_x
_atom_site_fract_y
_atom_site_fract_z
Si Si1 0.262794 0.448081 0.339402
Si Si2 0.625023 0.193575 0.412862
Si Si3 0.691776 0.500000 0.500000
Si Si4 0.479642 0.127979 0.849738
Si Si5 0.687878 0.496611 0.232398
O O1 0.385550 0.385550 0.349416
O O2 0.260652 0.571183 0.366464
O O3 0.246034 0.473700 0.282282
O O4 0.158790 0.364831 0.359887
O O5 0.751987 0.248014 0.423431
O O6 0.537381 0.219966 0.457249
O O7 0.639175 0.056210 0.399790
O O8 0.608853 0.391147 0.515385
O O9 0.517055 0.224262 0.811557
O O10 0.500000 0.000000 0.826825
O O11 0.634631 0.365370 0.233680
O O12 0.584055 0.584055 0.222771
#
# Coordination Sequence:
#
# PCOD8311542 Si02
#       5
#    16  16   8  16  16
#     4  10  21  34  51  75 107 148 190 234 278 326
#     4  10  20  35  57  82 110 141 181 231 284 343
#     4   9  18  34  59  88 116 148 187 235 288 342
#     4  10  22  34  50  76 110 147 182 226 283 337
#     4  10  21  36  54  76 105 149 201 240 272 324
#
# _framework density 19.846806000000001
#
# number of rings (size 3 to 8) (size 9 to 14) (size 15 to 20)
#    0.000    2.111    0.000    2.667    6.222    2.222 
#    0.000    5.000    0.000    0.000    0.000    0.000 
#    0.000    0.000    0.000   54.000    0.000    0.000 
#
# Total GULP energy -446115.481230 kJ/mol
# GULP energy per Si atom -12392.096701 kJ/mol
# Density = 1.980163 g / cm^3
# Si number density = 19.846806 Si / 1000 Ang^3
#
#
#
# Elastic Constant Matrix: (Units=GPa)
#
#
# Indices 1 2 3 4 5 6 
#
# 1 82.6538 21.2349 37.6899 0.0000 0.0000 0.0000
# 2 21.2349 82.6551 37.6901 0.0000 0.0000 0.0000
# 3 37.6899 37.6901 90.5320 0.0000 0.0000 0.0000
# 4 0.0000 0.0000 0.0000 31.4152 0.0000 0.0000
# 5 0.0000 0.0000 0.0000 0.0000 31.4153 0.0000
# 6 0.0000 0.0000 0.0000 0.0000 0.0000 21.6663
#
#
#
# Elastic Compliance Matrix: (Units=1/GPa)
#
#
# Indices 1 2 3 4 5 6 
#
# 1 0.015037 -0.001245 -0.005742 0.000000 0.000000 0.000000
# 2 -0.001245 0.015036 -0.005742 0.000000 0.000000 0.000000
# 3 -0.005742 -0.005742 0.015827 0.000000 0.000000 0.000000
# 4 0.000000 0.000000 0.000000 0.031832 0.000000 0.000000
# 5 0.000000 0.000000 0.000000 0.000000 0.031832 0.000000
# 6 0.000000 0.000000 0.000000 0.000000 0.000000 0.046155
#
#
# Mechanical properties :
#
#
# Convention : Reuss Voigt Hill
#
# Bulk Modulus (GPa) = 48.91628 49.89675 49.40652
# Shear Modulus (GPa) = 26.59735 27.51443 27.05589
#
# Velocity S-wave (km/s) = 3.66475 3.72740 3.69621
# Velocity P-wave (km/s) = 6.52745 6.61212 6.56993
#
# Compressibility (1/GPa) = 0.02044309
#
# Stress axis : x y z
#
# Youngs Moduli (GPa) = 66.50391 66.50505 63.18493
#
# Poissons Ratio (x) = 0.08279 0.36279
# Poissons Ratio (y) = 0.08279 0.36279
# Poissons Ratio (z) = 0.38185 0.38185
#
# Static dielectric constant tensor:
#      x y z
#    x 3.708610 0.000000 0.000000 
#    y 0.000000 3.708610 0.000000 
#    z 0.000000 0.000000 3.412520 
# 
# 
# High freq. dielectric constant tensor:
#      x y z
#    x 1.772890 0.000000 0.000000 
#    y 0.000000 1.772890 0.000000 
#    z 0.000000 0.000000 1.746240 
# 
# From -- ./inp_files/7527.got.cif
#   From: 2010.03.12/outbox.cif.g09.slc.cpg/sg121_4_cif.got.tgz:7527.got - 2010.04.06 16:06:48.
