data_PCOD8311660
_publ_section_title
;
Structure prediction by ZEFSAII (Michael W. Deem and Ramdas Pophale) SiO2 
 PCOD8311660
Probable space group: I -4 2 M
;
_chemical_formula_sum "Si O2"
_cell_formula_units_Z 28
_cell_length_a 11.979090
_cell_length_b 11.979090
_cell_length_c 8.369672
_cell_angle_alpha 90.000000
_cell_angle_beta 90.000000
_cell_angle_gamma 90.000000
_cell_volume 1201.036191
_symmetry_space_group_name_H-M "I -4 2 M"
_symmetry_group_IT_number 121
_symmetry_cell_setting 'tetragonal'
loop_
_space_group_symop_operation_xyz
x,y,z
y,-x,-z
-x,-y,z
-y,x,-z
x,-y,-z
-x,y,-z
-y,-x,z
y,x,z
1/2+x,1/2+y,1/2+z
1/2+y,1/2-x,1/2-z
1/2-x,1/2-y,1/2+z
1/2-y,1/2+x,1/2-z
1/2+x,1/2-y,1/2-z
1/2-x,1/2+y,1/2-z
1/2-y,1/2-x,1/2+z
1/2+y,1/2+x,1/2+z
loop_
_atom_site_type_symbol
_atom_site_label
_atom_site_fract_x
_atom_site_fract_y
_atom_site_fract_z
Si Si1 0.709933 0.290068 0.149810
Si Si2 0.368383 0.631618 0.490973
Si Si3 0.820587 0.500000 0.000000
Si Si4 0.500000 0.000000 0.750000
O O1 0.684685 0.315316 0.333177
O O2 0.744565 0.401035 0.059055
O O3 0.805908 0.194093 0.137857
O O4 0.500000 0.656286 0.500000
O O5 0.898345 0.545872 0.143412
#
# Coordination Sequence:
#
# PCOD8311660 Si02
#       4
#     8   8   8   4
#     4  12  28  47  79 111 149 199 249 309 372 448
#     4  11  30  53  77 108 157 197 251 312 382 442
#     4  11  26  45  74 110 152 193 253 302 374 442
#     4  10  24  46  72 110 148 198 248 310 360 442
#
# _framework density 23.313203999999999
#
# number of rings (size 3 to 8) (size 9 to 14) (size 15 to 20)
#    0.000    0.857    0.000    3.429   24.000    2.857 
#    0.000    0.000    0.000    0.000    0.000    0.000 
#    0.000    0.000    0.000    0.000    0.000    0.000 
#
# Total GULP energy -173681.080707 kJ/mol
# GULP energy per Si atom -12405.791479 kJ/mol
# Density = 2.326014 g / cm^3
# Si number density = 23.313204 Si / 1000 Ang^3
#
#
#
# Elastic Constant Matrix: (Units=GPa)
#
#
# Indices 1 2 3 4 5 6 
#
# 1 137.0564 65.0713 56.2663 0.0000 0.0000 0.0000
# 2 65.0713 137.0558 56.2661 0.0000 0.0000 0.0000
# 3 56.2663 56.2661 145.4779 0.0000 0.0000 0.0000
# 4 0.0000 0.0000 0.0000 33.5780 0.0000 0.0000
# 5 0.0000 0.0000 0.0000 0.0000 33.5789 0.0000
# 6 0.0000 0.0000 0.0000 0.0000 0.0000 53.7329
#
#
#
# Elastic Compliance Matrix: (Units=1/GPa)
#
#
# Indices 1 2 3 4 5 6 
#
# 1 0.010098 -0.003793 -0.002439 0.000000 0.000000 0.000000
# 2 -0.003793 0.010098 -0.002439 0.000000 0.000000 0.000000
# 3 -0.002439 -0.002439 0.008760 0.000000 0.000000 0.000000
# 4 0.000000 0.000000 0.000000 0.029781 0.000000 0.000000
# 5 0.000000 0.000000 0.000000 0.000000 0.029781 0.000000
# 6 0.000000 0.000000 0.000000 0.000000 0.000000 0.018611
#
#
# Mechanical properties :
#
#
# Convention : Reuss Voigt Hill
#
# Bulk Modulus (GPa) = 86.08849 86.08861 86.08855
# Shear Modulus (GPa) = 38.95817 40.31039 39.63428
#
# Velocity S-wave (km/s) = 4.09232 4.16273 4.12767
# Velocity P-wave (km/s) = 7.70302 7.75317 7.72813
#
# Compressibility (1/GPa) = 0.01161596
#
# Stress axis : x y z
#
# Youngs Moduli (GPa) = 99.02552 99.02515 114.15230
#
# Poissons Ratio (x) = 0.37564 0.27837
# Poissons Ratio (y) = 0.37564 0.27837
# Poissons Ratio (z) = 0.24148 0.24148
#
# Static dielectric constant tensor:
#      x y z
#    x 4.322170 0.000000 0.000000 
#    y 0.000000 4.322240 0.000000 
#    z 0.000000 0.000000 4.550580 
# 
# 
# High freq. dielectric constant tensor:
#      x y z
#    x 1.933190 0.000000 0.000000 
#    y 0.000000 1.933190 0.000000 
#    z 0.000000 0.000000 1.936370 
# 
# From -- ./inp_files/804.got.cif
#   From: 2010.03.12/outbox.cif.g09.slc.cpg/sg121_1_cif.got.tgz:804.got - 2010.04.06 16:06:48.
