data_PCOD8311118
_publ_section_title
;
Structure prediction by ZEFSAII (Michael W. Deem and Ramdas Pophale) SiO2 
 PCOD8311118
Probable space group: I -4 C 2
;
_chemical_formula_sum "Si O2"
_cell_formula_units_Z 108
_cell_length_a 13.845683
_cell_length_b 13.845683
_cell_length_c 29.325691
_cell_angle_alpha 90.000000
_cell_angle_beta 90.000000
_cell_angle_gamma 90.000000
_cell_volume 5621.821116
_symmetry_space_group_name_H-M "I -4 C 2"
_symmetry_group_IT_number 120
_symmetry_cell_setting 'tetragonal'
loop_
_space_group_symop_operation_xyz
x,y,z
y,-x,-z
-x,-y,z
-y,x,-z
y,x,1/2-z
-y,-x,1/2-z
-x,y,1/2+z
x,-y,1/2+z
1/2+x,1/2+y,1/2+z
1/2+y,1/2-x,1/2-z
1/2-x,1/2-y,1/2+z
1/2-y,1/2+x,1/2-z
1/2+y,1/2+x,-z
1/2-y,1/2-x,-z
1/2-x,1/2+y,z
1/2+x,1/2-y,z
loop_
_atom_site_type_symbol
_atom_site_label
_atom_site_fract_x
_atom_site_fract_y
_atom_site_fract_z
Si Si1 0.754472 0.872627 0.332355
Si Si2 0.229637 0.101517 0.103132
Si Si3 0.607317 0.740304 0.376806
Si Si4 0.672205 0.428970 0.809972
Si Si5 0.737901 0.685848 0.455248
Si Si6 0.000000 0.000000 0.750000
Si Si7 0.645331 0.453942 0.011167
Si Si8 0.238274 0.761727 0.250000
O O1 0.848832 0.828036 0.356101
O O2 0.661347 0.835862 0.359604
O O3 0.744062 0.832783 0.281190
O O4 0.760251 0.989593 0.333614
O O5 0.309274 0.172216 0.080240
O O6 0.274616 0.003938 0.123775
O O7 0.156546 0.067252 0.064257
O O8 0.622809 0.643865 0.346046
O O9 0.641827 0.716532 0.427997
O O10 0.594237 0.493533 0.782198
O O11 0.739944 0.363220 0.777636
O O12 0.745563 0.754438 0.500000
O O13 0.732792 0.577444 0.477014
O O14 0.563199 0.379868 0.995557
#
# Coordination Sequence:
#
# PCOD8311118 Si02
#       8
#    16  16  16  16  16   4  16   8
#     4  10  21  35  58  84 111 156 187 242 302 345
#     4  10  20  34  56  85 117 156 192 240 301 347
#     4  10  20  36  54  84 118 145 195 244 286 356
#     4  10  20  33  57  83 113 144 184 243 298 355
#     4   9  19  35  51  78 116 160 187 235 294 349
#     4  10  18  32  52  88 114 136 176 236 308 360
#     4  10  19  30  53  87 119 152 193 243 291 344
#     4   9  21  39  54  81 113 145 188 238 290 358
#
# _framework density 19.210857000000001
#
# number of rings (size 3 to 8) (size 9 to 14) (size 15 to 20)
#    0.000    2.222    1.481    1.333    2.074    2.370 
#    0.000    0.000    0.000   13.778    0.000    4.148 
#    0.000    0.000    0.000    0.000    0.000    0.000 
#
# Total GULP energy -669079.350286 kJ/mol
# GULP energy per Si atom -12390.358339 kJ/mol
# Density = 1.916713 g / cm^3
# Si number density = 19.210857 Si / 1000 Ang^3
#
#
#
# Elastic Constant Matrix: (Units=GPa)
#
#
# Indices 1 2 3 4 5 6 
#
# 1 86.2711 35.9242 21.6637 0.0000 0.0000 0.0000
# 2 35.9242 86.2703 21.6634 0.0000 0.0000 0.0000
# 3 21.6637 21.6634 84.9415 0.0000 0.0000 0.0000
# 4 0.0000 0.0000 0.0000 22.8260 0.0000 0.0000
# 5 0.0000 0.0000 0.0000 0.0000 22.8259 0.0000
# 6 0.0000 0.0000 0.0000 0.0000 0.0000 24.7885
#
#
#
# Elastic Compliance Matrix: (Units=1/GPa)
#
#
# Indices 1 2 3 4 5 6 
#
# 1 0.014430 -0.005433 -0.002295 0.000000 0.000000 0.000000
# 2 -0.005433 0.014430 -0.002295 0.000000 0.000000 0.000000
# 3 -0.002295 -0.002295 0.012943 0.000000 0.000000 0.000000
# 4 0.000000 0.000000 0.000000 0.043810 0.000000 0.000000
# 5 0.000000 0.000000 0.000000 0.000000 0.043810 0.000000
# 6 0.000000 0.000000 0.000000 0.000000 0.000000 0.040341
#
#
# Mechanical properties :
#
#
# Convention : Reuss Voigt Hill
#
# Bulk Modulus (GPa) = 45.95770 46.22062 46.08916
# Shear Modulus (GPa) = 25.37293 25.97020 25.67157
#
# Velocity S-wave (km/s) = 3.63817 3.68074 3.65952
# Velocity P-wave (km/s) = 6.45159 6.49428 6.47297
#
# Compressibility (1/GPa) = 0.02175914
#
# Stress axis : x y z
#
# Youngs Moduli (GPa) = 69.30124 69.30064 77.26016
#
# Poissons Ratio (x) = 0.37648 0.17729
# Poissons Ratio (y) = 0.37648 0.17729
# Poissons Ratio (z) = 0.15902 0.15902
#
# Static dielectric constant tensor:
#      x y z
#    x 3.465650 0.000000 0.000000 
#    y 0.000000 3.465650 0.000000 
#    z 0.000000 0.000000 3.763650 
# 
# 
# High freq. dielectric constant tensor:
#      x y z
#    x 1.728670 0.000000 0.000000 
#    y 0.000000 1.728670 0.000000 
#    z 0.000000 0.000000 1.770120 
# 
# From -- ./inp_files/6707.got.cif
#   From: 2010.03.12/outbox.cif.g09.slc.cpg/sg120_4_cif.got.tgz:6707.got - 2010.04.06 16:00:44.
