data_PCOD8311116
_publ_section_title
;
Structure prediction by ZEFSAII (Michael W. Deem and Ramdas Pophale) SiO2 
 PCOD8311116
Probable space group: I -4 C 2
;
_chemical_formula_sum "Si O2"
_cell_formula_units_Z 112
_cell_length_a 15.672049
_cell_length_b 15.672049
_cell_length_c 23.741256
_cell_angle_alpha 90.000000
_cell_angle_beta 90.000000
_cell_angle_gamma 90.000000
_cell_volume 5831.163956
_symmetry_space_group_name_H-M "I -4 C 2"
_symmetry_group_IT_number 120
_symmetry_cell_setting 'tetragonal'
loop_
_space_group_symop_operation_xyz
x,y,z
y,-x,-z
-x,-y,z
-y,x,-z
y,x,1/2-z
-y,-x,1/2-z
-x,y,1/2+z
x,-y,1/2+z
1/2+x,1/2+y,1/2+z
1/2+y,1/2-x,1/2-z
1/2-x,1/2-y,1/2+z
1/2-y,1/2+x,1/2-z
1/2+y,1/2+x,-z
1/2-y,1/2-x,-z
1/2-x,1/2+y,z
1/2+x,1/2-y,z
loop_
_atom_site_type_symbol
_atom_site_label
_atom_site_fract_x
_atom_site_fract_y
_atom_site_fract_z
Si Si1 0.358582 0.429128 0.912876
Si Si2 0.900046 0.263719 0.484167
Si Si3 0.762316 0.076500 0.548445
Si Si4 0.383444 0.923946 0.743218
Si Si5 0.685965 0.182075 0.355563
Si Si6 0.717802 0.356457 0.302524
Si Si7 0.680971 0.612196 0.428763
O O1 0.433842 0.361845 0.929084
O O2 0.327123 0.414924 0.849211
O O3 0.382186 0.529698 0.921004
O O4 0.282316 0.411483 0.956279
O O5 0.845628 0.345628 0.500000
O O6 0.866313 0.202117 0.434585
O O7 0.988673 0.290442 0.454790
O O8 0.715085 0.142880 0.587582
O O9 0.762483 0.109533 0.484962
O O10 0.473923 0.887297 0.764739
O O11 0.364274 0.884198 0.682322
O O12 0.308876 0.897561 0.786548
O O13 0.732712 0.260025 0.324099
O O14 0.758056 0.114439 0.373905
O O15 0.651771 0.348230 0.250000
#
# Coordination Sequence:
#
# PCOD8311116 Si02
#       7
#    16  16  16  16  16  16  16
#     4   9  18  32  51  74 102 136 169 213 264 305
#     4  10  19  31  50  76 105 136 173 211 254 318
#     4   9  19  33  50  77 107 136 170 209 259 318
#     4  10  21  35  51  74 101 131 171 218 266 316
#     4  10  19  33  54  74  99 137 173 215 263 310
#     4   9  18  33  52  74 100 134 180 220 259 319
#     4  10  18  31  53  77 104 134 171 213 258 320
#
# _framework density 19.207144
#
# number of rings (size 3 to 8) (size 9 to 14) (size 15 to 20)
#    0.000    2.429    0.000    3.857    0.000    2.857 
#    0.000    4.286    0.000    3.429    0.000    8.000 
#    0.000    0.000    0.000    0.000    0.000    0.000 
#
# Total GULP energy -693763.951798 kJ/mol
# GULP energy per Si atom -12388.641996 kJ/mol
# Density = 1.916343 g / cm^3
# Si number density = 19.207144 Si / 1000 Ang^3
#
#
#
# Elastic Constant Matrix: (Units=GPa)
#
#
# Indices 1 2 3 4 5 6 
#
# 1 63.4542 19.5035 12.8683 0.0000 0.0000 0.0000
# 2 19.5035 63.4540 12.8683 0.0000 0.0000 0.0000
# 3 12.8683 12.8683 93.1032 0.0000 0.0000 0.0000
# 4 0.0000 0.0000 0.0000 20.1817 0.0000 0.0000
# 5 0.0000 0.0000 0.0000 0.0000 20.1817 0.0000
# 6 0.0000 0.0000 0.0000 0.0000 0.0000 27.0394
#
#
#
# Elastic Compliance Matrix: (Units=1/GPa)
#
#
# Indices 1 2 3 4 5 6 
#
# 1 0.017674 -0.005079 -0.001741 0.000000 0.000000 0.000000
# 2 -0.005079 0.017674 -0.001741 0.000000 0.000000 0.000000
# 3 -0.001741 -0.001741 0.011222 0.000000 0.000000 0.000000
# 4 0.000000 0.000000 0.000000 0.049550 0.000000 0.000000
# 5 0.000000 0.000000 0.000000 0.000000 0.049550 0.000000
# 6 0.000000 0.000000 0.000000 0.000000 0.000000 0.036983
#
#
# Mechanical properties :
#
#
# Convention : Reuss Voigt Hill
#
# Bulk Modulus (GPa) = 33.95838 34.49905 34.22871
# Shear Modulus (GPa) = 23.85619 25.13198 24.49408
#
# Velocity S-wave (km/s) = 3.52809 3.62120 3.57495
# Velocity P-wave (km/s) = 5.85790 5.95690 5.90761
#
# Compressibility (1/GPa) = 0.02944781
#
# Stress axis : x y z
#
# Youngs Moduli (GPa) = 56.58163 56.58145 89.11098
#
# Poissons Ratio (x) = 0.28739 0.15512
# Poissons Ratio (y) = 0.28739 0.15512
# Poissons Ratio (z) = 0.09849 0.09849
#
# Static dielectric constant tensor:
#      x y z
#    x 3.497160 0.000000 0.000000 
#    y 0.000000 3.497160 0.000000 
#    z 0.000000 0.000000 3.598230 
# 
# 
# High freq. dielectric constant tensor:
#      x y z
#    x 1.733990 0.000000 0.000000 
#    y 0.000000 1.733990 0.000000 
#    z 0.000000 0.000000 1.751160 
# 
# From -- ./inp_files/5936.got.cif
#   From: 2010.03.12/outbox.cif.g09.slc.cpg/sg120_3_cif.got.tgz:5936.got - 2010.04.06 16:00:44.
