data_PCOD8311551
_publ_section_title
;
Structure prediction by ZEFSAII (Michael W. Deem and Ramdas Pophale) SiO2 
 PCOD8311551
Probable space group: I -4 2 M
;
_chemical_formula_sum "Si O2"
_cell_formula_units_Z 88
_cell_length_a 12.923556
_cell_length_b 12.923556
_cell_length_c 26.076483
_cell_angle_alpha 90.000000
_cell_angle_beta 90.000000
_cell_angle_gamma 90.000000
_cell_volume 4355.249852
_symmetry_space_group_name_H-M "I -4 2 M"
_symmetry_group_IT_number 121
_symmetry_cell_setting 'tetragonal'
loop_
_space_group_symop_operation_xyz
x,y,z
y,-x,-z
-x,-y,z
-y,x,-z
x,-y,-z
-x,y,-z
-y,-x,z
y,x,z
1/2+x,1/2+y,1/2+z
1/2+y,1/2-x,1/2-z
1/2-x,1/2-y,1/2+z
1/2-y,1/2+x,1/2-z
1/2+x,1/2-y,1/2-z
1/2-x,1/2+y,1/2-z
1/2-y,1/2-x,1/2+z
1/2+y,1/2+x,1/2+z
loop_
_atom_site_type_symbol
_atom_site_label
_atom_site_fract_x
_atom_site_fract_y
_atom_site_fract_z
Si Si1 0.000000 0.170663 0.000000
Si Si2 0.882138 0.472832 0.889589
Si Si3 0.165275 0.000080 0.560538
Si Si4 0.651562 0.014022 0.726248
Si Si5 0.994431 0.833565 0.794679
Si Si6 0.928937 0.243995 0.895947
O O1 0.007230 0.242179 0.050677
O O2 0.898719 0.101282 0.006925
O O3 0.785334 0.513510 0.922762
O O4 0.865135 0.522412 0.834034
O O5 0.867994 0.350167 0.889804
O O6 0.000000 0.500000 0.909281
O O7 0.106177 0.106177 0.579421
O O8 0.166121 0.000000 0.500000
O O9 0.098943 0.901058 0.580486
O O10 0.609070 0.905647 0.747062
O O11 0.770472 0.020298 0.743102
O O12 0.880188 0.880188 0.788816
O O13 0.995214 0.765849 0.846916
O O14 0.077246 0.922755 0.800154
O O15 0.848731 0.151270 0.896600
#
# Coordination Sequence:
#
# PCOD8311551 Si02
#       6
#     8  16  16  16  16  16
#     4   9  18  34  57  82 116 158 193 234 288 359
#     4  12  23  38  63  90 122 160 203 256 311 375
#     4   9  21  44  69  92 124 167 213 262 314 368
#     4  11  21  41  59  78 114 159 201 241 298 363
#     4  10  21  36  57  87 118 150 198 254 300 355
#     4  10  20  36  57  85 118 158 199 239 299 368
#
# _framework density 20.205499
#
# number of rings (size 3 to 8) (size 9 to 14) (size 15 to 20)
#    0.000    1.727    3.636    1.636    0.000    6.909 
#    0.000    7.273    0.000    0.000    0.000    0.000 
#    0.000    0.000    0.000    0.000    0.000    0.000 
#
# Total GULP energy -545339.788680 kJ/mol
# GULP energy per Si atom -12394.086106 kJ/mol
# Density = 2.015951 g / cm^3
# Si number density = 20.205499 Si / 1000 Ang^3
#
#
#
# Elastic Constant Matrix: (Units=GPa)
#
#
# Indices 1 2 3 4 5 6 
#
# 1 95.3624 22.6881 28.6167 0.0000 0.0000 0.0000
# 2 22.6881 95.3622 28.6170 0.0000 0.0000 0.0000
# 3 28.6167 28.6170 53.9000 0.0000 0.0000 0.0000
# 4 0.0000 0.0000 0.0000 32.2676 0.0000 0.0000
# 5 0.0000 0.0000 0.0000 0.0000 32.2675 0.0000
# 6 0.0000 0.0000 0.0000 0.0000 0.0000 15.7106
#
#
#
# Elastic Compliance Matrix: (Units=1/GPa)
#
#
# Indices 1 2 3 4 5 6 
#
# 1 0.012584 -0.001176 -0.006056 0.000000 0.000000 0.000000
# 2 -0.001176 0.012584 -0.006056 0.000000 0.000000 0.000000
# 3 -0.006056 -0.006056 0.024984 0.000000 0.000000 0.000000
# 4 0.000000 0.000000 0.000000 0.030991 0.000000 0.000000
# 5 0.000000 0.000000 0.000000 0.000000 0.030991 0.000000
# 6 0.000000 0.000000 0.000000 0.000000 0.000000 0.063651
#
#
# Mechanical properties :
#
#
# Convention : Reuss Voigt Hill
#
# Bulk Modulus (GPa) = 42.42182 44.94092 43.68137
# Shear Modulus (GPa) = 23.78457 27.02932 25.40694
#
# Velocity S-wave (km/s) = 3.43466 3.66145 3.54987
# Velocity P-wave (km/s) = 6.06382 6.33760 6.20222
#
# Compressibility (1/GPa) = 0.02357277
#
# Stress axis : x y z
#
# Youngs Moduli (GPa) = 79.46848 79.46804 40.02586
#
# Poissons Ratio (x) = 0.09349 0.24241
# Poissons Ratio (y) = 0.09349 0.24241
# Poissons Ratio (z) = 0.48129 0.48129
#
# Static dielectric constant tensor:
#      x y z
#    x 3.710860 0.000000 0.000000 
#    y 0.000000 3.710860 0.000000 
#    z 0.000000 0.000000 3.766230 
# 
# 
# High freq. dielectric constant tensor:
#      x y z
#    x 1.784220 0.000000 0.000000 
#    y 0.000000 1.784220 0.000000 
#    z 0.000000 0.000000 1.786390 
# 
# From -- ./inp_files/8239.got.cif
#   From: 2010.03.12/outbox.cif.g09.slc.cpg/sg121_5_cif.got.tgz:8239.got - 2010.04.06 16:06:48.
