data_PCOD8311012
_publ_section_title
;
Structure prediction by ZEFSAII (Michael W. Deem and Ramdas Pophale) SiO2 
 PCOD8311012
Probable space group: I -4 M 2
;
_chemical_formula_sum "Si O2"
_cell_formula_units_Z 96
_cell_length_a 21.418167
_cell_length_b 21.418167
_cell_length_c 10.124942
_cell_angle_alpha 90.000000
_cell_angle_beta 90.000000
_cell_angle_gamma 90.000000
_cell_volume 4644.694404
_symmetry_space_group_name_H-M "I -4 M 2"
_symmetry_group_IT_number 119
_symmetry_cell_setting 'tetragonal'
loop_
_space_group_symop_operation_xyz
x,y,z
y,-x,-z
-x,-y,z
-y,x,-z
y,x,-z
-y,-x,-z
-x,y,z
x,-y,z
1/2+x,1/2+y,1/2+z
1/2+y,1/2-x,1/2-z
1/2-x,1/2-y,1/2+z
1/2-y,1/2+x,1/2-z
1/2+y,1/2+x,1/2-z
1/2-y,1/2-x,1/2-z
1/2-x,1/2+y,1/2+z
1/2+x,1/2-y,1/2+z
loop_
_atom_site_type_symbol
_atom_site_label
_atom_site_fract_x
_atom_site_fract_y
_atom_site_fract_z
Si Si1 0.292401 0.569610 0.234385
Si Si2 0.139165 0.680466 0.386552
Si Si3 0.601430 0.427820 0.851452
Si Si4 0.864208 0.569669 0.873354
Si Si5 0.138867 0.237720 0.011290
Si Si6 0.067964 0.235237 0.749970
O O1 0.271473 0.500000 0.199919
O O2 0.250978 0.612422 0.134155
O O3 0.368496 0.572503 0.226031
O O4 0.271526 0.583629 0.383741
O O5 0.142273 0.642273 0.250000
O O6 0.103338 0.631908 0.484581
O O7 0.209092 0.687860 0.444442
O O8 0.583963 0.500000 0.803369
O O9 0.674898 0.415637 0.836963
O O10 0.578143 0.421858 0.000000
O O11 0.892147 0.500000 0.883983
O O12 0.897455 0.602546 0.750000
O O13 0.790378 0.568838 0.853820
O O14 0.172118 0.172118 0.000000
O O15 0.114596 0.253124 0.866163
O O16 0.000000 0.226882 0.815612
#
# Coordination Sequence:
#
# PCOD8311012 Si02
#       6
#    16  16  16  16  16  16
#     4  11  23  40  63  91 128 169 212 262 321 389
#     4  10  23  41  63  97 130 164 212 267 331 389
#     4  11  23  39  60  87 123 168 219 267 314 375
#     4  11  22  40  66  94 127 168 213 262 319 385
#     4  11  21  40  63  94 126 162 208 266 327 382
#     4  10  21  39  64  91 125 165 209 260 317 385
#
# _framework density 20.668742999999999
#
# number of rings (size 3 to 8) (size 9 to 14) (size 15 to 20)
#    0.000    1.333    3.333    2.500    0.000    4.667 
#    3.000    0.833    0.000    0.000    0.000    0.000 
#    0.000    0.000    0.000    0.000    0.000    0.000 
#
# Total GULP energy -594636.480335 kJ/mol
# GULP energy per Si atom -12388.260007 kJ/mol
# Density = 2.062170 g / cm^3
# Si number density = 20.668743 Si / 1000 Ang^3
#
#
#
# Elastic Constant Matrix: (Units=GPa)
#
#
# Indices 1 2 3 4 5 6 
#
# 1 83.0022 57.8548 33.0395 0.0000 0.0000 0.0000
# 2 57.8548 83.0042 33.0395 0.0000 0.0000 0.0000
# 3 33.0395 33.0395 96.5062 0.0000 0.0000 0.0000
# 4 0.0000 0.0000 0.0000 29.5912 0.0000 0.0000
# 5 0.0000 0.0000 0.0000 0.0000 29.5911 0.0000
# 6 0.0000 0.0000 0.0000 0.0000 0.0000 22.8263
#
#
#
# Elastic Compliance Matrix: (Units=1/GPa)
#
#
# Indices 1 2 3 4 5 6 
#
# 1 0.024111 -0.015653 -0.002896 0.000000 0.000000 0.000000
# 2 -0.015653 0.024110 -0.002895 0.000000 0.000000 0.000000
# 3 -0.002896 -0.002895 0.012345 0.000000 0.000000 0.000000
# 4 0.000000 0.000000 0.000000 0.033794 0.000000 0.000000
# 5 0.000000 0.000000 0.000000 0.000000 0.033794 0.000000
# 6 0.000000 0.000000 0.000000 0.000000 0.000000 0.043809
#
#
# Mechanical properties :
#
#
# Convention : Reuss Voigt Hill
#
# Bulk Modulus (GPa) = 56.56792 56.70890 56.63841
# Shear Modulus (GPa) = 22.65065 25.64030 24.14547
#
# Velocity S-wave (km/s) = 3.31401 3.52594 3.42162
# Velocity P-wave (km/s) = 6.48628 6.63875 6.56296
#
# Compressibility (1/GPa) = 0.01767786
#
# Stress axis : x y z
#
# Youngs Moduli (GPa) = 41.47459 41.47577 81.00673
#
# Poissons Ratio (x) = 0.64922 0.23457
# Poissons Ratio (y) = 0.64921 0.23455
# Poissons Ratio (z) = 0.12010 0.12009
#
# Static dielectric constant tensor:
#      x y z
#    x 3.986160 0.000000 0.000000 
#    y 0.000000 3.986180 0.000000 
#    z 0.000000 0.000000 3.858840 
# 
# 
# High freq. dielectric constant tensor:
#      x y z
#    x 1.806280 0.000000 0.000000 
#    y 0.000000 1.806280 0.000000 
#    z 0.000000 0.000000 1.808470 
# 
# From -- ./inp_files/4182.got.cif
#   From: 2010.03.12/outbox.cif.g09.slc.cpg/sg119_3_cif.got.tgz:4182.got - 2010.04.14 02:25:26.
