data_PCOD8311457
_publ_section_title
;
Structure prediction by ZEFSAII (Michael W. Deem and Ramdas Pophale) SiO2 
 PCOD8311457
Probable space group: I -4 2 M
;
_chemical_formula_sum "Si O2"
_cell_formula_units_Z 120
_cell_length_a 26.978937
_cell_length_b 26.978937
_cell_length_c 7.492820
_cell_angle_alpha 90.000000
_cell_angle_beta 90.000000
_cell_angle_gamma 90.000000
_cell_volume 5453.746756
_symmetry_space_group_name_H-M "I -4 2 M"
_symmetry_group_IT_number 121
_symmetry_cell_setting 'tetragonal'
loop_
_space_group_symop_operation_xyz
x,y,z
y,-x,-z
-x,-y,z
-y,x,-z
x,-y,-z
-x,y,-z
-y,-x,z
y,x,z
1/2+x,1/2+y,1/2+z
1/2+y,1/2-x,1/2-z
1/2-x,1/2-y,1/2+z
1/2-y,1/2+x,1/2-z
1/2+x,1/2-y,1/2-z
1/2-x,1/2+y,1/2-z
1/2-y,1/2-x,1/2+z
1/2+y,1/2+x,1/2+z
loop_
_atom_site_type_symbol
_atom_site_label
_atom_site_fract_x
_atom_site_fract_y
_atom_site_fract_z
Si Si1 0.126000 0.276760 0.258252
Si Si2 0.201415 0.000000 0.000000
Si Si3 0.245729 0.461673 0.152511
Si Si4 0.868217 0.565042 0.671949
Si Si5 0.179720 0.102056 0.091005
Si Si6 0.281423 0.201250 0.951347
Si Si7 0.954547 0.637474 0.766580
Si Si8 0.858242 0.217647 0.285168
O O1 0.100380 0.223357 0.239251
O O2 0.155488 0.289528 0.079826
O O3 0.086440 0.321299 0.285218
O O4 0.165020 0.272334 0.422914
O O5 0.237696 0.017854 0.843348
O O6 0.165182 0.044705 0.057879
O O7 0.187429 0.451700 0.153001
O O8 0.269793 0.407999 0.104110
O O9 0.261689 0.500000 0.000000
O O10 0.917454 0.598021 0.679938
O O11 0.882735 0.510849 0.746256
O O12 0.850826 0.561590 0.468030
O O13 0.131854 0.131854 0.163110
O O14 0.199724 0.127053 0.912790
O O15 0.240470 0.240470 0.022191
O O16 0.264472 0.178664 0.755991
O O17 0.826942 0.173059 0.379092
#
# Coordination Sequence:
#
# PCOD8311457 Si02
#       8
#    16   8  16  16  16  16  16  16
#     4  11  19  33  55  80 113 149 191 234 298 363
#     4  10  20  40  60  85 126 159 200 254 300 368
#     4  11  22  38  63  91 120 160 204 254 309 376
#     4  11  24  42  64  86 113 152 196 264 319 382
#     4   9  17  32  57  82 112 158 198 238 297 362
#     4  10  19  32  51  79 117 154 187 232 292 368
#     4  11  25  43  62  87 114 147 205 256 324 378
#     4   8  16  33  54  78 114 156 194 235 295 365
#
# _framework density 22.003221
#
# number of rings (size 3 to 8) (size 9 to 14) (size 15 to 20)
#    0.000    1.867    0.000    7.600    1.867    0.267 
#    7.200    2.000    0.000    0.200    0.000    0.000 
#    0.000    1.333    0.000    0.133    0.000    0.000 
#
# Total GULP energy -744011.290695 kJ/mol
# GULP energy per Si atom -12400.188178 kJ/mol
# Density = 2.195314 g / cm^3
# Si number density = 22.003221 Si / 1000 Ang^3
#
#
#
# Elastic Constant Matrix: (Units=GPa)
#
#
# Indices 1 2 3 4 5 6 
#
# 1 129.2680 70.7781 11.5869 0.0000 0.0000 0.0000
# 2 70.7781 129.2673 11.5865 0.0000 0.0000 0.0000
# 3 11.5869 11.5865 29.9954 0.0000 0.0000 0.0000
# 4 0.0000 0.0000 0.0000 27.0824 0.0000 0.0000
# 5 0.0000 0.0000 0.0000 0.0000 27.0822 0.0000
# 6 0.0000 0.0000 0.0000 0.0000 0.0000 32.6857
#
#
#
# Elastic Compliance Matrix: (Units=1/GPa)
#
#
# Indices 1 2 3 4 5 6 
#
# 1 0.011165 -0.005932 -0.002022 0.000000 0.000000 0.000000
# 2 -0.005932 0.011165 -0.002021 0.000000 0.000000 0.000000
# 3 -0.002022 -0.002021 0.034900 0.000000 0.000000 0.000000
# 4 0.000000 0.000000 0.000000 0.036924 0.000000 0.000000
# 5 0.000000 0.000000 0.000000 0.000000 0.036925 0.000000
# 6 0.000000 0.000000 0.000000 0.000000 0.000000 0.030594
#
#
# Mechanical properties :
#
#
# Convention : Reuss Voigt Hill
#
# Bulk Modulus (GPa) = 26.82371 52.93709 39.88040
# Shear Modulus (GPa) = 25.76653 30.34201 28.05427
#
# Velocity S-wave (km/s) = 3.42575 3.71749 3.57460
# Velocity P-wave (km/s) = 5.27873 6.52207 5.93306
#
# Compressibility (1/GPa) = 0.03728046
#
# Stress axis : x y z
#
# Youngs Moduli (GPa) = 89.56536 89.56505 28.65320
#
# Poissons Ratio (x) = 0.53130 0.05792
# Poissons Ratio (y) = 0.53130 0.05792
# Poissons Ratio (z) = 0.18106 0.18104
#
# Static dielectric constant tensor:
#      x y z
#    x 4.088750 0.000000 0.000000 
#    y 0.000000 4.088750 0.000000 
#    z 0.000000 0.000000 3.928480 
# 
# 
# High freq. dielectric constant tensor:
#      x y z
#    x 1.853320 0.000000 0.000000 
#    y 0.000000 1.853320 0.000000 
#    z 0.000000 0.000000 1.874520 
# 
# From -- ./inp_files/2160.got.cif
#   From: 2010.03.12/outbox.cif.g09.slc.cpg/sg121_2_cif.got.tgz:2160.got - 2010.04.06 16:06:48.
