data_PCOD8311693
_publ_section_title
;
Structure prediction by ZEFSAII (Michael W. Deem and Ramdas Pophale) SiO2 
 PCOD8311693
Probable space group: I -4 2 M
;
_chemical_formula_sum "Si O2"
_cell_formula_units_Z 40
_cell_length_a 10.457716
_cell_length_b 10.457716
_cell_length_c 17.034378
_cell_angle_alpha 90.000000
_cell_angle_beta 90.000000
_cell_angle_gamma 90.000000
_cell_volume 1862.944716
_symmetry_space_group_name_H-M "I -4 2 M"
_symmetry_group_IT_number 121
_symmetry_cell_setting 'tetragonal'
loop_
_space_group_symop_operation_xyz
x,y,z
y,-x,-z
-x,-y,z
-y,x,-z
x,-y,-z
-x,y,-z
-y,-x,z
y,x,z
1/2+x,1/2+y,1/2+z
1/2+y,1/2-x,1/2-z
1/2-x,1/2-y,1/2+z
1/2-y,1/2+x,1/2-z
1/2+x,1/2-y,1/2-z
1/2-x,1/2+y,1/2-z
1/2-y,1/2-x,1/2+z
1/2+y,1/2+x,1/2+z
loop_
_atom_site_type_symbol
_atom_site_label
_atom_site_fract_x
_atom_site_fract_y
_atom_site_fract_z
Si Si1 0.501620 0.702804 0.776381
Si Si2 0.879170 0.416662 0.635707
Si Si3 0.198983 0.000000 0.000000
O O1 0.373213 0.626788 0.803010
O O2 0.602485 0.602485 0.739896
O O3 0.467074 0.810549 0.713760
O O4 0.568425 0.772604 0.850735
O O5 0.781229 0.424856 0.564300
O O6 0.000000 0.500000 0.613201
O O7 0.108429 0.108429 0.039903
#
# Coordination Sequence:
#
# PCOD8311693 Si02
#       3
#    16  16   8
#     4  11  22  38  65  97 130 171 218 272 327 386
#     4  12  23  41  64  96 134 171 219 269 326 387
#     4  11  25  44  68  98 135 177 218 270 332 397
#
# _framework density 21.471381999999998
#
# number of rings (size 3 to 8) (size 9 to 14) (size 15 to 20)
#    0.000    0.600    4.000    5.400    0.000    4.800 
#    0.000    0.000    0.000    0.000    0.000    5.600 
#    0.000    0.000    0.000    0.000    0.000    0.000 
#
# Total GULP energy -247920.152338 kJ/mol
# GULP energy per Si atom -12396.007617 kJ/mol
# Density = 2.142251 g / cm^3
# Si number density = 21.471382 Si / 1000 Ang^3
#
#
#
# Elastic Constant Matrix: (Units=GPa)
#
#
# Indices 1 2 3 4 5 6 
#
# 1 123.6998 55.0942 38.5823 0.0000 0.0000 0.0000
# 2 55.0942 123.6978 38.5822 0.0000 0.0000 0.0000
# 3 38.5823 38.5822 81.3972 0.0000 0.0000 0.0000
# 4 0.0000 0.0000 0.0000 25.7870 0.0000 0.0000
# 5 0.0000 0.0000 0.0000 0.0000 25.7859 0.0000
# 6 0.0000 0.0000 0.0000 0.0000 0.0000 58.4734
#
#
#
# Elastic Compliance Matrix: (Units=1/GPa)
#
#
# Indices 1 2 3 4 5 6 
#
# 1 0.010804 -0.003772 -0.003333 0.000000 0.000000 0.000000
# 2 -0.003772 0.010804 -0.003333 0.000000 0.000000 0.000000
# 3 -0.003333 -0.003333 0.015445 0.000000 0.000000 0.000000
# 4 0.000000 0.000000 0.000000 0.038779 0.000000 0.000000
# 5 0.000000 0.000000 0.000000 0.000000 0.038781 0.000000
# 6 0.000000 0.000000 0.000000 0.000000 0.000000 0.017102
#
#
# Mechanical properties :
#
#
# Convention : Reuss Voigt Hill
#
# Bulk Modulus (GPa) = 61.81869 65.92357 63.87113
# Shear Modulus (GPa) = 31.64890 35.11167 33.38028
#
# Velocity S-wave (km/s) = 3.84344 4.04824 3.94717
# Velocity P-wave (km/s) = 6.96777 7.25401 7.11233
#
# Compressibility (1/GPa) = 0.01617634
#
# Stress axis : x y z
#
# Youngs Moduli (GPa) = 92.56011 92.55832 64.74565
#
# Poissons Ratio (x) = 0.34917 0.21579
# Poissons Ratio (y) = 0.34917 0.21580
# Poissons Ratio (z) = 0.30849 0.30850
#
# Static dielectric constant tensor:
#      x y z
#    x 4.253550 0.000000 0.000000 
#    y 0.000000 4.253550 0.000000 
#    z 0.000000 0.000000 3.516460 
# 
# 
# High freq. dielectric constant tensor:
#      x y z
#    x 1.867720 0.000000 0.000000 
#    y 0.000000 1.867720 0.000000 
#    z 0.000000 0.000000 1.791540 
# 
# From -- ./inp_files/4784.got.cif
#   From: 2010.03.12/outbox.cif.g09.slc.cpg/sg121_3_cif.got.tgz:4784.got - 2010.04.06 16:06:48.
