data_PCOD8312667
_publ_section_title
;
Structure prediction by ZEFSAII (Michael W. Deem and Ramdas Pophale) SiO2 
 PCOD8312667
Probable space group: P 4/M M M
;
_chemical_formula_sum "Si O2"
_cell_formula_units_Z 120
_cell_length_a 28.174320
_cell_length_b 28.174320
_cell_length_c 8.238614
_cell_angle_alpha 90.000000
_cell_angle_beta 90.000000
_cell_angle_gamma 90.000000
_cell_volume 6539.748417
_symmetry_space_group_name_H-M "P 4/M M M"
_symmetry_group_IT_number 123
_symmetry_cell_setting 'tetragonal'
loop_
_space_group_symop_operation_xyz
x,y,z
-y,x,z
-x,-y,z
y,-x,z
x,-y,-z
-x,y,-z
y,x,-z
-y,-x,-z
-x,-y,-z
y,-x,-z
x,y,-z
-y,x,-z
-x,y,z
x,-y,z
-y,-x,z
y,x,z
loop_
_atom_site_type_symbol
_atom_site_label
_atom_site_fract_x
_atom_site_fract_y
_atom_site_fract_z
Si Si1 0.553101 0.874059 0.191373
Si Si2 0.444746 0.369808 0.000000
Si Si3 0.607424 0.786391 0.683802
Si Si4 0.711703 0.213041 0.814291
Si Si5 0.141923 0.216040 0.313411
Si Si6 0.369538 0.946575 0.807301
Si Si7 0.688143 0.445161 0.681406
Si Si8 0.736055 0.947547 0.190728
O O1 0.500000 0.882114 0.263545
O O2 0.570388 0.821509 0.232665
O O3 0.590551 0.911706 0.267931
O O4 0.551037 0.880310 0.000000
O O5 0.428767 0.344089 0.167175
O O6 0.500000 0.379076 0.000000
O O7 0.420843 0.420843 0.000000
O O8 0.616754 0.802438 0.500000
O O9 0.656455 0.785195 0.779487
O O10 0.585710 0.734767 0.693451
O O11 0.735733 0.264268 0.777305
O O12 0.736362 0.172665 0.707043
O O13 0.719583 0.198135 0.000000
O O14 0.133726 0.205773 0.500000
O O15 0.171035 0.171035 0.236349
O O16 0.090102 0.223313 0.236533
O O17 0.316565 0.932707 0.743642
O O18 0.381903 0.000000 0.752204
O O19 0.370459 0.942308 0.000000
O O20 0.664874 0.437336 0.500000
O O21 0.701896 0.500000 0.703254
O O22 0.749545 0.000000 0.259441
O O23 0.732672 0.950812 0.000000
#
# Coordination Sequence:
#
# PCOD8312667 Si02
#       8
#    16   8  16  16  16  16  16  16
#     4  10  20  31  48  74  98 127 171 217 259 310
#     4  10  22  39  62  88 112 140 169 203 247 299
#     4  11  22  35  52  73 100 133 167 209 257 305
#     4  10  21  35  51  72  99 131 166 205 250 303
#     4  10  20  33  49  71 102 139 175 211 255 305
#     4   8  15  29  47  68  96 128 165 214 267 311
#     4   9  20  38  57  79 108 141 174 209 254 307
#     4   9  17  30  50  74  99 132 175 218 258 306
#
# _framework density 18.349330999999999
#
# number of rings (size 3 to 8) (size 9 to 14) (size 15 to 20)
#    0.000    2.400    0.000    3.200    1.867    4.867 
#    0.000    2.667    0.000    1.200    0.000    2.800 
#    0.000    0.267    0.000    2.933    0.000    2.133 
#
# Total GULP energy -1487300.981934 kJ/mol
# GULP energy per Si atom -12394.174849 kJ/mol
# Density = 1.830757 g / cm^3
# Si number density = 18.349331 Si / 1000 Ang^3
#
#
#
# Elastic Constant Matrix: (Units=GPa)
#
#
# Indices 1 2 3 4 5 6 
#
# 1 95.6058 72.7217 27.1108 0.0000 0.0000 0.0000
# 2 72.7217 95.6058 27.1108 0.0000 0.0000 0.0000
# 3 27.1108 27.1108 51.9513 0.0000 0.0000 0.0000
# 4 0.0000 0.0000 0.0000 12.3608 0.0000 0.0000
# 5 0.0000 0.0000 0.0000 0.0000 12.3608 0.0000
# 6 0.0000 0.0000 0.0000 0.0000 0.0000 22.3043
#
#
#
# Elastic Compliance Matrix: (Units=1/GPa)
#
#
# Indices 1 2 3 4 5 6 
#
# 1 0.025420 -0.018279 -0.003727 0.000000 0.000000 0.000000
# 2 -0.018279 0.025420 -0.003727 0.000000 0.000000 0.000000
# 3 -0.003727 -0.003727 0.023138 0.000000 0.000000 0.000000
# 4 0.000000 0.000000 0.000000 0.080901 0.000000 0.000000
# 5 0.000000 0.000000 0.000000 0.000000 0.080901 0.000000
# 6 0.000000 0.000000 0.000000 0.000000 0.000000 0.044834
#
#
# Mechanical properties :
#
#
# Convention : Reuss Voigt Hill
#
# Bulk Modulus (GPa) = 44.41654 55.22774 49.82214
# Shear Modulus (GPa) = 14.72396 17.15315 15.93855
#
# Velocity S-wave (km/s) = 2.83578 3.06078 2.95043
# Velocity P-wave (km/s) = 5.91446 6.53104 6.23038
#
# Compressibility (1/GPa) = 0.02251413
#
# Stress axis : x y z
#
# Youngs Moduli (GPa) = 39.33925 39.33925 43.21839
#
# Poissons Ratio (x) = 0.71907 0.16106
# Poissons Ratio (y) = 0.71907 0.16106
# Poissons Ratio (z) = 0.14660 0.14660
#
# Static dielectric constant tensor:
#      x y z
#    x 3.510310 0.000000 0.000000 
#    y 0.000000 3.510310 0.000000 
#    z 0.000000 0.000000 3.437610 
# 
# 
# High freq. dielectric constant tensor:
#      x y z
#    x 1.700570 0.000000 0.000000 
#    y 0.000000 1.700570 0.000000 
#    z 0.000000 0.000000 1.704050 
# 
# From -- ./inp_files/2066.got.cif
#   From: 2010.03.12/outbox.cif.g09.slc.cpg/sg123_2_cif.got.tgz:2066.got - 2010.04.06 16:26:55.
