data_PCOD8312505
_publ_section_title
;
Structure prediction by ZEFSAII (Michael W. Deem and Ramdas Pophale) SiO2 
 PCOD8312505
Probable space group: P 4/M M M
;
_chemical_formula_sum "Si O2"
_cell_formula_units_Z 96
_cell_length_a 24.327917
_cell_length_b 24.327917
_cell_length_c 9.273947
_cell_angle_alpha 90.000000
_cell_angle_beta 90.000000
_cell_angle_gamma 90.000000
_cell_volume 5488.762770
_symmetry_space_group_name_H-M "P 4/M M M"
_symmetry_group_IT_number 123
_symmetry_cell_setting 'tetragonal'
loop_
_space_group_symop_operation_xyz
x,y,z
-y,x,z
-x,-y,z
y,-x,z
x,-y,-z
-x,y,-z
y,x,-z
-y,-x,-z
-x,-y,-z
y,-x,-z
x,y,-z
-y,x,-z
-x,y,z
x,-y,z
-y,-x,z
y,x,z
loop_
_atom_site_type_symbol
_atom_site_label
_atom_site_fract_x
_atom_site_fract_y
_atom_site_fract_z
Si Si1 0.726754 0.638748 0.330975
Si Si2 0.561829 0.649679 0.166792
Si Si3 0.436457 0.063170 0.169100
Si Si4 0.355454 0.146902 0.329167
Si Si5 0.232604 0.146514 0.328392
Si Si6 0.060199 0.854275 0.671448
O O1 0.720779 0.631205 0.500000
O O2 0.695946 0.695946 0.284582
O O3 0.699574 0.586893 0.255387
O O4 0.790019 0.635393 0.284321
O O5 0.500000 0.640327 0.218371
O O6 0.593358 0.593358 0.200250
O O7 0.565608 0.665798 0.000000
O O8 0.500000 0.075250 0.209224
O O9 0.397932 0.105659 0.254029
O O10 0.421887 0.000000 0.211336
O O11 0.426992 0.072033 0.000000
O O12 0.360877 0.138077 0.500000
O O13 0.293832 0.135954 0.270775
O O14 0.234091 0.148697 0.500000
O O15 0.203788 0.203788 0.275214
O O16 0.196957 0.095433 0.270928
O O17 0.056796 0.851199 0.500000
O O18 0.088969 0.911032 0.718992
O O19 0.000000 0.851942 0.742013
#
# Coordination Sequence:
#
# PCOD8312505 Si02
#       6
#    16  16  16  16  16  16
#     4   9  18  32  48  68  98 131 157 186 230 282
#     4   9  18  32  49  69  93 122 157 196 235 273
#     4   9  20  39  56  68  90 125 157 186 230 288
#     4  10  19  30  50  77  96 116 153 196 232 270
#     4   8  14  25  40  60  90 123 150 182 228 276
#     4   8  13  20  30  47  75 112 150 185 220 258
#
# _framework density 17.490282000000001
#
# number of rings (size 3 to 8) (size 9 to 14) (size 15 to 20)
#    0.000    3.167    0.000    2.000    0.000    5.333 
#    0.000    7.500    0.000    1.500    0.000    2.333 
#    0.000    0.000    0.000    0.000    0.000    0.000 
#
# Total GULP energy -1189610.032250 kJ/mol
# GULP energy per Si atom -12391.771169 kJ/mol
# Density = 1.745047 g / cm^3
# Si number density = 17.490282 Si / 1000 Ang^3
#
#
#
# Elastic Constant Matrix: (Units=GPa)
#
#
# Indices 1 2 3 4 5 6 
#
# 1 143.0955 106.4146 35.1109 0.0000 0.0000 0.0000
# 2 106.4146 143.0955 35.1109 0.0000 0.0000 0.0000
# 3 35.1109 35.1109 18.9110 0.0000 0.0000 0.0000
# 4 0.0000 0.0000 0.0000 20.4180 0.0000 0.0000
# 5 0.0000 0.0000 0.0000 0.0000 20.4180 0.0000
# 6 0.0000 0.0000 0.0000 0.0000 0.0000 25.4652
#
#
#
# Elastic Compliance Matrix: (Units=1/GPa)
#
#
# Indices 1 2 3 4 5 6 
#
# 1 0.017828 -0.009434 -0.015584 0.000000 0.000000 0.000000
# 2 -0.009434 0.017828 -0.015584 0.000000 0.000000 0.000000
# 3 -0.015584 -0.015584 0.110748 0.000000 0.000000 0.000000
# 4 0.000000 0.000000 0.000000 0.048976 0.000000 0.000000
# 5 0.000000 0.000000 0.000000 0.000000 0.048976 0.000000
# 6 0.000000 0.000000 0.000000 0.000000 0.000000 0.039269
#
#
# Mechanical properties :
#
#
# Convention : Reuss Voigt Hill
#
# Bulk Modulus (GPa) = 15.33780 73.15274 44.24527
# Shear Modulus (GPa) = 12.93444 21.82462 17.37953
#
# Velocity S-wave (km/s) = 2.72236 3.53627 3.15567
# Velocity P-wave (km/s) = 4.32089 7.65436 6.21528
#
# Compressibility (1/GPa) = 0.06519839
#
# Stress axis : x y z
#
# Youngs Moduli (GPa) = 56.09146 56.09146 9.02950
#
# Poissons Ratio (x) = 0.52917 0.14072
# Poissons Ratio (y) = 0.52917 0.14072
# Poissons Ratio (z) = 0.87415 0.87415
#
# Static dielectric constant tensor:
#      x y z
#    x 3.492270 0.000000 0.000000 
#    y 0.000000 3.492270 0.000000 
#    z 0.000000 0.000000 2.820440 
# 
# 
# High freq. dielectric constant tensor:
#      x y z
#    x 1.683700 0.000000 0.000000 
#    y 0.000000 1.683700 0.000000 
#    z 0.000000 0.000000 1.629210 
# 
# From -- ./inp_files/1656.got.cif
#   From: 2010.03.12/outbox.cif.g09.slc.cpg/sg123_1_cif.got.tgz:1656.got - 2010.04.06 16:26:55.
