data_PCOD8312088
_publ_section_title
;
Structure prediction by ZEFSAII (Michael W. Deem and Ramdas Pophale) SiO2 
 PCOD8312088
Probable space group: I -4 2 D
;
_chemical_formula_sum "Si O2"
_cell_formula_units_Z 72
_cell_length_a 18.848794
_cell_length_b 18.848794
_cell_length_c 9.455570
_cell_angle_alpha 90.000000
_cell_angle_beta 90.000000
_cell_angle_gamma 90.000000
_cell_volume 3359.346876
_symmetry_space_group_name_H-M "I -4 2 D"
_symmetry_group_IT_number 122
_symmetry_cell_setting 'tetragonal'
loop_
_space_group_symop_operation_xyz
x,y,z
y,-x,-z
-x,-y,z
-y,x,-z
x,1/2-y,1/4-z
-x,1/2+y,1/4-z
-y,1/2-x,1/4+z
y,1/2+x,1/4+z
1/2+x,1/2+y,1/2+z
1/2+y,1/2-x,1/2-z
1/2-x,1/2-y,1/2+z
1/2-y,1/2+x,1/2-z
1/2+x,-y,3/4-z
1/2-x,y,3/4-z
1/2-y,-x,3/4+z
1/2+y,x,3/4+z
loop_
_atom_site_type_symbol
_atom_site_label
_atom_site_fract_x
_atom_site_fract_y
_atom_site_fract_z
Si Si1 0.892729 0.390151 0.753482
Si Si2 0.476144 0.250000 0.625000
Si Si3 0.250000 0.933300 0.375000
Si Si4 0.000000 0.000000 0.500000
Si Si5 0.000000 0.000000 0.000000
Si Si6 0.607756 0.405604 0.324697
Si Si7 0.757026 0.548326 0.089547
O O1 0.814760 0.385548 0.820321
O O2 0.890762 0.420213 0.593248
O O3 0.921306 0.310483 0.755189
O O4 0.944209 0.447626 0.834513
O O5 0.427957 0.318992 0.600400
O O6 0.527517 0.266950 0.754740
O O7 0.217956 0.979444 0.247037
O O8 0.946726 0.956739 0.100881
O O9 0.603205 0.321353 0.350030
#
# Coordination Sequence:
#
# PCOD8312088 Si02
#       7
#    16   8   8   4   4  16  16
#     4  12  24  42  74 107 145 197 256 308 373 454
#     4  12  26  45  70 109 152 194 246 320 378 445
#     4  12  24  43  72 105 148 196 254 310 370 449
#     4  12  18  40  72 102 132 186 252 308 354 422
#     4  12  26  44  84 114 144 206 262 316 392 442
#     4  12  24  45  71 107 149 198 249 312 380 450
#     4  12  25  46  70 107 151 194 250 316 376 445
#
# _framework density 21.432736999999999
#
# number of rings (size 3 to 8) (size 9 to 14) (size 15 to 20)
#    0.000    0.000    8.889    0.667    0.000    4.444 
#    0.000    0.000    0.000    0.000    0.000    0.000 
#    0.000    0.000    0.000    0.000    0.000    0.000 
#
# Total GULP energy -446330.840573 kJ/mol
# GULP energy per Si atom -12398.078905 kJ/mol
# Density = 2.138396 g / cm^3
# Si number density = 21.432737 Si / 1000 Ang^3
#
#
#
# Elastic Constant Matrix: (Units=GPa)
#
#
# Indices 1 2 3 4 5 6 
#
# 1 128.8113 40.6658 21.2000 0.0000 0.0000 0.0000
# 2 40.6658 128.8113 21.2000 0.0000 0.0000 0.0000
# 3 21.2000 21.2000 105.1596 0.0000 0.0000 0.0000
# 4 0.0000 0.0000 0.0000 30.4852 0.0000 0.0000
# 5 0.0000 0.0000 0.0000 0.0000 30.4852 0.0000
# 6 0.0000 0.0000 0.0000 0.0000 0.0000 32.0510
#
#
#
# Elastic Compliance Matrix: (Units=1/GPa)
#
#
# Indices 1 2 3 4 5 6 
#
# 1 0.008779 -0.002565 -0.001253 0.000000 0.000000 0.000000
# 2 -0.002565 0.008779 -0.001253 0.000000 0.000000 0.000000
# 3 -0.001253 -0.001253 0.010014 0.000000 0.000000 0.000000
# 4 0.000000 0.000000 0.000000 0.032803 0.000000 0.000000
# 5 0.000000 0.000000 0.000000 0.000000 0.032803 0.000000
# 6 0.000000 0.000000 0.000000 0.000000 0.000000 0.031200
#
#
# Mechanical properties :
#
#
# Convention : Reuss Voigt Hill
#
# Bulk Modulus (GPa) = 57.36771 58.76820 58.06796
# Shear Modulus (GPa) = 35.62993 37.25204 36.44099
#
# Velocity S-wave (km/s) = 4.08169 4.17356 4.12788
# Velocity P-wave (km/s) = 7.00272 7.12069 7.06195
#
# Compressibility (1/GPa) = 0.01743141
#
# Stress axis : x y z
#
# Youngs Moduli (GPa) = 113.90313 113.90313 99.85579
#
# Poissons Ratio (x) = 0.29222 0.12509
# Poissons Ratio (y) = 0.29222 0.12509
# Poissons Ratio (z) = 0.14269 0.14269
#
# Static dielectric constant tensor:
#      x y z
#    x 3.834700 0.000000 0.000000 
#    y 0.000000 3.834700 0.000000 
#    z 0.000000 0.000000 3.884290 
# 
# 
# High freq. dielectric constant tensor:
#      x y z
#    x 1.844710 0.000000 0.000000 
#    y 0.000000 1.844710 0.000000 
#    z 0.000000 0.000000 1.837030 
# 
# From -- ./inp_files/2718.got.cif
#   From: 2010.03.12/outbox.cif.g09.slc.cpg/sg122_2_cif.got.tgz:2718.got - 2010.04.06 16:17:16.
