data_PCOD8312041
_publ_section_title
;
Structure prediction by ZEFSAII (Michael W. Deem and Ramdas Pophale) SiO2 
 PCOD8312041
Probable space group: I -4 2 D
;
_chemical_formula_sum "Si O2"
_cell_formula_units_Z 84
_cell_length_a 14.086035
_cell_length_b 14.086035
_cell_length_c 19.591565
_cell_angle_alpha 90.000000
_cell_angle_beta 90.000000
_cell_angle_gamma 90.000000
_cell_volume 3887.287445
_symmetry_space_group_name_H-M "I -4 2 D"
_symmetry_group_IT_number 122
_symmetry_cell_setting 'tetragonal'
loop_
_space_group_symop_operation_xyz
x,y,z
y,-x,-z
-x,-y,z
-y,x,-z
x,1/2-y,1/4-z
-x,1/2+y,1/4-z
-y,1/2-x,1/4+z
y,1/2+x,1/4+z
1/2+x,1/2+y,1/2+z
1/2+y,1/2-x,1/2-z
1/2-x,1/2-y,1/2+z
1/2-y,1/2+x,1/2-z
1/2+x,-y,3/4-z
1/2-x,y,3/4-z
1/2-y,-x,3/4+z
1/2+y,x,3/4+z
loop_
_atom_site_type_symbol
_atom_site_label
_atom_site_fract_x
_atom_site_fract_y
_atom_site_fract_z
Si Si1 0.795300 0.138271 0.471511
Si Si2 0.500000 0.000000 0.750000
Si Si3 0.137208 0.931596 0.884357
Si Si4 0.755087 0.933888 0.297722
Si Si5 0.599445 0.035318 0.013989
Si Si6 0.884340 0.214275 0.339864
O O1 0.855986 0.174454 0.535265
O O2 0.861616 0.145671 0.404030
O O3 0.702401 0.204160 0.463407
O O4 0.764659 0.031928 0.492229
O O5 0.592936 0.018064 0.798001
O O6 0.250000 0.940793 0.875000
O O7 0.097093 0.983505 0.817216
O O8 0.105848 0.821758 0.884912
O O9 0.750000 0.965469 0.375000
O O10 0.853635 0.886355 0.276748
O O11 0.500000 0.000000 0.045352
O O12 0.684058 0.980921 0.052404
#
# Coordination Sequence:
#
# PCOD8312041 Si02
#       6
#    16   4  16  16  16  16
#     4  11  23  44  65  96 143 181 231 290 341 423
#     4  12  28  44  72 112 140 184 254 292 348 456
#     4  12  24  46  70 101 140 183 231 294 364 415
#     4  12  25  42  67 105 138 184 236 282 351 422
#     4  12  23  42  71  96 132 179 229 287 345 419
#     4  11  22  46  70  92 140 189 222 292 367 406
#
# _framework density 21.608899999999998
#
# number of rings (size 3 to 8) (size 9 to 14) (size 15 to 20)
#    0.000    0.381    8.571    1.143    2.667    0.381 
#    0.000    2.857    0.000    0.000    0.000    0.000 
#    0.000    0.000    0.000    0.000    0.000    0.000 
#
# Total GULP energy -520831.636521 kJ/mol
# GULP energy per Si atom -12400.753251 kJ/mol
# Density = 2.155972 g / cm^3
# Si number density = 21.608900 Si / 1000 Ang^3
#
#
#
# Elastic Constant Matrix: (Units=GPa)
#
#
# Indices 1 2 3 4 5 6 
#
# 1 108.3012 56.1505 39.4785 0.0000 0.0000 0.0000
# 2 56.1505 108.3012 39.4785 0.0000 0.0000 0.0000
# 3 39.4785 39.4785 72.1824 0.0000 0.0000 0.0000
# 4 0.0000 0.0000 0.0000 31.6306 0.0000 0.0000
# 5 0.0000 0.0000 0.0000 0.0000 31.6306 0.0000
# 6 0.0000 0.0000 0.0000 0.0000 0.0000 40.3452
#
#
#
# Elastic Compliance Matrix: (Units=1/GPa)
#
#
# Indices 1 2 3 4 5 6 
#
# 1 0.013711 -0.005465 -0.004510 0.000000 0.000000 0.000000
# 2 -0.005465 0.013711 -0.004510 0.000000 0.000000 0.000000
# 3 -0.004510 -0.004510 0.018787 0.000000 0.000000 0.000000
# 4 0.000000 0.000000 0.000000 0.031615 0.000000 0.000000
# 5 0.000000 0.000000 0.000000 0.000000 0.031615 0.000000
# 6 0.000000 0.000000 0.000000 0.000000 0.000000 0.024786
#
#
# Mechanical properties :
#
#
# Convention : Reuss Voigt Hill
#
# Bulk Modulus (GPa) = 58.00708 62.11108 60.05908
# Shear Modulus (GPa) = 29.59624 30.96641 30.28133
#
# Velocity S-wave (km/s) = 3.70487 3.78966 3.74750
# Velocity P-wave (km/s) = 6.72337 6.92491 6.82488
#
# Compressibility (1/GPa) = 0.01723928
#
# Stress axis : x y z
#
# Youngs Moduli (GPa) = 72.93568 72.93568 53.22790
#
# Poissons Ratio (x) = 0.39856 0.24006
# Poissons Ratio (y) = 0.39856 0.24006
# Poissons Ratio (z) = 0.32894 0.32894
#
# Static dielectric constant tensor:
#      x y z
#    x 3.897350 0.000000 0.000000 
#    y 0.000000 3.897350 0.000000 
#    z 0.000000 0.000000 3.958600 
# 
# 
# High freq. dielectric constant tensor:
#      x y z
#    x 1.849920 0.000000 0.000000 
#    y 0.000000 1.849920 0.000000 
#    z 0.000000 0.000000 1.842220 
# 
# From -- ./inp_files/7154.got.cif
#   From: 2010.03.12/outbox.cif.g09.slc.cpg/sg122_4_cif.got.tgz:7154.got - 2010.04.06 16:17:16.
