data_PCOD8312369
_publ_section_title
;
Structure prediction by ZEFSAII (Michael W. Deem and Ramdas Pophale) SiO2 
 PCOD8312369
Probable space group: P 4/M M M
;
_chemical_formula_sum "Si O2"
_cell_formula_units_Z 112
_cell_length_a 15.551721
_cell_length_b 15.551721
_cell_length_c 27.303165
_cell_angle_alpha 90.000000
_cell_angle_beta 90.000000
_cell_angle_gamma 90.000000
_cell_volume 6603.434986
_symmetry_space_group_name_H-M "P 4/M M M"
_symmetry_group_IT_number 123
_symmetry_cell_setting 'tetragonal'
loop_
_space_group_symop_operation_xyz
x,y,z
-y,x,z
-x,-y,z
y,-x,z
x,-y,-z
-x,y,-z
y,x,-z
-y,-x,-z
-x,-y,-z
y,-x,-z
x,y,-z
-y,x,-z
-x,y,z
x,-y,z
-y,-x,z
y,x,z
loop_
_atom_site_type_symbol
_atom_site_label
_atom_site_fract_x
_atom_site_fract_y
_atom_site_fract_z
Si Si1 0.592982 0.265461 0.307447
Si Si2 0.097395 0.763028 0.444727
Si Si3 0.652312 0.785616 0.795114
Si Si4 0.901680 0.761938 0.942626
Si Si5 0.404571 0.901882 0.120089
Si Si6 0.096000 0.345915 0.353234
Si Si7 0.225639 0.906070 0.264108
O O1 0.500000 0.307742 0.319359
O O2 0.670638 0.329363 0.323421
O O3 0.593905 0.248239 0.249343
O O4 0.594100 0.174557 0.336384
O O5 0.115278 0.730460 0.500000
O O6 0.158047 0.841954 0.430523
O O7 0.114317 0.682827 0.408859
O O8 0.000000 0.796353 0.438891
O O9 0.704908 0.704908 0.818249
O O10 0.596176 0.834336 0.835363
O O11 0.719498 0.852492 0.773761
O O12 0.837335 0.837335 0.923822
O O13 0.877983 0.670877 0.917836
O O14 0.000000 0.789427 0.930394
O O15 0.889844 0.747503 0.000000
O O16 0.500000 0.893091 0.095767
O O17 0.392055 0.000000 0.139018
O O18 0.096741 0.262773 0.318710
O O19 0.000000 0.389947 0.349408
O O20 0.129673 0.870328 0.267437
O O21 0.221436 0.000000 0.241581
#
# Coordination Sequence:
#
# PCOD8312369 Si02
#       7
#    16  16  16  16  16  16  16
#     4  10  20  33  50  71  94 120 150 186 228 274
#     4   9  16  25  39  60  87 120 155 190 228 270
#     4   9  17  30  46  63  86 116 149 185 224 266
#     4   9  18  32  49  69  93 122 156 192 229 268
#     4  10  19  29  44  67  94 123 153 187 227 270
#     4   9  17  30  46  64  88 116 148 185 224 267
#     4   9  16  25  38  56  81 115 151 187 225 263
#
# _framework density 16.960868999999999
#
# number of rings (size 3 to 8) (size 9 to 14) (size 15 to 20)
#    0.000    2.714    0.000    3.429    0.000    1.714 
#    0.000    2.857    0.000    3.000    0.000    4.000 
#    0.000    2.571    0.000    9.286    0.000    0.286 
#
# Total GULP energy -1387793.211145 kJ/mol
# GULP energy per Si atom -12391.010814 kJ/mol
# Density = 1.692226 g / cm^3
# Si number density = 16.960869 Si / 1000 Ang^3
#
#
#
# Elastic Constant Matrix: (Units=GPa)
#
#
# Indices 1 2 3 4 5 6 
#
# 1 90.7927 50.0481 26.8670 0.0000 0.0000 0.0000
# 2 50.0481 90.7927 26.8670 0.0000 0.0000 0.0000
# 3 26.8670 26.8670 50.3157 0.0000 0.0000 0.0000
# 4 0.0000 0.0000 0.0000 8.0694 0.0000 0.0000
# 5 0.0000 0.0000 0.0000 0.0000 8.0694 0.0000
# 6 0.0000 0.0000 0.0000 0.0000 0.0000 6.3841
#
#
#
# Elastic Compliance Matrix: (Units=1/GPa)
#
#
# Indices 1 2 3 4 5 6 
#
# 1 0.016730 -0.007813 -0.004761 0.000000 0.000000 0.000000
# 2 -0.007813 0.016730 -0.004761 0.000000 0.000000 0.000000
# 3 -0.004761 -0.004761 0.024959 0.000000 0.000000 0.000000
# 4 0.000000 0.000000 0.000000 0.123925 0.000000 0.000000
# 5 0.000000 0.000000 0.000000 0.000000 0.123925 0.000000
# 6 0.000000 0.000000 0.000000 0.000000 0.000000 0.156638
#
#
# Mechanical properties :
#
#
# Convention : Reuss Voigt Hill
#
# Bulk Modulus (GPa) = 42.10939 48.82948 45.46943
# Shear Modulus (GPa) = 9.89131 13.04585 11.46858
#
# Velocity S-wave (km/s) = 2.41754 2.77641 2.60316
# Velocity P-wave (km/s) = 5.71611 6.25539 5.99182
#
# Compressibility (1/GPa) = 0.02374767
#
# Stress axis : x y z
#
# Youngs Moduli (GPa) = 59.77304 59.77304 40.06535
#
# Poissons Ratio (x) = 0.46702 0.19076
# Poissons Ratio (y) = 0.46702 0.19076
# Poissons Ratio (z) = 0.28460 0.28460
#
# Static dielectric constant tensor:
#      x y z
#    x 3.159670 0.000000 0.000000 
#    y 0.000000 3.159670 0.000000 
#    z 0.000000 0.000000 3.088420 
# 
# 
# High freq. dielectric constant tensor:
#      x y z
#    x 1.644240 0.000000 0.000000 
#    y 0.000000 1.644240 0.000000 
#    z 0.000000 0.000000 1.637320 
# 
# From -- ./inp_files/8176.got.cif
#   From: 2010.03.12/outbox.cif.g09.slc.cpg/sg123_5_cif.got.tgz:8176.got - 2010.04.06 16:26:55.
