data_PCOD8312331
_publ_section_title
;
Structure prediction by ZEFSAII (Michael W. Deem and Ramdas Pophale) SiO2 
 PCOD8312331
Probable space group: P 4/M M M
;
_chemical_formula_sum "Si O2"
_cell_formula_units_Z 96
_cell_length_a 14.434846
_cell_length_b 14.434846
_cell_length_c 30.475054
_cell_angle_alpha 90.000000
_cell_angle_beta 90.000000
_cell_angle_gamma 90.000000
_cell_volume 6349.927893
_symmetry_space_group_name_H-M "P 4/M M M"
_symmetry_group_IT_number 123
_symmetry_cell_setting 'tetragonal'
loop_
_space_group_symop_operation_xyz
x,y,z
-y,x,z
-x,-y,z
y,-x,z
x,-y,-z
-x,y,-z
y,x,-z
-y,-x,-z
-x,-y,-z
y,-x,-z
x,y,-z
-y,x,-z
-x,y,z
x,-y,z
-y,-x,z
y,x,z
loop_
_atom_site_type_symbol
_atom_site_label
_atom_site_fract_x
_atom_site_fract_y
_atom_site_fract_z
Si Si1 0.390075 0.897070 0.548709
Si Si2 0.890150 0.603124 0.049134
Si Si3 0.261827 0.890435 0.875030
Si Si4 0.245068 0.606746 0.380403
Si Si5 0.755759 0.605603 0.281381
Si Si6 0.605694 0.893485 0.794655
O O1 0.361176 0.862204 0.500000
O O2 0.500000 0.900603 0.552610
O O3 0.349701 0.829423 0.585948
O O4 0.349828 0.000000 0.556802
O O5 0.851936 0.500000 0.060988
O O6 0.854253 0.680698 0.082777
O O7 0.000000 0.599385 0.052096
O O8 0.858184 0.630761 0.000000
O O9 0.165421 0.834580 0.872429
O O10 0.325018 0.865985 0.833383
O O11 0.238873 0.000000 0.877539
O O12 0.264419 0.500000 0.391026
O O13 0.342256 0.657745 0.386992
O O14 0.207434 0.621164 0.330936
O O15 0.724718 0.500000 0.274374
O O16 0.666264 0.666264 0.270733
O O17 0.837712 0.633818 0.248724
O O18 0.500000 0.872354 0.809628
O O19 0.617042 0.000000 0.781941
#
# Coordination Sequence:
#
# PCOD8312331 Si02
#       6
#    16  16  16  16  16  16
#     4   8  14  25  40  56  74  98 129 165 202 234
#     4   8  14  26  44  63  81 102 131 169 208 238
#     4  10  19  29  42  60  84 114 142 167 198 239
#     4   9  17  27  39  57  81 109 137 162 191 231
#     4   9  17  28  41  58  81 107 134 164 197 237
#     4   9  17  29  45  63  80 100 131 173 218 253
#
# _framework density 15.118281
#
# number of rings (size 3 to 8) (size 9 to 14) (size 15 to 20)
#    0.000    3.167    0.000    2.000    0.000    3.833 
#    0.000    5.000    0.000    0.000    0.000    4.667 
#    0.000    3.333    0.000   12.833    0.000    5.167 
#
# Total GULP energy -1189867.461443 kJ/mol
# GULP energy per Si atom -12394.452723 kJ/mol
# Density = 1.508387 g / cm^3
# Si number density = 15.118281 Si / 1000 Ang^3
#
#
#
# Elastic Constant Matrix: (Units=GPa)
#
#
# Indices 1 2 3 4 5 6 
#
# 1 65.8519 41.3048 56.6957 0.0000 0.0000 0.0000
# 2 41.3048 65.8519 56.6957 0.0000 0.0000 0.0000
# 3 56.6957 56.6957 118.3469 0.0000 0.0000 0.0000
# 4 0.0000 0.0000 0.0000 21.5178 0.0000 0.0000
# 5 0.0000 0.0000 0.0000 0.0000 21.5178 0.0000
# 6 0.0000 0.0000 0.0000 0.0000 0.0000 16.9048
#
#
#
# Elastic Compliance Matrix: (Units=1/GPa)
#
#
# Indices 1 2 3 4 5 6 
#
# 1 0.029832 -0.010906 -0.009067 0.000000 0.000000 0.000000
# 2 -0.010906 0.029832 -0.009067 0.000000 0.000000 0.000000
# 3 -0.009067 -0.009067 0.017137 0.000000 0.000000 0.000000
# 4 0.000000 0.000000 0.000000 0.046473 0.000000 0.000000
# 5 0.000000 0.000000 0.000000 0.000000 0.046473 0.000000
# 6 0.000000 0.000000 0.000000 0.000000 0.000000 0.059155
#
#
# Mechanical properties :
#
#
# Convention : Reuss Voigt Hill
#
# Bulk Modulus (GPa) = 53.41230 62.16032 57.78631
# Shear Modulus (GPa) = 17.05183 18.34505 17.69844
#
# Velocity S-wave (km/s) = 3.36206 3.48722 3.42521
# Velocity P-wave (km/s) = 7.10476 7.57757 7.34497
#
# Compressibility (1/GPa) = 0.01872228
#
# Stress axis : x y z
#
# Youngs Moduli (GPa) = 33.52061 33.52061 58.35250
#
# Poissons Ratio (x) = 0.36556 0.52909
# Poissons Ratio (y) = 0.36556 0.52909
# Poissons Ratio (z) = 0.30394 0.30394
#
# Static dielectric constant tensor:
#      x y z
#    x 2.767120 0.000000 0.000000 
#    y 0.000000 2.767120 0.000000 
#    z 0.000000 0.000000 3.181440 
# 
# 
# High freq. dielectric constant tensor:
#      x y z
#    x 1.554720 0.000000 0.000000 
#    y 0.000000 1.554720 0.000000 
#    z 0.000000 0.000000 1.593290 
# 
# From -- ./inp_files/8586.got.cif
#   From: 2010.03.12/outbox.cif.g09.slc.cpg/sg123_5_cif.got.tgz:8586.got - 2010.04.06 16:26:55.
