data_PCOD8312306
_publ_section_title
;
Structure prediction by ZEFSAII (Michael W. Deem and Ramdas Pophale) SiO2 
 PCOD8312306
Probable space group: P 4/M M M
;
_chemical_formula_sum "Si O2"
_cell_formula_units_Z 88
_cell_length_a 14.063145
_cell_length_b 14.063145
_cell_length_c 28.324280
_cell_angle_alpha 90.000000
_cell_angle_beta 90.000000
_cell_angle_gamma 90.000000
_cell_volume 5601.750844
_symmetry_space_group_name_H-M "P 4/M M M"
_symmetry_group_IT_number 123
_symmetry_cell_setting 'tetragonal'
loop_
_space_group_symop_operation_xyz
x,y,z
-y,x,z
-x,-y,z
y,-x,z
x,-y,-z
-x,y,-z
y,x,-z
-y,-x,-z
-x,-y,-z
y,-x,-z
x,y,-z
-y,x,-z
-x,y,z
x,-y,z
-y,-x,z
y,x,z
loop_
_atom_site_type_symbol
_atom_site_label
_atom_site_fract_x
_atom_site_fract_y
_atom_site_fract_z
Si Si1 0.105704 0.387553 0.137306
Si Si2 0.236116 0.612810 0.500000
Si Si3 0.763507 0.609263 0.946558
Si Si4 0.387192 0.894023 0.584795
Si Si5 0.106031 0.612775 0.310350
Si Si6 0.612810 0.233998 0.775295
O O1 0.096626 0.500000 0.138767
O O2 0.153832 0.354423 0.088297
O O3 0.169212 0.353395 0.181071
O O4 0.000000 0.342285 0.140513
O O5 0.250968 0.500000 0.500000
O O6 0.339726 0.660275 0.500000
O O7 0.179421 0.650370 0.454116
O O8 0.737215 0.500000 0.936021
O O9 0.667734 0.667734 0.937330
O O10 0.800898 0.622872 0.000000
O O11 0.500000 0.897120 0.582262
O O12 0.354145 0.861597 0.637220
O O13 0.347851 0.000000 0.573884
O O14 0.101867 0.500000 0.307841
O O15 0.181044 0.649320 0.271913
O O16 0.000000 0.652383 0.299213
O O17 0.500000 0.252638 0.775513
O O18 0.664247 0.335754 0.778472
#
# Coordination Sequence:
#
# PCOD8312306 Si02
#       6
#    16   8  16  16  16  16
#     4   9  17  29  44  60  79 106 141 181 223 257
#     4  10  19  28  39  57  84 118 149 173 200 239
#     4   9  17  28  42  62  89 119 147 172 199 238
#     4   8  14  26  44  62  78 100 135 180 224 254
#     4   8  14  26  44  63  81 103 134 174 218 255
#     4  10  19  29  42  61  87 118 147 172 199 238
#
# _framework density 15.709372999999999
#
# number of rings (size 3 to 8) (size 9 to 14) (size 15 to 20)
#    0.000    3.091    0.000    2.455    0.000    4.818 
#    0.000    2.727    0.000    3.273    0.000    5.091 
#    0.000   20.000    0.000   24.000    0.000    2.182 
#
# Total GULP energy -1090667.706884 kJ/mol
# GULP energy per Si atom -12393.951215 kJ/mol
# Density = 1.567362 g / cm^3
# Si number density = 15.709373 Si / 1000 Ang^3
#
#
#
# Elastic Constant Matrix: (Units=GPa)
#
#
# Indices 1 2 3 4 5 6 
#
# 1 64.6454 37.2302 48.8262 0.0000 0.0000 0.0000
# 2 37.2302 64.6466 48.8266 0.0000 0.0000 0.0000
# 3 48.8262 48.8266 128.9302 0.0000 0.0000 0.0000
# 4 0.0000 0.0000 0.0000 18.0518 0.0000 0.0000
# 5 0.0000 0.0000 0.0000 0.0000 18.0520 0.0000
# 6 0.0000 0.0000 0.0000 0.0000 0.0000 4.5423
#
#
#
# Elastic Compliance Matrix: (Units=1/GPa)
#
#
# Indices 1 2 3 4 5 6 
#
# 1 0.025943 -0.010533 -0.005836 0.000000 0.000000 0.000000
# 2 -0.010533 0.025942 -0.005836 0.000000 0.000000 0.000000
# 3 -0.005836 -0.005836 0.012176 0.000000 0.000000 0.000000
# 4 0.000000 0.000000 0.000000 0.055396 0.000000 0.000000
# 5 0.000000 0.000000 0.000000 0.000000 0.055396 0.000000
# 6 0.000000 0.000000 0.000000 0.000000 0.000000 0.220154
#
#
# Mechanical properties :
#
#
# Convention : Reuss Voigt Hill
#
# Bulk Modulus (GPa) = 50.88383 58.66534 54.77459
# Shear Modulus (GPa) = 11.21161 16.35182 13.78172
#
# Velocity S-wave (km/s) = 2.67439 3.22979 2.96513
# Velocity P-wave (km/s) = 6.48055 7.16477 6.83124
#
# Compressibility (1/GPa) = 0.01965261
#
# Stress axis : x y z
#
# Youngs Moduli (GPa) = 38.54653 38.54722 82.12790
#
# Poissons Ratio (x) = 0.40601 0.47927
# Poissons Ratio (y) = 0.40600 0.47927
# Poissons Ratio (z) = 0.22495 0.22495
#
# Static dielectric constant tensor:
#      x y z
#    x 2.755010 0.000000 0.000000 
#    y 0.000000 2.755010 0.000000 
#    z 0.000000 0.000000 3.411690 
# 
# 
# High freq. dielectric constant tensor:
#      x y z
#    x 1.566820 0.000000 0.000000 
#    y 0.000000 1.566820 0.000000 
#    z 0.000000 0.000000 1.626170 
# 
# From -- ./inp_files/7983.got.cif
#   From: 2010.03.12/outbox.cif.g09.slc.cpg/sg123_4_cif.got.tgz:7983.got - 2010.04.06 16:26:55.
