data_PCOD8312360
_publ_section_title
;
Structure prediction by ZEFSAII (Michael W. Deem and Ramdas Pophale) SiO2 
 PCOD8312360
Probable space group: P 4/M M M
;
_chemical_formula_sum "Si O2"
_cell_formula_units_Z 120
_cell_length_a 18.214307
_cell_length_b 18.214307
_cell_length_c 22.845342
_cell_angle_alpha 90.000000
_cell_angle_beta 90.000000
_cell_angle_gamma 90.000000
_cell_volume 7579.193039
_symmetry_space_group_name_H-M "P 4/M M M"
_symmetry_group_IT_number 123
_symmetry_cell_setting 'tetragonal'
loop_
_space_group_symop_operation_xyz
x,y,z
-y,x,z
-x,-y,z
y,-x,z
x,-y,-z
-x,y,-z
y,x,-z
-y,-x,-z
-x,-y,-z
y,-x,-z
x,y,-z
-y,x,-z
-x,y,z
x,-y,z
-y,-x,z
y,x,z
loop_
_atom_site_type_symbol
_atom_site_label
_atom_site_fract_x
_atom_site_fract_y
_atom_site_fract_z
Si Si1 0.800285 0.916352 0.825755
Si Si2 0.354010 0.087138 0.629625
Si Si3 0.285363 0.085432 0.063766
Si Si4 0.084522 0.795479 0.568803
Si Si5 0.087506 0.500000 0.433687
Si Si6 0.583460 0.298007 0.066913
Si Si7 0.851194 0.415719 0.872636
Si Si8 0.084396 0.348387 0.237969
O O1 0.869366 0.869366 0.804625
O O2 0.770927 0.883760 0.887741
O O3 0.737344 0.909528 0.777294
O O4 0.826465 0.000000 0.832467
O O5 0.278385 0.114693 0.600020
O O6 0.426202 0.118577 0.597026
O O7 0.358547 0.114231 0.696535
O O8 0.354136 0.000000 0.626485
O O9 0.368389 0.096362 0.085686
O O10 0.271663 0.000000 0.058124
O O11 0.272544 0.122871 0.000000
O O12 0.089482 0.780922 0.500000
O O13 0.135579 0.864422 0.587407
O O14 0.000000 0.813170 0.586960
O O15 0.115956 0.500000 0.500000
O O16 0.000000 0.500000 0.430860
O O17 0.500000 0.323756 0.075343
O O18 0.633474 0.366527 0.084080
O O19 0.603367 0.232498 0.111045
O O20 0.597285 0.272100 0.000000
O O21 0.869263 0.500000 0.885599
O O22 0.865184 0.397316 0.804572
O O23 0.000000 0.374783 0.231531
#
# Coordination Sequence:
#
# PCOD8312360 Si02
#       8
#    16  16  16  16   8  16  16  16
#     4   9  18  32  47  63  83 108 143 189 234 274
#     4   9  17  29  45  65  89 118 150 186 226 265
#     4   9  18  31  44  60  83 112 144 176 220 277
#     4   9  17  29  45  65  91 123 157 193 231 267
#     4   9  16  26  44  70  94 114 143 184 224 265
#     4   9  18  32  48  66  87 109 136 173 216 260
#     4  10  19  29  43  64  89 113 140 177 213 250
#     4   9  19  32  44  61  86 117 149 177 211 259
#
# _framework density 15.83282
#
# number of rings (size 3 to 8) (size 9 to 14) (size 15 to 20)
#    0.000    2.867    0.000    2.000    0.933    6.800 
#    0.000    2.000    0.000    0.000    0.000    5.600 
#    0.000    0.000    0.000    0.000    0.000    0.333 
#
# Total GULP energy -1487567.209562 kJ/mol
# GULP energy per Si atom -12396.393413 kJ/mol
# Density = 1.579678 g / cm^3
# Si number density = 15.832820 Si / 1000 Ang^3
#
#
#
# Elastic Constant Matrix: (Units=GPa)
#
#
# Indices 1 2 3 4 5 6 
#
# 1 67.4059 39.2464 35.4407 0.0000 0.0000 0.0000
# 2 39.2464 67.4059 35.4407 0.0000 0.0000 0.0000
# 3 35.4407 35.4407 105.1849 0.0000 0.0000 0.0000
# 4 0.0000 0.0000 0.0000 14.9322 0.0000 0.0000
# 5 0.0000 0.0000 0.0000 0.0000 14.9322 0.0000
# 6 0.0000 0.0000 0.0000 0.0000 0.0000 21.2955
#
#
#
# Elastic Compliance Matrix: (Units=1/GPa)
#
#
# Indices 1 2 3 4 5 6 
#
# 1 0.023797 -0.011715 -0.004071 0.000000 0.000000 0.000000
# 2 -0.011715 0.023797 -0.004071 0.000000 0.000000 0.000000
# 3 -0.004071 -0.004071 0.012250 0.000000 0.000000 0.000000
# 4 0.000000 0.000000 0.000000 0.066969 0.000000 0.000000
# 5 0.000000 0.000000 0.000000 0.000000 0.066969 0.000000
# 6 0.000000 0.000000 0.000000 0.000000 0.000000 0.046958
#
#
# Mechanical properties :
#
#
# Convention : Reuss Voigt Hill
#
# Bulk Modulus (GPa) = 49.67568 51.13913 50.40740
# Shear Modulus (GPa) = 17.41162 18.88991 18.15076
#
# Velocity S-wave (km/s) = 3.31980 3.45785 3.38953
# Velocity P-wave (km/s) = 6.79249 6.95068 6.87204
#
# Compressibility (1/GPa) = 0.02013058
#
# Stress axis : x y z
#
# Youngs Moduli (GPa) = 42.02242 42.02242 81.63097
#
# Poissons Ratio (x) = 0.49230 0.33230
# Poissons Ratio (y) = 0.49230 0.33230
# Poissons Ratio (z) = 0.17106 0.17106
#
# Static dielectric constant tensor:
#      x y z
#    x 2.871460 0.000000 0.000000 
#    y 0.000000 2.871460 0.000000 
#    z 0.000000 0.000000 3.182410 
# 
# 
# High freq. dielectric constant tensor:
#      x y z
#    x 1.588050 0.000000 0.000000 
#    y 0.000000 1.588050 0.000000 
#    z 0.000000 0.000000 1.608110 
# 
# From -- ./inp_files/7685.got.cif
#   From: 2010.03.12/outbox.cif.g09.slc.cpg/sg123_4_cif.got.tgz:7685.got - 2010.04.06 16:26:55.
