data_PCOD8312807
_publ_section_title
;
Structure prediction by ZEFSAII (Michael W. Deem and Ramdas Pophale) SiO2 
 PCOD8312807
Probable space group: P 4/M M M
;
_chemical_formula_sum "Si O2"
_cell_formula_units_Z 64
_cell_length_a 12.553965
_cell_length_b 12.553965
_cell_length_c 23.696344
_cell_angle_alpha 90.000000
_cell_angle_beta 90.000000
_cell_angle_gamma 90.000000
_cell_volume 3734.592089
_symmetry_space_group_name_H-M "P 4/M M M"
_symmetry_group_IT_number 123
_symmetry_cell_setting 'tetragonal'
loop_
_space_group_symop_operation_xyz
x,y,z
-y,x,z
-x,-y,z
y,-x,z
x,-y,-z
-x,y,-z
y,x,-z
-y,-x,-z
-x,-y,-z
y,-x,-z
x,y,-z
-y,x,-z
-x,y,z
x,-y,z
-y,-x,z
y,x,z
loop_
_atom_site_type_symbol
_atom_site_label
_atom_site_fract_x
_atom_site_fract_y
_atom_site_fract_z
Si Si1 0.000000 0.626603 0.631874
Si Si2 0.626606 0.000000 0.240654
Si Si3 0.706953 0.877292 0.936836
Si Si4 0.205683 0.622038 0.565569
Si Si5 0.205418 0.621358 0.173560
O O1 0.894454 0.668072 0.600307
O O2 0.000000 0.500000 0.630154
O O3 0.000000 0.670526 0.695603
O O4 0.667632 0.106091 0.209294
O O5 0.500000 0.000000 0.238875
O O6 0.822184 0.822184 0.931418
O O7 0.625620 0.823990 0.892794
O O8 0.723514 0.000000 0.921925
O O9 0.659808 0.862286 0.000000
O O10 0.176279 0.631822 0.500000
O O11 0.231420 0.500000 0.581931
O O12 0.309465 0.690536 0.581272
O O13 0.232321 0.500000 0.189824
O O14 0.308373 0.691628 0.188143
#
# Coordination Sequence:
#
# PCOD8312807 Si02
#       5
#     8   8  16  16  16
#     4   9  17  30  49  70  94 127 166 203 240 284
#     4   9  18  33  51  70  92 123 164 207 245 282
#     4   9  17  29  47  72 100 130 164 202 246 295
#     4   9  17  29  47  73 103 133 165 201 241 285
#     4  10  20  34  51  72  99 128 161 200 242 291
#
# _framework density 17.137079
#
# number of rings (size 3 to 8) (size 9 to 14) (size 15 to 20)
#    0.000    2.750    1.250    0.375    0.000    3.750 
#    0.000    3.750    0.000    0.750    0.000   14.000 
#    0.000    0.000    0.000    0.000    0.000    0.000 
#
# Total GULP energy -793501.519535 kJ/mol
# GULP energy per Si atom -12398.461243 kJ/mol
# Density = 1.709807 g / cm^3
# Si number density = 17.137079 Si / 1000 Ang^3
#
#
#
# Elastic Constant Matrix: (Units=GPa)
#
#
# Indices 1 2 3 4 5 6 
#
# 1 93.8031 53.1832 42.6014 0.0000 0.0000 0.0000
# 2 53.1832 93.8031 42.6014 0.0000 0.0000 0.0000
# 3 42.6014 42.6014 89.8879 0.0000 0.0000 0.0000
# 4 0.0000 0.0000 0.0000 18.4792 0.0000 0.0000
# 5 0.0000 0.0000 0.0000 0.0000 18.4792 0.0000
# 6 0.0000 0.0000 0.0000 0.0000 0.0000 13.9683
#
#
#
# Elastic Compliance Matrix: (Units=1/GPa)
#
#
# Indices 1 2 3 4 5 6 
#
# 1 0.016999 -0.007619 -0.004446 0.000000 0.000000 0.000000
# 2 -0.007619 0.016999 -0.004446 0.000000 0.000000 0.000000
# 3 -0.004446 -0.004446 0.015339 0.000000 0.000000 0.000000
# 4 0.000000 0.000000 0.000000 0.054115 0.000000 0.000000
# 5 0.000000 0.000000 0.000000 0.000000 0.054115 0.000000
# 6 0.000000 0.000000 0.000000 0.000000 0.000000 0.071591
#
#
# Mechanical properties :
#
#
# Convention : Reuss Voigt Hill
#
# Bulk Modulus (GPa) = 61.28643 61.58513 61.43578
# Shear Modulus (GPa) = 18.68330 19.45919 19.07125
#
# Velocity S-wave (km/s) = 3.30544 3.37338 3.33958
# Velocity P-wave (km/s) = 7.09986 7.15456 7.12726
#
# Compressibility (1/GPa) = 0.01631683
#
# Stress axis : x y z
#
# Youngs Moduli (GPa) = 58.82556 58.82556 65.19329
#
# Poissons Ratio (x) = 0.44819 0.28983
# Poissons Ratio (y) = 0.44819 0.28983
# Poissons Ratio (z) = 0.26152 0.26152
#
# Static dielectric constant tensor:
#      x y z
#    x 3.050950 0.000000 0.000000 
#    y 0.000000 3.050950 0.000000 
#    z 0.000000 0.000000 3.354330 
# 
# 
# High freq. dielectric constant tensor:
#      x y z
#    x 1.643990 0.000000 0.000000 
#    y 0.000000 1.643990 0.000000 
#    z 0.000000 0.000000 1.666710 
# 
# From -- ./inp_files/7054.got.cif
#   From: 2010.03.12/outbox.cif.g09.slc.cpg/sg123_4_cif.got.tgz:7054.got - 2010.04.06 16:26:55.
