data_PCOD8312434
_publ_section_title
;
Structure prediction by ZEFSAII (Michael W. Deem and Ramdas Pophale) SiO2 
 PCOD8312434
Probable space group: P 4/M M M
;
_chemical_formula_sum "Si O2"
_cell_formula_units_Z 104
_cell_length_a 13.856210
_cell_length_b 13.856210
_cell_length_c 33.240062
_cell_angle_alpha 90.000000
_cell_angle_beta 90.000000
_cell_angle_gamma 90.000000
_cell_volume 6381.910931
_symmetry_space_group_name_H-M "P 4/M M M"
_symmetry_group_IT_number 123
_symmetry_cell_setting 'tetragonal'
loop_
_space_group_symop_operation_xyz
x,y,z
-y,x,z
-x,-y,z
y,-x,z
x,-y,-z
-x,y,-z
y,x,-z
-y,-x,-z
-x,-y,-z
y,-x,-z
x,y,-z
-y,x,-z
-x,y,z
x,-y,z
-y,-x,z
y,x,z
loop_
_atom_site_type_symbol
_atom_site_label
_atom_site_fract_x
_atom_site_fract_y
_atom_site_fract_z
Si Si1 0.890074 0.612557 0.346617
Si Si2 0.892058 0.614289 0.500000
Si Si3 0.614039 0.230557 0.423612
Si Si4 0.385594 0.892497 0.955439
Si Si5 0.735978 0.890025 0.727696
Si Si6 0.729943 0.887589 0.181320
Si Si7 0.385730 0.229719 0.119681
O O1 0.880537 0.500000 0.340180
O O2 0.823294 0.647050 0.383117
O O3 0.853684 0.658461 0.304847
O O4 0.000000 0.641779 0.356837
O O5 0.900050 0.500000 0.500000
O O6 0.835554 0.649126 0.460520
O O7 0.000000 0.658988 0.500000
O O8 0.500000 0.250053 0.425059
O O9 0.666378 0.333623 0.425976
O O10 0.500000 0.897136 0.954000
O O11 0.349631 0.816315 0.922424
O O12 0.344817 0.000000 0.946016
O O13 0.351030 0.859403 0.000000
O O14 0.834936 0.834936 0.720961
O O15 0.695160 0.873830 0.772639
O O16 0.762648 0.000000 0.720229
O O17 0.829583 0.829583 0.173025
O O18 0.643396 0.844957 0.154638
O O19 0.747766 0.000000 0.171019
O O20 0.500000 0.248281 0.121165
O O21 0.332007 0.332007 0.125281
#
# Coordination Sequence:
#
# PCOD8312434 Si02
#       7
#    16   8  16  16  16  16  16
#     4   9  17  29  45  65  88 115 149 188 225 256
#     4   9  17  30  47  65  85 109 139 177 217 254
#     4  10  19  30  45  65  90 119 148 179 216 258
#     4   8  14  26  45  67  88 111 142 181 224 267
#     4   9  17  29  45  66  92 118 144 177 218 268
#     4   9  18  31  47  69  94 119 149 185 228 279
#     4  10  20  32  46  65  90 121 157 196 234 272
#
# _framework density 16.296057999999999
#
# number of rings (size 3 to 8) (size 9 to 14) (size 15 to 20)
#    0.000    2.846    0.000    2.077    0.000    4.308 
#    0.000    3.077    0.000    1.385    0.000    2.154 
#    0.000   15.385    0.000   14.308    0.000    0.923 
#
# Total GULP energy -1289233.720622 kJ/mol
# GULP energy per Si atom -12396.478083 kJ/mol
# Density = 1.625897 g / cm^3
# Si number density = 16.296058 Si / 1000 Ang^3
#
#
#
# Elastic Constant Matrix: (Units=GPa)
#
#
# Indices 1 2 3 4 5 6 
#
# 1 73.5003 41.0744 51.8746 0.0000 0.0000 0.0000
# 2 41.0744 73.5003 51.8746 0.0000 0.0000 0.0000
# 3 51.8746 51.8746 124.3928 0.0000 0.0000 0.0000
# 4 0.0000 0.0000 0.0000 23.5358 0.0000 0.0000
# 5 0.0000 0.0000 0.0000 0.0000 23.5358 0.0000
# 6 0.0000 0.0000 0.0000 0.0000 0.0000 19.1777
#
#
#
# Elastic Compliance Matrix: (Units=1/GPa)
#
#
# Indices 1 2 3 4 5 6 
#
# 1 0.022432 -0.008408 -0.005848 0.000000 0.000000 0.000000
# 2 -0.008408 0.022432 -0.005848 0.000000 0.000000 0.000000
# 3 -0.005848 -0.005848 0.012917 0.000000 0.000000 0.000000
# 4 0.000000 0.000000 0.000000 0.042488 0.000000 0.000000
# 5 0.000000 0.000000 0.000000 0.000000 0.042488 0.000000
# 6 0.000000 0.000000 0.000000 0.000000 0.000000 0.052144
#
#
# Mechanical properties :
#
#
# Convention : Reuss Voigt Hill
#
# Bulk Modulus (GPa) = 56.91142 62.33788 59.62465
# Shear Modulus (GPa) = 20.74980 21.68784 21.21882
#
# Velocity S-wave (km/s) = 3.57221 3.65206 3.61235
# Velocity P-wave (km/s) = 7.21204 7.49131 7.35300
#
# Compressibility (1/GPa) = 0.01757116
#
# Stress axis : x y z
#
# Youngs Moduli (GPa) = 44.58011 44.58011 77.41949
#
# Poissons Ratio (x) = 0.37483 0.45276
# Poissons Ratio (y) = 0.37483 0.45276
# Poissons Ratio (z) = 0.26071 0.26071
#
# Static dielectric constant tensor:
#      x y z
#    x 2.922620 0.000000 0.000000 
#    y 0.000000 2.922620 0.000000 
#    z 0.000000 0.000000 3.412700 
# 
# 
# High freq. dielectric constant tensor:
#      x y z
#    x 1.609230 0.000000 0.000000 
#    y 0.000000 1.609230 0.000000 
#    z 0.000000 0.000000 1.644100 
# 
# From -- ./inp_files/8774.got.cif
#   From: 2010.03.12/outbox.cif.g09.slc.cpg/sg123_5_cif.got.tgz:8774.got - 2010.04.06 16:26:55.
