data_PCOD8312301
_publ_section_title
;
Structure prediction by ZEFSAII (Michael W. Deem and Ramdas Pophale) SiO2 
 PCOD8312301
Probable space group: P 4/M M M
;
_chemical_formula_sum "Si O2"
_cell_formula_units_Z 64
_cell_length_a 13.938634
_cell_length_b 13.938634
_cell_length_c 20.764179
_cell_angle_alpha 90.000000
_cell_angle_beta 90.000000
_cell_angle_gamma 90.000000
_cell_volume 4034.179268
_symmetry_space_group_name_H-M "P 4/M M M"
_symmetry_group_IT_number 123
_symmetry_cell_setting 'tetragonal'
loop_
_space_group_symop_operation_xyz
x,y,z
-y,x,z
-x,-y,z
y,-x,z
x,-y,-z
-x,y,-z
y,x,-z
-y,-x,-z
-x,-y,-z
y,-x,-z
x,y,-z
-y,x,-z
-x,y,z
x,-y,z
-y,-x,z
y,x,z
loop_
_atom_site_type_symbol
_atom_site_label
_atom_site_fract_x
_atom_site_fract_y
_atom_site_fract_z
Si Si1 0.106541 0.386080 0.259297
Si Si2 0.606467 0.113886 0.882324
Si Si3 0.113591 0.265561 0.000000
Si Si4 0.892656 0.386600 0.500000
Si Si5 0.613630 0.231868 0.621499
O O1 0.099108 0.500000 0.260997
O O2 0.144051 0.354187 0.188446
O O3 0.180384 0.350676 0.313272
O O4 0.000000 0.343544 0.273044
O O5 0.500000 0.157068 0.894438
O O6 0.599373 0.000000 0.885358
O O7 0.677512 0.151225 0.937348
O O8 0.160931 0.160931 0.000000
O O9 0.000000 0.251163 0.000000
O O10 0.901547 0.500000 0.500000
O O11 0.835873 0.352764 0.436870
O O12 0.000000 0.341734 0.500000
O O13 0.500000 0.251316 0.620419
O O14 0.665796 0.334205 0.615788
#
# Coordination Sequence:
#
# PCOD8312301 Si02
#       5
#    16  16   8   8  16
#     4   8  14  26  44  64  84 105 132 173 221 254
#     4   8  14  26  44  63  81 101 130 174 223 258
#     4  10  19  28  39  57  82 112 141 167 200 247
#     4   9  17  30  47  63  79 101 133 177 219 242
#     4  10  19  29  42  62  89 119 145 166 193 237
#
# _framework density 15.864442
#
# number of rings (size 3 to 8) (size 9 to 14) (size 15 to 20)
#    0.000    3.125    0.000    3.000    0.000    5.875 
#    0.000    0.000    0.000    2.250    0.000    0.000 
#    0.000   24.500    0.000    0.000    0.000    0.750 
#
# Total GULP energy -793194.851899 kJ/mol
# GULP energy per Si atom -12393.669561 kJ/mol
# Density = 1.582833 g / cm^3
# Si number density = 15.864442 Si / 1000 Ang^3
#
#
#
# Elastic Constant Matrix: (Units=GPa)
#
#
# Indices 1 2 3 4 5 6 
#
# 1 59.4337 37.3663 44.5464 0.0000 0.0000 0.0000
# 2 37.3663 59.4337 44.5464 0.0000 0.0000 0.0000
# 3 44.5464 44.5464 143.8641 0.0000 0.0000 0.0000
# 4 0.0000 0.0000 0.0000 9.0878 0.0000 0.0000
# 5 0.0000 0.0000 0.0000 0.0000 9.0878 0.0000
# 6 0.0000 0.0000 0.0000 0.0000 0.0000 16.8507
#
#
#
# Elastic Compliance Matrix: (Units=1/GPa)
#
#
# Indices 1 2 3 4 5 6 
#
# 1 0.029882 -0.015434 -0.004474 0.000000 0.000000 0.000000
# 2 -0.015434 0.029882 -0.004474 0.000000 0.000000 0.000000
# 3 -0.004474 -0.004474 0.009722 0.000000 0.000000 0.000000
# 4 0.000000 0.000000 0.000000 0.110038 0.000000 0.000000
# 5 0.000000 0.000000 0.000000 0.000000 0.110038 0.000000
# 6 0.000000 0.000000 0.000000 0.000000 0.000000 0.059345
#
#
# Mechanical properties :
#
#
# Convention : Reuss Voigt Hill
#
# Bulk Modulus (GPa) = 48.25605 57.29443 52.77524
# Shear Modulus (GPa) = 12.35861 16.09007 14.22434
#
# Velocity S-wave (km/s) = 2.79411 3.18814 2.99761
# Velocity P-wave (km/s) = 6.39478 7.05306 6.73197
#
# Compressibility (1/GPa) = 0.02072279
#
# Stress axis : x y z
#
# Youngs Moduli (GPa) = 33.46505 33.46505 102.86438
#
# Poissons Ratio (x) = 0.51649 0.46019
# Poissons Ratio (y) = 0.51649 0.46019
# Poissons Ratio (z) = 0.14971 0.14971
#
# Static dielectric constant tensor:
#      x y z
#    x 2.724820 0.000000 0.000000 
#    y 0.000000 2.724820 0.000000 
#    z 0.000000 0.000000 3.547770 
# 
# 
# High freq. dielectric constant tensor:
#      x y z
#    x 1.571610 0.000000 0.000000 
#    y 0.000000 1.571610 0.000000 
#    z 0.000000 0.000000 1.634020 
# 
# From -- ./inp_files/4975.got.cif
#   From: 2010.03.12/outbox.cif.g09.slc.cpg/sg123_3_cif.got.tgz:4975.got - 2010.04.06 16:26:55.
