data_PCOD8312561
_publ_section_title
;
Structure prediction by ZEFSAII (Michael W. Deem and Ramdas Pophale) SiO2 
 PCOD8312561
Probable space group: P 4/M M M
;
_chemical_formula_sum "Si O2"
_cell_formula_units_Z 72
_cell_length_a 12.499437
_cell_length_b 12.499437
_cell_length_c 26.655176
_cell_angle_alpha 90.000000
_cell_angle_beta 90.000000
_cell_angle_gamma 90.000000
_cell_volume 4164.496087
_symmetry_space_group_name_H-M "P 4/M M M"
_symmetry_group_IT_number 123
_symmetry_cell_setting 'tetragonal'
loop_
_space_group_symop_operation_xyz
x,y,z
-y,x,z
-x,-y,z
y,-x,z
x,-y,-z
-x,y,-z
y,x,-z
-y,-x,-z
-x,-y,-z
y,-x,-z
x,y,-z
-y,x,-z
-x,y,z
x,-y,z
-y,-x,z
y,x,z
loop_
_atom_site_type_symbol
_atom_site_label
_atom_site_fract_x
_atom_site_fract_y
_atom_site_fract_z
Si Si1 0.000000 0.626744 0.781007
Si Si2 0.000000 0.627157 0.331720
Si Si3 0.626361 0.881252 0.945506
Si Si4 0.374223 0.207585 0.158663
Si Si5 0.201075 0.623474 0.395471
Si Si6 0.125662 0.298267 0.500000
O O1 0.000000 0.673473 0.724711
O O2 0.105300 0.665956 0.810035
O O3 0.000000 0.500000 0.779827
O O4 0.893279 0.667782 0.359644
O O5 0.000000 0.500000 0.332415
O O6 0.500000 0.892437 0.943766
O O7 0.661166 0.807297 0.899353
O O8 0.675831 0.000000 0.938899
O O9 0.662336 0.833594 0.000000
O O10 0.500000 0.228069 0.165373
O O11 0.311855 0.311855 0.178863
O O12 0.229192 0.500000 0.383963
O O13 0.306983 0.693018 0.385353
O O14 0.161018 0.632701 0.452328
O O15 0.182759 0.182759 0.500000
O O16 0.000000 0.277215 0.500000
#
# Coordination Sequence:
#
# PCOD8312561 Si02
#       6
#     8   8  16  16  16   8
#     4   9  18  34  52  71  93 125 171 215 250 285
#     4   9  18  33  54  73  94 127 171 217 251 289
#     4   8  13  24  44  68  93 122 160 203 240 280
#     4  10  19  31  49  73 101 131 163 201 246 297
#     4  10  20  33  52  79 108 139 171 205 249 299
#     4  10  19  32  52  78 108 141 176 215 258 302
#
# _framework density 17.289007000000002
#
# number of rings (size 3 to 8) (size 9 to 14) (size 15 to 20)
#    0.000    2.667    2.222    1.000    0.000    2.333 
#    0.000    0.000    0.000    2.667    0.000   10.889 
#    0.000    1.778    0.000    0.000    0.000    0.000 
#
# Total GULP energy -892354.674584 kJ/mol
# GULP energy per Si atom -12393.814925 kJ/mol
# Density = 1.724966 g / cm^3
# Si number density = 17.289007 Si / 1000 Ang^3
#
#
#
# Elastic Constant Matrix: (Units=GPa)
#
#
# Indices 1 2 3 4 5 6 
#
# 1 88.6271 55.2688 38.0282 0.0000 0.0000 0.0000
# 2 55.2688 88.6271 38.0282 0.0000 0.0000 0.0000
# 3 38.0282 38.0282 122.6638 0.0000 0.0000 0.0000
# 4 0.0000 0.0000 0.0000 8.5259 0.0000 0.0000
# 5 0.0000 0.0000 0.0000 0.0000 8.5259 0.0000
# 6 0.0000 0.0000 0.0000 0.0000 0.0000 11.5058
#
#
#
# Elastic Compliance Matrix: (Units=1/GPa)
#
#
# Indices 1 2 3 4 5 6 
#
# 1 0.019144 -0.010833 -0.002577 0.000000 0.000000 0.000000
# 2 -0.010833 0.019144 -0.002577 0.000000 0.000000 0.000000
# 3 -0.002577 -0.002577 0.009750 0.000000 0.000000 0.000000
# 4 0.000000 0.000000 0.000000 0.117289 0.000000 0.000000
# 5 0.000000 0.000000 0.000000 0.000000 0.117289 0.000000
# 6 0.000000 0.000000 0.000000 0.000000 0.000000 0.086913
#
#
# Mechanical properties :
#
#
# Convention : Reuss Voigt Hill
#
# Bulk Modulus (GPa) = 62.24320 62.50760 62.37540
# Shear Modulus (GPa) = 12.28926 16.95104 14.62015
#
# Velocity S-wave (km/s) = 2.66900 3.13461 2.91113
# Velocity P-wave (km/s) = 6.75114 7.02382 6.88883
#
# Compressibility (1/GPa) = 0.01606601
#
# Stress axis : x y z
#
# Youngs Moduli (GPa) = 52.23444 52.23444 102.56401
#
# Poissons Ratio (x) = 0.56586 0.26428
# Poissons Ratio (y) = 0.56586 0.26428
# Poissons Ratio (z) = 0.13459 0.13459
#
# Static dielectric constant tensor:
#      x y z
#    x 2.963130 0.000000 0.000000 
#    y 0.000000 2.963130 0.000000 
#    z 0.000000 0.000000 3.586060 
# 
# 
# High freq. dielectric constant tensor:
#      x y z
#    x 1.643050 0.000000 0.000000 
#    y 0.000000 1.643050 0.000000 
#    z 0.000000 0.000000 1.679430 
# 
# From -- ./inp_files/7929.got.cif
#   From: 2010.03.12/outbox.cif.g09.slc.cpg/sg123_4_cif.got.tgz:7929.got - 2010.04.06 16:26:55.
