data_PCOD8312172
_publ_section_title
;
Structure prediction by ZEFSAII (Michael W. Deem and Ramdas Pophale) SiO2 
 PCOD8312172
Probable space group: P 4/M M M
;
_chemical_formula_sum "Si O2"
_cell_formula_units_Z 80
_cell_length_a 19.396017
_cell_length_b 19.396017
_cell_length_c 14.237955
_cell_angle_alpha 90.000000
_cell_angle_beta 90.000000
_cell_angle_gamma 90.000000
_cell_volume 5356.396630
_symmetry_space_group_name_H-M "P 4/M M M"
_symmetry_group_IT_number 123
_symmetry_cell_setting 'tetragonal'
loop_
_space_group_symop_operation_xyz
x,y,z
-y,x,z
-x,-y,z
y,-x,z
x,-y,-z
-x,y,-z
y,x,-z
-y,-x,-z
-x,-y,-z
y,-x,-z
x,y,-z
-y,x,-z
-x,y,z
x,-y,z
-y,-x,z
y,x,z
loop_
_atom_site_type_symbol
_atom_site_label
_atom_site_fract_x
_atom_site_fract_y
_atom_site_fract_z
Si Si1 0.080982 0.688984 0.746636
Si Si2 0.189258 0.078104 0.394634
Si Si3 0.687261 0.422063 0.111717
Si Si4 0.686451 0.799366 0.890600
Si Si5 0.576938 0.918155 0.396944
O O1 0.096149 0.754148 0.681952
O O2 0.127134 0.692114 0.839459
O O3 0.108915 0.624690 0.686261
O O4 0.000000 0.683266 0.774249
O O5 0.218541 0.091867 0.500000
O O6 0.122806 0.122806 0.372626
O O7 0.164768 0.000000 0.384598
O O8 0.687602 0.500000 0.153296
O O9 0.619409 0.380591 0.147940
O O10 0.756220 0.380920 0.143019
O O11 0.685244 0.424396 0.000000
O O12 0.754497 0.754497 0.869414
O O13 0.680720 0.816603 0.000000
O O14 0.599795 0.890107 0.500000
O O15 0.500000 0.892903 0.374320
O O16 0.581473 0.000000 0.399852
#
# Coordination Sequence:
#
# PCOD8312172 Si02
#       5
#    16  16  16  16  16
#     4  10  18  27  42  61  79 102 137 178 208 232
#     4   9  17  28  42  61  83 104 127 159 203 255
#     4   8  14  25  41  60  80 102 128 158 194 235
#     4   9  18  31  43  55  77 110 141 168 205 252
#     4   8  14  25  40  58  81 106 129 155 191 236
#
# _framework density 14.935414
#
# number of rings (size 3 to 8) (size 9 to 14) (size 15 to 20)
#    0.000    3.200    0.000    3.000    0.000    4.000 
#    0.000    2.000    0.000    0.000    0.000    5.600 
#    0.000    0.000    0.000   18.600    0.000    0.800 
#
# Total GULP energy -991349.894592 kJ/mol
# GULP energy per Si atom -12391.873682 kJ/mol
# Density = 1.490142 g / cm^3
# Si number density = 14.935414 Si / 1000 Ang^3
#
#
#
# Elastic Constant Matrix: (Units=GPa)
#
#
# Indices 1 2 3 4 5 6 
#
# 1 91.3556 50.1575 47.3378 0.0000 0.0000 0.0000
# 2 50.1575 91.3556 47.3378 0.0000 0.0000 0.0000
# 3 47.3378 47.3378 65.7963 0.0000 0.0000 0.0000
# 4 0.0000 0.0000 0.0000 16.6128 0.0000 0.0000
# 5 0.0000 0.0000 0.0000 0.0000 16.6128 0.0000
# 6 0.0000 0.0000 0.0000 0.0000 0.0000 13.9302
#
#
#
# Elastic Compliance Matrix: (Units=1/GPa)
#
#
# Indices 1 2 3 4 5 6 
#
# 1 0.018949 -0.005324 -0.009802 0.000000 0.000000 0.000000
# 2 -0.005324 0.018949 -0.009802 0.000000 0.000000 0.000000
# 3 -0.009802 -0.009802 0.029303 0.000000 0.000000 0.000000
# 4 0.000000 0.000000 0.000000 0.060194 0.000000 0.000000
# 5 0.000000 0.000000 0.000000 0.000000 0.060194 0.000000
# 6 0.000000 0.000000 0.000000 0.000000 0.000000 0.071787
#
#
# Mechanical properties :
#
#
# Convention : Reuss Voigt Hill
#
# Bulk Modulus (GPa) = 57.66025 59.79710 58.72868
# Shear Modulus (GPa) = 15.87230 16.34279 16.10755
#
# Velocity S-wave (km/s) = 3.26349 3.31150 3.28758
# Velocity P-wave (km/s) = 7.27260 7.39902 7.33608
#
# Compressibility (1/GPa) = 0.01734297
#
# Stress axis : x y z
#
# Youngs Moduli (GPa) = 52.77410 52.77410 34.12622
#
# Poissons Ratio (x) = 0.28099 0.33451
# Poissons Ratio (y) = 0.28099 0.33451
# Poissons Ratio (z) = 0.51730 0.51730
#
# Static dielectric constant tensor:
#      x y z
#    x 2.907320 0.000000 0.000000 
#    y 0.000000 2.907320 0.000000 
#    z 0.000000 0.000000 2.733920 
# 
# 
# High freq. dielectric constant tensor:
#      x y z
#    x 1.565040 0.000000 0.000000 
#    y 0.000000 1.565040 0.000000 
#    z 0.000000 0.000000 1.545860 
# 
# From -- ./inp_files/3910.got.cif
#   From: 2010.03.12/outbox.cif.g09.slc.cpg/sg123_2_cif.got.tgz:3910.got - 2010.04.06 16:26:55.
