data_PCOD8312090
_publ_section_title
;
Structure prediction by ZEFSAII (Michael W. Deem and Ramdas Pophale) SiO2 
 PCOD8312090
Probable space group: I -4 2 D
;
_chemical_formula_sum "Si O2"
_cell_formula_units_Z 64
_cell_length_a 12.040590
_cell_length_b 12.040590
_cell_length_c 19.454685
_cell_angle_alpha 90.000000
_cell_angle_beta 90.000000
_cell_angle_gamma 90.000000
_cell_volume 2820.458668
_symmetry_space_group_name_H-M "I -4 2 D"
_symmetry_group_IT_number 122
_symmetry_cell_setting 'tetragonal'
loop_
_space_group_symop_operation_xyz
x,y,z
y,-x,-z
-x,-y,z
-y,x,-z
x,1/2-y,1/4-z
-x,1/2+y,1/4-z
-y,1/2-x,1/4+z
y,1/2+x,1/4+z
1/2+x,1/2+y,1/2+z
1/2+y,1/2-x,1/2-z
1/2-x,1/2-y,1/2+z
1/2-y,1/2+x,1/2-z
1/2+x,-y,3/4-z
1/2-x,y,3/4-z
1/2-y,-x,3/4+z
1/2+y,x,3/4+z
loop_
_atom_site_type_symbol
_atom_site_label
_atom_site_fract_x
_atom_site_fract_y
_atom_site_fract_z
Si Si1 0.216355 0.887614 0.295586
Si Si2 0.865309 0.200132 0.756349
Si Si3 0.601823 0.069408 0.857779
Si Si4 0.008870 0.756626 0.991369
O O1 0.250000 0.876928 0.375000
O O2 0.307234 0.819660 0.252041
O O3 0.097029 0.840283 0.273327
O O4 0.217670 0.014586 0.274384
O O5 0.860191 0.156584 0.834901
O O6 0.793568 0.108727 0.714007
O O7 0.543618 0.132752 0.795785
O O8 0.500000 0.000000 0.891202
O O9 0.706929 0.003034 0.822555
#
# Coordination Sequence:
#
# PCOD8312090 Si02
#       4
#    16  16  16  16
#     4  12  26  50  71 103 153 196 249 297 365 460
#     4  12  27  45  72 104 146 201 245 302 367 445
#     4  12  21  41  74 112 142 179 240 316 393 436
#     4  12  21  44  72 105 145 182 241 314 379 433
#
# _framework density 22.691345999999999
#
# number of rings (size 3 to 8) (size 9 to 14) (size 15 to 20)
#    0.000    0.000    7.500    3.000    0.000    2.500 
#    4.500    2.500    0.000    0.000    0.000    0.000 
#    0.000    0.000    0.000    0.000    0.000    0.000 
#
# Total GULP energy -396491.149237 kJ/mol
# GULP energy per Si atom -12390.348414 kJ/mol
# Density = 2.263970 g / cm^3
# Si number density = 22.691346 Si / 1000 Ang^3
#
#
#
# Elastic Constant Matrix: (Units=GPa)
#
#
# Indices 1 2 3 4 5 6 
#
# 1 114.6509 28.5610 17.9525 0.0000 0.0000 0.0000
# 2 28.5610 114.6509 17.9525 0.0000 0.0000 0.0000
# 3 17.9525 17.9525 71.5388 0.0000 0.0000 0.0000
# 4 0.0000 0.0000 0.0000 36.8149 0.0000 0.0000
# 5 0.0000 0.0000 0.0000 0.0000 36.8149 0.0000
# 6 0.0000 0.0000 0.0000 0.0000 0.0000 48.2655
#
#
#
# Elastic Compliance Matrix: (Units=1/GPa)
#
#
# Indices 1 2 3 4 5 6 
#
# 1 0.009534 -0.002082 -0.001870 0.000000 0.000000 0.000000
# 2 -0.002082 0.009534 -0.001870 0.000000 0.000000 0.000000
# 3 -0.001870 -0.001870 0.014917 0.000000 0.000000 0.000000
# 4 0.000000 0.000000 0.000000 0.027163 0.000000 0.000000
# 5 0.000000 0.000000 0.000000 0.000000 0.027163 0.000000
# 6 0.000000 0.000000 0.000000 0.000000 0.000000 0.020719
#
#
# Mechanical properties :
#
#
# Convention : Reuss Voigt Hill
#
# Bulk Modulus (GPa) = 44.76240 47.75249 46.25745
# Shear Modulus (GPa) = 39.02607 40.13736 39.58172
#
# Velocity S-wave (km/s) = 4.15163 4.21032 4.18108
# Velocity P-wave (km/s) = 6.53841 6.68773 6.61349
#
# Compressibility (1/GPa) = 0.02234018
#
# Stress axis : x y z
#
# Youngs Moduli (GPa) = 104.89195 104.89195 67.03786
#
# Poissons Ratio (x) = 0.21840 0.12536
# Poissons Ratio (y) = 0.21840 0.12536
# Poissons Ratio (z) = 0.19614 0.19614
#
# Static dielectric constant tensor:
#      x y z
#    x 4.199590 0.000000 0.000000 
#    y 0.000000 4.199590 0.000000 
#    z 0.000000 0.000000 3.973470 
# 
# 
# High freq. dielectric constant tensor:
#      x y z
#    x 1.911980 0.000000 0.000000 
#    y 0.000000 1.911980 0.000000 
#    z 0.000000 0.000000 1.879960 
# 
# From -- ./inp_files/6914.got.cif
#   From: 2010.03.12/outbox.cif.g09.slc.cpg/sg122_4_cif.got.tgz:6914.got - 2010.04.06 16:17:16.
