data_PCOD8312629
_publ_section_title
;
Structure prediction by ZEFSAII (Michael W. Deem and Ramdas Pophale) SiO2 
 PCOD8312629
Probable space group: P 4/M M M
;
_chemical_formula_sum "Si O2"
_cell_formula_units_Z 88
_cell_length_a 18.911602
_cell_length_b 18.911602
_cell_length_c 13.631346
_cell_angle_alpha 90.000000
_cell_angle_beta 90.000000
_cell_angle_gamma 90.000000
_cell_volume 4875.233043
_symmetry_space_group_name_H-M "P 4/M M M"
_symmetry_group_IT_number 123
_symmetry_cell_setting 'tetragonal'
loop_
_space_group_symop_operation_xyz
x,y,z
-y,x,z
-x,-y,z
y,-x,z
x,-y,-z
-x,y,-z
y,x,-z
-y,-x,-z
-x,-y,-z
y,-x,-z
x,y,-z
-y,x,-z
-x,y,z
x,-y,z
-y,-x,z
y,x,z
loop_
_atom_site_type_symbol
_atom_site_label
_atom_site_fract_x
_atom_site_fract_y
_atom_site_fract_z
Si Si1 0.919373 0.804170 0.278981
Si Si2 0.666055 0.079956 0.611609
Si Si3 0.580474 0.188858 0.893050
Si Si4 0.416567 0.696766 0.500000
Si Si5 0.080144 0.296096 0.108976
Si Si6 0.581377 0.791771 0.318549
O O1 0.872303 0.872303 0.300793
O O2 0.912462 0.749791 0.369282
O O3 0.890657 0.763862 0.181971
O O4 0.000000 0.830087 0.265226
O O5 0.650367 0.099246 0.500000
O O6 0.622446 0.134043 0.678033
O O7 0.641701 0.000000 0.636522
O O8 0.500000 0.160827 0.890838
O O9 0.631105 0.122067 0.884365
O O10 0.592032 0.237399 0.794455
O O11 0.594168 0.227655 0.000000
O O12 0.500000 0.682903 0.500000
O O13 0.378967 0.621034 0.500000
O O14 0.391013 0.737545 0.598702
O O15 0.000000 0.314337 0.139978
O O16 0.084620 0.263909 0.000000
O O17 0.500000 0.807445 0.341767
#
# Coordination Sequence:
#
# PCOD8312629 Si02
#       6
#    16  16  16   8  16  16
#     4  10  21  36  52  70  92 122 165 216 270 321
#     4  10  20  34  50  73 105 138 171 206 253 314
#     4   9  17  29  47  73 108 147 177 203 241 296
#     4  10  22  39  59  83 109 139 176 218 262 304
#     4   9  17  30  47  68  96 128 165 210 255 301
#     4  10  19  33  52  79 113 143 176 214 251 297
#
# _framework density 18.050419000000002
#
# number of rings (size 3 to 8) (size 9 to 14) (size 15 to 20)
#    0.000    2.364    2.727    0.000    0.000    2.455 
#    0.000    4.545    0.000    0.545    0.000    5.091 
#    0.000    0.000    0.000    7.091    0.000    0.000 
#
# Total GULP energy -1090232.075426 kJ/mol
# GULP energy per Si atom -12389.000857 kJ/mol
# Density = 1.800934 g / cm^3
# Si number density = 18.050419 Si / 1000 Ang^3
#
#
#
# Elastic Constant Matrix: (Units=GPa)
#
#
# Indices 1 2 3 4 5 6 
#
# 1 55.7593 33.5365 23.0467 0.0000 0.0000 0.0000
# 2 33.5365 55.7620 23.0477 0.0000 0.0000 0.0000
# 3 23.0467 23.0477 138.6633 0.0000 0.0000 0.0000
# 4 0.0000 0.0000 0.0000 16.7756 0.0000 0.0000
# 5 0.0000 0.0000 0.0000 0.0000 16.7757 0.0000
# 6 0.0000 0.0000 0.0000 0.0000 0.0000 26.6490
#
#
#
# Elastic Compliance Matrix: (Units=1/GPa)
#
#
# Indices 1 2 3 4 5 6 
#
# 1 0.028623 -0.016373 -0.002036 0.000000 0.000000 0.000000
# 2 -0.016373 0.028622 -0.002036 0.000000 0.000000 0.000000
# 3 -0.002036 -0.002036 0.007889 0.000000 0.000000 0.000000
# 4 0.000000 0.000000 0.000000 0.059610 0.000000 0.000000
# 5 0.000000 0.000000 0.000000 0.000000 0.059610 0.000000
# 6 0.000000 0.000000 0.000000 0.000000 0.000000 0.037525
#
#
# Mechanical properties :
#
#
# Convention : Reuss Voigt Hill
#
# Bulk Modulus (GPa) = 41.24798 45.49404 43.37101
# Shear Modulus (GPa) = 18.46032 23.41030 20.93531
#
# Velocity S-wave (km/s) = 3.20145 3.60521 3.40931
# Velocity P-wave (km/s) = 6.04705 6.52600 6.29109
#
# Compressibility (1/GPa) = 0.02424361
#
# Stress axis : x y z
#
# Youngs Moduli (GPa) = 34.93637 34.93796 126.76651
#
# Poissons Ratio (x) = 0.57205 0.25809
# Poissons Ratio (y) = 0.57202 0.25810
# Poissons Ratio (z) = 0.07113 0.07114
#
# Static dielectric constant tensor:
#      x y z
#    x 3.008120 0.000000 0.000000 
#    y 0.000000 3.008120 0.000000 
#    z 0.000000 0.000000 3.981700 
# 
# 
# High freq. dielectric constant tensor:
#      x y z
#    x 1.666560 0.000000 0.000000 
#    y 0.000000 1.666560 0.000000 
#    z 0.000000 0.000000 1.731100 
# 
# From -- ./inp_files/4041.got.cif
#   From: 2010.03.12/outbox.cif.g09.slc.cpg/sg123_3_cif.got.tgz:4041.got - 2010.04.06 16:26:55.
