data_PCOD8312957
_publ_section_title
;
Structure prediction by ZEFSAII (Michael W. Deem and Ramdas Pophale) SiO2 
 PCOD8312957
Probable space group: P 4/M M M
;
_chemical_formula_sum "Si O2"
_cell_formula_units_Z 96
_cell_length_a 24.228468
_cell_length_b 24.228468
_cell_length_c 9.039075
_cell_angle_alpha 90.000000
_cell_angle_beta 90.000000
_cell_angle_gamma 90.000000
_cell_volume 5306.105709
_symmetry_space_group_name_H-M "P 4/M M M"
_symmetry_group_IT_number 123
_symmetry_cell_setting 'tetragonal'
loop_
_space_group_symop_operation_xyz
x,y,z
-y,x,z
-x,-y,z
y,-x,z
x,-y,-z
-x,y,-z
y,x,-z
-y,-x,-z
-x,-y,-z
y,-x,-z
x,y,-z
-y,x,-z
-x,y,z
x,-y,z
-y,-x,z
y,x,z
loop_
_atom_site_type_symbol
_atom_site_label
_atom_site_fract_x
_atom_site_fract_y
_atom_site_fract_z
Si Si1 0.354739 0.560403 0.324477
Si Si2 0.228639 0.140791 0.174688
Si Si3 0.646490 0.850783 0.175636
Si Si4 0.063595 0.563520 0.326439
Si Si5 0.735954 0.352848 0.326509
Si Si6 0.150401 0.062081 0.328822
O O1 0.356352 0.556277 0.500000
O O2 0.349588 0.500000 0.251710
O O3 0.411009 0.588992 0.267248
O O4 0.303203 0.597306 0.277679
O O5 0.195342 0.195342 0.232818
O O6 0.291217 0.138537 0.231591
O O7 0.200999 0.085737 0.236112
O O8 0.226472 0.139577 0.000000
O O9 0.604691 0.895961 0.240516
O O10 0.633894 0.789763 0.232010
O O11 0.641379 0.852846 0.000000
O O12 0.072836 0.572236 0.500000
O O13 0.077204 0.500000 0.283350
O O14 0.000000 0.576914 0.284202
O O15 0.750218 0.354329 0.500000
O O16 0.705515 0.294485 0.287781
O O17 0.166462 0.066584 0.500000
O O18 0.094463 0.094463 0.292621
O O19 0.139893 0.000000 0.277973
#
# Coordination Sequence:
#
# PCOD8312957 Si02
#       6
#    16  16  16  16  16  16
#     4   8  14  25  42  66  96 129 165 205 248 292
#     4   9  19  35  51  69  99 136 168 201 244 292
#     4  11  22  34  53  80 105 131 166 207 254 310
#     4   9  20  40  61  78 100 132 168 206 250 302
#     4   9  18  32  49  71 102 139 176 213 253 299
#     4   9  18  32  50  73 100 130 165 205 247 289
#
# _framework density 18.092365000000001
#
# number of rings (size 3 to 8) (size 9 to 14) (size 15 to 20)
#    0.000    2.833    0.000    2.500    0.000    5.000 
#    0.000    9.167    0.000    0.000    0.000    2.333 
#    0.000    0.000    0.000    3.667    0.000    3.667 
#
# Total GULP energy -1189913.251502 kJ/mol
# GULP energy per Si atom -12394.929703 kJ/mol
# Density = 1.805119 g / cm^3
# Si number density = 18.092365 Si / 1000 Ang^3
#
#
#
# Elastic Constant Matrix: (Units=GPa)
#
#
# Indices 1 2 3 4 5 6 
#
# 1 123.6354 98.9608 35.1440 0.0000 0.0000 0.0000
# 2 98.9608 123.6354 35.1440 0.0000 0.0000 0.0000
# 3 35.1440 35.1440 28.4952 0.0000 0.0000 0.0000
# 4 0.0000 0.0000 0.0000 18.7633 0.0000 0.0000
# 5 0.0000 0.0000 0.0000 0.0000 18.7633 0.0000
# 6 0.0000 0.0000 0.0000 0.0000 0.0000 25.1682
#
#
#
# Elastic Compliance Matrix: (Units=1/GPa)
#
#
# Indices 1 2 3 4 5 6 
#
# 1 0.023943 -0.016585 -0.009075 0.000000 0.000000 0.000000
# 2 -0.016585 0.023943 -0.009075 0.000000 0.000000 0.000000
# 3 -0.009075 -0.009075 0.057478 0.000000 0.000000 0.000000
# 4 0.000000 0.000000 0.000000 0.053296 0.000000 0.000000
# 5 0.000000 0.000000 0.000000 0.000000 0.053296 0.000000
# 6 0.000000 0.000000 0.000000 0.000000 0.000000 0.039733
#
#
# Mechanical properties :
#
#
# Convention : Reuss Voigt Hill
#
# Bulk Modulus (GPa) = 27.85917 68.25153 48.05535
# Shear Modulus (GPa) = 15.00956 19.64009 17.32482
#
# Velocity S-wave (km/s) = 2.88342 3.29834 3.09783
# Velocity P-wave (km/s) = 5.14948 7.23265 6.27807
#
# Compressibility (1/GPa) = 0.03589483
#
# Stress axis : x y z
#
# Youngs Moduli (GPa) = 41.76628 41.76628 17.39794
#
# Poissons Ratio (x) = 0.69269 0.15788
# Poissons Ratio (y) = 0.69269 0.15788
# Poissons Ratio (z) = 0.37902 0.37902
#
# Static dielectric constant tensor:
#      x y z
#    x 3.576520 0.000000 0.000000 
#    y 0.000000 3.576520 0.000000 
#    z 0.000000 0.000000 3.066510 
# 
# 
# High freq. dielectric constant tensor:
#      x y z
#    x 1.706680 0.000000 0.000000 
#    y 0.000000 1.706680 0.000000 
#    z 0.000000 0.000000 1.675750 
# 
# From -- ./inp_files/1641.got.cif
#   From: 2010.03.12/outbox.cif.g09.slc.cpg/sg123_1_cif.got.tgz:1641.got - 2010.04.06 16:26:55.
