data_PCOD8312469
_publ_section_title
;
Structure prediction by ZEFSAII (Michael W. Deem and Ramdas Pophale) SiO2 
 PCOD8312469
Probable space group: P 4/M M M
;
_chemical_formula_sum "Si O2"
_cell_formula_units_Z 104
_cell_length_a 18.043900
_cell_length_b 18.043900
_cell_length_c 18.451328
_cell_angle_alpha 90.000000
_cell_angle_beta 90.000000
_cell_angle_gamma 90.000000
_cell_volume 6007.426310
_symmetry_space_group_name_H-M "P 4/M M M"
_symmetry_group_IT_number 123
_symmetry_cell_setting 'tetragonal'
loop_
_space_group_symop_operation_xyz
x,y,z
-y,x,z
-x,-y,z
y,-x,z
x,-y,-z
-x,y,-z
y,x,-z
-y,-x,-z
-x,-y,-z
y,-x,-z
x,y,-z
-y,x,-z
-x,y,z
x,-y,z
-y,-x,z
y,x,z
loop_
_atom_site_type_symbol
_atom_site_label
_atom_site_fract_x
_atom_site_fract_y
_atom_site_fract_z
Si Si1 0.085150 0.587424 0.693500
Si Si2 0.204084 0.915875 0.916374
Si Si3 0.296080 0.586960 0.500000
Si Si4 0.361355 0.916508 0.857140
Si Si5 0.700259 0.586588 0.219906
Si Si6 0.414759 0.223644 0.077916
Si Si7 0.226155 0.345906 0.358336
O O1 0.105982 0.500000 0.683584
O O2 0.097236 0.610430 0.776271
O O3 0.136584 0.643631 0.645073
O O4 0.000000 0.600764 0.669714
O O5 0.137441 0.862560 0.892286
O O6 0.273839 0.898659 0.864569
O O7 0.176465 0.000000 0.905429
O O8 0.227038 0.902099 0.000000
O O9 0.306400 0.500000 0.500000
O O10 0.377872 0.622129 0.500000
O O11 0.251719 0.612863 0.569992
O O12 0.406947 0.864270 0.910886
O O13 0.377407 0.000000 0.882318
O O14 0.695110 0.500000 0.214998
O O15 0.617646 0.617646 0.229157
O O16 0.734720 0.622042 0.146328
O O17 0.748483 0.609244 0.288202
O O18 0.500000 0.245529 0.074826
O O19 0.378303 0.245915 0.000000
O O20 0.261475 0.261475 0.357044
#
# Coordination Sequence:
#
# PCOD8312469 Si02
#       7
#    16  16   8  16  16  16  16
#     4  10  19  32  53  78 105 137 171 210 255 306
#     4   9  18  31  45  62  86 116 153 200 249 299
#     4  10  20  33  53  79 107 141 176 216 262 308
#     4  10  19  30  46  68  93 122 155 195 244 295
#     4  10  20  34  51  69  92 123 160 204 251 298
#     4  10  20  32  46  65  90 120 156 197 239 289
#     4  10  20  35  55  78 105 137 172 210 253 305
#
# _framework density 17.311906
#
# number of rings (size 3 to 8) (size 9 to 14) (size 15 to 20)
#    0.000    2.154    1.538    2.308    0.000    3.769 
#    0.000    1.923    0.000    4.154    0.000    2.154 
#    0.000    0.308    0.000    0.000    0.000    4.308 
#
# Total GULP energy -1288678.813900 kJ/mol
# GULP energy per Si atom -12391.142441 kJ/mol
# Density = 1.727250 g / cm^3
# Si number density = 17.311906 Si / 1000 Ang^3
#
#
#
# Elastic Constant Matrix: (Units=GPa)
#
#
# Indices 1 2 3 4 5 6 
#
# 1 75.2530 44.7732 28.4680 0.0000 0.0000 0.0000
# 2 44.7732 75.2534 28.4682 0.0000 0.0000 0.0000
# 3 28.4680 28.4682 91.6651 0.0000 0.0000 0.0000
# 4 0.0000 0.0000 0.0000 22.3982 0.0000 0.0000
# 5 0.0000 0.0000 0.0000 0.0000 22.3992 0.0000
# 6 0.0000 0.0000 0.0000 0.0000 0.0000 28.1655
#
#
#
# Elastic Compliance Matrix: (Units=1/GPa)
#
#
# Indices 1 2 3 4 5 6 
#
# 1 0.021290 -0.011519 -0.003034 0.000000 0.000000 0.000000
# 2 -0.011519 0.021290 -0.003035 0.000000 0.000000 0.000000
# 3 -0.003034 -0.003035 0.012794 0.000000 0.000000 0.000000
# 4 0.000000 0.000000 0.000000 0.044646 0.000000 0.000000
# 5 0.000000 0.000000 0.000000 0.000000 0.044645 0.000000
# 6 0.000000 0.000000 0.000000 0.000000 0.000000 0.035504
#
#
# Mechanical properties :
#
#
# Convention : Reuss Voigt Hill
#
# Bulk Modulus (GPa) = 49.51002 49.51003 49.51003
# Shear Modulus (GPa) = 22.51470 23.95672 23.23571
#
# Velocity S-wave (km/s) = 3.61020 3.72402 3.66755
# Velocity P-wave (km/s) = 6.78520 6.86673 6.82609
#
# Compressibility (1/GPa) = 0.02019793
#
# Stress axis : x y z
#
# Youngs Moduli (GPa) = 46.97100 46.97116 78.16086
#
# Poissons Ratio (x) = 0.54105 0.23718
# Poissons Ratio (y) = 0.54105 0.23718
# Poissons Ratio (z) = 0.14253 0.14254
#
# Static dielectric constant tensor:
#      x y z
#    x 3.274090 0.000000 0.000000 
#    y 0.000000 3.274090 0.000000 
#    z 0.000000 0.000000 3.353390 
# 
# 
# High freq. dielectric constant tensor:
#      x y z
#    x 1.660480 0.000000 0.000000 
#    y 0.000000 1.660480 0.000000 
#    z 0.000000 0.000000 1.660350 
# 
# From -- ./inp_files/5629.got.cif
#   From: 2010.03.12/outbox.cif.g09.slc.cpg/sg123_3_cif.got.tgz:5629.got - 2010.04.06 16:26:55.
