data_PCOD8312221
_publ_section_title
;
Structure prediction by ZEFSAII (Michael W. Deem and Ramdas Pophale) SiO2 
 PCOD8312221
Probable space group: P 4/M M M
;
_chemical_formula_sum "Si O2"
_cell_formula_units_Z 112
_cell_length_a 19.491749
_cell_length_b 19.491749
_cell_length_c 19.659181
_cell_angle_alpha 90.000000
_cell_angle_beta 90.000000
_cell_angle_gamma 90.000000
_cell_volume 7469.078805
_symmetry_space_group_name_H-M "P 4/M M M"
_symmetry_group_IT_number 123
_symmetry_cell_setting 'tetragonal'
loop_
_space_group_symop_operation_xyz
x,y,z
-y,x,z
-x,-y,z
y,-x,z
x,-y,-z
-x,y,-z
y,x,-z
-y,-x,-z
-x,-y,-z
y,-x,-z
x,y,-z
-y,x,-z
-x,y,z
x,-y,z
-y,-x,z
y,x,z
loop_
_atom_site_type_symbol
_atom_site_label
_atom_site_fract_x
_atom_site_fract_y
_atom_site_fract_z
Si Si1 0.295749 0.815149 0.580133
Si Si2 0.425402 0.318831 0.738100
Si Si3 0.923169 0.581438 0.799800
Si Si4 0.173040 0.579517 0.321963
Si Si5 0.418797 0.835515 0.075227
Si Si6 0.423393 0.316184 0.101540
Si Si7 0.815849 0.076582 0.419152
O O1 0.308020 0.816150 0.500000
O O2 0.255013 0.744987 0.600457
O O3 0.370457 0.822858 0.613554
O O4 0.250640 0.880337 0.603978
O O5 0.500000 0.339874 0.708827
O O6 0.369445 0.369445 0.704816
O O7 0.408618 0.241203 0.720875
O O8 0.425573 0.325054 0.818306
O O9 0.923881 0.500000 0.806377
O O10 0.888155 0.601933 0.728432
O O11 0.883455 0.613004 0.865439
O O12 0.000000 0.611547 0.799762
O O13 0.165017 0.500000 0.346112
O O14 0.500000 0.833684 0.084808
O O15 0.391808 0.757808 0.082601
O O16 0.398762 0.863917 0.000000
O O17 0.500000 0.324997 0.071041
O O18 0.374147 0.374147 0.069319
O O19 0.816938 0.072993 0.500000
O O20 0.884672 0.115329 0.393479
O O21 0.813328 0.000000 0.387596
#
# Coordination Sequence:
#
# PCOD8312221 Si02
#       7
#    16  16  16  16  16  16  16
#     4   9  18  31  45  62  85 112 142 175 210 251
#     4   9  16  26  41  59  79 104 134 170 212 256
#     4   9  17  29  43  60  81 102 129 167 210 253
#     4  10  18  29  45  62  82 108 139 176 217 258
#     4   9  16  27  42  58  78 104 134 168 206 248
#     4   9  16  26  39  56  80 108 139 174 211 252
#     4   8  14  25  41  61  84 108 132 159 193 233
#
# _framework density 14.995155
#
# number of rings (size 3 to 8) (size 9 to 14) (size 15 to 20)
#    0.000    3.000    1.429    1.286    0.000    1.857 
#    0.000    3.571    0.000    0.000    0.000    6.000 
#    0.000    0.000    0.000   13.286    0.000    0.143 
#
# Total GULP energy -1387860.264188 kJ/mol
# GULP energy per Si atom -12391.609502 kJ/mol
# Density = 1.496103 g / cm^3
# Si number density = 14.995155 Si / 1000 Ang^3
#
#
#
# Elastic Constant Matrix: (Units=GPa)
#
#
# Indices 1 2 3 4 5 6 
#
# 1 88.4952 45.9549 33.2987 0.0000 0.0000 0.0000
# 2 45.9549 88.4952 33.2987 0.0000 0.0000 0.0000
# 3 33.2987 33.2987 52.0389 0.0000 0.0000 0.0000
# 4 0.0000 0.0000 0.0000 1.4833 0.0000 0.0000
# 5 0.0000 0.0000 0.0000 0.0000 1.4833 0.0000
# 6 0.0000 0.0000 0.0000 0.0000 0.0000 9.0567
#
#
#
# Elastic Compliance Matrix: (Units=1/GPa)
#
#
# Indices 1 2 3 4 5 6 
#
# 1 0.017198 -0.006309 -0.006968 0.000000 0.000000 0.000000
# 2 -0.006309 0.017198 -0.006968 0.000000 0.000000 0.000000
# 3 -0.006968 -0.006968 0.028133 0.000000 0.000000 0.000000
# 4 0.000000 0.000000 0.000000 0.674161 0.000000 0.000000
# 5 0.000000 0.000000 0.000000 0.000000 0.674161 0.000000
# 6 0.000000 0.000000 0.000000 0.000000 0.000000 0.110415
#
#
# Mechanical properties :
#
#
# Convention : Reuss Voigt Hill
#
# Bulk Modulus (GPa) = 45.37065 50.45935 47.91500
# Shear Modulus (GPa) = 3.18653 10.16981 6.67817
#
# Velocity S-wave (km/s) = 1.45933 2.60706 2.11263
# Velocity P-wave (km/s) = 5.75865 6.54109 6.16230
#
# Compressibility (1/GPa) = 0.02204068
#
# Stress axis : x y z
#
# Youngs Moduli (GPa) = 58.14607 58.14607 35.54501
#
# Poissons Ratio (x) = 0.36685 0.24767
# Poissons Ratio (y) = 0.36685 0.24767
# Poissons Ratio (z) = 0.40514 0.40514
#
# Static dielectric constant tensor:
#      x y z
#    x 2.990720 0.000000 0.000000 
#    y 0.000000 2.990720 0.000000 
#    z 0.000000 0.000000 2.679540 
# 
# 
# High freq. dielectric constant tensor:
#      x y z
#    x 1.559410 0.000000 0.000000 
#    y 0.000000 1.559410 0.000000 
#    z 0.000000 0.000000 1.551450 
# 
# From -- ./inp_files/6683.got.cif
#   From: 2010.03.12/outbox.cif.g09.slc.cpg/sg123_4_cif.got.tgz:6683.got - 2010.04.06 16:26:55.
