data_PCOD8312660
_publ_section_title
;
Structure prediction by ZEFSAII (Michael W. Deem and Ramdas Pophale) SiO2 
 PCOD8312660
Probable space group: P 4/M M M
;
_chemical_formula_sum "Si O2"
_cell_formula_units_Z 128
_cell_length_a 20.047005
_cell_length_b 20.047005
_cell_length_c 18.719970
_cell_angle_alpha 90.000000
_cell_angle_beta 90.000000
_cell_angle_gamma 90.000000
_cell_volume 7523.226649
_symmetry_space_group_name_H-M "P 4/M M M"
_symmetry_group_IT_number 123
_symmetry_cell_setting 'tetragonal'
loop_
_space_group_symop_operation_xyz
x,y,z
-y,x,z
-x,-y,z
y,-x,z
x,-y,-z
-x,y,-z
y,x,-z
-y,-x,-z
-x,-y,-z
y,-x,-z
x,y,-z
-y,x,-z
-x,y,z
x,-y,z
-y,-x,z
y,x,z
loop_
_atom_site_type_symbol
_atom_site_label
_atom_site_fract_x
_atom_site_fract_y
_atom_site_fract_z
Si Si1 0.145189 0.250066 0.293029
Si Si2 0.318590 0.207245 0.169761
Si Si3 0.074622 0.694224 0.917238
Si Si4 0.679345 0.076806 0.418879
Si Si5 0.575713 0.318990 0.180616
Si Si6 0.821657 0.072795 0.164735
Si Si7 0.574397 0.186800 0.582192
Si Si8 0.319972 0.425206 0.650364
O O1 0.199075 0.199075 0.324269
O O2 0.183538 0.311148 0.252662
O O3 0.099667 0.267356 0.360626
O O4 0.099086 0.216482 0.233932
O O5 0.250504 0.250504 0.149674
O O6 0.333225 0.140390 0.123480
O O7 0.383687 0.252816 0.158260
O O8 0.072673 0.773060 0.903291
O O9 0.000000 0.665626 0.893420
O O10 0.085418 0.678928 0.000000
O O11 0.705925 0.088920 0.500000
O O12 0.613433 0.119000 0.403390
O O13 0.660892 0.000000 0.407115
O O14 0.500000 0.317431 0.149169
O O15 0.615300 0.384700 0.151973
O O16 0.573131 0.322208 0.265101
O O17 0.884041 0.115959 0.142455
O O18 0.848669 0.000000 0.183202
O O19 0.576282 0.207368 0.500000
O O20 0.500000 0.172581 0.609571
O O21 0.605256 0.249168 0.625314
O O22 0.329290 0.500000 0.619187
O O23 0.378914 0.378914 0.619778
#
# Coordination Sequence:
#
# PCOD8312660 Si02
#       8
#    16  16  16  16  16  16  16  16
#     4   9  17  30  46  63  86 113 143 181 225 273
#     4   9  17  29  47  70  93 121 157 191 222 261
#     4   9  17  29  46  69  96 123 151 184 221 262
#     4  10  20  31  44  63  84 108 143 188 233 275
#     4   9  17  29  46  68  93 120 150 186 228 271
#     4   9  17  28  43  63  87 118 150 179 216 258
#     4   9  18  31  44  58  79 110 145 178 218 269
#     4   9  17  29  45  65  90 119 150 185 223 265
#
# _framework density 17.013977000000001
#
# number of rings (size 3 to 8) (size 9 to 14) (size 15 to 20)
#    0.000    2.875    0.000    2.250    0.000    4.125 
#    0.000    3.750    0.000    0.750    0.000    4.375 
#    0.000    0.000    0.000   14.375    0.000    1.250 
#
# Total GULP energy -1585740.860452 kJ/mol
# GULP energy per Si atom -12388.600472 kJ/mol
# Density = 1.697525 g / cm^3
# Si number density = 17.013977 Si / 1000 Ang^3
#
#
#
# Elastic Constant Matrix: (Units=GPa)
#
#
# Indices 1 2 3 4 5 6 
#
# 1 109.6483 56.8191 24.8553 0.0000 0.0000 0.0000
# 2 56.8191 109.6483 24.8553 0.0000 0.0000 0.0000
# 3 24.8553 24.8553 40.3055 0.0000 0.0000 0.0000
# 4 0.0000 0.0000 0.0000 15.7074 0.0000 0.0000
# 5 0.0000 0.0000 0.0000 0.0000 15.7074 0.0000
# 6 0.0000 0.0000 0.0000 0.0000 0.0000 18.8174
#
#
#
# Elastic Compliance Matrix: (Units=1/GPa)
#
#
# Indices 1 2 3 4 5 6 
#
# 1 0.013146 -0.005783 -0.004541 0.000000 0.000000 0.000000
# 2 -0.005783 0.013146 -0.004541 0.000000 0.000000 0.000000
# 3 -0.004541 -0.004541 0.030411 0.000000 0.000000 0.000000
# 4 0.000000 0.000000 0.000000 0.063664 0.000000 0.000000
# 5 0.000000 0.000000 0.000000 0.000000 0.063664 0.000000
# 6 0.000000 0.000000 0.000000 0.000000 0.000000 0.053142
#
#
# Mechanical properties :
#
#
# Convention : Reuss Voigt Hill
#
# Bulk Modulus (GPa) = 37.07221 52.51795 44.79508
# Shear Modulus (GPa) = 18.12294 20.25126 19.18710
#
# Velocity S-wave (km/s) = 3.26725 3.45377 3.36181
# Velocity P-wave (km/s) = 6.00581 6.84392 6.43852
#
# Compressibility (1/GPa) = 0.02697438
#
# Stress axis : x y z
#
# Youngs Moduli (GPa) = 76.06867 76.06867 32.88314
#
# Poissons Ratio (x) = 0.43990 0.14931
# Poissons Ratio (y) = 0.43990 0.14931
# Poissons Ratio (z) = 0.34540 0.34540
#
# Static dielectric constant tensor:
#      x y z
#    x 3.312190 0.000000 0.000000 
#    y 0.000000 3.312190 0.000000 
#    z 0.000000 0.000000 2.942410 
# 
# 
# High freq. dielectric constant tensor:
#      x y z
#    x 1.652350 0.000000 0.000000 
#    y 0.000000 1.652350 0.000000 
#    z 0.000000 0.000000 1.632460 
# 
# From -- ./inp_files/6019.got.cif
#   From: 2010.03.12/outbox.cif.g09.slc.cpg/sg123_4_cif.got.tgz:6019.got - 2010.04.06 16:26:55.
