data_PCOD8312225
_publ_section_title
;
Structure prediction by ZEFSAII (Michael W. Deem and Ramdas Pophale) SiO2 
 PCOD8312225
Probable space group: P 4/M M M
;
_chemical_formula_sum "Si O2"
_cell_formula_units_Z 80
_cell_length_a 19.849559
_cell_length_b 19.849559
_cell_length_c 13.435070
_cell_angle_alpha 90.000000
_cell_angle_beta 90.000000
_cell_angle_gamma 90.000000
_cell_volume 5293.484655
_symmetry_space_group_name_H-M "P 4/M M M"
_symmetry_group_IT_number 123
_symmetry_cell_setting 'tetragonal'
loop_
_space_group_symop_operation_xyz
x,y,z
-y,x,z
-x,-y,z
y,-x,z
x,-y,-z
-x,y,-z
y,x,-z
-y,-x,-z
-x,-y,-z
y,-x,-z
x,y,-z
-y,x,-z
-x,y,z
x,-y,z
-y,-x,z
y,x,z
loop_
_atom_site_type_symbol
_atom_site_label
_atom_site_fract_x
_atom_site_fract_y
_atom_site_fract_z
Si Si1 0.185086 0.923816 0.887387
Si Si2 0.730326 0.838926 0.254802
Si Si3 0.077429 0.500000 0.262181
Si Si4 0.634548 0.922870 0.615053
Si Si5 0.500000 0.200770 0.114703
Si Si6 0.357649 0.747711 0.113848
O O1 0.116662 0.883339 0.871062
O O2 0.242391 0.898948 0.813291
O O3 0.167402 0.000000 0.861565
O O4 0.212132 0.915397 0.000000
O O5 0.790279 0.790279 0.294041
O O6 0.692499 0.872198 0.347771
O O7 0.679559 0.798184 0.186442
O O8 0.091531 0.434686 0.328330
O O9 0.129631 0.500000 0.171425
O O10 0.000000 0.500000 0.222398
O O11 0.621675 0.907353 0.500000
O O12 0.657894 0.000000 0.631333
O O13 0.563526 0.248438 0.140748
O O14 0.500000 0.179506 0.000000
O O15 0.328133 0.671868 0.129415
O O16 0.344940 0.770842 0.000000
#
# Coordination Sequence:
#
# PCOD8312225 Si02
#       6
#    16  16   8  16   8  16
#     4   9  17  28  42  61  85 114 148 184 224 271
#     4  10  18  29  46  65  88 115 144 185 229 268
#     4  10  19  33  48  65  92 121 152 184 218 263
#     4  10  20  33  48  64  85 117 154 188 225 270
#     4  10  18  30  49  71  96 123 149 181 220 257
#     4   9  17  29  46  68  93 121 149 175 212 265
#
# _framework density 15.112918000000001
#
# number of rings (size 3 to 8) (size 9 to 14) (size 15 to 20)
#    0.000    2.400    2.000    1.500    0.000    4.400 
#    0.000    1.000    0.000    0.300    0.000    2.100 
#    0.000    0.000    0.000   18.600    0.000    6.300 
#
# Total GULP energy -991735.980177 kJ/mol
# GULP energy per Si atom -12396.699752 kJ/mol
# Density = 1.507852 g / cm^3
# Si number density = 15.112918 Si / 1000 Ang^3
#
#
#
# Elastic Constant Matrix: (Units=GPa)
#
#
# Indices 1 2 3 4 5 6 
#
# 1 96.3660 50.2588 44.5298 0.0000 0.0000 0.0000
# 2 50.2588 96.3660 44.5298 0.0000 0.0000 0.0000
# 3 44.5298 44.5298 64.8026 0.0000 0.0000 0.0000
# 4 0.0000 0.0000 0.0000 20.4915 0.0000 0.0000
# 5 0.0000 0.0000 0.0000 0.0000 20.4915 0.0000
# 6 0.0000 0.0000 0.0000 0.0000 0.0000 22.3568
#
#
#
# Elastic Compliance Matrix: (Units=1/GPa)
#
#
# Indices 1 2 3 4 5 6 
#
# 1 0.016697 -0.004991 -0.008044 0.000000 0.000000 0.000000
# 2 -0.004991 0.016697 -0.008044 0.000000 0.000000 0.000000
# 3 -0.008044 -0.008044 0.026486 0.000000 0.000000 0.000000
# 4 0.000000 0.000000 0.000000 0.048801 0.000000 0.000000
# 5 0.000000 0.000000 0.000000 0.000000 0.048801 0.000000
# 6 0.000000 0.000000 0.000000 0.000000 0.000000 0.044729
#
#
# Mechanical properties :
#
#
# Convention : Reuss Voigt Hill
#
# Bulk Modulus (GPa) = 56.42461 59.57463 57.99962
# Shear Modulus (GPa) = 19.97782 20.54901 20.26342
#
# Velocity S-wave (km/s) = 3.63974 3.69141 3.66567
# Velocity P-wave (km/s) = 7.42159 7.59433 7.50846
#
# Compressibility (1/GPa) = 0.01772276
#
# Stress axis : x y z
#
# Youngs Moduli (GPa) = 59.88998 59.88998 37.75524
#
# Poissons Ratio (x) = 0.29893 0.30370
# Poissons Ratio (y) = 0.29893 0.30370
# Poissons Ratio (z) = 0.48175 0.48175
#
# Static dielectric constant tensor:
#      x y z
#    x 3.015130 0.000000 0.000000 
#    y 0.000000 3.015130 0.000000 
#    z 0.000000 0.000000 2.799060 
# 
# 
# High freq. dielectric constant tensor:
#      x y z
#    x 1.577540 0.000000 0.000000 
#    y 0.000000 1.577540 0.000000 
#    z 0.000000 0.000000 1.566610 
# 
# From -- ./inp_files/3989.got.cif
#   From: 2010.03.12/outbox.cif.g09.slc.cpg/sg123_2_cif.got.tgz:3989.got - 2010.04.06 16:26:55.
