data_PCOD8312879
_publ_section_title
;
Structure prediction by ZEFSAII (Michael W. Deem and Ramdas Pophale) SiO2 
 PCOD8312879
Probable space group: P 4/M M M
;
_chemical_formula_sum "Si O2"
_cell_formula_units_Z 72
_cell_length_a 13.854776
_cell_length_b 13.854776
_cell_length_c 22.965320
_cell_angle_alpha 90.000000
_cell_angle_beta 90.000000
_cell_angle_gamma 90.000000
_cell_volume 4408.303821
_symmetry_space_group_name_H-M "P 4/M M M"
_symmetry_group_IT_number 123
_symmetry_cell_setting 'tetragonal'
loop_
_space_group_symop_operation_xyz
x,y,z
-y,x,z
-x,-y,z
y,-x,z
x,-y,-z
-x,y,-z
y,x,-z
-y,-x,-z
-x,-y,-z
y,-x,-z
x,y,-z
-y,x,-z
-x,y,z
x,-y,z
-y,-x,z
y,x,z
loop_
_atom_site_type_symbol
_atom_site_label
_atom_site_fract_x
_atom_site_fract_y
_atom_site_fract_z
Si Si1 0.887455 0.270045 0.093180
Si Si2 0.114802 0.393819 0.329620
Si Si3 0.889241 0.733990 0.565012
Si Si4 0.384704 0.774746 0.000000
Si Si5 0.109954 0.264210 0.774536
O O1 0.831452 0.168549 0.082147
O O2 0.838050 0.354834 0.056059
O O3 0.877668 0.304165 0.160026
O O4 0.000000 0.255722 0.075861
O O5 0.160800 0.500000 0.329641
O O6 0.152022 0.341231 0.387946
O O7 0.151880 0.341677 0.271042
O O8 0.000000 0.399849 0.329756
O O9 0.875485 0.690200 0.500000
O O10 0.834491 0.834491 0.571676
O O11 0.000000 0.757914 0.578026
O O12 0.500000 0.756260 0.000000
O O13 0.328240 0.671761 0.000000
O O14 0.163975 0.163975 0.766221
O O15 0.000000 0.240560 0.759864
#
# Coordination Sequence:
#
# PCOD8312879 Si02
#       5
#    16  16  16   8  16
#     4   9  18  31  47  70  98 126 156 187 221 267
#     4   9  17  28  41  58  82 113 148 183 216 250
#     4   9  17  28  42  61  85 112 141 174 213 260
#     4  10  21  36  52  70  92 118 153 198 242 282
#     4   9  17  29  45  66  93 122 150 180 213 253
#
# _framework density 16.332811
#
# number of rings (size 3 to 8) (size 9 to 14) (size 15 to 20)
#    0.000    2.889    0.000    1.000    0.000    3.000 
#    0.000    7.778    0.000    6.000    0.000    0.000 
#    0.000    7.111    0.000    9.778    0.000    0.889 
#
# Total GULP energy -892482.428629 kJ/mol
# GULP energy per Si atom -12395.589287 kJ/mol
# Density = 1.629564 g / cm^3
# Si number density = 16.332811 Si / 1000 Ang^3
#
#
#
# Elastic Constant Matrix: (Units=GPa)
#
#
# Indices 1 2 3 4 5 6 
#
# 1 93.0691 43.9148 55.7442 0.0000 0.0000 0.0000
# 2 43.9148 93.0691 55.7442 0.0000 0.0000 0.0000
# 3 55.7442 55.7442 127.0631 0.0000 0.0000 0.0000
# 4 0.0000 0.0000 0.0000 21.8764 0.0000 0.0000
# 5 0.0000 0.0000 0.0000 0.0000 21.8762 0.0000
# 6 0.0000 0.0000 0.0000 0.0000 0.0000 8.5484
#
#
#
# Elastic Compliance Matrix: (Units=1/GPa)
#
#
# Indices 1 2 3 4 5 6 
#
# 1 0.015849 -0.004495 -0.004981 0.000000 0.000000 0.000000
# 2 -0.004495 0.015849 -0.004981 0.000000 0.000000 0.000000
# 3 -0.004981 -0.004981 0.012241 0.000000 0.000000 0.000000
# 4 0.000000 0.000000 0.000000 0.045711 0.000000 0.000000
# 5 0.000000 0.000000 0.000000 0.000000 0.045712 0.000000
# 6 0.000000 0.000000 0.000000 0.000000 0.000000 0.116980
#
#
# Mechanical properties :
#
#
# Convention : Reuss Voigt Hill
#
# Bulk Modulus (GPa) = 66.55890 69.33419 67.94655
# Shear Modulus (GPa) = 17.46629 20.98009 19.22319
#
# Velocity S-wave (km/s) = 3.27371 3.58793 3.43442
# Velocity P-wave (km/s) = 7.42494 7.72705 7.57750
#
# Compressibility (1/GPa) = 0.01502429
#
# Stress axis : x y z
#
# Youngs Moduli (GPa) = 63.09477 63.09471 81.69408
#
# Poissons Ratio (x) = 0.28360 0.40694
# Poissons Ratio (y) = 0.28361 0.40694
# Poissons Ratio (z) = 0.31429 0.31429
#
# Static dielectric constant tensor:
#      x y z
#    x 2.941590 0.000000 0.000000 
#    y 0.000000 2.941590 0.000000 
#    z 0.000000 0.000000 3.428560 
# 
# 
# High freq. dielectric constant tensor:
#      x y z
#    x 1.602270 0.000000 0.000000 
#    y 0.000000 1.602270 0.000000 
#    z 0.000000 0.000000 1.651450 
# 
# From -- ./inp_files/7857.got.cif
#   From: 2010.03.12/outbox.cif.g09.slc.cpg/sg123_4_cif.got.tgz:7857.got - 2010.04.06 16:26:55.
