data_PCOD8312209
_publ_section_title
;
Structure prediction by ZEFSAII (Michael W. Deem and Ramdas Pophale) SiO2 
 PCOD8312209
Probable space group: P 4/M M M
;
_chemical_formula_sum "Si O2"
_cell_formula_units_Z 80
_cell_length_a 23.891729
_cell_length_b 23.891729
_cell_length_c 9.792252
_cell_angle_alpha 90.000000
_cell_angle_beta 90.000000
_cell_angle_gamma 90.000000
_cell_volume 5589.561531
_symmetry_space_group_name_H-M "P 4/M M M"
_symmetry_group_IT_number 123
_symmetry_cell_setting 'tetragonal'
loop_
_space_group_symop_operation_xyz
x,y,z
-y,x,z
-x,-y,z
y,-x,z
x,-y,-z
-x,y,-z
y,x,-z
-y,-x,-z
-x,-y,-z
y,-x,-z
x,y,-z
-y,x,-z
-x,y,z
x,-y,z
-y,-x,z
y,x,z
loop_
_atom_site_type_symbol
_atom_site_label
_atom_site_fract_x
_atom_site_fract_y
_atom_site_fract_z
Si Si1 0.205785 0.699736 0.843876
Si Si2 0.434230 0.659836 0.500000
Si Si3 0.345687 0.438519 0.000000
Si Si4 0.844457 0.935617 0.844276
Si Si5 0.708480 0.384983 0.240044
Si Si6 0.228975 0.865065 0.656066
O O1 0.252715 0.747286 0.844086
O O2 0.230126 0.641453 0.783363
O O3 0.155442 0.717140 0.742465
O O4 0.184435 0.690975 0.000000
O O5 0.500000 0.643388 0.500000
O O6 0.398045 0.601956 0.500000
O O7 0.418462 0.701389 0.621204
O O8 0.305044 0.430662 0.127019
O O9 0.371725 0.500000 0.000000
O O10 0.398138 0.398138 0.000000
O O11 0.900839 0.900839 0.816783
O O12 0.796463 0.917852 0.737328
O O13 0.859382 0.000000 0.818835
O O14 0.823232 0.925371 0.000000
O O15 0.665482 0.334519 0.229145
O O16 0.245706 0.881656 0.500000
O O17 0.184089 0.815912 0.651837
#
# Coordination Sequence:
#
# PCOD8312209 Si02
#       6
#    16   8   8  16  16  16
#     4   9  15  25  41  59  78  98 123 160 208 259
#     4  10  20  31  42  56  76 104 139 177 212 246
#     4  10  18  29  42  56  76 102 137 175 210 246
#     4   9  17  29  43  59  82 114 152 189 219 244
#     4   9  17  28  41  57  75  98 129 168 210 253
#     4   9  17  26  39  60  82 104 132 169 211 255
#
# _framework density 14.312393
#
# number of rings (size 3 to 8) (size 9 to 14) (size 15 to 20)
#    0.000    2.800    1.000    1.200    1.400    3.200 
#    0.000    1.000    0.000    3.600    0.000    2.800 
#    0.000    0.000    0.000    0.000    0.000    6.000 
#
# Total GULP energy -991337.171594 kJ/mol
# GULP energy per Si atom -12391.714645 kJ/mol
# Density = 1.427982 g / cm^3
# Si number density = 14.312393 Si / 1000 Ang^3
#
#
#
# Elastic Constant Matrix: (Units=GPa)
#
#
# Indices 1 2 3 4 5 6 
#
# 1 52.5804 48.8326 46.2282 0.0000 0.0000 0.0000
# 2 48.8326 52.5807 46.2282 0.0000 0.0000 0.0000
# 3 46.2282 46.2282 137.3716 0.0000 0.0000 0.0000
# 4 0.0000 0.0000 0.0000 15.0260 0.0000 0.0000
# 5 0.0000 0.0000 0.0000 0.0000 15.0253 0.0000
# 6 0.0000 0.0000 0.0000 0.0000 0.0000 12.8675
#
#
#
# Elastic Compliance Matrix: (Units=1/GPa)
#
#
# Indices 1 2 3 4 5 6 
#
# 1 0.140518 -0.126293 -0.004787 0.000000 0.000000 0.000000
# 2 -0.126293 0.140517 -0.004787 0.000000 0.000000 0.000000
# 3 -0.004787 -0.004787 0.010501 0.000000 0.000000 0.000000
# 4 0.000000 0.000000 0.000000 0.066551 0.000000 0.000000
# 5 0.000000 0.000000 0.000000 0.000000 0.066554 0.000000
# 6 0.000000 0.000000 0.000000 0.000000 0.000000 0.077715
#
#
# Mechanical properties :
#
#
# Convention : Reuss Voigt Hill
#
# Bulk Modulus (GPa) = 50.49683 58.34562 54.42122
# Shear Modulus (GPa) = 6.40457 15.33336 10.86896
#
# Velocity S-wave (km/s) = 2.11768 3.27668 2.75873
# Velocity P-wave (km/s) = 6.42946 7.42764 6.94650
#
# Compressibility (1/GPa) = 0.01980322
#
# Stress axis : x y z
#
# Youngs Moduli (GPa) = 7.11651 7.11657 95.22635
#
# Poissons Ratio (x) = 0.89877 0.45586
# Poissons Ratio (y) = 0.89876 0.45582
# Poissons Ratio (z) = 0.03407 0.03406
#
# Static dielectric constant tensor:
#      x y z
#    x 2.584030 0.000000 0.000000 
#    y 0.000000 2.584030 0.000000 
#    z 0.000000 0.000000 3.329540 
# 
# 
# High freq. dielectric constant tensor:
#      x y z
#    x 1.509470 0.000000 0.000000 
#    y 0.000000 1.509470 0.000000 
#    z 0.000000 0.000000 1.568200 
# 
# From -- ./inp_files/1491.got.cif
#   From: 2010.03.12/outbox.cif.g09.slc.cpg/sg123_1_cif.got.tgz:1491.got - 2010.04.06 16:26:55.
