data_PCOD8312894
_publ_section_title
;
Structure prediction by ZEFSAII (Michael W. Deem and Ramdas Pophale) SiO2 
 PCOD8312894
Probable space group: P 4/M M M
;
_chemical_formula_sum "Si O2"
_cell_formula_units_Z 96
_cell_length_a 24.241550
_cell_length_b 24.241550
_cell_length_c 8.902555
_cell_angle_alpha 90.000000
_cell_angle_beta 90.000000
_cell_angle_gamma 90.000000
_cell_volume 5231.610896
_symmetry_space_group_name_H-M "P 4/M M M"
_symmetry_group_IT_number 123
_symmetry_cell_setting 'tetragonal'
loop_
_space_group_symop_operation_xyz
x,y,z
-y,x,z
-x,-y,z
y,-x,z
x,-y,-z
-x,y,-z
y,x,-z
-y,-x,-z
-x,-y,-z
y,-x,-z
x,y,-z
-y,x,-z
-x,y,z
x,-y,z
-y,-x,z
y,x,z
loop_
_atom_site_type_symbol
_atom_site_label
_atom_site_fract_x
_atom_site_fract_y
_atom_site_fract_z
Si Si1 0.061829 0.849658 0.170088
Si Si2 0.937469 0.262806 0.674810
Si Si3 0.739061 0.648829 0.324880
Si Si4 0.653328 0.857744 0.177826
Si Si5 0.561264 0.061103 0.178620
Si Si6 0.562181 0.350519 0.678715
O O1 0.101207 0.898794 0.219665
O O2 0.071023 0.800897 0.287615
O O3 0.000000 0.872669 0.181068
O O4 0.074252 0.829071 0.000000
O O5 0.926782 0.272971 0.500000
O O6 0.891091 0.293562 0.769700
O O7 0.000000 0.281226 0.719725
O O8 0.752558 0.644343 0.500000
O O9 0.703507 0.703507 0.290890
O O10 0.795766 0.652392 0.236352
O O11 0.704551 0.595000 0.270591
O O12 0.601007 0.891609 0.243161
O O13 0.652797 0.855348 0.000000
O O14 0.500000 0.073819 0.239032
O O15 0.580063 0.000000 0.234004
O O16 0.561938 0.061959 0.000000
O O17 0.560326 0.352109 0.500000
O O18 0.500000 0.350139 0.745829
O O19 0.595201 0.404800 0.736794
#
# Coordination Sequence:
#
# PCOD8312894 Si02
#       6
#    16  16  16  16  16  16
#     4   9  18  33  53  77 104 132 163 201 245 294
#     4  10  21  36  53  73  99 131 165 203 249 299
#     4   9  19  35  50  66  96 136 170 201 245 300
#     4  11  21  32  52  78  99 125 166 211 250 290
#     4   8  15  29  48  71 100 129 154 186 234 290
#     4   8  14  26  46  72 101 133 168 207 252 299
#
# _framework density 18.349989000000001
#
# number of rings (size 3 to 8) (size 9 to 14) (size 15 to 20)
#    0.000    2.833    0.000    3.000    0.000    4.000 
#    0.000    1.667    0.000    1.500    0.000    8.167 
#    0.000    0.000    0.000    3.667    0.000    3.667 
#
# Total GULP energy -1189963.246053 kJ/mol
# GULP energy per Si atom -12395.450480 kJ/mol
# Density = 1.830822 g / cm^3
# Si number density = 18.349989 Si / 1000 Ang^3
#
#
#
# Elastic Constant Matrix: (Units=GPa)
#
#
# Indices 1 2 3 4 5 6 
#
# 1 142.2900 80.5112 37.4724 0.0000 0.0000 0.0000
# 2 80.5112 142.2900 37.4724 0.0000 0.0000 0.0000
# 3 37.4724 37.4724 40.6032 0.0000 0.0000 0.0000
# 4 0.0000 0.0000 0.0000 17.6834 0.0000 0.0000
# 5 0.0000 0.0000 0.0000 0.0000 17.6834 0.0000
# 6 0.0000 0.0000 0.0000 0.0000 0.0000 -0.8829
#
#
#
# Elastic Compliance Matrix: (Units=1/GPa)
#
#
# Indices 1 2 3 4 5 6 
#
# 1 0.011348 -0.004839 -0.006007 0.000000 0.000000 0.000000
# 2 -0.004839 0.011348 -0.006007 0.000000 0.000000 0.000000
# 3 -0.006007 -0.006007 0.035716 0.000000 0.000000 0.000000
# 4 0.000000 0.000000 0.000000 0.056550 0.000000 0.000000
# 5 0.000000 0.000000 0.000000 0.000000 0.056550 0.000000
# 6 0.000000 0.000000 0.000000 0.000000 0.000000 -1.132586
#
#
# Mechanical properties :
#
#
# Convention : Reuss Voigt Hill
#
# Bulk Modulus (GPa) = 40.47603 70.67723 55.57663
# Shear Modulus (GPa) = -5.43991 18.21192 6.38600
#
# Velocity S-wave (km/s) = -1.72365 3.15378 1.86753
# Velocity P-wave (km/s) = 4.25962 7.20150 5.91633
#
# Compressibility (1/GPa) = 0.02470598
#
# Stress axis : x y z
#
# Youngs Moduli (GPa) = 88.12237 88.12237 27.99847
#
# Poissons Ratio (x) = 0.42642 0.16819
# Poissons Ratio (y) = 0.42642 0.16819
# Poissons Ratio (z) = 0.52935 0.52935
#
# Static dielectric constant tensor:
#      x y z
#    x 3.533730 0.000000 0.000000 
#    y 0.000000 3.533730 0.000000 
#    z 0.000000 0.000000 3.029520 
# 
# 
# High freq. dielectric constant tensor:
#      x y z
#    x 1.715880 0.000000 0.000000 
#    y 0.000000 1.715880 0.000000 
#    z 0.000000 0.000000 1.677370 
# 
# From -- ./inp_files/1584.got.cif
#   From: 2010.03.12/outbox.cif.g09.slc.cpg/sg123_1_cif.got.tgz:1584.got - 2010.04.06 16:26:55.
