data_PCOD8312601
_publ_section_title
;
Structure prediction by ZEFSAII (Michael W. Deem and Ramdas Pophale) SiO2 
 PCOD8312601
Probable space group: P 4/M M M
;
_chemical_formula_sum "Si O2"
_cell_formula_units_Z 96
_cell_length_a 24.690603
_cell_length_b 24.690603
_cell_length_c 9.374337
_cell_angle_alpha 90.000000
_cell_angle_beta 90.000000
_cell_angle_gamma 90.000000
_cell_volume 5714.838410
_symmetry_space_group_name_H-M "P 4/M M M"
_symmetry_group_IT_number 123
_symmetry_cell_setting 'tetragonal'
loop_
_space_group_symop_operation_xyz
x,y,z
-y,x,z
-x,-y,z
y,-x,z
x,-y,-z
-x,y,-z
y,x,-z
-y,-x,-z
-x,-y,-z
y,-x,-z
x,y,-z
-y,x,-z
-x,y,z
x,-y,z
-y,-x,z
y,x,z
loop_
_atom_site_type_symbol
_atom_site_label
_atom_site_fract_x
_atom_site_fract_y
_atom_site_fract_z
Si Si1 0.940314 0.807372 0.155464
Si Si2 0.352225 0.438617 0.666683
Si Si3 0.941502 0.319849 0.162485
Si Si4 0.152583 0.847418 0.665243
Si Si5 0.240552 0.240552 0.672263
Si Si6 0.561073 0.247097 0.836442
Si Si7 0.821416 0.663765 0.831432
O O1 0.942985 0.743855 0.175381
O O2 0.906168 0.832763 0.280216
O O3 0.000000 0.832539 0.166706
O O4 0.915070 0.821009 0.000000
O O5 0.341530 0.431919 0.500000
O O6 0.367366 0.500000 0.707376
O O7 0.401656 0.401656 0.719076
O O8 0.298076 0.419561 0.744664
O O9 0.883501 0.337532 0.230888
O O10 0.000000 0.341274 0.229995
O O11 0.940946 0.339827 0.000000
O O12 0.149053 0.850948 0.500000
O O13 0.196260 0.803741 0.714940
O O14 0.247569 0.247569 0.500000
O O15 0.218597 0.296222 0.743321
O O16 0.500000 0.228555 0.793875
O O17 0.602450 0.198404 0.807417
O O18 0.563043 0.265470 0.000000
O O19 0.820280 0.680210 0.000000
#
# Coordination Sequence:
#
# PCOD8312601 Si02
#       7
#    16  16  16   8   8  16  16
#     4   9  17  30  49  69  90 123 165 203 236 279
#     4   9  18  32  49  69  93 123 159 199 243 288
#     4   8  14  26  46  71  94 119 156 197 233 275
#     4  11  21  31  45  68 102 133 153 190 247 298
#     4  11  23  33  43  71 108 132 154 194 243 288
#     4   9  19  34  50  70  96 127 163 200 239 287
#     4  10  19  32  52  72  95 130 165 198 238 286
#
# _framework density 16.798373999999999
#
# number of rings (size 3 to 8) (size 9 to 14) (size 15 to 20)
#    0.000    2.667    1.667    1.500    1.167    2.167 
#    0.000    0.833    0.000    1.250    0.000    7.583 
#    0.000    0.000    0.000    5.667    0.000    6.000 
#
# Total GULP energy -1189291.210563 kJ/mol
# GULP energy per Si atom -12388.450110 kJ/mol
# Density = 1.676014 g / cm^3
# Si number density = 16.798374 Si / 1000 Ang^3
#
#
#
# Elastic Constant Matrix: (Units=GPa)
#
#
# Indices 1 2 3 4 5 6 
#
# 1 98.4159 54.2642 28.2830 0.0000 0.0000 0.0000
# 2 54.2642 98.4170 28.2843 0.0000 0.0000 0.0000
# 3 28.2830 28.2843 26.4879 0.0000 0.0000 0.0000
# 4 0.0000 0.0000 0.0000 20.7617 0.0000 0.0000
# 5 0.0000 0.0000 0.0000 0.0000 20.7617 0.0000
# 6 0.0000 0.0000 0.0000 0.0000 0.0000 33.9214
#
#
#
# Elastic Compliance Matrix: (Units=1/GPa)
#
#
# Indices 1 2 3 4 5 6 
#
# 1 0.016743 -0.005906 -0.011571 0.000000 0.000000 0.000000
# 2 -0.005906 0.016743 -0.011572 0.000000 0.000000 0.000000
# 3 -0.011571 -0.011572 0.062465 0.000000 0.000000 0.000000
# 4 0.000000 0.000000 0.000000 0.048166 0.000000 0.000000
# 5 0.000000 0.000000 0.000000 0.000000 0.048166 0.000000
# 6 0.000000 0.000000 0.000000 0.000000 0.000000 0.029480
#
#
# Mechanical properties :
#
#
# Convention : Reuss Voigt Hill
#
# Bulk Modulus (GPa) = 26.41822 49.44264 37.93043
# Shear Modulus (GPa) = 17.09536 22.58825 19.84180
#
# Velocity S-wave (km/s) = 3.19357 3.67095 3.44055
# Velocity P-wave (km/s) = 5.41842 6.88946 6.19774
#
# Compressibility (1/GPa) = 0.03785266
#
# Stress axis : x y z
#
# Youngs Moduli (GPa) = 59.72785 59.72625 16.00900
#
# Poissons Ratio (x) = 0.35275 0.18523
# Poissons Ratio (y) = 0.35276 0.18526
# Poissons Ratio (z) = 0.69109 0.69117
#
# Static dielectric constant tensor:
#      x y z
#    x 3.265520 0.000000 0.000000 
#    y 0.000000 3.265520 0.000000 
#    z 0.000000 0.000000 3.026840 
# 
# 
# High freq. dielectric constant tensor:
#      x y z
#    x 1.641470 0.000000 0.000000 
#    y 0.000000 1.641470 0.000000 
#    z 0.000000 0.000000 1.626730 
# 
# From -- ./inp_files/1669.got.cif
#   From: 2010.03.12/outbox.cif.g09.slc.cpg/sg123_1_cif.got.tgz:1669.got - 2010.04.06 16:26:55.
