data_PCOD8312429
_publ_section_title
;
Structure prediction by ZEFSAII (Michael W. Deem and Ramdas Pophale) SiO2 
 PCOD8312429
Probable space group: P 4/M M M
;
_chemical_formula_sum "Si O2"
_cell_formula_units_Z 88
_cell_length_a 13.833731
_cell_length_b 13.833731
_cell_length_c 27.788743
_cell_angle_alpha 90.000000
_cell_angle_beta 90.000000
_cell_angle_gamma 90.000000
_cell_volume 5317.990476
_symmetry_space_group_name_H-M "P 4/M M M"
_symmetry_group_IT_number 123
_symmetry_cell_setting 'tetragonal'
loop_
_space_group_symop_operation_xyz
x,y,z
-y,x,z
-x,-y,z
y,-x,z
x,-y,-z
-x,y,-z
y,x,-z
-y,-x,-z
-x,-y,-z
y,-x,-z
x,y,-z
-y,x,-z
-x,y,z
x,-y,z
-y,-x,z
y,x,z
loop_
_atom_site_type_symbol
_atom_site_label
_atom_site_fract_x
_atom_site_fract_y
_atom_site_fract_z
Si Si1 0.610781 0.766852 0.444202
Si Si2 0.729218 0.113254 0.627446
Si Si3 0.768311 0.386869 0.185300
Si Si4 0.610427 0.888361 0.278259
Si Si5 0.113330 0.268450 0.000000
Si Si6 0.611659 0.888394 0.907244
O O1 0.618906 0.794487 0.500000
O O2 0.500000 0.751295 0.428536
O O3 0.667500 0.667500 0.432646
O O4 0.657280 0.855465 0.415165
O O5 0.830723 0.169278 0.623870
O O6 0.678562 0.139892 0.677576
O O7 0.750723 0.000000 0.622539
O O8 0.747243 0.500000 0.184540
O O9 0.665722 0.334279 0.185559
O O10 0.827806 0.356002 0.232299
O O11 0.828396 0.353761 0.138804
O O12 0.500000 0.864605 0.292633
O O13 0.621449 0.000000 0.264335
O O14 0.145788 0.328274 0.046681
O O15 0.165601 0.165601 0.000000
O O16 0.000000 0.248029 0.000000
O O17 0.500000 0.869496 0.919197
O O18 0.630427 0.000000 0.895238
#
# Coordination Sequence:
#
# PCOD8312429 Si02
#       6
#    16  16  16  16   8  16
#     4   9  18  32  50  73  99 125 154 189 230 277
#     4  10  20  33  49  69  94 124 158 196 235 275
#     4  10  19  30  45  65  91 121 149 179 216 261
#     4   9  17  30  49  71  91 113 146 188 232 274
#     4  10  19  30  45  65  90 118 145 175 214 263
#     4   9  17  30  48  68  87 109 143 187 228 259
#
# _framework density 16.547605000000001
#
# number of rings (size 3 to 8) (size 9 to 14) (size 15 to 20)
#    0.000    2.545    0.000    2.455    0.000    5.364 
#    0.000    1.818    0.000    0.000    0.000    5.091 
#    0.000   19.636    0.000    0.000    0.000    0.000 
#
# Total GULP energy -1091370.388439 kJ/mol
# GULP energy per Si atom -12401.936232 kJ/mol
# Density = 1.650994 g / cm^3
# Si number density = 16.547605 Si / 1000 Ang^3
#
#
#
# Elastic Constant Matrix: (Units=GPa)
#
#
# Indices 1 2 3 4 5 6 
#
# 1 88.4777 55.8660 59.2431 0.0000 0.0000 0.0000
# 2 55.8660 88.4777 59.2431 0.0000 0.0000 0.0000
# 3 59.2431 59.2431 110.3159 0.0000 0.0000 0.0000
# 4 0.0000 0.0000 0.0000 22.9827 0.0000 0.0000
# 5 0.0000 0.0000 0.0000 0.0000 22.9827 0.0000
# 6 0.0000 0.0000 0.0000 0.0000 0.0000 26.0104
#
#
#
# Elastic Compliance Matrix: (Units=1/GPa)
#
#
# Indices 1 2 3 4 5 6 
#
# 1 0.021527 -0.009137 -0.006654 0.000000 0.000000 0.000000
# 2 -0.009137 0.021527 -0.006654 0.000000 0.000000 0.000000
# 3 -0.006654 -0.006654 0.016211 0.000000 0.000000 0.000000
# 4 0.000000 0.000000 0.000000 0.043511 0.000000 0.000000
# 5 0.000000 0.000000 0.000000 0.000000 0.043511 0.000000
# 6 0.000000 0.000000 0.000000 0.000000 0.000000 0.038446
#
#
# Mechanical properties :
#
#
# Convention : Reuss Voigt Hill
#
# Bulk Modulus (GPa) = 69.56017 70.66397 70.11207
# Shear Modulus (GPa) = 21.32985 21.92312 21.62649
#
# Velocity S-wave (km/s) = 3.59416 3.64380 3.61906
# Velocity P-wave (km/s) = 7.70400 7.77812 7.74115
#
# Compressibility (1/GPa) = 0.01437604
#
# Stress axis : x y z
#
# Youngs Moduli (GPa) = 46.45397 46.45397 61.68562
#
# Poissons Ratio (x) = 0.42446 0.41043
# Poissons Ratio (y) = 0.42446 0.41043
# Poissons Ratio (z) = 0.30909 0.30909
#
# Static dielectric constant tensor:
#      x y z
#    x 2.992160 0.000000 0.000000 
#    y 0.000000 2.992160 0.000000 
#    z 0.000000 0.000000 3.260530 
# 
# 
# High freq. dielectric constant tensor:
#      x y z
#    x 1.629670 0.000000 0.000000 
#    y 0.000000 1.629670 0.000000 
#    z 0.000000 0.000000 1.650400 
# 
# From -- ./inp_files/7248.got.cif
#   From: 2010.03.12/outbox.cif.g09.slc.cpg/sg123_4_cif.got.tgz:7248.got - 2010.04.06 16:26:55.
