data_PCOD8312947
_publ_section_title
;
Structure prediction by ZEFSAII (Michael W. Deem and Ramdas Pophale) SiO2 
 PCOD8312947
Probable space group: P 4/M M M
;
_chemical_formula_sum "Si O2"
_cell_formula_units_Z 64
_cell_length_a 19.822055
_cell_length_b 19.822055
_cell_length_c 8.223586
_cell_angle_alpha 90.000000
_cell_angle_beta 90.000000
_cell_angle_gamma 90.000000
_cell_volume 3231.160955
_symmetry_space_group_name_H-M "P 4/M M M"
_symmetry_group_IT_number 123
_symmetry_cell_setting 'tetragonal'
loop_
_space_group_symop_operation_xyz
x,y,z
-y,x,z
-x,-y,z
y,-x,z
x,-y,-z
-x,y,-z
y,x,-z
-y,-x,-z
-x,-y,-z
y,-x,-z
x,y,-z
-y,x,-z
-x,y,z
x,-y,z
-y,-x,z
y,x,z
loop_
_atom_site_type_symbol
_atom_site_label
_atom_site_fract_x
_atom_site_fract_y
_atom_site_fract_z
Si Si1 0.255989 0.000000 0.682571
Si Si2 0.425505 0.312894 0.500000
Si Si3 0.630783 0.257338 0.818947
Si Si4 0.000000 0.893986 0.190144
Si Si5 0.500000 0.079295 0.679938
Si Si6 0.354781 0.106910 0.818116
O O1 0.303013 0.934886 0.709391
O O2 0.231251 0.000000 0.500000
O O3 0.186198 0.000000 0.780041
O O4 0.500000 0.343956 0.500000
O O5 0.374490 0.374490 0.500000
O O6 0.418935 0.268679 0.334283
O O7 0.690357 0.309644 0.804230
O O8 0.665584 0.184678 0.802797
O O9 0.595581 0.263718 0.000000
O O10 0.067373 0.932628 0.259137
O O11 0.000000 0.902989 0.000000
O O12 0.500000 0.111627 0.500000
O O13 0.433212 0.102376 0.771890
O O14 0.500000 0.000000 0.667038
O O15 0.346715 0.078965 0.000000
#
# Coordination Sequence:
#
# PCOD8312947 Si02
#       6
#     8   8  16   8   8  16
#     4  12  25  38  56  88 123 154 192 242 297 352
#     4  10  22  39  62  89 119 155 192 240 294 350
#     4   9  21  40  60  86 118 153 196 243 291 347
#     4   9  20  42  69  91 113 148 195 243 294 356
#     4  11  23  37  55  81 116 154 190 241 292 343
#     4  11  23  38  59  83 113 156 200 241 287 346
#
# _framework density 19.807120999999999
#
# number of rings (size 3 to 8) (size 9 to 14) (size 15 to 20)
#    0.000    1.750    1.250    2.625    5.250    2.625 
#    0.000    3.125    0.000    0.000    0.000    3.500 
#    0.000    0.000    0.000    0.000    0.000    0.000 
#
# Total GULP energy -793129.913187 kJ/mol
# GULP energy per Si atom -12392.654894 kJ/mol
# Density = 1.976204 g / cm^3
# Si number density = 19.807121 Si / 1000 Ang^3
#
#
#
# Elastic Constant Matrix: (Units=GPa)
#
#
# Indices 1 2 3 4 5 6 
#
# 1 93.6236 19.7791 28.8679 0.0000 0.0000 0.0000
# 2 19.7791 93.6236 28.8679 0.0000 0.0000 0.0000
# 3 28.8679 28.8679 122.8244 0.0000 0.0000 0.0000
# 4 0.0000 0.0000 0.0000 18.9702 0.0000 0.0000
# 5 0.0000 0.0000 0.0000 0.0000 18.9702 0.0000
# 6 0.0000 0.0000 0.0000 0.0000 0.0000 -9.5211
#
#
#
# Elastic Compliance Matrix: (Units=1/GPa)
#
#
# Indices 1 2 3 4 5 6 
#
# 1 0.011779 -0.001763 -0.002354 0.000000 0.000000 0.000000
# 2 -0.001763 0.011779 -0.002354 0.000000 0.000000 0.000000
# 3 -0.002354 -0.002354 0.009248 0.000000 0.000000 0.000000
# 4 0.000000 0.000000 0.000000 0.052714 0.000000 0.000000
# 5 0.000000 0.000000 0.000000 0.000000 0.052714 0.000000
# 6 0.000000 0.000000 0.000000 0.000000 0.000000 -0.105030
#
#
# Mechanical properties :
#
#
# Convention : Reuss Voigt Hill
#
# Bulk Modulus (GPa) = 50.34038 51.67792 51.00915
# Shear Modulus (GPa) = 94.75146 21.18764 57.96955
#
# Velocity S-wave (km/s) = 6.92394 3.27417 5.41577
# Velocity P-wave (km/s) = 9.45472 6.35931 8.05706
#
# Compressibility (1/GPa) = 0.01986477
#
# Stress axis : x y z
#
# Youngs Moduli (GPa) = 84.89423 84.89423 108.12716
#
# Poissons Ratio (x) = 0.14964 0.25456
# Poissons Ratio (y) = 0.14964 0.25456
# Poissons Ratio (z) = 0.19986 0.19986
#
# Static dielectric constant tensor:
#      x y z
#    x 3.509270 0.000000 0.000000 
#    y 0.000000 3.509270 0.000000 
#    z 0.000000 0.000000 4.091170 
# 
# 
# High freq. dielectric constant tensor:
#      x y z
#    x 1.767830 0.000000 0.000000 
#    y 0.000000 1.767830 0.000000 
#    z 0.000000 0.000000 1.788840 
# 
# From -- ./inp_files/1020.got.cif
#   From: 2010.03.12/outbox.cif.g09.slc.cpg/sg123_1_cif.got.tgz:1020.got - 2010.04.06 16:26:55.
