data_PCOD8312531
_publ_section_title
;
Structure prediction by ZEFSAII (Michael W. Deem and Ramdas Pophale) SiO2 
 PCOD8312531
Probable space group: P 4/M M M
;
_chemical_formula_sum "Si O2"
_cell_formula_units_Z 128
_cell_length_a 18.434362
_cell_length_b 18.434362
_cell_length_c 23.494754
_cell_angle_alpha 90.000000
_cell_angle_beta 90.000000
_cell_angle_gamma 90.000000
_cell_volume 7984.121280
_symmetry_space_group_name_H-M "P 4/M M M"
_symmetry_group_IT_number 123
_symmetry_cell_setting 'tetragonal'
loop_
_space_group_symop_operation_xyz
x,y,z
-y,x,z
-x,-y,z
y,-x,z
x,-y,-z
-x,y,-z
y,x,-z
-y,-x,-z
-x,-y,-z
y,-x,-z
x,y,-z
-y,x,-z
-x,y,z
x,-y,z
-y,-x,z
y,x,z
loop_
_atom_site_type_symbol
_atom_site_label
_atom_site_fract_x
_atom_site_fract_y
_atom_site_fract_z
Si Si1 0.918965 0.804893 0.763193
Si Si2 0.917679 0.335621 0.835810
Si Si3 0.158422 0.725623 0.663293
Si Si4 0.810360 0.693620 0.937158
Si Si5 0.695607 0.582683 0.912591
Si Si6 0.083532 0.200646 0.565467
Si Si7 0.582454 0.846027 0.732232
Si Si8 0.421647 0.307913 0.782192
O O1 0.872298 0.872298 0.785163
O O2 0.914563 0.744545 0.811328
O O3 0.890157 0.774436 0.704155
O O4 0.000000 0.832695 0.753677
O O5 0.872134 0.332246 0.893800
O O6 0.887654 0.392628 0.789295
O O7 0.000000 0.358771 0.850400
O O8 0.241688 0.758313 0.665539
O O9 0.123930 0.735748 0.600800
O O10 0.147814 0.641027 0.680934
O O11 0.764250 0.764250 0.915485
O O12 0.755949 0.626530 0.946650
O O13 0.843958 0.709761 0.000000
O O14 0.695552 0.500000 0.932935
O O15 0.615760 0.615760 0.924452
O O16 0.716003 0.593476 0.846555
O O17 0.089274 0.224552 0.500000
O O18 0.123845 0.123845 0.576171
O O19 0.000000 0.191563 0.584247
O O20 0.500000 0.872424 0.715481
O O21 0.580482 0.761356 0.742979
O O22 0.500000 0.346430 0.778793
O O23 0.362852 0.362852 0.757896
#
# Coordination Sequence:
#
# PCOD8312531 Si02
#       8
#    16  16  16  16  16  16  16  16
#     4   9  17  28  44  66  90 116 142 171 211 260
#     4  10  20  33  48  65  86 110 139 180 227 269
#     4   9  17  29  46  67  92 122 155 189 225 266
#     4  10  20  33  50  68  85 110 143 176 214 264
#     4   9  17  29  45  65  88 112 138 167 201 246
#     4   9  17  29  46  69  97 128 160 192 227 269
#     4  10  19  31  48  68  89 116 152 193 232 271
#     4   9  16  26  43  66  91 118 144 172 212 261
#
# _framework density 16.03182
#
# number of rings (size 3 to 8) (size 9 to 14) (size 15 to 20)
#    0.000    2.625    1.250    1.125    0.000    2.750 
#    0.000    1.875    0.000    2.625    0.000    4.375 
#    0.000    0.000    0.000   11.625    0.000    0.000 
#
# Total GULP energy -1586144.500593 kJ/mol
# GULP energy per Si atom -12391.753911 kJ/mol
# Density = 1.599533 g / cm^3
# Si number density = 16.031820 Si / 1000 Ang^3
#
#
#
# Elastic Constant Matrix: (Units=GPa)
#
#
# Indices 1 2 3 4 5 6 
#
# 1 95.3984 42.5357 33.9465 0.0000 0.0000 0.0000
# 2 42.5357 95.3984 33.9465 0.0000 0.0000 0.0000
# 3 33.9465 33.9465 67.9263 0.0000 0.0000 0.0000
# 4 0.0000 0.0000 0.0000 12.4163 0.0000 0.0000
# 5 0.0000 0.0000 0.0000 0.0000 12.4163 0.0000
# 6 0.0000 0.0000 0.0000 0.0000 0.0000 17.3363
#
#
#
# Elastic Compliance Matrix: (Units=1/GPa)
#
#
# Indices 1 2 3 4 5 6 
#
# 1 0.014266 -0.004651 -0.004805 0.000000 0.000000 0.000000
# 2 -0.004651 0.014266 -0.004805 0.000000 0.000000 0.000000
# 3 -0.004805 -0.004805 0.019525 0.000000 0.000000 0.000000
# 4 0.000000 0.000000 0.000000 0.080539 0.000000 0.000000
# 5 0.000000 0.000000 0.000000 0.000000 0.080539 0.000000
# 6 0.000000 0.000000 0.000000 0.000000 0.000000 0.057682
#
#
# Mechanical properties :
#
#
# Convention : Reuss Voigt Hill
#
# Bulk Modulus (GPa) = 51.19265 53.28672 52.23969
# Shear Modulus (GPa) = 16.56447 18.32009 17.44228
#
# Velocity S-wave (km/s) = 3.21787 3.38410 3.30203
# Velocity P-wave (km/s) = 6.76812 6.96992 6.86976
#
# Compressibility (1/GPa) = 0.01953405
#
# Stress axis : x y z
#
# Youngs Moduli (GPa) = 70.09697 70.09697 51.21736
#
# Poissons Ratio (x) = 0.32602 0.24611
# Poissons Ratio (y) = 0.32602 0.24611
# Poissons Ratio (z) = 0.33683 0.33683
#
# Static dielectric constant tensor:
#      x y z
#    x 3.110470 0.000000 0.000000 
#    y 0.000000 3.110470 0.000000 
#    z 0.000000 0.000000 2.889770 
# 
# 
# High freq. dielectric constant tensor:
#      x y z
#    x 1.610100 0.000000 0.000000 
#    y 0.000000 1.610100 0.000000 
#    z 0.000000 0.000000 1.594360 
# 
# From -- ./inp_files/7650.got.cif
#   From: 2010.03.12/outbox.cif.g09.slc.cpg/sg123_4_cif.got.tgz:7650.got - 2010.04.06 16:26:55.
