data_PCOD8312475
_publ_section_title
;
Structure prediction by ZEFSAII (Michael W. Deem and Ramdas Pophale) SiO2 
 PCOD8312475
Probable space group: P 4/M M M
;
_chemical_formula_sum "Si O2"
_cell_formula_units_Z 80
_cell_length_a 18.711512
_cell_length_b 18.711512
_cell_length_c 13.783210
_cell_angle_alpha 90.000000
_cell_angle_beta 90.000000
_cell_angle_gamma 90.000000
_cell_volume 4825.786876
_symmetry_space_group_name_H-M "P 4/M M M"
_symmetry_group_IT_number 123
_symmetry_cell_setting 'tetragonal'
loop_
_space_group_symop_operation_xyz
x,y,z
-y,x,z
-x,-y,z
y,-x,z
x,-y,-z
-x,y,-z
y,x,-z
-y,-x,-z
-x,-y,-z
y,-x,-z
x,y,-z
-y,x,-z
-x,y,z
x,-y,z
-y,-x,z
y,x,z
loop_
_atom_site_type_symbol
_atom_site_label
_atom_site_fract_x
_atom_site_fract_y
_atom_site_fract_z
Si Si1 0.827182 0.583371 0.243961
Si Si2 0.325662 0.916469 0.107929
Si Si3 0.580806 0.695070 0.109117
Si Si4 0.084076 0.200212 0.751454
Si Si5 0.174477 0.709624 0.387512
O O1 0.837040 0.500000 0.271169
O O2 0.890818 0.608456 0.173900
O O3 0.755947 0.599213 0.184818
O O4 0.823732 0.630613 0.341188
O O5 0.249386 0.896983 0.155752
O O6 0.334959 0.000000 0.100598
O O7 0.328259 0.882307 0.000000
O O8 0.500000 0.669425 0.119166
O O9 0.627208 0.627208 0.136938
O O10 0.596759 0.722846 0.000000
O O11 0.124988 0.124988 0.763352
O O12 0.110554 0.242567 0.656333
O O13 0.000000 0.184351 0.742093
O O14 0.157788 0.699497 0.500000
O O15 0.249976 0.750024 0.370038
#
# Coordination Sequence:
#
# PCOD8312475 Si02
#       5
#    16  16  16  16  16
#     4  10  19  30  46  69  94 117 149 195 239 275
#     4   9  18  32  48  66  92 127 160 186 218 266
#     4   9  17  28  42  62  89 119 149 182 221 266
#     4   9  18  32  50  73  98 123 154 191 230 274
#     4   9  18  33  51  68  89 121 157 190 230 284
#
# _framework density 16.577607
#
# number of rings (size 3 to 8) (size 9 to 14) (size 15 to 20)
#    0.000    2.800    0.000    1.200    0.000    4.000 
#    0.000    2.000    0.000    0.000    0.000   11.200 
#    0.000    0.000    0.000   18.600    0.000    0.200 
#
# Total GULP energy -991786.329508 kJ/mol
# GULP energy per Si atom -12397.329119 kJ/mol
# Density = 1.653988 g / cm^3
# Si number density = 16.577607 Si / 1000 Ang^3
#
#
#
# Elastic Constant Matrix: (Units=GPa)
#
#
# Indices 1 2 3 4 5 6 
#
# 1 83.4114 42.3710 41.6113 0.0000 0.0000 0.0000
# 2 42.3710 83.4114 41.6113 0.0000 0.0000 0.0000
# 3 41.6113 41.6113 112.4421 0.0000 0.0000 0.0000
# 4 0.0000 0.0000 0.0000 19.9137 0.0000 0.0000
# 5 0.0000 0.0000 0.0000 0.0000 19.9137 0.0000
# 6 0.0000 0.0000 0.0000 0.0000 0.0000 25.6522
#
#
#
# Elastic Compliance Matrix: (Units=1/GPa)
#
#
# Indices 1 2 3 4 5 6 
#
# 1 0.017447 -0.006919 -0.003896 0.000000 0.000000 0.000000
# 2 -0.006919 0.017447 -0.003896 0.000000 0.000000 0.000000
# 3 -0.003896 -0.003896 0.011777 0.000000 0.000000 0.000000
# 4 0.000000 0.000000 0.000000 0.050217 0.000000 0.000000
# 5 0.000000 0.000000 0.000000 0.000000 0.050217 0.000000
# 6 0.000000 0.000000 0.000000 0.000000 0.000000 0.038983
#
#
# Mechanical properties :
#
#
# Convention : Reuss Voigt Hill
#
# Bulk Modulus (GPa) = 57.97499 58.93911 58.45705
# Shear Modulus (GPa) = 22.59785 23.34068 22.96926
#
# Velocity S-wave (km/s) = 3.69610 3.75636 3.72635
# Velocity P-wave (km/s) = 7.29813 7.37863 7.33849
#
# Compressibility (1/GPa) = 0.01724882
#
# Stress axis : x y z
#
# Youngs Moduli (GPa) = 57.31590 57.31590 84.91052
#
# Poissons Ratio (x) = 0.39658 0.33082
# Poissons Ratio (y) = 0.39658 0.33082
# Poissons Ratio (z) = 0.22331 0.22331
#
# Static dielectric constant tensor:
#      x y z
#    x 3.125020 0.000000 0.000000 
#    y 0.000000 3.125020 0.000000 
#    z 0.000000 0.000000 3.196270 
# 
# 
# High freq. dielectric constant tensor:
#      x y z
#    x 1.636090 0.000000 0.000000 
#    y 0.000000 1.636090 0.000000 
#    z 0.000000 0.000000 1.634420 
# 
# From -- ./inp_files/3902.got.cif
#   From: 2010.03.12/outbox.cif.g09.slc.cpg/sg123_2_cif.got.tgz:3902.got - 2010.04.06 16:26:55.
