data_PCOD8312949
_publ_section_title
;
Structure prediction by ZEFSAII (Michael W. Deem and Ramdas Pophale) SiO2 
 PCOD8312949
Probable space group: P 4/M M M
;
_chemical_formula_sum "Si O2"
_cell_formula_units_Z 56
_cell_length_a 17.896958
_cell_length_b 17.896958
_cell_length_c 8.960378
_cell_angle_alpha 90.000000
_cell_angle_beta 90.000000
_cell_angle_gamma 90.000000
_cell_volume 2870.018980
_symmetry_space_group_name_H-M "P 4/M M M"
_symmetry_group_IT_number 123
_symmetry_cell_setting 'tetragonal'
loop_
_space_group_symop_operation_xyz
x,y,z
-y,x,z
-x,-y,z
y,-x,z
x,-y,-z
-x,y,-z
y,x,-z
-y,-x,-z
-x,-y,-z
y,-x,-z
x,y,-z
-y,x,-z
-x,y,z
x,-y,z
-y,-x,z
y,x,z
loop_
_atom_site_type_symbol
_atom_site_label
_atom_site_fract_x
_atom_site_fract_y
_atom_site_fract_z
Si Si1 0.500000 0.085935 0.336859
Si Si2 0.643724 0.854717 0.175972
Si Si3 0.792778 0.085799 0.325844
Si Si4 0.582871 0.698139 0.823322
O O1 0.500000 0.126848 0.500000
O O2 0.426481 0.102964 0.243251
O O3 0.500000 0.000000 0.370197
O O4 0.720976 0.885452 0.238221
O O5 0.634525 0.768054 0.220704
O O6 0.643271 0.867159 0.000000
O O7 0.774841 0.093224 0.500000
O O8 0.864876 0.135125 0.281037
O O9 0.810090 0.000000 0.282350
O O10 0.500000 0.704661 0.751492
O O11 0.623527 0.623527 0.762654
O O12 0.574853 0.694510 0.000000
#
# Coordination Sequence:
#
# PCOD8312949 Si02
#       4
#     8  16  16  16
#     4  11  23  37  55  81 114 151 190 234 285 345
#     4  11  21  36  57  85 118 151 190 237 293 352
#     4  10  22  40  61  86 117 154 197 244 295 353
#     4   9  17  30  49  76 110 145 183 228 277 329
#
# _framework density 19.512065
#
# number of rings (size 3 to 8) (size 9 to 14) (size 15 to 20)
#    0.000    1.857    1.429    3.000    0.000    7.429 
#    0.000    2.857    0.000    0.000    0.000    2.000 
#    0.000    1.143    0.000    0.000    0.000    0.000 
#
# Total GULP energy -694241.526809 kJ/mol
# GULP energy per Si atom -12397.170122 kJ/mol
# Density = 1.946765 g / cm^3
# Si number density = 19.512065 Si / 1000 Ang^3
#
#
#
# Elastic Constant Matrix: (Units=GPa)
#
#
# Indices 1 2 3 4 5 6 
#
# 1 153.7461 98.8716 58.3218 0.0000 0.0000 0.0000
# 2 98.8716 153.7461 58.3218 0.0000 0.0000 0.0000
# 3 58.3218 58.3218 64.9072 0.0000 0.0000 0.0000
# 4 0.0000 0.0000 0.0000 34.9251 0.0000 0.0000
# 5 0.0000 0.0000 0.0000 0.0000 34.9251 0.0000
# 6 0.0000 0.0000 0.0000 0.0000 0.0000 42.3259
#
#
#
# Elastic Compliance Matrix: (Units=1/GPa)
#
#
# Indices 1 2 3 4 5 6 
#
# 1 0.012494 -0.005729 -0.006079 0.000000 0.000000 0.000000
# 2 -0.005729 0.012494 -0.006079 0.000000 0.000000 0.000000
# 3 -0.006079 -0.006079 0.026331 0.000000 0.000000 0.000000
# 4 0.000000 0.000000 0.000000 0.028633 0.000000 0.000000
# 5 0.000000 0.000000 0.000000 0.000000 0.028633 0.000000
# 6 0.000000 0.000000 0.000000 0.000000 0.000000 0.023626
#
#
# Mechanical properties :
#
#
# Convention : Reuss Voigt Hill
#
# Bulk Modulus (GPa) = 64.32563 89.26998 76.79781
# Shear Modulus (GPa) = 28.87368 32.89416 30.88392
#
# Velocity S-wave (km/s) = 3.85097 4.11035 3.98277
# Velocity P-wave (km/s) = 7.26719 8.26905 7.78425
#
# Compressibility (1/GPa) = 0.01554590
#
# Stress axis : x y z
#
# Youngs Moduli (GPa) = 80.03543 80.03543 37.97766
#
# Poissons Ratio (x) = 0.45852 0.23087
# Poissons Ratio (y) = 0.45852 0.23087
# Poissons Ratio (z) = 0.48654 0.48654
#
# Static dielectric constant tensor:
#      x y z
#    x 3.803420 0.000000 0.000000 
#    y 0.000000 3.803420 0.000000 
#    z 0.000000 0.000000 3.455450 
# 
# 
# High freq. dielectric constant tensor:
#      x y z
#    x 1.770220 0.000000 0.000000 
#    y 0.000000 1.770220 0.000000 
#    z 0.000000 0.000000 1.736320 
# 
# From -- ./inp_files/572.got.cif
#   From: 2010.03.12/outbox.cif.g09.slc.cpg/sg123_1_cif.got.tgz:572.got - 2010.04.06 16:26:55.
