data_PCOD8312102
_publ_section_title
;
Structure prediction by ZEFSAII (Michael W. Deem and Ramdas Pophale) SiO2 
 PCOD8312102
Probable space group: I -4 2 D
;
_chemical_formula_sum "Si O2"
_cell_formula_units_Z 72
_cell_length_a 11.538427
_cell_length_b 11.538427
_cell_length_c 24.549005
_cell_angle_alpha 90.000000
_cell_angle_beta 90.000000
_cell_angle_gamma 90.000000
_cell_volume 3268.339087
_symmetry_space_group_name_H-M "I -4 2 D"
_symmetry_group_IT_number 122
_symmetry_cell_setting 'tetragonal'
loop_
_space_group_symop_operation_xyz
x,y,z
y,-x,-z
-x,-y,z
-y,x,-z
x,1/2-y,1/4-z
-x,1/2+y,1/4-z
-y,1/2-x,1/4+z
y,1/2+x,1/4+z
1/2+x,1/2+y,1/2+z
1/2+y,1/2-x,1/2-z
1/2-x,1/2-y,1/2+z
1/2-y,1/2+x,1/2-z
1/2+x,-y,3/4-z
1/2-x,y,3/4-z
1/2-y,-x,3/4+z
1/2+y,x,3/4+z
loop_
_atom_site_type_symbol
_atom_site_label
_atom_site_fract_x
_atom_site_fract_y
_atom_site_fract_z
Si Si1 0.409137 0.833599 0.667494
Si Si2 0.188877 0.433002 0.011890
Si Si3 0.000000 0.000000 0.158986
Si Si4 0.138989 0.256948 0.561634
Si Si5 0.767707 0.000991 0.723042
O O1 0.337801 0.750000 0.625000
O O2 0.509232 0.886492 0.628928
O O3 0.335855 0.940902 0.689862
O O4 0.473541 0.765521 0.714996
O O5 0.117972 0.507916 0.056027
O O6 0.274038 0.342474 0.041071
O O7 0.258737 0.521883 0.973582
O O8 0.094733 0.369774 0.973820
O O9 0.107762 0.250000 0.625000
O O10 0.195684 0.382773 0.555123
#
# Coordination Sequence:
#
# PCOD8312102 Si02
#       5
#    16  16   8  16  16
#     4  12  24  40  72 110 146 191 229 305 380 435
#     4  12  26  51  73 108 150 189 258 304 356 449
#     4  12  24  43  72 106 148 189 238 306 380 428
#     4  12  28  52  77 102 150 204 242 309 368 436
#     4  12  24  47  73 113 149 183 253 304 364 454
#
# _framework density 22.029539
#
# number of rings (size 3 to 8) (size 9 to 14) (size 15 to 20)
#    0.000    0.000    6.667    2.667    3.111    1.333 
#    8.000    0.000    0.000    0.000    0.000    0.000 
#    0.000    0.000    0.000    0.000    0.000    0.000 
#
# Total GULP energy -446301.197455 kJ/mol
# GULP energy per Si atom -12397.255485 kJ/mol
# Density = 2.197940 g / cm^3
# Si number density = 22.029539 Si / 1000 Ang^3
#
#
#
# Elastic Constant Matrix: (Units=GPa)
#
#
# Indices 1 2 3 4 5 6 
#
# 1 105.9052 35.0812 53.3564 0.0000 0.0000 0.0000
# 2 35.0812 105.9052 53.3564 0.0000 0.0000 0.0000
# 3 53.3564 53.3564 158.0406 0.0000 0.0000 0.0000
# 4 0.0000 0.0000 0.0000 278.4676 0.0000 0.0000
# 5 0.0000 0.0000 0.0000 0.0000 278.4676 0.0000
# 6 0.0000 0.0000 0.0000 0.0000 0.0000 56.9724
#
#
#
# Elastic Compliance Matrix: (Units=1/GPa)
#
#
# Indices 1 2 3 4 5 6 
#
# 1 0.011824 -0.002296 -0.003217 0.000000 0.000000 0.000000
# 2 -0.002296 0.011824 -0.003217 0.000000 0.000000 0.000000
# 3 -0.003217 -0.003217 0.008499 0.000000 0.000000 0.000000
# 4 0.000000 0.000000 0.000000 0.003591 0.000000 0.000000
# 5 0.000000 0.000000 0.000000 0.000000 0.003591 0.000000
# 6 0.000000 0.000000 0.000000 0.000000 0.000000 0.017552
#
#
# Mechanical properties :
#
#
# Convention : Reuss Voigt Hill
#
# Bulk Modulus (GPa) = 68.08254 72.60434 70.34344
# Shear Modulus (GPa) = 63.10312 137.98535 100.54424
#
# Velocity S-wave (km/s) = 5.35789 7.92291 6.76312
# Velocity P-wave (km/s) = 8.32155 10.80398 9.64298
#
# Compressibility (1/GPa) = 0.01468805
#
# Stress axis : x y z
#
# Youngs Moduli (GPa) = 84.57719 84.57719 117.65511
#
# Poissons Ratio (x) = 0.19419 0.37845
# Poissons Ratio (y) = 0.19419 0.37845
# Poissons Ratio (z) = 0.27205 0.27205
#
# Static dielectric constant tensor:
#      x y z
#    x 2.513310 0.000000 0.000000 
#    y 0.000000 2.513310 0.000000 
#    z 0.000000 0.000000 4.272940 
# 
# 
# High freq. dielectric constant tensor:
#      x y z
#    x 1.867600 0.000000 0.000000 
#    y 0.000000 1.867600 0.000000 
#    z 0.000000 0.000000 1.884850 
# 
# From -- ./inp_files/8604.got.cif
#   From: 2010.03.12/outbox.cif.g09.slc.cpg/sg122_5_cif.got.tgz:8604.got - 2010.04.06 16:17:16.
