data_PCOD8312702
_publ_section_title
;
Structure prediction by ZEFSAII (Michael W. Deem and Ramdas Pophale) SiO2 
 PCOD8312702
Probable space group: P 4/M M M
;
_chemical_formula_sum "Si O2"
_cell_formula_units_Z 104
_cell_length_a 20.077835
_cell_length_b 20.077835
_cell_length_c 14.843235
_cell_angle_alpha 90.000000
_cell_angle_beta 90.000000
_cell_angle_gamma 90.000000
_cell_volume 5983.596852
_symmetry_space_group_name_H-M "P 4/M M M"
_symmetry_group_IT_number 123
_symmetry_cell_setting 'tetragonal'
loop_
_space_group_symop_operation_xyz
x,y,z
-y,x,z
-x,-y,z
y,-x,z
x,-y,-z
-x,y,-z
y,x,-z
-y,-x,-z
-x,-y,-z
y,-x,-z
x,y,-z
-y,x,-z
-x,y,z
x,-y,z
-y,-x,z
y,x,z
loop_
_atom_site_type_symbol
_atom_site_label
_atom_site_fract_x
_atom_site_fract_y
_atom_site_fract_z
Si Si1 0.000000 0.579009 0.400170
Si Si2 0.135844 0.761780 0.769269
Si Si3 0.242622 0.346957 0.736976
Si Si4 0.146056 0.422416 0.606463
Si Si5 0.421830 0.802195 0.897752
Si Si6 0.183482 0.075678 0.600035
Si Si7 0.333175 0.926224 0.897311
O O1 0.071667 0.600566 0.355641
O O2 0.000000 0.500000 0.407656
O O3 0.000000 0.609859 0.500000
O O4 0.164575 0.835426 0.794671
O O5 0.197335 0.712625 0.769868
O O6 0.103244 0.762357 0.670034
O O7 0.083107 0.735263 0.841594
O O8 0.315101 0.315101 0.709822
O O9 0.206857 0.383855 0.653758
O O10 0.251273 0.395554 0.824182
O O11 0.150170 0.408746 0.500000
O O12 0.156304 0.500000 0.627680
O O13 0.500000 0.809720 0.887850
O O14 0.391002 0.874126 0.872053
O O15 0.402389 0.780384 0.000000
O O16 0.214542 0.083886 0.500000
O O17 0.114167 0.114167 0.607942
O O18 0.166547 0.000000 0.622870
O O19 0.361816 0.000000 0.878025
O O20 0.311538 0.917509 0.000000
#
# Coordination Sequence:
#
# PCOD8312702 Si02
#       7
#     8  16  16  16  16  16  16
#     4   7  12  26  46  66  91 125 165 206 243 280
#     4   9  18  31  44  59  84 118 153 189 227 272
#     4  10  20  32  47  69  98 130 164 200 238 286
#     4   9  17  31  50  71  99 132 166 206 247 289
#     4   9  18  33  51  70  95 126 159 196 237 283
#     4   9  17  29  44  60  79 105 139 184 238 290
#     4   9  17  29  46  68  92 117 148 188 232 279
#
# _framework density 17.380849999999999
#
# number of rings (size 3 to 8) (size 9 to 14) (size 15 to 20)
#    0.000    3.000    0.000    1.846    0.000    2.000 
#    6.923    6.923    0.000    0.000    0.000    0.000 
#    0.000    4.923    0.000   27.846    0.000    0.769 
#
# Total GULP energy -1288361.787844 kJ/mol
# GULP energy per Si atom -12388.094114 kJ/mol
# Density = 1.734129 g / cm^3
# Si number density = 17.380850 Si / 1000 Ang^3
#
#
#
# Elastic Constant Matrix: (Units=GPa)
#
#
# Indices 1 2 3 4 5 6 
#
# 1 51.8201 58.5979 41.9563 0.0000 0.0000 0.0000
# 2 58.5979 51.8201 41.9563 0.0000 0.0000 0.0000
# 3 41.9563 41.9563 71.2135 0.0000 0.0000 0.0000
# 4 0.0000 0.0000 0.0000 25.3531 0.0000 0.0000
# 5 0.0000 0.0000 0.0000 0.0000 25.3531 0.0000
# 6 0.0000 0.0000 0.0000 0.0000 0.0000 20.0815
#
#
#
# Elastic Compliance Matrix: (Units=1/GPa)
#
#
# Indices 1 2 3 4 5 6 
#
# 1 -0.065571 0.081970 -0.009662 0.000000 0.000000 0.000000
# 2 0.081970 -0.065571 -0.009662 0.000000 0.000000 0.000000
# 3 -0.009662 -0.009662 0.025427 0.000000 0.000000 0.000000
# 4 0.000000 0.000000 0.000000 0.039443 0.000000 0.000000
# 5 0.000000 0.000000 0.000000 0.000000 0.039443 0.000000
# 6 0.000000 0.000000 0.000000 0.000000 0.000000 0.049797
#
#
# Mechanical properties :
#
#
# Convention : Reuss Voigt Hill
#
# Bulk Modulus (GPa) = 51.07741 51.09720 51.08730
# Shear Modulus (GPa) = -52.19259 16.31377 -17.93941
#
# Velocity S-wave (km/s) = -5.48580 3.06699 -3.21617
# Velocity P-wave (km/s) = 3.26716 6.48107 3.95790
#
# Compressibility (1/GPa) = 0.01957813
#
# Stress axis : x y z
#
# Youngs Moduli (GPa) = -15.25069 -15.25069 39.32869
#
# Poissons Ratio (x) = 1.25009 0.37998
# Poissons Ratio (y) = 1.25009 0.37998
# Poissons Ratio (z) = -0.14735 -0.14735
#
# Static dielectric constant tensor:
#      x y z
#    x 3.296610 0.000000 0.000000 
#    y 0.000000 3.296610 0.000000 
#    z 0.000000 0.000000 3.339550 
# 
# 
# High freq. dielectric constant tensor:
#      x y z
#    x 1.649680 0.000000 0.000000 
#    y 0.000000 1.649680 0.000000 
#    z 0.000000 0.000000 1.673800 
# 
# From -- ./inp_files/5632.got.cif
#   From: 2010.03.12/outbox.cif.g09.slc.cpg/sg123_3_cif.got.tgz:5632.got - 2010.04.06 16:26:55.
