data_PCOD8312034
_publ_section_title
;
Structure prediction by ZEFSAII (Michael W. Deem and Ramdas Pophale) SiO2 
 PCOD8312034
Probable space group: I -4 2 D
;
_chemical_formula_sum "Si O2"
_cell_formula_units_Z 120
_cell_length_a 19.740874
_cell_length_b 19.740874
_cell_length_c 15.305261
_cell_angle_alpha 90.000000
_cell_angle_beta 90.000000
_cell_angle_gamma 90.000000
_cell_volume 5964.492449
_symmetry_space_group_name_H-M "I -4 2 D"
_symmetry_group_IT_number 122
_symmetry_cell_setting 'tetragonal'
loop_
_space_group_symop_operation_xyz
x,y,z
y,-x,-z
-x,-y,z
-y,x,-z
x,1/2-y,1/4-z
-x,1/2+y,1/4-z
-y,1/2-x,1/4+z
y,1/2+x,1/4+z
1/2+x,1/2+y,1/2+z
1/2+y,1/2-x,1/2-z
1/2-x,1/2-y,1/2+z
1/2-y,1/2+x,1/2-z
1/2+x,-y,3/4-z
1/2-x,y,3/4-z
1/2-y,-x,3/4+z
1/2+y,x,3/4+z
loop_
_atom_site_type_symbol
_atom_site_label
_atom_site_fract_x
_atom_site_fract_y
_atom_site_fract_z
Si Si1 0.677920 0.295409 0.919531
Si Si2 0.158598 0.378334 0.006262
Si Si3 0.005476 0.198107 0.844389
Si Si4 0.184469 0.750000 0.125000
Si Si5 0.533003 0.678423 0.652176
Si Si6 0.274613 0.082101 0.024211
Si Si7 0.290700 0.866576 0.159774
Si Si8 0.989133 0.894686 0.986202
O O1 0.750000 0.295098 0.875000
O O2 0.665779 0.221114 0.959419
O O3 0.622417 0.318862 0.847596
O O4 0.675880 0.349338 0.997732
O O5 0.179175 0.459327 0.009031
O O6 0.093131 0.369956 0.067112
O O7 0.137498 0.351890 0.910086
O O8 0.951963 0.214451 0.921571
O O9 0.058056 0.258924 0.828786
O O10 0.040318 0.133674 0.892717
O O11 0.137451 0.742335 0.209645
O O12 0.230799 0.816364 0.132166
O O13 0.565832 0.750000 0.625000
O O14 0.474293 0.680470 0.725890
O O15 0.496232 0.659258 0.562241
O O16 0.057989 0.933874 0.968007
#
# Coordination Sequence:
#
# PCOD8312034 Si02
#       8
#    16  16  16   8  16  16  16  16
#     4  11  22  39  63  94 124 162 219 284 329 386
#     4  11  22  41  62  93 133 173 218 269 331 405
#     4  11  24  37  62  94 128 173 220 261 324 413
#     4  12  22  38  68  94 126 158 212 278 338 408
#     4  12  21  36  61  92 132 176 205 256 331 407
#     4  11  22  37  58  95 123 165 210 264 332 395
#     4  12  23  42  65  95 130 177 222 280 347 388
#     4  11  23  37  55  88 132 171 208 254 314 399
#
# _framework density 20.119063000000001
#
# number of rings (size 3 to 8) (size 9 to 14) (size 15 to 20)
#    0.000    0.667    7.333    0.400    3.733    1.067 
#    0.000    2.667    0.000    0.000    0.000    0.000 
#    0.000    0.000    0.000    0.000    0.000    0.000 
#
# Total GULP energy -743495.347920 kJ/mol
# GULP energy per Si atom -12391.589132 kJ/mol
# Density = 2.007327 g / cm^3
# Si number density = 20.119063 Si / 1000 Ang^3
#
#
#
# Elastic Constant Matrix: (Units=GPa)
#
#
# Indices 1 2 3 4 5 6 
#
# 1 85.7689 29.8961 44.1613 0.0000 0.0000 0.0000
# 2 29.8961 85.7689 44.1613 0.0000 0.0000 0.0000
# 3 44.1613 44.1613 110.2084 0.0000 0.0000 0.0000
# 4 0.0000 0.0000 0.0000 30.9067 0.0000 0.0000
# 5 0.0000 0.0000 0.0000 0.0000 30.9067 0.0000
# 6 0.0000 0.0000 0.0000 0.0000 0.0000 -9.3410
#
#
#
# Elastic Compliance Matrix: (Units=1/GPa)
#
#
# Indices 1 2 3 4 5 6 
#
# 1 0.015178 -0.002720 -0.004992 0.000000 0.000000 0.000000
# 2 -0.002720 0.015178 -0.004992 0.000000 0.000000 0.000000
# 3 -0.004992 -0.004992 0.013074 0.000000 0.000000 0.000000
# 4 0.000000 0.000000 0.000000 0.032355 0.000000 0.000000
# 5 0.000000 0.000000 0.000000 0.000000 0.032355 0.000000
# 6 0.000000 0.000000 0.000000 0.000000 0.000000 -0.107055
#
#
# Mechanical properties :
#
#
# Convention : Reuss Voigt Hill
#
# Bulk Modulus (GPa) = 55.48796 57.57595 56.53195
# Shear Modulus (GPa) = 153.84431 21.39631 87.62031
#
# Velocity S-wave (km/s) = 8.75402 3.26465 6.60647
# Velocity P-wave (km/s) = 11.39372 6.54907 9.29266
#
# Compressibility (1/GPa) = 0.01802193
#
# Stress axis : x y z
#
# Youngs Moduli (GPa) = 65.88657 65.88657 76.48648
#
# Poissons Ratio (x) = 0.17922 0.38180
# Poissons Ratio (y) = 0.17922 0.38180
# Poissons Ratio (z) = 0.32889 0.32889
#
# Static dielectric constant tensor:
#      x y z
#    x 3.655290 0.000000 0.000000 
#    y 0.000000 3.655290 0.000000 
#    z 0.000000 0.000000 3.942790 
# 
# 
# High freq. dielectric constant tensor:
#      x y z
#    x 1.776380 0.000000 0.000000 
#    y 0.000000 1.776380 0.000000 
#    z 0.000000 0.000000 1.786860 
# 
# From -- ./inp_files/5572.got.cif
#   From: 2010.03.12/outbox.cif.g09.slc.cpg/sg122_3_cif.got.tgz:5572.got - 2010.04.06 16:17:16.
