data_PCOD8312247
_publ_section_title
;
Structure prediction by ZEFSAII (Michael W. Deem and Ramdas Pophale) SiO2 
 PCOD8312247
Probable space group: P 4/M M M
;
_chemical_formula_sum "Si O2"
_cell_formula_units_Z 88
_cell_length_a 17.979843
_cell_length_b 17.979843
_cell_length_c 16.414167
_cell_angle_alpha 90.000000
_cell_angle_beta 90.000000
_cell_angle_gamma 90.000000
_cell_volume 5306.285804
_symmetry_space_group_name_H-M "P 4/M M M"
_symmetry_group_IT_number 123
_symmetry_cell_setting 'tetragonal'
loop_
_space_group_symop_operation_xyz
x,y,z
-y,x,z
-x,-y,z
y,-x,z
x,-y,-z
-x,y,-z
y,x,-z
-y,-x,-z
-x,-y,-z
y,-x,-z
x,y,-z
-y,x,-z
-x,y,z
x,-y,z
-y,-x,z
y,x,z
loop_
_atom_site_type_symbol
_atom_site_label
_atom_site_fract_x
_atom_site_fract_y
_atom_site_fract_z
Si Si1 0.584876 0.295965 0.405030
Si Si2 0.083478 0.412733 0.000000
Si Si3 0.689051 0.810758 0.693495
Si Si4 0.196321 0.919655 0.090941
Si Si5 0.915135 0.796037 0.595026
Si Si6 0.349044 0.915495 0.167208
O O1 0.587672 0.276569 0.500000
O O2 0.500000 0.302523 0.373913
O O3 0.625540 0.374461 0.387297
O O4 0.626735 0.229495 0.359752
O O5 0.119523 0.385344 0.084845
O O6 0.084648 0.500000 0.000000
O O7 0.000000 0.379107 0.000000
O O8 0.749637 0.749637 0.726162
O O9 0.729538 0.873280 0.640334
O O10 0.641212 0.853946 0.762721
O O11 0.137405 0.862596 0.126142
O O12 0.261542 0.921286 0.155322
O O13 0.157529 0.000000 0.087281
O O14 0.224727 0.897525 0.000000
O O15 0.912671 0.776662 0.500000
O O16 0.874630 0.874630 0.612392
O O17 0.000000 0.801810 0.626576
O O18 0.380166 0.000000 0.187145
#
# Coordination Sequence:
#
# PCOD8312247 Si02
#       6
#    16   8  16  16  16  16
#     4   9  18  33  53  76 101 126 150 179 218 268
#     4   9  18  32  47  62  81 107 143 188 235 276
#     4  10  19  30  46  70  96 124 155 188 229 279
#     4   9  16  26  40  58  82 112 147 188 232 276
#     4   9  17  29  45  65  91 125 165 207 245 277
#     4  10  18  30  46  64  86 117 156 195 232 274
#
# _framework density 16.584105999999998
#
# number of rings (size 3 to 8) (size 9 to 14) (size 15 to 20)
#    0.000    2.636    0.909    1.636    0.000    3.455 
#    0.000    2.727    0.000    1.636    0.000    8.909 
#    0.000    0.000    0.000    0.000    0.000   14.545 
#
# Total GULP energy -1090484.685657 kJ/mol
# GULP energy per Si atom -12391.871428 kJ/mol
# Density = 1.654636 g / cm^3
# Si number density = 16.584106 Si / 1000 Ang^3
#
#
#
# Elastic Constant Matrix: (Units=GPa)
#
#
# Indices 1 2 3 4 5 6 
#
# 1 93.4265 45.2608 43.2770 0.0000 0.0000 0.0000
# 2 45.2608 93.4265 43.2770 0.0000 0.0000 0.0000
# 3 43.2770 43.2770 70.1049 0.0000 0.0000 0.0000
# 4 0.0000 0.0000 0.0000 16.0844 0.0000 0.0000
# 5 0.0000 0.0000 0.0000 0.0000 16.0844 0.0000
# 6 0.0000 0.0000 0.0000 0.0000 0.0000 14.9101
#
#
#
# Elastic Compliance Matrix: (Units=1/GPa)
#
#
# Indices 1 2 3 4 5 6 
#
# 1 0.016246 -0.004516 -0.007241 0.000000 0.000000 0.000000
# 2 -0.004516 0.016246 -0.007241 0.000000 0.000000 0.000000
# 3 -0.007241 -0.007241 0.023204 0.000000 0.000000 0.000000
# 4 0.000000 0.000000 0.000000 0.062172 0.000000 0.000000
# 5 0.000000 0.000000 0.000000 0.000000 0.062172 0.000000
# 6 0.000000 0.000000 0.000000 0.000000 0.000000 0.067069
#
#
# Mechanical properties :
#
#
# Convention : Reuss Voigt Hill
#
# Bulk Modulus (GPa) = 56.49791 57.84307 57.17049
# Shear Modulus (GPa) = 17.18196 17.75866 17.47031
#
# Velocity S-wave (km/s) = 3.22227 3.27590 3.24919
# Velocity P-wave (km/s) = 6.92715 7.01876 6.97311
#
# Compressibility (1/GPa) = 0.01769977
#
# Stress axis : x y z
#
# Youngs Moduli (GPa) = 61.55537 61.55537 43.09588
#
# Poissons Ratio (x) = 0.27799 0.31205
# Poissons Ratio (y) = 0.27799 0.31205
# Poissons Ratio (z) = 0.44571 0.44571
#
# Static dielectric constant tensor:
#      x y z
#    x 3.082350 0.000000 0.000000 
#    y 0.000000 3.082350 0.000000 
#    z 0.000000 0.000000 3.110170 
# 
# 
# High freq. dielectric constant tensor:
#      x y z
#    x 1.625120 0.000000 0.000000 
#    y 0.000000 1.625120 0.000000 
#    z 0.000000 0.000000 1.633590 
# 
# From -- ./inp_files/4055.got.cif
#   From: 2010.03.12/outbox.cif.g09.slc.cpg/sg123_3_cif.got.tgz:4055.got - 2010.04.06 16:26:55.
