data_PCOD8312049
_publ_section_title
;
Structure prediction by ZEFSAII (Michael W. Deem and Ramdas Pophale) SiO2 
 PCOD8312049
Probable space group: I -4 2 D
;
_chemical_formula_sum "Si O2"
_cell_formula_units_Z 56
_cell_length_a 20.847672
_cell_length_b 20.847672
_cell_length_c 5.055904
_cell_angle_alpha 90.000000
_cell_angle_beta 90.000000
_cell_angle_gamma 90.000000
_cell_volume 2197.424439
_symmetry_space_group_name_H-M "I -4 2 D"
_symmetry_group_IT_number 122
_symmetry_cell_setting 'tetragonal'
loop_
_space_group_symop_operation_xyz
x,y,z
y,-x,-z
-x,-y,z
-y,x,-z
x,1/2-y,1/4-z
-x,1/2+y,1/4-z
-y,1/2-x,1/4+z
y,1/2+x,1/4+z
1/2+x,1/2+y,1/2+z
1/2+y,1/2-x,1/2-z
1/2-x,1/2-y,1/2+z
1/2-y,1/2+x,1/2-z
1/2+x,-y,3/4-z
1/2-x,y,3/4-z
1/2-y,-x,3/4+z
1/2+y,x,3/4+z
loop_
_atom_site_type_symbol
_atom_site_label
_atom_site_fract_x
_atom_site_fract_y
_atom_site_fract_z
Si Si1 0.750000 0.099670 0.875000
Si Si2 0.650557 0.290206 0.387604
Si Si3 0.177380 0.008338 0.097513
Si Si4 0.900309 0.995882 0.585930
O O1 0.688209 0.143935 0.930555
O O2 0.730966 0.048098 0.646795
O O3 0.685670 0.250000 0.625000
O O4 0.578877 0.301586 0.496616
O O5 0.650210 0.250000 0.125000
O O6 0.160827 0.017085 0.404124
O O7 0.120077 0.989401 0.888752
O O8 0.933883 0.055260 0.438256
#
# Coordination Sequence:
#
# PCOD8312049 Si02
#       4
#     8  16  16  16
#     4  12  28  48  82 108 150 210 246 312 394 438
#     4  12  27  51  74 112 157 193 258 313 370 457
#     4  12  26  46  72 111 146 197 255 310 371 451
#     4  11  23  42  70 107 151 195 244 307 376 447
#
# _framework density 25.484382
#
# number of rings (size 3 to 8) (size 9 to 14) (size 15 to 20)
#    0.000    0.286    1.429    7.714    0.000    6.857 
#    0.000    0.000    0.000    0.000    0.000    0.000 
#    0.000    0.000    0.000    0.000    0.000    0.000 
#
# Total GULP energy -346911.911316 kJ/mol
# GULP energy per Si atom -12389.711118 kJ/mol
# Density = 2.542638 g / cm^3
# Si number density = 25.484382 Si / 1000 Ang^3
#
#
#
# Elastic Constant Matrix: (Units=GPa)
#
#
# Indices 1 2 3 4 5 6 
#
# 1 134.2110 54.4714 17.1622 0.0000 0.0000 0.0000
# 2 54.4714 134.2110 17.1622 0.0000 0.0000 0.0000
# 3 17.1622 17.1622 119.2877 0.0000 0.0000 0.0000
# 4 0.0000 0.0000 0.0000 16.9196 0.0000 0.0000
# 5 0.0000 0.0000 0.0000 0.0000 16.9196 0.0000
# 6 0.0000 0.0000 0.0000 0.0000 0.0000 149.3286
#
#
#
# Elastic Compliance Matrix: (Units=1/GPa)
#
#
# Indices 1 2 3 4 5 6 
#
# 1 0.008992 -0.003549 -0.000783 0.000000 0.000000 0.000000
# 2 -0.003549 0.008992 -0.000783 0.000000 0.000000 0.000000
# 3 -0.000783 -0.000783 0.008608 0.000000 0.000000 0.000000
# 4 0.000000 0.000000 0.000000 0.059103 0.000000 0.000000
# 5 0.000000 0.000000 0.000000 0.000000 0.059103 0.000000
# 6 0.000000 0.000000 0.000000 0.000000 0.000000 0.006697
#
#
# Mechanical properties :
#
#
# Convention : Reuss Voigt Hill
#
# Bulk Modulus (GPa) = 61.12063 62.81126 61.96594
# Shear Modulus (GPa) = 29.90820 56.56116 43.23468
#
# Velocity S-wave (km/s) = 3.42949 4.71621 4.12335
# Velocity P-wave (km/s) = 6.30218 7.37274 6.85838
#
# Compressibility (1/GPa) = 0.01636109
#
# Stress axis : x y z
#
# Youngs Moduli (GPa) = 111.21509 111.21509 116.16558
#
# Poissons Ratio (x) = 0.39473 0.09096
# Poissons Ratio (y) = 0.39473 0.09096
# Poissons Ratio (z) = 0.08708 0.08708
#
# Static dielectric constant tensor:
#      x y z
#    x 5.072580 0.000000 0.000000 
#    y 0.000000 5.072580 0.000000 
#    z 0.000000 0.000000 4.300480 
# 
# 
# High freq. dielectric constant tensor:
#      x y z
#    x 2.027780 0.000000 0.000000 
#    y 0.000000 2.027780 0.000000 
#    z 0.000000 0.000000 2.013270 
# 
# From -- ./inp_files/811.got.cif
#   From: 2010.03.12/outbox.cif.g09.slc.cpg/sg122_1_cif.got.tgz:811.got - 2010.04.06 16:17:16.
