data_PCOD8312939
_publ_section_title
;
Structure prediction by ZEFSAII (Michael W. Deem and Ramdas Pophale) SiO2 
 PCOD8312939
Probable space group: P 4/M M M
;
_chemical_formula_sum "Si O2"
_cell_formula_units_Z 72
_cell_length_a 20.434314
_cell_length_b 20.434314
_cell_length_c 8.849401
_cell_angle_alpha 90.000000
_cell_angle_beta 90.000000
_cell_angle_gamma 90.000000
_cell_volume 3695.166400
_symmetry_space_group_name_H-M "P 4/M M M"
_symmetry_group_IT_number 123
_symmetry_cell_setting 'tetragonal'
loop_
_space_group_symop_operation_xyz
x,y,z
-y,x,z
-x,-y,z
y,-x,z
x,-y,-z
-x,y,-z
y,x,-z
-y,-x,-z
-x,-y,-z
y,-x,-z
x,y,-z
-y,x,-z
-x,y,z
x,-y,z
-y,-x,z
y,x,z
loop_
_atom_site_type_symbol
_atom_site_label
_atom_site_fract_x
_atom_site_fract_y
_atom_site_fract_z
Si Si1 0.500000 0.754360 0.679224
Si Si2 0.270147 0.834951 0.168989
Si Si3 0.176496 0.926553 0.669072
Si Si4 0.392786 0.500000 0.178827
Si Si5 0.576460 0.000000 0.832880
Si Si6 0.861517 0.603164 0.674519
O O1 0.500000 0.743102 0.500000
O O2 0.500000 0.680966 0.751139
O O3 0.440323 0.800686 0.734297
O O4 0.234422 0.765579 0.181259
O O5 0.221391 0.893552 0.205679
O O6 0.324939 0.835143 0.296055
O O7 0.298367 0.845331 0.000000
O O8 0.207514 0.920754 0.500000
O O9 0.105114 0.894887 0.669604
O O10 0.167642 0.000000 0.721206
O O11 0.434910 0.434910 0.227155
O O12 0.383871 0.500000 0.000000
O O13 0.596097 0.932591 0.751204
O O14 0.500000 0.000000 0.847082
O O15 0.608641 0.000000 0.000000
O O16 0.873462 0.588198 0.500000
#
# Coordination Sequence:
#
# PCOD8312939 Si02
#       6
#     8  16  16   8   8  16
#     4  10  23  40  60  90 122 154 193 238 288 344
#     4  10  22  39  57  80 112 149 192 241 290 343
#     4   9  18  33  53  77 105 139 180 228 285 345
#     4   9  20  40  65  93 125 162 202 243 292 352
#     4  11  23  39  61  89 119 153 196 245 294 351
#     4  11  23  40  61  85 118 157 197 241 295 355
#
# _framework density 19.484915000000001
#
# number of rings (size 3 to 8) (size 9 to 14) (size 15 to 20)
#    0.000    2.000    1.111    2.000    1.556    5.556 
#    0.000    6.111    0.000    0.000    0.000    3.111 
#    0.000    0.000    0.000    0.000    0.000    0.000 
#
# Total GULP energy -892039.217294 kJ/mol
# GULP energy per Si atom -12389.433574 kJ/mol
# Density = 1.944057 g / cm^3
# Si number density = 19.484915 Si / 1000 Ang^3
#
#
#
# Elastic Constant Matrix: (Units=GPa)
#
#
# Indices 1 2 3 4 5 6 
#
# 1 134.7459 52.5240 37.2964 0.0000 0.0000 0.0000
# 2 52.5240 134.7459 37.2964 0.0000 0.0000 0.0000
# 3 37.2964 37.2964 67.8461 0.0000 0.0000 0.0000
# 4 0.0000 0.0000 0.0000 25.6274 0.0000 0.0000
# 5 0.0000 0.0000 0.0000 0.0000 25.6274 0.0000
# 6 0.0000 0.0000 0.0000 0.0000 0.0000 10.2788
#
#
#
# Elastic Compliance Matrix: (Units=1/GPa)
#
#
# Indices 1 2 3 4 5 6 
#
# 1 0.009500 -0.002663 -0.003758 0.000000 0.000000 0.000000
# 2 -0.002663 0.009500 -0.003758 0.000000 0.000000 0.000000
# 3 -0.003758 -0.003758 0.018871 0.000000 0.000000 0.000000
# 4 0.000000 0.000000 0.000000 0.039021 0.000000 0.000000
# 5 0.000000 0.000000 0.000000 0.000000 0.039021 0.000000
# 6 0.000000 0.000000 0.000000 0.000000 0.000000 0.097288
#
#
# Mechanical properties :
#
#
# Convention : Reuss Voigt Hill
#
# Bulk Modulus (GPa) = 57.10491 65.73018 61.41754
# Shear Modulus (GPa) = 20.88590 26.32145 23.60367
#
# Velocity S-wave (km/s) = 3.27754 3.67940 3.48427
# Velocity P-wave (km/s) = 6.61014 7.20123 6.91200
#
# Compressibility (1/GPa) = 0.01751163
#
# Stress axis : x y z
#
# Youngs Moduli (GPa) = 105.26800 105.26800 52.99033
#
# Poissons Ratio (x) = 0.28029 0.19916
# Poissons Ratio (y) = 0.28029 0.19916
# Poissons Ratio (z) = 0.39564 0.39564
#
# Static dielectric constant tensor:
#      x y z
#    x 3.569330 0.000000 0.000000 
#    y 0.000000 3.569330 0.000000 
#    z 0.000000 0.000000 3.612690 
# 
# 
# High freq. dielectric constant tensor:
#      x y z
#    x 1.762830 0.000000 0.000000 
#    y 0.000000 1.762830 0.000000 
#    z 0.000000 0.000000 1.758050 
# 
# From -- ./inp_files/1210.got.cif
#   From: 2010.03.12/outbox.cif.g09.slc.cpg/sg123_1_cif.got.tgz:1210.got - 2010.04.06 16:26:55.
