data_PCOD8312138
_publ_section_title
;
Structure prediction by ZEFSAII (Michael W. Deem and Ramdas Pophale) SiO2 
 PCOD8312138
Probable space group: P 4/M M M
;
_chemical_formula_sum "Si O2"
_cell_formula_units_Z 128
_cell_length_a 22.288026
_cell_length_b 22.288026
_cell_length_c 17.757115
_cell_angle_alpha 90.000000
_cell_angle_beta 90.000000
_cell_angle_gamma 90.000000
_cell_volume 8820.955248
_symmetry_space_group_name_H-M "P 4/M M M"
_symmetry_group_IT_number 123
_symmetry_cell_setting 'tetragonal'
loop_
_space_group_symop_operation_xyz
x,y,z
-y,x,z
-x,-y,z
y,-x,z
x,-y,-z
-x,y,-z
y,x,-z
-y,-x,-z
-x,-y,-z
y,-x,-z
x,y,-z
-y,x,-z
-x,y,z
x,-y,z
-y,-x,z
y,x,z
loop_
_atom_site_type_symbol
_atom_site_label
_atom_site_fract_x
_atom_site_fract_y
_atom_site_fract_z
Si Si1 0.647420 0.745954 0.697644
Si Si2 0.429579 0.334619 0.802253
Si Si3 0.430703 0.178081 0.588029
Si Si4 0.430308 0.931988 0.310475
Si Si5 0.149354 0.632831 0.808425
Si Si6 0.764224 0.569739 0.917458
Si Si7 0.935636 0.155889 0.910750
Si Si8 0.932552 0.708587 0.912469
O O1 0.708364 0.708364 0.678039
O O2 0.598383 0.701468 0.732616
O O3 0.615479 0.774274 0.624297
O O4 0.663597 0.800214 0.755109
O O5 0.500000 0.341958 0.788379
O O6 0.400366 0.400366 0.808531
O O7 0.413844 0.299043 0.878809
O O8 0.418225 0.178300 0.500000
O O9 0.500000 0.195826 0.606691
O O10 0.417871 0.110490 0.617483
O O11 0.500000 0.934793 0.291623
O O12 0.398893 0.902793 0.238509
O O13 0.406066 0.000000 0.325473
O O14 0.180775 0.585855 0.863612
O O15 0.118028 0.680294 0.861458
O O16 0.768561 0.500000 0.929791
O O17 0.767719 0.601457 0.000000
O O18 0.884084 0.115917 0.872263
O O19 0.930017 0.223557 0.884226
O O20 0.000000 0.129723 0.885309
O O21 0.930467 0.153808 0.000000
O O22 0.000000 0.682748 0.899442
O O23 0.915149 0.701277 0.000000
#
# Coordination Sequence:
#
# PCOD8312138 Si02
#       8
#    16  16  16  16  16  16  16  16
#     4   9  18  30  43  61  83 106 132 162 195 230
#     4   9  17  29  44  60  79 102 127 160 202 246
#     4   9  17  29  46  66  85 106 131 157 188 231
#     4   9  17  28  42  61  84 107 130 159 194 229
#     4  10  17  27  42  57  76 104 138 166 193 234
#     4   9  17  28  41  56  74  98 130 169 207 237
#     4   8  14  24  36  50  68  89 115 149 189 230
#     4   9  17  27  38  54  77 104 133 167 205 238
#
# _framework density 14.510899999999999
#
# number of rings (size 3 to 8) (size 9 to 14) (size 15 to 20)
#    0.000    3.000    0.000    2.250    0.000    4.500 
#    0.000    1.875    0.000    2.250    0.000    7.000 
#    0.000    0.000    0.000   11.625    0.000    0.000 
#
# Total GULP energy -1586022.682128 kJ/mol
# GULP energy per Si atom -12390.802204 kJ/mol
# Density = 1.447787 g / cm^3
# Si number density = 14.510900 Si / 1000 Ang^3
#
#
#
# Elastic Constant Matrix: (Units=GPa)
#
#
# Indices 1 2 3 4 5 6 
#
# 1 79.1603 49.3943 38.8105 0.0000 0.0000 0.0000
# 2 49.3943 79.1603 38.8105 0.0000 0.0000 0.0000
# 3 38.8105 38.8105 78.3834 0.0000 0.0000 0.0000
# 4 0.0000 0.0000 0.0000 24.8005 0.0000 0.0000
# 5 0.0000 0.0000 0.0000 0.0000 24.8005 0.0000
# 6 0.0000 0.0000 0.0000 0.0000 0.0000 26.2256
#
#
#
# Elastic Compliance Matrix: (Units=1/GPa)
#
#
# Indices 1 2 3 4 5 6 
#
# 1 0.022346 -0.011250 -0.005494 0.000000 0.000000 0.000000
# 2 -0.011250 0.022346 -0.005494 0.000000 0.000000 0.000000
# 3 -0.005494 -0.005494 0.018198 0.000000 0.000000 0.000000
# 4 0.000000 0.000000 0.000000 0.040322 0.000000 0.000000
# 5 0.000000 0.000000 0.000000 0.000000 0.040322 0.000000
# 6 0.000000 0.000000 0.000000 0.000000 0.000000 0.038131
#
#
# Mechanical properties :
#
#
# Convention : Reuss Voigt Hill
#
# Bulk Modulus (GPa) = 54.30558 54.52607 54.41582
# Shear Modulus (GPa) = 21.52592 22.47789 22.00191
#
# Velocity S-wave (km/s) = 3.85571 3.94005 3.89811
# Velocity P-wave (km/s) = 7.57148 7.63912 7.60537
#
# Compressibility (1/GPa) = 0.01841431
#
# Stress axis : x y z
#
# Youngs Moduli (GPa) = 44.75119 44.75119 54.94964
#
# Poissons Ratio (x) = 0.50344 0.30190
# Poissons Ratio (y) = 0.50344 0.30190
# Poissons Ratio (z) = 0.24587 0.24587
#
# Static dielectric constant tensor:
#      x y z
#    x 2.949970 0.000000 0.000000 
#    y 0.000000 2.949970 0.000000 
#    z 0.000000 0.000000 2.739290 
# 
# 
# High freq. dielectric constant tensor:
#      x y z
#    x 1.550620 0.000000 0.000000 
#    y 0.000000 1.550620 0.000000 
#    z 0.000000 0.000000 1.533800 
# 
# From -- ./inp_files/6007.got.cif
#   From: 2010.03.12/outbox.cif.g09.slc.cpg/sg123_4_cif.got.tgz:6007.got - 2010.04.06 16:26:55.
