data_PCOD8312608
_publ_section_title
;
Structure prediction by ZEFSAII (Michael W. Deem and Ramdas Pophale) SiO2 
 PCOD8312608
Probable space group: P 4/M M M
;
_chemical_formula_sum "Si O2"
_cell_formula_units_Z 80
_cell_length_a 12.651986
_cell_length_b 12.651986
_cell_length_c 28.537353
_cell_angle_alpha 90.000000
_cell_angle_beta 90.000000
_cell_angle_gamma 90.000000
_cell_volume 4568.052565
_symmetry_space_group_name_H-M "P 4/M M M"
_symmetry_group_IT_number 123
_symmetry_cell_setting 'tetragonal'
loop_
_space_group_symop_operation_xyz
x,y,z
-y,x,z
-x,-y,z
y,-x,z
x,-y,-z
-x,y,-z
y,x,-z
-y,-x,-z
-x,-y,-z
y,-x,-z
x,y,-z
-y,x,-z
-x,y,z
x,-y,z
-y,-x,z
y,x,z
loop_
_atom_site_type_symbol
_atom_site_label
_atom_site_fract_x
_atom_site_fract_y
_atom_site_fract_z
Si Si1 0.211283 0.379525 0.268182
Si Si2 0.208223 0.620877 0.552188
Si Si3 0.877894 0.500000 0.883849
Si Si4 0.708917 0.118497 0.358364
Si Si5 0.329332 0.500000 0.944630
Si Si6 0.292049 0.119857 0.823114
O O1 0.225828 0.500000 0.253404
O O2 0.326810 0.326810 0.268036
O O3 0.159902 0.372899 0.319532
O O4 0.135796 0.320367 0.231355
O O5 0.162047 0.643001 0.500000
O O6 0.239358 0.500000 0.558483
O O7 0.315808 0.684193 0.561136
O O8 0.122232 0.654563 0.590563
O O9 0.789592 0.500000 0.924356
O O10 0.857448 0.396196 0.853203
O O11 0.000000 0.500000 0.903192
O O12 0.816382 0.183619 0.356670
O O13 0.741335 0.000000 0.347093
O O14 0.395528 0.395528 0.928829
O O15 0.316472 0.500000 0.000000
O O16 0.198704 0.198704 0.839312
O O17 0.252101 0.000000 0.830166
#
# Coordination Sequence:
#
# PCOD8312608 Si02
#       6
#    16  16   8  16   8  16
#     4  10  20  34  51  72 100 130 163 202 243 293
#     4   9  18  32  49  71  97 121 149 186 228 280
#     4  10  19  32  52  76 105 138 174 220 262 304
#     4  10  21  35  51  70  91 120 156 196 243 290
#     4   9  18  33  53  77 107 142 177 216 262 310
#     4  10  20  33  50  73 101 135 173 214 259 304
#
# _framework density 17.512934000000001
#
# number of rings (size 3 to 8) (size 9 to 14) (size 15 to 20)
#    0.000    2.300    1.000    2.100    0.000    3.800 
#    0.000    2.000    0.000    7.200    0.000    2.800 
#    0.000    0.000    0.000   18.600    0.000    0.000 
#
# Total GULP energy -991869.050010 kJ/mol
# GULP energy per Si atom -12398.363125 kJ/mol
# Density = 1.747307 g / cm^3
# Si number density = 17.512934 Si / 1000 Ang^3
#
#
#
# Elastic Constant Matrix: (Units=GPa)
#
#
# Indices 1 2 3 4 5 6 
#
# 1 103.1156 66.3392 33.6300 0.0000 0.0000 0.0000
# 2 66.3392 103.1156 33.6300 0.0000 0.0000 0.0000
# 3 33.6300 33.6300 62.5859 0.0000 0.0000 0.0000
# 4 0.0000 0.0000 0.0000 23.1209 0.0000 0.0000
# 5 0.0000 0.0000 0.0000 0.0000 23.1209 0.0000
# 6 0.0000 0.0000 0.0000 0.0000 0.0000 16.8111
#
#
#
# Elastic Compliance Matrix: (Units=1/GPa)
#
#
# Indices 1 2 3 4 5 6 
#
# 1 0.017346 -0.009845 -0.004031 0.000000 0.000000 0.000000
# 2 -0.009845 0.017346 -0.004031 0.000000 0.000000 0.000000
# 3 -0.004031 -0.004031 0.020310 0.000000 0.000000 0.000000
# 4 0.000000 0.000000 0.000000 0.043251 0.000000 0.000000
# 5 0.000000 0.000000 0.000000 0.000000 0.043251 0.000000
# 6 0.000000 0.000000 0.000000 0.000000 0.000000 0.059484
#
#
# Mechanical properties :
#
#
# Convention : Reuss Voigt Hill
#
# Bulk Modulus (GPa) = 52.11230 59.55726 55.83478
# Shear Modulus (GPa) = 20.55938 21.62509 21.09224
#
# Velocity S-wave (km/s) = 3.43002 3.51779 3.47418
# Velocity P-wave (km/s) = 6.74594 7.11205 6.93141
#
# Compressibility (1/GPa) = 0.01918933
#
# Stress axis : x y z
#
# Youngs Moduli (GPa) = 57.64935 57.64935 49.23744
#
# Poissons Ratio (x) = 0.56756 0.19846
# Poissons Ratio (y) = 0.56756 0.19846
# Poissons Ratio (z) = 0.23237 0.23237
#
# Static dielectric constant tensor:
#      x y z
#    x 3.183060 0.000000 0.000000 
#    y 0.000000 3.183060 0.000000 
#    z 0.000000 0.000000 3.246130 
# 
# 
# High freq. dielectric constant tensor:
#      x y z
#    x 1.673510 0.000000 0.000000 
#    y 0.000000 1.673510 0.000000 
#    z 0.000000 0.000000 1.672140 
# 
# From -- ./inp_files/8350.got.cif
#   From: 2010.03.12/outbox.cif.g09.slc.cpg/sg123_5_cif.got.tgz:8350.got - 2010.04.06 16:26:55.
