data_PCOD8312432
_publ_section_title
;
Structure prediction by ZEFSAII (Michael W. Deem and Ramdas Pophale) SiO2 
 PCOD8312432
Probable space group: P 4/M M M
;
_chemical_formula_sum "Si O2"
_cell_formula_units_Z 64
_cell_length_a 13.707721
_cell_length_b 13.707721
_cell_length_c 20.422761
_cell_angle_alpha 90.000000
_cell_angle_beta 90.000000
_cell_angle_gamma 90.000000
_cell_volume 3837.469775
_symmetry_space_group_name_H-M "P 4/M M M"
_symmetry_group_IT_number 123
_symmetry_cell_setting 'tetragonal'
loop_
_space_group_symop_operation_xyz
x,y,z
-y,x,z
-x,-y,z
y,-x,z
x,-y,-z
-x,y,-z
y,x,-z
-y,-x,-z
-x,-y,-z
y,-x,-z
x,y,-z
-y,x,-z
-x,y,z
x,-y,z
-y,-x,z
y,x,z
loop_
_atom_site_type_symbol
_atom_site_label
_atom_site_fract_x
_atom_site_fract_y
_atom_site_fract_z
Si Si1 0.272078 0.886741 0.107044
Si Si2 0.267719 0.888691 0.744454
Si Si3 0.392269 0.115760 0.375600
Si Si4 0.115116 0.269977 0.500000
Si Si5 0.615125 0.224332 0.000000
O O1 0.169795 0.830206 0.094985
O O2 0.307968 0.875613 0.181922
O O3 0.356910 0.839386 0.063477
O O4 0.255732 0.000000 0.088367
O O5 0.167074 0.832926 0.734436
O O6 0.347417 0.848394 0.693376
O O7 0.242372 0.000000 0.728761
O O8 0.500000 0.161665 0.381654
O O9 0.328205 0.152136 0.436370
O O10 0.399312 0.000000 0.377255
O O11 0.163965 0.163965 0.500000
O O12 0.000000 0.253606 0.500000
O O13 0.500000 0.245945 0.000000
O O14 0.672658 0.327343 0.000000
#
# Coordination Sequence:
#
# PCOD8312432 Si02
#       5
#    16  16  16   8   8
#     4   9  18  31  47  70  99 129 160 191 225 270
#     4   9  17  29  45  67  96 126 154 184 217 259
#     4   9  17  29  44  62  86 117 152 188 223 258
#     4  10  19  30  45  65  90 118 147 181 222 273
#     4  10  21  36  52  70  92 118 153 198 244 290
#
# _framework density 16.677655000000001
#
# number of rings (size 3 to 8) (size 9 to 14) (size 15 to 20)
#    0.000    2.750    0.000    1.500    0.000    4.250 
#    0.000    5.000    0.000    6.750    0.000    0.000 
#    0.000   20.500    0.000    0.000    0.000    0.000 
#
# Total GULP energy -793450.871520 kJ/mol
# GULP energy per Si atom -12397.669868 kJ/mol
# Density = 1.663970 g / cm^3
# Si number density = 16.677655 Si / 1000 Ang^3
#
#
#
# Elastic Constant Matrix: (Units=GPa)
#
#
# Indices 1 2 3 4 5 6 
#
# 1 95.5410 47.6854 53.8231 0.0000 0.0000 0.0000
# 2 47.6854 95.5412 53.8231 0.0000 0.0000 0.0000
# 3 53.8231 53.8231 124.0421 0.0000 0.0000 0.0000
# 4 0.0000 0.0000 0.0000 22.6031 0.0000 0.0000
# 5 0.0000 0.0000 0.0000 0.0000 22.6032 0.0000
# 6 0.0000 0.0000 0.0000 0.0000 0.0000 10.1588
#
#
#
# Elastic Compliance Matrix: (Units=1/GPa)
#
#
# Indices 1 2 3 4 5 6 
#
# 1 0.015628 -0.005268 -0.004496 0.000000 0.000000 0.000000
# 2 -0.005268 0.015628 -0.004496 0.000000 0.000000 0.000000
# 3 -0.004496 -0.004496 0.011963 0.000000 0.000000 0.000000
# 4 0.000000 0.000000 0.000000 0.044242 0.000000 0.000000
# 5 0.000000 0.000000 0.000000 0.000000 0.044241 0.000000
# 6 0.000000 0.000000 0.000000 0.000000 0.000000 0.098437
#
#
# Mechanical properties :
#
#
# Convention : Reuss Voigt Hill
#
# Bulk Modulus (GPa) = 68.01714 69.53193 68.77454
# Shear Modulus (GPa) = 18.97111 21.72588 20.34849
#
# Velocity S-wave (km/s) = 3.37637 3.61320 3.49679
# Velocity P-wave (km/s) = 7.48811 7.69345 7.59147
#
# Compressibility (1/GPa) = 0.01470218
#
# Stress axis : x y z
#
# Youngs Moduli (GPa) = 63.98571 63.98588 83.58973
#
# Poissons Ratio (x) = 0.33706 0.37579
# Poissons Ratio (y) = 0.33706 0.37579
# Poissons Ratio (z) = 0.28766 0.28766
#
# Static dielectric constant tensor:
#      x y z
#    x 2.971480 0.000000 0.000000 
#    y 0.000000 2.971480 0.000000 
#    z 0.000000 0.000000 3.462640 
# 
# 
# High freq. dielectric constant tensor:
#      x y z
#    x 1.618620 0.000000 0.000000 
#    y 0.000000 1.618620 0.000000 
#    z 0.000000 0.000000 1.664940 
# 
# From -- ./inp_files/7070.got.cif
#   From: 2010.03.12/outbox.cif.g09.slc.cpg/sg123_4_cif.got.tgz:7070.got - 2010.04.06 16:26:55.
