data_PCOD8312508
_publ_section_title
;
Structure prediction by ZEFSAII (Michael W. Deem and Ramdas Pophale) SiO2 
 PCOD8312508
Probable space group: P 4/M M M
;
_chemical_formula_sum "Si O2"
_cell_formula_units_Z 96
_cell_length_a 18.189711
_cell_length_b 18.189711
_cell_length_c 18.942809
_cell_angle_alpha 90.000000
_cell_angle_beta 90.000000
_cell_angle_gamma 90.000000
_cell_volume 6267.523605
_symmetry_space_group_name_H-M "P 4/M M M"
_symmetry_group_IT_number 123
_symmetry_cell_setting 'tetragonal'
loop_
_space_group_symop_operation_xyz
x,y,z
-y,x,z
-x,-y,z
y,-x,z
x,-y,-z
-x,y,-z
y,x,-z
-y,-x,-z
-x,-y,-z
y,-x,-z
x,y,-z
-y,x,-z
-x,y,z
x,-y,z
-y,-x,z
y,x,z
loop_
_atom_site_type_symbol
_atom_site_label
_atom_site_fract_x
_atom_site_fract_y
_atom_site_fract_z
Si Si1 0.920613 0.585578 0.290239
Si Si2 0.586041 0.702489 0.644323
Si Si3 0.782768 0.585121 0.786976
Si Si4 0.352373 0.846930 0.581726
Si Si5 0.198499 0.916947 0.583517
Si Si6 0.415124 0.702860 0.921893
O O1 0.925635 0.500000 0.274430
O O2 0.859352 0.622541 0.238844
O O3 0.897358 0.593813 0.371862
O O4 0.000000 0.622888 0.276329
O O5 0.500000 0.699688 0.623083
O O6 0.623074 0.623074 0.630680
O O7 0.596135 0.721453 0.726890
O O8 0.629526 0.761705 0.596703
O O9 0.798812 0.500000 0.798577
O O10 0.756847 0.618715 0.861997
O O11 0.366626 0.864750 0.500000
O O12 0.269530 0.868506 0.604597
O O13 0.194424 0.922889 0.500000
O O14 0.126335 0.873666 0.612143
O O15 0.201424 0.000000 0.615660
O O16 0.500000 0.686203 0.905794
O O17 0.375052 0.624949 0.917769
O O18 0.404601 0.738483 0.000000
#
# Coordination Sequence:
#
# PCOD8312508 Si02
#       6
#    16  16  16  16  16  16
#     4   9  17  28  43  62  81 104 134 169 211 254
#     4  10  20  32  46  62  81 110 146 184 225 264
#     4   8  15  28  42  57  80 106 133 166 205 252
#     4  10  19  31  45  61  82 106 135 172 215 262
#     4   9  17  28  42  60  81 104 128 156 193 240
#     4   9  16  25  39  59  82 109 139 171 208 248
#
# _framework density 15.317053
#
# number of rings (size 3 to 8) (size 9 to 14) (size 15 to 20)
#    0.000    2.833    0.000    3.000    0.000    3.833 
#    0.000    2.500    0.000    3.500    0.000    4.667 
#    0.000    0.000    0.000    0.000    0.000    0.000 
#
# Total GULP energy -1189452.177814 kJ/mol
# GULP energy per Si atom -12390.126852 kJ/mol
# Density = 1.528219 g / cm^3
# Si number density = 15.317053 Si / 1000 Ang^3
#
#
#
# Elastic Constant Matrix: (Units=GPa)
#
#
# Indices 1 2 3 4 5 6 
#
# 1 83.7814 50.0847 27.0815 0.0000 0.0000 0.0000
# 2 50.0847 83.7814 27.0815 0.0000 0.0000 0.0000
# 3 27.0815 27.0815 81.5205 0.0000 0.0000 0.0000
# 4 0.0000 0.0000 0.0000 11.9297 0.0000 0.0000
# 5 0.0000 0.0000 0.0000 0.0000 11.9297 0.0000
# 6 0.0000 0.0000 0.0000 0.0000 0.0000 19.7944
#
#
#
# Elastic Compliance Matrix: (Units=1/GPa)
#
#
# Indices 1 2 3 4 5 6 
#
# 1 0.019153 -0.010523 -0.002867 0.000000 0.000000 0.000000
# 2 -0.010523 0.019153 -0.002867 0.000000 0.000000 0.000000
# 3 -0.002867 -0.002867 0.014172 0.000000 0.000000 0.000000
# 4 0.000000 0.000000 0.000000 0.083825 0.000000 0.000000
# 5 0.000000 0.000000 0.000000 0.000000 0.083825 0.000000
# 6 0.000000 0.000000 0.000000 0.000000 0.000000 0.050519
#
#
# Mechanical properties :
#
#
# Convention : Reuss Voigt Hill
#
# Bulk Modulus (GPa) = 50.08993 50.84207 50.46600
# Shear Modulus (GPa) = 16.13861 18.38646 17.26253
#
# Velocity S-wave (km/s) = 3.24950 3.46842 3.36074
# Velocity P-wave (km/s) = 6.84486 7.02176 6.93387
#
# Compressibility (1/GPa) = 0.01996409
#
# Stress axis : x y z
#
# Youngs Moduli (GPa) = 52.21028 52.21028 70.56323
#
# Poissons Ratio (x) = 0.54942 0.20230
# Poissons Ratio (y) = 0.54942 0.20230
# Poissons Ratio (z) = 0.14969 0.14969
#
# Static dielectric constant tensor:
#      x y z
#    x 3.069870 0.000000 0.000000 
#    y 0.000000 3.069870 0.000000 
#    z 0.000000 0.000000 2.984630 
# 
# 
# High freq. dielectric constant tensor:
#      x y z
#    x 1.574550 0.000000 0.000000 
#    y 0.000000 1.574550 0.000000 
#    z 0.000000 0.000000 1.560510 
# 
# From -- ./inp_files/6543.got.cif
#   From: 2010.03.12/outbox.cif.g09.slc.cpg/sg123_4_cif.got.tgz:6543.got - 2010.04.06 16:26:55.
