data_PCOD8312392
_publ_section_title
;
Structure prediction by ZEFSAII (Michael W. Deem and Ramdas Pophale) SiO2 
 PCOD8312392
Probable space group: P 4/M M M
;
_chemical_formula_sum "Si O2"
_cell_formula_units_Z 88
_cell_length_a 14.321097
_cell_length_b 14.321097
_cell_length_c 28.219061
_cell_angle_alpha 90.000000
_cell_angle_beta 90.000000
_cell_angle_gamma 90.000000
_cell_volume 5787.554997
_symmetry_space_group_name_H-M "P 4/M M M"
_symmetry_group_IT_number 123
_symmetry_cell_setting 'tetragonal'
loop_
_space_group_symop_operation_xyz
x,y,z
-y,x,z
-x,-y,z
y,-x,z
x,-y,-z
-x,y,-z
y,x,-z
-y,-x,-z
-x,-y,-z
y,-x,-z
x,y,-z
-y,x,-z
-x,y,z
x,-y,z
-y,-x,z
y,x,z
loop_
_atom_site_type_symbol
_atom_site_label
_atom_site_fract_x
_atom_site_fract_y
_atom_site_fract_z
Si Si1 0.894270 0.254682 0.000000
Si Si2 0.763814 0.609898 0.724262
Si Si3 0.893198 0.608122 0.811916
Si Si4 0.893127 0.257471 0.553398
Si Si5 0.261826 0.108566 0.897420
Si Si6 0.391982 0.106643 0.636913
O O1 0.871556 0.307489 0.049887
O O2 0.842977 0.157024 0.000000
O O3 0.000000 0.224248 0.000000
O O4 0.739184 0.500000 0.724128
O O5 0.667550 0.667550 0.724530
O O6 0.825513 0.637967 0.769502
O O7 0.824716 0.638686 0.678815
O O8 0.882168 0.500000 0.823834
O O9 0.861365 0.662050 0.858949
O O10 0.000000 0.631400 0.797408
O O11 0.874551 0.294022 0.500000
O O12 0.834316 0.165685 0.564943
O O13 0.863896 0.339009 0.589204
O O14 0.000000 0.228137 0.560422
O O15 0.168289 0.168289 0.889518
O O16 0.234947 0.000000 0.891626
O O17 0.500000 0.118477 0.625183
O O18 0.369439 0.000000 0.652110
#
# Coordination Sequence:
#
# PCOD8312392 Si02
#       6
#     8  16  16  16  16  16
#     4   8  14  23  35  53  77 105 134 162 193 229
#     4  10  19  30  45  63  83 107 133 163 200 241
#     4   9  17  29  44  61  80 103 133 167 201 237
#     4   9  17  28  42  61  85 112 140 169 200 235
#     4   9  16  26  40  58  81 107 134 164 197 234
#     4   9  17  29  45  64  84 106 134 168 204 240
#
# _framework density 15.205038999999999
#
# number of rings (size 3 to 8) (size 9 to 14) (size 15 to 20)
#    0.000    2.909    0.000    1.636    0.000    3.182 
#    0.000    5.000    0.000    2.727    0.000    0.000 
#    0.000   13.091    0.000   16.909    0.000   54.909 
#
# Total GULP energy -1090606.548105 kJ/mol
# GULP energy per Si atom -12393.256228 kJ/mol
# Density = 1.517043 g / cm^3
# Si number density = 15.205039 Si / 1000 Ang^3
#
#
#
# Elastic Constant Matrix: (Units=GPa)
#
#
# Indices 1 2 3 4 5 6 
#
# 1 63.8757 44.8833 61.2074 0.0000 0.0000 0.0000
# 2 44.8833 63.8759 61.2076 0.0000 0.0000 0.0000
# 3 61.2074 61.2076 138.2150 0.0000 0.0000 0.0000
# 4 0.0000 0.0000 0.0000 24.0851 0.0000 0.0000
# 5 0.0000 0.0000 0.0000 0.0000 24.0850 0.0000
# 6 0.0000 0.0000 0.0000 0.0000 0.0000 24.8718
#
#
#
# Elastic Compliance Matrix: (Units=1/GPa)
#
#
# Indices 1 2 3 4 5 6 
#
# 1 0.035492 -0.017160 -0.008118 0.000000 0.000000 0.000000
# 2 -0.017160 0.035492 -0.008118 0.000000 0.000000 0.000000
# 3 -0.008118 -0.008118 0.014425 0.000000 0.000000 0.000000
# 4 0.000000 0.000000 0.000000 0.041519 0.000000 0.000000
# 5 0.000000 0.000000 0.000000 0.000000 0.041520 0.000000
# 6 0.000000 0.000000 0.000000 0.000000 0.000000 0.040206
#
#
# Mechanical properties :
#
#
# Convention : Reuss Voigt Hill
#
# Bulk Modulus (GPa) = 53.71520 66.72924 60.22222
# Shear Modulus (GPa) = 17.75228 21.18629 19.46928
#
# Velocity S-wave (km/s) = 3.42062 3.73684 3.58222
# Velocity P-wave (km/s) = 7.14176 7.91203 7.53674
#
# Compressibility (1/GPa) = 0.01861670
#
# Stress axis : x y z
#
# Youngs Moduli (GPa) = 28.17513 28.17512 69.32218
#
# Poissons Ratio (x) = 0.48348 0.56278
# Poissons Ratio (y) = 0.48348 0.56278
# Poissons Ratio (z) = 0.22873 0.22874
#
# Static dielectric constant tensor:
#      x y z
#    x 2.788650 0.000000 0.000000 
#    y 0.000000 2.788650 0.000000 
#    z 0.000000 0.000000 3.246870 
# 
# 
# High freq. dielectric constant tensor:
#      x y z
#    x 1.567160 0.000000 0.000000 
#    y 0.000000 1.567160 0.000000 
#    z 0.000000 0.000000 1.600080 
# 
# From -- ./inp_files/8006.got.cif
#   From: 2010.03.12/outbox.cif.g09.slc.cpg/sg123_5_cif.got.tgz:8006.got - 2010.04.06 16:26:55.
