data_PCOD8312996
_publ_section_title
;
Structure prediction by ZEFSAII (Michael W. Deem and Ramdas Pophale) SiO2 
 PCOD8312996
Probable space group: P 4/M M M
;
_chemical_formula_sum "Si O2"
_cell_formula_units_Z 88
_cell_length_a 14.771373
_cell_length_b 14.771373
_cell_length_c 27.812919
_cell_angle_alpha 90.000000
_cell_angle_beta 90.000000
_cell_angle_gamma 90.000000
_cell_volume 6068.597038
_symmetry_space_group_name_H-M "P 4/M M M"
_symmetry_group_IT_number 123
_symmetry_cell_setting 'tetragonal'
loop_
_space_group_symop_operation_xyz
x,y,z
-y,x,z
-x,-y,z
y,-x,z
x,-y,-z
-x,y,-z
y,x,-z
-y,-x,-z
-x,-y,-z
y,-x,-z
x,y,-z
-y,x,-z
-x,y,z
x,-y,z
-y,-x,z
y,x,z
loop_
_atom_site_type_symbol
_atom_site_label
_atom_site_fract_x
_atom_site_fract_y
_atom_site_fract_z
Si Si1 0.102170 0.754005 0.500000
Si Si2 0.396713 0.249524 0.763831
Si Si3 0.100451 0.607465 0.053729
Si Si4 0.749807 0.395635 0.126259
Si Si5 0.105732 0.255603 0.604479
Si Si6 0.396175 0.896151 0.314507
O O1 0.151008 0.848993 0.500000
O O2 0.124339 0.702883 0.449528
O O3 0.000000 0.783869 0.500000
O O4 0.500000 0.280092 0.754837
O O5 0.334527 0.334527 0.750003
O O6 0.382552 0.218772 0.818806
O O7 0.370105 0.163729 0.731511
O O8 0.098070 0.500000 0.056999
O O9 0.171380 0.645591 0.092551
O O10 0.000000 0.645429 0.065498
O O11 0.129663 0.637797 0.000000
O O12 0.729970 0.500000 0.114102
O O13 0.657276 0.342725 0.115838
O O14 0.166590 0.166590 0.614181
O O15 0.134219 0.334491 0.640897
O O16 0.000000 0.229070 0.610970
O O17 0.500000 0.880998 0.330055
O O18 0.378441 0.000000 0.300002
#
# Coordination Sequence:
#
# PCOD8312996 Si02
#       6
#     8  16  16  16  16  16
#     4   8  14  23  35  53  75  99 126 152 181 219
#     4   9  17  28  41  57  77 101 129 160 192 226
#     4   8  14  25  40  56  74  98 128 160 191 219
#     4   9  17  27  39  57  80 105 131 157 187 226
#     4   9  16  26  40  57  78 102 126 154 187 224
#     4   9  17  28  41  57  76  99 128 160 194 230
#
# _framework density 14.500878999999999
#
# number of rings (size 3 to 8) (size 9 to 14) (size 15 to 20)
#    0.000    3.273    0.000    1.091    0.000    1.727 
#    0.000    7.727    0.000    2.727    0.000    2.545 
#    0.000    0.364    0.000    6.000    0.000   59.455 
#
# Total GULP energy -1090448.107620 kJ/mol
# GULP energy per Si atom -12391.455768 kJ/mol
# Density = 1.446787 g / cm^3
# Si number density = 14.500879 Si / 1000 Ang^3
#
#
#
# Elastic Constant Matrix: (Units=GPa)
#
#
# Indices 1 2 3 4 5 6 
#
# 1 67.3377 42.8204 59.4350 0.0000 0.0000 0.0000
# 2 42.8204 67.3375 59.4348 0.0000 0.0000 0.0000
# 3 59.4350 59.4348 111.2239 0.0000 0.0000 0.0000
# 4 0.0000 0.0000 0.0000 23.0653 0.0000 0.0000
# 5 0.0000 0.0000 0.0000 0.0000 23.0654 0.0000
# 6 0.0000 0.0000 0.0000 0.0000 0.0000 15.4028
#
#
#
# Elastic Compliance Matrix: (Units=1/GPa)
#
#
# Indices 1 2 3 4 5 6 
#
# 1 0.031115 -0.009673 -0.011458 0.000000 0.000000 0.000000
# 2 -0.009673 0.031115 -0.011458 0.000000 0.000000 0.000000
# 3 -0.011458 -0.011458 0.021237 0.000000 0.000000 0.000000
# 4 0.000000 0.000000 0.000000 0.043355 0.000000 0.000000
# 5 0.000000 0.000000 0.000000 0.000000 0.043355 0.000000
# 6 0.000000 0.000000 0.000000 0.000000 0.000000 0.064923
#
#
# Mechanical properties :
#
#
# Convention : Reuss Voigt Hill
#
# Bulk Modulus (GPa) = 54.67901 63.25327 58.96614
# Shear Modulus (GPa) = 16.31994 17.92062 17.12028
#
# Velocity S-wave (km/s) = 3.35840 3.51925 3.43977
# Velocity P-wave (km/s) = 7.26827 7.76070 7.51852
#
# Compressibility (1/GPa) = 0.01828855
#
# Stress axis : x y z
#
# Youngs Moduli (GPa) = 32.13896 32.13900 47.08867
#
# Poissons Ratio (x) = 0.31088 0.53954
# Poissons Ratio (y) = 0.31088 0.53954
# Poissons Ratio (z) = 0.36825 0.36825
#
# Static dielectric constant tensor:
#      x y z
#    x 2.741840 0.000000 0.000000 
#    y 0.000000 2.741840 0.000000 
#    z 0.000000 0.000000 3.102320 
# 
# 
# High freq. dielectric constant tensor:
#      x y z
#    x 1.535000 0.000000 0.000000 
#    y 0.000000 1.535000 0.000000 
#    z 0.000000 0.000000 1.565350 
# 
# From -- ./inp_files/7947.got.cif
#   From: 2010.03.12/outbox.cif.g09.slc.cpg/sg123_4_cif.got.tgz:7947.got - 2010.04.06 16:26:55.
