data_PCOD8312318
_publ_section_title
;
Structure prediction by ZEFSAII (Michael W. Deem and Ramdas Pophale) SiO2 
 PCOD8312318
Probable space group: P 4/M M M
;
_chemical_formula_sum "Si O2"
_cell_formula_units_Z 112
_cell_length_a 20.816967
_cell_length_b 20.816967
_cell_length_c 18.102413
_cell_angle_alpha 90.000000
_cell_angle_beta 90.000000
_cell_angle_gamma 90.000000
_cell_volume 7844.610347
_symmetry_space_group_name_H-M "P 4/M M M"
_symmetry_group_IT_number 123
_symmetry_cell_setting 'tetragonal'
loop_
_space_group_symop_operation_xyz
x,y,z
-y,x,z
-x,-y,z
y,-x,z
x,-y,-z
-x,y,-z
y,x,-z
-y,-x,-z
-x,-y,-z
y,-x,-z
x,y,-z
-y,x,-z
-x,y,z
x,-y,z
-y,-x,z
y,x,z
loop_
_atom_site_type_symbol
_atom_site_label
_atom_site_fract_x
_atom_site_fract_y
_atom_site_fract_z
Si Si1 0.572654 0.323235 0.916178
Si Si2 0.075048 0.428445 0.864012
Si Si3 0.695538 0.140759 0.083645
Si Si4 0.825654 0.071750 0.087218
Si Si5 0.071640 0.423814 0.582128
Si Si6 0.652907 0.244816 0.190798
Si Si7 0.573455 0.846672 0.717559
O O1 0.500000 0.340861 0.897397
O O2 0.612468 0.387533 0.901951
O O3 0.595498 0.266541 0.863048
O O4 0.580836 0.298516 0.000000
O O5 0.091595 0.500000 0.895288
O O6 0.105787 0.373621 0.914911
O O7 0.099917 0.422375 0.780752
O O8 0.000000 0.417016 0.862365
O O9 0.753364 0.093666 0.107297
O O10 0.697807 0.198183 0.142495
O O11 0.706689 0.166347 0.000000
O O12 0.878650 0.121351 0.120483
O O13 0.836707 0.000000 0.120126
O O14 0.833703 0.069479 0.000000
O O15 0.094730 0.403219 0.500000
O O16 0.068449 0.500000 0.588791
O O17 0.122079 0.398070 0.642608
O O18 0.000000 0.396166 0.597074
O O19 0.695872 0.304129 0.219126
O O20 0.620138 0.212417 0.261978
O O21 0.500000 0.822500 0.707207
#
# Coordination Sequence:
#
# PCOD8312318 Si02
#       7
#    16  16  16  16  16  16  16
#     4   9  17  28  41  56  73  94 124 166 214 258
#     4   9  17  27  38  54  77 104 130 156 189 227
#     4  10  19  29  40  53  71  97 130 165 198 233
#     4   9  17  28  41  55  69  86 111 148 195 242
#     4   8  13  22  39  63  86 104 121 142 170 207
#     4  10  19  29  40  53  71  98 131 163 194 230
#     4   9  16  26  40  57  77 100 125 153 185 221
#
# _framework density 14.277319
#
# number of rings (size 3 to 8) (size 9 to 14) (size 15 to 20)
#    0.000    2.857    0.000    2.571    0.000    5.143 
#    0.000    2.143    0.000    0.429    0.000    0.000 
#    0.000    0.000    0.000    0.000    0.000    0.000 
#
# Total GULP energy -1388266.827387 kJ/mol
# GULP energy per Si atom -12395.239530 kJ/mol
# Density = 1.424482 g / cm^3
# Si number density = 14.277319 Si / 1000 Ang^3
#
#
#
# Elastic Constant Matrix: (Units=GPa)
#
#
# Indices 1 2 3 4 5 6 
#
# 1 76.6176 35.7430 31.4455 0.0000 0.0000 0.0000
# 2 35.7430 76.6176 31.4455 0.0000 0.0000 0.0000
# 3 31.4455 31.4455 68.3284 0.0000 0.0000 0.0000
# 4 0.0000 0.0000 0.0000 13.9665 0.0000 0.0000
# 5 0.0000 0.0000 0.0000 0.0000 13.9665 0.0000
# 6 0.0000 0.0000 0.0000 0.0000 0.0000 23.3857
#
#
#
# Elastic Compliance Matrix: (Units=1/GPa)
#
#
# Indices 1 2 3 4 5 6 
#
# 1 0.018226 -0.006239 -0.005517 0.000000 0.000000 0.000000
# 2 -0.006239 0.018226 -0.005517 0.000000 0.000000 0.000000
# 3 -0.005517 -0.005517 0.019713 0.000000 0.000000 0.000000
# 4 0.000000 0.000000 0.000000 0.071600 0.000000 0.000000
# 5 0.000000 0.000000 0.000000 0.000000 0.071600 0.000000
# 6 0.000000 0.000000 0.000000 0.000000 0.000000 0.042761
#
#
# Mechanical properties :
#
#
# Convention : Reuss Voigt Hill
#
# Bulk Modulus (GPa) = 46.25117 46.53685 46.39401
# Shear Modulus (GPa) = 17.61313 18.45905 18.03609
#
# Velocity S-wave (km/s) = 3.51614 3.59958 3.55810
# Velocity P-wave (km/s) = 6.99639 7.06694 7.03176
#
# Compressibility (1/GPa) = 0.02162107
#
# Stress axis : x y z
#
# Youngs Moduli (GPa) = 54.86522 54.86522 50.72759
#
# Poissons Ratio (x) = 0.34228 0.27986
# Poissons Ratio (y) = 0.34228 0.27986
# Poissons Ratio (z) = 0.30269 0.30269
#
# Static dielectric constant tensor:
#      x y z
#    x 2.829160 0.000000 0.000000 
#    y 0.000000 2.829160 0.000000 
#    z 0.000000 0.000000 2.608930 
# 
# 
# High freq. dielectric constant tensor:
#      x y z
#    x 1.540260 0.000000 0.000000 
#    y 0.000000 1.540260 0.000000 
#    z 0.000000 0.000000 1.503660 
# 
# From -- ./inp_files/5900.got.cif
#   From: 2010.03.12/outbox.cif.g09.slc.cpg/sg123_3_cif.got.tgz:5900.got - 2010.04.06 16:26:55.
