data_PCOD8312154
_publ_section_title
;
Structure prediction by ZEFSAII (Michael W. Deem and Ramdas Pophale) SiO2 
 PCOD8312154
Probable space group: P 4/M M M
;
_chemical_formula_sum "Si O2"
_cell_formula_units_Z 104
_cell_length_a 17.934121
_cell_length_b 17.934121
_cell_length_c 22.995802
_cell_angle_alpha 90.000000
_cell_angle_beta 90.000000
_cell_angle_gamma 90.000000
_cell_volume 7396.201795
_symmetry_space_group_name_H-M "P 4/M M M"
_symmetry_group_IT_number 123
_symmetry_cell_setting 'tetragonal'
loop_
_space_group_symop_operation_xyz
x,y,z
-y,x,z
-x,-y,z
y,-x,z
x,-y,-z
-x,y,-z
y,x,-z
-y,-x,-z
-x,-y,-z
y,-x,-z
x,y,-z
-y,x,-z
-x,y,z
x,-y,z
-y,-x,z
y,x,z
loop_
_atom_site_type_symbol
_atom_site_label
_atom_site_fract_x
_atom_site_fract_y
_atom_site_fract_z
Si Si1 0.700090 0.414784 0.780880
Si Si2 0.345290 0.225795 0.326906
Si Si3 0.915610 0.585116 0.853941
Si Si4 0.413272 0.704204 0.000000
Si Si5 0.703863 0.414807 0.434262
Si Si6 0.084505 0.414515 0.716709
Si Si7 0.223867 0.658990 0.110662
O O1 0.697874 0.500000 0.797235
O O2 0.616047 0.383954 0.782653
O O3 0.734089 0.401871 0.717292
O O4 0.749345 0.373574 0.828418
O O5 0.261493 0.261493 0.318889
O O6 0.373004 0.238140 0.392506
O O7 0.352650 0.137348 0.314425
O O8 0.891927 0.500000 0.870437
O O9 0.907716 0.595378 0.785300
O O10 0.865633 0.647869 0.887055
O O11 0.000000 0.599840 0.874105
O O12 0.389106 0.748268 0.056992
O O13 0.500000 0.691940 0.000000
O O14 0.377442 0.622559 0.000000
O O15 0.734721 0.407388 0.500000
O O16 0.694558 0.500000 0.415412
O O17 0.622633 0.377367 0.428381
O O18 0.106086 0.500000 0.699664
O O19 0.000000 0.397708 0.696748
O O20 0.255303 0.744698 0.104753
#
# Coordination Sequence:
#
# PCOD8312154 Si02
#       7
#    16  16  16   8  16  16  16
#     4  10  18  26  38  54  73  99 128 161 198 231
#     4  10  18  27  41  59  78 101 129 163 202 241
#     4   9  16  26  42  62  82 103 128 162 202 244
#     4  10  20  31  43  57  75 107 144 174 204 234
#     4   9  17  27  38  53  74 103 138 172 204 236
#     4   9  16  25  40  61  82 104 129 160 198 240
#     4  10  19  30  43  58  78 104 133 166 202 241
#
# _framework density 14.061271
#
# number of rings (size 3 to 8) (size 9 to 14) (size 15 to 20)
#    0.000    2.462    1.538    3.692    0.000    0.385 
#    0.000    1.154    0.000    7.385    0.000    2.154 
#    0.000    0.615    0.000    3.385    0.000    4.308 
#
# Total GULP energy -1288692.499565 kJ/mol
# GULP energy per Si atom -12391.274034 kJ/mol
# Density = 1.402927 g / cm^3
# Si number density = 14.061271 Si / 1000 Ang^3
#
#
#
# Elastic Constant Matrix: (Units=GPa)
#
#
# Indices 1 2 3 4 5 6 
#
# 1 92.6016 43.7325 20.1508 0.0000 0.0000 0.0000
# 2 43.7325 92.6019 20.1510 0.0000 0.0000 0.0000
# 3 20.1508 20.1510 50.7644 0.0000 0.0000 0.0000
# 4 0.0000 0.0000 0.0000 14.3154 0.0000 0.0000
# 5 0.0000 0.0000 0.0000 0.0000 14.3157 0.0000
# 6 0.0000 0.0000 0.0000 0.0000 0.0000 19.1458
#
#
#
# Elastic Compliance Matrix: (Units=1/GPa)
#
#
# Indices 1 2 3 4 5 6 
#
# 1 0.014386 -0.006076 -0.003299 0.000000 0.000000 0.000000
# 2 -0.006076 0.014386 -0.003299 0.000000 0.000000 0.000000
# 3 -0.003299 -0.003299 0.022318 0.000000 0.000000 0.000000
# 4 0.000000 0.000000 0.000000 0.069855 0.000000 0.000000
# 5 0.000000 0.000000 0.000000 0.000000 0.069854 0.000000
# 6 0.000000 0.000000 0.000000 0.000000 0.000000 0.052231
#
#
# Mechanical properties :
#
#
# Convention : Reuss Voigt Hill
#
# Bulk Modulus (GPa) = 38.84545 44.89297 41.86921
# Shear Modulus (GPa) = 18.05328 19.68428 18.86878
#
# Velocity S-wave (km/s) = 3.58704 3.74557 3.66717
# Velocity P-wave (km/s) = 6.69639 7.12052 6.91171
#
# Compressibility (1/GPa) = 0.02574304
#
# Stress axis : x y z
#
# Youngs Moduli (GPa) = 69.50999 69.51009 44.80760
#
# Poissons Ratio (x) = 0.42237 0.14780
# Poissons Ratio (y) = 0.42237 0.14781
# Poissons Ratio (z) = 0.22929 0.22929
#
# Static dielectric constant tensor:
#      x y z
#    x 2.767460 0.000000 0.000000 
#    y 0.000000 2.767460 0.000000 
#    z 0.000000 0.000000 2.801760 
# 
# 
# High freq. dielectric constant tensor:
#      x y z
#    x 1.512680 0.000000 0.000000 
#    y 0.000000 1.512680 0.000000 
#    z 0.000000 0.000000 1.537940 
# 
# From -- ./inp_files/6697.got.cif
#   From: 2010.03.12/outbox.cif.g09.slc.cpg/sg123_4_cif.got.tgz:6697.got - 2010.04.06 16:26:55.
