data_PCOD8312428
_publ_section_title
;
Structure prediction by ZEFSAII (Michael W. Deem and Ramdas Pophale) SiO2 
 PCOD8312428
Probable space group: P 4/M M M
;
_chemical_formula_sum "Si O2"
_cell_formula_units_Z 88
_cell_length_a 13.862614
_cell_length_b 13.862614
_cell_length_c 28.456821
_cell_angle_alpha 90.000000
_cell_angle_beta 90.000000
_cell_angle_gamma 90.000000
_cell_volume 5468.606109
_symmetry_space_group_name_H-M "P 4/M M M"
_symmetry_group_IT_number 123
_symmetry_cell_setting 'tetragonal'
loop_
_space_group_symop_operation_xyz
x,y,z
-y,x,z
-x,-y,z
y,-x,z
x,-y,-z
-x,y,-z
y,x,-z
-y,-x,-z
-x,-y,-z
y,-x,-z
x,y,-z
-y,x,-z
-x,y,z
x,-y,z
-y,-x,z
y,x,z
loop_
_atom_site_type_symbol
_atom_site_label
_atom_site_fract_x
_atom_site_fract_y
_atom_site_fract_z
Si Si1 0.886040 0.730238 0.770019
Si Si2 0.114082 0.608018 0.680689
Si Si3 0.611015 0.234150 0.947841
Si Si4 0.886014 0.391855 0.500000
Si Si5 0.609639 0.887351 0.860135
Si Si6 0.114325 0.271275 0.590358
O O1 0.832747 0.832747 0.766708
O O2 0.851370 0.662306 0.727493
O O3 0.853870 0.677250 0.817649
O O4 0.000000 0.750624 0.767978
O O5 0.158973 0.500000 0.679277
O O6 0.147919 0.668511 0.635673
O O7 0.000000 0.599077 0.680585
O O8 0.500000 0.259681 0.940789
O O9 0.666210 0.333791 0.940912
O O10 0.646527 0.158779 0.908734
O O11 0.630100 0.190191 0.000000
O O12 0.841035 0.500000 0.500000
O O13 0.852148 0.333981 0.454172
O O14 0.000000 0.401246 0.500000
O O15 0.500000 0.856873 0.848168
O O16 0.617276 0.000000 0.867799
O O17 0.168736 0.168736 0.589786
O O18 0.000000 0.249635 0.590164
#
# Coordination Sequence:
#
# PCOD8312428 Si02
#       6
#    16  16  16   8  16  16
#     4  10  19  30  45  65  90 118 145 174 210 256
#     4   9  17  30  47  65  86 113 146 185 223 252
#     4   9  17  28  42  61  85 112 141 174 213 259
#     4   9  17  30  47  65  87 117 153 195 235 260
#     4   9  17  29  45  64  85 110 142 181 221 255
#     4  10  19  30  45  67  96 126 153 181 215 262
#
# _framework density 16.091851999999999
#
# number of rings (size 3 to 8) (size 9 to 14) (size 15 to 20)
#    0.000    2.636    0.000    2.455    0.000    5.273 
#    0.000    2.727    0.000    4.909    0.000    0.000 
#    0.000   39.273    0.000   16.909    0.000    0.364 
#
# Total GULP energy -1091009.186610 kJ/mol
# GULP energy per Si atom -12397.831666 kJ/mol
# Density = 1.605523 g / cm^3
# Si number density = 16.091852 Si / 1000 Ang^3
#
#
#
# Elastic Constant Matrix: (Units=GPa)
#
#
# Indices 1 2 3 4 5 6 
#
# 1 68.2721 43.8633 50.4124 0.0000 0.0000 0.0000
# 2 43.8633 68.2721 50.4124 0.0000 0.0000 0.0000
# 3 50.4124 50.4124 149.1410 0.0000 0.0000 0.0000
# 4 0.0000 0.0000 0.0000 18.5333 0.0000 0.0000
# 5 0.0000 0.0000 0.0000 0.0000 18.5333 0.0000
# 6 0.0000 0.0000 0.0000 0.0000 0.0000 19.1620
#
#
#
# Elastic Compliance Matrix: (Units=1/GPa)
#
#
# Indices 1 2 3 4 5 6 
#
# 1 0.026890 -0.014079 -0.004331 0.000000 0.000000 0.000000
# 2 -0.014079 0.026890 -0.004331 0.000000 0.000000 0.000000
# 3 -0.004331 -0.004331 0.009633 0.000000 0.000000 0.000000
# 4 0.000000 0.000000 0.000000 0.053957 0.000000 0.000000
# 5 0.000000 0.000000 0.000000 0.000000 0.053957 0.000000
# 6 0.000000 0.000000 0.000000 0.000000 0.000000 0.052187
#
#
# Mechanical properties :
#
#
# Convention : Reuss Voigt Hill
#
# Bulk Modulus (GPa) = 55.76128 63.89570 59.82849
# Shear Modulus (GPa) = 18.18374 20.64552 19.41463
#
# Velocity S-wave (km/s) = 3.36519 3.58576 3.47722
# Velocity P-wave (km/s) = 7.05878 7.54563 7.30627
#
# Compressibility (1/GPa) = 0.01793359
#
# Stress axis : x y z
#
# Youngs Moduli (GPa) = 37.18829 37.18829 103.81348
#
# Poissons Ratio (x) = 0.52356 0.44957
# Poissons Ratio (y) = 0.52356 0.44957
# Poissons Ratio (z) = 0.16105 0.16105
#
# Static dielectric constant tensor:
#      x y z
#    x 2.895660 0.000000 0.000000 
#    y 0.000000 2.895660 0.000000 
#    z 0.000000 0.000000 3.382960 
# 
# 
# High freq. dielectric constant tensor:
#      x y z
#    x 1.597450 0.000000 0.000000 
#    y 0.000000 1.597450 0.000000 
#    z 0.000000 0.000000 1.640830 
# 
# From -- ./inp_files/7179.got.cif
#   From: 2010.03.12/outbox.cif.g09.slc.cpg/sg123_4_cif.got.tgz:7179.got - 2010.04.06 16:26:55.
