data_PCOD8312321
_publ_section_title
;
Structure prediction by ZEFSAII (Michael W. Deem and Ramdas Pophale) SiO2 
 PCOD8312321
Probable space group: P 4/M M M
;
_chemical_formula_sum "Si O2"
_cell_formula_units_Z 72
_cell_length_a 22.777550
_cell_length_b 22.777550
_cell_length_c 11.900615
_cell_angle_alpha 90.000000
_cell_angle_beta 90.000000
_cell_angle_gamma 90.000000
_cell_volume 6174.238802
_symmetry_space_group_name_H-M "P 4/M M M"
_symmetry_group_IT_number 123
_symmetry_cell_setting 'tetragonal'
loop_
_space_group_symop_operation_xyz
x,y,z
-y,x,z
-x,-y,z
y,-x,z
x,-y,-z
-x,y,-z
y,x,-z
-y,-x,-z
-x,-y,-z
y,-x,-z
x,y,-z
-y,x,-z
-x,y,z
x,-y,z
-y,-x,z
y,x,z
loop_
_atom_site_type_symbol
_atom_site_label
_atom_site_fract_x
_atom_site_fract_y
_atom_site_fract_z
Si Si1 0.779402 0.930757 0.500000
Si Si2 0.930925 0.837099 0.731062
Si Si3 0.069655 0.273672 0.125549
Si Si4 0.069896 0.352163 0.500000
Si Si5 0.929970 0.500000 0.871886
Si Si6 0.930056 0.613835 0.741759
O O1 0.814930 0.910599 0.390940
O O2 0.713843 0.903693 0.500000
O O3 0.772132 0.000000 0.500000
O O4 0.896912 0.896912 0.760346
O O5 0.911631 0.787792 0.819986
O O6 0.000000 0.850797 0.736362
O O7 0.094949 0.327978 0.197466
O O8 0.000000 0.278361 0.123555
O O9 0.095626 0.276918 0.000000
O O10 0.091571 0.386309 0.611881
O O11 0.000000 0.348631 0.500000
O O12 0.905383 0.556939 0.806506
O O13 0.000000 0.500000 0.872120
O O14 0.906496 0.500000 0.000000
O O15 0.000000 0.613855 0.746218
#
# Coordination Sequence:
#
# PCOD8312321 Si02
#       6
#     8  16  16   8   8  16
#     4   9  15  27  41  53  65  78  99 126 158 198
#     4  10  19  29  41  54  66  81 101 130 169 211
#     4   9  16  26  39  51  63  82 106 127 150 187
#     4   9  14  22  37  51  64  81 103 127 148 176
#     4   9  16  23  31  47  71  92 107 123 141 163
#     4   9  15  23  35  50  67  86 105 124 146 172
#
# _framework density 11.661356
#
# number of rings (size 3 to 8) (size 9 to 14) (size 15 to 20)
#    0.000    2.778    2.222    1.000    0.000    3.778 
#    0.000    2.222    0.000    2.000    0.000    3.111 
#    0.000    0.000    0.000    0.000    0.000    0.000 
#
# Total GULP energy -892428.888399 kJ/mol
# GULP energy per Si atom -12394.845672 kJ/mol
# Density = 1.163481 g / cm^3
# Si number density = 11.661356 Si / 1000 Ang^3
#
#
#
# Elastic Constant Matrix: (Units=GPa)
#
#
# Indices 1 2 3 4 5 6 
#
# 1 46.9127 24.4963 32.3800 0.0000 0.0000 0.0000
# 2 24.4963 46.9127 32.3800 0.0000 0.0000 0.0000
# 3 32.3800 32.3800 114.6635 0.0000 0.0000 0.0000
# 4 0.0000 0.0000 0.0000 10.6900 0.0000 0.0000
# 5 0.0000 0.0000 0.0000 0.0000 10.6900 0.0000
# 6 0.0000 0.0000 0.0000 0.0000 0.0000 0.5574
#
#
#
# Elastic Compliance Matrix: (Units=1/GPa)
#
#
# Indices 1 2 3 4 5 6 
#
# 1 0.031718 -0.012893 -0.005316 0.000000 0.000000 0.000000
# 2 -0.012893 0.031718 -0.005316 0.000000 0.000000 0.000000
# 3 -0.005316 -0.005316 0.011724 0.000000 0.000000 0.000000
# 4 0.000000 0.000000 0.000000 0.093545 0.000000 0.000000
# 5 0.000000 0.000000 0.000000 0.000000 0.093545 0.000000
# 6 0.000000 0.000000 0.000000 0.000000 0.000000 1.794198
#
#
# Mechanical properties :
#
#
# Convention : Reuss Voigt Hill
#
# Bulk Modulus (GPa) = 35.57538 43.00017 39.28778
# Shear Modulus (GPa) = 2.36645 12.33632 7.35139
#
# Velocity S-wave (km/s) = 1.42608 3.25604 2.51351
# Velocity P-wave (km/s) = 5.76931 7.14771 6.49518
#
# Compressibility (1/GPa) = 0.02810933
#
# Stress axis : x y z
#
# Youngs Moduli (GPa) = 31.52830 31.52830 85.29831
#
# Poissons Ratio (x) = 0.40648 0.45345
# Poissons Ratio (y) = 0.40648 0.45345
# Poissons Ratio (z) = 0.16760 0.16760
#
# Static dielectric constant tensor:
#      x y z
#    x 2.168380 0.000000 0.000000 
#    y 0.000000 2.168380 0.000000 
#    z 0.000000 0.000000 2.790210 
# 
# 
# High freq. dielectric constant tensor:
#      x y z
#    x 1.395740 0.000000 0.000000 
#    y 0.000000 1.395740 0.000000 
#    z 0.000000 0.000000 1.464610 
# 
# From -- ./inp_files/3038.got.cif
#   From: 2010.03.12/outbox.cif.g09.slc.cpg/sg123_2_cif.got.tgz:3038.got - 2010.04.06 16:26:55.
