data_PCOD8312403
_publ_section_title
;
Structure prediction by ZEFSAII (Michael W. Deem and Ramdas Pophale) SiO2 
 PCOD8312403
Probable space group: P 4/M M M
;
_chemical_formula_sum "Si O2"
_cell_formula_units_Z 96
_cell_length_a 14.114684
_cell_length_b 14.114684
_cell_length_c 31.295949
_cell_angle_alpha 90.000000
_cell_angle_beta 90.000000
_cell_angle_gamma 90.000000
_cell_volume 6234.913671
_symmetry_space_group_name_H-M "P 4/M M M"
_symmetry_group_IT_number 123
_symmetry_cell_setting 'tetragonal'
loop_
_space_group_symop_operation_xyz
x,y,z
-y,x,z
-x,-y,z
y,-x,z
x,-y,-z
-x,y,-z
y,x,-z
-y,-x,-z
-x,-y,-z
y,-x,-z
x,y,-z
-y,x,-z
-x,y,z
x,-y,z
-y,-x,z
y,x,z
loop_
_atom_site_type_symbol
_atom_site_label
_atom_site_fract_x
_atom_site_fract_y
_atom_site_fract_z
Si Si1 0.738354 0.891539 0.954802
Si Si2 0.894494 0.388026 0.624122
Si Si3 0.108108 0.390101 0.216456
Si Si4 0.110241 0.734864 0.137523
Si Si5 0.237332 0.391180 0.451490
Si Si6 0.233478 0.388041 0.297259
O O1 0.836213 0.836213 0.954977
O O2 0.685834 0.869377 0.909492
O O3 0.767719 0.000000 0.954847
O O4 0.681821 0.868141 0.000000
O O5 0.903770 0.500000 0.626944
O O6 0.847163 0.357022 0.579342
O O7 0.829564 0.352389 0.662982
O O8 0.000000 0.342922 0.626886
O O9 0.117556 0.500000 0.206553
O O10 0.142789 0.338319 0.173638
O O11 0.175510 0.359879 0.255100
O O12 0.000000 0.363889 0.228729
O O13 0.168496 0.831504 0.142977
O O14 0.000000 0.760470 0.142753
O O15 0.201616 0.377074 0.500000
O O16 0.264599 0.500000 0.442234
O O17 0.331533 0.331533 0.442102
O O18 0.255127 0.500000 0.299611
O O19 0.333239 0.333239 0.297598
#
# Coordination Sequence:
#
# PCOD8312403 Si02
#       6
#    16  16  16  16  16  16
#     4   8  13  20  30  46  69  97 127 157 191 232
#     4   9  17  29  44  61  82 109 140 172 205 238
#     4   9  17  29  44  60  78 103 136 170 201 232
#     4   9  16  25  38  56  78 103 130 162 199 239
#     4   9  17  28  42  62  89 119 148 177 209 247
#     4  10  19  30  45  64  86 110 134 162 197 239
#
# _framework density 15.397166
#
# number of rings (size 3 to 8) (size 9 to 14) (size 15 to 20)
#    0.000    3.000    0.000    1.500    0.000    3.000 
#    0.000    5.000    0.000    3.500    0.000    3.500 
#    0.000   14.667    0.000    7.333    0.000    0.667 
#
# Total GULP energy -1189257.944716 kJ/mol
# GULP energy per Si atom -12388.103591 kJ/mol
# Density = 1.536212 g / cm^3
# Si number density = 15.397166 Si / 1000 Ang^3
#
#
#
# Elastic Constant Matrix: (Units=GPa)
#
#
# Indices 1 2 3 4 5 6 
#
# 1 56.8607 33.2972 50.6390 0.0000 0.0000 0.0000
# 2 33.2972 56.8607 50.6390 0.0000 0.0000 0.0000
# 3 50.6390 50.6390 147.1034 0.0000 0.0000 0.0000
# 4 0.0000 0.0000 0.0000 21.6499 0.0000 0.0000
# 5 0.0000 0.0000 0.0000 0.0000 21.6499 0.0000
# 6 0.0000 0.0000 0.0000 0.0000 0.0000 15.6654
#
#
#
# Elastic Compliance Matrix: (Units=1/GPa)
#
#
# Indices 1 2 3 4 5 6 
#
# 1 0.030262 -0.012177 -0.006226 0.000000 0.000000 0.000000
# 2 -0.012177 0.030262 -0.006226 0.000000 0.000000 0.000000
# 3 -0.006226 -0.006226 0.011084 0.000000 0.000000 0.000000
# 4 0.000000 0.000000 0.000000 0.046190 0.000000 0.000000
# 5 0.000000 0.000000 0.000000 0.000000 0.046190 0.000000
# 6 0.000000 0.000000 0.000000 0.000000 0.000000 0.063835
#
#
# Mechanical properties :
#
#
# Convention : Reuss Voigt Hill
#
# Bulk Modulus (GPa) = 44.73887 58.88613 51.81250
# Shear Modulus (GPa) = 17.57294 20.20968 18.89131
#
# Velocity S-wave (km/s) = 3.38199 3.62686 3.50656
# Velocity P-wave (km/s) = 6.66109 7.47439 7.07943
#
# Compressibility (1/GPa) = 0.02235193
#
# Stress axis : x y z
#
# Youngs Moduli (GPa) = 33.04497 33.04497 90.21857
#
# Poissons Ratio (x) = 0.40238 0.56167
# Poissons Ratio (y) = 0.40238 0.56167
# Poissons Ratio (z) = 0.20573 0.20573
#
# Static dielectric constant tensor:
#      x y z
#    x 2.738600 0.000000 0.000000 
#    y 0.000000 2.738600 0.000000 
#    z 0.000000 0.000000 3.479110 
# 
# 
# High freq. dielectric constant tensor:
#      x y z
#    x 1.559750 0.000000 0.000000 
#    y 0.000000 1.559750 0.000000 
#    z 0.000000 0.000000 1.619650 
# 
# From -- ./inp_files/8597.got.cif
#   From: 2010.03.12/outbox.cif.g09.slc.cpg/sg123_5_cif.got.tgz:8597.got - 2010.04.06 16:26:55.
