data_PCOD8312036
_publ_section_title
;
Structure prediction by ZEFSAII (Michael W. Deem and Ramdas Pophale) SiO2 
 PCOD8312036
Probable space group: I -4 2 D
;
_chemical_formula_sum "Si O2"
_cell_formula_units_Z 48
_cell_length_a 20.397995
_cell_length_b 20.397995
_cell_length_c 5.091336
_cell_angle_alpha 90.000000
_cell_angle_beta 90.000000
_cell_angle_gamma 90.000000
_cell_volume 2118.393919
_symmetry_space_group_name_H-M "I -4 2 D"
_symmetry_group_IT_number 122
_symmetry_cell_setting 'tetragonal'
loop_
_space_group_symop_operation_xyz
x,y,z
y,-x,-z
-x,-y,z
-y,x,-z
x,1/2-y,1/4-z
-x,1/2+y,1/4-z
-y,1/2-x,1/4+z
y,1/2+x,1/4+z
1/2+x,1/2+y,1/2+z
1/2+y,1/2-x,1/2-z
1/2-x,1/2-y,1/2+z
1/2-y,1/2+x,1/2-z
1/2+x,-y,3/4-z
1/2-x,y,3/4-z
1/2-y,-x,3/4+z
1/2+y,x,3/4+z
loop_
_atom_site_type_symbol
_atom_site_label
_atom_site_fract_x
_atom_site_fract_y
_atom_site_fract_z
Si Si1 0.980378 0.105026 0.519083
Si Si2 0.174272 0.435687 0.299957
Si Si3 0.328155 0.211511 0.873432
O O1 0.987837 0.145466 0.252445
O O2 0.050522 0.073121 0.562429
O O3 0.957749 0.153139 0.756535
O O4 0.250000 0.434984 0.375000
O O5 0.146233 0.362857 0.358689
O O6 0.356548 0.250000 0.625000
O O7 0.250000 0.213115 0.875000
O O8 0.356568 0.250000 0.125000
#
# Coordination Sequence:
#
# PCOD8312036 Si02
#       3
#    16  16  16
#     4  11  24  44  66  88 122 172 220 256 310 391
#     4  11  22  40  66  95 127 161 208 273 329 375
#     4   9  17  31  53  83 120 160 195 233 302 387
#
# _framework density 22.658673
#
# number of rings (size 3 to 8) (size 9 to 14) (size 15 to 20)
#    0.000    1.667    0.000    5.000    0.000    8.000 
#    0.000   16.667    0.000    0.000    0.000    0.000 
#    0.000    0.000    0.000    0.000    0.000    0.000 
#
# Total GULP energy -297382.482684 kJ/mol
# GULP energy per Si atom -12390.936778 kJ/mol
# Density = 2.260710 g / cm^3
# Si number density = 22.658673 Si / 1000 Ang^3
#
#
#
# Elastic Constant Matrix: (Units=GPa)
#
#
# Indices 1 2 3 4 5 6 
#
# 1 64.5651 26.3219 30.0109 0.0000 0.0000 0.0000
# 2 26.3219 64.5651 30.0109 0.0000 0.0000 0.0000
# 3 30.0109 30.0109 159.4707 0.0000 0.0000 0.0000
# 4 0.0000 0.0000 0.0000 34.1894 0.0000 0.0000
# 5 0.0000 0.0000 0.0000 0.0000 34.1894 0.0000
# 6 0.0000 0.0000 0.0000 0.0000 0.0000 20.3245
#
#
#
# Elastic Compliance Matrix: (Units=1/GPa)
#
#
# Indices 1 2 3 4 5 6 
#
# 1 0.019356 -0.006792 -0.002364 0.000000 0.000000 0.000000
# 2 -0.006792 0.019356 -0.002364 0.000000 0.000000 0.000000
# 3 -0.002364 -0.002364 0.007161 0.000000 0.000000 0.000000
# 4 0.000000 0.000000 0.000000 0.029249 0.000000 0.000000
# 5 0.000000 0.000000 0.000000 0.000000 0.029249 0.000000
# 6 0.000000 0.000000 0.000000 0.000000 0.000000 0.049202
#
#
# Mechanical properties :
#
#
# Convention : Reuss Voigt Hill
#
# Bulk Modulus (GPa) = 43.79978 51.25427 47.52703
# Shear Modulus (GPa) = 27.14068 31.22446 29.18257
#
# Velocity S-wave (km/s) = 3.46469 3.71622 3.59265
# Velocity P-wave (km/s) = 5.94791 6.40960 6.18307
#
# Compressibility (1/GPa) = 0.02283116
#
# Stress axis : x y z
#
# Youngs Moduli (GPa) = 51.66275 51.66275 139.65145
#
# Poissons Ratio (x) = 0.35090 0.33020
# Poissons Ratio (y) = 0.35090 0.33020
# Poissons Ratio (z) = 0.12215 0.12215
#
# Static dielectric constant tensor:
#      x y z
#    x 4.057760 0.000000 0.000000 
#    y 0.000000 4.057760 0.000000 
#    z 0.000000 0.000000 4.175000 
# 
# 
# High freq. dielectric constant tensor:
#      x y z
#    x 1.888940 0.000000 0.000000 
#    y 0.000000 1.888940 0.000000 
#    z 0.000000 0.000000 1.905940 
# 
# From -- ./inp_files/690.got.cif
#   From: 2010.03.12/outbox.cif.g09.slc.cpg/sg122_1_cif.got.tgz:690.got - 2010.04.06 16:17:16.
