data_PCOD8312238
_publ_section_title
;
Structure prediction by ZEFSAII (Michael W. Deem and Ramdas Pophale) SiO2 
 PCOD8312238
Probable space group: P 4/M M M
;
_chemical_formula_sum "Si O2"
_cell_formula_units_Z 96
_cell_length_a 15.162191
_cell_length_b 15.162191
_cell_length_c 23.078047
_cell_angle_alpha 90.000000
_cell_angle_beta 90.000000
_cell_angle_gamma 90.000000
_cell_volume 5305.459210
_symmetry_space_group_name_H-M "P 4/M M M"
_symmetry_group_IT_number 123
_symmetry_cell_setting 'tetragonal'
loop_
_space_group_symop_operation_xyz
x,y,z
-y,x,z
-x,-y,z
y,-x,z
x,-y,-z
-x,y,-z
y,x,-z
-y,-x,-z
-x,-y,-z
y,-x,-z
x,y,-z
-y,x,-z
-x,y,z
x,-y,z
-y,-x,z
y,x,z
loop_
_atom_site_type_symbol
_atom_site_label
_atom_site_fract_x
_atom_site_fract_y
_atom_site_fract_z
Si Si1 0.597242 0.260629 0.263116
Si Si2 0.098697 0.313278 0.215174
Si Si3 0.103208 0.601172 0.000000
Si Si4 0.168127 0.400925 0.619703
Si Si5 0.741889 0.399489 0.500000
Si Si6 0.232836 0.905395 0.664898
Si Si7 0.752088 0.896908 0.088280
O O1 0.500000 0.296359 0.248616
O O2 0.667420 0.332581 0.242208
O O3 0.610408 0.169952 0.227348
O O4 0.606777 0.245236 0.332164
O O5 0.107125 0.241156 0.266095
O O6 0.118730 0.263316 0.155902
O O7 0.000000 0.355086 0.214223
O O8 0.130443 0.660786 0.944264
O O9 0.145202 0.500000 0.000000
O O10 0.000000 0.586307 0.000000
O O11 0.127830 0.500000 0.620180
O O12 0.202686 0.375370 0.556638
O O13 0.094341 0.329391 0.635536
O O14 0.713369 0.500000 0.500000
O O15 0.651266 0.348735 0.500000
O O16 0.170917 0.829084 0.638933
O O17 0.189498 0.000000 0.651088
O O18 0.833707 0.833707 0.068564
O O19 0.775664 0.000000 0.074741
#
# Coordination Sequence:
#
# PCOD8312238 Si02
#       7
#    16  16   8  16   8  16  16
#     4  10  19  31  47  68  97 129 161 200 242 288
#     4   9  18  32  51  73  97 127 162 202 248 292
#     4   9  19  34  49  67  95 131 169 207 239 266
#     4   9  18  32  50  70  92 121 157 198 244 291
#     4  10  18  29  47  69  94 124 156 192 239 298
#     4  10  19  32  50  71  98 129 160 198 241 288
#     4  10  19  32  51  75 104 134 163 198 242 296
#
# _framework density 18.094570000000001
#
# number of rings (size 3 to 8) (size 9 to 14) (size 15 to 20)
#    0.000    2.417    0.000    4.250    0.000    1.917 
#    0.000    5.417    0.000    9.000    0.000    0.000 
#    0.000    4.667    0.000    0.000    0.000    0.333 
#
# Total GULP energy -1189626.250405 kJ/mol
# GULP energy per Si atom -12391.940108 kJ/mol
# Density = 1.805339 g / cm^3
# Si number density = 18.094570 Si / 1000 Ang^3
#
#
#
# Elastic Constant Matrix: (Units=GPa)
#
#
# Indices 1 2 3 4 5 6 
#
# 1 104.7395 67.6690 36.9216 0.0000 0.0000 0.0000
# 2 67.6690 104.7382 36.9211 0.0000 0.0000 0.0000
# 3 36.9216 36.9211 84.0836 0.0000 0.0000 0.0000
# 4 0.0000 0.0000 0.0000 12.5018 0.0000 0.0000
# 5 0.0000 0.0000 0.0000 0.0000 12.4959 0.0000
# 6 0.0000 0.0000 0.0000 0.0000 0.0000 15.9588
#
#
#
# Elastic Compliance Matrix: (Units=1/GPa)
#
#
# Indices 1 2 3 4 5 6 
#
# 1 0.017060 -0.009916 -0.003137 0.000000 0.000000 0.000000
# 2 -0.009916 0.017060 -0.003137 0.000000 0.000000 0.000000
# 3 -0.003137 -0.003137 0.014648 0.000000 0.000000 0.000000
# 4 0.000000 0.000000 0.000000 0.079988 0.000000 0.000000
# 5 0.000000 0.000000 0.000000 0.000000 0.080026 0.000000
# 6 0.000000 0.000000 0.000000 0.000000 0.000000 0.062661
#
#
# Mechanical properties :
#
#
# Convention : Reuss Voigt Hill
#
# Bulk Modulus (GPa) = 61.02089 64.06495 62.54292
# Shear Modulus (GPa) = 16.16630 18.32796 17.24713
#
# Velocity S-wave (km/s) = 2.99228 3.18606 3.09069
# Velocity P-wave (km/s) = 6.76275 7.00122 6.88302
#
# Compressibility (1/GPa) = 0.01638783
#
# Stress axis : x y z
#
# Youngs Moduli (GPa) = 58.61725 58.61668 68.27005
#
# Poissons Ratio (x) = 0.58125 0.21415
# Poissons Ratio (y) = 0.58126 0.21415
# Poissons Ratio (z) = 0.18387 0.18387
#
# Static dielectric constant tensor:
#      x y z
#    x 3.264930 0.000000 0.000000 
#    y 0.000000 3.264930 0.000000 
#    z 0.000000 0.000000 3.401230 
# 
# 
# High freq. dielectric constant tensor:
#      x y z
#    x 1.686350 0.000000 0.000000 
#    y 0.000000 1.686350 0.000000 
#    z 0.000000 0.000000 1.695440 
# 
# From -- ./inp_files/7418.got.cif
#   From: 2010.03.12/outbox.cif.g09.slc.cpg/sg123_4_cif.got.tgz:7418.got - 2010.04.06 16:26:55.
