data_PCOD8312309
_publ_section_title
;
Structure prediction by ZEFSAII (Michael W. Deem and Ramdas Pophale) SiO2 
 PCOD8312309
Probable space group: P 4/M M M
;
_chemical_formula_sum "Si O2"
_cell_formula_units_Z 56
_cell_length_a 12.580054
_cell_length_b 12.580054
_cell_length_c 21.166165
_cell_angle_alpha 90.000000
_cell_angle_beta 90.000000
_cell_angle_gamma 90.000000
_cell_volume 3349.709832
_symmetry_space_group_name_H-M "P 4/M M M"
_symmetry_group_IT_number 123
_symmetry_cell_setting 'tetragonal'
loop_
_space_group_symop_operation_xyz
x,y,z
-y,x,z
-x,-y,z
y,-x,z
x,-y,-z
-x,y,-z
y,x,-z
-y,-x,-z
-x,-y,-z
y,-x,-z
x,y,-z
-y,x,-z
-x,y,z
x,-y,z
-y,-x,z
y,x,z
loop_
_atom_site_type_symbol
_atom_site_label
_atom_site_fract_x
_atom_site_fract_y
_atom_site_fract_z
Si Si1 0.124908 0.286716 0.000000
Si Si2 0.622229 0.790186 0.260505
Si Si3 0.375444 0.117429 0.129931
Si Si4 0.828473 0.000000 0.574584
Si Si5 0.000000 0.378641 0.342440
O O1 0.170163 0.343494 0.937002
O O2 0.165480 0.165480 0.000000
O O3 0.000000 0.290709 0.000000
O O4 0.500000 0.752543 0.263848
O O5 0.695715 0.695715 0.288103
O O6 0.660448 0.810726 0.188644
O O7 0.639270 0.896793 0.299991
O O8 0.500000 0.103927 0.132651
O O9 0.322796 0.000000 0.135893
O O10 0.895029 0.895029 0.595540
O O11 0.813803 0.000000 0.500000
O O12 0.710090 0.000000 0.603169
O O13 0.000000 0.500000 0.370238
#
# Coordination Sequence:
#
# PCOD8312309 Si02
#       5
#     8  16  16   8   8
#     4  10  19  28  41  59  80 112 147 185 235 282
#     4  10  19  31  48  69  95 125 157 197 239 281
#     4   9  16  29  46  64  83 107 148 196 237 278
#     4   9  18  33  53  77 104 131 158 192 234 276
#     4  10  19  32  50  73  99 130 164 195 229 268
#
# _framework density 16.717866999999998
#
# number of rings (size 3 to 8) (size 9 to 14) (size 15 to 20)
#    0.000    2.429    1.429    2.571    0.000    2.429 
#    0.000    0.000    0.000    0.000    0.000    0.000 
#    0.000   10.286    0.000   26.571    0.000    0.000 
#
# Total GULP energy -693949.263384 kJ/mol
# GULP energy per Si atom -12391.951132 kJ/mol
# Density = 1.667982 g / cm^3
# Si number density = 16.717867 Si / 1000 Ang^3
#
#
#
# Elastic Constant Matrix: (Units=GPa)
#
#
# Indices 1 2 3 4 5 6 
#
# 1 85.4910 55.4697 36.1783 0.0000 0.0000 0.0000
# 2 55.4697 85.4910 36.1783 0.0000 0.0000 0.0000
# 3 36.1783 36.1783 65.5938 0.0000 0.0000 0.0000
# 4 0.0000 0.0000 0.0000 20.1938 0.0000 0.0000
# 5 0.0000 0.0000 0.0000 0.0000 20.1938 0.0000
# 6 0.0000 0.0000 0.0000 0.0000 0.0000 27.8575
#
#
#
# Elastic Compliance Matrix: (Units=1/GPa)
#
#
# Indices 1 2 3 4 5 6 
#
# 1 0.021603 -0.011707 -0.005458 0.000000 0.000000 0.000000
# 2 -0.011707 0.021603 -0.005458 0.000000 0.000000 0.000000
# 3 -0.005458 -0.005458 0.021266 0.000000 0.000000 0.000000
# 4 0.000000 0.000000 0.000000 0.049520 0.000000 0.000000
# 5 0.000000 0.000000 0.000000 0.000000 0.049520 0.000000
# 6 0.000000 0.000000 0.000000 0.000000 0.000000 0.035897
#
#
# Mechanical properties :
#
#
# Convention : Reuss Voigt Hill
#
# Bulk Modulus (GPa) = 52.01402 54.69205 53.35303
# Shear Modulus (GPa) = 19.91526 20.89898 20.40712
#
# Velocity S-wave (km/s) = 3.45520 3.53951 3.49761
# Velocity P-wave (km/s) = 6.86282 7.03491 6.94939
#
# Compressibility (1/GPa) = 0.01922559
#
# Stress axis : x y z
#
# Youngs Moduli (GPa) = 46.29034 46.29034 47.02313
#
# Poissons Ratio (x) = 0.54192 0.25666
# Poissons Ratio (y) = 0.54192 0.25666
# Poissons Ratio (z) = 0.25266 0.25266
#
# Static dielectric constant tensor:
#      x y z
#    x 3.082810 0.000000 0.000000 
#    y 0.000000 3.082810 0.000000 
#    z 0.000000 0.000000 3.136670 
# 
# 
# High freq. dielectric constant tensor:
#      x y z
#    x 1.634810 0.000000 0.000000 
#    y 0.000000 1.634810 0.000000 
#    z 0.000000 0.000000 1.635810 
# 
# From -- ./inp_files/6153.got.cif
#   From: 2010.03.12/outbox.cif.g09.slc.cpg/sg123_4_cif.got.tgz:6153.got - 2010.04.06 16:26:55.
