data_PCOD8312970
_publ_section_title
;
Structure prediction by ZEFSAII (Michael W. Deem and Ramdas Pophale) SiO2 
 PCOD8312970
Probable space group: P 4/M M M
;
_chemical_formula_sum "Si O2"
_cell_formula_units_Z 112
_cell_length_a 20.384185
_cell_length_b 20.384185
_cell_length_c 18.921874
_cell_angle_alpha 90.000000
_cell_angle_beta 90.000000
_cell_angle_gamma 90.000000
_cell_volume 7862.322439
_symmetry_space_group_name_H-M "P 4/M M M"
_symmetry_group_IT_number 123
_symmetry_cell_setting 'tetragonal'
loop_
_space_group_symop_operation_xyz
x,y,z
-y,x,z
-x,-y,z
y,-x,z
x,-y,-z
-x,y,-z
y,x,-z
-y,-x,-z
-x,-y,-z
y,-x,-z
x,y,-z
-y,x,-z
-x,y,z
x,-y,z
-y,-x,z
y,x,z
loop_
_atom_site_type_symbol
_atom_site_label
_atom_site_fract_x
_atom_site_fract_y
_atom_site_fract_z
Si Si1 0.074608 0.183724 0.712345
Si Si2 0.574172 0.320533 0.687112
Si Si3 0.726860 0.836702 0.794041
Si Si4 0.319894 0.574616 0.853981
Si Si5 0.782218 0.671963 0.338693
Si Si6 0.868109 0.758018 0.422398
Si Si7 0.668231 0.778610 0.078569
O O1 0.118042 0.118042 0.712434
O O2 0.097092 0.233168 0.775101
O O3 0.079282 0.221125 0.636842
O O4 0.000000 0.163076 0.726186
O O5 0.500000 0.331048 0.661409
O O6 0.615027 0.384974 0.664539
O O7 0.579380 0.309131 0.770506
O O8 0.602683 0.254666 0.649735
O O9 0.777037 0.777037 0.792776
O O10 0.671932 0.823315 0.734345
O O11 0.690931 0.838849 0.870452
O O12 0.331149 0.500000 0.878510
O O13 0.383995 0.616006 0.876732
O O14 0.254940 0.602201 0.891991
O O15 0.727128 0.727128 0.332679
O O16 0.832552 0.689135 0.402112
O O17 0.901244 0.750407 0.500000
O O18 0.813541 0.813541 0.424612
O O19 0.724385 0.724385 0.076852
O O20 0.655655 0.806980 0.000000
#
# Coordination Sequence:
#
# PCOD8312970 Si02
#       7
#    16  16  16  16  16  16  16
#     4   9  17  27  41  61  86 116 139 154 172 200
#     4   9  15  22  33  49  72 103 136 168 201 239
#     4   8  13  24  39  54  73  96 127 164 202 234
#     4   9  16  24  33  48  74 107 140 170 198 235
#     4   8  12  21  37  52  69  95 126 164 208 240
#     4   8  14  24  39  59  80 102 130 162 192 220
#     4   9  15  23  37  54  71  94 127 170 215 248
#
# _framework density 14.245155
#
# number of rings (size 3 to 8) (size 9 to 14) (size 15 to 20)
#    0.000    3.429    1.429    1.714    0.000    1.000 
#    0.000    1.429    0.000    0.857    0.000    4.000 
#    0.000   14.286    0.000   17.571    0.000    0.857 
#
# Total GULP energy -1387513.273880 kJ/mol
# GULP energy per Si atom -12388.511374 kJ/mol
# Density = 1.421273 g / cm^3
# Si number density = 14.245155 Si / 1000 Ang^3
#
#
#
# Elastic Constant Matrix: (Units=GPa)
#
#
# Indices 1 2 3 4 5 6 
#
# 1 55.2501 50.4211 24.7515 0.0000 0.0000 0.0000
# 2 50.4211 55.2501 24.7515 0.0000 0.0000 0.0000
# 3 24.7515 24.7515 55.6913 0.0000 0.0000 0.0000
# 4 0.0000 0.0000 0.0000 11.3391 0.0000 0.0000
# 5 0.0000 0.0000 0.0000 0.0000 11.3391 0.0000
# 6 0.0000 0.0000 0.0000 0.0000 0.0000 10.8931
#
#
#
# Elastic Compliance Matrix: (Units=1/GPa)
#
#
# Indices 1 2 3 4 5 6 
#
# 1 0.109517 -0.097565 -0.005312 0.000000 0.000000 0.000000
# 2 -0.097565 0.109517 -0.005312 0.000000 0.000000 0.000000
# 3 -0.005312 -0.005312 0.022678 0.000000 0.000000 0.000000
# 4 0.000000 0.000000 0.000000 0.088191 0.000000 0.000000
# 5 0.000000 0.000000 0.000000 0.000000 0.088191 0.000000
# 6 0.000000 0.000000 0.000000 0.000000 0.000000 0.091801
#
#
# Mechanical properties :
#
#
# Convention : Reuss Voigt Hill
#
# Bulk Modulus (GPa) = 39.47293 40.67107 40.07200
# Shear Modulus (GPa) = 6.80536 11.13209 8.96873
#
# Velocity S-wave (km/s) = 2.18808 2.79850 2.51190
# Velocity P-wave (km/s) = 5.84410 6.24940 6.05014
#
# Compressibility (1/GPa) = 0.02533382
#
# Stress axis : x y z
#
# Youngs Moduli (GPa) = 9.13104 9.13104 44.09618
#
# Poissons Ratio (x) = 0.89087 0.23423
# Poissons Ratio (y) = 0.89087 0.23423
# Poissons Ratio (z) = 0.04850 0.04850
#
# Static dielectric constant tensor:
#      x y z
#    x 2.581180 0.000000 0.000000 
#    y 0.000000 2.581180 0.000000 
#    z 0.000000 0.000000 3.075480 
# 
# 
# High freq. dielectric constant tensor:
#      x y z
#    x 1.511300 0.000000 0.000000 
#    y 0.000000 1.511300 0.000000 
#    z 0.000000 0.000000 1.533590 
# 
# From -- ./inp_files/5883.got.cif
#   From: 2010.03.12/outbox.cif.g09.slc.cpg/sg123_3_cif.got.tgz:5883.got - 2010.04.06 16:26:55.
