data_PCOD8312438
_publ_section_title
;
Structure prediction by ZEFSAII (Michael W. Deem and Ramdas Pophale) SiO2 
 PCOD8312438
Probable space group: P 4/M M M
;
_chemical_formula_sum "Si O2"
_cell_formula_units_Z 56
_cell_length_a 13.752567
_cell_length_b 13.752567
_cell_length_c 17.606761
_cell_angle_alpha 90.000000
_cell_angle_beta 90.000000
_cell_angle_gamma 90.000000
_cell_volume 3330.021273
_symmetry_space_group_name_H-M "P 4/M M M"
_symmetry_group_IT_number 123
_symmetry_cell_setting 'tetragonal'
loop_
_space_group_symop_operation_xyz
x,y,z
-y,x,z
-x,-y,z
y,-x,z
x,-y,-z
-x,y,-z
y,x,-z
-y,-x,-z
-x,-y,-z
y,-x,-z
x,y,-z
-y,x,-z
-x,y,z
x,-y,z
-y,-x,z
y,x,z
loop_
_atom_site_type_symbol
_atom_site_label
_atom_site_fract_x
_atom_site_fract_y
_atom_site_fract_z
Si Si1 0.230741 0.386162 0.000000
Si Si2 0.768578 0.611434 0.587739
Si Si3 0.886256 0.271711 0.703385
Si Si4 0.388800 0.112666 0.147291
O O1 0.171218 0.353337 0.073951
O O2 0.250626 0.500000 0.000000
O O3 0.334559 0.334559 0.000000
O O4 0.798183 0.621166 0.500000
O O5 0.750841 0.500000 0.610979
O O6 0.669024 0.669024 0.605640
O O7 0.857217 0.655755 0.635571
O O8 0.830183 0.169818 0.696223
O O9 0.857215 0.322058 0.782320
O O10 0.000000 0.249519 0.697746
O O11 0.500000 0.137742 0.168294
O O12 0.377491 0.000000 0.127280
#
# Coordination Sequence:
#
# PCOD8312438 Si02
#       4
#     8  16  16  16
#     4  10  19  30  45  65  92 124 153 183 220 265
#     4   9  18  32  50  73  99 125 154 189 230 277
#     4  10  20  33  49  69  94 124 158 196 236 278
#     4   9  17  30  49  71  91 113 147 191 236 278
#
# _framework density 16.81671
#
# number of rings (size 3 to 8) (size 9 to 14) (size 15 to 20)
#    0.000    2.571    0.000    2.143    0.000    4.714 
#    0.000    2.857    0.000    0.000    0.000    8.000 
#    0.000   10.286    0.000    0.000    0.000    0.000 
#
# Total GULP energy -694517.546606 kJ/mol
# GULP energy per Si atom -12402.099047 kJ/mol
# Density = 1.677843 g / cm^3
# Si number density = 16.816710 Si / 1000 Ang^3
#
#
#
# Elastic Constant Matrix: (Units=GPa)
#
#
# Indices 1 2 3 4 5 6 
#
# 1 93.4349 52.2075 58.1569 0.0000 0.0000 0.0000
# 2 52.2075 93.4349 58.1569 0.0000 0.0000 0.0000
# 3 58.1569 58.1569 102.8364 0.0000 0.0000 0.0000
# 4 0.0000 0.0000 0.0000 25.8182 0.0000 0.0000
# 5 0.0000 0.0000 0.0000 0.0000 25.8182 0.0000
# 6 0.0000 0.0000 0.0000 0.0000 0.0000 21.3674
#
#
#
# Elastic Compliance Matrix: (Units=1/GPa)
#
#
# Indices 1 2 3 4 5 6 
#
# 1 0.018389 -0.005867 -0.007081 0.000000 0.000000 0.000000
# 2 -0.005867 0.018389 -0.007081 0.000000 0.000000 0.000000
# 3 -0.007081 -0.007081 0.017733 0.000000 0.000000 0.000000
# 4 0.000000 0.000000 0.000000 0.038732 0.000000 0.000000
# 5 0.000000 0.000000 0.000000 0.000000 0.038732 0.000000
# 6 0.000000 0.000000 0.000000 0.000000 0.000000 0.046800
#
#
# Mechanical properties :
#
#
# Convention : Reuss Voigt Hill
#
# Bulk Modulus (GPa) = 69.19754 69.63875 69.41815
# Shear Modulus (GPa) = 22.35620 22.67976 22.51798
#
# Velocity S-wave (km/s) = 3.65005 3.67637 3.66324
# Velocity P-wave (km/s) = 7.68123 7.71501 7.69814
#
# Compressibility (1/GPa) = 0.01445138
#
# Stress axis : x y z
#
# Youngs Moduli (GPa) = 54.38176 54.38176 56.39083
#
# Poissons Ratio (x) = 0.31907 0.39931
# Poissons Ratio (y) = 0.31907 0.39931
# Poissons Ratio (z) = 0.38509 0.38509
#
# Static dielectric constant tensor:
#      x y z
#    x 3.040450 0.000000 0.000000 
#    y 0.000000 3.040450 0.000000 
#    z 0.000000 0.000000 3.289370 
# 
# 
# High freq. dielectric constant tensor:
#      x y z
#    x 1.642080 0.000000 0.000000 
#    y 0.000000 1.642080 0.000000 
#    z 0.000000 0.000000 1.660220 
# 
# From -- ./inp_files/3710.got.cif
#   From: 2010.03.12/outbox.cif.g09.slc.cpg/sg123_2_cif.got.tgz:3710.got - 2010.04.06 16:26:55.
