data_PCOD8312359
_publ_section_title
;
Structure prediction by ZEFSAII (Michael W. Deem and Ramdas Pophale) SiO2 
 PCOD8312359
Probable space group: P 4/M M M
;
_chemical_formula_sum "Si O2"
_cell_formula_units_Z 112
_cell_length_a 28.783172
_cell_length_b 28.783172
_cell_length_c 8.861957
_cell_angle_alpha 90.000000
_cell_angle_beta 90.000000
_cell_angle_gamma 90.000000
_cell_volume 7341.874293
_symmetry_space_group_name_H-M "P 4/M M M"
_symmetry_group_IT_number 123
_symmetry_cell_setting 'tetragonal'
loop_
_space_group_symop_operation_xyz
x,y,z
-y,x,z
-x,-y,z
y,-x,z
x,-y,-z
-x,y,-z
y,x,-z
-y,-x,-z
-x,-y,-z
y,-x,-z
x,y,-z
-y,x,-z
-x,y,z
x,-y,z
-y,-x,z
y,x,z
loop_
_atom_site_type_symbol
_atom_site_label
_atom_site_fract_x
_atom_site_fract_y
_atom_site_fract_z
Si Si1 0.184927 0.739487 0.678370
Si Si2 0.214113 0.648390 0.176259
Si Si3 0.947225 0.127690 0.323147
Si Si4 0.446850 0.227653 0.321961
Si Si5 0.614058 0.385943 0.324694
Si Si6 0.682458 0.682458 0.173457
Si Si7 0.117005 0.194775 0.168874
Si Si8 0.552481 0.322576 0.163767
O O1 0.185588 0.735235 0.500000
O O2 0.229764 0.770237 0.733398
O O3 0.182362 0.687930 0.748885
O O4 0.137184 0.763536 0.730509
O O5 0.201404 0.596862 0.243936
O O6 0.265317 0.667857 0.211977
O O7 0.203665 0.645377 0.000000
O O8 0.942514 0.136646 0.500000
O O9 0.916999 0.083002 0.273666
O O10 0.930116 0.174697 0.241314
O O11 0.000000 0.117623 0.274655
O O12 0.442894 0.221550 0.500000
O O13 0.500000 0.212438 0.269836
O O14 0.437871 0.280780 0.277704
O O15 0.606338 0.393663 0.500000
O O16 0.652501 0.347500 0.288459
O O17 0.566760 0.369916 0.245871
O O18 0.671288 0.671288 0.000000
O O19 0.153662 0.153662 0.166397
O O20 0.106931 0.213029 0.000000
O O21 0.500000 0.328153 0.123574
O O22 0.578193 0.314302 0.000000
#
# Coordination Sequence:
#
# PCOD8312359 Si02
#       8
#    16  16  16  16   8   8  16  16
#     4  10  19  29  43  62  85 111 141 177 217 262
#     4  11  20  30  44  60  83 110 137 169 205 248
#     4   9  17  29  45  65  90 121 159 203 249 292
#     4  10  20  32  44  59  80 104 132 165 199 237
#     4  12  22  30  46  63  79  96 114 146 185 227
#     4  10  20  30  40  58  83 107 130 158 193 237
#     4   9  17  29  44  61  84 114 149 187 229 277
#     4  10  20  33  47  60  75  95 118 144 178 225
#
# _framework density 15.254960000000001
#
# number of rings (size 3 to 8) (size 9 to 14) (size 15 to 20)
#    0.000    2.000    2.143    2.786    0.000    5.000 
#    0.000    0.714    0.000    0.214    0.000    3.500 
#    0.000    0.000    0.000    0.000    0.000    0.714 
#
# Total GULP energy -1387732.401677 kJ/mol
# GULP energy per Si atom -12390.467872 kJ/mol
# Density = 1.522024 g / cm^3
# Si number density = 15.254960 Si / 1000 Ang^3
#
#
#
# Elastic Constant Matrix: (Units=GPa)
#
#
# Indices 1 2 3 4 5 6 
#
# 1 58.6750 44.5119 28.4159 0.0000 0.0000 0.0000
# 2 44.5119 58.6750 28.4160 0.0000 0.0000 0.0000
# 3 28.4159 28.4160 77.6783 0.0000 0.0000 0.0000
# 4 0.0000 0.0000 0.0000 28.5536 0.0000 0.0000
# 5 0.0000 0.0000 0.0000 0.0000 28.5532 0.0000
# 6 0.0000 0.0000 0.0000 0.0000 0.0000 20.3520
#
#
#
# Elastic Compliance Matrix: (Units=1/GPa)
#
#
# Indices 1 2 3 4 5 6 
#
# 1 0.041371 -0.029235 -0.004440 0.000000 0.000000 0.000000
# 2 -0.029235 0.041371 -0.004440 0.000000 0.000000 0.000000
# 3 -0.004440 -0.004440 0.016122 0.000000 0.000000 0.000000
# 4 0.000000 0.000000 0.000000 0.035022 0.000000 0.000000
# 5 0.000000 0.000000 0.000000 0.000000 0.035022 0.000000
# 6 0.000000 0.000000 0.000000 0.000000 0.000000 0.049135
#
#
# Mechanical properties :
#
#
# Convention : Reuss Voigt Hill
#
# Bulk Modulus (GPa) = 44.17768 44.19065 44.18416
# Shear Modulus (GPa) = 16.56633 21.73740 19.15187
#
# Velocity S-wave (km/s) = 3.29897 3.77893 3.54708
# Velocity P-wave (km/s) = 6.59798 6.93335 6.76775
#
# Compressibility (1/GPa) = 0.02263586
#
# Stress axis : x y z
#
# Youngs Moduli (GPa) = 24.17144 24.17143 62.02779
#
# Poissons Ratio (x) = 0.70665 0.27538
# Poissons Ratio (y) = 0.70665 0.27539
# Poissons Ratio (z) = 0.10731 0.10731
#
# Static dielectric constant tensor:
#      x y z
#    x 2.879960 0.000000 0.000000 
#    y 0.000000 2.879960 0.000000 
#    z 0.000000 0.000000 4.099010 
# 
# 
# High freq. dielectric constant tensor:
#      x y z
#    x 1.551990 0.000000 0.000000 
#    y 0.000000 1.551990 0.000000 
#    z 0.000000 0.000000 1.600820 
# 
# From -- ./inp_files/2197.got.cif
#   From: 2010.03.12/outbox.cif.g09.slc.cpg/sg123_2_cif.got.tgz:2197.got - 2010.04.06 16:26:55.
