data_PCOD8312122
_publ_section_title
;
Structure prediction by ZEFSAII (Michael W. Deem and Ramdas Pophale) SiO2 
 PCOD8312122
Probable space group: P 4/M M M
;
_chemical_formula_sum "Si O2"
_cell_formula_units_Z 96
_cell_length_a 20.638298
_cell_length_b 20.638298
_cell_length_c 17.021475
_cell_angle_alpha 90.000000
_cell_angle_beta 90.000000
_cell_angle_gamma 90.000000
_cell_volume 7250.115901
_symmetry_space_group_name_H-M "P 4/M M M"
_symmetry_group_IT_number 123
_symmetry_cell_setting 'tetragonal'
loop_
_space_group_symop_operation_xyz
x,y,z
-y,x,z
-x,-y,z
y,-x,z
x,-y,-z
-x,y,-z
y,x,-z
-y,-x,-z
-x,-y,-z
y,-x,-z
x,y,-z
-y,x,-z
-x,y,z
x,-y,z
-y,-x,z
y,x,z
loop_
_atom_site_type_symbol
_atom_site_label
_atom_site_fract_x
_atom_site_fract_y
_atom_site_fract_z
Si Si1 0.926457 0.822000 0.000000
Si Si2 0.075620 0.571036 0.318493
Si Si3 0.925710 0.178132 0.679447
Si Si4 0.877622 0.774692 0.838341
Si Si5 0.075799 0.637778 0.840490
Si Si6 0.694000 0.077134 0.411013
Si Si7 0.428140 0.076802 0.000000
O O1 0.910510 0.780390 0.923269
O O2 0.888931 0.888931 0.000000
O O3 0.000000 0.842462 0.000000
O O4 0.106094 0.500000 0.338328
O O5 0.087017 0.584411 0.226406
O O6 0.106383 0.628651 0.371254
O O7 0.000000 0.568346 0.337115
O O8 0.882425 0.117576 0.650976
O O9 0.919658 0.187666 0.773076
O O10 0.899270 0.242473 0.635750
O O11 0.000000 0.163093 0.657389
O O12 0.804639 0.804639 0.839377
O O13 0.878565 0.698662 0.818858
O O14 0.100464 0.609192 0.922735
O O15 0.000000 0.659024 0.843203
O O16 0.697766 0.102642 0.500000
O O17 0.691623 0.000000 0.407008
O O18 0.500000 0.107160 0.000000
O O19 0.433182 0.000000 0.000000
#
# Coordination Sequence:
#
# PCOD8312122 Si02
#       7
#     8  16  16  16  16  16   8
#     4  10  19  28  38  52  68  88 118 153 190 232
#     4   9  16  25  39  58  77  96 117 143 179 227
#     4  10  19  31  45  59  76  98 128 166 207 248
#     4  10  19  29  41  56  73  96 128 160 192 233
#     4  10  16  25  40  54  75 101 122 150 189 225
#     4   9  17  29  43  57  74  95 118 148 191 241
#     4   9  17  25  35  56  79  99 123 147 179 228
#
# _framework density 13.241167000000001
#
# number of rings (size 3 to 8) (size 9 to 14) (size 15 to 20)
#    0.000    2.417    1.667    2.500    0.000    3.583 
#    0.000    1.667    0.000    3.000    0.000    2.333 
#    0.000    0.000    0.000    0.000    0.000    0.000 
#
# Total GULP energy -1189982.800133 kJ/mol
# GULP energy per Si atom -12395.654168 kJ/mol
# Density = 1.321103 g / cm^3
# Si number density = 13.241167 Si / 1000 Ang^3
#
#
#
# Elastic Constant Matrix: (Units=GPa)
#
#
# Indices 1 2 3 4 5 6 
#
# 1 68.5840 32.0611 22.1672 0.0000 0.0000 0.0000
# 2 32.0611 68.5840 22.1672 0.0000 0.0000 0.0000
# 3 22.1672 22.1672 81.9798 0.0000 0.0000 0.0000
# 4 0.0000 0.0000 0.0000 10.7044 0.0000 0.0000
# 5 0.0000 0.0000 0.0000 0.0000 10.7044 0.0000
# 6 0.0000 0.0000 0.0000 0.0000 0.0000 5.0219
#
#
#
# Elastic Compliance Matrix: (Units=1/GPa)
#
#
# Indices 1 2 3 4 5 6 
#
# 1 0.019330 -0.008050 -0.003050 0.000000 0.000000 0.000000
# 2 -0.008050 0.019330 -0.003050 0.000000 0.000000 0.000000
# 3 -0.003050 -0.003050 0.013848 0.000000 0.000000 0.000000
# 4 0.000000 0.000000 0.000000 0.093420 0.000000 0.000000
# 5 0.000000 0.000000 0.000000 0.000000 0.093420 0.000000
# 6 0.000000 0.000000 0.000000 0.000000 0.000000 0.199129
#
#
# Mechanical properties :
#
#
# Convention : Reuss Voigt Hill
#
# Bulk Modulus (GPa) = 41.31105 41.32654 41.31879
# Shear Modulus (GPa) = 10.52975 14.80294 12.66634
#
# Velocity S-wave (km/s) = 2.82304 3.34720 3.09623
# Velocity P-wave (km/s) = 6.47246 6.79829 6.63737
#
# Compressibility (1/GPa) = 0.02420660
#
# Stress axis : x y z
#
# Youngs Moduli (GPa) = 51.73378 51.73378 72.21507
#
# Poissons Ratio (x) = 0.41647 0.22025
# Poissons Ratio (y) = 0.41647 0.22025
# Poissons Ratio (z) = 0.15778 0.15778
#
# Static dielectric constant tensor:
#      x y z
#    x 2.497740 0.000000 0.000000 
#    y 0.000000 2.497740 0.000000 
#    z 0.000000 0.000000 2.839830 
# 
# 
# High freq. dielectric constant tensor:
#      x y z
#    x 1.467970 0.000000 0.000000 
#    y 0.000000 1.467970 0.000000 
#    z 0.000000 0.000000 1.521240 
# 
# From -- ./inp_files/5819.got.cif
#   From: 2010.03.12/outbox.cif.g09.slc.cpg/sg123_3_cif.got.tgz:5819.got - 2010.04.06 16:26:55.
