data_PCOD8312768
_publ_section_title
;
Structure prediction by ZEFSAII (Michael W. Deem and Ramdas Pophale) SiO2 
 PCOD8312768
Probable space group: P 4/M M M
;
_chemical_formula_sum "Si O2"
_cell_formula_units_Z 120
_cell_length_a 27.660828
_cell_length_b 27.660828
_cell_length_c 8.704060
_cell_angle_alpha 90.000000
_cell_angle_beta 90.000000
_cell_angle_gamma 90.000000
_cell_volume 6659.662622
_symmetry_space_group_name_H-M "P 4/M M M"
_symmetry_group_IT_number 123
_symmetry_cell_setting 'tetragonal'
loop_
_space_group_symop_operation_xyz
x,y,z
-y,x,z
-x,-y,z
y,-x,z
x,-y,-z
-x,y,-z
y,x,-z
-y,-x,-z
-x,-y,-z
y,-x,-z
x,y,-z
-y,x,-z
-x,y,z
x,-y,z
-y,-x,z
y,x,z
loop_
_atom_site_type_symbol
_atom_site_label
_atom_site_fract_x
_atom_site_fract_y
_atom_site_fract_z
Si Si1 0.285567 0.360870 0.822712
Si Si2 0.787204 0.710821 0.325857
Si Si3 0.054322 0.130626 0.681710
Si Si4 0.555663 0.766959 0.320615
Si Si5 0.943984 0.500000 0.181921
Si Si6 0.875712 0.419756 0.319737
Si Si7 0.944151 0.771000 0.822396
Si Si8 0.881800 0.317544 0.178431
O O1 0.341135 0.341135 0.801035
O O2 0.251789 0.329492 0.713622
O O3 0.275808 0.415835 0.769342
O O4 0.270291 0.355081 0.000000
O O5 0.805318 0.701382 0.500000
O O6 0.763888 0.763888 0.310529
O O7 0.830068 0.706891 0.205007
O O8 0.053710 0.128738 0.500000
O O9 0.088098 0.088098 0.748668
O O10 0.075968 0.182253 0.732937
O O11 0.000000 0.123345 0.747863
O O12 0.567178 0.762647 0.500000
O O13 0.500000 0.757457 0.283886
O O14 0.569490 0.820983 0.261504
O O15 0.915614 0.452942 0.239547
O O16 0.000000 0.500000 0.241009
O O17 0.943516 0.500000 0.000000
O O18 0.878811 0.429648 0.500000
O O19 0.889039 0.364933 0.280440
O O20 0.920209 0.721759 0.763084
O O21 0.000000 0.764707 0.787209
O O22 0.932343 0.779116 0.000000
O O23 0.888344 0.330875 0.000000
#
# Coordination Sequence:
#
# PCOD8312768 Si02
#       8
#    16  16  16  16   8  16  16  16
#     4  10  20  33  51  78 111 145 182 223 267 318
#     4  10  20  33  49  71 102 139 175 212 259 315
#     4   9  18  33  54  80 108 136 167 206 254 312
#     4  10  20  35  55  80 111 146 185 227 273 327
#     4  11  25  43  61  81 107 141 181 229 286 343
#     4  11  22  38  58  81 109 139 177 229 282 335
#     4   9  20  38  55  71  96 131 168 209 258 310
#     4  11  22  35  54  78 103 134 176 224 271 323
#
# _framework density 18.018929
#
# number of rings (size 3 to 8) (size 9 to 14) (size 15 to 20)
#    0.000    1.933    2.000    1.800    0.000    5.467 
#    0.000    4.667    0.000    0.000    0.000    1.867 
#    0.000    0.267    0.000    2.933    0.000    2.133 
#
# Total GULP energy -1487794.522756 kJ/mol
# GULP energy per Si atom -12398.287690 kJ/mol
# Density = 1.797792 g / cm^3
# Si number density = 18.018929 Si / 1000 Ang^3
#
#
#
# Elastic Constant Matrix: (Units=GPa)
#
#
# Indices 1 2 3 4 5 6 
#
# 1 106.3907 68.9071 30.0410 0.0000 0.0000 0.0000
# 2 68.9071 106.3907 30.0410 0.0000 0.0000 0.0000
# 3 30.0410 30.0410 41.3205 0.0000 0.0000 0.0000
# 4 0.0000 0.0000 0.0000 28.7801 0.0000 0.0000
# 5 0.0000 0.0000 0.0000 0.0000 28.7801 0.0000
# 6 0.0000 0.0000 0.0000 0.0000 0.0000 30.4842
#
#
#
# Elastic Compliance Matrix: (Units=1/GPa)
#
#
# Indices 1 2 3 4 5 6 
#
# 1 0.017138 -0.009540 -0.005524 0.000000 0.000000 0.000000
# 2 -0.009540 0.017138 -0.005524 0.000000 0.000000 0.000000
# 3 -0.005524 -0.005524 0.032233 0.000000 0.000000 0.000000
# 4 0.000000 0.000000 0.000000 0.034746 0.000000 0.000000
# 5 0.000000 0.000000 0.000000 0.000000 0.034746 0.000000
# 6 0.000000 0.000000 0.000000 0.000000 0.000000 0.032804
#
#
# Mechanical properties :
#
#
# Convention : Reuss Voigt Hill
#
# Bulk Modulus (GPa) = 39.47361 56.89778 48.18570
# Shear Modulus (GPa) = 22.89109 25.94974 24.42042
#
# Velocity S-wave (km/s) = 3.56812 3.79903 3.68539
# Velocity P-wave (km/s) = 6.23936 7.13363 6.70143
#
# Compressibility (1/GPa) = 0.02533338
#
# Stress axis : x y z
#
# Youngs Moduli (GPa) = 58.34958 58.34958 31.02417
#
# Poissons Ratio (x) = 0.55667 0.17137
# Poissons Ratio (y) = 0.55667 0.17137
# Poissons Ratio (z) = 0.32231 0.32231
#
# Static dielectric constant tensor:
#      x y z
#    x 3.480780 0.000000 0.000000 
#    y 0.000000 3.480780 0.000000 
#    z 0.000000 0.000000 3.278780 
# 
# 
# High freq. dielectric constant tensor:
#      x y z
#    x 1.689500 0.000000 0.000000 
#    y 0.000000 1.689500 0.000000 
#    z 0.000000 0.000000 1.699630 
# 
# From -- ./inp_files/2082.got.cif
#   From: 2010.03.12/outbox.cif.g09.slc.cpg/sg123_2_cif.got.tgz:2082.got - 2010.04.06 16:26:55.
