data_PCOD8312530
_publ_section_title
;
Structure prediction by ZEFSAII (Michael W. Deem and Ramdas Pophale) SiO2 
 PCOD8312530
Probable space group: P 4/M M M
;
_chemical_formula_sum "Si O2"
_cell_formula_units_Z 104
_cell_length_a 26.191197
_cell_length_b 26.191197
_cell_length_c 9.216483
_cell_angle_alpha 90.000000
_cell_angle_beta 90.000000
_cell_angle_gamma 90.000000
_cell_volume 6322.311951
_symmetry_space_group_name_H-M "P 4/M M M"
_symmetry_group_IT_number 123
_symmetry_cell_setting 'tetragonal'
loop_
_space_group_symop_operation_xyz
x,y,z
-y,x,z
-x,-y,z
y,-x,z
x,-y,-z
-x,y,-z
y,x,-z
-y,-x,-z
-x,-y,-z
y,-x,-z
x,y,-z
-y,x,-z
-x,y,z
x,-y,z
-y,-x,z
y,x,z
loop_
_atom_site_type_symbol
_atom_site_label
_atom_site_fract_x
_atom_site_fract_y
_atom_site_fract_z
Si Si1 0.060032 0.500000 0.164969
Si Si2 0.228326 0.444615 0.833147
Si Si3 0.748999 0.332653 0.829859
Si Si4 0.127158 0.427662 0.335136
Si Si5 0.942351 0.139415 0.834743
Si Si6 0.687774 0.851934 0.334623
Si Si7 0.758372 0.942695 0.672104
O O1 0.079776 0.449626 0.246035
O O2 0.000000 0.500000 0.172683
O O3 0.079854 0.500000 0.000000
O O4 0.257655 0.500000 0.812647
O O5 0.260119 0.393121 0.790190
O O6 0.179085 0.448187 0.733530
O O7 0.211124 0.438870 0.000000
O O8 0.699233 0.300768 0.777471
O O9 0.799463 0.309424 0.755315
O O10 0.757164 0.325788 0.000000
O O11 0.124830 0.447140 0.500000
O O12 0.123220 0.367452 0.326162
O O13 0.907222 0.092779 0.786736
O O14 0.929853 0.185876 0.729608
O O15 0.000000 0.120334 0.815294
O O16 0.931842 0.156682 0.000000
O O17 0.702896 0.838475 0.500000
O O18 0.722982 0.896818 0.267999
O O19 0.758564 0.941441 0.500000
O O20 0.741210 0.000000 0.724820
#
# Coordination Sequence:
#
# PCOD8312530 Si02
#       7
#     8  16  16  16  16  16  16
#     4  11  23  35  45  61  89 121 151 189 238 285
#     4   9  16  28  48  68  89 121 156 190 231 278
#     4   9  18  31  46  68  98 127 156 193 235 280
#     4  10  19  31  48  68  88 112 150 196 234 274
#     4   9  18  32  49  69  91 113 139 174 217 266
#     4   9  19  33  49  69  91 120 155 190 233 280
#     4   9  18  33  50  66  87 116 149 185 224 268
#
# _framework density 16.449677999999999
#
# number of rings (size 3 to 8) (size 9 to 14) (size 15 to 20)
#    0.000    2.692    0.769    0.692    0.000    3.846 
#    0.000    5.385    0.000    1.846    0.000    2.154 
#    0.000    0.308    0.000    4.308    0.000    0.000 
#
# Total GULP energy -1288718.653054 kJ/mol
# GULP energy per Si atom -12391.525510 kJ/mol
# Density = 1.641224 g / cm^3
# Si number density = 16.449678 Si / 1000 Ang^3
#
#
#
# Elastic Constant Matrix: (Units=GPa)
#
#
# Indices 1 2 3 4 5 6 
#
# 1 104.4595 71.8299 28.9473 0.0000 0.0000 0.0000
# 2 71.8299 104.4595 28.9473 0.0000 0.0000 0.0000
# 3 28.9473 28.9473 50.8492 0.0000 0.0000 0.0000
# 4 0.0000 0.0000 0.0000 20.4032 0.0000 0.0000
# 5 0.0000 0.0000 0.0000 0.0000 20.4032 0.0000
# 6 0.0000 0.0000 0.0000 0.0000 0.0000 25.5837
#
#
#
# Elastic Compliance Matrix: (Units=1/GPa)
#
#
# Indices 1 2 3 4 5 6 
#
# 1 0.018812 -0.011835 -0.003972 0.000000 0.000000 0.000000
# 2 -0.011835 0.018812 -0.003972 0.000000 0.000000 0.000000
# 3 -0.003972 -0.003972 0.024188 0.000000 0.000000 0.000000
# 4 0.000000 0.000000 0.000000 0.049012 0.000000 0.000000
# 5 0.000000 0.000000 0.000000 0.000000 0.049012 0.000000
# 6 0.000000 0.000000 0.000000 0.000000 0.000000 0.039087
#
#
# Mechanical properties :
#
#
# Convention : Reuss Voigt Hill
#
# Bulk Modulus (GPa) = 44.93432 57.69079 51.31255
# Shear Modulus (GPa) = 20.33359 21.94761 21.14060
#
# Velocity S-wave (km/s) = 3.51965 3.65667 3.58881
# Velocity P-wave (km/s) = 6.62516 7.27843 6.95946
#
# Compressibility (1/GPa) = 0.02225471
#
# Stress axis : x y z
#
# Youngs Moduli (GPa) = 53.15776 53.15776 41.34274
#
# Poissons Ratio (x) = 0.62913 0.16420
# Poissons Ratio (y) = 0.62913 0.16420
# Poissons Ratio (z) = 0.21113 0.21113
#
# Static dielectric constant tensor:
#      x y z
#    x 3.235030 0.000000 0.000000 
#    y 0.000000 3.235030 0.000000 
#    z 0.000000 0.000000 3.192610 
# 
# 
# High freq. dielectric constant tensor:
#      x y z
#    x 1.622740 0.000000 0.000000 
#    y 0.000000 1.622740 0.000000 
#    z 0.000000 0.000000 1.635090 
# 
# From -- ./inp_files/1912.got.cif
#   From: 2010.03.12/outbox.cif.g09.slc.cpg/sg123_1_cif.got.tgz:1912.got - 2010.04.06 16:26:55.
