data_PCOD8312135
_publ_section_title
;
Structure prediction by ZEFSAII (Michael W. Deem and Ramdas Pophale) SiO2 
 PCOD8312135
Probable space group: P 4/M M M
;
_chemical_formula_sum "Si O2"
_cell_formula_units_Z 128
_cell_length_a 18.643474
_cell_length_b 18.643474
_cell_length_c 24.082114
_cell_angle_alpha 90.000000
_cell_angle_beta 90.000000
_cell_angle_gamma 90.000000
_cell_volume 8370.440059
_symmetry_space_group_name_H-M "P 4/M M M"
_symmetry_group_IT_number 123
_symmetry_cell_setting 'tetragonal'
loop_
_space_group_symop_operation_xyz
x,y,z
-y,x,z
-x,-y,z
y,-x,z
x,-y,-z
-x,y,-z
y,x,-z
-y,-x,-z
-x,-y,-z
y,-x,-z
x,y,-z
-y,x,-z
-x,y,z
x,-y,z
-y,-x,z
y,x,z
loop_
_atom_site_type_symbol
_atom_site_label
_atom_site_fract_x
_atom_site_fract_y
_atom_site_fract_z
Si Si1 0.085149 0.419099 0.560073
Si Si2 0.917153 0.650479 0.328694
Si Si3 0.343412 0.228620 0.936854
Si Si4 0.701322 0.416520 0.163780
Si Si5 0.081141 0.342750 0.879493
Si Si6 0.848227 0.583510 0.777957
Si Si7 0.920275 0.191990 0.698697
Si Si8 0.809369 0.078689 0.174048
O O1 0.110715 0.387134 0.500000
O O2 0.113062 0.500000 0.564776
O O3 0.115753 0.377243 0.613189
O O4 0.000000 0.416503 0.562462
O O5 0.867963 0.623410 0.278651
O O6 0.911706 0.735455 0.335332
O O7 0.000000 0.626418 0.318419
O O8 0.263722 0.263722 0.926568
O O9 0.399989 0.270032 0.898043
O O10 0.347964 0.142836 0.926235
O O11 0.367512 0.241451 0.000000
O O12 0.678863 0.500000 0.167058
O O13 0.632603 0.367398 0.178983
O O14 0.765636 0.398532 0.206740
O O15 0.098888 0.393235 0.827427
O O16 0.083309 0.261232 0.861434
O O17 0.000000 0.361941 0.901215
O O18 0.859586 0.500000 0.768232
O O19 0.866459 0.133542 0.673710
O O20 0.902610 0.209743 0.762613
O O21 0.000000 0.160337 0.692464
O O22 0.866191 0.133810 0.148756
O O23 0.844098 0.000000 0.170129
#
# Coordination Sequence:
#
# PCOD8312135 Si02
#       8
#    16  16  16  16  16  16  16  16
#     4   8  14  24  38  58  84 113 144 178 215 252
#     4  10  17  26  41  62  87 116 151 184 213 249
#     4   9  18  32  48  64  84 112 142 172 210 255
#     4   9  19  34  51  71  91 111 136 168 207 253
#     4  10  18  28  42  61  85 112 143 178 209 242
#     4  10  19  29  42  63  90 117 142 167 201 246
#     4   9  17  27  39  57  80 106 140 179 219 262
#     4   9  16  26  39  56  79 105 135 174 217 258
#
# _framework density 15.291907
#
# number of rings (size 3 to 8) (size 9 to 14) (size 15 to 20)
#    0.000    2.750    1.250    1.500    0.000    3.375 
#    0.000    1.250    0.000    0.375    0.000    5.250 
#    0.000    0.000    0.000   16.500    0.000    0.375 
#
# Total GULP energy -1586260.870126 kJ/mol
# GULP energy per Si atom -12392.663048 kJ/mol
# Density = 1.525710 g / cm^3
# Si number density = 15.291907 Si / 1000 Ang^3
#
#
#
# Elastic Constant Matrix: (Units=GPa)
#
#
# Indices 1 2 3 4 5 6 
#
# 1 72.4375 40.8640 31.1749 0.0000 0.0000 0.0000
# 2 40.8640 72.4375 31.1749 0.0000 0.0000 0.0000
# 3 31.1749 31.1749 84.9129 0.0000 0.0000 0.0000
# 4 0.0000 0.0000 0.0000 14.8729 0.0000 0.0000
# 5 0.0000 0.0000 0.0000 0.0000 14.8729 0.0000
# 6 0.0000 0.0000 0.0000 0.0000 0.0000 21.1595
#
#
#
# Elastic Compliance Matrix: (Units=1/GPa)
#
#
# Indices 1 2 3 4 5 6 
#
# 1 0.021366 -0.010306 -0.004061 0.000000 0.000000 0.000000
# 2 -0.010306 0.021366 -0.004061 0.000000 0.000000 0.000000
# 3 -0.004061 -0.004061 0.014759 0.000000 0.000000 0.000000
# 4 0.000000 0.000000 0.000000 0.067236 0.000000 0.000000
# 5 0.000000 0.000000 0.000000 0.000000 0.067236 0.000000
# 6 0.000000 0.000000 0.000000 0.000000 0.000000 0.047260
#
#
# Mechanical properties :
#
#
# Convention : Reuss Voigt Hill
#
# Bulk Modulus (GPa) = 48.45750 48.46839 48.46295
# Shear Modulus (GPa) = 17.67047 18.61932 18.14489
#
# Velocity S-wave (km/s) = 3.40302 3.49319 3.44840
# Velocity P-wave (km/s) = 6.87007 6.93066 6.90043
#
# Compressibility (1/GPa) = 0.02063664
#
# Stress axis : x y z
#
# Youngs Moduli (GPa) = 46.80246 46.80246 67.75729
#
# Poissons Ratio (x) = 0.48233 0.27515
# Poissons Ratio (y) = 0.48233 0.27515
# Poissons Ratio (z) = 0.19006 0.19006
#
# Static dielectric constant tensor:
#      x y z
#    x 2.956230 0.000000 0.000000 
#    y 0.000000 2.956230 0.000000 
#    z 0.000000 0.000000 2.948630 
# 
# 
# High freq. dielectric constant tensor:
#      x y z
#    x 1.576220 0.000000 0.000000 
#    y 0.000000 1.576220 0.000000 
#    z 0.000000 0.000000 1.564130 
# 
# From -- ./inp_files/7648.got.cif
#   From: 2010.03.12/outbox.cif.g09.slc.cpg/sg123_4_cif.got.tgz:7648.got - 2010.04.06 16:26:55.
