data_PCOD8312790
_publ_section_title
;
Structure prediction by ZEFSAII (Michael W. Deem and Ramdas Pophale) SiO2 
 PCOD8312790
Probable space group: P 4/M M M
;
_chemical_formula_sum "Si O2"
_cell_formula_units_Z 88
_cell_length_a 13.462250
_cell_length_b 13.462250
_cell_length_c 28.380699
_cell_angle_alpha 90.000000
_cell_angle_beta 90.000000
_cell_angle_gamma 90.000000
_cell_volume 5143.495810
_symmetry_space_group_name_H-M "P 4/M M M"
_symmetry_group_IT_number 123
_symmetry_cell_setting 'tetragonal'
loop_
_space_group_symop_operation_xyz
x,y,z
-y,x,z
-x,-y,z
y,-x,z
x,-y,-z
-x,y,-z
y,x,-z
-y,-x,-z
-x,-y,-z
y,-x,-z
x,y,-z
-y,x,-z
-x,y,z
x,-y,z
-y,-x,z
y,x,z
loop_
_atom_site_type_symbol
_atom_site_label
_atom_site_fract_x
_atom_site_fract_y
_atom_site_fract_z
Si Si1 0.226053 0.613907 0.445846
Si Si2 0.890605 0.382285 0.807698
Si Si3 0.776558 0.383057 0.715358
Si Si4 0.227891 0.387670 0.000000
Si Si5 0.884160 0.279023 0.366670
Si Si6 0.777166 0.615681 0.101623
O O1 0.192731 0.622610 0.500000
O O2 0.241339 0.500000 0.430572
O O3 0.330615 0.669386 0.436712
O O4 0.139684 0.664796 0.415427
O O5 0.898151 0.500000 0.807677
O O6 0.819300 0.347719 0.765623
O O7 0.850257 0.343868 0.858001
O O8 0.000000 0.335875 0.800335
O O9 0.756483 0.500000 0.713188
O O10 0.672182 0.327819 0.706535
O O11 0.855834 0.352822 0.675733
O O12 0.170674 0.365813 0.049715
O O13 0.262841 0.500000 0.000000
O O14 0.329570 0.329570 0.000000
O O15 0.824020 0.175981 0.362669
O O16 0.000000 0.253394 0.364694
O O17 0.753390 0.500000 0.109889
O O18 0.673218 0.673218 0.105013
#
# Coordination Sequence:
#
# PCOD8312790 Si02
#       6
#    16  16  16   8  16  16
#     4   9  18  32  50  74 103 133 165 200 239 287
#     4   9  17  29  44  61  83 114 151 187 221 260
#     4  10  20  33  50  73  99 126 156 189 228 278
#     4   8  14  23  35  53  79 111 144 178 217 263
#     4  10  21  36  53  73  97 126 163 206 247 286
#     4   9  16  26  40  59  84 113 145 181 222 270
#
# _framework density 17.108986999999999
#
# number of rings (size 3 to 8) (size 9 to 14) (size 15 to 20)
#    0.000    2.727    0.000    1.636    0.000    3.364 
#    0.000    4.091    0.000    9.273    0.000    2.545 
#    0.000    3.273    0.000    0.000    0.000   20.364 
#
# Total GULP energy -1090621.128561 kJ/mol
# GULP energy per Si atom -12393.421915 kJ/mol
# Density = 1.707005 g / cm^3
# Si number density = 17.108987 Si / 1000 Ang^3
#
#
#
# Elastic Constant Matrix: (Units=GPa)
#
#
# Indices 1 2 3 4 5 6 
#
# 1 87.1855 35.4483 40.7436 0.0000 0.0000 0.0000
# 2 35.4483 87.1855 40.7436 0.0000 0.0000 0.0000
# 3 40.7436 40.7436 118.0545 0.0000 0.0000 0.0000
# 4 0.0000 0.0000 0.0000 19.2713 0.0000 0.0000
# 5 0.0000 0.0000 0.0000 0.0000 19.2713 0.0000
# 6 0.0000 0.0000 0.0000 0.0000 0.0000 10.0769
#
#
#
# Elastic Compliance Matrix: (Units=1/GPa)
#
#
# Indices 1 2 3 4 5 6 
#
# 1 0.014955 -0.004374 -0.003652 0.000000 0.000000 0.000000
# 2 -0.004374 0.014955 -0.003652 0.000000 0.000000 0.000000
# 3 -0.003652 -0.003652 0.010991 0.000000 0.000000 0.000000
# 4 0.000000 0.000000 0.000000 0.051891 0.000000 0.000000
# 5 0.000000 0.000000 0.000000 0.000000 0.051891 0.000000
# 6 0.000000 0.000000 0.000000 0.000000 0.000000 0.099237
#
#
# Mechanical properties :
#
#
# Convention : Reuss Voigt Hill
#
# Bulk Modulus (GPa) = 56.99281 58.47739 57.73510
# Shear Modulus (GPa) = 18.30685 21.42324 19.86505
#
# Velocity S-wave (km/s) = 3.27466 3.54243 3.41117
# Velocity P-wave (km/s) = 6.90520 7.14040 7.02378
#
# Compressibility (1/GPa) = 0.01754607
#
# Stress axis : x y z
#
# Youngs Moduli (GPa) = 66.86891 66.86891 90.98133
#
# Poissons Ratio (x) = 0.29247 0.33224
# Poissons Ratio (y) = 0.29247 0.33224
# Poissons Ratio (z) = 0.24419 0.24419
#
# Static dielectric constant tensor:
#      x y z
#    x 2.985810 0.000000 0.000000 
#    y 0.000000 2.985810 0.000000 
#    z 0.000000 0.000000 3.699130 
# 
# 
# High freq. dielectric constant tensor:
#      x y z
#    x 1.634400 0.000000 0.000000 
#    y 0.000000 1.634400 0.000000 
#    z 0.000000 0.000000 1.688150 
# 
# From -- ./inp_files/8524.got.cif
#   From: 2010.03.12/outbox.cif.g09.slc.cpg/sg123_5_cif.got.tgz:8524.got - 2010.04.06 16:26:55.
