data_PCOD8312319
_publ_section_title
;
Structure prediction by ZEFSAII (Michael W. Deem and Ramdas Pophale) SiO2 
 PCOD8312319
Probable space group: P 4/M M M
;
_chemical_formula_sum "Si O2"
_cell_formula_units_Z 80
_cell_length_a 16.710851
_cell_length_b 16.710851
_cell_length_c 20.619917
_cell_angle_alpha 90.000000
_cell_angle_beta 90.000000
_cell_angle_gamma 90.000000
_cell_volume 5758.164220
_symmetry_space_group_name_H-M "P 4/M M M"
_symmetry_group_IT_number 123
_symmetry_cell_setting 'tetragonal'
loop_
_space_group_symop_operation_xyz
x,y,z
-y,x,z
-x,-y,z
y,-x,z
x,-y,-z
-x,y,-z
y,x,-z
-y,-x,-z
-x,-y,-z
y,-x,-z
x,y,-z
-y,x,-z
-x,y,z
x,-y,z
-y,-x,z
y,x,z
loop_
_atom_site_type_symbol
_atom_site_label
_atom_site_fract_x
_atom_site_fract_y
_atom_site_fract_z
Si Si1 0.095400 0.500000 0.125028
Si Si2 0.905044 0.666640 0.928081
Si Si3 0.670243 0.905305 0.310981
Si Si4 0.095469 0.500000 0.271931
Si Si5 0.221784 0.092154 0.426794
Si Si6 0.094675 0.223592 0.810626
O O1 0.129391 0.578937 0.089573
O O2 0.126696 0.500000 0.198484
O O3 0.000000 0.500000 0.123837
O O4 0.876656 0.732325 0.876242
O O5 0.000000 0.661743 0.925895
O O6 0.874841 0.690961 0.000000
O O7 0.579840 0.870677 0.307104
O O8 0.710162 0.875557 0.377976
O O9 0.722126 0.876879 0.249610
O O10 0.665337 0.000000 0.309522
O O11 0.000000 0.500000 0.272865
O O12 0.254134 0.103679 0.500000
O O13 0.140219 0.140219 0.415292
O O14 0.200837 0.000000 0.412223
O O15 0.138196 0.138196 0.806581
O O16 0.000000 0.207464 0.809464
#
# Coordination Sequence:
#
# PCOD8312319 Si02
#       6
#     8  16  16   8  16  16
#     4   9  13  22  39  59  76  90 113 151 199 246
#     4   9  16  25  38  56  75  93 119 159 202 240
#     4   9  16  27  41  57  75  95 122 159 201 243
#     4   9  14  23  41  59  75  93 115 149 195 246
#     4   9  17  28  41  57  78 105 138 174 205 228
#     4  10  19  29  40  53  72 101 137 173 204 232
#
# _framework density 13.893318000000001
#
# number of rings (size 3 to 8) (size 9 to 14) (size 15 to 20)
#    0.000    2.800    2.000    0.900    0.000    2.000 
#    0.000    1.500    0.000    6.600    0.000    2.800 
#    0.000    0.000    0.000    0.000    0.000   23.500 
#
# Total GULP energy -991551.368164 kJ/mol
# GULP energy per Si atom -12394.392102 kJ/mol
# Density = 1.386170 g / cm^3
# Si number density = 13.893318 Si / 1000 Ang^3
#
#
#
# Elastic Constant Matrix: (Units=GPa)
#
#
# Indices 1 2 3 4 5 6 
#
# 1 58.8570 30.7887 40.3102 0.0000 0.0000 0.0000
# 2 30.7887 58.8570 40.3102 0.0000 0.0000 0.0000
# 3 40.3102 40.3102 119.8758 0.0000 0.0000 0.0000
# 4 0.0000 0.0000 0.0000 17.2949 0.0000 0.0000
# 5 0.0000 0.0000 0.0000 0.0000 17.2949 0.0000
# 6 0.0000 0.0000 0.0000 0.0000 0.0000 1.9613
#
#
#
# Elastic Compliance Matrix: (Units=1/GPa)
#
#
# Indices 1 2 3 4 5 6 
#
# 1 0.025809 -0.009818 -0.005377 0.000000 0.000000 0.000000
# 2 -0.009818 0.025809 -0.005377 0.000000 0.000000 0.000000
# 3 -0.005377 -0.005377 0.011958 0.000000 0.000000 0.000000
# 4 0.000000 0.000000 0.000000 0.057820 0.000000 0.000000
# 5 0.000000 0.000000 0.000000 0.000000 0.057820 0.000000
# 6 0.000000 0.000000 0.000000 0.000000 0.000000 0.509872
#
#
# Mechanical properties :
#
#
# Convention : Reuss Voigt Hill
#
# Bulk Modulus (GPa) = 44.58064 51.15642 47.86853
# Shear Modulus (GPa) = 6.77771 15.72229 11.25000
#
# Velocity S-wave (km/s) = 2.21111 3.36764 2.84868
# Velocity P-wave (km/s) = 6.21901 7.21264 6.73418
#
# Compressibility (1/GPa) = 0.02243126
#
# Stress axis : x y z
#
# Youngs Moduli (GPa) = 38.74603 38.74603 83.62398
#
# Poissons Ratio (x) = 0.38042 0.44966
# Poissons Ratio (y) = 0.38042 0.44966
# Poissons Ratio (z) = 0.20834 0.20834
#
# Static dielectric constant tensor:
#      x y z
#    x 2.550710 0.000000 0.000000 
#    y 0.000000 2.550710 0.000000 
#    z 0.000000 0.000000 3.053380 
# 
# 
# High freq. dielectric constant tensor:
#      x y z
#    x 1.491990 0.000000 0.000000 
#    y 0.000000 1.491990 0.000000 
#    z 0.000000 0.000000 1.546770 
# 
# From -- ./inp_files/5407.got.cif
#   From: 2010.03.12/outbox.cif.g09.slc.cpg/sg123_3_cif.got.tgz:5407.got - 2010.04.06 16:26:55.
