data_PCOD8312566
_publ_section_title
;
Structure prediction by ZEFSAII (Michael W. Deem and Ramdas Pophale) SiO2 
 PCOD8312566
Probable space group: P 4/M M M
;
_chemical_formula_sum "Si O2"
_cell_formula_units_Z 68
_cell_length_a 12.343699
_cell_length_b 12.343699
_cell_length_c 25.776153
_cell_angle_alpha 90.000000
_cell_angle_beta 90.000000
_cell_angle_gamma 90.000000
_cell_volume 3927.432655
_symmetry_space_group_name_H-M "P 4/M M M"
_symmetry_group_IT_number 123
_symmetry_cell_setting 'tetragonal'
loop_
_space_group_symop_operation_xyz
x,y,z
-y,x,z
-x,-y,z
y,-x,z
x,-y,-z
-x,y,-z
y,x,-z
-y,-x,-z
-x,-y,-z
y,-x,-z
x,y,-z
-y,x,-z
-x,y,z
x,-y,z
-y,-x,z
y,x,z
loop_
_atom_site_type_symbol
_atom_site_label
_atom_site_fract_x
_atom_site_fract_y
_atom_site_fract_z
Si Si1 0.876734 0.707089 0.343281
Si Si2 0.127620 0.619040 0.234439
Si Si3 0.873302 0.704525 0.123435
Si Si4 0.128689 0.500000 0.058253
Si Si5 0.500000 0.876394 0.415219
Si Si6 0.500000 0.313729 0.500000
O O1 0.804237 0.804237 0.366083
O O2 0.832439 0.680002 0.285834
O O3 0.864629 0.604386 0.379781
O O4 0.000000 0.748228 0.341456
O O5 0.181715 0.500000 0.231907
O O6 0.158761 0.684488 0.183105
O O7 0.000000 0.604140 0.237742
O O8 0.812300 0.812300 0.104535
O O9 0.830400 0.605452 0.088682
O O10 0.000000 0.724205 0.115825
O O11 0.000000 0.500000 0.057642
O O12 0.176072 0.500000 0.000000
O O13 0.500000 0.771935 0.452698
O O14 0.500000 0.000000 0.440499
O O15 0.607747 0.392253 0.500000
#
# Coordination Sequence:
#
# PCOD8312566 Si02
#       6
#    16  16  16   8   8   4
#     4  10  19  31  50  76 105 135 167 203 244 293
#     4   9  15  28  48  71  98 130 169 204 236 280
#     4  10  19  31  50  75 102 130 161 200 246 296
#     4   9  18  33  51  69  90 122 167 207 237 283
#     4  10  20  36  56  77 100 134 178 214 244 293
#     4  11  23  38  56  78 105 133 164 214 276 317
#
# _framework density 17.314111
#
# number of rings (size 3 to 8) (size 9 to 14) (size 15 to 20)
#    0.000    2.294    2.353    1.588    0.000    0.941 
#    0.000    0.000    0.000    4.588    0.000    5.765 
#    0.000    8.471    0.000    0.000    0.000    0.000 
#
# Total GULP energy -842654.158964 kJ/mol
# GULP energy per Si atom -12391.972926 kJ/mol
# Density = 1.727470 g / cm^3
# Si number density = 17.314111 Si / 1000 Ang^3
#
#
#
# Elastic Constant Matrix: (Units=GPa)
#
#
# Indices 1 2 3 4 5 6 
#
# 1 101.6190 70.0305 39.7208 0.0000 0.0000 0.0000
# 2 70.0305 101.6193 39.7209 0.0000 0.0000 0.0000
# 3 39.7208 39.7209 100.6570 0.0000 0.0000 0.0000
# 4 0.0000 0.0000 0.0000 16.1135 0.0000 0.0000
# 5 0.0000 0.0000 0.0000 0.0000 16.1134 0.0000
# 6 0.0000 0.0000 0.0000 0.0000 0.0000 23.9909
#
#
#
# Elastic Compliance Matrix: (Units=1/GPa)
#
#
# Indices 1 2 3 4 5 6 
#
# 1 0.019392 -0.012265 -0.002813 0.000000 0.000000 0.000000
# 2 -0.012265 0.019392 -0.002813 0.000000 0.000000 0.000000
# 3 -0.002813 -0.002813 0.012155 0.000000 0.000000 0.000000
# 4 0.000000 0.000000 0.000000 0.062060 0.000000 0.000000
# 5 0.000000 0.000000 0.000000 0.000000 0.062060 0.000000
# 6 0.000000 0.000000 0.000000 0.000000 0.000000 0.041682
#
#
# Mechanical properties :
#
#
# Convention : Reuss Voigt Hill
#
# Bulk Modulus (GPa) = 65.96707 66.98219 66.47463
# Shear Modulus (GPa) = 19.41187 21.53845 20.47516
#
# Velocity S-wave (km/s) = 3.35200 3.53084 3.44258
# Velocity P-wave (km/s) = 7.29137 7.44264 7.36740
#
# Compressibility (1/GPa) = 0.01515908
#
# Stress axis : x y z
#
# Youngs Moduli (GPa) = 51.56695 51.56707 82.27372
#
# Poissons Ratio (x) = 0.63245 0.23141
# Poissons Ratio (y) = 0.63245 0.23141
# Poissons Ratio (z) = 0.14504 0.14504
#
# Static dielectric constant tensor:
#      x y z
#    x 3.107650 0.000000 0.000000 
#    y 0.000000 3.107650 0.000000 
#    z 0.000000 0.000000 3.350900 
# 
# 
# High freq. dielectric constant tensor:
#      x y z
#    x 1.656340 0.000000 0.000000 
#    y 0.000000 1.656340 0.000000 
#    z 0.000000 0.000000 1.668620 
# 
# From -- ./inp_files/7916.got.cif
#   From: 2010.03.12/outbox.cif.g09.slc.cpg/sg123_4_cif.got.tgz:7916.got - 2010.04.06 16:26:55.
