data_PCOD8312914
_publ_section_title
;
Structure prediction by ZEFSAII (Michael W. Deem and Ramdas Pophale) SiO2 
 PCOD8312914
Probable space group: P 4/M M M
;
_chemical_formula_sum "Si O2"
_cell_formula_units_Z 80
_cell_length_a 22.628723
_cell_length_b 22.628723
_cell_length_c 8.722023
_cell_angle_alpha 90.000000
_cell_angle_beta 90.000000
_cell_angle_gamma 90.000000
_cell_volume 4466.191288
_symmetry_space_group_name_H-M "P 4/M M M"
_symmetry_group_IT_number 123
_symmetry_cell_setting 'tetragonal'
loop_
_space_group_symop_operation_xyz
x,y,z
-y,x,z
-x,-y,z
y,-x,z
x,-y,-z
-x,y,-z
y,x,-z
-y,-x,-z
-x,-y,-z
y,-x,-z
x,y,-z
-y,x,-z
-x,y,z
x,-y,z
-y,-x,z
y,x,z
loop_
_atom_site_type_symbol
_atom_site_label
_atom_site_fract_x
_atom_site_fract_y
_atom_site_fract_z
Si Si1 0.778758 0.126385 0.683673
Si Si2 0.000000 0.213459 0.667157
Si Si3 0.879105 0.347912 0.820575
Si Si4 0.567335 0.662693 0.822333
Si Si5 0.353294 0.000000 0.669216
Si Si6 0.568949 0.785177 0.323510
O O1 0.775593 0.123347 0.500000
O O2 0.823092 0.176909 0.741901
O O3 0.713876 0.140483 0.745094
O O4 0.802788 0.062422 0.749215
O O5 0.000000 0.183132 0.500000
O O6 0.000000 0.283562 0.651276
O O7 0.829771 0.395898 0.783804
O O8 0.941328 0.373135 0.758833
O O9 0.884602 0.337827 0.000000
O O10 0.500000 0.644279 0.787514
O O11 0.607740 0.607740 0.773407
O O12 0.586591 0.718738 0.721843
O O13 0.575787 0.679306 0.000000
O O14 0.382728 0.000000 0.500000
O O15 0.585966 0.795938 0.500000
O O16 0.500000 0.795829 0.293011
#
# Coordination Sequence:
#
# PCOD8312914 Si02
#       6
#    16   8  16  16   8  16
#     4   9  17  30  49  72  99 134 174 212 252 300
#     4   7  12  25  45  67  92 125 164 205 244 284
#     4  11  21  33  52  77 104 131 163 208 257 300
#     4   9  18  33  53  77 104 133 166 206 253 304
#     4   9  17  33  54  74 100 132 167 204 244 296
#     4  10  21  37  55  73  97 133 172 206 246 299
#
# _framework density 17.912355000000002
#
# number of rings (size 3 to 8) (size 9 to 14) (size 15 to 20)
#    0.000    2.600    0.000    3.900    0.000    3.000 
#    0.000    1.500    0.000    3.300    0.000    4.900 
#    0.000    0.000    0.000    7.300    0.000    9.000 
#
# Total GULP energy -991655.890401 kJ/mol
# GULP energy per Si atom -12395.698630 kJ/mol
# Density = 1.787159 g / cm^3
# Si number density = 17.912355 Si / 1000 Ang^3
#
#
#
# Elastic Constant Matrix: (Units=GPa)
#
#
# Indices 1 2 3 4 5 6 
#
# 1 93.8564 65.4616 28.1315 0.0000 0.0000 0.0000
# 2 65.4616 93.8564 28.1315 0.0000 0.0000 0.0000
# 3 28.1315 28.1315 60.2668 0.0000 0.0000 0.0000
# 4 0.0000 0.0000 0.0000 23.2858 0.0000 0.0000
# 5 0.0000 0.0000 0.0000 0.0000 23.2858 0.0000
# 6 0.0000 0.0000 0.0000 0.0000 0.0000 3.1827
#
#
#
# Elastic Compliance Matrix: (Units=1/GPa)
#
#
# Indices 1 2 3 4 5 6 
#
# 1 0.021367 -0.013851 -0.003508 0.000000 0.000000 0.000000
# 2 -0.013851 0.021367 -0.003508 0.000000 0.000000 0.000000
# 3 -0.003508 -0.003508 0.019868 0.000000 0.000000 0.000000
# 4 0.000000 0.000000 0.000000 0.042945 0.000000 0.000000
# 5 0.000000 0.000000 0.000000 0.000000 0.042945 0.000000
# 6 0.000000 0.000000 0.000000 0.000000 0.000000 0.314196
#
#
# Mechanical properties :
#
#
# Convention : Reuss Voigt Hill
#
# Bulk Modulus (GPa) = 47.92347 54.60320 51.26333
# Shear Modulus (GPa) = 9.77753 18.36789 14.07271
#
# Velocity S-wave (km/s) = 2.33889 3.20571 2.80597
# Velocity P-wave (km/s) = 5.84006 6.65220 6.25932
#
# Compressibility (1/GPa) = 0.02086660
#
# Stress axis : x y z
#
# Youngs Moduli (GPa) = 46.80182 46.80182 50.33224
#
# Poissons Ratio (x) = 0.64825 0.17657
# Poissons Ratio (y) = 0.64825 0.17657
# Poissons Ratio (z) = 0.16419 0.16419
#
# Static dielectric constant tensor:
#      x y z
#    x 3.392190 0.000000 0.000000 
#    y 0.000000 3.392190 0.000000 
#    z 0.000000 0.000000 3.235350 
# 
# 
# High freq. dielectric constant tensor:
#      x y z
#    x 1.686260 0.000000 0.000000 
#    y 0.000000 1.686260 0.000000 
#    z 0.000000 0.000000 1.684300 
# 
# From -- ./inp_files/1499.got.cif
#   From: 2010.03.12/outbox.cif.g09.slc.cpg/sg123_1_cif.got.tgz:1499.got - 2010.04.06 16:26:55.
