data_PCOD8312142
_publ_section_title
;
Structure prediction by ZEFSAII (Michael W. Deem and Ramdas Pophale) SiO2 
 PCOD8312142
Probable space group: P 4/M M M
;
_chemical_formula_sum "Si O2"
_cell_formula_units_Z 120
_cell_length_a 18.728174
_cell_length_b 18.728174
_cell_length_c 20.276794
_cell_angle_alpha 90.000000
_cell_angle_beta 90.000000
_cell_angle_gamma 90.000000
_cell_volume 7111.974001
_symmetry_space_group_name_H-M "P 4/M M M"
_symmetry_group_IT_number 123
_symmetry_cell_setting 'tetragonal'
loop_
_space_group_symop_operation_xyz
x,y,z
-y,x,z
-x,-y,z
y,-x,z
x,-y,-z
-x,y,-z
y,x,-z
-y,-x,-z
-x,-y,-z
y,-x,-z
x,y,-z
-y,x,-z
-x,y,z
x,-y,z
-y,-x,z
y,x,z
loop_
_atom_site_type_symbol
_atom_site_label
_atom_site_fract_x
_atom_site_fract_y
_atom_site_fract_z
Si Si1 0.302407 0.579631 0.500000
Si Si2 0.078109 0.802390 0.290127
Si Si3 0.418834 0.185968 0.257354
Si Si4 0.234153 0.881707 0.570743
Si Si5 0.196925 0.313989 0.075632
Si Si6 0.298828 0.583107 0.852585
Si Si7 0.229395 0.344605 0.612447
Si Si8 0.319810 0.915867 0.185788
O O1 0.331548 0.500000 0.500000
O O2 0.370086 0.629915 0.500000
O O3 0.256002 0.591954 0.434438
O O4 0.134596 0.865405 0.287444
O O5 0.071378 0.765708 0.362709
O O6 0.100573 0.744262 0.236197
O O7 0.000000 0.833420 0.272849
O O8 0.500000 0.169796 0.274627
O O9 0.410441 0.260509 0.218222
O O10 0.375146 0.191088 0.324013
O O11 0.391270 0.118090 0.216115
O O12 0.239553 0.924238 0.500000
O O13 0.159771 0.840230 0.570877
O O14 0.299640 0.827184 0.571096
O O15 0.243471 0.243471 0.088550
O O16 0.244273 0.383349 0.094241
O O17 0.124075 0.305080 0.116878
O O18 0.174091 0.321755 0.000000
O O19 0.314048 0.500000 0.870432
O O20 0.373752 0.626249 0.851106
O O21 0.294772 0.294772 0.635373
O O22 0.330512 0.000000 0.173180
#
# Coordination Sequence:
#
# PCOD8312142 Si02
#       8
#     8  16  16  16  16  16  16  16
#     4  10  20  31  44  66  95 127 166 212 260 310
#     4  10  20  33  51  74 100 130 162 198 240 289
#     4  10  19  31  48  69  95 127 162 203 248 293
#     4   9  16  28  47  70  94 121 156 199 244 284
#     4   9  18  33  53  75 100 130 161 197 240 285
#     4   9  18  31  48  72  99 128 163 200 241 290
#     4  10  17  28  47  69  91 119 160 208 251 294
#     4  10  20  33  51  75 100 129 164 199 240 289
#
# _framework density 16.872952999999999
#
# number of rings (size 3 to 8) (size 9 to 14) (size 15 to 20)
#    0.000    2.400    2.000    1.200    0.000    2.467 
#    0.000    0.000    0.000    0.000    0.000    9.333 
#    0.000    4.267    0.000   12.400    0.000    0.000 
#
# Total GULP energy -1487315.768449 kJ/mol
# GULP energy per Si atom -12394.298070 kJ/mol
# Density = 1.683455 g / cm^3
# Si number density = 16.872953 Si / 1000 Ang^3
#
#
#
# Elastic Constant Matrix: (Units=GPa)
#
#
# Indices 1 2 3 4 5 6 
#
# 1 89.7182 34.0881 36.4698 0.0000 0.0000 0.0000
# 2 34.0881 89.7180 36.4699 0.0000 0.0000 0.0000
# 3 36.4698 36.4699 108.5172 0.0000 0.0000 0.0000
# 4 0.0000 0.0000 0.0000 8.7771 0.0000 0.0000
# 5 0.0000 0.0000 0.0000 0.0000 8.7774 0.0000
# 6 0.0000 0.0000 0.0000 0.0000 0.0000 14.8285
#
#
#
# Elastic Compliance Matrix: (Units=1/GPa)
#
#
# Indices 1 2 3 4 5 6 
#
# 1 0.014024 -0.003952 -0.003385 0.000000 0.000000 0.000000
# 2 -0.003952 0.014024 -0.003385 0.000000 0.000000 0.000000
# 3 -0.003385 -0.003385 0.011490 0.000000 0.000000 0.000000
# 4 0.000000 0.000000 0.000000 0.113933 0.000000 0.000000
# 5 0.000000 0.000000 0.000000 0.000000 0.113929 0.000000
# 6 0.000000 0.000000 0.000000 0.000000 0.000000 0.067438
#
#
# Mechanical properties :
#
#
# Convention : Reuss Voigt Hill
#
# Bulk Modulus (GPa) = 55.26741 55.77876 55.52309
# Shear Modulus (GPa) = 13.80027 18.53831 16.16929
#
# Velocity S-wave (km/s) = 2.86299 3.31826 3.09899
# Velocity P-wave (km/s) = 6.61476 6.91455 6.76632
#
# Compressibility (1/GPa) = 0.01809385
#
# Stress axis : x y z
#
# Youngs Moduli (GPa) = 71.30876 71.30845 87.03123
#
# Poissons Ratio (x) = 0.28184 0.29457
# Poissons Ratio (y) = 0.28184 0.29457
# Poissons Ratio (z) = 0.24135 0.24136
#
# Static dielectric constant tensor:
#      x y z
#    x 3.027890 0.000000 0.000000 
#    y 0.000000 3.027890 0.000000 
#    z 0.000000 0.000000 3.249690 
# 
# 
# High freq. dielectric constant tensor:
#      x y z
#    x 1.638500 0.000000 0.000000 
#    y 0.000000 1.638500 0.000000 
#    z 0.000000 0.000000 1.657550 
# 
# From -- ./inp_files/6857.got.cif
#   From: 2010.03.12/outbox.cif.g09.slc.cpg/sg123_4_cif.got.tgz:6857.got - 2010.04.06 16:26:55.
