data_PCOD8312732
_publ_section_title
;
Structure prediction by ZEFSAII (Michael W. Deem and Ramdas Pophale) SiO2 
 PCOD8312732
Probable space group: P 4/M M M
;
_chemical_formula_sum "Si O2"
_cell_formula_units_Z 88
_cell_length_a 13.965814
_cell_length_b 13.965814
_cell_length_c 27.862805
_cell_angle_alpha 90.000000
_cell_angle_beta 90.000000
_cell_angle_gamma 90.000000
_cell_volume 5434.471843
_symmetry_space_group_name_H-M "P 4/M M M"
_symmetry_group_IT_number 123
_symmetry_cell_setting 'tetragonal'
loop_
_space_group_symop_operation_xyz
x,y,z
-y,x,z
-x,-y,z
y,-x,z
x,-y,-z
-x,y,-z
y,x,-z
-y,-x,-z
-x,-y,-z
y,-x,-z
x,y,-z
-y,x,-z
-x,y,z
x,-y,z
-y,-x,z
y,x,z
loop_
_atom_site_type_symbol
_atom_site_label
_atom_site_fract_x
_atom_site_fract_y
_atom_site_fract_z
Si Si1 0.894653 0.386235 0.000000
Si Si2 0.888524 0.391510 0.357958
Si Si3 0.762465 0.609086 0.084592
Si Si4 0.610017 0.236080 0.553435
Si Si5 0.767428 0.611223 0.805932
Si Si6 0.886588 0.270041 0.734217
O O1 0.841902 0.350092 0.951865
O O2 0.901777 0.500000 0.000000
O O3 0.000000 0.340020 0.000000
O O4 0.857500 0.500000 0.344269
O O5 0.840727 0.356420 0.407316
O O6 0.858300 0.320164 0.315703
O O7 0.000000 0.386555 0.367577
O O8 0.738481 0.500000 0.072354
O O9 0.664118 0.664118 0.076413
O O10 0.800013 0.621079 0.138832
O O11 0.629344 0.193793 0.500000
O O12 0.500000 0.262938 0.560332
O O13 0.666123 0.333878 0.561780
O O14 0.751990 0.500000 0.791748
O O15 0.667903 0.667903 0.796192
O O16 0.853713 0.657619 0.775935
O O17 0.831209 0.168792 0.737917
O O18 0.000000 0.251236 0.738816
#
# Coordination Sequence:
#
# PCOD8312732 Si02
#       6
#     8  16  16  16  16  16
#     4   9  17  28  41  59  85 117 151 185 219 252
#     4   9  17  29  46  67  88 111 141 178 222 270
#     4   9  17  29  45  66  92 119 147 180 218 264
#     4   9  17  28  42  61  86 116 147 178 212 251
#     4   9  18  31  47  69  95 122 152 185 223 270
#     4  10  20  33  49  68  90 117 150 189 231 273
#
# _framework density 16.192926
#
# number of rings (size 3 to 8) (size 9 to 14) (size 15 to 20)
#    0.000    2.818    0.000    1.364    0.000    2.909 
#    0.000    6.364    0.000    1.636    0.000    2.545 
#    0.000    2.909    0.000   16.909    0.000    0.909 
#
# Total GULP energy -1090969.678631 kJ/mol
# GULP energy per Si atom -12397.382712 kJ/mol
# Density = 1.615607 g / cm^3
# Si number density = 16.192926 Si / 1000 Ang^3
#
#
#
# Elastic Constant Matrix: (Units=GPa)
#
#
# Indices 1 2 3 4 5 6 
#
# 1 84.1260 45.6358 57.3983 0.0000 0.0000 0.0000
# 2 45.6358 84.1260 57.3983 0.0000 0.0000 0.0000
# 3 57.3983 57.3983 114.5454 0.0000 0.0000 0.0000
# 4 0.0000 0.0000 0.0000 25.6973 0.0000 0.0000
# 5 0.0000 0.0000 0.0000 0.0000 25.6973 0.0000
# 6 0.0000 0.0000 0.0000 0.0000 0.0000 17.6315
#
#
#
# Elastic Compliance Matrix: (Units=1/GPa)
#
#
# Indices 1 2 3 4 5 6 
#
# 1 0.019912 -0.006069 -0.006937 0.000000 0.000000 0.000000
# 2 -0.006069 0.019912 -0.006937 0.000000 0.000000 0.000000
# 3 -0.006937 -0.006937 0.015682 0.000000 0.000000 0.000000
# 4 0.000000 0.000000 0.000000 0.038915 0.000000 0.000000
# 5 0.000000 0.000000 0.000000 0.000000 0.038915 0.000000
# 6 0.000000 0.000000 0.000000 0.000000 0.000000 0.056717
#
#
# Mechanical properties :
#
#
# Convention : Reuss Voigt Hill
#
# Bulk Modulus (GPa) = 64.01461 67.07358 65.54409
# Shear Modulus (GPa) = 21.26362 21.96290 21.61326
#
# Velocity S-wave (km/s) = 3.62766 3.68683 3.65737
# Velocity P-wave (km/s) = 7.56074 7.72237 7.64199
#
# Compressibility (1/GPa) = 0.01562143
#
# Stress axis : x y z
#
# Youngs Moduli (GPa) = 50.22116 50.22116 63.76682
#
# Poissons Ratio (x) = 0.30478 0.44234
# Poissons Ratio (y) = 0.30478 0.44234
# Poissons Ratio (z) = 0.34837 0.34837
#
# Static dielectric constant tensor:
#      x y z
#    x 2.969720 0.000000 0.000000 
#    y 0.000000 2.969720 0.000000 
#    z 0.000000 0.000000 3.304750 
# 
# 
# High freq. dielectric constant tensor:
#      x y z
#    x 1.608570 0.000000 0.000000 
#    y 0.000000 1.608570 0.000000 
#    z 0.000000 0.000000 1.637670 
# 
# From -- ./inp_files/7193.got.cif
#   From: 2010.03.12/outbox.cif.g09.slc.cpg/sg123_4_cif.got.tgz:7193.got - 2010.04.06 16:26:55.
