data_PCOD8312728
_publ_section_title
;
Structure prediction by ZEFSAII (Michael W. Deem and Ramdas Pophale) SiO2 
 PCOD8312728
Probable space group: P 4/M M M
;
_chemical_formula_sum "Si O2"
_cell_formula_units_Z 104
_cell_length_a 14.022185
_cell_length_b 14.022185
_cell_length_c 33.411932
_cell_angle_alpha 90.000000
_cell_angle_beta 90.000000
_cell_angle_gamma 90.000000
_cell_volume 6569.509940
_symmetry_space_group_name_H-M "P 4/M M M"
_symmetry_group_IT_number 123
_symmetry_cell_setting 'tetragonal'
loop_
_space_group_symop_operation_xyz
x,y,z
-y,x,z
-x,-y,z
y,-x,z
x,-y,-z
-x,y,-z
y,x,-z
-y,-x,-z
-x,-y,-z
y,-x,-z
x,y,-z
-y,x,-z
-x,y,z
x,-y,z
-y,-x,z
y,x,z
loop_
_atom_site_type_symbol
_atom_site_label
_atom_site_fract_x
_atom_site_fract_y
_atom_site_fract_z
Si Si1 0.760797 0.608262 0.000000
Si Si2 0.240815 0.391590 0.387988
Si Si3 0.608090 0.889091 0.161019
Si Si4 0.232893 0.610986 0.297145
Si Si5 0.386881 0.105897 0.455972
Si Si6 0.886898 0.269690 0.237845
Si Si7 0.610848 0.233603 0.913596
O O1 0.814864 0.631350 0.042199
O O2 0.729988 0.500000 0.000000
O O3 0.661307 0.661307 0.000000
O O4 0.259836 0.500000 0.399399
O O5 0.342581 0.342581 0.391464
O O6 0.199620 0.380453 0.343242
O O7 0.169286 0.343779 0.420136
O O8 0.500000 0.858340 0.172623
O O9 0.679751 0.860248 0.196209
O O10 0.643611 0.839847 0.120331
O O11 0.612427 0.000000 0.152334
O O12 0.248233 0.500000 0.285152
O O13 0.332004 0.667997 0.289294
O O14 0.146954 0.658006 0.272377
O O15 0.359207 0.146982 0.500000
O O16 0.500000 0.101017 0.451681
O O17 0.344113 0.000000 0.451302
O O18 0.831034 0.168967 0.240540
O O19 0.000000 0.250836 0.242217
O O20 0.500000 0.259269 0.908702
O O21 0.669004 0.330997 0.908309
#
# Coordination Sequence:
#
# PCOD8312728 Si02
#       7
#     8  16  16  16  16  16  16
#     4   8  14  23  35  53  77 107 140 170 203 241
#     4   9  17  28  42  62  88 116 144 173 206 248
#     4   9  17  29  45  64  84 108 139 172 208 252
#     4   9  18  31  46  66  91 118 149 182 216 257
#     4   8  14  25  40  57  78 106 141 180 218 250
#     4  10  20  33  49  68  89 113 142 178 220 265
#     4   9  16  26  40  58  82 110 139 172 207 244
#
# _framework density 15.83071
#
# number of rings (size 3 to 8) (size 9 to 14) (size 15 to 20)
#    0.000    3.077    0.000    1.385    0.000    2.538 
#    0.000    5.000    0.000    2.308    0.000    4.308 
#    0.000    0.308    0.000    1.692    0.000   46.308 
#
# Total GULP energy -1288571.859562 kJ/mol
# GULP energy per Si atom -12390.114034 kJ/mol
# Density = 1.579468 g / cm^3
# Si number density = 15.830710 Si / 1000 Ang^3
#
#
#
# Elastic Constant Matrix: (Units=GPa)
#
#
# Indices 1 2 3 4 5 6 
#
# 1 67.2428 35.7310 52.5978 0.0000 0.0000 0.0000
# 2 35.7310 67.2428 52.5978 0.0000 0.0000 0.0000
# 3 52.5978 52.5978 126.1793 0.0000 0.0000 0.0000
# 4 0.0000 0.0000 0.0000 24.0818 0.0000 0.0000
# 5 0.0000 0.0000 0.0000 0.0000 24.0818 0.0000
# 6 0.0000 0.0000 0.0000 0.0000 0.0000 14.4944
#
#
#
# Elastic Compliance Matrix: (Units=1/GPa)
#
#
# Indices 1 2 3 4 5 6 
#
# 1 0.024324 -0.007410 -0.007051 0.000000 0.000000 0.000000
# 2 -0.007410 0.024324 -0.007051 0.000000 0.000000 0.000000
# 3 -0.007051 -0.007051 0.013803 0.000000 0.000000 0.000000
# 4 0.000000 0.000000 0.000000 0.041525 0.000000 0.000000
# 5 0.000000 0.000000 0.000000 0.000000 0.041525 0.000000
# 6 0.000000 0.000000 0.000000 0.000000 0.000000 0.068992
#
#
# Mechanical properties :
#
#
# Convention : Reuss Voigt Hill
#
# Bulk Modulus (GPa) = 51.46989 60.27980 55.87485
# Shear Modulus (GPa) = 18.93995 20.51416 19.72705
#
# Velocity S-wave (km/s) = 3.46266 3.60369 3.53388
# Velocity P-wave (km/s) = 6.96922 7.44821 7.21269
#
# Compressibility (1/GPa) = 0.01942883
#
# Stress axis : x y z
#
# Youngs Moduli (GPa) = 41.11168 41.11168 72.44668
#
# Poissons Ratio (x) = 0.30464 0.51079
# Poissons Ratio (y) = 0.30464 0.51079
# Poissons Ratio (z) = 0.28986 0.28986
#
# Static dielectric constant tensor:
#      x y z
#    x 2.859990 0.000000 0.000000 
#    y 0.000000 2.859990 0.000000 
#    z 0.000000 0.000000 3.418200 
# 
# 
# High freq. dielectric constant tensor:
#      x y z
#    x 1.584620 0.000000 0.000000 
#    y 0.000000 1.584620 0.000000 
#    z 0.000000 0.000000 1.628620 
# 
# From -- ./inp_files/8741.got.cif
#   From: 2010.03.12/outbox.cif.g09.slc.cpg/sg123_5_cif.got.tgz:8741.got - 2010.04.06 16:26:55.
