data_PCOD8312018
_publ_section_title
;
Structure prediction by ZEFSAII (Michael W. Deem and Ramdas Pophale) SiO2 
 PCOD8312018
Probable space group: I -4 2 D
;
_chemical_formula_sum "Si O2"
_cell_formula_units_Z 80
_cell_length_a 11.318575
_cell_length_b 11.318575
_cell_length_c 30.351262
_cell_angle_alpha 90.000000
_cell_angle_beta 90.000000
_cell_angle_gamma 90.000000
_cell_volume 3888.304425
_symmetry_space_group_name_H-M "I -4 2 D"
_symmetry_group_IT_number 122
_symmetry_cell_setting 'tetragonal'
loop_
_space_group_symop_operation_xyz
x,y,z
y,-x,-z
-x,-y,z
-y,x,-z
x,1/2-y,1/4-z
-x,1/2+y,1/4-z
-y,1/2-x,1/4+z
y,1/2+x,1/4+z
1/2+x,1/2+y,1/2+z
1/2+y,1/2-x,1/2-z
1/2-x,1/2-y,1/2+z
1/2-y,1/2+x,1/2-z
1/2+x,-y,3/4-z
1/2-x,y,3/4-z
1/2-y,-x,3/4+z
1/2+y,x,3/4+z
loop_
_atom_site_type_symbol
_atom_site_label
_atom_site_fract_x
_atom_site_fract_y
_atom_site_fract_z
Si Si1 0.340424 0.901425 0.238497
Si Si2 0.865544 0.452967 0.185583
Si Si3 0.178374 0.942131 0.830010
Si Si4 0.059197 0.320962 0.411031
Si Si5 0.797596 0.828468 0.016302
O O1 0.469874 0.842683 0.238572
O O2 0.298564 0.911444 0.187642
O O3 0.246805 0.822591 0.265414
O O4 0.810960 0.403642 0.140169
O O5 0.779360 0.554285 0.204451
O O6 0.866204 0.340639 0.217708
O O7 0.000000 0.500000 0.178684
O O8 0.250000 0.956759 0.875000
O O9 0.255843 0.903132 0.788811
O O10 0.080878 0.842032 0.838351
O O11 0.123428 0.067887 0.816126
#
# Coordination Sequence:
#
# PCOD8312018 Si02
#       5
#    16  16  16  16  16
#     4  11  26  46  67  83 125 190 242 270 315 387
#     4  12  22  38  68 110 141 161 197 283 369 418
#     4  11  21  38  66 100 130 168 210 267 348 414
#     4  11  23  39  65  97 130 168 220 271 337 415
#     4  12  22  40  67  98 136 170 210 273 344 409
#
# _framework density 20.574518999999999
#
# number of rings (size 3 to 8) (size 9 to 14) (size 15 to 20)
#    0.000    0.600    8.000    1.200    2.800    0.000 
#    0.000    0.000   22.000    0.000    0.000    0.000 
#    0.000    0.000    0.000    0.000    0.000    0.000 
#
# Total GULP energy -496027.921458 kJ/mol
# GULP energy per Si atom -12400.698036 kJ/mol
# Density = 2.052769 g / cm^3
# Si number density = 20.574519 Si / 1000 Ang^3
#
#
#
# Elastic Constant Matrix: (Units=GPa)
#
#
# Indices 1 2 3 4 5 6 
#
# 1 95.2871 46.4990 40.6837 0.0000 0.0000 0.0000
# 2 46.4990 95.2871 40.6837 0.0000 0.0000 0.0000
# 3 40.6837 40.6837 130.1974 0.0000 0.0000 0.0000
# 4 0.0000 0.0000 0.0000 26.3210 0.0000 0.0000
# 5 0.0000 0.0000 0.0000 0.0000 26.3210 0.0000
# 6 0.0000 0.0000 0.0000 0.0000 0.0000 39.6085
#
#
#
# Elastic Compliance Matrix: (Units=1/GPa)
#
#
# Indices 1 2 3 4 5 6 
#
# 1 0.014545 -0.005951 -0.002685 0.000000 0.000000 0.000000
# 2 -0.005951 0.014545 -0.002685 0.000000 0.000000 0.000000
# 3 -0.002685 -0.002685 0.009359 0.000000 0.000000 0.000000
# 4 0.000000 0.000000 0.000000 0.037993 0.000000 0.000000
# 5 0.000000 0.000000 0.000000 0.000000 0.037993 0.000000
# 6 0.000000 0.000000 0.000000 0.000000 0.000000 0.025247
#
#
# Mechanical properties :
#
#
# Convention : Reuss Voigt Hill
#
# Bulk Modulus (GPa) = 63.27043 64.05605 63.66324
# Shear Modulus (GPa) = 29.83388 31.31043 30.57216
#
# Velocity S-wave (km/s) = 3.81207 3.90527 3.85895
# Velocity P-wave (km/s) = 7.08480 7.17886 7.13199
#
# Compressibility (1/GPa) = 0.01580517
#
# Stress axis : x y z
#
# Youngs Moduli (GPa) = 68.75038 68.75038 106.85010
#
# Poissons Ratio (x) = 0.40916 0.28694
# Poissons Ratio (y) = 0.40916 0.28694
# Poissons Ratio (z) = 0.18462 0.18462
#
# Static dielectric constant tensor:
#      x y z
#    x 3.870490 0.000000 0.000000 
#    y 0.000000 3.870490 0.000000 
#    z 0.000000 0.000000 3.783620 
# 
# 
# High freq. dielectric constant tensor:
#      x y z
#    x 1.800540 0.000000 0.000000 
#    y 0.000000 1.800540 0.000000 
#    z 0.000000 0.000000 1.803930 
# 
# From -- ./inp_files/9352.got.cif
#   From: 2010.03.12/outbox.cif.g09.slc.cpg/sg122_5_cif.got.tgz:9352.got - 2010.04.06 16:17:16.
