data_PCOD8312493
_publ_section_title
;
Structure prediction by ZEFSAII (Michael W. Deem and Ramdas Pophale) SiO2 
 PCOD8312493
Probable space group: P 4/M M M
;
_chemical_formula_sum "Si O2"
_cell_formula_units_Z 96
_cell_length_a 24.330409
_cell_length_b 24.330409
_cell_length_c 9.134506
_cell_angle_alpha 90.000000
_cell_angle_beta 90.000000
_cell_angle_gamma 90.000000
_cell_volume 5407.342575
_symmetry_space_group_name_H-M "P 4/M M M"
_symmetry_group_IT_number 123
_symmetry_cell_setting 'tetragonal'
loop_
_space_group_symop_operation_xyz
x,y,z
-y,x,z
-x,-y,z
y,-x,z
x,-y,-z
-x,y,-z
y,x,-z
-y,-x,-z
-x,-y,-z
y,-x,-z
x,y,-z
-y,x,-z
-x,y,z
x,-y,z
-y,-x,z
y,x,z
loop_
_atom_site_type_symbol
_atom_site_label
_atom_site_fract_x
_atom_site_fract_y
_atom_site_fract_z
Si Si1 0.231234 0.562077 0.171882
Si Si2 0.439375 0.939136 0.326160
Si Si3 0.768293 0.857573 0.328133
Si Si4 0.151901 0.936905 0.171903
Si Si5 0.848289 0.357175 0.673910
Si Si6 0.440343 0.644451 0.173835
O O1 0.210577 0.500000 0.211389
O O2 0.202638 0.610533 0.260123
O O3 0.293549 0.568778 0.224158
O O4 0.223721 0.572352 0.000000
O O5 0.438058 0.940163 0.500000
O O6 0.500000 0.918136 0.274586
O O7 0.390195 0.901445 0.266557
O O8 0.429063 0.000000 0.263364
O O9 0.768995 0.869526 0.500000
O O10 0.802323 0.802323 0.289538
O O11 0.795447 0.910229 0.250684
O O12 0.705855 0.850248 0.270665
O O13 0.096518 0.903483 0.214343
O O14 0.144690 0.000000 0.223740
O O15 0.162862 0.933706 0.000000
O O16 0.843704 0.358757 0.500000
O O17 0.500000 0.623584 0.227095
O O18 0.394189 0.605812 0.246299
O O19 0.437408 0.641896 0.000000
#
# Coordination Sequence:
#
# PCOD8312493 Si02
#       6
#    16  16  16  16  16  16
#     4   9  18  31  45  64  93 124 151 187 238 289
#     4   8  14  25  41  62  86 107 132 175 225 264
#     4   9  19  34  48  66  96 129 159 196 240 279
#     4   9  18  33  53  76 101 129 161 197 236 278
#     4  10  19  30  48  70  88 115 158 197 226 269
#     4   8  14  25  41  62  88 117 150 188 230 277
#
# _framework density 17.753639
#
# number of rings (size 3 to 8) (size 9 to 14) (size 15 to 20)
#    0.000    3.167    0.000    2.000    0.000    3.667 
#    0.000    3.333    0.000    0.500    0.000    4.667 
#    0.000    0.000    0.000    3.667    0.000    3.667 
#
# Total GULP energy -1189707.210484 kJ/mol
# GULP energy per Si atom -12392.783443 kJ/mol
# Density = 1.771323 g / cm^3
# Si number density = 17.753639 Si / 1000 Ang^3
#
#
#
# Elastic Constant Matrix: (Units=GPa)
#
#
# Indices 1 2 3 4 5 6 
#
# 1 150.7393 86.2691 26.4731 0.0000 0.0000 0.0000
# 2 86.2691 150.7393 26.4731 0.0000 0.0000 0.0000
# 3 26.4731 26.4731 17.3008 0.0000 0.0000 0.0000
# 4 0.0000 0.0000 0.0000 18.0456 0.0000 0.0000
# 5 0.0000 0.0000 0.0000 0.0000 18.0456 0.0000
# 6 0.0000 0.0000 0.0000 0.0000 0.0000 10.5213
#
#
#
# Elastic Compliance Matrix: (Units=1/GPa)
#
#
# Indices 1 2 3 4 5 6 
#
# 1 0.010961 -0.004550 -0.009809 0.000000 0.000000 0.000000
# 2 -0.004550 0.010961 -0.009809 0.000000 0.000000 0.000000
# 3 -0.009809 -0.009809 0.087820 0.000000 0.000000 0.000000
# 4 0.000000 0.000000 0.000000 0.055415 0.000000 0.000000
# 5 0.000000 0.000000 0.000000 0.000000 0.055415 0.000000
# 6 0.000000 0.000000 0.000000 0.000000 0.000000 0.095046
#
#
# Mechanical properties :
#
#
# Convention : Reuss Voigt Hill
#
# Bulk Modulus (GPa) = 16.28545 66.35667 41.32106
# Shear Modulus (GPa) = 13.00647 21.29341 17.14994
#
# Velocity S-wave (km/s) = 2.70961 3.46697 3.11142
# Velocity P-wave (km/s) = 4.35686 7.31328 6.01940
#
# Compressibility (1/GPa) = 0.06140449
#
# Stress axis : x y z
#
# Youngs Moduli (GPa) = 91.23404 91.23404 11.38687
#
# Poissons Ratio (x) = 0.41514 0.11170
# Poissons Ratio (y) = 0.41514 0.11170
# Poissons Ratio (z) = 0.89494 0.89494
#
# Static dielectric constant tensor:
#      x y z
#    x 3.572220 0.000000 0.000000 
#    y 0.000000 3.572220 0.000000 
#    z 0.000000 0.000000 2.857670 
# 
# 
# High freq. dielectric constant tensor:
#      x y z
#    x 1.692750 0.000000 0.000000 
#    y 0.000000 1.692750 0.000000 
#    z 0.000000 0.000000 1.643630 
# 
# From -- ./inp_files/1586.got.cif
#   From: 2010.03.12/outbox.cif.g09.slc.cpg/sg123_1_cif.got.tgz:1586.got - 2010.04.06 16:26:55.
