data_PCOD8312674
_publ_section_title
;
Structure prediction by ZEFSAII (Michael W. Deem and Ramdas Pophale) SiO2 
 PCOD8312674
Probable space group: P 4/M M M
;
_chemical_formula_sum "Si O2"
_cell_formula_units_Z 80
_cell_length_a 13.940406
_cell_length_b 13.940406
_cell_length_c 25.465770
_cell_angle_alpha 90.000000
_cell_angle_beta 90.000000
_cell_angle_gamma 90.000000
_cell_volume 4948.888362
_symmetry_space_group_name_H-M "P 4/M M M"
_symmetry_group_IT_number 123
_symmetry_cell_setting 'tetragonal'
loop_
_space_group_symop_operation_xyz
x,y,z
-y,x,z
-x,-y,z
y,-x,z
x,-y,-z
-x,y,-z
y,x,-z
-y,-x,-z
-x,-y,-z
y,-x,-z
x,y,-z
-y,x,-z
-x,y,z
x,-y,z
-y,-x,z
y,x,z
loop_
_atom_site_type_symbol
_atom_site_label
_atom_site_fract_x
_atom_site_fract_y
_atom_site_fract_z
Si Si1 0.265189 0.889866 0.061179
Si Si2 0.109997 0.737204 0.558303
Si Si3 0.394325 0.113892 0.649964
Si Si4 0.230701 0.386259 0.863010
Si Si5 0.386016 0.893505 0.764827
O O1 0.166858 0.833143 0.074496
O O2 0.354714 0.841518 0.090867
O O3 0.251991 0.000000 0.079103
O O4 0.289762 0.883401 0.000000
O O5 0.122702 0.691235 0.500000
O O6 0.160727 0.839274 0.561384
O O7 0.156227 0.667926 0.602167
O O8 0.000000 0.757528 0.571210
O O9 0.500000 0.159513 0.644468
O O10 0.349222 0.140195 0.707125
O O11 0.401407 0.000000 0.645130
O O12 0.248174 0.500000 0.866475
O O13 0.332914 0.332914 0.868434
O O14 0.182710 0.353263 0.808254
O O15 0.500000 0.899870 0.762625
O O16 0.345485 0.000000 0.778591
#
# Coordination Sequence:
#
# PCOD8312674 Si02
#       5
#    16  16  16  16  16
#     4   9  18  32  50  73  98 121 146 177 215 261
#     4   9  17  27  38  54  77 106 139 170 199 236
#     4   8  14  25  41  61  83 104 128 164 211 258
#     4  10  20  32  46  65  89 118 153 189 222 257
#     4   8  14  26  44  64  84 105 132 169 213 261
#
# _framework density 16.165246
#
# number of rings (size 3 to 8) (size 9 to 14) (size 15 to 20)
#    0.000    3.200    0.000    1.800    0.000    3.400 
#    0.000    5.000    0.000    0.000    0.000    2.800 
#    0.000    5.200    0.000    2.200    0.000    0.200 
#
# Total GULP energy -991435.585845 kJ/mol
# GULP energy per Si atom -12392.944823 kJ/mol
# Density = 1.612845 g / cm^3
# Si number density = 16.165246 Si / 1000 Ang^3
#
#
#
# Elastic Constant Matrix: (Units=GPa)
#
#
# Indices 1 2 3 4 5 6 
#
# 1 77.3230 38.7682 46.7950 0.0000 0.0000 0.0000
# 2 38.7682 77.3230 46.7950 0.0000 0.0000 0.0000
# 3 46.7950 46.7950 99.2469 0.0000 0.0000 0.0000
# 4 0.0000 0.0000 0.0000 21.2732 0.0000 0.0000
# 5 0.0000 0.0000 0.0000 0.0000 21.2732 0.0000
# 6 0.0000 0.0000 0.0000 0.0000 0.0000 12.9976
#
#
#
# Elastic Compliance Matrix: (Units=1/GPa)
#
#
# Indices 1 2 3 4 5 6 
#
# 1 0.019917 -0.006021 -0.006552 0.000000 0.000000 0.000000
# 2 -0.006021 0.019917 -0.006552 0.000000 0.000000 0.000000
# 3 -0.006552 -0.006552 0.016254 0.000000 0.000000 0.000000
# 4 0.000000 0.000000 0.000000 0.047007 0.000000 0.000000
# 5 0.000000 0.000000 0.000000 0.000000 0.047007 0.000000
# 6 0.000000 0.000000 0.000000 0.000000 0.000000 0.076937
#
#
# Mechanical properties :
#
#
# Convention : Reuss Voigt Hill
#
# Bulk Modulus (GPa) = 56.05860 57.62324 56.84092
# Shear Modulus (GPa) = 18.43423 19.21113 18.82268
#
# Velocity S-wave (km/s) = 3.38059 3.45109 3.41602
# Velocity P-wave (km/s) = 7.07047 7.18358 7.12725
#
# Compressibility (1/GPa) = 0.01783848
#
# Stress axis : x y z
#
# Youngs Moduli (GPa) = 50.20949 50.20949 61.52192
#
# Poissons Ratio (x) = 0.30229 0.40309
# Poissons Ratio (y) = 0.30229 0.40309
# Poissons Ratio (z) = 0.32897 0.32897
#
# Static dielectric constant tensor:
#      x y z
#    x 2.881260 0.000000 0.000000 
#    y 0.000000 2.881260 0.000000 
#    z 0.000000 0.000000 3.451390 
# 
# 
# High freq. dielectric constant tensor:
#      x y z
#    x 1.595290 0.000000 0.000000 
#    y 0.000000 1.595290 0.000000 
#    z 0.000000 0.000000 1.638930 
# 
# From -- ./inp_files/6269.got.cif
#   From: 2010.03.12/outbox.cif.g09.slc.cpg/sg123_4_cif.got.tgz:6269.got - 2010.04.06 16:26:55.
