data_PCOD8312826
_publ_section_title
;
Structure prediction by ZEFSAII (Michael W. Deem and Ramdas Pophale) SiO2 
 PCOD8312826
Probable space group: P 4/M M M
;
_chemical_formula_sum "Si O2"
_cell_formula_units_Z 80
_cell_length_a 12.710857
_cell_length_b 12.710857
_cell_length_c 27.246648
_cell_angle_alpha 90.000000
_cell_angle_beta 90.000000
_cell_angle_gamma 90.000000
_cell_volume 4402.128816
_symmetry_space_group_name_H-M "P 4/M M M"
_symmetry_group_IT_number 123
_symmetry_cell_setting 'tetragonal'
loop_
_space_group_symop_operation_xyz
x,y,z
-y,x,z
-x,-y,z
y,-x,z
x,-y,-z
-x,y,-z
y,x,-z
-y,-x,-z
-x,-y,-z
y,-x,-z
x,y,-z
-y,x,-z
-x,y,z
x,-y,z
-y,-x,z
y,x,z
loop_
_atom_site_type_symbol
_atom_site_label
_atom_site_fract_x
_atom_site_fract_y
_atom_site_fract_z
Si Si1 0.880005 0.292145 0.694283
Si Si2 0.880235 0.707311 0.500000
Si Si3 0.500000 0.124803 0.944659
Si Si4 0.789835 0.379122 0.209896
Si Si5 0.705829 0.877825 0.113360
Si Si6 0.207566 0.619850 0.402778
O O1 0.815645 0.184356 0.696531
O O2 0.843787 0.370715 0.737104
O O3 0.866266 0.350360 0.642646
O O4 0.000000 0.260206 0.701429
O O5 0.813517 0.813517 0.500000
O O6 0.857187 0.637587 0.547617
O O7 0.000000 0.743840 0.500000
O O8 0.606095 0.164184 0.917934
O O9 0.500000 0.000000 0.943573
O O10 0.500000 0.168912 0.000000
O O11 0.773234 0.500000 0.196046
O O12 0.675729 0.324272 0.209991
O O13 0.865620 0.323005 0.170539
O O14 0.807514 0.807514 0.099353
O O15 0.732273 0.000000 0.102386
O O16 0.242702 0.500000 0.398976
O O17 0.314413 0.685588 0.402167
#
# Coordination Sequence:
#
# PCOD8312826 Si02
#       6
#    16   8   8  16  16  16
#     4  10  21  35  52  76 104 135 173 215 260 313
#     4  10  21  36  54  76 102 132 169 212 256 306
#     4   9  18  34  56  79 105 141 183 223 262 310
#     4  10  20  34  53  78 107 140 178 220 266 317
#     4  10  20  34  54  81 111 144 182 223 270 322
#     4  10  21  36  53  76 103 132 170 212 256 308
#
# _framework density 18.173026
#
# number of rings (size 3 to 8) (size 9 to 14) (size 15 to 20)
#    0.000    2.100    1.000    2.100    0.000    5.300 
#    0.000    0.000    0.000   12.900    0.000    3.500 
#    0.000    0.000    0.000    0.000    0.000    0.000 
#
# Total GULP energy -992229.944538 kJ/mol
# GULP energy per Si atom -12402.874307 kJ/mol
# Density = 1.813166 g / cm^3
# Si number density = 18.173026 Si / 1000 Ang^3
#
#
#
# Elastic Constant Matrix: (Units=GPa)
#
#
# Indices 1 2 3 4 5 6 
#
# 1 115.9326 54.3781 28.8596 0.0000 0.0000 0.0000
# 2 54.3781 115.9326 28.8596 0.0000 0.0000 0.0000
# 3 28.8596 28.8596 100.9380 0.0000 0.0000 0.0000
# 4 0.0000 0.0000 0.0000 21.4445 0.0000 0.0000
# 5 0.0000 0.0000 0.0000 0.0000 21.4445 0.0000
# 6 0.0000 0.0000 0.0000 0.0000 0.0000 13.6529
#
#
#
# Elastic Compliance Matrix: (Units=1/GPa)
#
#
# Indices 1 2 3 4 5 6 
#
# 1 0.011374 -0.004872 -0.001859 0.000000 0.000000 0.000000
# 2 -0.004872 0.011374 -0.001859 0.000000 0.000000 0.000000
# 3 -0.001859 -0.001859 0.010970 0.000000 0.000000 0.000000
# 4 0.000000 0.000000 0.000000 0.046632 0.000000 0.000000
# 5 0.000000 0.000000 0.000000 0.000000 0.046632 0.000000
# 6 0.000000 0.000000 0.000000 0.000000 0.000000 0.073244
#
#
# Mechanical properties :
#
#
# Convention : Reuss Voigt Hill
#
# Bulk Modulus (GPa) = 60.46807 61.88867 61.17837
# Shear Modulus (GPa) = 22.42977 26.02212 24.22595
#
# Velocity S-wave (km/s) = 3.51698 3.78816 3.65509
# Velocity P-wave (km/s) = 7.05960 7.29813 7.17986
#
# Compressibility (1/GPa) = 0.01653765
#
# Stress axis : x y z
#
# Youngs Moduli (GPa) = 87.92227 87.92227 91.15730
#
# Poissons Ratio (x) = 0.42836 0.16945
# Poissons Ratio (y) = 0.42836 0.16945
# Poissons Ratio (z) = 0.16344 0.16344
#
# Static dielectric constant tensor:
#      x y z
#    x 3.204650 0.000000 0.000000 
#    y 0.000000 3.204650 0.000000 
#    z 0.000000 0.000000 3.681260 
# 
# 
# High freq. dielectric constant tensor:
#      x y z
#    x 1.696720 0.000000 0.000000 
#    y 0.000000 1.696720 0.000000 
#    z 0.000000 0.000000 1.718460 
# 
# From -- ./inp_files/8331.got.cif
#   From: 2010.03.12/outbox.cif.g09.slc.cpg/sg123_5_cif.got.tgz:8331.got - 2010.04.06 16:26:55.
