data_PCOD8312857
_publ_section_title
;
Structure prediction by ZEFSAII (Michael W. Deem and Ramdas Pophale) SiO2 
 PCOD8312857
Probable space group: P 4/M M M
;
_chemical_formula_sum "Si O2"
_cell_formula_units_Z 120
_cell_length_a 21.197579
_cell_length_b 21.197579
_cell_length_c 14.906505
_cell_angle_alpha 90.000000
_cell_angle_beta 90.000000
_cell_angle_gamma 90.000000
_cell_volume 6698.049536
_symmetry_space_group_name_H-M "P 4/M M M"
_symmetry_group_IT_number 123
_symmetry_cell_setting 'tetragonal'
loop_
_space_group_symop_operation_xyz
x,y,z
-y,x,z
-x,-y,z
y,-x,z
x,-y,-z
-x,y,-z
y,x,-z
-y,-x,-z
-x,-y,-z
y,-x,-z
x,y,-z
-y,x,-z
-x,y,z
x,-y,z
-y,-x,z
y,x,z
loop_
_atom_site_type_symbol
_atom_site_label
_atom_site_fract_x
_atom_site_fract_y
_atom_site_fract_z
Si Si1 0.122870 0.643354 0.396860
Si Si2 0.743773 0.150384 0.100689
Si Si3 0.645067 0.248962 0.100774
Si Si4 0.928057 0.828890 0.785291
Si Si5 0.634396 0.735495 0.395825
Si Si6 0.071334 0.777077 0.401889
Si Si7 0.000000 0.427196 0.393230
Si Si8 0.572318 0.325550 0.763845
O O1 0.123865 0.623580 0.500000
O O2 0.192804 0.630265 0.357938
O O3 0.115618 0.717831 0.384744
O O4 0.064182 0.604799 0.352376
O O5 0.795766 0.204235 0.105577
O O6 0.676132 0.181104 0.127080
O O7 0.763242 0.094951 0.169575
O O8 0.740408 0.122391 0.000000
O O9 0.699529 0.300472 0.105460
O O10 0.590377 0.267522 0.170193
O O11 0.617036 0.245611 0.000000
O O12 0.888032 0.888032 0.822123
O O13 0.918558 0.826814 0.677622
O O14 0.000000 0.840452 0.812216
O O15 0.615013 0.731592 0.500000
O O16 0.704447 0.704447 0.381657
O O17 0.584286 0.695488 0.338619
O O18 0.086335 0.807836 0.500000
O O19 0.000000 0.751202 0.400734
O O20 0.000000 0.500000 0.364564
O O21 0.000000 0.418122 0.500000
O O22 0.500000 0.343368 0.777343
O O23 0.612437 0.387564 0.788459
#
# Coordination Sequence:
#
# PCOD8312857 Si02
#       8
#    16  16  16  16  16  16   8  16
#     4   9  16  28  46  66  92 124 159 201 248 297
#     4   8  15  30  52  75  97 122 155 198 248 301
#     4   8  15  30  52  76 101 127 155 194 245 296
#     4  10  21  33  48  71  97 131 172 214 261 311
#     4   9  19  33  48  69  97 130 171 218 262 300
#     4   9  17  30  46  65  93 128 168 211 253 297
#     4   9  16  26  42  66  94 126 158 186 234 309
#     4  10  21  35  52  75 102 134 171 210 252 300
#
# _framework density 17.915664
#
# number of rings (size 3 to 8) (size 9 to 14) (size 15 to 20)
#    0.000    3.000    0.667    0.800    1.867    2.400 
#    0.000    2.667    0.000    0.000    0.000    7.467 
#    0.000    0.000    0.000    2.933    0.000    0.267 
#
# Total GULP energy -1486891.020663 kJ/mol
# GULP energy per Si atom -12390.758506 kJ/mol
# Density = 1.787489 g / cm^3
# Si number density = 17.915664 Si / 1000 Ang^3
#
#
#
# Elastic Constant Matrix: (Units=GPa)
#
#
# Indices 1 2 3 4 5 6 
#
# 1 91.3645 45.8442 32.8411 0.0000 0.0000 0.0000
# 2 45.8442 91.3645 32.8411 0.0000 0.0000 0.0000
# 3 32.8411 32.8411 74.4671 0.0000 0.0000 0.0000
# 4 0.0000 0.0000 0.0000 17.1499 0.0000 0.0000
# 5 0.0000 0.0000 0.0000 0.0000 17.1499 0.0000
# 6 0.0000 0.0000 0.0000 0.0000 0.0000 17.6139
#
#
#
# Elastic Compliance Matrix: (Units=1/GPa)
#
#
# Indices 1 2 3 4 5 6 
#
# 1 0.015603 -0.006365 -0.004074 0.000000 0.000000 0.000000
# 2 -0.006365 0.015603 -0.004074 0.000000 0.000000 0.000000
# 3 -0.004074 -0.004074 0.017022 0.000000 0.000000 0.000000
# 4 0.000000 0.000000 0.000000 0.058309 0.000000 0.000000
# 5 0.000000 0.000000 0.000000 0.000000 0.058309 0.000000
# 6 0.000000 0.000000 0.000000 0.000000 0.000000 0.056773
#
#
# Mechanical properties :
#
#
# Convention : Reuss Voigt Hill
#
# Bulk Modulus (GPa) = 52.07738 53.36100 52.71919
# Shear Modulus (GPa) = 19.45156 20.09408 19.77282
#
# Velocity S-wave (km/s) = 3.29862 3.35265 3.32574
# Velocity P-wave (km/s) = 6.60598 6.69599 6.65114
#
# Compressibility (1/GPa) = 0.01920220
#
# Stress axis : x y z
#
# Youngs Moduli (GPa) = 64.08866 64.08866 58.74606
#
# Poissons Ratio (x) = 0.40791 0.23935
# Poissons Ratio (y) = 0.40791 0.23935
# Poissons Ratio (z) = 0.26112 0.26112
#
# Static dielectric constant tensor:
#      x y z
#    x 3.202310 0.000000 0.000000 
#    y 0.000000 3.202310 0.000000 
#    z 0.000000 0.000000 3.309150 
# 
# 
# High freq. dielectric constant tensor:
#      x y z
#    x 1.671470 0.000000 0.000000 
#    y 0.000000 1.671470 0.000000 
#    z 0.000000 0.000000 1.678480 
# 
# From -- ./inp_files/4577.got.cif
#   From: 2010.03.12/outbox.cif.g09.slc.cpg/sg123_3_cif.got.tgz:4577.got - 2010.04.06 16:26:55.
