data_PCOD8312371
_publ_section_title
;
Structure prediction by ZEFSAII (Michael W. Deem and Ramdas Pophale) SiO2 
 PCOD8312371
Probable space group: P 4/M M M
;
_chemical_formula_sum "Si O2"
_cell_formula_units_Z 68
_cell_length_a 12.132774
_cell_length_b 12.132774
_cell_length_c 31.157733
_cell_angle_alpha 90.000000
_cell_angle_beta 90.000000
_cell_angle_gamma 90.000000
_cell_volume 4586.549314
_symmetry_space_group_name_H-M "P 4/M M M"
_symmetry_group_IT_number 123
_symmetry_cell_setting 'tetragonal'
loop_
_space_group_symop_operation_xyz
x,y,z
-y,x,z
-x,-y,z
y,-x,z
x,-y,-z
-x,y,-z
y,x,-z
-y,-x,-z
-x,-y,-z
y,-x,-z
x,y,-z
-y,x,-z
-x,y,z
x,-y,z
-y,-x,z
y,x,z
loop_
_atom_site_type_symbol
_atom_site_label
_atom_site_fract_x
_atom_site_fract_y
_atom_site_fract_z
Si Si1 0.627962 0.000000 0.115488
Si Si2 0.178473 0.000000 0.949814
Si Si3 0.804823 0.625068 0.820848
Si Si4 0.500000 0.315430 0.406639
Si Si5 0.695078 0.124873 0.728106
Si Si6 0.500000 0.872315 0.663806
Si Si7 0.500000 0.319725 0.500000
O O1 0.657026 0.106259 0.143563
O O2 0.500000 0.000000 0.101157
O O3 0.704692 0.000000 0.073870
O O4 0.108289 0.891712 0.937215
O O5 0.204484 0.000000 0.000000
O O6 0.766289 0.500000 0.826011
O O7 0.697871 0.697871 0.828219
O O8 0.857172 0.641155 0.774289
O O9 0.608271 0.391730 0.399924
O O10 0.500000 0.211647 0.375451
O O11 0.500000 0.256786 0.454180
O O12 0.801101 0.198900 0.720480
O O13 0.606600 0.153752 0.692025
O O14 0.735413 0.000000 0.724187
O O15 0.500000 0.000000 0.648136
O O16 0.607747 0.392254 0.500000
#
# Coordination Sequence:
#
# PCOD8312371 Si02
#       7
#     8   8  16   8  16   8   4
#     4  10  19  30  50  70  91 118 151 184 220 259
#     4   9  18  33  51  71  97 122 143 179 229 273
#     4  10  19  31  46  63  87 117 150 184 221 260
#     4   9  16  28  46  68  90 112 148 188 224 268
#     4  10  19  31  45  60  84 116 148 187 223 258
#     4  10  19  29  45  62  88 120 148 182 222 269
#     4   7  12  24  43  64  88 116 139 177 230 270
#
# _framework density 14.82596
#
# number of rings (size 3 to 8) (size 9 to 14) (size 15 to 20)
#    0.000    2.412    2.353    2.471    0.000    0.706 
#    0.000    0.294    0.000    0.000    0.000    0.000 
#    0.000    0.000    0.000   21.882    0.000   70.588 
#
# Total GULP energy -842909.019092 kJ/mol
# GULP energy per Si atom -12395.720869 kJ/mol
# Density = 1.479222 g / cm^3
# Si number density = 14.825960 Si / 1000 Ang^3
#
#
#
# Elastic Constant Matrix: (Units=GPa)
#
#
# Indices 1 2 3 4 5 6 
#
# 1 79.9581 60.2721 56.5158 0.0000 0.0000 0.0000
# 2 60.2721 79.9582 56.5158 0.0000 0.0000 0.0000
# 3 56.5158 56.5158 102.3731 0.0000 0.0000 0.0000
# 4 0.0000 0.0000 0.0000 26.2732 0.0000 0.0000
# 5 0.0000 0.0000 0.0000 0.0000 26.2734 0.0000
# 6 0.0000 0.0000 0.0000 0.0000 0.0000 -14.2351
#
#
#
# Elastic Compliance Matrix: (Units=1/GPa)
#
#
# Indices 1 2 3 4 5 6 
#
# 1 0.031823 -0.018974 -0.007093 0.000000 0.000000 0.000000
# 2 -0.018974 0.031823 -0.007093 0.000000 0.000000 0.000000
# 3 -0.007093 -0.007093 0.017600 0.000000 0.000000 0.000000
# 4 0.000000 0.000000 0.000000 0.038062 0.000000 0.000000
# 5 0.000000 0.000000 0.000000 0.000000 0.038061 0.000000
# 6 0.000000 0.000000 0.000000 0.000000 0.000000 -0.070249
#
#
# Mechanical properties :
#
#
# Convention : Reuss Voigt Hill
#
# Bulk Modulus (GPa) = 67.00460 67.65521 67.32990
# Shear Modulus (GPa) = 31.56262 13.59470 22.57866
#
# Velocity S-wave (km/s) = 4.61898 3.03141 3.90669
# Velocity P-wave (km/s) = 8.58713 7.61476 8.11552
#
# Compressibility (1/GPa) = 0.01492435
#
# Stress axis : x y z
#
# Youngs Moduli (GPa) = 31.42396 31.42403 56.81897
#
# Poissons Ratio (x) = 0.59625 0.40302
# Poissons Ratio (y) = 0.59625 0.40302
# Poissons Ratio (z) = 0.22289 0.22289
#
# Static dielectric constant tensor:
#      x y z
#    x 2.772680 0.000000 0.000000 
#    y 0.000000 2.772680 0.000000 
#    z 0.000000 0.000000 2.887720 
# 
# 
# High freq. dielectric constant tensor:
#      x y z
#    x 1.564260 0.000000 0.000000 
#    y 0.000000 1.564260 0.000000 
#    z 0.000000 0.000000 1.563910 
# 
# From -- ./inp_files/7938.got.cif
#   From: 2010.03.12/outbox.cif.g09.slc.cpg/sg123_4_cif.got.tgz:7938.got - 2010.04.06 16:26:55.
