data_PCOD8312581
_publ_section_title
;
Structure prediction by ZEFSAII (Michael W. Deem and Ramdas Pophale) SiO2 
 PCOD8312581
Probable space group: P 4/M M M
;
_chemical_formula_sum "Si O2"
_cell_formula_units_Z 104
_cell_length_a 19.699189
_cell_length_b 19.699189
_cell_length_c 15.463182
_cell_angle_alpha 90.000000
_cell_angle_beta 90.000000
_cell_angle_gamma 90.000000
_cell_volume 6000.612211
_symmetry_space_group_name_H-M "P 4/M M M"
_symmetry_group_IT_number 123
_symmetry_cell_setting 'tetragonal'
loop_
_space_group_symop_operation_xyz
x,y,z
-y,x,z
-x,-y,z
y,-x,z
x,-y,-z
-x,y,-z
y,x,-z
-y,-x,-z
-x,-y,-z
y,-x,-z
x,y,-z
-y,x,-z
-x,y,z
x,-y,z
-y,-x,z
y,x,z
loop_
_atom_site_type_symbol
_atom_site_label
_atom_site_fract_x
_atom_site_fract_y
_atom_site_fract_z
Si Si1 0.194897 0.078792 0.000000
Si Si2 0.186784 0.078081 0.336661
Si Si3 0.767671 0.345074 0.236296
Si Si4 0.329408 0.072856 0.400376
Si Si5 0.580058 0.805891 0.599687
Si Si6 0.757740 0.866034 0.170382
Si Si7 0.687807 0.422197 0.098835
O O1 0.245098 0.092476 0.081145
O O2 0.127351 0.127351 0.000000
O O3 0.171017 0.000000 0.000000
O O4 0.123906 0.123906 0.369178
O O5 0.255620 0.105611 0.381581
O O6 0.198814 0.086574 0.234613
O O7 0.170796 0.000000 0.360319
O O8 0.716498 0.283503 0.243792
O O9 0.759475 0.384052 0.328281
O O10 0.843202 0.315124 0.212342
O O11 0.748485 0.396391 0.159504
O O12 0.333985 0.058301 0.500000
O O13 0.392491 0.119763 0.374916
O O14 0.335462 0.000000 0.350869
O O15 0.599828 0.785882 0.500000
O O16 0.500000 0.803865 0.611797
O O17 0.796279 0.796279 0.150209
O O18 0.671382 0.500000 0.119758
O O19 0.619052 0.380949 0.117867
O O20 0.711784 0.412202 0.000000
#
# Coordination Sequence:
#
# PCOD8312581 Si02
#       7
#     8  16  16  16  16  16  16
#     4  10  20  33  50  72  99 131 168 212 260 310
#     4  10  19  32  49  70  97 127 164 207 250 301
#     4  10  19  32  50  73 104 137 171 211 254 303
#     4   9  18  32  49  68  91 122 158 197 246 303
#     4  10  20  33  51  76 103 130 165 212 262 309
#     4   9  18  31  48  70  94 126 167 209 251 295
#     4   9  18  31  49  74 103 135 169 205 247 297
#
# _framework density 17.331565999999999
#
# number of rings (size 3 to 8) (size 9 to 14) (size 15 to 20)
#    0.000    2.462    1.538    0.923    1.077    1.308 
#    0.000    3.846    0.000    2.769    0.000    2.154 
#    0.000    1.231    0.000   14.308    0.000    0.308 
#
# Total GULP energy -1288508.629041 kJ/mol
# GULP energy per Si atom -12389.506048 kJ/mol
# Density = 1.729212 g / cm^3
# Si number density = 17.331566 Si / 1000 Ang^3
#
#
#
# Elastic Constant Matrix: (Units=GPa)
#
#
# Indices 1 2 3 4 5 6 
#
# 1 64.0755 26.0202 29.1143 0.0000 0.0000 0.0000
# 2 26.0202 64.0755 29.1143 0.0000 0.0000 0.0000
# 3 29.1143 29.1143 53.4429 0.0000 0.0000 0.0000
# 4 0.0000 0.0000 0.0000 25.0352 0.0000 0.0000
# 5 0.0000 0.0000 0.0000 0.0000 25.0352 0.0000
# 6 0.0000 0.0000 0.0000 0.0000 0.0000 13.1408
#
#
#
# Elastic Compliance Matrix: (Units=1/GPa)
#
#
# Indices 1 2 3 4 5 6 
#
# 1 0.021704 -0.004573 -0.009332 0.000000 0.000000 0.000000
# 2 -0.004573 0.021704 -0.009332 0.000000 0.000000 0.000000
# 3 -0.009332 -0.009332 0.028880 0.000000 0.000000 0.000000
# 4 0.000000 0.000000 0.000000 0.039944 0.000000 0.000000
# 5 0.000000 0.000000 0.000000 0.000000 0.039944 0.000000
# 6 0.000000 0.000000 0.000000 0.000000 0.000000 0.076099
#
#
# Mechanical properties :
#
#
# Convention : Reuss Voigt Hill
#
# Bulk Modulus (GPa) = 38.74222 38.89905 38.82064
# Shear Modulus (GPa) = 17.64574 19.13193 18.38884
#
# Velocity S-wave (km/s) = 3.19427 3.32607 3.26084
# Velocity P-wave (km/s) = 6.00055 6.10271 6.05185
#
# Compressibility (1/GPa) = 0.02581163
#
# Stress axis : x y z
#
# Youngs Moduli (GPa) = 46.07408 46.07408 34.62649
#
# Poissons Ratio (x) = 0.21071 0.32315
# Poissons Ratio (y) = 0.21071 0.32315
# Poissons Ratio (z) = 0.42998 0.42998
#
# Static dielectric constant tensor:
#      x y z
#    x 3.171830 0.000000 0.000000 
#    y 0.000000 3.171830 0.000000 
#    z 0.000000 0.000000 3.353590 
# 
# 
# High freq. dielectric constant tensor:
#      x y z
#    x 1.653460 0.000000 0.000000 
#    y 0.000000 1.653460 0.000000 
#    z 0.000000 0.000000 1.675470 
# 
# From -- ./inp_files/4471.got.cif
#   From: 2010.03.12/outbox.cif.g09.slc.cpg/sg123_3_cif.got.tgz:4471.got - 2010.04.06 16:26:55.
