data_PCOD8312813
_publ_section_title
;
Structure prediction by ZEFSAII (Michael W. Deem and Ramdas Pophale) SiO2 
 PCOD8312813
Probable space group: P 4/M M M
;
_chemical_formula_sum "Si O2"
_cell_formula_units_Z 104
_cell_length_a 17.834900
_cell_length_b 17.834900
_cell_length_c 17.658871
_cell_angle_alpha 90.000000
_cell_angle_beta 90.000000
_cell_angle_gamma 90.000000
_cell_volume 5616.998284
_symmetry_space_group_name_H-M "P 4/M M M"
_symmetry_group_IT_number 123
_symmetry_cell_setting 'tetragonal'
loop_
_space_group_symop_operation_xyz
x,y,z
-y,x,z
-x,-y,z
y,-x,z
x,-y,-z
-x,y,-z
y,x,-z
-y,-x,-z
-x,-y,-z
y,-x,-z
x,y,-z
-y,x,-z
-x,y,z
x,-y,z
-y,-x,z
y,x,z
loop_
_atom_site_type_symbol
_atom_site_label
_atom_site_fract_x
_atom_site_fract_y
_atom_site_fract_z
Si Si1 0.211250 0.089603 0.500000
Si Si2 0.717382 0.084887 0.657921
Si Si3 0.582355 0.816379 0.699651
Si Si4 0.587601 0.712707 0.161290
Si Si5 0.792879 0.086075 0.188418
Si Si6 0.581629 0.695810 0.413033
Si Si7 0.305505 0.819966 0.915772
O O1 0.130857 0.130857 0.500000
O O2 0.255964 0.116256 0.424032
O O3 0.196709 0.000000 0.500000
O O4 0.645480 0.121468 0.697626
O O5 0.782328 0.093426 0.720813
O O6 0.693907 0.000000 0.644639
O O7 0.500000 0.851725 0.717387
O O8 0.599036 0.746971 0.755487
O O9 0.584337 0.780021 0.617026
O O10 0.500000 0.694828 0.143818
O O11 0.636293 0.636293 0.152740
O O12 0.616492 0.779060 0.105781
O O13 0.866047 0.133954 0.165270
O O14 0.718902 0.115117 0.143192
O O15 0.806899 0.000000 0.165264
O O16 0.600719 0.703012 0.500000
O O17 0.500000 0.659561 0.398793
O O18 0.641922 0.641922 0.372608
O O19 0.242152 0.757849 0.913442
O O20 0.313828 0.854532 0.000000
#
# Coordination Sequence:
#
# PCOD8312813 Si02
#       7
#     8  16  16  16  16  16  16
#     4  10  22  37  55  81 109 141 180 222 270 324
#     4  10  21  37  55  79 109 141 182 226 269 321
#     4  10  20  34  52  74 103 137 176 224 276 327
#     4  10  20  34  54  81 111 145 184 227 276 329
#     4  10  20  35  57  84 114 147 181 222 272 327
#     4   9  18  30  44  66  95 128 168 211 256 308
#     4   9  18  34  56  80 108 144 184 224 267 319
#
# _framework density 18.515225999999998
#
# number of rings (size 3 to 8) (size 9 to 14) (size 15 to 20)
#    0.000    2.308    1.538    0.923    1.077    3.308 
#    0.000    0.769    0.000    7.385    0.000    5.385 
#    0.000    0.000    0.000    0.000    0.000    0.000 
#
# Total GULP energy -1288644.766753 kJ/mol
# GULP energy per Si atom -12390.815065 kJ/mol
# Density = 1.847308 g / cm^3
# Si number density = 18.515226 Si / 1000 Ang^3
#
#
#
# Elastic Constant Matrix: (Units=GPa)
#
#
# Indices 1 2 3 4 5 6 
#
# 1 85.5780 50.0395 34.9266 0.0000 0.0000 0.0000
# 2 50.0395 85.5780 34.9266 0.0000 0.0000 0.0000
# 3 34.9266 34.9266 83.2914 0.0000 0.0000 0.0000
# 4 0.0000 0.0000 0.0000 21.0938 0.0000 0.0000
# 5 0.0000 0.0000 0.0000 0.0000 21.0938 0.0000
# 6 0.0000 0.0000 0.0000 0.0000 0.0000 13.2949
#
#
#
# Elastic Compliance Matrix: (Units=1/GPa)
#
#
# Indices 1 2 3 4 5 6 
#
# 1 0.018772 -0.009367 -0.003944 0.000000 0.000000 0.000000
# 2 -0.009367 0.018772 -0.003944 0.000000 0.000000 0.000000
# 3 -0.003944 -0.003944 0.015314 0.000000 0.000000 0.000000
# 4 0.000000 0.000000 0.000000 0.047407 0.000000 0.000000
# 5 0.000000 0.000000 0.000000 0.000000 0.047407 0.000000
# 6 0.000000 0.000000 0.000000 0.000000 0.000000 0.075217
#
#
# Mechanical properties :
#
#
# Convention : Reuss Voigt Hill
#
# Bulk Modulus (GPa) = 54.50075 54.91477 54.70776
# Shear Modulus (GPa) = 18.97440 20.06684 19.52062
#
# Velocity S-wave (km/s) = 3.20472 3.29569 3.25052
# Velocity P-wave (km/s) = 6.57215 6.64874 6.61056
#
# Compressibility (1/GPa) = 0.01834837
#
# Stress axis : x y z
#
# Youngs Moduli (GPa) = 53.27155 53.27155 65.30158
#
# Poissons Ratio (x) = 0.49898 0.25754
# Poissons Ratio (y) = 0.49898 0.25754
# Poissons Ratio (z) = 0.21009 0.21009
#
# Static dielectric constant tensor:
#      x y z
#    x 3.345820 0.000000 0.000000 
#    y 0.000000 3.345820 0.000000 
#    z 0.000000 0.000000 3.577560 
# 
# 
# High freq. dielectric constant tensor:
#      x y z
#    x 1.704830 0.000000 0.000000 
#    y 0.000000 1.704830 0.000000 
#    z 0.000000 0.000000 1.722220 
# 
# From -- ./inp_files/5620.got.cif
#   From: 2010.03.12/outbox.cif.g09.slc.cpg/sg123_3_cif.got.tgz:5620.got - 2010.04.06 16:26:55.
