data_PCOD8312580
_publ_section_title
;
Structure prediction by ZEFSAII (Michael W. Deem and Ramdas Pophale) SiO2 
 PCOD8312580
Probable space group: P 4/M M M
;
_chemical_formula_sum "Si O2"
_cell_formula_units_Z 128
_cell_length_a 20.327033
_cell_length_b 20.327033
_cell_length_c 19.352086
_cell_angle_alpha 90.000000
_cell_angle_beta 90.000000
_cell_angle_gamma 90.000000
_cell_volume 7996.054947
_symmetry_space_group_name_H-M "P 4/M M M"
_symmetry_group_IT_number 123
_symmetry_cell_setting 'tetragonal'
loop_
_space_group_symop_operation_xyz
x,y,z
-y,x,z
-x,-y,z
y,-x,z
x,-y,-z
-x,y,-z
y,x,-z
-y,-x,-z
-x,-y,-z
y,-x,-z
x,y,-z
-y,x,-z
-x,y,z
x,-y,z
-y,-x,z
y,x,z
loop_
_atom_site_type_symbol
_atom_site_label
_atom_site_fract_x
_atom_site_fract_y
_atom_site_fract_z
Si Si1 0.425313 0.678731 0.576686
Si Si2 0.929244 0.576249 0.836193
Si Si3 0.422480 0.130808 0.693581
Si Si4 0.575230 0.320910 0.156013
Si Si5 0.267202 0.630021 0.710788
Si Si6 0.671519 0.077644 0.421964
Si Si7 0.191783 0.578454 0.078388
Si Si8 0.180485 0.925674 0.417748
O O1 0.417017 0.709765 0.500000
O O2 0.500000 0.668351 0.597213
O O3 0.392947 0.607054 0.580353
O O4 0.391569 0.726795 0.631134
O O5 0.929373 0.500000 0.855812
O O6 0.923038 0.583695 0.753459
O O7 0.870614 0.609204 0.880488
O O8 0.000000 0.607688 0.856770
O O9 0.500000 0.147255 0.678377
O O10 0.381493 0.191204 0.727013
O O11 0.386199 0.108245 0.624259
O O12 0.500000 0.335078 0.137957
O O13 0.615960 0.384041 0.131141
O O14 0.583623 0.309094 0.238028
O O15 0.603698 0.258078 0.114836
O O16 0.294628 0.705372 0.718949
O O17 0.661890 0.104353 0.500000
O O18 0.745401 0.095700 0.394785
O O19 0.663331 0.000000 0.420976
O O20 0.190916 0.500000 0.082339
O O21 0.189429 0.604081 0.000000
O O22 0.178341 0.926314 0.500000
O O23 0.126489 0.873512 0.388393
O O24 0.164329 0.000000 0.390809
#
# Coordination Sequence:
#
# PCOD8312580 Si02
#       8
#    16  16  16  16  16  16  16  16
#     4   9  17  28  41  57  77 101 132 174 224 275
#     4   9  17  29  46  68  91 114 142 178 221 268
#     4  11  20  31  48  66  87 116 154 195 236 278
#     4  10  19  32  49  68  92 122 155 192 233 277
#     4  10  20  33  48  64  85 114 147 188 237 285
#     4   9  19  33  45  62  91 124 156 191 233 277
#     4   9  17  30  48  69  92 117 143 174 218 269
#     4   8  14  26  44  65  90 119 150 186 228 273
#
# _framework density 16.007894
#
# number of rings (size 3 to 8) (size 9 to 14) (size 15 to 20)
#    0.000    2.625    1.250    2.250    0.000    2.875 
#    0.000    3.125    0.000    2.250    0.000    1.750 
#    0.000    0.000    0.000    0.000    0.000    0.000 
#
# Total GULP energy -1586032.468330 kJ/mol
# GULP energy per Si atom -12390.878659 kJ/mol
# Density = 1.597146 g / cm^3
# Si number density = 16.007894 Si / 1000 Ang^3
#
#
#
# Elastic Constant Matrix: (Units=GPa)
#
#
# Indices 1 2 3 4 5 6 
#
# 1 79.7166 43.9526 29.6570 0.0000 0.0000 0.0000
# 2 43.9526 79.7166 29.6570 0.0000 0.0000 0.0000
# 3 29.6570 29.6570 70.0926 0.0000 0.0000 0.0000
# 4 0.0000 0.0000 0.0000 12.1930 0.0000 0.0000
# 5 0.0000 0.0000 0.0000 0.0000 12.1930 0.0000
# 6 0.0000 0.0000 0.0000 0.0000 0.0000 18.0959
#
#
#
# Elastic Compliance Matrix: (Units=1/GPa)
#
#
# Indices 1 2 3 4 5 6 
#
# 1 0.019053 -0.008908 -0.004292 0.000000 0.000000 0.000000
# 2 -0.008908 0.019053 -0.004292 0.000000 0.000000 0.000000
# 3 -0.004292 -0.004292 0.017899 0.000000 0.000000 0.000000
# 4 0.000000 0.000000 0.000000 0.082014 0.000000 0.000000
# 5 0.000000 0.000000 0.000000 0.000000 0.082014 0.000000
# 6 0.000000 0.000000 0.000000 0.000000 0.000000 0.055261
#
#
# Mechanical properties :
#
#
# Convention : Reuss Voigt Hill
#
# Bulk Modulus (GPa) = 47.57553 48.45101 48.01327
# Shear Modulus (GPa) = 15.75861 16.91365 16.33613
#
# Velocity S-wave (km/s) = 3.14096 3.25404 3.19800
# Velocity P-wave (km/s) = 6.55277 6.66716 6.61021
#
# Compressibility (1/GPa) = 0.02101921
#
# Stress axis : x y z
#
# Youngs Moduli (GPa) = 52.48534 52.48534 55.86848
#
# Poissons Ratio (x) = 0.46755 0.23981
# Poissons Ratio (y) = 0.46755 0.23981
# Poissons Ratio (z) = 0.22529 0.22529
#
# Static dielectric constant tensor:
#      x y z
#    x 3.042390 0.000000 0.000000 
#    y 0.000000 3.042390 0.000000 
#    z 0.000000 0.000000 3.029370 
# 
# 
# High freq. dielectric constant tensor:
#      x y z
#    x 1.597510 0.000000 0.000000 
#    y 0.000000 1.597510 0.000000 
#    z 0.000000 0.000000 1.600910 
# 
# From -- ./inp_files/6040.got.cif
#   From: 2010.03.12/outbox.cif.g09.slc.cpg/sg123_4_cif.got.tgz:6040.got - 2010.04.06 16:26:55.
