data_PCOD8312382
_publ_section_title
;
Structure prediction by ZEFSAII (Michael W. Deem and Ramdas Pophale) SiO2 
 PCOD8312382
Probable space group: P 4/M M M
;
_chemical_formula_sum "Si O2"
_cell_formula_units_Z 64
_cell_length_a 13.431339
_cell_length_b 13.431339
_cell_length_c 22.482854
_cell_angle_alpha 90.000000
_cell_angle_beta 90.000000
_cell_angle_gamma 90.000000
_cell_volume 4055.926362
_symmetry_space_group_name_H-M "P 4/M M M"
_symmetry_group_IT_number 123
_symmetry_cell_setting 'tetragonal'
loop_
_space_group_symop_operation_xyz
x,y,z
-y,x,z
-x,-y,z
y,-x,z
x,-y,-z
-x,y,-z
y,x,-z
-y,-x,-z
-x,-y,-z
y,-x,-z
x,y,-z
-y,x,-z
-x,y,z
x,-y,z
-y,-x,z
y,x,z
loop_
_atom_site_type_symbol
_atom_site_label
_atom_site_fract_x
_atom_site_fract_y
_atom_site_fract_z
Si Si1 0.225100 0.610217 0.662497
Si Si2 0.117477 0.724272 0.000000
Si Si3 0.500000 0.117999 0.431811
Si Si4 0.882693 0.276405 0.764836
Si Si5 0.881992 0.389120 0.117404
O O1 0.261022 0.500000 0.683704
O O2 0.320668 0.679333 0.652561
O O3 0.163489 0.598362 0.600599
O O4 0.149493 0.653928 0.710668
O O5 0.154641 0.663962 0.942502
O O6 0.167440 0.832561 0.000000
O O7 0.000000 0.742167 0.000000
O O8 0.500000 0.152080 0.500000
O O9 0.500000 0.000000 0.425347
O O10 0.831086 0.168915 0.759763
O O11 0.845718 0.327871 0.825492
O O12 0.000000 0.259072 0.763235
O O13 0.835945 0.500000 0.119758
O O14 0.000000 0.396085 0.117423
#
# Coordination Sequence:
#
# PCOD8312382 Si02
#       5
#    16   8   8  16  16
#     4   9  19  32  49  73  98 129 165 202 245 293
#     4  10  19  30  43  63  92 122 155 195 240 295
#     4   9  18  32  51  73  99 132 165 199 241 289
#     4  10  19  31  48  71  98 129 165 202 243 294
#     4   9  17  29  46  65  86 117 155 197 244 287
#
# _framework density 15.779379
#
# number of rings (size 3 to 8) (size 9 to 14) (size 15 to 20)
#    0.750    1.875    0.000    2.625    0.000    3.625 
#    0.000    0.000    0.000    5.250    0.000    0.000 
#    0.000   19.000    0.000   23.250    0.000    0.000 
#
# Total GULP energy -793280.350050 kJ/mol
# GULP energy per Si atom -12395.005470 kJ/mol
# Density = 1.574346 g / cm^3
# Si number density = 15.779379 Si / 1000 Ang^3
#
#
#
# Elastic Constant Matrix: (Units=GPa)
#
#
# Indices 1 2 3 4 5 6 
#
# 1 92.1350 53.3712 54.0803 0.0000 0.0000 0.0000
# 2 53.3712 92.1338 54.0801 0.0000 0.0000 0.0000
# 3 54.0803 54.0801 144.8433 0.0000 0.0000 0.0000
# 4 0.0000 0.0000 0.0000 18.7420 0.0000 0.0000
# 5 0.0000 0.0000 0.0000 0.0000 18.7427 0.0000
# 6 0.0000 0.0000 0.0000 0.0000 0.0000 13.5903
#
#
#
# Elastic Compliance Matrix: (Units=1/GPa)
#
#
# Indices 1 2 3 4 5 6 
#
# 1 0.017655 -0.008142 -0.003552 0.000000 0.000000 0.000000
# 2 -0.008142 0.017655 -0.003552 0.000000 0.000000 0.000000
# 3 -0.003552 -0.003552 0.009556 0.000000 0.000000 0.000000
# 4 0.000000 0.000000 0.000000 0.053356 0.000000 0.000000
# 5 0.000000 0.000000 0.000000 0.000000 0.053354 0.000000
# 6 0.000000 0.000000 0.000000 0.000000 0.000000 0.073582
#
#
# Mechanical properties :
#
#
# Convention : Reuss Voigt Hill
#
# Bulk Modulus (GPa) = 69.56680 72.46395 71.01537
# Shear Modulus (GPa) = 19.19809 21.38703 20.29256
#
# Velocity S-wave (km/s) = 3.49185 3.68554 3.59000
# Velocity P-wave (km/s) = 7.77433 8.00836 7.89221
#
# Compressibility (1/GPa) = 0.01437467
#
# Stress axis : x y z
#
# Youngs Moduli (GPa) = 56.64088 56.64006 104.64320
#
# Poissons Ratio (x) = 0.46119 0.37167
# Poissons Ratio (y) = 0.46120 0.37167
# Poissons Ratio (z) = 0.20117 0.20118
#
# Static dielectric constant tensor:
#      x y z
#    x 2.851540 0.000000 0.000000 
#    y 0.000000 2.851540 0.000000 
#    z 0.000000 0.000000 3.123560 
# 
# 
# High freq. dielectric constant tensor:
#      x y z
#    x 1.593530 0.000000 0.000000 
#    y 0.000000 1.593530 0.000000 
#    z 0.000000 0.000000 1.615110 
# 
# From -- ./inp_files/6226.got.cif
#   From: 2010.03.12/outbox.cif.g09.slc.cpg/sg123_4_cif.got.tgz:6226.got - 2010.04.06 16:26:55.
