data_PCOD8312688
_publ_section_title
;
Structure prediction by ZEFSAII (Michael W. Deem and Ramdas Pophale) SiO2 
 PCOD8312688
Probable space group: P 4/M M M
;
_chemical_formula_sum "Si O2"
_cell_formula_units_Z 96
_cell_length_a 24.997640
_cell_length_b 24.997640
_cell_length_c 9.155535
_cell_angle_alpha 90.000000
_cell_angle_beta 90.000000
_cell_angle_gamma 90.000000
_cell_volume 5721.129073
_symmetry_space_group_name_H-M "P 4/M M M"
_symmetry_group_IT_number 123
_symmetry_cell_setting 'tetragonal'
loop_
_space_group_symop_operation_xyz
x,y,z
-y,x,z
-x,-y,z
y,-x,z
x,-y,-z
-x,y,-z
y,x,-z
-y,-x,-z
-x,-y,-z
y,-x,-z
x,y,-z
-y,x,-z
-x,y,z
x,-y,z
-y,-x,z
y,x,z
loop_
_atom_site_type_symbol
_atom_site_label
_atom_site_fract_x
_atom_site_fract_y
_atom_site_fract_z
Si Si1 0.647672 0.561180 0.669906
Si Si2 0.436816 0.856976 0.668313
Si Si3 0.635374 0.936926 0.831586
Si Si4 0.738241 0.063468 0.662021
Si Si5 0.436392 0.752478 0.834991
Si Si6 0.144179 0.059727 0.325798
O O1 0.662157 0.565784 0.500000
O O2 0.634571 0.500000 0.712856
O O3 0.595843 0.595843 0.711258
O O4 0.698269 0.584014 0.758706
O O5 0.419697 0.854391 0.500000
O O6 0.500000 0.862003 0.686461
O O7 0.411890 0.909067 0.742838
O O8 0.414520 0.803699 0.747055
O O9 0.692577 0.916115 0.771905
O O10 0.628774 0.000000 0.807927
O O11 0.631195 0.920794 0.000000
O O12 0.727461 0.087396 0.500000
O O13 0.796843 0.080699 0.721431
O O14 0.737719 0.000000 0.651544
O O15 0.500000 0.753099 0.831699
O O16 0.414364 0.754669 0.000000
O O17 0.141746 0.058469 0.500000
O O18 0.099785 0.099785 0.260185
O O19 0.132949 0.000000 0.264486
#
# Coordination Sequence:
#
# PCOD8312688 Si02
#       6
#    16  16  16  16  16  16
#     4   9  17  29  46  69  97 128 161 196 233 274
#     4  10  20  33  50  71  94 120 149 182 223 273
#     4  10  20  32  47  68  93 120 150 186 227 269
#     4   8  14  26  43  61  84 117 155 190 223 264
#     4   9  17  30  48  68  91 121 157 194 230 270
#     4   8  13  21  36  61  91 121 152 186 225 268
#
# _framework density 16.779903000000001
#
# number of rings (size 3 to 8) (size 9 to 14) (size 15 to 20)
#    0.000    3.000    0.000    2.500    0.000    5.000 
#    0.000    3.333    0.000    1.500    0.000    4.667 
#    0.000    0.000    0.000    6.500    0.000    6.667 
#
# Total GULP energy -1190118.109245 kJ/mol
# GULP energy per Si atom -12397.063638 kJ/mol
# Density = 1.674171 g / cm^3
# Si number density = 16.779903 Si / 1000 Ang^3
#
#
#
# Elastic Constant Matrix: (Units=GPa)
#
#
# Indices 1 2 3 4 5 6 
#
# 1 75.7830 47.4099 50.7600 0.0000 0.0000 0.0000
# 2 47.4099 75.7830 50.7600 0.0000 0.0000 0.0000
# 3 50.7600 50.7600 101.5883 0.0000 0.0000 0.0000
# 4 0.0000 0.0000 0.0000 18.8077 0.0000 0.0000
# 5 0.0000 0.0000 0.0000 0.0000 18.8077 0.0000
# 6 0.0000 0.0000 0.0000 0.0000 0.0000 5.8057
#
#
#
# Elastic Compliance Matrix: (Units=1/GPa)
#
#
# Indices 1 2 3 4 5 6 
#
# 1 0.024522 -0.010723 -0.006895 0.000000 0.000000 0.000000
# 2 -0.010723 0.024522 -0.006895 0.000000 0.000000 0.000000
# 3 -0.006895 -0.006895 0.016734 0.000000 0.000000 0.000000
# 4 0.000000 0.000000 0.000000 0.053170 0.000000 0.000000
# 5 0.000000 0.000000 0.000000 0.000000 0.053170 0.000000
# 6 0.000000 0.000000 0.000000 0.000000 0.000000 0.172243
#
#
# Mechanical properties :
#
#
# Convention : Reuss Voigt Hill
#
# Bulk Modulus (GPa) = 59.69216 61.22381 60.45798
# Shear Modulus (GPa) = 12.53227 15.63254 14.08240
#
# Velocity S-wave (km/s) = 2.73584 3.05556 2.90011
# Velocity P-wave (km/s) = 6.75504 7.00101 6.87913
#
# Compressibility (1/GPa) = 0.01675262
#
# Stress axis : x y z
#
# Youngs Moduli (GPa) = 40.77974 40.77974 59.75824
#
# Poissons Ratio (x) = 0.43726 0.41204
# Poissons Ratio (y) = 0.43726 0.41204
# Poissons Ratio (z) = 0.28118 0.28118
#
# Static dielectric constant tensor:
#      x y z
#    x 3.149700 0.000000 0.000000 
#    y 0.000000 3.149700 0.000000 
#    z 0.000000 0.000000 3.153410 
# 
# 
# High freq. dielectric constant tensor:
#      x y z
#    x 1.630240 0.000000 0.000000 
#    y 0.000000 1.630240 0.000000 
#    z 0.000000 0.000000 1.637440 
# 
# From -- ./inp_files/1636.got.cif
#   From: 2010.03.12/outbox.cif.g09.slc.cpg/sg123_1_cif.got.tgz:1636.got - 2010.04.06 16:26:55.
