data_PCOD8312864
_publ_section_title
;
Structure prediction by ZEFSAII (Michael W. Deem and Ramdas Pophale) SiO2 
 PCOD8312864
Probable space group: P 4/M M M
;
_chemical_formula_sum "Si O2"
_cell_formula_units_Z 104
_cell_length_a 26.110381
_cell_length_b 26.110381
_cell_length_c 9.388502
_cell_angle_alpha 90.000000
_cell_angle_beta 90.000000
_cell_angle_gamma 90.000000
_cell_volume 6400.629978
_symmetry_space_group_name_H-M "P 4/M M M"
_symmetry_group_IT_number 123
_symmetry_cell_setting 'tetragonal'
loop_
_space_group_symop_operation_xyz
x,y,z
-y,x,z
-x,-y,z
y,-x,z
x,-y,-z
-x,y,-z
y,x,-z
-y,-x,-z
-x,-y,-z
y,-x,-z
x,y,-z
-y,x,-z
-x,y,z
x,-y,z
-y,-x,z
y,x,z
loop_
_atom_site_type_symbol
_atom_site_label
_atom_site_fract_x
_atom_site_fract_y
_atom_site_fract_z
Si Si1 0.560095 0.000000 0.841631
Si Si2 0.442158 0.359575 0.661584
Si Si3 0.734445 0.944632 0.331215
Si Si4 0.166797 0.751529 0.669972
Si Si5 0.441525 0.741399 0.168118
Si Si6 0.925517 0.380191 0.340962
Si Si7 0.362680 0.190965 0.660894
O O1 0.577757 0.051165 0.762456
O O2 0.500000 0.000000 0.845854
O O3 0.583180 0.000000 0.000000
O O4 0.431590 0.340547 0.500000
O O5 0.500000 0.379128 0.677647
O O6 0.406719 0.406719 0.704271
O O7 0.430367 0.314392 0.770504
O O8 0.739044 0.943244 0.500000
O O9 0.760937 0.891969 0.272634
O O10 0.675387 0.942752 0.285511
O O11 0.757324 0.000000 0.275314
O O12 0.165780 0.751834 0.500000
O O13 0.203383 0.796618 0.730177
O O14 0.188960 0.696152 0.718204
O O15 0.500000 0.758581 0.207045
O O16 0.398687 0.777699 0.234394
O O17 0.433709 0.740431 0.000000
O O18 0.946710 0.389029 0.500000
O O19 0.865102 0.386416 0.339521
O O20 0.364050 0.213779 0.500000
#
# Coordination Sequence:
#
# PCOD8312864 Si02
#       7
#     8  16  16  16  16  16  16
#     4  11  23  33  41  59  87 113 139 183 238 279
#     4   9  18  33  53  75  96 117 143 179 223 271
#     4   8  12  21  41  63  82 109 144 180 217 259
#     4   8  14  24  39  64  95 118 140 180 232 276
#     4  10  21  35  49  66  91 122 153 187 226 270
#     4   9  17  31  48  63  81 109 148 189 227 270
#     4   9  18  31  49  70  89 116 153 191 233 277
#
# _framework density 16.2484
#
# number of rings (size 3 to 8) (size 9 to 14) (size 15 to 20)
#    0.000    3.000    0.769    2.538    0.000    3.846 
#    0.000    5.385    0.000    0.000    0.000    2.154 
#    0.000    0.308    0.000    4.308    0.000    0.000 
#
# Total GULP energy -1288528.224878 kJ/mol
# GULP energy per Si atom -12389.694470 kJ/mol
# Density = 1.621142 g / cm^3
# Si number density = 16.248400 Si / 1000 Ang^3
#
#
#
# Elastic Constant Matrix: (Units=GPa)
#
#
# Indices 1 2 3 4 5 6 
#
# 1 102.3894 69.7811 37.0055 0.0000 0.0000 0.0000
# 2 69.7811 102.3894 37.0055 0.0000 0.0000 0.0000
# 3 37.0055 37.0055 55.6222 0.0000 0.0000 0.0000
# 4 0.0000 0.0000 0.0000 2.6914 0.0000 0.0000
# 5 0.0000 0.0000 0.0000 0.0000 2.6914 0.0000
# 6 0.0000 0.0000 0.0000 0.0000 0.0000 21.5045
#
#
#
# Elastic Compliance Matrix: (Units=1/GPa)
#
#
# Indices 1 2 3 4 5 6 
#
# 1 0.019401 -0.011266 -0.005412 0.000000 0.000000 0.000000
# 2 -0.011266 0.019401 -0.005412 0.000000 0.000000 0.000000
# 3 -0.005412 -0.005412 0.025180 0.000000 0.000000 0.000000
# 4 0.000000 0.000000 0.000000 0.371559 0.000000 0.000000
# 5 0.000000 0.000000 0.000000 0.000000 0.371559 0.000000
# 6 0.000000 0.000000 0.000000 0.000000 0.000000 0.046502
#
#
# Mechanical properties :
#
#
# Convention : Reuss Voigt Hill
#
# Bulk Modulus (GPa) = 50.50258 60.88725 55.69491
# Shear Modulus (GPa) = 5.52864 13.15138 9.34001
#
# Velocity S-wave (km/s) = 1.84661 2.84807 2.40016
# Velocity P-wave (km/s) = 5.97458 6.95482 6.48325
#
# Compressibility (1/GPa) = 0.01980097
#
# Stress axis : x y z
#
# Youngs Moduli (GPa) = 51.54419 51.54419 39.71466
#
# Poissons Ratio (x) = 0.58071 0.21494
# Poissons Ratio (y) = 0.58071 0.21494
# Poissons Ratio (z) = 0.27896 0.27896
#
# Static dielectric constant tensor:
#      x y z
#    x 3.197290 0.000000 0.000000 
#    y 0.000000 3.197290 0.000000 
#    z 0.000000 0.000000 2.856040 
# 
# 
# High freq. dielectric constant tensor:
#      x y z
#    x 1.617090 0.000000 0.000000 
#    y 0.000000 1.617090 0.000000 
#    z 0.000000 0.000000 1.593150 
# 
# From -- ./inp_files/1917.got.cif
#   From: 2010.03.12/outbox.cif.g09.slc.cpg/sg123_1_cif.got.tgz:1917.got - 2010.04.06 16:26:55.
