data_PCOD8312540
_publ_section_title
;
Structure prediction by ZEFSAII (Michael W. Deem and Ramdas Pophale) SiO2 
 PCOD8312540
Probable space group: P 4/M M M
;
_chemical_formula_sum "Si O2"
_cell_formula_units_Z 128
_cell_length_a 17.744735
_cell_length_b 17.744735
_cell_length_c 23.732984
_cell_angle_alpha 90.000000
_cell_angle_beta 90.000000
_cell_angle_gamma 90.000000
_cell_volume 7472.938057
_symmetry_space_group_name_H-M "P 4/M M M"
_symmetry_group_IT_number 123
_symmetry_cell_setting 'tetragonal'
loop_
_space_group_symop_operation_xyz
x,y,z
-y,x,z
-x,-y,z
y,-x,z
x,-y,-z
-x,y,-z
y,x,-z
-y,-x,-z
-x,-y,-z
y,-x,-z
x,y,-z
-y,x,-z
-x,y,z
x,-y,z
-y,-x,z
y,x,z
loop_
_atom_site_type_symbol
_atom_site_label
_atom_site_fract_x
_atom_site_fract_y
_atom_site_fract_z
Si Si1 0.586134 0.708173 0.934546
Si Si2 0.208426 0.085013 0.674442
Si Si3 0.791634 0.086223 0.065422
Si Si4 0.583693 0.216657 0.562943
Si Si5 0.735924 0.857390 0.437378
Si Si6 0.293772 0.414599 0.323794
Si Si7 0.313543 0.187016 0.741089
Si Si8 0.813261 0.313461 0.131874
O O1 0.500000 0.690506 0.918841
O O2 0.634302 0.634302 0.918170
O O3 0.613222 0.781311 0.899929
O O4 0.595954 0.727780 0.000000
O O5 0.134629 0.134629 0.687272
O O6 0.229579 0.085892 0.608205
O O7 0.280193 0.114047 0.709788
O O8 0.189996 0.000000 0.692546
O O9 0.865669 0.134332 0.081569
O O10 0.718782 0.113167 0.100484
O O11 0.809387 0.000000 0.080897
O O12 0.771643 0.096225 0.000000
O O13 0.594262 0.251290 0.500000
O O14 0.500000 0.179970 0.568919
O O15 0.646645 0.152615 0.572956
O O16 0.592589 0.282420 0.608948
O O17 0.751494 0.890089 0.500000
O O18 0.775384 0.775384 0.429931
O O19 0.309022 0.500000 0.305069
O O20 0.366262 0.366262 0.305667
O O21 0.218334 0.386172 0.292047
O O22 0.250997 0.250997 0.740606
O O23 0.336284 0.164826 0.804576
O O24 0.750050 0.249951 0.130462
#
# Coordination Sequence:
#
# PCOD8312540 Si02
#       8
#    16  16  16  16  16  16  16  16
#     4   9  17  29  47  73 103 133 165 202 245 290
#     4  10  20  34  52  74  99 124 154 194 241 295
#     4   9  17  29  47  73 103 132 160 191 230 277
#     4   9  16  26  45  72  98 125 160 202 243 282
#     4   9  16  28  48  70  94 127 166 202 236 285
#     4  10  19  31  48  70  98 129 162 201 242 285
#     4   9  18  33  50  68  90 123 167 206 238 277
#     4   9  17  30  49  69  92 125 166 206 239 275
#
# _framework density 17.128471000000001
#
# number of rings (size 3 to 8) (size 9 to 14) (size 15 to 20)
#    0.000    2.750    1.250    0.750    0.000    4.000 
#    0.000    1.250    0.000    1.875    0.000   15.750 
#    0.000    0.000    0.000    0.000    0.000    0.000 
#
# Total GULP energy -1586813.780376 kJ/mol
# GULP energy per Si atom -12396.982659 kJ/mol
# Density = 1.708949 g / cm^3
# Si number density = 17.128471 Si / 1000 Ang^3
#
#
#
# Elastic Constant Matrix: (Units=GPa)
#
#
# Indices 1 2 3 4 5 6 
#
# 1 90.1290 52.5442 42.0542 0.0000 0.0000 0.0000
# 2 52.5442 90.1290 42.0542 0.0000 0.0000 0.0000
# 3 42.0542 42.0542 93.7886 0.0000 0.0000 0.0000
# 4 0.0000 0.0000 0.0000 15.6686 0.0000 0.0000
# 5 0.0000 0.0000 0.0000 0.0000 15.6686 0.0000
# 6 0.0000 0.0000 0.0000 0.0000 0.0000 15.8893
#
#
#
# Elastic Compliance Matrix: (Units=1/GPa)
#
#
# Indices 1 2 3 4 5 6 
#
# 1 0.018067 -0.008539 -0.004272 0.000000 0.000000 0.000000
# 2 -0.008539 0.018067 -0.004272 0.000000 0.000000 0.000000
# 3 -0.004272 -0.004272 0.014493 0.000000 0.000000 0.000000
# 4 0.000000 0.000000 0.000000 0.063822 0.000000 0.000000
# 5 0.000000 0.000000 0.000000 0.000000 0.063822 0.000000
# 6 0.000000 0.000000 0.000000 0.000000 0.000000 0.062935
#
#
# Mechanical properties :
#
#
# Convention : Reuss Voigt Hill
#
# Bulk Modulus (GPa) = 60.75290 60.81688 60.78489
# Shear Modulus (GPa) = 17.80242 18.60489 18.20365
#
# Velocity S-wave (km/s) = 3.22739 3.29933 3.26355
# Velocity P-wave (km/s) = 7.03093 7.07796 7.05448
#
# Compressibility (1/GPa) = 0.01646012
#
# Stress axis : x y z
#
# Youngs Moduli (GPa) = 55.34958 55.34958 68.99689
#
# Poissons Ratio (x) = 0.47266 0.29476
# Poissons Ratio (y) = 0.47266 0.29476
# Poissons Ratio (z) = 0.23646 0.23646
#
# Static dielectric constant tensor:
#      x y z
#    x 3.007240 0.000000 0.000000 
#    y 0.000000 3.007240 0.000000 
#    z 0.000000 0.000000 3.386810 
# 
# 
# High freq. dielectric constant tensor:
#      x y z
#    x 1.636290 0.000000 0.000000 
#    y 0.000000 1.636290 0.000000 
#    z 0.000000 0.000000 1.668960 
# 
# From -- ./inp_files/7668.got.cif
#   From: 2010.03.12/outbox.cif.g09.slc.cpg/sg123_4_cif.got.tgz:7668.got - 2010.04.06 16:26:55.
