data_PCOD8312929
_publ_section_title
;
Structure prediction by ZEFSAII (Michael W. Deem and Ramdas Pophale) SiO2 
 PCOD8312929
Probable space group: P 4/M M M
;
_chemical_formula_sum "Si O2"
_cell_formula_units_Z 56
_cell_length_a 17.994483
_cell_length_b 17.994483
_cell_length_c 8.807940
_cell_angle_alpha 90.000000
_cell_angle_beta 90.000000
_cell_angle_gamma 90.000000
_cell_volume 2852.023466
_symmetry_space_group_name_H-M "P 4/M M M"
_symmetry_group_IT_number 123
_symmetry_cell_setting 'tetragonal'
loop_
_space_group_symop_operation_xyz
x,y,z
-y,x,z
-x,-y,z
y,-x,z
x,-y,-z
-x,y,-z
y,x,-z
-y,-x,-z
-x,-y,-z
y,-x,-z
x,y,-z
-y,x,-z
-x,y,z
x,-y,z
-y,-x,z
y,x,z
loop_
_atom_site_type_symbol
_atom_site_label
_atom_site_fract_x
_atom_site_fract_y
_atom_site_fract_z
Si Si1 0.584211 0.704652 0.323486
Si Si2 0.000000 0.583132 0.180474
Si Si3 0.154172 0.348101 0.820031
Si Si4 0.192774 0.192774 0.676485
Si Si5 0.085945 0.085945 0.171060
O O1 0.597975 0.721162 0.500000
O O2 0.500000 0.677448 0.293774
O O3 0.640167 0.640167 0.266117
O O4 0.596955 0.780579 0.232366
O O5 0.925658 0.623504 0.240043
O O6 0.000000 0.500000 0.246372
O O7 0.000000 0.581706 0.000000
O O8 0.165931 0.267923 0.751266
O O9 0.155426 0.343216 0.000000
O O10 0.205955 0.205955 0.500000
O O11 0.130795 0.130795 0.703551
O O12 0.000000 0.103353 0.196379
O O13 0.109402 0.109402 0.000000
#
# Coordination Sequence:
#
# PCOD8312929 Si02
#       5
#    16   8  16   8   8
#     4  10  21  38  60  87 122 162 200 244 300 362
#     4   9  20  38  61  91 122 151 190 243 299 356
#     4  11  22  39  63  89 117 158 205 250 302 358
#     4  12  25  39  57  86 123 159 200 247 300 360
#     4   9  20  40  64  88 116 153 199 247 294 349
#
# _framework density 19.635182
#
# number of rings (size 3 to 8) (size 9 to 14) (size 15 to 20)
#    0.000    1.714    1.429    3.429    2.000    2.571 
#    0.000    4.286    0.000    5.143    0.000    2.000 
#    0.000    0.000    0.000    0.000    0.000    0.000 
#
# Total GULP energy -694548.998476 kJ/mol
# GULP energy per Si atom -12402.660687 kJ/mol
# Density = 1.959049 g / cm^3
# Si number density = 19.635182 Si / 1000 Ang^3
#
#
#
# Elastic Constant Matrix: (Units=GPa)
#
#
# Indices 1 2 3 4 5 6 
#
# 1 147.8673 94.3869 43.6719 0.0000 0.0000 0.0000
# 2 94.3869 147.8673 43.6719 0.0000 0.0000 0.0000
# 3 43.6719 43.6719 65.1492 0.0000 0.0000 0.0000
# 4 0.0000 0.0000 0.0000 16.2828 0.0000 0.0000
# 5 0.0000 0.0000 0.0000 0.0000 16.2828 0.0000
# 6 0.0000 0.0000 0.0000 0.0000 0.0000 36.1111
#
#
#
# Elastic Compliance Matrix: (Units=1/GPa)
#
#
# Indices 1 2 3 4 5 6 
#
# 1 0.012071 -0.006627 -0.003649 0.000000 0.000000 0.000000
# 2 -0.006627 0.012071 -0.003649 0.000000 0.000000 0.000000
# 3 -0.003649 -0.003649 0.020241 0.000000 0.000000 0.000000
# 4 0.000000 0.000000 0.000000 0.061414 0.000000 0.000000
# 5 0.000000 0.000000 0.000000 0.000000 0.061414 0.000000
# 6 0.000000 0.000000 0.000000 0.000000 0.000000 0.027692
#
#
# Mechanical properties :
#
#
# Convention : Reuss Voigt Hill
#
# Bulk Modulus (GPa) = 60.48668 80.48280 70.48474
# Shear Modulus (GPa) = 21.90425 25.67890 23.79157
#
# Velocity S-wave (km/s) = 3.34363 3.62028 3.48470
# Velocity P-wave (km/s) = 6.76599 7.65201 7.22260
#
# Compressibility (1/GPa) = 0.01653256
#
# Stress axis : x y z
#
# Youngs Moduli (GPa) = 82.84334 82.84334 49.40351
#
# Poissons Ratio (x) = 0.54904 0.18027
# Poissons Ratio (y) = 0.54904 0.18027
# Poissons Ratio (z) = 0.30229 0.30229
#
# Static dielectric constant tensor:
#      x y z
#    x 3.732360 0.000000 0.000000 
#    y 0.000000 3.732360 0.000000 
#    z 0.000000 0.000000 3.471790 
# 
# 
# High freq. dielectric constant tensor:
#      x y z
#    x 1.777900 0.000000 0.000000 
#    y 0.000000 1.777900 0.000000 
#    z 0.000000 0.000000 1.748280 
# 
# From -- ./inp_files/629.got.cif
#   From: 2010.03.12/outbox.cif.g09.slc.cpg/sg123_1_cif.got.tgz:629.got - 2010.04.06 16:26:55.
