data_PCOD8312635
_publ_section_title
;
Structure prediction by ZEFSAII (Michael W. Deem and Ramdas Pophale) SiO2 
 PCOD8312635
Probable space group: P 4/M M M
;
_chemical_formula_sum "Si O2"
_cell_formula_units_Z 60
_cell_length_a 18.337769
_cell_length_b 18.337769
_cell_length_c 11.491301
_cell_angle_alpha 90.000000
_cell_angle_beta 90.000000
_cell_angle_gamma 90.000000
_cell_volume 3864.223131
_symmetry_space_group_name_H-M "P 4/M M M"
_symmetry_group_IT_number 123
_symmetry_cell_setting 'tetragonal'
loop_
_space_group_symop_operation_xyz
x,y,z
-y,x,z
-x,-y,z
y,-x,z
x,-y,-z
-x,y,-z
y,x,-z
-y,-x,-z
-x,-y,-z
y,-x,-z
x,y,-z
-y,x,-z
-x,y,z
x,-y,z
-y,-x,z
y,x,z
loop_
_atom_site_type_symbol
_atom_site_label
_atom_site_fract_x
_atom_site_fract_y
_atom_site_fract_z
Si Si1 0.416879 0.786029 0.865263
Si Si2 0.581739 0.081790 0.709930
Si Si3 0.421522 0.421522 0.366034
Si Si4 0.691457 0.691457 0.286817
Si Si5 0.229472 0.770529 0.500000
Si Si6 0.688037 0.085297 0.500000
O O1 0.500000 0.758051 0.843677
O O2 0.408979 0.869221 0.823978
O O3 0.357882 0.741234 0.794298
O O4 0.396429 0.781490 0.000000
O O5 0.500000 0.090039 0.657473
O O6 0.638976 0.104044 0.611270
O O7 0.596453 0.000000 0.752374
O O8 0.500000 0.397675 0.310549
O O9 0.434003 0.434003 0.500000
O O10 0.361239 0.361239 0.354929
O O11 0.736674 0.736674 0.382267
O O12 0.243740 0.858271 0.500000
O O13 0.713891 0.000000 0.500000
#
# Coordination Sequence:
#
# PCOD8312635 Si02
#       6
#    16  16   8   8   4   8
#     4  10  21  34  48  67  94 132 170 204 243 284
#     4   9  17  30  49  72  99 131 161 193 238 293
#     4   9  18  31  45  63  89 121 157 201 255 298
#     4  12  20  34  47  71  95 123 161 214 249 296
#     4  12  22  32  52  82  96 124 160 190 258 310
#     4  10  19  34  51  74 105 128 155 197 243 299
#
# _framework density 15.527054
#
# number of rings (size 3 to 8) (size 9 to 14) (size 15 to 20)
#    0.000    2.000    3.333    2.000    0.000    2.133 
#    0.000    2.667    0.000    0.200    0.000    5.600 
#    0.000    0.000    0.000    0.000    0.000    8.133 
#
# Total GULP energy -743472.534140 kJ/mol
# GULP energy per Si atom -12391.208902 kJ/mol
# Density = 1.549171 g / cm^3
# Si number density = 15.527054 Si / 1000 Ang^3
#
#
#
# Elastic Constant Matrix: (Units=GPa)
#
#
# Indices 1 2 3 4 5 6 
#
# 1 85.8085 50.3307 38.0191 0.0000 0.0000 0.0000
# 2 50.3307 85.8091 38.0190 0.0000 0.0000 0.0000
# 3 38.0191 38.0190 86.9404 0.0000 0.0000 0.0000
# 4 0.0000 0.0000 0.0000 21.5816 0.0000 0.0000
# 5 0.0000 0.0000 0.0000 0.0000 21.5816 0.0000
# 6 0.0000 0.0000 0.0000 0.0000 0.0000 25.5645
#
#
#
# Elastic Compliance Matrix: (Units=1/GPa)
#
#
# Indices 1 2 3 4 5 6 
#
# 1 0.018953 -0.009234 -0.004250 0.000000 0.000000 0.000000
# 2 -0.009234 0.018953 -0.004250 0.000000 0.000000 0.000000
# 3 -0.004250 -0.004250 0.015219 0.000000 0.000000 0.000000
# 4 0.000000 0.000000 0.000000 0.046336 0.000000 0.000000
# 5 0.000000 0.000000 0.000000 0.000000 0.046336 0.000000
# 6 0.000000 0.000000 0.000000 0.000000 0.000000 0.039117
#
#
# Mechanical properties :
#
#
# Convention : Reuss Voigt Hill
#
# Bulk Modulus (GPa) = 56.63475 56.81062 56.72268
# Shear Modulus (GPa) = 22.09777 22.55816 22.32797
#
# Velocity S-wave (km/s) = 3.77660 3.81574 3.79622
# Velocity P-wave (km/s) = 7.45459 7.48870 7.47167
#
# Compressibility (1/GPa) = 0.01765700
#
# Stress axis : x y z
#
# Youngs Moduli (GPa) = 52.76226 52.76272 65.70564
#
# Poissons Ratio (x) = 0.48719 0.27927
# Poissons Ratio (y) = 0.48718 0.27926
# Poissons Ratio (z) = 0.22426 0.22425
#
# Static dielectric constant tensor:
#      x y z
#    x 2.988390 0.000000 0.000000 
#    y 0.000000 2.988380 0.000000 
#    z 0.000000 0.000000 2.873180 
# 
# 
# High freq. dielectric constant tensor:
#      x y z
#    x 1.587530 0.000000 0.000000 
#    y 0.000000 1.587530 0.000000 
#    z 0.000000 0.000000 1.590030 
# 
# From -- ./inp_files/2686.got.cif
#   From: 2010.03.12/outbox.cif.g09.slc.cpg/sg123_2_cif.got.tgz:2686.got - 2010.04.06 16:26:55.
