data_PCOD8312851
_publ_section_title
;
Structure prediction by ZEFSAII (Michael W. Deem and Ramdas Pophale) SiO2 
 PCOD8312851
Probable space group: P 4/M M M
;
_chemical_formula_sum "Si O2"
_cell_formula_units_Z 72
_cell_length_a 22.890624
_cell_length_b 22.890624
_cell_length_c 7.479755
_cell_angle_alpha 90.000000
_cell_angle_beta 90.000000
_cell_angle_gamma 90.000000
_cell_volume 3919.247015
_symmetry_space_group_name_H-M "P 4/M M M"
_symmetry_group_IT_number 123
_symmetry_cell_setting 'tetragonal'
loop_
_space_group_symop_operation_xyz
x,y,z
-y,x,z
-x,-y,z
y,-x,z
x,-y,-z
-x,y,-z
y,x,-z
-y,-x,-z
-x,-y,-z
y,-x,-z
x,y,-z
-y,x,-z
-x,y,z
x,-y,z
-y,-x,z
y,x,z
loop_
_atom_site_type_symbol
_atom_site_label
_atom_site_fract_x
_atom_site_fract_y
_atom_site_fract_z
Si Si1 0.251548 0.067199 0.294296
Si Si2 0.634443 0.728565 0.296137
Si Si3 0.568088 0.336363 0.000000
Si Si4 0.863708 0.365388 0.203559
Si Si5 0.568797 0.066653 0.500000
Si Si6 0.066767 0.160220 0.000000
O O1 0.236954 0.080073 0.500000
O O2 0.302696 0.107862 0.225534
O O3 0.270074 0.000000 0.263725
O O4 0.195423 0.083385 0.178355
O O5 0.615497 0.718149 0.500000
O O6 0.696039 0.696039 0.253628
O O7 0.583604 0.701574 0.174533
O O8 0.641231 0.796768 0.259758
O O9 0.500000 0.350974 0.000000
O O10 0.602447 0.397554 0.000000
O O11 0.898651 0.411094 0.324798
O O12 0.868426 0.387309 0.000000
O O13 0.500000 0.064640 0.500000
O O14 0.594088 0.000000 0.500000
O O15 0.100161 0.100161 0.000000
O O16 0.000000 0.142471 0.000000
#
# Coordination Sequence:
#
# PCOD8312851 Si02
#       6
#    16  16   8  16   8   8
#     4  10  20  36  59  84 112 148 193 243 291 342
#     4  10  21  39  60  87 123 156 191 237 290 346
#     4  10  22  40  63  91 122 156 192 236 287 338
#     4  12  22  37  62  91 114 156 196 240 294 348
#     4  11  26  44  59  82 120 160 201 246 286 335
#     4  10  22  38  57  85 116 148 190 238 291 354
#
# _framework density 18.370877
#
# number of rings (size 3 to 8) (size 9 to 14) (size 15 to 20)
#    0.000    1.444    4.444    0.667    0.000    4.667 
#    0.000    1.111    0.000    0.000    0.000    6.222 
#    0.000    0.000    0.000    0.000    0.000    0.000 
#
# Total GULP energy -892951.053880 kJ/mol
# GULP energy per Si atom -12402.097971 kJ/mol
# Density = 1.832906 g / cm^3
# Si number density = 18.370877 Si / 1000 Ang^3
#
#
#
# Elastic Constant Matrix: (Units=GPa)
#
#
# Indices 1 2 3 4 5 6 
#
# 1 111.3320 57.1833 43.9581 0.0000 0.0000 0.0000
# 2 57.1833 111.3324 43.9584 0.0000 0.0000 0.0000
# 3 43.9581 43.9584 149.6057 0.0000 0.0000 0.0000
# 4 0.0000 0.0000 0.0000 32.2837 0.0000 0.0000
# 5 0.0000 0.0000 0.0000 0.0000 32.2838 0.0000
# 6 0.0000 0.0000 0.0000 0.0000 0.0000 33.0917
#
#
#
# Elastic Compliance Matrix: (Units=1/GPa)
#
#
# Indices 1 2 3 4 5 6 
#
# 1 0.012738 -0.005730 -0.002059 0.000000 0.000000 0.000000
# 2 -0.005730 0.012738 -0.002059 0.000000 0.000000 0.000000
# 3 -0.002059 -0.002059 0.007894 0.000000 0.000000 0.000000
# 4 0.000000 0.000000 0.000000 0.030975 0.000000 0.000000
# 5 0.000000 0.000000 0.000000 0.000000 0.030975 0.000000
# 6 0.000000 0.000000 0.000000 0.000000 0.000000 0.030219
#
#
# Mechanical properties :
#
#
# Convention : Reuss Voigt Hill
#
# Bulk Modulus (GPa) = 73.13007 73.60774 73.36890
# Shear Modulus (GPa) = 33.37903 34.67652 34.02778
#
# Velocity S-wave (km/s) = 4.26720 4.34934 4.30847
# Velocity P-wave (km/s) = 8.01078 8.08560 8.04828
#
# Compressibility (1/GPa) = 0.01367427
#
# Stress axis : x y z
#
# Youngs Moduli (GPa) = 78.50474 78.50489 126.67219
#
# Poissons Ratio (x) = 0.44980 0.26085
# Poissons Ratio (y) = 0.44980 0.26086
# Poissons Ratio (z) = 0.16166 0.16167
#
# Static dielectric constant tensor:
#      x y z
#    x 3.318860 0.000000 0.000000 
#    y 0.000000 3.318860 0.000000 
#    z 0.000000 0.000000 3.922100 
# 
# 
# High freq. dielectric constant tensor:
#      x y z
#    x 1.707040 0.000000 0.000000 
#    y 0.000000 1.707040 0.000000 
#    z 0.000000 0.000000 1.734940 
# 
# From -- ./inp_files/1188.got.cif
#   From: 2010.03.12/outbox.cif.g09.slc.cpg/sg123_1_cif.got.tgz:1188.got - 2010.04.06 16:26:55.
