data_PCOD8312863
_publ_section_title
;
Structure prediction by ZEFSAII (Michael W. Deem and Ramdas Pophale) SiO2 
 PCOD8312863
Probable space group: P 4/M M M
;
_chemical_formula_sum "Si O2"
_cell_formula_units_Z 96
_cell_length_a 25.286051
_cell_length_b 25.286051
_cell_length_c 9.249251
_cell_angle_alpha 90.000000
_cell_angle_beta 90.000000
_cell_angle_gamma 90.000000
_cell_volume 5913.826571
_symmetry_space_group_name_H-M "P 4/M M M"
_symmetry_group_IT_number 123
_symmetry_cell_setting 'tetragonal'
loop_
_space_group_symop_operation_xyz
x,y,z
-y,x,z
-x,-y,z
y,-x,z
x,-y,-z
-x,y,-z
y,x,-z
-y,-x,-z
-x,-y,-z
y,-x,-z
x,y,-z
-y,x,-z
-x,y,z
x,-y,z
-y,-x,z
y,x,z
loop_
_atom_site_type_symbol
_atom_site_label
_atom_site_fract_x
_atom_site_fract_y
_atom_site_fract_z
Si Si1 0.159966 0.755267 0.831436
Si Si2 0.631868 0.169728 0.835529
Si Si3 0.439807 0.645196 0.832708
Si Si4 0.439382 0.749873 0.669841
Si Si5 0.056122 0.644228 0.837421
Si Si6 0.941869 0.749980 0.331213
O O1 0.209963 0.790038 0.779651
O O2 0.171885 0.693969 0.793601
O O3 0.107063 0.777371 0.752111
O O4 0.149803 0.762283 0.000000
O O5 0.598427 0.204496 0.726689
O O6 0.609795 0.109311 0.815573
O O7 0.623365 0.189565 0.000000
O O8 0.500000 0.629794 0.797002
O O9 0.404784 0.595217 0.787662
O O10 0.420913 0.695072 0.740195
O O11 0.432482 0.660060 0.000000
O O12 0.432289 0.744969 0.500000
O O13 0.500000 0.762606 0.712797
O O14 0.055527 0.689628 0.719013
O O15 0.000000 0.612060 0.823357
O O16 0.059989 0.669230 0.000000
O O17 0.929177 0.751753 0.500000
O O18 0.000000 0.776282 0.299556
#
# Coordination Sequence:
#
# PCOD8312863 Si02
#       6
#    16  16  16  16  16  16
#     4   9  18  31  45  64  92 122 150 183 224 268
#     4   9  17  29  47  69  90 116 150 186 226 269
#     4   9  18  33  53  75  96 117 142 175 217 264
#     4  10  21  35  49  66  90 120 154 189 220 256
#     4   8  14  26  44  65  88 113 143 181 224 268
#     4   9  16  25  39  61  88 118 152 186 219 259
#
# _framework density 16.233143999999999
#
# number of rings (size 3 to 8) (size 9 to 14) (size 15 to 20)
#    0.000    3.000    0.000    2.000    0.000    6.167 
#    0.000    2.500    0.000    0.500    0.000    5.833 
#    0.000    0.333    0.000    3.667    0.000    2.833 
#
# Total GULP energy -1189373.280236 kJ/mol
# GULP energy per Si atom -12389.305002 kJ/mol
# Density = 1.619620 g / cm^3
# Si number density = 16.233144 Si / 1000 Ang^3
#
#
#
# Elastic Constant Matrix: (Units=GPa)
#
#
# Indices 1 2 3 4 5 6 
#
# 1 94.0488 64.1210 43.0369 0.0000 0.0000 0.0000
# 2 64.1210 94.0488 43.0369 0.0000 0.0000 0.0000
# 3 43.0369 43.0369 59.7907 0.0000 0.0000 0.0000
# 4 0.0000 0.0000 0.0000 20.8726 0.0000 0.0000
# 5 0.0000 0.0000 0.0000 0.0000 20.8726 0.0000
# 6 0.0000 0.0000 0.0000 0.0000 0.0000 1.2865
#
#
#
# Elastic Compliance Matrix: (Units=1/GPa)
#
#
# Indices 1 2 3 4 5 6 
#
# 1 0.021904 -0.011510 -0.007481 0.000000 0.000000 0.000000
# 2 -0.011510 0.021904 -0.007481 0.000000 0.000000 0.000000
# 3 -0.007481 -0.007481 0.027495 0.000000 0.000000 0.000000
# 4 0.000000 0.000000 0.000000 0.047910 0.000000 0.000000
# 5 0.000000 0.000000 0.000000 0.000000 0.047910 0.000000
# 6 0.000000 0.000000 0.000000 0.000000 0.000000 0.777332
#
#
# Mechanical properties :
#
#
# Convention : Reuss Voigt Hill
#
# Bulk Modulus (GPa) = 54.47476 60.91974 57.69725
# Shear Modulus (GPa) = 4.98248 15.11921 10.05084
#
# Velocity S-wave (km/s) = 1.75385 3.05516 2.49098
# Velocity P-wave (km/s) = 6.14263 7.07494 6.62521
#
# Compressibility (1/GPa) = 0.01835713
#
# Stress axis : x y z
#
# Youngs Moduli (GPa) = 45.65454 45.65454 36.37063
#
# Poissons Ratio (x) = 0.52549 0.27209
# Poissons Ratio (y) = 0.52549 0.27209
# Poissons Ratio (z) = 0.34155 0.34155
#
# Static dielectric constant tensor:
#      x y z
#    x 3.147170 0.000000 0.000000 
#    y 0.000000 3.147170 0.000000 
#    z 0.000000 0.000000 3.065890 
# 
# 
# High freq. dielectric constant tensor:
#      x y z
#    x 1.606710 0.000000 0.000000 
#    y 0.000000 1.606710 0.000000 
#    z 0.000000 0.000000 1.627580 
# 
# From -- ./inp_files/1638.got.cif
#   From: 2010.03.12/outbox.cif.g09.slc.cpg/sg123_1_cif.got.tgz:1638.got - 2010.04.06 16:26:55.
