data_PCOD8312111
_publ_section_title
;
Structure prediction by ZEFSAII (Michael W. Deem and Ramdas Pophale) SiO2 
 PCOD8312111
Probable space group: I -4 2 D
;
_chemical_formula_sum "Si O2"
_cell_formula_units_Z 52
_cell_length_a 20.993084
_cell_length_b 20.993084
_cell_length_c 4.946394
_cell_angle_alpha 90.000000
_cell_angle_beta 90.000000
_cell_angle_gamma 90.000000
_cell_volume 2179.923202
_symmetry_space_group_name_H-M "I -4 2 D"
_symmetry_group_IT_number 122
_symmetry_cell_setting 'tetragonal'
loop_
_space_group_symop_operation_xyz
x,y,z
y,-x,-z
-x,-y,z
-y,x,-z
x,1/2-y,1/4-z
-x,1/2+y,1/4-z
-y,1/2-x,1/4+z
y,1/2+x,1/4+z
1/2+x,1/2+y,1/2+z
1/2+y,1/2-x,1/2-z
1/2-x,1/2-y,1/2+z
1/2-y,1/2+x,1/2-z
1/2+x,-y,3/4-z
1/2-x,y,3/4-z
1/2-y,-x,3/4+z
1/2+y,x,3/4+z
loop_
_atom_site_type_symbol
_atom_site_label
_atom_site_fract_x
_atom_site_fract_y
_atom_site_fract_z
Si Si1 0.924006 0.321118 0.047148
Si Si2 0.000000 0.000000 0.500000
Si Si3 0.292582 0.621090 0.643455
Si Si4 0.994620 0.364838 0.527241
O O1 0.944281 0.250000 0.125000
O O2 0.850855 0.330284 0.136105
O O3 0.964565 0.369180 0.230836
O O4 0.942220 0.336764 0.737611
O O5 0.063373 0.982718 0.333188
O O6 0.250000 0.611851 0.375000
O O7 0.318506 0.554955 0.766063
O O8 0.250000 0.652719 0.875000
#
# Coordination Sequence:
#
# PCOD8312111 Si02
#       4
#    16   4  16  16
#     4  12  27  47  72 103 144 192 239 295 359 434
#     4  12  28  46  80 110 144 182 236 314 364 442
#     4  12  26  45  73 104 143 191 242 297 360 432
#     4  12  26  47  71 107 145 182 237 300 376 426
#
# _framework density 23.854050999999998
#
# number of rings (size 3 to 8) (size 9 to 14) (size 15 to 20)
#    0.000    0.000    3.077    7.385    4.308    2.462 
#    0.000    0.000    0.000    0.000    0.000    0.000 
#    0.000    0.000    0.000    0.000    0.000    0.000 
#
# Total GULP energy -322408.352873 kJ/mol
# GULP energy per Si atom -12400.321264 kJ/mol
# Density = 2.379976 g / cm^3
# Si number density = 23.854051 Si / 1000 Ang^3
#
#
#
# Elastic Constant Matrix: (Units=GPa)
#
#
# Indices 1 2 3 4 5 6 
#
# 1 98.5874 0.0564 27.3064 0.0000 0.0000 0.0000
# 2 0.0564 98.5874 27.3064 0.0000 0.0000 0.0000
# 3 27.3064 27.3064 107.6684 0.0000 0.0000 0.0000
# 4 0.0000 0.0000 0.0000 32.4725 0.0000 0.0000
# 5 0.0000 0.0000 0.0000 0.0000 32.4725 0.0000
# 6 0.0000 0.0000 0.0000 0.0000 0.0000 18.2200
#
#
#
# Elastic Compliance Matrix: (Units=1/GPa)
#
#
# Indices 1 2 3 4 5 6 
#
# 1 0.010971 0.000822 -0.002991 0.000000 0.000000 0.000000
# 2 0.000822 0.010971 -0.002991 0.000000 0.000000 0.000000
# 3 -0.002991 -0.002991 0.010805 0.000000 0.000000 0.000000
# 4 0.000000 0.000000 0.000000 0.030795 0.000000 0.000000
# 5 0.000000 0.000000 0.000000 0.000000 0.030795 0.000000
# 6 0.000000 0.000000 0.000000 0.000000 0.000000 0.054885
#
#
# Mechanical properties :
#
#
# Convention : Reuss Voigt Hill
#
# Bulk Modulus (GPa) = 44.58763 46.02017 45.30390
# Shear Modulus (GPa) = 29.93681 33.31125 31.62403
#
# Velocity S-wave (km/s) = 3.54644 3.74098 3.64501
# Velocity P-wave (km/s) = 5.95836 6.16394 6.06202
#
# Compressibility (1/GPa) = 0.02242774
#
# Stress axis : x y z
#
# Youngs Moduli (GPa) = 91.14736 91.14736 92.55061
#
# Poissons Ratio (x) = -0.07494 0.27682
# Poissons Ratio (y) = -0.07494 0.27682
# Poissons Ratio (z) = 0.27262 0.27262
#
# Static dielectric constant tensor:
#      x y z
#    x 4.306720 0.000000 0.000000 
#    y 0.000000 4.306720 0.000000 
#    z 0.000000 0.000000 4.380960 
# 
# 
# High freq. dielectric constant tensor:
#      x y z
#    x 1.953850 0.000000 0.000000 
#    y 0.000000 1.953850 0.000000 
#    z 0.000000 0.000000 1.951940 
# 
# From -- ./inp_files/828.got.cif
#   From: 2010.03.12/outbox.cif.g09.slc.cpg/sg122_1_cif.got.tgz:828.got - 2010.04.06 16:17:16.
