data_PCOD8312114
_publ_section_title
;
Structure prediction by ZEFSAII (Michael W. Deem and Ramdas Pophale) SiO2 
 PCOD8312114
Probable space group: I -4 2 D
;
_chemical_formula_sum "Si O2"
_cell_formula_units_Z 52
_cell_length_a 19.903004
_cell_length_b 19.903004
_cell_length_c 4.756914
_cell_angle_alpha 90.000000
_cell_angle_beta 90.000000
_cell_angle_gamma 90.000000
_cell_volume 1884.354289
_symmetry_space_group_name_H-M "I -4 2 D"
_symmetry_group_IT_number 122
_symmetry_cell_setting 'tetragonal'
loop_
_space_group_symop_operation_xyz
x,y,z
y,-x,-z
-x,-y,z
-y,x,-z
x,1/2-y,1/4-z
-x,1/2+y,1/4-z
-y,1/2-x,1/4+z
y,1/2+x,1/4+z
1/2+x,1/2+y,1/2+z
1/2+y,1/2-x,1/2-z
1/2-x,1/2-y,1/2+z
1/2-y,1/2+x,1/2-z
1/2+x,-y,3/4-z
1/2-x,y,3/4-z
1/2-y,-x,3/4+z
1/2+y,x,3/4+z
loop_
_atom_site_type_symbol
_atom_site_label
_atom_site_fract_x
_atom_site_fract_y
_atom_site_fract_z
Si Si1 0.364877 0.033355 0.556937
Si Si2 0.750000 0.360405 0.875000
Si Si3 0.500000 0.500000 0.000000
Si Si4 0.108354 0.681022 0.985775
Si Si5 0.950072 0.750000 0.125000
O O1 0.434150 0.000433 0.448926
O O2 0.379703 0.090900 0.794165
O O3 0.315187 0.984462 0.730959
O O4 0.325175 0.066676 0.299114
O O5 0.688091 0.313095 0.793437
O O6 0.780891 0.404868 0.623652
O O7 0.081594 0.750000 0.125000
#
# Coordination Sequence:
#
# PCOD8312114 Si02
#       5
#    16   8   4  16   8
#     4  12  28  54  84 121 172 225 292 345 451 518
#     4  12  28  51  84 122 161 210 288 350 430 510
#     4  12  32  58  84 134 176 238 292 390 424 542
#     4  12  28  53  83 122 165 223 281 359 429 534
#     4  12  26  53  82 124 167 230 278 354 434 546
#
# _framework density 27.595661
#
# number of rings (size 3 to 8) (size 9 to 14) (size 15 to 20)
#    0.000    0.000    1.538    6.462    0.000    9.846 
#    0.000    3.077    0.000    0.000    0.000    0.000 
#    0.000    0.000    0.000    0.000    0.000    0.000 
#
# Total GULP energy -322125.736775 kJ/mol
# GULP energy per Si atom -12389.451414 kJ/mol
# Density = 2.753285 g / cm^3
# Si number density = 27.595661 Si / 1000 Ang^3
#
#
#
# Elastic Constant Matrix: (Units=GPa)
#
#
# Indices 1 2 3 4 5 6 
#
# 1 112.8632 43.8001 47.7535 0.0000 0.0000 0.0000
# 2 43.8001 112.8632 47.7535 0.0000 0.0000 0.0000
# 3 47.7535 47.7535 210.4182 0.0000 0.0000 0.0000
# 4 0.0000 0.0000 0.0000 49.6965 0.0000 0.0000
# 5 0.0000 0.0000 0.0000 0.0000 49.6965 0.0000
# 6 0.0000 0.0000 0.0000 0.0000 0.0000 19.9738
#
#
#
# Elastic Compliance Matrix: (Units=1/GPa)
#
#
# Indices 1 2 3 4 5 6 
#
# 1 0.010944 -0.003536 -0.001681 0.000000 0.000000 0.000000
# 2 -0.003536 0.010944 -0.001681 0.000000 0.000000 0.000000
# 3 -0.001681 -0.001681 0.005516 0.000000 0.000000 0.000000
# 4 0.000000 0.000000 0.000000 0.020122 0.000000 0.000000
# 5 0.000000 0.000000 0.000000 0.000000 0.020122 0.000000
# 6 0.000000 0.000000 0.000000 0.000000 0.000000 0.050066
#
#
# Mechanical properties :
#
#
# Convention : Reuss Voigt Hill
#
# Bulk Modulus (GPa) = 73.49307 79.41765 76.45536
# Shear Modulus (GPa) = 36.75255 43.66253 40.20754
#
# Velocity S-wave (km/s) = 3.65337 3.98203 3.82124
# Velocity P-wave (km/s) = 6.66979 7.06991 6.87276
#
# Compressibility (1/GPa) = 0.01360672
#
# Stress axis : x y z
#
# Youngs Moduli (GPa) = 91.37612 91.37612 181.30611
#
# Poissons Ratio (x) = 0.32308 0.30482
# Poissons Ratio (y) = 0.32308 0.30482
# Poissons Ratio (z) = 0.15362 0.15362
#
# Static dielectric constant tensor:
#      x y z
#    x 4.911540 0.000000 0.000000 
#    y 0.000000 4.911540 0.000000 
#    z 0.000000 0.000000 5.825530 
# 
# 
# High freq. dielectric constant tensor:
#      x y z
#    x 2.120660 0.000000 0.000000 
#    y 0.000000 2.120660 0.000000 
#    z 0.000000 0.000000 2.145170 
# 
# From -- ./inp_files/893.got.cif
#   From: 2010.03.12/outbox.cif.g09.slc.cpg/sg122_1_cif.got.tgz:893.got - 2010.04.06 16:17:16.
