data_PCOD8312045
_publ_section_title
;
Structure prediction by ZEFSAII (Michael W. Deem and Ramdas Pophale) SiO2 
 PCOD8312045
Probable space group: I -4 2 D
;
_chemical_formula_sum "Si O2"
_cell_formula_units_Z 80
_cell_length_a 11.931258
_cell_length_b 11.931258
_cell_length_c 26.104172
_cell_angle_alpha 90.000000
_cell_angle_beta 90.000000
_cell_angle_gamma 90.000000
_cell_volume 3716.057250
_symmetry_space_group_name_H-M "I -4 2 D"
_symmetry_group_IT_number 122
_symmetry_cell_setting 'tetragonal'
loop_
_space_group_symop_operation_xyz
x,y,z
y,-x,-z
-x,-y,z
-y,x,-z
x,1/2-y,1/4-z
-x,1/2+y,1/4-z
-y,1/2-x,1/4+z
y,1/2+x,1/4+z
1/2+x,1/2+y,1/2+z
1/2+y,1/2-x,1/2-z
1/2-x,1/2-y,1/2+z
1/2-y,1/2+x,1/2-z
1/2+x,-y,3/4-z
1/2-x,y,3/4-z
1/2-y,-x,3/4+z
1/2+y,x,3/4+z
loop_
_atom_site_type_symbol
_atom_site_label
_atom_site_fract_x
_atom_site_fract_y
_atom_site_fract_z
Si Si1 0.694706 0.309420 0.179443
Si Si2 0.654449 0.931784 0.065975
Si Si3 0.614039 0.931193 0.179611
Si Si4 0.893696 0.356482 0.251306
Si Si5 0.238874 0.983658 0.261467
O O1 0.708372 0.250000 0.125000
O O2 0.646370 0.434919 0.176632
O O3 0.815195 0.306761 0.206922
O O4 0.603872 0.241680 0.211953
O O5 0.628353 0.885766 0.122227
O O6 0.778702 0.891648 0.051262
O O7 0.566466 0.886253 0.022414
O O8 0.607192 0.819531 0.212941
O O9 0.500000 0.000000 0.187020
O O10 0.723044 0.001132 0.201589
O O11 0.856516 0.479226 0.270402
#
# Coordination Sequence:
#
# PCOD8312045 Si02
#       5
#    16  16  16  16  16
#     4  11  23  39  67  94 128 175 223 279 349 420
#     4  11  24  39  65  96 128 179 230 282 344 415
#     4  12  23  39  62  94 134 178 220 273 343 411
#     4   9  21  44  67  90 127 169 226 289 347 410
#     4  12  22  39  60  94 138 174 222 281 336 414
#
# _framework density 21.528193999999999
#
# number of rings (size 3 to 8) (size 9 to 14) (size 15 to 20)
#    0.000    1.000    2.000    6.000    2.800    0.000 
#    0.000    6.000    8.800    0.000    0.000    0.000 
#    0.000    0.000    0.000    0.000    0.000    0.000 
#
# Total GULP energy -495730.542484 kJ/mol
# GULP energy per Si atom -12393.263562 kJ/mol
# Density = 2.147920 g / cm^3
# Si number density = 21.528194 Si / 1000 Ang^3
#
#
#
# Elastic Constant Matrix: (Units=GPa)
#
#
# Indices 1 2 3 4 5 6 
#
# 1 100.0648 47.3507 50.1083 0.0000 0.0000 0.0000
# 2 47.3507 100.0648 50.1083 0.0000 0.0000 0.0000
# 3 50.1083 50.1083 91.3592 0.0000 0.0000 0.0000
# 4 0.0000 0.0000 0.0000 35.4699 0.0000 0.0000
# 5 0.0000 0.0000 0.0000 0.0000 35.4699 0.0000
# 6 0.0000 0.0000 0.0000 0.0000 0.0000 35.9667
#
#
#
# Elastic Compliance Matrix: (Units=1/GPa)
#
#
# Indices 1 2 3 4 5 6 
#
# 1 0.014894 -0.004077 -0.005933 0.000000 0.000000 0.000000
# 2 -0.004077 0.014894 -0.005933 0.000000 0.000000 0.000000
# 3 -0.005933 -0.005933 0.017454 0.000000 0.000000 0.000000
# 4 0.000000 0.000000 0.000000 0.028193 0.000000 0.000000
# 5 0.000000 0.000000 0.000000 0.000000 0.028193 0.000000
# 6 0.000000 0.000000 0.000000 0.000000 0.000000 0.027804
#
#
# Mechanical properties :
#
#
# Convention : Reuss Voigt Hill
#
# Bulk Modulus (GPa) = 65.11977 65.18038 65.15007
# Shear Modulus (GPa) = 29.68534 30.97605 30.33070
#
# Velocity S-wave (km/s) = 3.71739 3.79735 3.75758
# Velocity P-wave (km/s) = 6.98137 7.04052 7.01101
#
# Compressibility (1/GPa) = 0.01535632
#
# Stress axis : x y z
#
# Youngs Moduli (GPa) = 67.14338 67.14337 57.29436
#
# Poissons Ratio (x) = 0.27373 0.33991
# Poissons Ratio (y) = 0.27373 0.33991
# Poissons Ratio (z) = 0.39834 0.39834
#
# Static dielectric constant tensor:
#      x y z
#    x 4.146520 0.000000 0.000000 
#    y 0.000000 4.146520 0.000000 
#    z 0.000000 0.000000 3.826350 
# 
# 
# High freq. dielectric constant tensor:
#      x y z
#    x 1.855060 0.000000 0.000000 
#    y 0.000000 1.855060 0.000000 
#    z 0.000000 0.000000 1.822660 
# 
# From -- ./inp_files/9392.got.cif
#   From: 2010.03.12/outbox.cif.g09.slc.cpg/sg122_5_cif.got.tgz:9392.got - 2010.04.06 16:17:16.
