data_PCOD8312833
_publ_section_title
;
Structure prediction by ZEFSAII (Michael W. Deem and Ramdas Pophale) SiO2 
 PCOD8312833
Probable space group: P 4/M M M
;
_chemical_formula_sum "Si O2"
_cell_formula_units_Z 120
_cell_length_a 28.272876
_cell_length_b 28.272876
_cell_length_c 8.013844
_cell_angle_alpha 90.000000
_cell_angle_beta 90.000000
_cell_angle_gamma 90.000000
_cell_volume 6405.910416
_symmetry_space_group_name_H-M "P 4/M M M"
_symmetry_group_IT_number 123
_symmetry_cell_setting 'tetragonal'
loop_
_space_group_symop_operation_xyz
x,y,z
-y,x,z
-x,-y,z
y,-x,z
x,-y,-z
-x,y,-z
y,x,-z
-y,-x,-z
-x,-y,-z
y,-x,-z
x,y,-z
-y,x,-z
-x,y,z
x,-y,z
-y,-x,z
y,x,z
loop_
_atom_site_type_symbol
_atom_site_label
_atom_site_fract_x
_atom_site_fract_y
_atom_site_fract_z
Si Si1 0.445015 0.370805 0.500000
Si Si2 0.784652 0.608887 0.190704
Si Si3 0.211941 0.139413 0.691492
Si Si4 0.553689 0.872871 0.690614
Si Si5 0.211567 0.286594 0.806681
Si Si6 0.730299 0.053386 0.698617
Si Si7 0.945860 0.373012 0.806123
Si Si8 0.555427 0.693075 0.191870
O O1 0.500000 0.379255 0.500000
O O2 0.421869 0.421869 0.500000
O O3 0.429158 0.345671 0.327569
O O4 0.831507 0.577758 0.204741
O O5 0.788860 0.660805 0.274081
O O6 0.740349 0.580179 0.261203
O O7 0.773940 0.619161 0.000000
O O8 0.199409 0.131138 0.500000
O O9 0.165459 0.165459 0.775981
O O10 0.256539 0.173951 0.703278
O O11 0.227975 0.088383 0.767909
O O12 0.552574 0.856637 0.500000
O O13 0.500000 0.882434 0.754814
O O14 0.585666 0.919416 0.707169
O O15 0.263806 0.263806 0.786630
O O16 0.195713 0.286288 0.000000
O O17 0.729097 0.054513 0.500000
O O18 0.679683 0.072611 0.763473
O O19 0.740171 0.000000 0.764697
O O20 0.000000 0.376450 0.749917
O O21 0.938448 0.382688 0.000000
O O22 0.500000 0.702889 0.199220
O O23 0.569915 0.679118 0.000000
#
# Coordination Sequence:
#
# PCOD8312833 Si02
#       8
#     8  16  16  16  16  16  16  16
#     4  10  22  39  60  86 112 140 173 209 251 305
#     4  10  20  34  54  76  99 130 166 207 251 298
#     4   9  17  29  44  64  93 127 159 193 236 285
#     4  11  24  37  51  72  97 128 165 208 256 307
#     4   9  18  31  46  67  95 125 156 189 229 281
#     4   9  17  30  49  71  94 122 159 202 245 292
#     4  10  21  36  53  72  95 125 163 211 263 308
#     4   9  19  36  57  80 107 139 172 210 256 304
#
# _framework density 18.732700000000001
#
# number of rings (size 3 to 8) (size 9 to 14) (size 15 to 20)
#    0.000    2.400    0.000    2.000    0.933    6.733 
#    0.000    2.667    0.000    0.000    0.000    1.867 
#    0.000    0.267    0.000    3.733    0.000    0.000 
#
# Total GULP energy -1487161.247704 kJ/mol
# GULP energy per Si atom -12393.010398 kJ/mol
# Density = 1.869006 g / cm^3
# Si number density = 18.732700 Si / 1000 Ang^3
#
#
#
# Elastic Constant Matrix: (Units=GPa)
#
#
# Indices 1 2 3 4 5 6 
#
# 1 91.4977 79.1051 12.1343 0.0000 0.0000 0.0000
# 2 79.1051 91.4977 12.1343 0.0000 0.0000 0.0000
# 3 12.1343 12.1343 39.2930 0.0000 0.0000 0.0000
# 4 0.0000 0.0000 0.0000 17.4668 0.0000 0.0000
# 5 0.0000 0.0000 0.0000 0.0000 17.4668 0.0000
# 6 0.0000 0.0000 0.0000 0.0000 0.0000 35.1118
#
#
#
# Elastic Compliance Matrix: (Units=1/GPa)
#
#
# Indices 1 2 3 4 5 6 
#
# 1 0.043412 -0.037281 -0.001893 0.000000 0.000000 0.000000
# 2 -0.037281 0.043412 -0.001893 0.000000 0.000000 0.000000
# 3 -0.001893 -0.001893 0.026619 0.000000 0.000000 0.000000
# 4 0.000000 0.000000 0.000000 0.057252 0.000000 0.000000
# 5 0.000000 0.000000 0.000000 0.000000 0.057252 0.000000
# 6 0.000000 0.000000 0.000000 0.000000 0.000000 0.028480
#
#
# Mechanical properties :
#
#
# Convention : Reuss Voigt Hill
#
# Bulk Modulus (GPa) = 31.94104 47.67065 39.80584
# Shear Modulus (GPa) = 14.32670 21.93672 18.13171
#
# Velocity S-wave (km/s) = 2.76850 3.42576 3.11451
# Velocity P-wave (km/s) = 5.22565 6.41489 5.85056
#
# Compressibility (1/GPa) = 0.03130769
#
# Stress axis : x y z
#
# Youngs Moduli (GPa) = 23.03502 23.03502 37.56690
#
# Poissons Ratio (x) = 0.85877 0.07113
# Poissons Ratio (y) = 0.85877 0.07113
# Poissons Ratio (z) = 0.04361 0.04361
#
# Static dielectric constant tensor:
#      x y z
#    x 3.564460 0.000000 0.000000 
#    y 0.000000 3.564460 0.000000 
#    z 0.000000 0.000000 3.355270 
# 
# 
# High freq. dielectric constant tensor:
#      x y z
#    x 1.716680 0.000000 0.000000 
#    y 0.000000 1.716680 0.000000 
#    z 0.000000 0.000000 1.720050 
# 
# From -- ./inp_files/2036.got.cif
#   From: 2010.03.12/outbox.cif.g09.slc.cpg/sg123_2_cif.got.tgz:2036.got - 2010.04.06 16:26:55.
