data_PCOD8312752
_publ_section_title
;
Structure prediction by ZEFSAII (Michael W. Deem and Ramdas Pophale) SiO2 
 PCOD8312752
Probable space group: P 4/M M M
;
_chemical_formula_sum "Si O2"
_cell_formula_units_Z 80
_cell_length_a 13.067406
_cell_length_b 13.067406
_cell_length_c 27.471276
_cell_angle_alpha 90.000000
_cell_angle_beta 90.000000
_cell_angle_gamma 90.000000
_cell_volume 4690.915411
_symmetry_space_group_name_H-M "P 4/M M M"
_symmetry_group_IT_number 123
_symmetry_cell_setting 'tetragonal'
loop_
_space_group_symop_operation_xyz
x,y,z
-y,x,z
-x,-y,z
y,-x,z
x,-y,-z
-x,y,-z
y,x,-z
-y,-x,-z
-x,-y,-z
y,-x,-z
x,y,-z
-y,x,-z
-x,y,z
x,-y,z
-y,-x,z
y,x,z
loop_
_atom_site_type_symbol
_atom_site_label
_atom_site_fract_x
_atom_site_fract_y
_atom_site_fract_z
Si Si1 0.780671 0.380746 0.411470
Si Si2 0.116921 0.277457 0.781613
Si Si3 0.293197 0.878925 0.890950
Si Si4 0.379634 0.114376 0.314286
Si Si5 0.500000 0.121078 0.055025
Si Si6 0.285908 0.116330 0.500000
O O1 0.758113 0.500000 0.410530
O O2 0.674546 0.325455 0.424412
O O3 0.819092 0.338816 0.359263
O O4 0.864056 0.354926 0.452436
O O5 0.166735 0.166735 0.779822
O O6 0.135059 0.327012 0.834676
O O7 0.162124 0.347406 0.738048
O O8 0.000000 0.257543 0.771645
O O9 0.194656 0.805345 0.903663
O O10 0.393957 0.841139 0.920169
O O11 0.265845 0.000000 0.901559
O O12 0.500000 0.111484 0.315962
O O13 0.335259 0.000000 0.320157
O O14 0.500000 0.000000 0.057120
O O15 0.500000 0.162720 0.000000
O O16 0.184449 0.184449 0.500000
O O17 0.249312 0.000000 0.500000
#
# Coordination Sequence:
#
# PCOD8312752 Si02
#       6
#    16  16  16  16   8   8
#     4  10  20  33  49  70  95 125 161 200 242 285
#     4   9  17  28  43  65  93 124 155 190 233 282
#     4   9  18  31  49  74 102 133 167 204 249 298
#     4   9  17  28  45  68  92 120 156 198 240 283
#     4   9  18  32  50  71  97 129 165 205 244 288
#     4  10  21  36  54  74  96 122 153 192 236 286
#
# _framework density 17.054241000000001
#
# number of rings (size 3 to 8) (size 9 to 14) (size 15 to 20)
#    0.000    2.700    0.000    1.500    1.400    2.700 
#    0.000    2.000    0.000    2.100    0.000    6.300 
#    0.000    0.000    0.000    0.000    0.000    0.000 
#
# Total GULP energy -991321.728578 kJ/mol
# GULP energy per Si atom -12391.521607 kJ/mol
# Density = 1.701543 g / cm^3
# Si number density = 17.054241 Si / 1000 Ang^3
#
#
#
# Elastic Constant Matrix: (Units=GPa)
#
#
# Indices 1 2 3 4 5 6 
#
# 1 71.0385 39.4672 43.0129 0.0000 0.0000 0.0000
# 2 39.4672 71.0385 43.0129 0.0000 0.0000 0.0000
# 3 43.0129 43.0129 130.1067 0.0000 0.0000 0.0000
# 4 0.0000 0.0000 0.0000 22.5248 0.0000 0.0000
# 5 0.0000 0.0000 0.0000 0.0000 22.5248 0.0000
# 6 0.0000 0.0000 0.0000 0.0000 0.0000 18.1005
#
#
#
# Elastic Compliance Matrix: (Units=1/GPa)
#
#
# Indices 1 2 3 4 5 6 
#
# 1 0.021930 -0.009745 -0.004028 0.000000 0.000000 0.000000
# 2 -0.009745 0.021930 -0.004028 0.000000 0.000000 0.000000
# 3 -0.004028 -0.004028 0.010350 0.000000 0.000000 0.000000
# 4 0.000000 0.000000 0.000000 0.044395 0.000000 0.000000
# 5 0.000000 0.000000 0.000000 0.000000 0.044395 0.000000
# 6 0.000000 0.000000 0.000000 0.000000 0.000000 0.055247
#
#
# Mechanical properties :
#
#
# Convention : Reuss Voigt Hill
#
# Bulk Modulus (GPa) = 53.74463 58.12996 55.93729
# Shear Modulus (GPa) = 20.82880 22.40941 21.61910
#
# Velocity S-wave (km/s) = 3.49854 3.62886 3.56429
# Velocity P-wave (km/s) = 6.92113 7.19149 7.05760
#
# Compressibility (1/GPa) = 0.01860651
#
# Stress axis : x y z
#
# Youngs Moduli (GPa) = 45.59994 45.59994 96.62237
#
# Poissons Ratio (x) = 0.44435 0.38924
# Poissons Ratio (y) = 0.44435 0.38924
# Poissons Ratio (z) = 0.18370 0.18370
#
# Static dielectric constant tensor:
#      x y z
#    x 3.064600 0.000000 0.000000 
#    y 0.000000 3.064600 0.000000 
#    z 0.000000 0.000000 3.579300 
# 
# 
# High freq. dielectric constant tensor:
#      x y z
#    x 1.640220 0.000000 0.000000 
#    y 0.000000 1.640220 0.000000 
#    z 0.000000 0.000000 1.675510 
# 
# From -- ./inp_files/8398.got.cif
#   From: 2010.03.12/outbox.cif.g09.slc.cpg/sg123_5_cif.got.tgz:8398.got - 2010.04.06 16:26:55.
