data_PCOD8312015
_publ_section_title
;
Structure prediction by ZEFSAII (Michael W. Deem and Ramdas Pophale) SiO2 
 PCOD8312015
Probable space group: I -4 2 D
;
_chemical_formula_sum "Si O2"
_cell_formula_units_Z 96
_cell_length_a 22.521403
_cell_length_b 22.521403
_cell_length_c 9.897655
_cell_angle_alpha 90.000000
_cell_angle_beta 90.000000
_cell_angle_gamma 90.000000
_cell_volume 5020.225156
_symmetry_space_group_name_H-M "I -4 2 D"
_symmetry_group_IT_number 122
_symmetry_cell_setting 'tetragonal'
loop_
_space_group_symop_operation_xyz
x,y,z
y,-x,-z
-x,-y,z
-y,x,-z
x,1/2-y,1/4-z
-x,1/2+y,1/4-z
-y,1/2-x,1/4+z
y,1/2+x,1/4+z
1/2+x,1/2+y,1/2+z
1/2+y,1/2-x,1/2-z
1/2-x,1/2-y,1/2+z
1/2-y,1/2+x,1/2-z
1/2+x,-y,3/4-z
1/2-x,y,3/4-z
1/2-y,-x,3/4+z
1/2+y,x,3/4+z
loop_
_atom_site_type_symbol
_atom_site_label
_atom_site_fract_x
_atom_site_fract_y
_atom_site_fract_z
Si Si1 0.630759 0.431506 0.638730
Si Si2 0.068155 0.258069 0.774276
Si Si3 0.930087 0.118045 0.390448
Si Si4 0.256431 0.429069 0.025107
Si Si5 0.430580 0.868945 0.850794
Si Si6 0.380599 0.566726 0.145985
O O1 0.701144 0.418438 0.631543
O O2 0.610504 0.421299 0.792517
O O3 0.595703 0.385623 0.544588
O O4 0.617237 0.499416 0.599514
O O5 0.097066 0.250000 0.625000
O O6 0.092773 0.316652 0.848806
O O7 0.998455 0.267184 0.754558
O O8 0.903544 0.185002 0.400985
O O9 0.929708 0.087826 0.538149
O O10 0.996487 0.118951 0.335248
O O11 0.199736 0.416415 0.118725
O O12 0.250000 0.400359 0.875000
O O13 0.396551 0.908549 0.958627
#
# Coordination Sequence:
#
# PCOD8312015 Si02
#       6
#    16  16  16  16  16  16
#     4  11  23  38  57  84 121 156 185 233 296 347
#     4   9  18  36  58  80 110 152 199 235 271 334
#     4  11  21  34  58  86 112 149 193 236 284 342
#     4   9  18  36  58  80 110 152 199 235 271 334
#     4  11  23  38  57  84 121 156 185 233 296 347
#     4  11  21  34  58  86 112 149 193 236 284 342
#
# _framework density 19.122647000000001
#
# number of rings (size 3 to 8) (size 9 to 14) (size 15 to 20)
#    0.000    1.667    3.333    2.000    0.000    5.333 
#    0.000    5.000    0.000    6.000    0.000    0.000 
#    0.000    0.000    0.000    0.000    0.000    0.000 
#
# Total GULP energy -595253.913751 kJ/mol
# GULP energy per Si atom -12401.123203 kJ/mol
# Density = 1.907912 g / cm^3
# Si number density = 19.122647 Si / 1000 Ang^3
#
#
#
# Elastic Constant Matrix: (Units=GPa)
#
#
# Indices 1 2 3 4 5 6 
#
# 1 67.5346 32.7499 16.8122 0.0000 0.0000 0.0000
# 2 32.7499 67.5346 16.8122 0.0000 0.0000 0.0000
# 3 16.8122 16.8122 64.0043 0.0000 0.0000 0.0000
# 4 0.0000 0.0000 0.0000 29.8358 0.0000 0.0000
# 5 0.0000 0.0000 0.0000 0.0000 29.8358 0.0000
# 6 0.0000 0.0000 0.0000 0.0000 0.0000 5.5105
#
#
#
# Elastic Compliance Matrix: (Units=1/GPa)
#
#
# Indices 1 2 3 4 5 6 
#
# 1 0.019842 -0.008907 -0.002872 0.000000 0.000000 0.000000
# 2 -0.008907 0.019842 -0.002872 0.000000 0.000000 0.000000
# 3 -0.002872 -0.002872 0.017133 0.000000 0.000000 0.000000
# 4 0.000000 0.000000 0.000000 0.033517 0.000000 0.000000
# 5 0.000000 0.000000 0.000000 0.000000 0.033517 0.000000
# 6 0.000000 0.000000 0.000000 0.000000 0.000000 0.181471
#
#
# Mechanical properties :
#
#
# Convention : Reuss Voigt Hill
#
# Bulk Modulus (GPa) = 36.34616 36.86914 36.60765
# Shear Modulus (GPa) = 14.54358 21.88302 18.21330
#
# Velocity S-wave (km/s) = 2.76078 3.38650 3.08952
# Velocity P-wave (km/s) = 5.40469 5.88331 5.64907
#
# Compressibility (1/GPa) = 0.02751322
#
# Stress axis : x y z
#
# Youngs Moduli (GPa) = 50.39941 50.39941 58.36729
#
# Poissons Ratio (x) = 0.44890 0.16765
# Poissons Ratio (y) = 0.44890 0.16765
# Poissons Ratio (z) = 0.14476 0.14476
#
# Static dielectric constant tensor:
#      x y z
#    x 3.467450 0.000000 0.000000 
#    y 0.000000 3.467450 0.000000 
#    z 0.000000 0.000000 3.376060 
# 
# 
# High freq. dielectric constant tensor:
#      x y z
#    x 1.732110 0.000000 0.000000 
#    y 0.000000 1.732110 0.000000 
#    z 0.000000 0.000000 1.743330 
# 
# From -- ./inp_files/2902.got.cif
#   From: 2010.03.12/outbox.cif.g09.slc.cpg/sg122_2_cif.got.tgz:2902.got - 2010.04.06 16:17:16.
