data_PCOD8312675
_publ_section_title
;
Structure prediction by ZEFSAII (Michael W. Deem and Ramdas Pophale) SiO2 
 PCOD8312675
Probable space group: P 4/M M M
;
_chemical_formula_sum "Si O2"
_cell_formula_units_Z 104
_cell_length_a 18.575763
_cell_length_b 18.575763
_cell_length_c 18.505923
_cell_angle_alpha 90.000000
_cell_angle_beta 90.000000
_cell_angle_gamma 90.000000
_cell_volume 6385.634748
_symmetry_space_group_name_H-M "P 4/M M M"
_symmetry_group_IT_number 123
_symmetry_cell_setting 'tetragonal'
loop_
_space_group_symop_operation_xyz
x,y,z
-y,x,z
-x,-y,z
y,-x,z
x,-y,-z
-x,y,-z
y,x,-z
-y,-x,-z
-x,-y,-z
y,-x,-z
x,y,-z
-y,x,-z
-x,y,z
x,-y,z
-y,-x,z
y,x,z
loop_
_atom_site_type_symbol
_atom_site_label
_atom_site_fract_x
_atom_site_fract_y
_atom_site_fract_z
Si Si1 0.916067 0.676249 0.311654
Si Si2 0.197141 0.081888 0.581016
Si Si3 0.701073 0.415457 0.331741
Si Si4 0.416407 0.000000 0.916619
Si Si5 0.334014 0.782944 0.210868
Si Si6 0.585141 0.844089 0.084577
Si Si7 0.584066 0.161199 0.420275
O O1 0.896049 0.744563 0.360154
O O2 0.863141 0.677009 0.243024
O O3 0.899461 0.609110 0.363746
O O4 0.000000 0.674061 0.286969
O O5 0.226963 0.097046 0.500000
O O6 0.126097 0.126097 0.597657
O O7 0.174199 0.000000 0.590095
O O8 0.683146 0.500000 0.327964
O O9 0.627368 0.372633 0.347843
O O10 0.736173 0.390248 0.256736
O O11 0.758128 0.396306 0.394427
O O12 0.387733 0.076502 0.886805
O O13 0.500000 0.000000 0.902024
O O14 0.398698 0.000000 0.000000
O O15 0.257193 0.742808 0.205930
O O16 0.368944 0.787780 0.131159
O O17 0.500000 0.834339 0.098522
O O18 0.602231 0.832607 0.000000
O O19 0.618197 0.149597 0.500000
O O20 0.500000 0.151686 0.424498
#
# Coordination Sequence:
#
# PCOD8312675 Si02
#       7
#    16  16  16   8  16  16  16
#     4  10  20  32  46  65  89 119 157 192 225 269
#     4   9  17  29  45  64  86 112 144 185 229 272
#     4   9  18  32  48  67  91 120 157 198 239 283
#     4   7  12  24  42  66  92 116 142 174 216 265
#     4  10  20  32  47  67  95 127 156 191 234 281
#     4   9  17  30  49  71  95 122 152 186 226 275
#     4   9  18  32  47  64  90 120 149 187 235 283
#
# _framework density 16.286556000000001
#
# number of rings (size 3 to 8) (size 9 to 14) (size 15 to 20)
#    0.000    2.846    0.000    2.308    1.077    3.385 
#    0.000    1.538    0.000    0.000    0.000    2.154 
#    0.000    0.000    0.000   14.308    0.000    4.308 
#
# Total GULP energy -1288655.877324 kJ/mol
# GULP energy per Si atom -12390.921897 kJ/mol
# Density = 1.624949 g / cm^3
# Si number density = 16.286556 Si / 1000 Ang^3
#
#
#
# Elastic Constant Matrix: (Units=GPa)
#
#
# Indices 1 2 3 4 5 6 
#
# 1 67.3980 37.0952 32.9561 0.0000 0.0000 0.0000
# 2 37.0952 67.3980 32.9561 0.0000 0.0000 0.0000
# 3 32.9561 32.9561 81.8452 0.0000 0.0000 0.0000
# 4 0.0000 0.0000 0.0000 20.1142 0.0000 0.0000
# 5 0.0000 0.0000 0.0000 0.0000 20.1142 0.0000
# 6 0.0000 0.0000 0.0000 0.0000 0.0000 25.8807
#
#
#
# Elastic Compliance Matrix: (Units=1/GPa)
#
#
# Indices 1 2 3 4 5 6 
#
# 1 0.022914 -0.010086 -0.005165 0.000000 0.000000 0.000000
# 2 -0.010086 0.022914 -0.005165 0.000000 0.000000 0.000000
# 3 -0.005165 -0.005165 0.016378 0.000000 0.000000 0.000000
# 4 0.000000 0.000000 0.000000 0.049716 0.000000 0.000000
# 5 0.000000 0.000000 0.000000 0.000000 0.049716 0.000000
# 6 0.000000 0.000000 0.000000 0.000000 0.000000 0.038639
#
#
# Mechanical properties :
#
#
# Convention : Reuss Voigt Hill
#
# Bulk Modulus (GPa) = 46.78863 46.96179 46.87521
# Shear Modulus (GPa) = 20.14214 20.79741 20.46977
#
# Velocity S-wave (km/s) = 3.52054 3.57735 3.54906
# Velocity P-wave (km/s) = 6.73174 6.77942 6.75562
#
# Compressibility (1/GPa) = 0.02137272
#
# Stress axis : x y z
#
# Youngs Moduli (GPa) = 43.64096 43.64096 61.05713
#
# Poissons Ratio (x) = 0.44016 0.31539
# Poissons Ratio (y) = 0.44016 0.31539
# Poissons Ratio (z) = 0.22543 0.22543
#
# Static dielectric constant tensor:
#      x y z
#    x 3.054650 0.000000 0.000000 
#    y 0.000000 3.054650 0.000000 
#    z 0.000000 0.000000 3.042250 
# 
# 
# High freq. dielectric constant tensor:
#      x y z
#    x 1.617770 0.000000 0.000000 
#    y 0.000000 1.617770 0.000000 
#    z 0.000000 0.000000 1.618680 
# 
# From -- ./inp_files/5627.got.cif
#   From: 2010.03.12/outbox.cif.g09.slc.cpg/sg123_3_cif.got.tgz:5627.got - 2010.04.06 16:26:55.
