data_PCOD8312256
_publ_section_title
;
Structure prediction by ZEFSAII (Michael W. Deem and Ramdas Pophale) SiO2 
 PCOD8312256
Probable space group: P 4/M M M
;
_chemical_formula_sum "Si O2"
_cell_formula_units_Z 120
_cell_length_a 18.671845
_cell_length_b 18.671845
_cell_length_c 21.076004
_cell_angle_alpha 90.000000
_cell_angle_beta 90.000000
_cell_angle_gamma 90.000000
_cell_volume 7347.891577
_symmetry_space_group_name_H-M "P 4/M M M"
_symmetry_group_IT_number 123
_symmetry_cell_setting 'tetragonal'
loop_
_space_group_symop_operation_xyz
x,y,z
-y,x,z
-x,-y,z
y,-x,z
x,-y,-z
-x,y,-z
y,x,-z
-y,-x,-z
-x,-y,-z
y,-x,-z
x,y,-z
-y,x,-z
-x,y,z
x,-y,z
-y,-x,z
y,x,z
loop_
_atom_site_type_symbol
_atom_site_label
_atom_site_fract_x
_atom_site_fract_y
_atom_site_fract_z
Si Si1 0.422788 0.084608 0.569869
Si Si2 0.719252 0.084133 0.371687
Si Si3 0.583498 0.823180 0.832215
Si Si4 0.201609 0.083919 0.132958
Si Si5 0.653953 0.083778 0.069275
Si Si6 0.581910 0.697595 0.928490
Si Si7 0.161735 0.724155 0.243523
Si Si8 0.082922 0.197573 0.500000
O O1 0.409850 0.118320 0.500000
O O2 0.500000 0.109276 0.596616
O O3 0.362923 0.108236 0.619094
O O4 0.419268 0.000000 0.561846
O O5 0.742452 0.133174 0.313576
O O6 0.759801 0.104243 0.436516
O O7 0.728063 0.000000 0.355668
O O8 0.500000 0.823401 0.809159
O O9 0.597485 0.889520 0.878702
O O10 0.603035 0.754819 0.875115
O O11 0.639266 0.829011 0.773046
O O12 0.130372 0.130372 0.118878
O O13 0.262995 0.104190 0.082206
O O14 0.236723 0.102893 0.200331
O O15 0.180567 0.000000 0.131302
O O16 0.645677 0.000000 0.070661
O O17 0.633928 0.114804 0.000000
O O18 0.500000 0.674949 0.921069
O O19 0.627017 0.627017 0.914854
O O20 0.596741 0.727401 0.000000
O O21 0.239307 0.760694 0.234997
O O22 0.122223 0.122223 0.500000
O O23 0.000000 0.179625 0.500000
#
# Coordination Sequence:
#
# PCOD8312256 Si02
#       8
#    16  16  16  16  16  16  16   8
#     4   8  13  23  40  63  91 118 143 173 210 255
#     4  10  18  30  48  69  91 118 152 187 223 264
#     4  10  20  33  48  67  91 118 153 193 226 265
#     4   9  18  32  48  67  90 118 155 197 238 278
#     4   9  18  32  48  66  90 119 147 179 226 280
#     4   9  17  29  46  68  93 120 150 186 227 270
#     4  10  20  33  48  65  90 124 156 188 231 281
#     4  10  20  33  49  69  91 115 147 187 228 270
#
# _framework density 16.331213999999999
#
# number of rings (size 3 to 8) (size 9 to 14) (size 15 to 20)
#    0.000    2.667    0.667    2.000    0.000    3.267 
#    0.000    1.333    0.000    0.000    0.000    3.733 
#    0.000    0.000    0.000    0.000    0.000    0.000 
#
# Total GULP energy -1486851.597036 kJ/mol
# GULP energy per Si atom -12390.429975 kJ/mol
# Density = 1.629404 g / cm^3
# Si number density = 16.331214 Si / 1000 Ang^3
#
#
#
# Elastic Constant Matrix: (Units=GPa)
#
#
# Indices 1 2 3 4 5 6 
#
# 1 63.9111 33.3851 24.6382 0.0000 0.0000 0.0000
# 2 33.3851 63.9111 24.6382 0.0000 0.0000 0.0000
# 3 24.6382 24.6382 82.8283 0.0000 0.0000 0.0000
# 4 0.0000 0.0000 0.0000 18.0767 0.0000 0.0000
# 5 0.0000 0.0000 0.0000 0.0000 18.0767 0.0000
# 6 0.0000 0.0000 0.0000 0.0000 0.0000 22.8777
#
#
#
# Elastic Compliance Matrix: (Units=1/GPa)
#
#
# Indices 1 2 3 4 5 6 
#
# 1 0.022430 -0.010329 -0.003600 0.000000 0.000000 0.000000
# 2 -0.010329 0.022430 -0.003600 0.000000 0.000000 0.000000
# 3 -0.003600 -0.003600 0.014215 0.000000 0.000000 0.000000
# 4 0.000000 0.000000 0.000000 0.055320 0.000000 0.000000
# 5 0.000000 0.000000 0.000000 0.000000 0.055320 0.000000
# 6 0.000000 0.000000 0.000000 0.000000 0.000000 0.043711
#
#
# Mechanical properties :
#
#
# Convention : Reuss Voigt Hill
#
# Bulk Modulus (GPa) = 41.63499 41.77480 41.70490
# Shear Modulus (GPa) = 19.49416 20.33884 19.91650
#
# Velocity S-wave (km/s) = 3.45871 3.53285 3.49597
# Velocity P-wave (km/s) = 6.44202 6.50205 6.47210
#
# Compressibility (1/GPa) = 0.02401826
#
# Stress axis : x y z
#
# Youngs Moduli (GPa) = 44.58324 44.58324 70.35018
#
# Poissons Ratio (x) = 0.46050 0.25323
# Poissons Ratio (y) = 0.46050 0.25323
# Poissons Ratio (z) = 0.16048 0.16048
#
# Static dielectric constant tensor:
#      x y z
#    x 3.067570 0.000000 0.000000 
#    y 0.000000 3.067570 0.000000 
#    z 0.000000 0.000000 3.098040 
# 
# 
# High freq. dielectric constant tensor:
#      x y z
#    x 1.617320 0.000000 0.000000 
#    y 0.000000 1.617320 0.000000 
#    z 0.000000 0.000000 1.621400 
# 
# From -- ./inp_files/6800.got.cif
#   From: 2010.03.12/outbox.cif.g09.slc.cpg/sg123_4_cif.got.tgz:6800.got - 2010.04.06 16:26:55.
