data_PCOD8312220
_publ_section_title
;
Structure prediction by ZEFSAII (Michael W. Deem and Ramdas Pophale) SiO2 
 PCOD8312220
Probable space group: P 4/M M M
;
_chemical_formula_sum "Si O2"
_cell_formula_units_Z 80
_cell_length_a 24.270721
_cell_length_b 24.270721
_cell_length_c 9.186706
_cell_angle_alpha 90.000000
_cell_angle_beta 90.000000
_cell_angle_gamma 90.000000
_cell_volume 5411.593592
_symmetry_space_group_name_H-M "P 4/M M M"
_symmetry_group_IT_number 123
_symmetry_cell_setting 'tetragonal'
loop_
_space_group_symop_operation_xyz
x,y,z
-y,x,z
-x,-y,z
y,-x,z
x,-y,-z
-x,y,-z
y,x,-z
-y,-x,-z
-x,-y,-z
y,-x,-z
x,y,-z
-y,x,-z
-x,y,z
x,-y,z
-y,-x,z
y,x,z
loop_
_atom_site_type_symbol
_atom_site_label
_atom_site_fract_x
_atom_site_fract_y
_atom_site_fract_z
Si Si1 0.710524 0.000000 0.661037
Si Si2 0.112074 0.561946 0.832279
Si Si3 0.656936 0.807930 0.162594
Si Si4 0.000000 0.582042 0.661714
Si Si5 0.175934 0.824067 0.336136
Si Si6 0.102399 0.248668 0.837421
Si Si7 0.731055 0.268946 0.664108
O O1 0.726224 0.947423 0.751406
O O2 0.737970 0.000000 0.500000
O O3 0.646254 0.000000 0.642738
O O4 0.135906 0.500000 0.820057
O O5 0.158995 0.604029 0.770934
O O6 0.054798 0.563871 0.746066
O O7 0.099523 0.578109 0.000000
O O8 0.707458 0.849307 0.155368
O O9 0.675702 0.755031 0.258293
O O10 0.642832 0.786547 0.000000
O O11 0.000000 0.555050 0.500000
O O12 0.159745 0.840256 0.500000
O O13 0.121924 0.804552 0.251011
O O14 0.222490 0.777511 0.336264
O O15 0.084465 0.231318 0.000000
O O16 0.714741 0.285260 0.500000
#
# Coordination Sequence:
#
# PCOD8312220 Si02
#       7
#     8  16  16   8   8  16   8
#     4  11  21  30  42  61  84 111 139 174 217 256
#     4  10  20  33  47  61  80 111 150 187 220 254
#     4   9  17  29  44  61  81 105 136 174 213 253
#     4  11  22  32  43  58  82 112 147 187 225 256
#     4   9  17  29  43  61  85 106 126 161 208 256
#     4  10  18  29  45  62  80 106 138 170 206 253
#     4   9  17  27  43  63  81 103 130 165 210 259
#
# _framework density 14.783075999999999
#
# number of rings (size 3 to 8) (size 9 to 14) (size 15 to 20)
#    0.000    2.200    2.000    2.100    0.000    6.400 
#    0.000    0.000    0.000    0.000    0.000    0.000 
#    0.000    0.400    0.000    4.000    0.000    2.900 
#
# Total GULP energy -991531.253483 kJ/mol
# GULP energy per Si atom -12394.140669 kJ/mol
# Density = 1.474943 g / cm^3
# Si number density = 14.783076 Si / 1000 Ang^3
#
#
#
# Elastic Constant Matrix: (Units=GPa)
#
#
# Indices 1 2 3 4 5 6 
#
# 1 49.4044 36.1364 33.4362 0.0000 0.0000 0.0000
# 2 36.1364 49.4042 33.4362 0.0000 0.0000 0.0000
# 3 33.4362 33.4362 110.1930 0.0000 0.0000 0.0000
# 4 0.0000 0.0000 0.0000 16.4195 0.0000 0.0000
# 5 0.0000 0.0000 0.0000 0.0000 16.4195 0.0000
# 6 0.0000 0.0000 0.0000 0.0000 0.0000 18.1651
#
#
#
# Elastic Compliance Matrix: (Units=1/GPa)
#
#
# Indices 1 2 3 4 5 6 
#
# 1 0.045348 -0.030022 -0.004650 0.000000 0.000000 0.000000
# 2 -0.030022 0.045348 -0.004650 0.000000 0.000000 0.000000
# 3 -0.004650 -0.004650 0.011897 0.000000 0.000000 0.000000
# 4 0.000000 0.000000 0.000000 0.060903 0.000000 0.000000
# 5 0.000000 0.000000 0.000000 0.000000 0.060903 0.000000
# 6 0.000000 0.000000 0.000000 0.000000 0.000000 0.055051
#
#
# Mechanical properties :
#
#
# Convention : Reuss Voigt Hill
#
# Bulk Modulus (GPa) = 41.75833 46.11325 43.93579
# Shear Modulus (GPa) = 13.65829 17.26700 15.46264
#
# Velocity S-wave (km/s) = 3.04289 3.42135 3.23765
# Velocity P-wave (km/s) = 6.37607 6.84605 6.61524
#
# Compressibility (1/GPa) = 0.02394732
#
# Stress axis : x y z
#
# Youngs Moduli (GPa) = 22.05180 22.05167 84.05388
#
# Poissons Ratio (x) = 0.66204 0.39088
# Poissons Ratio (y) = 0.66204 0.39088
# Poissons Ratio (z) = 0.10255 0.10255
#
# Static dielectric constant tensor:
#      x y z
#    x 2.678700 0.000000 0.000000 
#    y 0.000000 2.678700 0.000000 
#    z 0.000000 0.000000 3.217380 
# 
# 
# High freq. dielectric constant tensor:
#      x y z
#    x 1.534460 0.000000 0.000000 
#    y 0.000000 1.534460 0.000000 
#    z 0.000000 0.000000 1.582320 
# 
# From -- ./inp_files/1517.got.cif
#   From: 2010.03.12/outbox.cif.g09.slc.cpg/sg123_1_cif.got.tgz:1517.got - 2010.04.06 16:26:55.
