data_PCOD8312730
_publ_section_title
;
Structure prediction by ZEFSAII (Michael W. Deem and Ramdas Pophale) SiO2 
 PCOD8312730
Probable space group: P 4/M M M
;
_chemical_formula_sum "Si O2"
_cell_formula_units_Z 112
_cell_length_a 14.116877
_cell_length_b 14.116877
_cell_length_c 35.411118
_cell_angle_alpha 90.000000
_cell_angle_beta 90.000000
_cell_angle_gamma 90.000000
_cell_volume 7056.947719
_symmetry_space_group_name_H-M "P 4/M M M"
_symmetry_group_IT_number 123
_symmetry_cell_setting 'tetragonal'
loop_
_space_group_symop_operation_xyz
x,y,z
-y,x,z
-x,-y,z
y,-x,z
x,-y,-z
-x,y,-z
y,x,-z
-y,-x,-z
-x,-y,-z
y,-x,-z
x,y,-z
-y,x,-z
-x,y,z
x,-y,z
-y,-x,z
y,x,z
loop_
_atom_site_type_symbol
_atom_site_label
_atom_site_fract_x
_atom_site_fract_y
_atom_site_fract_z
Si Si1 0.889177 0.265461 0.762456
Si Si2 0.892644 0.609744 0.889344
Si Si3 0.738924 0.108620 0.042235
Si Si4 0.761353 0.609131 0.542211
Si Si5 0.768932 0.387281 0.182755
Si Si6 0.107790 0.259132 0.676268
Si Si7 0.608988 0.109527 0.390250
O O1 0.833583 0.166418 0.770466
O O2 0.841069 0.351384 0.785131
O O3 0.878841 0.296205 0.718875
O O4 0.000000 0.252426 0.773633
O O5 0.887777 0.500000 0.898491
O O6 0.859959 0.660320 0.927718
O O7 0.819531 0.637260 0.856644
O O8 0.000000 0.638776 0.877431
O O9 0.834186 0.165815 0.049996
O O10 0.767100 0.000000 0.047555
O O11 0.698946 0.127923 0.000000
O O12 0.802622 0.626044 0.500000
O O13 0.737357 0.500000 0.548985
O O14 0.663619 0.663619 0.548188
O O15 0.837480 0.646513 0.572450
O O16 0.750806 0.500000 0.187648
O O17 0.668731 0.331270 0.184834
O O18 0.162702 0.162702 0.669149
O O19 0.145662 0.338196 0.647318
O O20 0.000000 0.233983 0.667779
O O21 0.500000 0.131674 0.382759
O O22 0.627825 0.000000 0.397932
#
# Coordination Sequence:
#
# PCOD8312730 Si02
#       7
#    16  16  16  16  16  16  16
#     4   9  18  31  47  69  94 119 148 180 216 260
#     4   9  17  29  46  67  88 111 141 178 221 265
#     4   9  17  28  42  61  86 116 147 178 212 251
#     4   9  17  28  42  60  81 106 136 170 209 252
#     4  10  20  33  49  68  90 117 149 185 224 265
#     4   9  17  29  45  65  89 115 142 173 208 247
#     4   9  17  28  42  61  84 110 140 173 209 247
#
# _framework density 15.870884999999999
#
# number of rings (size 3 to 8) (size 9 to 14) (size 15 to 20)
#    0.000    2.857    0.000    1.286    0.000    2.714 
#    0.000    7.143    0.000    0.000    0.000    2.000 
#    0.000    3.429    0.000   26.571    0.000    0.714 
#
# Total GULP energy -1388416.060917 kJ/mol
# GULP energy per Si atom -12396.571972 kJ/mol
# Density = 1.583476 g / cm^3
# Si number density = 15.870885 Si / 1000 Ang^3
#
#
#
# Elastic Constant Matrix: (Units=GPa)
#
#
# Indices 1 2 3 4 5 6 
#
# 1 78.2689 49.3928 60.7152 0.0000 0.0000 0.0000
# 2 49.3928 78.2689 60.7152 0.0000 0.0000 0.0000
# 3 60.7152 60.7152 116.3878 0.0000 0.0000 0.0000
# 4 0.0000 0.0000 0.0000 26.8524 0.0000 0.0000
# 5 0.0000 0.0000 0.0000 0.0000 26.8524 0.0000
# 6 0.0000 0.0000 0.0000 0.0000 0.0000 22.2718
#
#
#
# Elastic Compliance Matrix: (Units=1/GPa)
#
#
# Indices 1 2 3 4 5 6 
#
# 1 0.025089 -0.009541 -0.008111 0.000000 0.000000 0.000000
# 2 -0.009541 0.025089 -0.008111 0.000000 0.000000 0.000000
# 3 -0.008111 -0.008111 0.017054 0.000000 0.000000 0.000000
# 4 0.000000 0.000000 0.000000 0.037241 0.000000 0.000000
# 5 0.000000 0.000000 0.000000 0.000000 0.037241 0.000000
# 6 0.000000 0.000000 0.000000 0.000000 0.000000 0.044900
#
#
# Mechanical properties :
#
#
# Convention : Reuss Voigt Hill
#
# Bulk Modulus (GPa) = 63.66574 68.28577 65.97576
# Shear Modulus (GPa) = 20.54434 22.00215 21.27324
#
# Velocity S-wave (km/s) = 3.60177 3.72737 3.66511
# Velocity P-wave (km/s) = 7.58280 7.85135 7.71824
#
# Compressibility (1/GPa) = 0.01570704
#
# Stress axis : x y z
#
# Youngs Moduli (GPa) = 39.85742 39.85742 58.63630
#
# Poissons Ratio (x) = 0.38029 0.47559
# Poissons Ratio (y) = 0.38029 0.47559
# Poissons Ratio (z) = 0.32328 0.32328
#
# Static dielectric constant tensor:
#      x y z
#    x 2.965360 0.000000 0.000000 
#    y 0.000000 2.965360 0.000000 
#    z 0.000000 0.000000 3.254270 
# 
# 
# High freq. dielectric constant tensor:
#      x y z
#    x 1.600880 0.000000 0.000000 
#    y 0.000000 1.600880 0.000000 
#    z 0.000000 0.000000 1.621060 
# 
# From -- ./inp_files/8725.got.cif
#   From: 2010.03.12/outbox.cif.g09.slc.cpg/sg123_5_cif.got.tgz:8725.got - 2010.04.06 16:26:55.
