data_PCOD8312276
_publ_section_title
;
Structure prediction by ZEFSAII (Michael W. Deem and Ramdas Pophale) SiO2 
 PCOD8312276
Probable space group: P 4/M M M
;
_chemical_formula_sum "Si O2"
_cell_formula_units_Z 56
_cell_length_a 18.015430
_cell_length_b 18.015430
_cell_length_c 9.152052
_cell_angle_alpha 90.000000
_cell_angle_beta 90.000000
_cell_angle_gamma 90.000000
_cell_volume 2970.350809
_symmetry_space_group_name_H-M "P 4/M M M"
_symmetry_group_IT_number 123
_symmetry_cell_setting 'tetragonal'
loop_
_space_group_symop_operation_xyz
x,y,z
-y,x,z
-x,-y,z
y,-x,z
x,-y,-z
-x,y,-z
y,x,-z
-y,-x,-z
-x,-y,-z
y,-x,-z
x,y,-z
-y,x,-z
-x,y,z
x,-y,z
-y,-x,z
y,x,z
loop_
_atom_site_type_symbol
_atom_site_label
_atom_site_fract_x
_atom_site_fract_y
_atom_site_fract_z
Si Si1 0.415846 0.297244 0.826091
Si Si2 0.803111 0.917657 0.172609
Si Si3 0.000000 0.414305 0.340074
Si Si4 0.354370 0.860539 0.828005
O O1 0.500000 0.308666 0.768361
O O2 0.363961 0.363961 0.765579
O O3 0.384173 0.218465 0.769571
O O4 0.414388 0.297713 0.000000
O O5 0.875750 0.875750 0.235141
O O6 0.732262 0.867500 0.211653
O O7 0.797014 0.000000 0.243076
O O8 0.809505 0.925752 0.000000
O O9 0.926732 0.396204 0.250181
O O10 0.000000 0.500000 0.368743
O O11 0.000000 0.374341 0.500000
O O12 0.368767 0.868654 0.000000
#
# Coordination Sequence:
#
# PCOD8312276 Si02
#       4
#    16  16   8  16
#     4   9  17  28  45  72 104 137 172 211 254 300
#     4   9  16  26  43  70 101 130 162 203 248 288
#     4  11  23  35  49  73 104 133 160 200 255 307
#     4  10  18  32  52  75 100 130 170 208 247 297
#
# _framework density 18.852992
#
# number of rings (size 3 to 8) (size 9 to 14) (size 15 to 20)
#    0.000    2.429    1.429    2.143    0.000    6.286 
#    0.000    2.857    0.000    3.429    0.000    0.000 
#    0.000    1.143    0.000    6.000    0.000    5.714 
#
# Total GULP energy -694107.599489 kJ/mol
# GULP energy per Si atom -12394.778562 kJ/mol
# Density = 1.881008 g / cm^3
# Si number density = 18.852992 Si / 1000 Ang^3
#
#
#
# Elastic Constant Matrix: (Units=GPa)
#
#
# Indices 1 2 3 4 5 6 
#
# 1 161.6871 102.6189 20.6586 0.0000 0.0000 0.0000
# 2 102.6189 161.6871 20.6586 0.0000 0.0000 0.0000
# 3 20.6586 20.6586 23.4743 0.0000 0.0000 0.0000
# 4 0.0000 0.0000 0.0000 4.8099 0.0000 0.0000
# 5 0.0000 0.0000 0.0000 0.0000 4.8099 0.0000
# 6 0.0000 0.0000 0.0000 0.0000 0.0000 36.3264
#
#
#
# Elastic Compliance Matrix: (Units=1/GPa)
#
#
# Indices 1 2 3 4 5 6 
#
# 1 0.010658 -0.006271 -0.003861 0.000000 0.000000 0.000000
# 2 -0.006271 0.010658 -0.003861 0.000000 0.000000 0.000000
# 3 -0.003861 -0.003861 0.049395 0.000000 0.000000 0.000000
# 4 0.000000 0.000000 0.000000 0.207903 0.000000 0.000000
# 5 0.000000 0.000000 0.000000 0.000000 0.207903 0.000000
# 6 0.000000 0.000000 0.000000 0.000000 0.000000 0.027528
#
#
# Mechanical properties :
#
#
# Convention : Reuss Voigt Hill
#
# Bulk Modulus (GPa) = 23.40493 70.52452 46.96473
# Shear Modulus (GPa) = 8.98838 22.71674 15.85256
#
# Velocity S-wave (km/s) = 2.18586 3.47499 2.90289
# Velocity P-wave (km/s) = 4.33728 7.32049 6.01671
#
# Compressibility (1/GPa) = 0.04272604
#
# Stress axis : x y z
#
# Youngs Moduli (GPa) = 93.82350 93.82350 20.24485
#
# Poissons Ratio (x) = 0.58839 0.07816
# Poissons Ratio (y) = 0.58839 0.07816
# Poissons Ratio (z) = 0.36224 0.36224
#
# Static dielectric constant tensor:
#      x y z
#    x 3.733620 0.000000 0.000000 
#    y 0.000000 3.733620 0.000000 
#    z 0.000000 0.000000 2.927400 
# 
# 
# High freq. dielectric constant tensor:
#      x y z
#    x 1.745080 0.000000 0.000000 
#    y 0.000000 1.745080 0.000000 
#    z 0.000000 0.000000 1.658180 
# 
# From -- ./inp_files/589.got.cif
#   From: 2010.03.12/outbox.cif.g09.slc.cpg/sg123_1_cif.got.tgz:589.got - 2010.04.06 16:26:55.
