data_PCOD8312966
_publ_section_title
;
Structure prediction by ZEFSAII (Michael W. Deem and Ramdas Pophale) SiO2 
 PCOD8312966
Probable space group: P 4/M M M
;
_chemical_formula_sum "Si O2"
_cell_formula_units_Z 64
_cell_length_a 14.540433
_cell_length_b 14.540433
_cell_length_c 20.578154
_cell_angle_alpha 90.000000
_cell_angle_beta 90.000000
_cell_angle_gamma 90.000000
_cell_volume 4350.719579
_symmetry_space_group_name_H-M "P 4/M M M"
_symmetry_group_IT_number 123
_symmetry_cell_setting 'tetragonal'
loop_
_space_group_symop_operation_xyz
x,y,z
-y,x,z
-x,-y,z
y,-x,z
x,-y,-z
-x,y,-z
y,x,-z
-y,-x,-z
-x,-y,-z
y,-x,-z
x,y,-z
-y,x,-z
-x,y,z
x,-y,z
-y,-x,z
y,x,z
loop_
_atom_site_type_symbol
_atom_site_label
_atom_site_fract_x
_atom_site_fract_y
_atom_site_fract_z
Si Si1 0.605552 0.246724 0.756136
Si Si2 0.897327 0.608556 0.500000
Si Si3 0.610170 0.897356 0.860601
Si Si4 0.606057 0.243594 0.608124
Si Si5 0.399451 0.109137 0.000000
O O1 0.500000 0.268047 0.772131
O O2 0.658803 0.341198 0.767990
O O3 0.646243 0.169017 0.803860
O O4 0.618138 0.211393 0.682496
O O5 0.907900 0.500000 0.500000
O O6 0.841315 0.640176 0.563931
O O7 0.000000 0.653068 0.500000
O O8 0.500000 0.897829 0.863583
O O9 0.649660 0.863213 0.931531
O O10 0.646161 0.000000 0.844832
O O11 0.500000 0.269339 0.592941
O O12 0.666264 0.333737 0.592536
O O13 0.500000 0.155746 0.000000
O O14 0.410557 0.000000 0.000000
#
# Coordination Sequence:
#
# PCOD8312966 Si02
#       5
#    16   8  16  16   8
#     4   9  17  27  38  54  77 105 135 163 189 219
#     4   9  17  28  41  57  77  99 121 149 191 238
#     4   8  13  22  37  55  73  94 123 161 202 237
#     4   9  17  28  41  57  78 104 133 163 190 218
#     4   7  10  18  33  52  71  91 119 157 199 237
#
# _framework density 14.71021
#
# number of rings (size 3 to 8) (size 9 to 14) (size 15 to 20)
#    0.000    3.500    0.000    1.875    0.000    1.500 
#    0.000    8.125    0.000    2.250    0.000    0.000 
#    0.000    9.500    0.000   11.000    0.000    8.000 
#
# Total GULP energy -792860.548469 kJ/mol
# GULP energy per Si atom -12388.446070 kJ/mol
# Density = 1.467673 g / cm^3
# Si number density = 14.710210 Si / 1000 Ang^3
#
#
#
# Elastic Constant Matrix: (Units=GPa)
#
#
# Indices 1 2 3 4 5 6 
#
# 1 59.0417 30.6667 50.4873 0.0000 0.0000 0.0000
# 2 30.6667 59.0417 50.4873 0.0000 0.0000 0.0000
# 3 50.4873 50.4873 123.9676 0.0000 0.0000 0.0000
# 4 0.0000 0.0000 0.0000 17.7912 0.0000 0.0000
# 5 0.0000 0.0000 0.0000 0.0000 17.7912 0.0000
# 6 0.0000 0.0000 0.0000 0.0000 0.0000 2.3744
#
#
#
# Elastic Compliance Matrix: (Units=1/GPa)
#
#
# Indices 1 2 3 4 5 6 
#
# 1 0.027912 -0.007330 -0.008382 0.000000 0.000000 0.000000
# 2 -0.007330 0.027912 -0.008382 0.000000 0.000000 0.000000
# 3 -0.008382 -0.008382 0.014894 0.000000 0.000000 0.000000
# 4 0.000000 0.000000 0.000000 0.056208 0.000000 0.000000
# 5 0.000000 0.000000 0.000000 0.000000 0.056208 0.000000
# 6 0.000000 0.000000 0.000000 0.000000 0.000000 0.421157
#
#
# Mechanical properties :
#
#
# Convention : Reuss Voigt Hill
#
# Bulk Modulus (GPa) = 44.38651 56.14818 50.26735
# Shear Modulus (GPa) = 7.57586 14.95200 11.26393
#
# Velocity S-wave (km/s) = 2.27184 3.19162 2.77017
# Velocity P-wave (km/s) = 6.09271 7.19960 6.66916
#
# Compressibility (1/GPa) = 0.02252937
#
# Stress axis : x y z
#
# Youngs Moduli (GPa) = 35.82644 35.82644 67.13977
#
# Poissons Ratio (x) = 0.26261 0.56279
# Poissons Ratio (y) = 0.26261 0.56279
# Poissons Ratio (z) = 0.30031 0.30031
#
# Static dielectric constant tensor:
#      x y z
#    x 2.618770 0.000000 0.000000 
#    y 0.000000 2.618770 0.000000 
#    z 0.000000 0.000000 3.289180 
# 
# 
# High freq. dielectric constant tensor:
#      x y z
#    x 1.521810 0.000000 0.000000 
#    y 0.000000 1.521810 0.000000 
#    z 0.000000 0.000000 1.586680 
# 
# From -- ./inp_files/6214.got.cif
#   From: 2010.03.12/outbox.cif.g09.slc.cpg/sg123_4_cif.got.tgz:6214.got - 2010.04.06 16:26:55.
