data_PCOD8312791
_publ_section_title
;
Structure prediction by ZEFSAII (Michael W. Deem and Ramdas Pophale) SiO2 
 PCOD8312791
Probable space group: P 4/M M M
;
_chemical_formula_sum "Si O2"
_cell_formula_units_Z 56
_cell_length_a 13.295675
_cell_length_b 13.295675
_cell_length_c 17.823174
_cell_angle_alpha 90.000000
_cell_angle_beta 90.000000
_cell_angle_gamma 90.000000
_cell_volume 3150.691115
_symmetry_space_group_name_H-M "P 4/M M M"
_symmetry_group_IT_number 123
_symmetry_cell_setting 'tetragonal'
loop_
_space_group_symop_operation_xyz
x,y,z
-y,x,z
-x,-y,z
y,-x,z
x,-y,-z
-x,y,-z
y,x,-z
-y,-x,-z
-x,-y,-z
y,-x,-z
x,y,-z
-y,x,-z
-x,y,z
x,-y,z
-y,-x,z
y,x,z
loop_
_atom_site_type_symbol
_atom_site_label
_atom_site_fract_x
_atom_site_fract_y
_atom_site_fract_z
Si Si1 0.777295 0.615276 0.414283
Si Si2 0.779660 0.617659 0.150490
Si Si3 0.380735 0.887855 0.000000
Si Si4 0.281213 0.116107 0.284048
O O1 0.813712 0.625997 0.500000
O O2 0.759583 0.500000 0.391701
O O3 0.671489 0.671489 0.400740
O O4 0.863264 0.664282 0.363138
O O5 0.755869 0.500000 0.148416
O O6 0.674337 0.674337 0.162932
O O7 0.855781 0.641710 0.217901
O O8 0.829502 0.656517 0.073573
O O9 0.500000 0.895244 0.000000
O O10 0.334077 0.000000 0.000000
O O11 0.178492 0.178492 0.276160
O O12 0.252198 0.000000 0.279141
#
# Coordination Sequence:
#
# PCOD8312791 Si02
#       4
#    16  16   8  16
#     4   9  18  32  50  74 103 133 165 200 239 287
#     4  10  20  33  50  74 103 134 168 204 244 294
#     4   9  17  30  49  71  95 127 167 207 244 281
#     4  10  21  36  53  73  97 126 163 207 252 298
#
# _framework density 17.773878
#
# number of rings (size 3 to 8) (size 9 to 14) (size 15 to 20)
#    0.000    2.429    0.000    2.143    0.000    4.857 
#    0.000    2.857    0.000    7.714    0.000    4.000 
#    0.000   10.286    0.000    0.000    0.000    0.000 
#
# Total GULP energy -694531.616647 kJ/mol
# GULP energy per Si atom -12402.350297 kJ/mol
# Density = 1.773342 g / cm^3
# Si number density = 17.773878 Si / 1000 Ang^3
#
#
#
# Elastic Constant Matrix: (Units=GPa)
#
#
# Indices 1 2 3 4 5 6 
#
# 1 106.7975 39.2081 40.8716 0.0000 0.0000 0.0000
# 2 39.2081 106.7975 40.8716 0.0000 0.0000 0.0000
# 3 40.8716 40.8716 106.4553 0.0000 0.0000 0.0000
# 4 0.0000 0.0000 0.0000 23.5178 0.0000 0.0000
# 5 0.0000 0.0000 0.0000 0.0000 23.5178 0.0000
# 6 0.0000 0.0000 0.0000 0.0000 0.0000 11.2076
#
#
#
# Elastic Compliance Matrix: (Units=1/GPa)
#
#
# Indices 1 2 3 4 5 6 
#
# 1 0.011760 -0.003035 -0.003350 0.000000 0.000000 0.000000
# 2 -0.003035 0.011760 -0.003350 0.000000 0.000000 0.000000
# 3 -0.003350 -0.003350 0.011966 0.000000 0.000000 0.000000
# 4 0.000000 0.000000 0.000000 0.042521 0.000000 0.000000
# 5 0.000000 0.000000 0.000000 0.000000 0.042521 0.000000
# 6 0.000000 0.000000 0.000000 0.000000 0.000000 0.089225
#
#
# Mechanical properties :
#
#
# Convention : Reuss Voigt Hill
#
# Bulk Modulus (GPa) = 62.43721 62.43920 62.43821
# Shear Modulus (GPa) = 21.31653 24.92191 23.11922
#
# Velocity S-wave (km/s) = 3.46687 3.74861 3.61049
# Velocity P-wave (km/s) = 7.15755 7.34453 7.25164
#
# Compressibility (1/GPa) = 0.01601609
#
# Stress axis : x y z
#
# Youngs Moduli (GPa) = 85.03557 85.03557 83.57273
#
# Poissons Ratio (x) = 0.25812 0.27993
# Poissons Ratio (y) = 0.25812 0.27993
# Poissons Ratio (z) = 0.28483 0.28483
#
# Static dielectric constant tensor:
#      x y z
#    x 3.116070 0.000000 0.000000 
#    y 0.000000 3.116070 0.000000 
#    z 0.000000 0.000000 3.571040 
# 
# 
# High freq. dielectric constant tensor:
#      x y z
#    x 1.675090 0.000000 0.000000 
#    y 0.000000 1.675090 0.000000 
#    z 0.000000 0.000000 1.708080 
# 
# From -- ./inp_files/6113.got.cif
#   From: 2010.03.12/outbox.cif.g09.slc.cpg/sg123_4_cif.got.tgz:6113.got - 2010.04.06 16:26:55.
