data_PCOD8312774
_publ_section_title
;
Structure prediction by ZEFSAII (Michael W. Deem and Ramdas Pophale) SiO2 
 PCOD8312774
Probable space group: P 4/M M M
;
_chemical_formula_sum "Si O2"
_cell_formula_units_Z 104
_cell_length_a 13.761344
_cell_length_b 13.761344
_cell_length_c 33.648299
_cell_angle_alpha 90.000000
_cell_angle_beta 90.000000
_cell_angle_gamma 90.000000
_cell_volume 6372.132783
_symmetry_space_group_name_H-M "P 4/M M M"
_symmetry_group_IT_number 123
_symmetry_cell_setting 'tetragonal'
loop_
_space_group_symop_operation_xyz
x,y,z
-y,x,z
-x,-y,z
y,-x,z
x,-y,-z
-x,y,-z
y,x,-z
-y,-x,-z
-x,-y,-z
y,-x,-z
x,y,-z
-y,x,-z
-x,y,z
x,-y,z
-y,-x,z
y,x,z
loop_
_atom_site_type_symbol
_atom_site_label
_atom_site_fract_x
_atom_site_fract_y
_atom_site_fract_z
Si Si1 0.726345 0.115469 0.645109
Si Si2 0.388159 0.234639 0.114504
Si Si3 0.609144 0.113488 0.277400
Si Si4 0.891923 0.615256 0.043453
Si Si5 0.615770 0.224542 0.578274
Si Si6 0.109197 0.385488 0.500000
Si Si7 0.388513 0.232130 0.202322
O O1 0.829275 0.170726 0.639544
O O2 0.683213 0.143044 0.688007
O O3 0.647132 0.153042 0.613657
O O4 0.742742 0.000000 0.639926
O O5 0.500000 0.252611 0.105388
O O6 0.339815 0.339815 0.113348
O O7 0.340199 0.168895 0.079974
O O8 0.371540 0.186460 0.158175
O O9 0.500000 0.150150 0.288016
O O10 0.646557 0.156898 0.235761
O O11 0.608222 0.000000 0.271195
O O12 0.896303 0.500000 0.047846
O O13 0.000000 0.658490 0.046649
O O14 0.847549 0.643096 0.000000
O O15 0.500000 0.244694 0.580081
O O16 0.672353 0.327648 0.580809
O O17 0.648178 0.169418 0.538327
O O18 0.098183 0.500000 0.500000
O O19 0.000000 0.339423 0.500000
O O20 0.500000 0.259801 0.208202
O O21 0.331636 0.331636 0.207930
#
# Coordination Sequence:
#
# PCOD8312774 Si02
#       7
#    16  16  16  16  16   8  16
#     4  10  20  33  50  71  94 122 155 191 233 280
#     4   9  17  27  39  57  81 110 141 170 202 242
#     4   9  17  29  46  67  88 111 142 181 225 270
#     4   8  14  25  40  56  74  98 129 166 207 246
#     4  10  20  33  50  73 100 130 164 200 239 283
#     4   9  17  30  49  71  95 125 161 199 234 269
#     4   9  17  28  41  58  82 111 142 175 208 245
#
# _framework density 16.321066999999999
#
# number of rings (size 3 to 8) (size 9 to 14) (size 15 to 20)
#    0.000    2.846    0.000    2.077    0.000    3.077 
#    0.000    4.615    0.000    1.385    0.000    4.308 
#    0.000    5.846    0.000    5.077    0.000    4.154 
#
# Total GULP energy -1288868.305137 kJ/mol
# GULP energy per Si atom -12392.964472 kJ/mol
# Density = 1.628392 g / cm^3
# Si number density = 16.321067 Si / 1000 Ang^3
#
#
#
# Elastic Constant Matrix: (Units=GPa)
#
#
# Indices 1 2 3 4 5 6 
#
# 1 65.2114 34.9294 47.8595 0.0000 0.0000 0.0000
# 2 34.9294 65.2114 47.8595 0.0000 0.0000 0.0000
# 3 47.8595 47.8595 140.7363 0.0000 0.0000 0.0000
# 4 0.0000 0.0000 0.0000 24.1424 0.0000 0.0000
# 5 0.0000 0.0000 0.0000 0.0000 24.1424 0.0000
# 6 0.0000 0.0000 0.0000 0.0000 0.0000 14.2038
#
#
#
# Elastic Compliance Matrix: (Units=1/GPa)
#
#
# Indices 1 2 3 4 5 6 
#
# 1 0.023909 -0.009114 -0.005031 0.000000 0.000000 0.000000
# 2 -0.009114 0.023909 -0.005031 0.000000 0.000000 0.000000
# 3 -0.005031 -0.005031 0.010527 0.000000 0.000000 0.000000
# 4 0.000000 0.000000 0.000000 0.041421 0.000000 0.000000
# 5 0.000000 0.000000 0.000000 0.000000 0.041421 0.000000
# 6 0.000000 0.000000 0.000000 0.000000 0.000000 0.070404
#
#
# Mechanical properties :
#
#
# Convention : Reuss Voigt Hill
#
# Bulk Modulus (GPa) = 50.01897 59.16174 54.59035
# Shear Modulus (GPa) = 19.48495 21.86508 20.67502
#
# Velocity S-wave (km/s) = 3.45897 3.66414 3.56303
# Velocity P-wave (km/s) = 6.83125 7.36401 7.10263
#
# Compressibility (1/GPa) = 0.01999242
#
# Stress axis : x y z
#
# Youngs Moduli (GPa) = 41.82529 41.82529 94.99020
#
# Poissons Ratio (x) = 0.38119 0.47792
# Poissons Ratio (y) = 0.38119 0.47792
# Poissons Ratio (z) = 0.21043 0.21043
#
# Static dielectric constant tensor:
#      x y z
#    x 2.934130 0.000000 0.000000 
#    y 0.000000 2.934130 0.000000 
#    z 0.000000 0.000000 3.474650 
# 
# 
# High freq. dielectric constant tensor:
#      x y z
#    x 1.606280 0.000000 0.000000 
#    y 0.000000 1.606280 0.000000 
#    z 0.000000 0.000000 1.650160 
# 
# From -- ./inp_files/8761.got.cif
#   From: 2010.03.12/outbox.cif.g09.slc.cpg/sg123_5_cif.got.tgz:8761.got - 2010.04.06 16:26:55.
