data_PCOD8312287
_publ_section_title
;
Structure prediction by ZEFSAII (Michael W. Deem and Ramdas Pophale) SiO2 
 PCOD8312287
Probable space group: P 4/M M M
;
_chemical_formula_sum "Si O2"
_cell_formula_units_Z 96
_cell_length_a 23.401269
_cell_length_b 23.401269
_cell_length_c 9.471328
_cell_angle_alpha 90.000000
_cell_angle_beta 90.000000
_cell_angle_gamma 90.000000
_cell_volume 5186.682870
_symmetry_space_group_name_H-M "P 4/M M M"
_symmetry_group_IT_number 123
_symmetry_cell_setting 'tetragonal'
loop_
_space_group_symop_operation_xyz
x,y,z
-y,x,z
-x,-y,z
y,-x,z
x,-y,-z
-x,y,-z
y,x,-z
-y,-x,-z
-x,-y,-z
y,-x,-z
x,y,-z
-y,x,-z
-x,y,z
x,-y,z
-y,-x,z
y,x,z
loop_
_atom_site_type_symbol
_atom_site_label
_atom_site_fract_x
_atom_site_fract_y
_atom_site_fract_z
Si Si1 0.436501 0.655768 0.659458
Si Si2 0.178653 0.669351 0.340642
Si Si3 0.000000 0.249101 0.331360
Si Si4 0.000000 0.629315 0.170824
Si Si5 0.725556 0.367102 0.847381
Si Si6 0.213158 0.877890 0.665077
Si Si7 0.095451 0.566682 0.660524
O O1 0.426777 0.676878 0.500000
O O2 0.500000 0.634548 0.687149
O O3 0.398026 0.601975 0.697102
O O4 0.423329 0.710379 0.757391
O O5 0.200024 0.679676 0.500000
O O6 0.231023 0.673021 0.235114
O O7 0.138893 0.722072 0.293004
O O8 0.150936 0.606638 0.326970
O O9 0.000000 0.308405 0.244170
O O10 0.055177 0.210013 0.289897
O O11 0.000000 0.264213 0.500000
O O12 0.946836 0.591593 0.222451
O O13 0.000000 0.635409 0.000000
O O14 0.668030 0.331971 0.868323
O O15 0.750635 0.385135 0.000000
O O16 0.204518 0.872802 0.500000
O O17 0.163669 0.836332 0.734692
O O18 0.070687 0.571797 0.500000
O O19 0.109832 0.500000 0.693735
#
# Coordination Sequence:
#
# PCOD8312287 Si02
#       7
#    16  16   8   8  16  16  16
#     4   9  18  33  53  75  97 124 162 209 262 320
#     4  10  19  33  54  77 104 136 180 232 271 310
#     4  10  18  35  59  81 114 149 185 228 274 327
#     4  12  23  35  54  79 111 145 182 222 268 318
#     4  10  21  35  50  71 102 137 169 205 258 320
#     4   9  17  30  54  85 110 139 182 228 271 319
#     4  10  21  37  56  77 103 141 187 226 265 315
#
# _framework density 18.508939999999999
#
# number of rings (size 3 to 8) (size 9 to 14) (size 15 to 20)
#    0.000    2.167    1.667    2.000    0.000    4.833 
#    0.000    2.500    0.000    0.750    0.000    4.083 
#    0.000    0.000    0.000    0.750    0.000    0.833 
#
# Total GULP energy -1189393.258607 kJ/mol
# GULP energy per Si atom -12389.513110 kJ/mol
# Density = 1.846681 g / cm^3
# Si number density = 18.508940 Si / 1000 Ang^3
#
#
#
# Elastic Constant Matrix: (Units=GPa)
#
#
# Indices 1 2 3 4 5 6 
#
# 1 109.2727 48.1450 39.4496 0.0000 0.0000 0.0000
# 2 48.1450 109.2727 39.4496 0.0000 0.0000 0.0000
# 3 39.4496 39.4496 94.3762 0.0000 0.0000 0.0000
# 4 0.0000 0.0000 0.0000 10.4329 0.0000 0.0000
# 5 0.0000 0.0000 0.0000 0.0000 10.4329 0.0000
# 6 0.0000 0.0000 0.0000 0.0000 0.0000 21.0768
#
#
#
# Elastic Compliance Matrix: (Units=1/GPa)
#
#
# Indices 1 2 3 4 5 6 
#
# 1 0.012198 -0.004162 -0.003359 0.000000 0.000000 0.000000
# 2 -0.004162 0.012198 -0.003359 0.000000 0.000000 0.000000
# 3 -0.003359 -0.003359 0.013404 0.000000 0.000000 0.000000
# 4 0.000000 0.000000 0.000000 0.095850 0.000000 0.000000
# 5 0.000000 0.000000 0.000000 0.000000 0.095850 0.000000
# 6 0.000000 0.000000 0.000000 0.000000 0.000000 0.047445
#
#
# Mechanical properties :
#
#
# Convention : Reuss Voigt Hill
#
# Bulk Modulus (GPa) = 62.34452 63.00112 62.67282
# Shear Modulus (GPa) = 16.44456 20.78037 18.61246
#
# Velocity S-wave (km/s) = 2.98395 3.35434 3.17455
# Velocity P-wave (km/s) = 6.75489 7.00815 6.88269
#
# Compressibility (1/GPa) = 0.01603990
#
# Stress axis : x y z
#
# Youngs Moduli (GPa) = 81.98284 81.98284 74.60369
#
# Poissons Ratio (x) = 0.34117 0.25060
# Poissons Ratio (y) = 0.34117 0.25060
# Poissons Ratio (z) = 0.27539 0.27539
#
# Static dielectric constant tensor:
#      x y z
#    x 3.463860 0.000000 0.000000 
#    y 0.000000 3.463860 0.000000 
#    z 0.000000 0.000000 3.440580 
# 
# 
# High freq. dielectric constant tensor:
#      x y z
#    x 1.710300 0.000000 0.000000 
#    y 0.000000 1.710300 0.000000 
#    z 0.000000 0.000000 1.695850 
# 
# From -- ./inp_files/1706.got.cif
#   From: 2010.03.12/outbox.cif.g09.slc.cpg/sg123_1_cif.got.tgz:1706.got - 2010.04.06 16:26:55.
