data_PCOD8312065
_publ_section_title
;
Structure prediction by ZEFSAII (Michael W. Deem and Ramdas Pophale) SiO2 
 PCOD8312065
Probable space group: I -4 2 D
;
_chemical_formula_sum "Si O2"
_cell_formula_units_Z 96
_cell_length_a 22.901523
_cell_length_b 22.901523
_cell_length_c 8.423025
_cell_angle_alpha 90.000000
_cell_angle_beta 90.000000
_cell_angle_gamma 90.000000
_cell_volume 4417.706094
_symmetry_space_group_name_H-M "I -4 2 D"
_symmetry_group_IT_number 122
_symmetry_cell_setting 'tetragonal'
loop_
_space_group_symop_operation_xyz
x,y,z
y,-x,-z
-x,-y,z
-y,x,-z
x,1/2-y,1/4-z
-x,1/2+y,1/4-z
-y,1/2-x,1/4+z
y,1/2+x,1/4+z
1/2+x,1/2+y,1/2+z
1/2+y,1/2-x,1/2-z
1/2-x,1/2-y,1/2+z
1/2-y,1/2+x,1/2-z
1/2+x,-y,3/4-z
1/2-x,y,3/4-z
1/2-y,-x,3/4+z
1/2+y,x,3/4+z
loop_
_atom_site_type_symbol
_atom_site_label
_atom_site_fract_x
_atom_site_fract_y
_atom_site_fract_z
Si Si1 0.843958 0.544512 0.721813
Si Si2 0.118286 0.750000 0.625000
Si Si3 0.083824 0.540563 0.220605
Si Si4 0.188828 0.538219 0.449587
Si Si5 0.250000 0.641352 0.875000
Si Si6 0.335138 0.286715 0.787318
Si Si7 0.867235 0.070187 0.354154
O O1 0.783493 0.577495 0.751611
O O2 0.837326 0.513621 0.553015
O O3 0.857426 0.497098 0.855038
O O4 0.896152 0.591669 0.729498
O O5 0.156498 0.794890 0.729739
O O6 0.071735 0.471597 0.197880
O O7 0.142307 0.553610 0.316411
O O8 0.095091 0.571743 0.054893
O O9 0.250000 0.517849 0.375000
O O10 0.197985 0.596344 0.555391
O O11 0.241943 0.680343 0.712231
O O12 0.194401 0.601695 0.913124
O O13 0.324977 0.250000 0.625000
#
# Coordination Sequence:
#
# PCOD8312065 Si02
#       7
#    16   8  16  16   8  16  16
#     4  12  26  45  72 102 140 186 238 297 356 435
#     4  12  27  46  72 110 134 186 255 292 356 448
#     4  11  26  43  71 103 140 184 238 298 358 431
#     4  11  24  47  68 104 141 184 234 292 369 425
#     4  12  23  50  72 104 142 194 233 290 382 418
#     4  11  26  47  74 100 147 188 234 304 358 429
#     4  12  26  45  71 102 142 188 236 295 361 434
#
# _framework density 21.730734999999999
#
# number of rings (size 3 to 8) (size 9 to 14) (size 15 to 20)
#    0.000    0.500    5.000    2.500    8.167    0.333 
#    3.000    0.000    0.000    0.000    0.000    0.000 
#    0.000    0.000    0.000    0.000    0.000    0.000 
#
# Total GULP energy -595205.457030 kJ/mol
# GULP energy per Si atom -12400.113688 kJ/mol
# Density = 2.168128 g / cm^3
# Si number density = 21.730735 Si / 1000 Ang^3
#
#
#
# Elastic Constant Matrix: (Units=GPa)
#
#
# Indices 1 2 3 4 5 6 
#
# 1 75.5788 30.1718 26.2793 0.0000 0.0000 0.0000
# 2 30.1718 75.5788 26.2793 0.0000 0.0000 0.0000
# 3 26.2793 26.2793 105.8417 0.0000 0.0000 0.0000
# 4 0.0000 0.0000 0.0000 33.8449 0.0000 0.0000
# 5 0.0000 0.0000 0.0000 0.0000 33.8449 0.0000
# 6 0.0000 0.0000 0.0000 0.0000 0.0000 31.1230
#
#
#
# Elastic Compliance Matrix: (Units=1/GPa)
#
#
# Indices 1 2 3 4 5 6 
#
# 1 0.016405 -0.005618 -0.002678 0.000000 0.000000 0.000000
# 2 -0.005618 0.016405 -0.002678 0.000000 0.000000 0.000000
# 3 -0.002678 -0.002678 0.010778 0.000000 0.000000 0.000000
# 4 0.000000 0.000000 0.000000 0.029547 0.000000 0.000000
# 5 0.000000 0.000000 0.000000 0.000000 0.029547 0.000000
# 6 0.000000 0.000000 0.000000 0.000000 0.000000 0.032131
#
#
# Mechanical properties :
#
#
# Convention : Reuss Voigt Hill
#
# Bulk Modulus (GPa) = 46.21215 46.94000 46.57607
# Shear Modulus (GPa) = 30.49255 31.38049 30.93652
#
# Velocity S-wave (km/s) = 3.74999 3.80420 3.77720
# Velocity P-wave (km/s) = 6.32945 6.39872 6.36418
#
# Compressibility (1/GPa) = 0.02163933
#
# Stress axis : x y z
#
# Youngs Moduli (GPa) = 60.95620 60.95620 92.78072
#
# Poissons Ratio (x) = 0.34244 0.24850
# Poissons Ratio (y) = 0.34244 0.24850
# Poissons Ratio (z) = 0.16326 0.16326
#
# Static dielectric constant tensor:
#      x y z
#    x 3.981790 0.000000 0.000000 
#    y 0.000000 3.981790 0.000000 
#    z 0.000000 0.000000 3.920500 
# 
# 
# High freq. dielectric constant tensor:
#      x y z
#    x 1.862210 0.000000 0.000000 
#    y 0.000000 1.862210 0.000000 
#    z 0.000000 0.000000 1.855770 
# 
# From -- ./inp_files/2963.got.cif
#   From: 2010.03.12/outbox.cif.g09.slc.cpg/sg122_2_cif.got.tgz:2963.got - 2010.04.06 16:17:16.
