data_PCOD8312861
_publ_section_title
;
Structure prediction by ZEFSAII (Michael W. Deem and Ramdas Pophale) SiO2 
 PCOD8312861
Probable space group: P 4/M M M
;
_chemical_formula_sum "Si O2"
_cell_formula_units_Z 120
_cell_length_a 21.411468
_cell_length_b 21.411468
_cell_length_c 14.792139
_cell_angle_alpha 90.000000
_cell_angle_beta 90.000000
_cell_angle_gamma 90.000000
_cell_volume 6781.470353
_symmetry_space_group_name_H-M "P 4/M M M"
_symmetry_group_IT_number 123
_symmetry_cell_setting 'tetragonal'
loop_
_space_group_symop_operation_xyz
x,y,z
-y,x,z
-x,-y,z
y,-x,z
x,-y,-z
-x,y,-z
y,x,-z
-y,-x,-z
-x,-y,-z
y,-x,-z
x,y,-z
-y,x,-z
-x,y,z
x,-y,z
-y,-x,z
y,x,z
loop_
_atom_site_type_symbol
_atom_site_label
_atom_site_fract_x
_atom_site_fract_y
_atom_site_fract_z
Si Si1 0.122608 0.639311 0.393405
Si Si2 0.745132 0.150059 0.101532
Si Si3 0.647399 0.247761 0.101978
Si Si4 0.929420 0.828290 0.780072
Si Si5 0.571920 0.755316 0.398283
Si Si6 0.117823 0.782410 0.601686
Si Si7 0.000000 0.428905 0.392083
Si Si8 0.572012 0.325967 0.767879
O O1 0.121876 0.629589 0.500000
O O2 0.186006 0.608888 0.355939
O O3 0.123737 0.711514 0.366709
O O4 0.061131 0.606048 0.352499
O O5 0.796441 0.203560 0.104194
O O6 0.678678 0.181157 0.130626
O O7 0.765748 0.095309 0.169805
O O8 0.739959 0.122592 0.000000
O O9 0.700072 0.299929 0.107538
O O10 0.591212 0.267900 0.167772
O O11 0.621178 0.242763 0.000000
O O12 0.888282 0.888282 0.808075
O O13 0.927429 0.817475 0.671835
O O14 0.000000 0.841822 0.809929
O O15 0.594568 0.738439 0.500000
O O16 0.500000 0.775218 0.398690
O O17 0.583224 0.695143 0.335571
O O18 0.089796 0.787958 0.500000
O O19 0.186691 0.813310 0.605975
O O20 0.000000 0.500000 0.357426
O O21 0.000000 0.426118 0.500000
O O22 0.500000 0.342597 0.786195
O O23 0.612100 0.387901 0.787611
#
# Coordination Sequence:
#
# PCOD8312861 Si02
#       8
#    16  16  16  16  16  16   8  16
#     4   9  17  28  45  67  91 123 159 199 247 299
#     4   8  15  30  52  76 100 125 154 194 246 297
#     4   8  15  30  52  75  98 124 155 195 245 301
#     4  10  21  34  50  72  99 133 170 210 253 299
#     4   9  18  32  47  66  96 131 168 210 251 293
#     4   9  19  33  46  65  94 126 164 211 258 299
#     4   9  16  26  42  66  94 124 156 188 236 307
#     4  10  21  34  50  73  99 132 172 214 260 308
#
# _framework density 17.695277999999998
#
# number of rings (size 3 to 8) (size 9 to 14) (size 15 to 20)
#    0.000    3.000    0.000    1.200    2.800    3.467 
#    0.000    1.333    0.000    0.000    0.000    7.467 
#    0.000    0.000    0.000    2.933    0.000    0.267 
#
# Total GULP energy -1487385.142452 kJ/mol
# GULP energy per Si atom -12394.876187 kJ/mol
# Density = 1.765500 g / cm^3
# Si number density = 17.695278 Si / 1000 Ang^3
#
#
#
# Elastic Constant Matrix: (Units=GPa)
#
#
# Indices 1 2 3 4 5 6 
#
# 1 94.1880 47.9290 32.1386 0.0000 0.0000 0.0000
# 2 47.9290 94.1880 32.1386 0.0000 0.0000 0.0000
# 3 32.1386 32.1386 71.2727 0.0000 0.0000 0.0000
# 4 0.0000 0.0000 0.0000 16.5237 0.0000 0.0000
# 5 0.0000 0.0000 0.0000 0.0000 16.5237 0.0000
# 6 0.0000 0.0000 0.0000 0.0000 0.0000 22.1712
#
#
#
# Elastic Compliance Matrix: (Units=1/GPa)
#
#
# Indices 1 2 3 4 5 6 
#
# 1 0.015228 -0.006389 -0.003986 0.000000 0.000000 0.000000
# 2 -0.006389 0.015228 -0.003986 0.000000 0.000000 0.000000
# 3 -0.003986 -0.003986 0.017625 0.000000 0.000000 0.000000
# 4 0.000000 0.000000 0.000000 0.060519 0.000000 0.000000
# 5 0.000000 0.000000 0.000000 0.000000 0.060519 0.000000
# 6 0.000000 0.000000 0.000000 0.000000 0.000000 0.045103
#
#
# Mechanical properties :
#
#
# Convention : Reuss Voigt Hill
#
# Bulk Modulus (GPa) = 51.65196 53.78457 52.71826
# Shear Modulus (GPa) = 20.04825 20.87322 20.46073
#
# Velocity S-wave (km/s) = 3.36962 3.43825 3.40410
# Velocity P-wave (km/s) = 6.66274 6.79874 6.73109
#
# Compressibility (1/GPa) = 0.01936035
#
# Stress axis : x y z
#
# Youngs Moduli (GPa) = 65.66725 65.66725 56.73687
#
# Poissons Ratio (x) = 0.41956 0.22614
# Poissons Ratio (y) = 0.41956 0.22614
# Poissons Ratio (z) = 0.26174 0.26174
#
# Static dielectric constant tensor:
#      x y z
#    x 3.193170 0.000000 0.000000 
#    y 0.000000 3.193170 0.000000 
#    z 0.000000 0.000000 3.261850 
# 
# 
# High freq. dielectric constant tensor:
#      x y z
#    x 1.667730 0.000000 0.000000 
#    y 0.000000 1.667730 0.000000 
#    z 0.000000 0.000000 1.668960 
# 
# From -- ./inp_files/4576.got.cif
#   From: 2010.03.12/outbox.cif.g09.slc.cpg/sg123_3_cif.got.tgz:4576.got - 2010.04.06 16:26:55.
