data_PCOD8312316
_publ_section_title
;
Structure prediction by ZEFSAII (Michael W. Deem and Ramdas Pophale) SiO2 
 PCOD8312316
Probable space group: P 4/M M M
;
_chemical_formula_sum "Si O2"
_cell_formula_units_Z 96
_cell_length_a 21.358274
_cell_length_b 21.358274
_cell_length_c 14.393262
_cell_angle_alpha 90.000000
_cell_angle_beta 90.000000
_cell_angle_gamma 90.000000
_cell_volume 6565.858790
_symmetry_space_group_name_H-M "P 4/M M M"
_symmetry_group_IT_number 123
_symmetry_cell_setting 'tetragonal'
loop_
_space_group_symop_operation_xyz
x,y,z
-y,x,z
-x,-y,z
y,-x,z
x,-y,-z
-x,y,-z
y,x,-z
-y,-x,-z
-x,-y,-z
y,-x,-z
x,y,-z
-y,x,-z
-x,y,z
x,-y,z
-y,-x,z
y,x,z
loop_
_atom_site_type_symbol
_atom_site_label
_atom_site_fract_x
_atom_site_fract_y
_atom_site_fract_z
Si Si1 0.700015 0.197651 0.396288
Si Si2 0.259520 0.845974 0.104670
Si Si3 0.761889 0.069678 0.396135
Si Si4 0.673343 0.428359 0.107255
Si Si5 0.170967 0.929344 0.787831
Si Si6 0.240003 0.343958 0.789240
O O1 0.673341 0.210168 0.500000
O O2 0.766557 0.233444 0.382392
O O3 0.710349 0.123702 0.379370
O O4 0.650423 0.223444 0.320602
O O5 0.207773 0.792228 0.107191
O O6 0.233084 0.906166 0.158734
O O7 0.322507 0.822033 0.155267
O O8 0.276548 0.865357 0.000000
O O9 0.790072 0.077711 0.500000
O O10 0.817910 0.076695 0.322658
O O11 0.731104 0.000000 0.385130
O O12 0.656766 0.500000 0.128801
O O13 0.611798 0.388203 0.132328
O O14 0.733065 0.408976 0.170656
O O15 0.692416 0.418259 0.000000
O O16 0.110711 0.889290 0.816691
O O17 0.157350 0.000000 0.818457
O O18 0.293162 0.293162 0.807728
#
# Coordination Sequence:
#
# PCOD8312316 Si02
#       6
#    16  16  16  16  16  16
#     4   9  15  23  38  59  82 106 133 168 214 264
#     4   9  16  26  40  56  73  95 125 165 214 259
#     4   9  16  25  38  56  78 103 131 166 210 260
#     4   9  17  28  43  65  93 124 153 176 197 225
#     4  10  19  29  39  52  72 100 135 173 212 257
#     4   9  15  25  41  61  84 108 135 169 208 245
#
# _framework density 14.621086999999999
#
# number of rings (size 3 to 8) (size 9 to 14) (size 15 to 20)
#    0.000    2.833    1.667    1.000    0.000    3.667 
#    0.000    0.833    0.000    0.500    0.000    4.667 
#    0.000    2.667    0.000   19.833    0.000    0.667 
#
# Total GULP energy -1189794.726320 kJ/mol
# GULP energy per Si atom -12393.695066 kJ/mol
# Density = 1.458781 g / cm^3
# Si number density = 14.621087 Si / 1000 Ang^3
#
#
#
# Elastic Constant Matrix: (Units=GPa)
#
#
# Indices 1 2 3 4 5 6 
#
# 1 60.6955 46.0856 38.5475 0.0000 0.0000 0.0000
# 2 46.0856 60.6955 38.5475 0.0000 0.0000 0.0000
# 3 38.5475 38.5475 95.6322 0.0000 0.0000 0.0000
# 4 0.0000 0.0000 0.0000 18.0581 0.0000 0.0000
# 5 0.0000 0.0000 0.0000 0.0000 18.0581 0.0000
# 6 0.0000 0.0000 0.0000 0.0000 0.0000 14.0622
#
#
#
# Elastic Compliance Matrix: (Units=1/GPa)
#
#
# Indices 1 2 3 4 5 6 
#
# 1 0.040828 -0.027619 -0.005324 0.000000 0.000000 0.000000
# 2 -0.027619 0.040828 -0.005324 0.000000 0.000000 0.000000
# 3 -0.005324 -0.005324 0.014749 0.000000 0.000000 0.000000
# 4 0.000000 0.000000 0.000000 0.055377 0.000000 0.000000
# 5 0.000000 0.000000 0.000000 0.000000 0.055377 0.000000
# 6 0.000000 0.000000 0.000000 0.000000 0.000000 0.071113
#
#
# Mechanical properties :
#
#
# Convention : Reuss Voigt Hill
#
# Bulk Modulus (GPa) = 50.32752 51.48714 50.90733
# Shear Modulus (GPa) = 13.83399 16.29187 15.06293
#
# Velocity S-wave (km/s) = 3.07932 3.34169 3.21319
# Velocity P-wave (km/s) = 6.86577 7.08378 6.97563
#
# Compressibility (1/GPa) = 0.01986985
#
# Stress axis : x y z
#
# Youngs Moduli (GPa) = 24.49316 24.49316 67.80130
#
# Poissons Ratio (x) = 0.67647 0.36100
# Poissons Ratio (y) = 0.67647 0.36100
# Poissons Ratio (z) = 0.13041 0.13041
#
# Static dielectric constant tensor:
#      x y z
#    x 2.626240 0.000000 0.000000 
#    y 0.000000 2.626240 0.000000 
#    z 0.000000 0.000000 3.049660 
# 
# 
# High freq. dielectric constant tensor:
#      x y z
#    x 1.522760 0.000000 0.000000 
#    y 0.000000 1.522760 0.000000 
#    z 0.000000 0.000000 1.572690 
# 
# From -- ./inp_files/4348.got.cif
#   From: 2010.03.12/outbox.cif.g09.slc.cpg/sg123_3_cif.got.tgz:4348.got - 2010.04.06 16:26:55.
