data_PCOD8312336
_publ_section_title
;
Structure prediction by ZEFSAII (Michael W. Deem and Ramdas Pophale) SiO2 
 PCOD8312336
Probable space group: P 4/M M M
;
_chemical_formula_sum "Si O2"
_cell_formula_units_Z 88
_cell_length_a 14.236835
_cell_length_b 14.236835
_cell_length_c 28.144498
_cell_angle_alpha 90.000000
_cell_angle_beta 90.000000
_cell_angle_gamma 90.000000
_cell_volume 5704.537117
_symmetry_space_group_name_H-M "P 4/M M M"
_symmetry_group_IT_number 123
_symmetry_cell_setting 'tetragonal'
loop_
_space_group_symop_operation_xyz
x,y,z
-y,x,z
-x,-y,z
y,-x,z
x,-y,-z
-x,y,-z
y,x,-z
-y,-x,-z
-x,-y,-z
y,-x,-z
x,y,-z
-y,x,-z
-x,y,z
x,-y,z
-y,-x,z
y,x,z
loop_
_atom_site_type_symbol
_atom_site_label
_atom_site_fract_x
_atom_site_fract_y
_atom_site_fract_z
Si Si1 0.389842 0.236598 0.821682
Si Si2 0.109382 0.736020 0.000000
Si Si3 0.895510 0.388199 0.737430
Si Si4 0.107796 0.258321 0.553244
Si Si5 0.107720 0.607327 0.911230
Si Si6 0.603629 0.888515 0.367257
O O1 0.500000 0.260442 0.817698
O O2 0.334270 0.334270 0.825065
O O3 0.352334 0.178700 0.776177
O O4 0.367519 0.173814 0.867371
O O5 0.135884 0.674643 0.954264
O O6 0.168375 0.831626 0.000000
O O7 0.000000 0.763688 0.000000
O O8 0.901113 0.500000 0.738455
O O9 0.861928 0.355502 0.684867
O O10 0.000000 0.348079 0.748794
O O11 0.119742 0.300045 0.500000
O O12 0.159697 0.159697 0.558335
O O13 0.152040 0.331179 0.590910
O O14 0.000000 0.237498 0.565125
O O15 0.122660 0.500000 0.927851
O O16 0.000000 0.623082 0.895404
O O17 0.500000 0.844503 0.374085
O O18 0.596760 0.000000 0.371328
#
# Coordination Sequence:
#
# PCOD8312336 Si02
#       6
#    16   8  16  16  16  16
#     4  10  19  29  42  61  85 112 139 165 196 237
#     4  10  19  30  45  65  90 116 139 165 198 241
#     4   8  14  26  43  61  80 101 128 165 205 240
#     4   9  17  27  38  54  77 105 135 163 191 228
#     4   9  17  30  48  67  84 104 135 176 215 241
#     4   8  14  25  41  60  80 100 124 160 206 247
#
# _framework density 15.426316999999999
#
# number of rings (size 3 to 8) (size 9 to 14) (size 15 to 20)
#    0.000    3.091    0.000    2.455    0.000    4.818 
#    0.000    2.727    0.000    0.000    0.000    0.000 
#    0.000   10.182    0.000    2.727    0.000    0.364 
#
# Total GULP energy -1090787.630546 kJ/mol
# GULP energy per Si atom -12395.313983 kJ/mol
# Density = 1.539121 g / cm^3
# Si number density = 15.426317 Si / 1000 Ang^3
#
#
#
# Elastic Constant Matrix: (Units=GPa)
#
#
# Indices 1 2 3 4 5 6 
#
# 1 64.7329 42.4627 54.0872 0.0000 0.0000 0.0000
# 2 42.4627 64.7315 54.0869 0.0000 0.0000 0.0000
# 3 54.0872 54.0869 126.0697 0.0000 0.0000 0.0000
# 4 0.0000 0.0000 0.0000 15.8685 0.0000 0.0000
# 5 0.0000 0.0000 0.0000 0.0000 15.8678 0.0000
# 6 0.0000 0.0000 0.0000 0.0000 0.0000 21.3518
#
#
#
# Elastic Compliance Matrix: (Units=1/GPa)
#
#
# Indices 1 2 3 4 5 6 
#
# 1 0.030677 -0.014227 -0.007058 0.000000 0.000000 0.000000
# 2 -0.014227 0.030678 -0.007058 0.000000 0.000000 0.000000
# 3 -0.007058 -0.007058 0.013988 0.000000 0.000000 0.000000
# 4 0.000000 0.000000 0.000000 0.063018 0.000000 0.000000
# 5 0.000000 0.000000 0.000000 0.000000 0.063021 0.000000
# 6 0.000000 0.000000 0.000000 0.000000 0.000000 0.046834
#
#
# Mechanical properties :
#
#
# Convention : Reuss Voigt Hill
#
# Bulk Modulus (GPa) = 53.59410 61.86751 57.73081
# Shear Modulus (GPa) = 16.07085 17.61076 16.84080
#
# Velocity S-wave (km/s) = 3.23117 3.38243 3.30766
# Velocity P-wave (km/s) = 6.98126 7.44625 7.21750
#
# Compressibility (1/GPa) = 0.01865877
#
# Stress axis : x y z
#
# Youngs Moduli (GPa) = 32.59725 32.59629 71.48859
#
# Poissons Ratio (x) = 0.46373 0.50456
# Poissons Ratio (y) = 0.46375 0.50458
# Poissons Ratio (z) = 0.23007 0.23007
#
# Static dielectric constant tensor:
#      x y z
#    x 2.773770 0.000000 0.000000 
#    y 0.000000 2.773770 0.000000 
#    z 0.000000 0.000000 3.269490 
# 
# 
# High freq. dielectric constant tensor:
#      x y z
#    x 1.565370 0.000000 0.000000 
#    y 0.000000 1.565370 0.000000 
#    z 0.000000 0.000000 1.608810 
# 
# From -- ./inp_files/7966.got.cif
#   From: 2010.03.12/outbox.cif.g09.slc.cpg/sg123_4_cif.got.tgz:7966.got - 2010.04.06 16:26:55.
