data_PCOD8312512
_publ_section_title
;
Structure prediction by ZEFSAII (Michael W. Deem and Ramdas Pophale) SiO2 
 PCOD8312512
Probable space group: P 4/M M M
;
_chemical_formula_sum "Si O2"
_cell_formula_units_Z 68
_cell_length_a 12.443635
_cell_length_b 12.443635
_cell_length_c 29.980768
_cell_angle_alpha 90.000000
_cell_angle_beta 90.000000
_cell_angle_gamma 90.000000
_cell_volume 4642.343600
_symmetry_space_group_name_H-M "P 4/M M M"
_symmetry_group_IT_number 123
_symmetry_cell_setting 'tetragonal'
loop_
_space_group_symop_operation_xyz
x,y,z
-y,x,z
-x,-y,z
y,-x,z
x,-y,-z
-x,y,-z
y,x,-z
-y,-x,-z
-x,-y,-z
y,-x,-z
x,y,-z
-y,x,-z
-x,y,z
x,-y,z
-y,-x,z
y,x,z
loop_
_atom_site_type_symbol
_atom_site_label
_atom_site_fract_x
_atom_site_fract_y
_atom_site_fract_z
Si Si1 0.794289 0.377775 0.410086
Si Si2 0.321322 0.500000 0.000000
Si Si3 0.701317 0.121389 0.500000
Si Si4 0.500000 0.319480 0.808203
Si Si5 0.500000 0.323243 0.905908
Si Si6 0.879337 0.706066 0.320141
Si Si7 0.124119 0.500000 0.260291
O O1 0.772249 0.500000 0.397347
O O2 0.678868 0.321133 0.413905
O O3 0.856916 0.370822 0.456650
O O4 0.865580 0.322611 0.372017
O O5 0.394992 0.394992 0.000000
O O6 0.253170 0.500000 0.952750
O O7 0.807982 0.192019 0.500000
O O8 0.741512 0.000000 0.500000
O O9 0.605765 0.394235 0.800582
O O10 0.500000 0.264692 0.857916
O O11 0.500000 0.214134 0.777785
O O12 0.605131 0.394869 0.906962
O O13 0.800521 0.800521 0.304783
O O14 0.854271 0.603231 0.290352
O O15 0.000000 0.747442 0.312814
O O16 0.000000 0.500000 0.242042
#
# Coordination Sequence:
#
# PCOD8312512 Si02
#       7
#    16   4   8   8   8  16   8
#     4  10  20  34  50  69  91 112 137 167 200 244
#     4   7   8  12  24  44  73 106 136 162 197 247
#     4  10  21  34  50  70  88 110 137 166 204 246
#     4   9  16  26  41  62  87 110 136 175 217 252
#     4   7  10  16  28  49  77 107 134 165 206 246
#     4  10  20  33  49  67  87 111 139 172 209 248
#     4  10  19  31  46  61  83 113 143 175 209 247
#
# _framework density 14.647774999999999
#
# number of rings (size 3 to 8) (size 9 to 14) (size 15 to 20)
#    0.000    2.647    1.176    3.176    0.000    2.471 
#    0.000    0.000    0.000    6.353    0.000    0.412 
#    0.000    0.000    0.000    0.000    0.000    0.000 
#
# Total GULP energy -842442.518446 kJ/mol
# GULP energy per Si atom -12388.860565 kJ/mol
# Density = 1.461444 g / cm^3
# Si number density = 14.647775 Si / 1000 Ang^3
#
#
#
# Elastic Constant Matrix: (Units=GPa)
#
#
# Indices 1 2 3 4 5 6 
#
# 1 86.2120 41.8638 36.3338 0.0000 0.0000 0.0000
# 2 41.8638 86.2113 36.3339 0.0000 0.0000 0.0000
# 3 36.3338 36.3339 110.5498 0.0000 0.0000 0.0000
# 4 0.0000 0.0000 0.0000 7.7344 0.0000 0.0000
# 5 0.0000 0.0000 0.0000 0.0000 7.7344 0.0000
# 6 0.0000 0.0000 0.0000 0.0000 0.0000 14.2796
#
#
#
# Elastic Compliance Matrix: (Units=1/GPa)
#
#
# Indices 1 2 3 4 5 6 
#
# 1 0.016073 -0.006476 -0.003154 0.000000 0.000000 0.000000
# 2 -0.006476 0.016073 -0.003154 0.000000 0.000000 0.000000
# 3 -0.003154 -0.003154 0.011119 0.000000 0.000000 0.000000
# 4 0.000000 0.000000 0.000000 0.129292 0.000000 0.000000
# 5 0.000000 0.000000 0.000000 0.000000 0.129292 0.000000
# 6 0.000000 0.000000 0.000000 0.000000 0.000000 0.070030
#
#
# Mechanical properties :
#
#
# Convention : Reuss Voigt Hill
#
# Bulk Modulus (GPa) = 56.50723 56.89288 56.70005
# Shear Modulus (GPa) = 12.39624 17.17913 14.78768
#
# Velocity S-wave (km/s) = 2.91226 3.42835 3.18079
# Velocity P-wave (km/s) = 7.06891 7.38894 7.23069
#
# Compressibility (1/GPa) = 0.01769685
#
# Stress axis : x y z
#
# Youngs Moduli (GPa) = 62.21521 62.21452 89.93466
#
# Poissons Ratio (x) = 0.40288 0.28369
# Poissons Ratio (y) = 0.40289 0.28369
# Poissons Ratio (z) = 0.19625 0.19625
#
# Static dielectric constant tensor:
#      x y z
#    x 2.676080 0.000000 0.000000 
#    y 0.000000 2.676080 0.000000 
#    z 0.000000 0.000000 3.202190 
# 
# 
# High freq. dielectric constant tensor:
#      x y z
#    x 1.540640 0.000000 0.000000 
#    y 0.000000 1.540640 0.000000 
#    z 0.000000 0.000000 1.562970 
# 
# From -- ./inp_files/8306.got.cif
#   From: 2010.03.12/outbox.cif.g09.slc.cpg/sg123_5_cif.got.tgz:8306.got - 2010.04.06 16:26:55.
