data_PCOD8312908
_publ_section_title
;
Structure prediction by ZEFSAII (Michael W. Deem and Ramdas Pophale) SiO2 
 PCOD8312908
Probable space group: P 4/M M M
;
_chemical_formula_sum "Si O2"
_cell_formula_units_Z 96
_cell_length_a 24.102390
_cell_length_b 24.102390
_cell_length_c 8.974045
_cell_angle_alpha 90.000000
_cell_angle_beta 90.000000
_cell_angle_gamma 90.000000
_cell_volume 5213.248920
_symmetry_space_group_name_H-M "P 4/M M M"
_symmetry_group_IT_number 123
_symmetry_cell_setting 'tetragonal'
loop_
_space_group_symop_operation_xyz
x,y,z
-y,x,z
-x,-y,z
y,-x,z
x,-y,-z
-x,y,-z
y,x,-z
-y,-x,-z
-x,-y,-z
y,-x,-z
x,y,-z
-y,x,-z
-x,y,z
x,-y,z
-y,-x,z
y,x,z
loop_
_atom_site_type_symbol
_atom_site_label
_atom_site_fract_x
_atom_site_fract_y
_atom_site_fract_z
Si Si1 0.063098 0.849013 0.831254
Si Si2 0.768601 0.857589 0.674198
Si Si3 0.652333 0.855194 0.823163
Si Si4 0.348960 0.437673 0.673449
Si Si5 0.269927 0.641715 0.176023
Si Si6 0.436318 0.063881 0.325319
O O1 0.090465 0.909536 0.820786
O O2 0.091616 0.808199 0.714268
O O3 0.000000 0.855513 0.782549
O O4 0.069104 0.825486 0.000000
O O5 0.755036 0.858308 0.500000
O O6 0.799459 0.799459 0.718772
O O7 0.713111 0.869763 0.765336
O O8 0.641762 0.792786 0.765508
O O9 0.605444 0.896198 0.761629
O O10 0.651484 0.859494 0.000000
O O11 0.335007 0.433511 0.500000
O O12 0.359529 0.500000 0.725880
O O13 0.404257 0.404257 0.715088
O O14 0.296581 0.414224 0.761672
O O15 0.304234 0.695767 0.234764
O O16 0.271903 0.640137 0.000000
O O17 0.427327 0.072989 0.500000
O O18 0.500000 0.078252 0.281698
O O19 0.423443 0.000000 0.282551
#
# Coordination Sequence:
#
# PCOD8312908 Si02
#       6
#    16  16  16  16  16  16
#     4   9  18  33  53  77 106 140 177 218 263 309
#     4  10  21  36  54  77 106 140 177 218 263 310
#     4  11  22  35  56  83 107 135 172 212 258 315
#     4   9  18  32  50  73 101 134 172 213 255 297
#     4   9  19  35  52  72 102 137 169 205 251 301
#     4   9  20  40  61  79 104 138 173 212 259 308
#
# _framework density 18.414622000000001
#
# number of rings (size 3 to 8) (size 9 to 14) (size 15 to 20)
#    0.000    2.500    0.000    2.000    0.000    6.000 
#    0.000    7.500    0.000    0.000    0.000    4.667 
#    0.000    0.000    0.000    0.000    0.000    0.000 
#
# Total GULP energy -1190269.120480 kJ/mol
# GULP energy per Si atom -12398.636672 kJ/mol
# Density = 1.837271 g / cm^3
# Si number density = 18.414622 Si / 1000 Ang^3
#
#
#
# Elastic Constant Matrix: (Units=GPa)
#
#
# Indices 1 2 3 4 5 6 
#
# 1 114.9670 87.6715 38.4999 0.0000 0.0000 0.0000
# 2 87.6715 114.9670 38.4999 0.0000 0.0000 0.0000
# 3 38.4999 38.4999 40.3527 0.0000 0.0000 0.0000
# 4 0.0000 0.0000 0.0000 30.7556 0.0000 0.0000
# 5 0.0000 0.0000 0.0000 0.0000 30.7556 0.0000
# 6 0.0000 0.0000 0.0000 0.0000 0.0000 23.9485
#
#
#
# Elastic Compliance Matrix: (Units=1/GPa)
#
#
# Indices 1 2 3 4 5 6 
#
# 1 0.022189 -0.014447 -0.007386 0.000000 0.000000 0.000000
# 2 -0.014447 0.022189 -0.007386 0.000000 0.000000 0.000000
# 3 -0.007386 -0.007386 0.038875 0.000000 0.000000 0.000000
# 4 0.000000 0.000000 0.000000 0.032514 0.000000 0.000000
# 5 0.000000 0.000000 0.000000 0.000000 0.032514 0.000000
# 6 0.000000 0.000000 0.000000 0.000000 0.000000 0.041756
#
#
# Mechanical properties :
#
#
# Convention : Reuss Voigt Hill
#
# Bulk Modulus (GPa) = 40.29962 66.62546 53.46254
# Shear Modulus (GPa) = 19.47435 24.13297 21.80366
#
# Velocity S-wave (km/s) = 3.25552 3.62406 3.44472
# Velocity P-wave (km/s) = 6.00528 7.33287 6.70203
#
# Compressibility (1/GPa) = 0.02481413
#
# Stress axis : x y z
#
# Youngs Moduli (GPa) = 45.06781 45.06781 25.72328
#
# Poissons Ratio (x) = 0.65111 0.18999
# Poissons Ratio (y) = 0.65111 0.18999
# Poissons Ratio (z) = 0.33287 0.33287
#
# Static dielectric constant tensor:
#      x y z
#    x 3.472370 0.000000 0.000000 
#    y 0.000000 3.472370 0.000000 
#    z 0.000000 0.000000 3.307220 
# 
# 
# High freq. dielectric constant tensor:
#      x y z
#    x 1.716340 0.000000 0.000000 
#    y 0.000000 1.716340 0.000000 
#    z 0.000000 0.000000 1.709940 
# 
# From -- ./inp_files/1556.got.cif
#   From: 2010.03.12/outbox.cif.g09.slc.cpg/sg123_1_cif.got.tgz:1556.got - 2010.04.06 16:26:55.
