data_PCOD8312544
_publ_section_title
;
Structure prediction by ZEFSAII (Michael W. Deem and Ramdas Pophale) SiO2 
 PCOD8312544
Probable space group: P 4/M M M
;
_chemical_formula_sum "Si O2"
_cell_formula_units_Z 120
_cell_length_a 14.870752
_cell_length_b 14.870752
_cell_length_c 30.252059
_cell_angle_alpha 90.000000
_cell_angle_beta 90.000000
_cell_angle_gamma 90.000000
_cell_volume 6689.918093
_symmetry_space_group_name_H-M "P 4/M M M"
_symmetry_group_IT_number 123
_symmetry_cell_setting 'tetragonal'
loop_
_space_group_symop_operation_xyz
x,y,z
-y,x,z
-x,-y,z
y,-x,z
x,-y,-z
-x,y,-z
y,x,-z
-y,-x,-z
-x,-y,-z
y,-x,-z
x,y,-z
-y,x,-z
-x,y,z
x,-y,z
-y,-x,z
y,x,z
loop_
_atom_site_type_symbol
_atom_site_label
_atom_site_fract_x
_atom_site_fract_y
_atom_site_fract_z
Si Si1 0.102528 0.753769 0.228513
Si Si2 0.317101 0.899652 0.676121
Si Si3 0.402775 0.263469 0.639669
Si Si4 0.898086 0.397155 0.842184
Si Si5 0.096103 0.764095 0.416349
Si Si6 0.104048 0.394304 0.000000
Si Si7 0.237426 0.607248 0.078873
Si Si8 0.180671 0.400066 0.548943
O O1 0.165988 0.834013 0.211373
O O2 0.127206 0.732066 0.278916
O O3 0.119639 0.664642 0.200038
O O4 0.000000 0.787009 0.223989
O O5 0.397800 0.831587 0.665002
O O6 0.245468 0.891985 0.636383
O O7 0.357873 0.000000 0.679470
O O8 0.500000 0.305492 0.648583
O O9 0.329493 0.329493 0.660402
O O10 0.385774 0.255479 0.586872
O O11 0.890236 0.500000 0.826341
O O12 0.818821 0.375739 0.876671
O O13 0.000000 0.380537 0.861487
O O14 0.172173 0.827828 0.436178
O O15 0.100212 0.668943 0.441516
O O16 0.000000 0.807835 0.426720
O O17 0.164838 0.364538 0.041653
O O18 0.091618 0.500000 0.000000
O O19 0.000000 0.353758 0.000000
O O20 0.265549 0.500000 0.074481
O O21 0.326963 0.673038 0.077069
O O22 0.222524 0.384279 0.500000
O O23 0.139633 0.500000 0.552716
#
# Coordination Sequence:
#
# PCOD8312544 Si02
#       8
#    16  16  16  16  16   8  16  16
#     4  10  19  31  49  72  99 129 159 195 241 294
#     4   9  18  33  52  72  94 121 156 199 243 281
#     4  10  20  33  50  72  98 126 153 184 223 270
#     4   9  18  32  49  70  96 127 166 212 255 290
#     4  10  20  33  49  69  95 126 156 187 224 269
#     4   9  17  30  49  71  95 127 165 205 249 290
#     4  10  19  31  48  71 101 134 168 207 250 299
#     4   9  18  33  53  73  90 113 148 189 233 274
#
# _framework density 17.937439000000001
#
# number of rings (size 3 to 8) (size 9 to 14) (size 15 to 20)
#    0.000    2.467    0.000    3.400    0.000    4.533 
#    0.000    4.667    0.000    3.600    0.000    2.800 
#    0.000   13.333    0.000    0.000    0.000    0.000 
#
# Total GULP energy -1486591.196388 kJ/mol
# GULP energy per Si atom -12388.259970 kJ/mol
# Density = 1.789661 g / cm^3
# Si number density = 17.937439 Si / 1000 Ang^3
#
#
#
# Elastic Constant Matrix: (Units=GPa)
#
#
# Indices 1 2 3 4 5 6 
#
# 1 105.7643 74.4029 42.0170 0.0000 0.0000 0.0000
# 2 74.4029 105.7643 42.0170 0.0000 0.0000 0.0000
# 3 42.0170 42.0170 65.5354 0.0000 0.0000 0.0000
# 4 0.0000 0.0000 0.0000 17.7883 0.0000 0.0000
# 5 0.0000 0.0000 0.0000 0.0000 17.7883 0.0000
# 6 0.0000 0.0000 0.0000 0.0000 0.0000 20.3866
#
#
#
# Elastic Compliance Matrix: (Units=1/GPa)
#
#
# Indices 1 2 3 4 5 6 
#
# 1 0.019902 -0.011984 -0.005077 0.000000 0.000000 0.000000
# 2 -0.011984 0.019902 -0.005077 0.000000 0.000000 0.000000
# 3 -0.005077 -0.005077 0.021769 0.000000 0.000000 0.000000
# 4 0.000000 0.000000 0.000000 0.056217 0.000000 0.000000
# 5 0.000000 0.000000 0.000000 0.000000 0.056217 0.000000
# 6 0.000000 0.000000 0.000000 0.000000 0.000000 0.049052
#
#
# Mechanical properties :
#
#
# Convention : Reuss Voigt Hill
#
# Bulk Modulus (GPa) = 57.80870 65.99310 61.90090
# Shear Modulus (GPa) = 18.30833 19.10109 18.70471
#
# Velocity S-wave (km/s) = 3.19827 3.26678 3.23271
# Velocity P-wave (km/s) = 6.77765 7.14841 6.96549
#
# Compressibility (1/GPa) = 0.01729843
#
# Stress axis : x y z
#
# Youngs Moduli (GPa) = 50.24540 50.24540 45.93765
#
# Poissons Ratio (x) = 0.60214 0.23321
# Poissons Ratio (y) = 0.60214 0.23321
# Poissons Ratio (z) = 0.25508 0.25508
#
# Static dielectric constant tensor:
#      x y z
#    x 3.312370 0.000000 0.000000 
#    y 0.000000 3.312370 0.000000 
#    z 0.000000 0.000000 3.296570 
# 
# 
# High freq. dielectric constant tensor:
#      x y z
#    x 1.683880 0.000000 0.000000 
#    y 0.000000 1.683880 0.000000 
#    z 0.000000 0.000000 1.686610 
# 
# From -- ./inp_files/8826.got.cif
#   From: 2010.03.12/outbox.cif.g09.slc.cpg/sg123_5_cif.got.tgz:8826.got - 2010.04.06 16:26:55.
