data_PCOD8312747
_publ_section_title
;
Structure prediction by ZEFSAII (Michael W. Deem and Ramdas Pophale) SiO2 
 PCOD8312747
Probable space group: P 4/M M M
;
_chemical_formula_sum "Si O2"
_cell_formula_units_Z 112
_cell_length_a 13.985592
_cell_length_b 13.985592
_cell_length_c 35.546154
_cell_angle_alpha 90.000000
_cell_angle_beta 90.000000
_cell_angle_gamma 90.000000
_cell_volume 6952.713391
_symmetry_space_group_name_H-M "P 4/M M M"
_symmetry_group_IT_number 123
_symmetry_cell_setting 'tetragonal'
loop_
_space_group_symop_operation_xyz
x,y,z
-y,x,z
-x,-y,z
y,-x,z
x,-y,-z
-x,y,-z
y,x,-z
-y,-x,-z
-x,-y,-z
y,-x,-z
x,y,-z
-y,x,-z
-x,y,z
x,-y,z
-y,-x,z
y,x,z
loop_
_atom_site_type_symbol
_atom_site_label
_atom_site_fract_x
_atom_site_fract_y
_atom_site_fract_z
Si Si1 0.110678 0.610249 0.389730
Si Si2 0.262737 0.109711 0.321791
Si Si3 0.236442 0.389791 0.541882
Si Si4 0.110347 0.734080 0.237396
Si Si5 0.887132 0.393709 0.169515
Si Si6 0.729594 0.113868 0.901863
Si Si7 0.764278 0.609845 0.956033
O O1 0.132844 0.500000 0.383030
O O2 0.149340 0.662530 0.352390
O O3 0.161856 0.648931 0.427289
O O4 0.000000 0.630300 0.396187
O O5 0.163021 0.163021 0.326597
O O6 0.305177 0.125269 0.279851
O O7 0.239450 0.000000 0.329364
O O8 0.193231 0.372694 0.500000
O O9 0.259725 0.500000 0.548635
O O10 0.336015 0.336015 0.546923
O O11 0.169551 0.830450 0.230250
O O12 0.145927 0.651387 0.209214
O O13 0.000000 0.760769 0.229706
O O14 0.841370 0.500000 0.165491
O O15 0.853802 0.324399 0.136087
O O16 0.000000 0.403728 0.168258
O O17 0.831669 0.168332 0.903617
O O18 0.661060 0.146206 0.935951
O O19 0.747939 0.000000 0.904170
O O20 0.753661 0.500000 0.942457
O O21 0.665744 0.665744 0.946359
O O22 0.786789 0.614351 0.000000
#
# Coordination Sequence:
#
# PCOD8312747 Si02
#       7
#    16  16  16  16  16  16  16
#     4   9  17  28  42  60  81 106 136 169 206 247
#     4   9  17  28  42  60  83 111 141 174 210 248
#     4   9  17  28  42  60  81 105 132 163 201 245
#     4   9  17  28  42  62  87 114 144 176 211 253
#     4   9  17  29  45  64  86 113 144 178 217 260
#     4  10  20  33  49  69  94 124 158 195 234 278
#     4   9  18  32  50  73  99 126 158 196 237 281
#
# _framework density 16.108817999999999
#
# number of rings (size 3 to 8) (size 9 to 14) (size 15 to 20)
#    0.000    2.857    0.000    1.286    0.000    2.714 
#    0.000    7.857    0.000    2.571    0.000    2.000 
#    0.000    2.571    0.000   23.857    0.000    1.571 
#
# Total GULP energy -1388391.306252 kJ/mol
# GULP energy per Si atom -12396.350949 kJ/mol
# Density = 1.607215 g / cm^3
# Si number density = 16.108818 Si / 1000 Ang^3
#
#
#
# Elastic Constant Matrix: (Units=GPa)
#
#
# Indices 1 2 3 4 5 6 
#
# 1 79.5661 43.7736 50.5228 0.0000 0.0000 0.0000
# 2 43.7736 79.5661 50.5228 0.0000 0.0000 0.0000
# 3 50.5228 50.5228 102.9036 0.0000 0.0000 0.0000
# 4 0.0000 0.0000 0.0000 25.4011 0.0000 0.0000
# 5 0.0000 0.0000 0.0000 0.0000 25.4011 0.0000
# 6 0.0000 0.0000 0.0000 0.0000 0.0000 17.3441
#
#
#
# Elastic Compliance Matrix: (Units=1/GPa)
#
#
# Indices 1 2 3 4 5 6 
#
# 1 0.020751 -0.007188 -0.006659 0.000000 0.000000 0.000000
# 2 -0.007188 0.020751 -0.006659 0.000000 0.000000 0.000000
# 3 -0.006659 -0.006659 0.016257 0.000000 0.000000 0.000000
# 4 0.000000 0.000000 0.000000 0.039368 0.000000 0.000000
# 5 0.000000 0.000000 0.000000 0.000000 0.039368 0.000000
# 6 0.000000 0.000000 0.000000 0.000000 0.000000 0.057657
#
#
# Mechanical properties :
#
#
# Convention : Reuss Voigt Hill
#
# Bulk Modulus (GPa) = 59.71391 61.29713 60.50552
# Shear Modulus (GPa) = 20.76875 21.44370 21.10622
#
# Velocity S-wave (km/s) = 3.59455 3.65249 3.62363
# Velocity P-wave (km/s) = 7.37409 7.47811 7.42628
#
# Compressibility (1/GPa) = 0.01674652
#
# Stress axis : x y z
#
# Youngs Moduli (GPa) = 48.19053 48.19053 61.51302
#
# Poissons Ratio (x) = 0.34638 0.40962
# Poissons Ratio (y) = 0.34638 0.40962
# Poissons Ratio (z) = 0.32091 0.32091
#
# Static dielectric constant tensor:
#      x y z
#    x 2.979550 0.000000 0.000000 
#    y 0.000000 2.979550 0.000000 
#    z 0.000000 0.000000 3.356260 
# 
# 
# High freq. dielectric constant tensor:
#      x y z
#    x 1.604660 0.000000 0.000000 
#    y 0.000000 1.604660 0.000000 
#    z 0.000000 0.000000 1.634090 
# 
# From -- ./inp_files/8732.got.cif
#   From: 2010.03.12/outbox.cif.g09.slc.cpg/sg123_5_cif.got.tgz:8732.got - 2010.04.06 16:26:55.
