data_PCOD8312520
_publ_section_title
;
Structure prediction by ZEFSAII (Michael W. Deem and Ramdas Pophale) SiO2 
 PCOD8312520
Probable space group: P 4/M M M
;
_chemical_formula_sum "Si O2"
_cell_formula_units_Z 96
_cell_length_a 21.875429
_cell_length_b 21.875429
_cell_length_c 12.722183
_cell_angle_alpha 90.000000
_cell_angle_beta 90.000000
_cell_angle_gamma 90.000000
_cell_volume 6088.002131
_symmetry_space_group_name_H-M "P 4/M M M"
_symmetry_group_IT_number 123
_symmetry_cell_setting 'tetragonal'
loop_
_space_group_symop_operation_xyz
x,y,z
-y,x,z
-x,-y,z
y,-x,z
x,-y,-z
-x,y,-z
y,x,-z
-y,-x,-z
-x,-y,-z
y,-x,-z
x,y,-z
-y,x,-z
-x,y,z
x,-y,z
-y,-x,z
y,x,z
loop_
_atom_site_type_symbol
_atom_site_label
_atom_site_fract_x
_atom_site_fract_y
_atom_site_fract_z
Si Si1 0.000000 0.430581 0.874610
Si Si2 0.245178 0.345065 0.382502
Si Si3 0.119658 0.638348 0.878654
Si Si4 0.571643 0.670985 0.000000
Si Si5 0.257050 0.157885 0.269439
Si Si6 0.571531 0.760792 0.186247
Si Si7 0.166716 0.068955 0.376948
O O1 0.940659 0.394401 0.831857
O O2 0.000000 0.500000 0.829960
O O3 0.000000 0.433210 0.000000
O O4 0.234715 0.371487 0.500000
O O5 0.307623 0.307623 0.378213
O O6 0.187943 0.301697 0.355336
O O7 0.251823 0.399578 0.299778
O O8 0.132430 0.703880 0.827018
O O9 0.175161 0.592254 0.861450
O O10 0.109910 0.652360 0.000000
O O11 0.590755 0.708496 0.896149
O O12 0.500000 0.656171 0.000000
O O13 0.607244 0.607244 0.000000
O O14 0.208435 0.208435 0.228408
O O15 0.223722 0.100612 0.321220
O O16 0.500000 0.762609 0.202733
O O17 0.180001 0.070621 0.500000
O O18 0.103957 0.103957 0.349803
O O19 0.160044 0.000000 0.335044
#
# Coordination Sequence:
#
# PCOD8312520 Si02
#       7
#     8  16  16   8  16  16  16
#     4   9  18  30  46  64  89 123 158 193 233 278
#     4   9  17  30  47  67  93 123 155 190 229 276
#     4  10  19  31  46  69  93 123 156 195 236 283
#     4  10  20  33  50  71  97 125 155 191 232 284
#     4   9  18  30  45  67  93 122 154 192 236 281
#     4  10  19  31  48  70  95 122 154 193 236 279
#     4   9  17  29  46  67  91 119 150 189 235 284
#
# _framework density 15.768719000000001
#
# number of rings (size 3 to 8) (size 9 to 14) (size 15 to 20)
#    0.000    2.583    0.833    1.500    1.167    4.250 
#    0.000    0.833    0.000    0.000    0.000    0.000 
#    0.000    7.000    0.000   19.167    0.000    0.167 
#
# Total GULP energy -1190349.500658 kJ/mol
# GULP energy per Si atom -12399.473965 kJ/mol
# Density = 1.573283 g / cm^3
# Si number density = 15.768719 Si / 1000 Ang^3
#
#
#
# Elastic Constant Matrix: (Units=GPa)
#
#
# Indices 1 2 3 4 5 6 
#
# 1 105.2383 58.8344 48.5265 0.0000 0.0000 0.0000
# 2 58.8344 105.2383 48.5265 0.0000 0.0000 0.0000
# 3 48.5265 48.5265 84.7709 0.0000 0.0000 0.0000
# 4 0.0000 0.0000 0.0000 19.0304 0.0000 0.0000
# 5 0.0000 0.0000 0.0000 0.0000 19.0304 0.0000
# 6 0.0000 0.0000 0.0000 0.0000 0.0000 23.2164
#
#
#
# Elastic Compliance Matrix: (Units=1/GPa)
#
#
# Indices 1 2 3 4 5 6 
#
# 1 0.015383 -0.006167 -0.005275 0.000000 0.000000 0.000000
# 2 -0.006167 0.015383 -0.005275 0.000000 0.000000 0.000000
# 3 -0.005275 -0.005275 0.017836 0.000000 0.000000 0.000000
# 4 0.000000 0.000000 0.000000 0.052548 0.000000 0.000000
# 5 0.000000 0.000000 0.000000 0.000000 0.052548 0.000000
# 6 0.000000 0.000000 0.000000 0.000000 0.000000 0.043073
#
#
# Mechanical properties :
#
#
# Convention : Reuss Voigt Hill
#
# Bulk Modulus (GPa) = 65.93824 67.44691 66.69258
# Shear Modulus (GPa) = 21.25307 21.54611 21.39959
#
# Velocity S-wave (km/s) = 3.67522 3.70047 3.68787
# Velocity P-wave (km/s) = 7.74056 7.81815 7.77945
#
# Compressibility (1/GPa) = 0.01516571
#
# Stress axis : x y z
#
# Youngs Moduli (GPa) = 65.00854 65.00854 56.06627
#
# Poissons Ratio (x) = 0.40093 0.29576
# Poissons Ratio (y) = 0.40093 0.29576
# Poissons Ratio (z) = 0.34293 0.34293
#
# Static dielectric constant tensor:
#      x y z
#    x 3.040100 0.000000 0.000000 
#    y 0.000000 3.040100 0.000000 
#    z 0.000000 0.000000 2.915070 
# 
# 
# High freq. dielectric constant tensor:
#      x y z
#    x 1.607450 0.000000 0.000000 
#    y 0.000000 1.607450 0.000000 
#    z 0.000000 0.000000 1.589990 
# 
# From -- ./inp_files/3216.got.cif
#   From: 2010.03.12/outbox.cif.g09.slc.cpg/sg123_2_cif.got.tgz:3216.got - 2010.04.06 16:26:55.
