data_PCOD8312113
_publ_section_title
;
Structure prediction by ZEFSAII (Michael W. Deem and Ramdas Pophale) SiO2 
 PCOD8312113
Probable space group: I -4 2 D
;
_chemical_formula_sum "Si O2"
_cell_formula_units_Z 24
_cell_length_a 10.285292
_cell_length_b 10.285292
_cell_length_c 8.223325
_cell_angle_alpha 90.000000
_cell_angle_beta 90.000000
_cell_angle_gamma 90.000000
_cell_volume 869.922786
_symmetry_space_group_name_H-M "I -4 2 D"
_symmetry_group_IT_number 122
_symmetry_cell_setting 'tetragonal'
loop_
_space_group_symop_operation_xyz
x,y,z
y,-x,-z
-x,-y,z
-y,x,-z
x,1/2-y,1/4-z
-x,1/2+y,1/4-z
-y,1/2-x,1/4+z
y,1/2+x,1/4+z
1/2+x,1/2+y,1/2+z
1/2+y,1/2-x,1/2-z
1/2-x,1/2-y,1/2+z
1/2-y,1/2+x,1/2-z
1/2+x,-y,3/4-z
1/2-x,y,3/4-z
1/2-y,-x,3/4+z
1/2+y,x,3/4+z
loop_
_atom_site_type_symbol
_atom_site_label
_atom_site_fract_x
_atom_site_fract_y
_atom_site_fract_z
Si Si1 0.000000 0.000000 0.500000
Si Si2 0.743092 0.896841 0.568186
Si Si3 0.000000 0.500000 0.250000
O O1 0.036352 0.879843 0.377793
O O2 0.734538 0.750000 0.625000
O O3 0.750000 0.906825 0.375000
O O4 0.628417 0.982671 0.641641
#
# Coordination Sequence:
#
# PCOD8312113 Si02
#       3
#     4  16   4
#     4  12  26  48  80 122 166 212 272 338 410 492
#     4  12  28  52  84 123 169 223 283 349 422 500
#     4  12  30  56  88 126 174 226 280 348 422 502
#
# _framework density 27.588657000000001
#
# number of rings (size 3 to 8) (size 9 to 14) (size 15 to 20)
#    0.000    0.000    0.000    8.000    0.000   13.333 
#    0.000    0.000    0.000    0.000    0.000    0.000 
#    0.000    0.000    0.000    0.000    0.000    0.000 
#
# Total GULP energy -148835.083484 kJ/mol
# GULP energy per Si atom -12402.923624 kJ/mol
# Density = 2.752586 g / cm^3
# Si number density = 27.588657 Si / 1000 Ang^3
#
#
#
# Elastic Constant Matrix: (Units=GPa)
#
#
# Indices 1 2 3 4 5 6 
#
# 1 220.9270 72.4202 58.3166 0.0000 0.0000 0.0000
# 2 72.4202 220.9270 58.3166 0.0000 0.0000 0.0000
# 3 58.3166 58.3166 153.7101 0.0000 0.0000 0.0000
# 4 0.0000 0.0000 0.0000 -5.1938 0.0000 0.0000
# 5 0.0000 0.0000 0.0000 0.0000 -5.1938 0.0000
# 6 0.0000 0.0000 0.0000 0.0000 0.0000 65.4718
#
#
#
# Elastic Compliance Matrix: (Units=1/GPa)
#
#
# Indices 1 2 3 4 5 6 
#
# 1 0.005374 -0.001360 -0.001523 0.000000 0.000000 0.000000
# 2 -0.001360 0.005374 -0.001523 0.000000 0.000000 0.000000
# 3 -0.001523 -0.001523 0.007661 0.000000 0.000000 0.000000
# 4 0.000000 0.000000 0.000000 -0.192539 0.000000 0.000000
# 5 0.000000 0.000000 0.000000 0.000000 -0.192539 0.000000
# 6 0.000000 0.000000 0.000000 0.000000 0.000000 0.015274
#
#
# Mechanical properties :
#
#
# Convention : Reuss Voigt Hill
#
# Bulk Modulus (GPa) = 104.18688 108.18567 106.18628
# Shear Modulus (GPa) = -14.73259 38.11758 11.69249
#
# Velocity S-wave (km/s) = -2.31337 3.72107 2.06091
# Velocity P-wave (km/s) = 5.54173 7.60005 6.65100
#
# Compressibility (1/GPa) = 0.00959814
#
# Stress axis : x y z
#
# Youngs Moduli (GPa) = 186.07780 186.07780 130.52380
#
# Poissons Ratio (x) = 0.25299 0.19880
# Poissons Ratio (y) = 0.25299 0.19880
# Poissons Ratio (z) = 0.28341 0.28341
#
# Static dielectric constant tensor:
#      x y z
#    x 6.251150 0.000000 0.000000 
#    y 0.000000 6.251150 0.000000 
#    z 0.000000 0.000000 4.953040 
# 
# 
# High freq. dielectric constant tensor:
#      x y z
#    x 2.144910 0.000000 0.000000 
#    y 0.000000 2.144910 0.000000 
#    z 0.000000 0.000000 2.105520 
# 
# From -- ./inp_files/1585.got.cif
#   From: 2010.03.12/outbox.cif.g09.slc.cpg/sg122_1_cif.got.tgz:1585.got - 2010.04.06 16:17:16.
