data_PCOD8312412
_publ_section_title
;
Structure prediction by ZEFSAII (Michael W. Deem and Ramdas Pophale) SiO2 
 PCOD8312412
Probable space group: P 4/M M M
;
_chemical_formula_sum "Si O2"
_cell_formula_units_Z 112
_cell_length_a 14.084597
_cell_length_b 14.084597
_cell_length_c 35.188001
_cell_angle_alpha 90.000000
_cell_angle_beta 90.000000
_cell_angle_gamma 90.000000
_cell_volume 6980.450405
_symmetry_space_group_name_H-M "P 4/M M M"
_symmetry_group_IT_number 123
_symmetry_cell_setting 'tetragonal'
loop_
_space_group_symop_operation_xyz
x,y,z
-y,x,z
-x,-y,z
y,-x,z
x,-y,-z
-x,y,-z
y,x,-z
-y,-x,-z
-x,-y,-z
y,-x,-z
x,y,-z
-y,x,-z
-x,y,z
x,-y,z
-y,-x,z
y,x,z
loop_
_atom_site_type_symbol
_atom_site_label
_atom_site_fract_x
_atom_site_fract_y
_atom_site_fract_z
Si Si1 0.612263 0.105656 0.889420
Si Si2 0.735460 0.109987 0.593013
Si Si3 0.766651 0.612320 0.180671
Si Si4 0.608675 0.237809 0.544202
Si Si5 0.108259 0.389908 0.747724
Si Si6 0.236838 0.609051 0.956911
Si Si7 0.260119 0.108029 0.679302
O O1 0.500000 0.096602 0.887116
O O2 0.647885 0.170319 0.854736
O O3 0.643762 0.152933 0.929218
O O4 0.657407 0.000000 0.886912
O O5 0.832801 0.167200 0.584788
O O6 0.650425 0.148527 0.567007
O O7 0.702221 0.124329 0.636548
O O8 0.754471 0.000000 0.583390
O O9 0.746059 0.500000 0.178940
O O10 0.666136 0.666136 0.180025
O O11 0.823789 0.642201 0.218255
O O12 0.617378 0.212668 0.500000
O O13 0.500000 0.255055 0.556238
O O14 0.666600 0.333401 0.554253
O O15 0.119194 0.500000 0.739623
O O16 0.140733 0.340448 0.708763
O O17 0.000000 0.364287 0.758952
O O18 0.263926 0.500000 0.948665
O O19 0.331633 0.668368 0.948868
O O20 0.200422 0.623113 0.000000
O O21 0.165390 0.165390 0.687579
O O22 0.231241 0.000000 0.685931
#
# Coordination Sequence:
#
# PCOD8312412 Si02
#       7
#    16  16  16  16  16  16  16
#     4   9  17  29  44  61  82 109 141 177 216 253
#     4   9  18  31  46  66  92 121 153 188 225 266
#     4  10  19  30  45  64  87 115 144 174 209 251
#     4   9  18  32  49  69  92 117 146 182 224 269
#     4   9  17  29  45  65  88 114 145 180 217 255
#     4   9  17  28  42  62  89 119 148 177 209 248
#     4   9  17  29  45  65  89 116 146 181 220 261
#
# _framework density 16.044809999999998
#
# number of rings (size 3 to 8) (size 9 to 14) (size 15 to 20)
#    0.000    2.857    0.000    1.286    0.000    3.857 
#    0.000    6.429    0.000    2.571    0.000    2.000 
#    0.000   16.000    0.000    6.286    0.000    0.571 
#
# Total GULP energy -1388660.841286 kJ/mol
# GULP energy per Si atom -12398.757511 kJ/mol
# Density = 1.600829 g / cm^3
# Si number density = 16.044810 Si / 1000 Ang^3
#
#
#
# Elastic Constant Matrix: (Units=GPa)
#
#
# Indices 1 2 3 4 5 6 
#
# 1 88.2468 49.0792 55.4974 0.0000 0.0000 0.0000
# 2 49.0792 88.2468 55.4974 0.0000 0.0000 0.0000
# 3 55.4974 55.4974 94.6534 0.0000 0.0000 0.0000
# 4 0.0000 0.0000 0.0000 25.6691 0.0000 0.0000
# 5 0.0000 0.0000 0.0000 0.0000 25.6691 0.0000
# 6 0.0000 0.0000 0.0000 0.0000 0.0000 18.2589
#
#
#
# Elastic Compliance Matrix: (Units=1/GPa)
#
#
# Indices 1 2 3 4 5 6 
#
# 1 0.019686 -0.005845 -0.008115 0.000000 0.000000 0.000000
# 2 -0.005845 0.019686 -0.008115 0.000000 0.000000 0.000000
# 3 -0.008115 -0.008115 0.020081 0.000000 0.000000 0.000000
# 4 0.000000 0.000000 0.000000 0.038957 0.000000 0.000000
# 5 0.000000 0.000000 0.000000 0.000000 0.038957 0.000000
# 6 0.000000 0.000000 0.000000 0.000000 0.000000 0.054768
#
#
# Mechanical properties :
#
#
# Convention : Reuss Voigt Hill
#
# Bulk Modulus (GPa) = 65.35014 65.69942 65.52478
# Shear Modulus (GPa) = 20.71343 21.32428 21.01886
#
# Velocity S-wave (km/s) = 3.59691 3.64956 3.62333
# Velocity P-wave (km/s) = 7.62027 7.66782 7.64408
#
# Compressibility (1/GPa) = 0.01530219
#
# Stress axis : x y z
#
# Youngs Moduli (GPa) = 50.79663 50.79663 49.79721
#
# Poissons Ratio (x) = 0.29691 0.40413
# Poissons Ratio (y) = 0.29691 0.40413
# Poissons Ratio (z) = 0.41224 0.41224
#
# Static dielectric constant tensor:
#      x y z
#    x 2.969620 0.000000 0.000000 
#    y 0.000000 2.969620 0.000000 
#    z 0.000000 0.000000 3.233620 
# 
# 
# High freq. dielectric constant tensor:
#      x y z
#    x 1.602910 0.000000 0.000000 
#    y 0.000000 1.602910 0.000000 
#    z 0.000000 0.000000 1.628570 
# 
# From -- ./inp_files/8781.got.cif
#   From: 2010.03.12/outbox.cif.g09.slc.cpg/sg123_5_cif.got.tgz:8781.got - 2010.04.06 16:26:55.
