data_PCOD8312205
_publ_section_title
;
Structure prediction by ZEFSAII (Michael W. Deem and Ramdas Pophale) SiO2 
 PCOD8312205
Probable space group: P 4/M M M
;
_chemical_formula_sum "Si O2"
_cell_formula_units_Z 96
_cell_length_a 24.402574
_cell_length_b 24.402574
_cell_length_c 8.712882
_cell_angle_alpha 90.000000
_cell_angle_beta 90.000000
_cell_angle_gamma 90.000000
_cell_volume 5188.395921
_symmetry_space_group_name_H-M "P 4/M M M"
_symmetry_group_IT_number 123
_symmetry_cell_setting 'tetragonal'
loop_
_space_group_symop_operation_xyz
x,y,z
-y,x,z
-x,-y,z
y,-x,z
x,-y,-z
-x,y,-z
y,x,-z
-y,-x,-z
-x,-y,-z
y,-x,-z
x,y,-z
-y,x,-z
-x,y,z
x,-y,z
-y,-x,z
y,x,z
loop_
_atom_site_type_symbol
_atom_site_label
_atom_site_fract_x
_atom_site_fract_y
_atom_site_fract_z
Si Si1 0.350585 0.438411 0.325263
Si Si2 0.847947 0.358926 0.318163
Si Si3 0.237150 0.561988 0.178222
Si Si4 0.060879 0.560765 0.682657
Si Si5 0.851058 0.061668 0.317430
Si Si6 0.764248 0.851157 0.317460
O O1 0.331528 0.426498 0.500000
O O2 0.372784 0.500000 0.309950
O O3 0.399392 0.399392 0.272853
O O4 0.300731 0.428070 0.210419
O O5 0.851452 0.355405 0.500000
O O6 0.793766 0.391528 0.273304
O O7 0.899014 0.393178 0.249003
O O8 0.849263 0.297329 0.248498
O O9 0.220584 0.500000 0.230886
O O10 0.224792 0.570055 0.000000
O O11 0.062016 0.562066 0.500000
O O12 0.079008 0.500000 0.739011
O O13 0.000000 0.573938 0.743042
O O14 0.851433 0.058884 0.500000
O O15 0.904988 0.095013 0.261025
O O16 0.796254 0.093913 0.262300
O O17 0.851457 0.000000 0.247984
O O18 0.761890 0.850793 0.500000
O O19 0.797610 0.797610 0.259800
#
# Coordination Sequence:
#
# PCOD8312205 Si02
#       6
#    16  16  16  16  16  16
#     4   9  18  33  53  76 100 125 154 189 230 277
#     4  10  18  28  47  69  86 114 157 195 229 279
#     4  10  21  35  49  67  94 125 155 191 234 276
#     4   8  14  24  38  60  88 109 130 174 231 274
#     4   8  13  21  33  51  80 118 155 190 228 270
#     4   8  15  26  37  54  82 111 141 183 230 267
#
# _framework density 18.502828999999998
#
# number of rings (size 3 to 8) (size 9 to 14) (size 15 to 20)
#    0.000    3.167    0.000    2.500    0.000    3.667 
#    0.000    6.667    0.000    0.500    0.000    4.667 
#    0.000    0.000    0.000    0.500    0.000    0.833 
#
# Total GULP energy -1189767.501664 kJ/mol
# GULP energy per Si atom -12393.411476 kJ/mol
# Density = 1.846072 g / cm^3
# Si number density = 18.502829 Si / 1000 Ang^3
#
#
#
# Elastic Constant Matrix: (Units=GPa)
#
#
# Indices 1 2 3 4 5 6 
#
# 1 155.8531 90.9931 8.8341 0.0000 0.0000 0.0000
# 2 90.9931 155.8531 8.8341 0.0000 0.0000 0.0000
# 3 8.8341 8.8341 7.8170 0.0000 0.0000 0.0000
# 4 0.0000 0.0000 0.0000 5.3426 0.0000 0.0000
# 5 0.0000 0.0000 0.0000 0.0000 5.3426 0.0000
# 6 0.0000 0.0000 0.0000 0.0000 0.0000 18.6705
#
#
#
# Elastic Compliance Matrix: (Units=1/GPa)
#
#
# Indices 1 2 3 4 5 6 
#
# 1 0.009913 -0.005505 -0.004981 0.000000 0.000000 0.000000
# 2 -0.005505 0.009913 -0.004981 0.000000 0.000000 0.000000
# 3 -0.004981 -0.004981 0.139186 0.000000 0.000000 0.000000
# 4 0.000000 0.000000 0.000000 0.187173 0.000000 0.000000
# 5 0.000000 0.000000 0.000000 0.000000 0.187173 0.000000
# 6 0.000000 0.000000 0.000000 0.000000 0.000000 0.053561
#
#
# Mechanical properties :
#
#
# Convention : Reuss Voigt Hill
#
# Bulk Modulus (GPa) = 7.80785 59.64953 33.72869
# Shear Modulus (GPa) = 7.56950 19.92861 13.74906
#
# Velocity S-wave (km/s) = 2.02482 3.28542 2.72890
# Velocity P-wave (km/s) = 3.11376 6.83374 5.31015
#
# Compressibility (1/GPa) = 0.12807627
#
# Stress axis : x y z
#
# Youngs Moduli (GPa) = 100.88041 100.88041 7.18465
#
# Poissons Ratio (x) = 0.55536 0.03579
# Poissons Ratio (y) = 0.55536 0.03579
# Poissons Ratio (z) = 0.50250 0.50250
#
# Static dielectric constant tensor:
#      x y z
#    x 3.655290 0.000000 0.000000 
#    y 0.000000 3.655290 0.000000 
#    z 0.000000 0.000000 2.788450 
# 
# 
# High freq. dielectric constant tensor:
#      x y z
#    x 1.722680 0.000000 0.000000 
#    y 0.000000 1.722680 0.000000 
#    z 0.000000 0.000000 1.655410 
# 
# From -- ./inp_files/1623.got.cif
#   From: 2010.03.12/outbox.cif.g09.slc.cpg/sg123_1_cif.got.tgz:1623.got - 2010.04.06 16:26:55.
