data_PCOD8312592
_publ_section_title
;
Structure prediction by ZEFSAII (Michael W. Deem and Ramdas Pophale) SiO2 
 PCOD8312592
Probable space group: P 4/M M M
;
_chemical_formula_sum "Si O2"
_cell_formula_units_Z 104
_cell_length_a 19.203070
_cell_length_b 19.203070
_cell_length_c 17.104922
_cell_angle_alpha 90.000000
_cell_angle_beta 90.000000
_cell_angle_gamma 90.000000
_cell_volume 6307.575072
_symmetry_space_group_name_H-M "P 4/M M M"
_symmetry_group_IT_number 123
_symmetry_cell_setting 'tetragonal'
loop_
_space_group_symop_operation_xyz
x,y,z
-y,x,z
-x,-y,z
y,-x,z
x,-y,-z
-x,y,-z
y,x,-z
-y,-x,-z
-x,-y,-z
y,-x,-z
x,y,-z
-y,x,-z
-x,y,z
x,-y,z
-y,-x,z
y,x,z
loop_
_atom_site_type_symbol
_atom_site_label
_atom_site_fract_x
_atom_site_fract_y
_atom_site_fract_z
Si Si1 0.917662 0.418518 0.000000
Si Si2 0.077238 0.582841 0.414884
Si Si3 0.351094 0.822545 0.126263
Si Si4 0.423709 0.682747 0.088847
Si Si5 0.307750 0.420333 0.587670
Si Si6 0.417794 0.186847 0.294192
Si Si7 0.078732 0.078732 0.092778
Si Si8 0.191812 0.191812 0.906945
O O1 0.886942 0.383888 0.078567
O O2 0.898554 0.500000 0.000000
O O3 0.000000 0.406011 0.000000
O O4 0.102716 0.609571 0.500000
O O5 0.080460 0.500000 0.414788
O O6 0.124337 0.612132 0.346250
O O7 0.000000 0.610063 0.398379
O O8 0.378034 0.752076 0.087311
O O9 0.375531 0.819465 0.215102
O O10 0.267834 0.829090 0.124511
O O11 0.500000 0.691769 0.130310
O O12 0.379427 0.620574 0.130321
O O13 0.436705 0.661691 0.000000
O O14 0.276002 0.407604 0.500000
O O15 0.329053 0.500000 0.597126
O O16 0.377382 0.377382 0.600165
O O17 0.255214 0.398874 0.656413
O O18 0.500000 0.181653 0.277037
O O19 0.135151 0.135151 0.124394
O O20 0.000000 0.097956 0.121362
O O21 0.080358 0.080358 0.000000
O O22 0.193586 0.193586 0.000000
#
# Coordination Sequence:
#
# PCOD8312592 Si02
#       8
#     8  16  16  16  16  16   8   8
#     4  11  24  39  54  72  98 135 176 215 256 308
#     4   8  14  27  48  71  94 122 157 196 237 283
#     4  12  22  36  51  72 100 136 174 212 256 308
#     4  10  19  32  51  68  88 121 164 218 270 312
#     4   9  18  32  49  71  98 127 164 211 263 318
#     4  10  20  31  48  71  97 131 168 209 252 297
#     4   8  16  33  58  84 104 122 151 198 254 307
#     4  11  21  36  55  76 100 131 172 212 251 305
#
# _framework density 16.488111
#
# number of rings (size 3 to 8) (size 9 to 14) (size 15 to 20)
#    0.000    2.154    2.308    2.538    1.077    3.385 
#    0.000    3.077    0.000    0.000    0.000    2.154 
#    0.000    0.000    0.000    0.000    0.000    0.462 
#
# Total GULP energy -1288775.155096 kJ/mol
# GULP energy per Si atom -12392.068799 kJ/mol
# Density = 1.645058 g / cm^3
# Si number density = 16.488111 Si / 1000 Ang^3
#
#
#
# Elastic Constant Matrix: (Units=GPa)
#
#
# Indices 1 2 3 4 5 6 
#
# 1 105.9565 61.8697 43.0757 0.0000 0.0000 0.0000
# 2 61.8697 105.9565 43.0757 0.0000 0.0000 0.0000
# 3 43.0757 43.0757 113.7420 0.0000 0.0000 0.0000
# 4 0.0000 0.0000 0.0000 13.7004 0.0000 0.0000
# 5 0.0000 0.0000 0.0000 0.0000 13.7004 0.0000
# 6 0.0000 0.0000 0.0000 0.0000 0.0000 23.8430
#
#
#
# Elastic Compliance Matrix: (Units=1/GPa)
#
#
# Indices 1 2 3 4 5 6 
#
# 1 0.015039 -0.007643 -0.002801 0.000000 0.000000 0.000000
# 2 -0.007643 0.015039 -0.002801 0.000000 0.000000 0.000000
# 3 -0.002801 -0.002801 0.010914 0.000000 0.000000 0.000000
# 4 0.000000 0.000000 0.000000 0.072991 0.000000 0.000000
# 5 0.000000 0.000000 0.000000 0.000000 0.072991 0.000000
# 6 0.000000 0.000000 0.000000 0.000000 0.000000 0.041941
#
#
# Mechanical properties :
#
#
# Convention : Reuss Voigt Hill
#
# Bulk Modulus (GPa) = 68.95673 69.07749 69.01711
# Shear Modulus (GPa) = 19.21308 22.09101 20.65204
#
# Velocity S-wave (km/s) = 3.41731 3.66432 3.54297
# Velocity P-wave (km/s) = 7.58179 7.73881 7.66070
#
# Compressibility (1/GPa) = 0.01450185
#
# Stress axis : x y z
#
# Youngs Moduli (GPa) = 66.49160 66.49160 91.62957
#
# Poissons Ratio (x) = 0.50820 0.25667
# Poissons Ratio (y) = 0.50820 0.25667
# Poissons Ratio (z) = 0.18625 0.18625
#
# Static dielectric constant tensor:
#      x y z
#    x 3.198280 0.000000 0.000000 
#    y 0.000000 3.198280 0.000000 
#    z 0.000000 0.000000 3.099160 
# 
# 
# High freq. dielectric constant tensor:
#      x y z
#    x 1.624730 0.000000 0.000000 
#    y 0.000000 1.624730 0.000000 
#    z 0.000000 0.000000 1.621880 
# 
# From -- ./inp_files/5677.got.cif
#   From: 2010.03.12/outbox.cif.g09.slc.cpg/sg123_3_cif.got.tgz:5677.got - 2010.04.06 16:26:55.
