data_PCOD8312658
_publ_section_title
;
Structure prediction by ZEFSAII (Michael W. Deem and Ramdas Pophale) SiO2 
 PCOD8312658
Probable space group: P 4/M M M
;
_chemical_formula_sum "Si O2"
_cell_formula_units_Z 104
_cell_length_a 18.214210
_cell_length_b 18.214210
_cell_length_c 21.578858
_cell_angle_alpha 90.000000
_cell_angle_beta 90.000000
_cell_angle_gamma 90.000000
_cell_volume 7158.946816
_symmetry_space_group_name_H-M "P 4/M M M"
_symmetry_group_IT_number 123
_symmetry_cell_setting 'tetragonal'
loop_
_space_group_symop_operation_xyz
x,y,z
-y,x,z
-x,-y,z
y,-x,z
x,-y,-z
-x,y,-z
y,x,-z
-y,-x,-z
-x,-y,-z
y,-x,-z
x,y,-z
-y,x,-z
-x,y,z
x,-y,z
-y,-x,z
y,x,z
loop_
_atom_site_type_symbol
_atom_site_label
_atom_site_fract_x
_atom_site_fract_y
_atom_site_fract_z
Si Si1 0.800090 0.915199 0.500000
Si Si2 0.159082 0.276206 0.386533
Si Si3 0.916359 0.799150 0.133932
Si Si4 0.720393 0.084605 0.738841
Si Si5 0.912573 0.419473 0.189816
Si Si6 0.912787 0.653056 0.068149
Si Si7 0.583980 0.084349 0.573157
O O1 0.880045 0.880045 0.500000
O O2 0.756775 0.892962 0.561255
O O3 0.812952 0.000000 0.500000
O O4 0.242755 0.242755 0.395007
O O5 0.132162 0.251616 0.318846
O O6 0.146170 0.364387 0.393632
O O7 0.870549 0.870549 0.117718
O O8 0.905696 0.777474 0.205574
O O9 0.889072 0.734244 0.089163
O O10 0.000000 0.818929 0.120099
O O11 0.640668 0.115300 0.761028
O O12 0.714356 0.000000 0.718477
O O13 0.885410 0.500000 0.210656
O O14 0.882815 0.403596 0.120034
O O15 0.000000 0.413957 0.187428
O O16 0.000000 0.648427 0.065448
O O17 0.879551 0.635123 0.000000
O O18 0.593817 0.091913 0.500000
O O19 0.500000 0.101433 0.592478
O O20 0.603792 0.000000 0.593163
#
# Coordination Sequence:
#
# PCOD8312658 Si02
#       7
#     8  16  16  16  16  16  16
#     4  10  20  31  43  59  79 105 138 178 218 256
#     4  11  20  29  44  63  83 108 139 175 212 253
#     4   9  17  28  39  51  68  91 126 170 211 250
#     4   9  17  28  41  55  75 104 133 165 206 251
#     4   8  14  24  38  58  80 100 126 157 187 227
#     4   8  14  24  37  53  73  96 119 148 192 239
#     4   9  17  29  45  63  84 109 135 166 206 256
#
# _framework density 14.527276000000001
#
# number of rings (size 3 to 8) (size 9 to 14) (size 15 to 20)
#    0.000    2.923    0.769    4.154    0.000    1.462 
#    0.000    3.077    0.000    0.000    0.000    4.308 
#    0.000    0.308    0.000    1.692    0.000    0.000 
#
# Total GULP energy -1288494.398747 kJ/mol
# GULP energy per Si atom -12389.369219 kJ/mol
# Density = 1.449421 g / cm^3
# Si number density = 14.527276 Si / 1000 Ang^3
#
#
#
# Elastic Constant Matrix: (Units=GPa)
#
#
# Indices 1 2 3 4 5 6 
#
# 1 55.2721 28.4885 8.1468 0.0000 0.0000 0.0000
# 2 28.4885 55.2721 8.1468 0.0000 0.0000 0.0000
# 3 8.1468 8.1468 65.8297 0.0000 0.0000 0.0000
# 4 0.0000 0.0000 0.0000 5.9598 0.0000 0.0000
# 5 0.0000 0.0000 0.0000 0.0000 5.9598 0.0000
# 6 0.0000 0.0000 0.0000 0.0000 0.0000 11.7968
#
#
#
# Elastic Compliance Matrix: (Units=1/GPa)
#
#
# Indices 1 2 3 4 5 6 
#
# 1 0.024785 -0.012551 -0.001514 0.000000 0.000000 0.000000
# 2 -0.012551 0.024785 -0.001514 0.000000 0.000000 0.000000
# 3 -0.001514 -0.001514 0.015565 0.000000 0.000000 0.000000
# 4 0.000000 0.000000 0.000000 0.167790 0.000000 0.000000
# 5 0.000000 0.000000 0.000000 0.000000 0.167790 0.000000
# 6 0.000000 0.000000 0.000000 0.000000 0.000000 0.084769
#
#
# Mechanical properties :
#
#
# Convention : Reuss Voigt Hill
#
# Bulk Modulus (GPa) = 29.43232 29.54868 29.49050
# Shear Modulus (GPa) = 9.47028 13.51609 11.49318
#
# Velocity S-wave (km/s) = 2.55600 3.05355 2.81578
# Velocity P-wave (km/s) = 5.38654 5.72857 5.56019
#
# Compressibility (1/GPa) = 0.03397625
#
# Stress axis : x y z
#
# Youngs Moduli (GPa) = 40.34738 40.34738 64.24500
#
# Poissons Ratio (x) = 0.50642 0.09726
# Poissons Ratio (y) = 0.50642 0.09726
# Poissons Ratio (z) = 0.06108 0.06108
#
# Static dielectric constant tensor:
#      x y z
#    x 2.679680 0.000000 0.000000 
#    y 0.000000 2.679680 0.000000 
#    z 0.000000 0.000000 2.970930 
# 
# 
# High freq. dielectric constant tensor:
#      x y z
#    x 1.519440 0.000000 0.000000 
#    y 0.000000 1.519440 0.000000 
#    z 0.000000 0.000000 1.570850 
# 
# From -- ./inp_files/6702.got.cif
#   From: 2010.03.12/outbox.cif.g09.slc.cpg/sg123_4_cif.got.tgz:6702.got - 2010.04.06 16:26:55.
