data_PCOD8312804
_publ_section_title
;
Structure prediction by ZEFSAII (Michael W. Deem and Ramdas Pophale) SiO2 
 PCOD8312804
Probable space group: P 4/M M M
;
_chemical_formula_sum "Si O2"
_cell_formula_units_Z 120
_cell_length_a 27.947151
_cell_length_b 27.947151
_cell_length_c 7.944323
_cell_angle_alpha 90.000000
_cell_angle_beta 90.000000
_cell_angle_gamma 90.000000
_cell_volume 6204.859847
_symmetry_space_group_name_H-M "P 4/M M M"
_symmetry_group_IT_number 123
_symmetry_cell_setting 'tetragonal'
loop_
_space_group_symop_operation_xyz
x,y,z
-y,x,z
-x,-y,z
y,-x,z
x,-y,-z
-x,y,-z
y,x,-z
-y,-x,-z
-x,-y,-z
y,-x,-z
x,y,-z
-y,x,-z
-x,y,z
x,-y,z
-y,-x,z
y,x,z
loop_
_atom_site_type_symbol
_atom_site_label
_atom_site_fract_x
_atom_site_fract_y
_atom_site_fract_z
Si Si1 0.814819 0.106816 0.803561
Si Si2 0.635738 0.192763 0.691366
Si Si3 0.553702 0.629975 0.300668
Si Si4 0.446989 0.126792 0.696991
Si Si5 0.292266 0.122246 0.806386
Si Si6 0.053525 0.626119 0.200007
Si Si7 0.626109 0.296939 0.193363
Si Si8 0.865149 0.943791 0.500000
O O1 0.843778 0.156223 0.790195
O O2 0.761328 0.117941 0.734400
O O3 0.836474 0.068337 0.672697
O O4 0.816263 0.088304 0.000000
O O5 0.639698 0.176231 0.500000
O O6 0.588642 0.167534 0.773159
O O7 0.684699 0.174938 0.780055
O O8 0.630597 0.249351 0.699221
O O9 0.555093 0.634654 0.500000
O O10 0.500000 0.623100 0.233506
O O11 0.584357 0.584357 0.238740
O O12 0.574639 0.678650 0.221939
O O13 0.452654 0.134339 0.500000
O O14 0.500000 0.130576 0.780278
O O15 0.424015 0.075247 0.736454
O O16 0.328844 0.083493 0.725208
O O17 0.287151 0.110887 0.000000
O O18 0.000000 0.630239 0.270657
O O19 0.054685 0.626787 0.000000
O O20 0.666583 0.333418 0.258139
O O21 0.633151 0.283497 0.000000
O O22 0.915223 0.915223 0.500000
O O23 0.876358 0.000000 0.500000
#
# Coordination Sequence:
#
# PCOD8312804 Si02
#       8
#    16  16  16  16  16  16  16   8
#     4   9  19  36  58  84 116 153 191 233 279 330
#     4  10  20  33  52  76 102 133 173 219 264 313
#     4   9  18  33  53  76 102 131 164 206 257 314
#     4   9  19  35  51  68  94 128 165 207 256 306
#     4   9  18  33  53  76 107 142 175 216 269 324
#     4   9  18  32  49  71  99 130 166 209 256 307
#     4  10  21  36  52  72 101 134 169 208 250 303
#     4  10  22  39  60  88 120 154 195 239 281 331
#
# _framework density 19.339680000000001
#
# number of rings (size 3 to 8) (size 9 to 14) (size 15 to 20)
#    0.000    2.667    0.000    0.800    0.933    4.467 
#    0.000    6.000    0.000    0.000    0.000    3.733 
#    0.000    0.000    0.000    0.000    0.000    0.000 
#
# Total GULP energy -1487500.853366 kJ/mol
# GULP energy per Si atom -12395.840445 kJ/mol
# Density = 1.929566 g / cm^3
# Si number density = 19.339680 Si / 1000 Ang^3
#
#
#
# Elastic Constant Matrix: (Units=GPa)
#
#
# Indices 1 2 3 4 5 6 
#
# 1 146.6125 57.5155 24.9492 0.0000 0.0000 0.0000
# 2 57.5155 146.6125 24.9492 0.0000 0.0000 0.0000
# 3 24.9492 24.9492 43.2832 0.0000 0.0000 0.0000
# 4 0.0000 0.0000 0.0000 24.1534 0.0000 0.0000
# 5 0.0000 0.0000 0.0000 0.0000 24.1534 0.0000
# 6 0.0000 0.0000 0.0000 0.0000 0.0000 14.4467
#
#
#
# Elastic Compliance Matrix: (Units=1/GPa)
#
#
# Indices 1 2 3 4 5 6 
#
# 1 0.008463 -0.002761 -0.003287 0.000000 0.000000 0.000000
# 2 -0.002761 0.008463 -0.003287 0.000000 0.000000 0.000000
# 3 -0.003287 -0.003287 0.026893 0.000000 0.000000 0.000000
# 4 0.000000 0.000000 0.000000 0.041402 0.000000 0.000000
# 5 0.000000 0.000000 0.000000 0.000000 0.041402 0.000000
# 6 0.000000 0.000000 0.000000 0.000000 0.000000 0.069220
#
#
# Mechanical properties :
#
#
# Convention : Reuss Voigt Hill
#
# Bulk Modulus (GPa) = 39.76160 61.25957 50.51059
# Shear Modulus (GPa) = 22.43200 27.82362 25.12781
#
# Velocity S-wave (km/s) = 3.40942 3.79711 3.60847
# Velocity P-wave (km/s) = 6.00858 7.13922 6.59816
#
# Compressibility (1/GPa) = 0.02514989
#
# Stress axis : x y z
#
# Youngs Moduli (GPa) = 118.16067 118.16067 37.18446
#
# Poissons Ratio (x) = 0.32620 0.12222
# Poissons Ratio (y) = 0.32620 0.12222
# Poissons Ratio (z) = 0.38839 0.38839
#
# Static dielectric constant tensor:
#      x y z
#    x 3.618810 0.000000 0.000000 
#    y 0.000000 3.618810 0.000000 
#    z 0.000000 0.000000 3.407900 
# 
# 
# High freq. dielectric constant tensor:
#      x y z
#    x 1.747510 0.000000 0.000000 
#    y 0.000000 1.747510 0.000000 
#    z 0.000000 0.000000 1.745370 
# 
# From -- ./inp_files/2014.got.cif
#   From: 2010.03.12/outbox.cif.g09.slc.cpg/sg123_2_cif.got.tgz:2014.got - 2010.04.06 16:26:55.
