data_PCOD8312236
_publ_section_title
;
Structure prediction by ZEFSAII (Michael W. Deem and Ramdas Pophale) SiO2 
 PCOD8312236
Probable space group: P 4/M M M
;
_chemical_formula_sum "Si O2"
_cell_formula_units_Z 96
_cell_length_a 22.765971
_cell_length_b 22.765971
_cell_length_c 10.395689
_cell_angle_alpha 90.000000
_cell_angle_beta 90.000000
_cell_angle_gamma 90.000000
_cell_volume 5387.975784
_symmetry_space_group_name_H-M "P 4/M M M"
_symmetry_group_IT_number 123
_symmetry_cell_setting 'tetragonal'
loop_
_space_group_symop_operation_xyz
x,y,z
-y,x,z
-x,-y,z
y,-x,z
x,-y,-z
-x,y,-z
y,x,-z
-y,-x,-z
-x,-y,-z
y,-x,-z
x,y,-z
-y,x,-z
-x,y,z
x,-y,z
-y,-x,z
y,x,z
loop_
_atom_site_type_symbol
_atom_site_label
_atom_site_fract_x
_atom_site_fract_y
_atom_site_fract_z
Si Si1 0.162181 0.931188 0.000000
Si Si2 0.674293 0.067638 0.650320
Si Si3 0.932376 0.157673 0.500000
Si Si4 0.430060 0.334015 0.000000
Si Si5 0.784757 0.878304 0.252611
Si Si6 0.569542 0.661525 0.500000
Si Si7 0.732607 0.430613 0.255742
Si Si8 0.566372 0.855918 0.649064
O O1 0.198415 0.911254 0.123282
O O2 0.097948 0.902052 0.000000
O O3 0.152409 0.000000 0.000000
O O4 0.690366 0.071693 0.500000
O O5 0.714622 0.114345 0.729799
O O6 0.607441 0.087891 0.675508
O O7 0.681598 0.000000 0.697729
O O8 0.907855 0.092146 0.500000
O O9 0.912897 0.190304 0.372826
O O10 0.000000 0.151642 0.500000
O O11 0.409478 0.295947 0.877520
O O12 0.500000 0.346929 0.000000
O O13 0.396448 0.396448 0.000000
O O14 0.810997 0.810997 0.251542
O O15 0.500000 0.654361 0.500000
O O16 0.596383 0.596383 0.500000
O O17 0.594035 0.695317 0.374936
O O18 0.731649 0.500000 0.264690
O O19 0.800479 0.410385 0.267378
O O20 0.568655 0.836623 0.500000
O O21 0.500000 0.873898 0.687837
#
# Coordination Sequence:
#
# PCOD8312236 Si02
#       8
#     8  16   8   8  16   8  16  16
#     4  10  20  33  51  73  98 132 172 214 258 303
#     4  10  19  31  53  81 108 138 171 210 258 315
#     4  10  18  29  47  67  92 126 162 206 252 295
#     4  10  20  33  51  75 104 138 180 226 273 324
#     4  10  20  34  51  72 101 137 176 212 249 300
#     4  10  18  29  47  69  96 130 170 214 261 310
#     4   9  17  32  51  70  95 132 170 205 253 313
#     4   9  17  32  54  78 105 135 169 213 264 316
#
# _framework density 17.817450999999998
#
# number of rings (size 3 to 8) (size 9 to 14) (size 15 to 20)
#    0.000    2.333    1.667    2.000    0.000    0.667 
#    0.000    4.167    0.000    7.000    0.000    0.000 
#    0.000    5.333    0.000    0.000    0.000    0.000 
#
# Total GULP energy -1189785.873592 kJ/mol
# GULP energy per Si atom -12393.602850 kJ/mol
# Density = 1.777690 g / cm^3
# Si number density = 17.817451 Si / 1000 Ang^3
#
#
#
# Elastic Constant Matrix: (Units=GPa)
#
#
# Indices 1 2 3 4 5 6 
#
# 1 97.2812 51.8866 30.1786 0.0000 0.0000 0.0000
# 2 51.8866 97.2840 30.1820 0.0000 0.0000 0.0000
# 3 30.1786 30.1820 108.2117 0.0000 0.0000 0.0000
# 4 0.0000 0.0000 0.0000 15.5197 0.0000 0.0000
# 5 0.0000 0.0000 0.0000 0.0000 15.5177 0.0000
# 6 0.0000 0.0000 0.0000 0.0000 0.0000 24.4048
#
#
#
# Elastic Compliance Matrix: (Units=1/GPa)
#
#
# Indices 1 2 3 4 5 6 
#
# 1 0.014793 -0.007236 -0.002107 0.000000 0.000000 0.000000
# 2 -0.007236 0.014792 -0.002108 0.000000 0.000000 0.000000
# 3 -0.002107 -0.002108 0.010417 0.000000 0.000000 0.000000
# 4 0.000000 0.000000 0.000000 0.064434 0.000000 0.000000
# 5 0.000000 0.000000 0.000000 0.000000 0.064442 0.000000
# 6 0.000000 0.000000 0.000000 0.000000 0.000000 0.040976
#
#
# Mechanical properties :
#
#
# Convention : Reuss Voigt Hill
#
# Bulk Modulus (GPa) = 58.48031 58.58571 58.53301
# Shear Modulus (GPa) = 20.96826 23.79043 22.37934
#
# Velocity S-wave (km/s) = 3.43423 3.65805 3.54790
# Velocity P-wave (km/s) = 6.97269 7.12701 7.05027
#
# Compressibility (1/GPa) = 0.01709977
#
# Stress axis : x y z
#
# Youngs Moduli (GPa) = 67.60155 67.60220 95.99937
#
# Poissons Ratio (x) = 0.48916 0.20229
# Poissons Ratio (y) = 0.48916 0.20235
# Poissons Ratio (z) = 0.14245 0.14250
#
# Static dielectric constant tensor:
#      x y z
#    x -4.012590 0.000000 0.000000 
#    y 0.000000 -2.879660 0.000000 
#    z 0.000000 0.000000 3.180550 
# 
# 
# High freq. dielectric constant tensor:
#      x y z
#    x 1.678470 0.000000 0.000000 
#    y 0.000000 1.678470 0.000000 
#    z 0.000000 0.000000 1.683910 
# 
# From -- ./inp_files/3235.got.cif
#   From: 2010.03.12/outbox.cif.g09.slc.cpg/sg123_2_cif.got.tgz:3235.got - 2010.04.06 16:26:55.
