data_PCOD8312105
_publ_section_title
;
Structure prediction by ZEFSAII (Michael W. Deem and Ramdas Pophale) SiO2 
 PCOD8312105
Probable space group: I -4 2 D
;
_chemical_formula_sum "Si O2"
_cell_formula_units_Z 44
_cell_length_a 8.095599
_cell_length_b 8.095599
_cell_length_c 25.594752
_cell_angle_alpha 90.000000
_cell_angle_beta 90.000000
_cell_angle_gamma 90.000000
_cell_volume 1677.447366
_symmetry_space_group_name_H-M "I -4 2 D"
_symmetry_group_IT_number 122
_symmetry_cell_setting 'tetragonal'
loop_
_space_group_symop_operation_xyz
x,y,z
y,-x,-z
-x,-y,z
-y,x,-z
x,1/2-y,1/4-z
-x,1/2+y,1/4-z
-y,1/2-x,1/4+z
y,1/2+x,1/4+z
1/2+x,1/2+y,1/2+z
1/2+y,1/2-x,1/2-z
1/2-x,1/2-y,1/2+z
1/2-y,1/2+x,1/2-z
1/2+x,-y,3/4-z
1/2-x,y,3/4-z
1/2-y,-x,3/4+z
1/2+y,x,3/4+z
loop_
_atom_site_type_symbol
_atom_site_label
_atom_site_fract_x
_atom_site_fract_y
_atom_site_fract_z
Si Si1 0.205967 0.311918 0.027091
Si Si2 0.500000 0.000000 0.250000
Si Si3 0.315182 0.521047 0.174184
Si Si4 0.000000 0.500000 0.397492
O O1 0.345985 0.450563 0.037175
O O2 0.277722 0.136065 0.040601
O O3 0.050337 0.346511 0.065248
O O4 0.169285 0.319666 0.965455
O O5 0.500000 0.500000 0.148264
O O6 0.164210 0.551616 0.134489
#
# Coordination Sequence:
#
# PCOD8312105 Si02
#       4
#    16   4  16   8
#     4  12  25  52  78 121 170 221 278 363 420 512
#     4  12  24  44  82 112 172 228 270 344 432 492
#     4  12  26  51  82 118 170 222 285 351 432 512
#     4  12  28  49  81 126 164 224 295 343 436 512
#
# _framework density 26.230329999999999
#
# number of rings (size 3 to 8) (size 9 to 14) (size 15 to 20)
#    0.000    0.000    5.455    3.273    2.545    2.909 
#    0.000    0.000    0.000    0.000    0.000    0.000 
#    0.000    0.000    0.000    0.000    0.000    0.000 
#
# Total GULP energy -272692.315034 kJ/mol
# GULP energy per Si atom -12395.105229 kJ/mol
# Density = 2.617063 g / cm^3
# Si number density = 26.230330 Si / 1000 Ang^3
#
#
#
# Elastic Constant Matrix: (Units=GPa)
#
#
# Indices 1 2 3 4 5 6 
#
# 1 145.3954 26.9068 26.8380 0.0000 0.0000 0.0000
# 2 26.9068 145.3954 26.8380 0.0000 0.0000 0.0000
# 3 26.8380 26.8380 86.3057 0.0000 0.0000 0.0000
# 4 0.0000 0.0000 0.0000 25.7715 0.0000 0.0000
# 5 0.0000 0.0000 0.0000 0.0000 25.7714 0.0000
# 6 0.0000 0.0000 0.0000 0.0000 0.0000 48.0826
#
#
#
# Elastic Compliance Matrix: (Units=1/GPa)
#
#
# Indices 1 2 3 4 5 6 
#
# 1 0.007433 -0.001007 -0.001998 0.000000 0.000000 0.000000
# 2 -0.001007 0.007433 -0.001998 0.000000 0.000000 0.000000
# 3 -0.001998 -0.001998 0.012830 0.000000 0.000000 0.000000
# 4 0.000000 0.000000 0.000000 0.038803 0.000000 0.000000
# 5 0.000000 0.000000 0.000000 0.000000 0.038803 0.000000
# 6 0.000000 0.000000 0.000000 0.000000 0.000000 0.020798
#
#
# Mechanical properties :
#
#
# Convention : Reuss Voigt Hill
#
# Bulk Modulus (GPa) = 56.53315 59.80691 58.17003
# Shear Modulus (GPa) = 35.21096 39.69268 37.45182
#
# Velocity S-wave (km/s) = 3.66782 3.89425 3.78273
# Velocity P-wave (km/s) = 6.28781 6.56281 6.42678
#
# Compressibility (1/GPa) = 0.01768874
#
# Stress axis : x y z
#
# Youngs Moduli (GPa) = 134.53599 134.53597 77.94508
#
# Poissons Ratio (x) = 0.13543 0.15576
# Poissons Ratio (y) = 0.13543 0.15576
# Poissons Ratio (z) = 0.26885 0.26885
#
# Static dielectric constant tensor:
#      x y z
#    x 5.106860 0.000000 0.000000 
#    y 0.000000 5.106860 0.000000 
#    z 0.000000 0.000000 4.516820 
# 
# 
# High freq. dielectric constant tensor:
#      x y z
#    x 2.066330 0.000000 0.000000 
#    y 0.000000 2.066330 0.000000 
#    z 0.000000 0.000000 2.038340 
# 
# From -- ./inp_files/9039.got.cif
#   From: 2010.03.12/outbox.cif.g09.slc.cpg/sg122_5_cif.got.tgz:9039.got - 2010.04.06 16:17:16.
