data_PCOD8312640
_publ_section_title
;
Structure prediction by ZEFSAII (Michael W. Deem and Ramdas Pophale) SiO2 
 PCOD8312640
Probable space group: P 4/M M M
;
_chemical_formula_sum "Si O2"
_cell_formula_units_Z 88
_cell_length_a 17.413198
_cell_length_b 17.413198
_cell_length_c 14.808551
_cell_angle_alpha 90.000000
_cell_angle_beta 90.000000
_cell_angle_gamma 90.000000
_cell_volume 4490.240906
_symmetry_space_group_name_H-M "P 4/M M M"
_symmetry_group_IT_number 123
_symmetry_cell_setting 'tetragonal'
loop_
_space_group_symop_operation_xyz
x,y,z
-y,x,z
-x,-y,z
y,-x,z
x,-y,-z
-x,y,-z
y,x,-z
-y,-x,-z
-x,-y,-z
y,-x,-z
x,y,-z
-y,x,-z
-x,y,z
x,-y,z
-y,-x,z
y,x,z
loop_
_atom_site_type_symbol
_atom_site_label
_atom_site_fract_x
_atom_site_fract_y
_atom_site_fract_z
Si Si1 0.207384 0.913952 0.107150
Si Si2 0.711118 0.410133 0.749081
Si Si3 0.202710 0.331808 0.899609
Si Si4 0.914210 0.206553 0.393220
Si Si5 0.500000 0.916493 0.606570
Si Si6 0.645598 0.820591 0.393125
O O1 0.136502 0.863499 0.147099
O O2 0.289343 0.875519 0.132967
O O3 0.203738 0.000000 0.147977
O O4 0.200062 0.915951 0.000000
O O5 0.697634 0.500000 0.732774
O O6 0.629520 0.370481 0.773361
O O7 0.772923 0.398263 0.829806
O O8 0.740960 0.367415 0.658682
O O9 0.267678 0.267678 0.902695
O O10 0.192396 0.367813 0.000000
O O11 0.920745 0.213199 0.500000
O O12 0.872688 0.127313 0.364588
O O13 0.862365 0.277222 0.358829
O O14 0.000000 0.208825 0.350898
O O15 0.500000 0.924222 0.500000
O O16 0.424410 0.873455 0.638481
O O17 0.500000 0.000000 0.652191
O O18 0.647774 0.803763 0.500000
#
# Coordination Sequence:
#
# PCOD8312640 Si02
#       6
#    16  16  16  16   8  16
#     4   8  13  23  43  72 106 144 182 219 261 307
#     4  11  23  38  58  82 106 133 169 211 263 326
#     4   8  16  33  55  76 100 135 178 219 259 309
#     4   9  17  29  47  72 103 141 182 223 267 310
#     4   9  16  28  50  76 104 138 172 217 268 300
#     4  10  19  34  54  79 109 141 179 217 256 307
#
# _framework density 19.598057000000001
#
# number of rings (size 3 to 8) (size 9 to 14) (size 15 to 20)
#    0.000    2.818    0.909    2.182    0.000    4.182 
#    0.000    3.636    0.000    0.000    0.000    6.364 
#    0.000    4.364    0.000    0.364    0.000    0.000 
#
# Total GULP energy -1090657.818476 kJ/mol
# GULP energy per Si atom -12393.838846 kJ/mol
# Density = 1.955345 g / cm^3
# Si number density = 19.598057 Si / 1000 Ang^3
#
#
#
# Elastic Constant Matrix: (Units=GPa)
#
#
# Indices 1 2 3 4 5 6 
#
# 1 103.5094 74.8966 23.8702 0.0000 0.0000 0.0000
# 2 74.8966 103.5094 23.8702 0.0000 0.0000 0.0000
# 3 23.8702 23.8702 61.6426 0.0000 0.0000 0.0000
# 4 0.0000 0.0000 0.0000 6.5967 0.0000 0.0000
# 5 0.0000 0.0000 0.0000 0.0000 6.5967 0.0000
# 6 0.0000 0.0000 0.0000 0.0000 0.0000 25.4459
#
#
#
# Elastic Compliance Matrix: (Units=1/GPa)
#
#
# Indices 1 2 3 4 5 6 
#
# 1 0.020601 -0.014348 -0.002421 0.000000 0.000000 0.000000
# 2 -0.014348 0.020601 -0.002421 0.000000 0.000000 0.000000
# 3 -0.002421 -0.002421 0.018098 0.000000 0.000000 0.000000
# 4 0.000000 0.000000 0.000000 0.151590 0.000000 0.000000
# 5 0.000000 0.000000 0.000000 0.000000 0.151590 0.000000
# 6 0.000000 0.000000 0.000000 0.000000 0.000000 0.039299
#
#
# Mechanical properties :
#
#
# Convention : Reuss Voigt Hill
#
# Bulk Modulus (GPa) = 47.80476 57.10395 52.45435
# Shear Modulus (GPa) = 11.18233 17.46284 14.32258
#
# Velocity S-wave (km/s) = 2.39128 2.98828 2.70629
# Velocity P-wave (km/s) = 5.66302 6.41149 6.04885
#
# Compressibility (1/GPa) = 0.02091842
#
# Stress axis : x y z
#
# Youngs Moduli (GPa) = 48.54073 48.54073 55.25508
#
# Poissons Ratio (x) = 0.69647 0.13380
# Poissons Ratio (y) = 0.69647 0.13380
# Poissons Ratio (z) = 0.11754 0.11754
#
# Static dielectric constant tensor:
#      x y z
#    x 3.562440 0.000000 0.000000 
#    y 0.000000 3.562440 0.000000 
#    z 0.000000 0.000000 3.439710 
# 
# 
# High freq. dielectric constant tensor:
#      x y z
#    x 1.753500 0.000000 0.000000 
#    y 0.000000 1.753500 0.000000 
#    z 0.000000 0.000000 1.742500 
# 
# From -- ./inp_files/4098.got.cif
#   From: 2010.03.12/outbox.cif.g09.slc.cpg/sg123_3_cif.got.tgz:4098.got - 2010.04.06 16:26:55.
