data_PCOD8312590
_publ_section_title
;
Structure prediction by ZEFSAII (Michael W. Deem and Ramdas Pophale) SiO2 
 PCOD8312590
Probable space group: P 4/M M M
;
_chemical_formula_sum "Si O2"
_cell_formula_units_Z 72
_cell_length_a 12.474392
_cell_length_b 12.474392
_cell_length_c 27.950369
_cell_angle_alpha 90.000000
_cell_angle_beta 90.000000
_cell_angle_gamma 90.000000
_cell_volume 4349.369659
_symmetry_space_group_name_H-M "P 4/M M M"
_symmetry_group_IT_number 123
_symmetry_cell_setting 'tetragonal'
loop_
_space_group_symop_operation_xyz
x,y,z
-y,x,z
-x,-y,z
y,-x,z
x,-y,-z
-x,y,-z
y,x,-z
-y,-x,-z
-x,-y,-z
y,-x,-z
x,y,-z
-y,x,-z
-x,y,z
x,-y,z
-y,-x,z
y,x,z
loop_
_atom_site_type_symbol
_atom_site_label
_atom_site_fract_x
_atom_site_fract_y
_atom_site_fract_z
Si Si1 0.000000 0.376224 0.377975
Si Si2 0.708341 0.122214 0.777937
Si Si3 0.792737 0.380317 0.684721
Si Si4 0.123595 0.298311 0.886335
Si Si5 0.500000 0.872581 0.946054
Si Si6 0.000000 0.173083 0.556397
O O1 0.896963 0.352951 0.345843
O O2 0.000000 0.500000 0.396862
O O3 0.000000 0.291634 0.421119
O O4 0.826310 0.173691 0.774652
O O5 0.628845 0.180380 0.741089
O O6 0.662218 0.135182 0.831483
O O7 0.721238 0.000000 0.762848
O O8 0.751889 0.500000 0.674763
O O9 0.699214 0.300787 0.668547
O O10 0.192140 0.192140 0.896965
O O11 0.168884 0.393826 0.919250
O O12 0.000000 0.270304 0.898039
O O13 0.500000 0.000000 0.945042
O O14 0.500000 0.827662 0.000000
O O15 0.105750 0.105750 0.571914
O O16 0.000000 0.190025 0.500000
#
# Coordination Sequence:
#
# PCOD8312590 Si02
#       6
#     8  16  16  16   8   8
#     4  10  19  32  50  74 101 130 163 210 252 290
#     4   9  17  29  45  67  96 126 159 194 234 284
#     4  10  20  32  47  68  95 129 164 203 245 287
#     4   9  18  31  49  72  94 123 155 190 236 283
#     4   9  18  32  48  69  93 119 153 190 229 281
#     4   9  18  33  53  75 101 136 173 207 245 291
#
# _framework density 16.554124000000002
#
# number of rings (size 3 to 8) (size 9 to 14) (size 15 to 20)
#    0.000    2.667    1.111    1.000    1.556    1.333 
#    0.000    2.222    0.000    0.333    0.000    3.889 
#    0.000    0.000    0.000   20.667    0.000    0.000 
#
# Total GULP energy -892622.923108 kJ/mol
# GULP energy per Si atom -12397.540599 kJ/mol
# Density = 1.651645 g / cm^3
# Si number density = 16.554124 Si / 1000 Ang^3
#
#
#
# Elastic Constant Matrix: (Units=GPa)
#
#
# Indices 1 2 3 4 5 6 
#
# 1 106.0999 59.7379 43.0190 0.0000 0.0000 0.0000
# 2 59.7379 106.0999 43.0190 0.0000 0.0000 0.0000
# 3 43.0190 43.0190 69.6762 0.0000 0.0000 0.0000
# 4 0.0000 0.0000 0.0000 24.3605 0.0000 0.0000
# 5 0.0000 0.0000 0.0000 0.0000 24.3605 0.0000
# 6 0.0000 0.0000 0.0000 0.0000 0.0000 18.3778
#
#
#
# Elastic Compliance Matrix: (Units=1/GPa)
#
#
# Indices 1 2 3 4 5 6 
#
# 1 0.015221 -0.006349 -0.005478 0.000000 0.000000 0.000000
# 2 -0.006349 0.015221 -0.005478 0.000000 0.000000 0.000000
# 3 -0.005478 -0.005478 0.021116 0.000000 0.000000 0.000000
# 4 0.000000 0.000000 0.000000 0.041050 0.000000 0.000000
# 5 0.000000 0.000000 0.000000 0.000000 0.041050 0.000000
# 6 0.000000 0.000000 0.000000 0.000000 0.000000 0.054413
#
#
# Mechanical properties :
#
#
# Convention : Reuss Voigt Hill
#
# Bulk Modulus (GPa) = 58.99958 63.71421 61.35689
# Shear Modulus (GPa) = 21.89830 22.49311 22.19570
#
# Velocity S-wave (km/s) = 3.64102 3.69014 3.66566
# Velocity P-wave (km/s) = 7.30711 7.53181 7.42031
#
# Compressibility (1/GPa) = 0.01694927
#
# Stress axis : x y z
#
# Youngs Moduli (GPa) = 65.70044 65.70044 47.35758
#
# Poissons Ratio (x) = 0.41712 0.25940
# Poissons Ratio (y) = 0.41712 0.25940
# Poissons Ratio (z) = 0.35988 0.35988
#
# Static dielectric constant tensor:
#      x y z
#    x 3.040660 0.000000 0.000000 
#    y 0.000000 3.040660 0.000000 
#    z 0.000000 0.000000 3.082320 
# 
# 
# High freq. dielectric constant tensor:
#      x y z
#    x 1.629160 0.000000 0.000000 
#    y 0.000000 1.629160 0.000000 
#    z 0.000000 0.000000 1.630420 
# 
# From -- ./inp_files/8297.got.cif
#   From: 2010.03.12/outbox.cif.g09.slc.cpg/sg123_5_cif.got.tgz:8297.got - 2010.04.06 16:26:55.
