data_PCOD8312767
_publ_section_title
;
Structure prediction by ZEFSAII (Michael W. Deem and Ramdas Pophale) SiO2 
 PCOD8312767
Probable space group: P 4/M M M
;
_chemical_formula_sum "Si O2"
_cell_formula_units_Z 120
_cell_length_a 28.187196
_cell_length_b 28.187196
_cell_length_c 8.144546
_cell_angle_alpha 90.000000
_cell_angle_beta 90.000000
_cell_angle_gamma 90.000000
_cell_volume 6470.988548
_symmetry_space_group_name_H-M "P 4/M M M"
_symmetry_group_IT_number 123
_symmetry_cell_setting 'tetragonal'
loop_
_space_group_symop_operation_xyz
x,y,z
-y,x,z
-x,-y,z
y,-x,z
x,-y,-z
-x,y,-z
y,x,-z
-y,-x,-z
-x,-y,-z
y,-x,-z
x,y,-z
-y,x,-z
-x,y,z
x,-y,z
-y,-x,z
y,x,z
loop_
_atom_site_type_symbol
_atom_site_label
_atom_site_fract_x
_atom_site_fract_y
_atom_site_fract_z
Si Si1 0.103444 0.286904 0.688992
Si Si2 0.131245 0.444326 0.184793
Si Si3 0.720138 0.645305 0.689647
Si Si4 0.762732 0.553257 0.804949
Si Si5 0.055606 0.808227 0.689323
Si Si6 0.052740 0.378124 0.691054
Si Si7 0.207015 0.717801 0.811818
Si Si8 0.055013 0.870524 0.000000
O O1 0.090823 0.289319 0.500000
O O2 0.082565 0.238052 0.756291
O O3 0.077068 0.331615 0.774258
O O4 0.159787 0.289107 0.708763
O O5 0.123463 0.500000 0.190807
O O6 0.183991 0.432299 0.255455
O O7 0.088574 0.421787 0.287040
O O8 0.127593 0.424929 0.000000
O O9 0.732045 0.652984 0.500000
O O10 0.668038 0.668038 0.730175
O O11 0.723200 0.589532 0.734341
O O12 0.760092 0.671682 0.795201
O O13 0.750247 0.500000 0.742540
O O14 0.761794 0.553951 0.000000
O O15 0.070231 0.822852 0.500000
O O16 0.070448 0.845925 0.828244
O O17 0.000000 0.797793 0.694226
O O18 0.046137 0.369877 0.500000
O O19 0.000000 0.387250 0.768375
O O20 0.236024 0.763977 0.748305
O O21 0.192563 0.724161 0.000000
O O22 0.078402 0.921599 0.000000
O O23 0.000000 0.879271 0.000000
#
# Coordination Sequence:
#
# PCOD8312767 Si02
#       8
#    16  16  16  16  16  16  16   8
#     4  10  20  34  53  74  98 130 166 209 258 307
#     4   9  19  35  51  69  96 128 164 211 264 310
#     4  10  20  33  49  71 102 138 173 209 250 298
#     4   9  18  33  53  76 101 130 167 211 256 304
#     4   9  19  37  58  79 107 141 172 208 257 308
#     4  10  21  35  50  70  95 124 163 210 258 308
#     4  10  21  34  48  69  99 133 166 203 248 300
#     4  10  22  39  60  86 112 138 171 207 245 301
#
# _framework density 18.544308000000001
#
# number of rings (size 3 to 8) (size 9 to 14) (size 15 to 20)
#    0.000    2.400    0.000    2.800    0.933    8.333 
#    0.000    4.000    0.000    0.000    0.000    1.867 
#    0.000    0.267    0.000    2.933    0.000    2.133 
#
# Total GULP energy -1487220.338835 kJ/mol
# GULP energy per Si atom -12393.502824 kJ/mol
# Density = 1.850210 g / cm^3
# Si number density = 18.544308 Si / 1000 Ang^3
#
#
#
# Elastic Constant Matrix: (Units=GPa)
#
#
# Indices 1 2 3 4 5 6 
#
# 1 84.6078 79.7984 21.3684 0.0000 0.0000 0.0000
# 2 79.7984 84.5937 21.3668 0.0000 0.0000 0.0000
# 3 21.3684 21.3668 49.1704 0.0000 0.0000 0.0000
# 4 0.0000 0.0000 0.0000 21.8632 0.0000 0.0000
# 5 0.0000 0.0000 0.0000 0.0000 21.8633 0.0000
# 6 0.0000 0.0000 0.0000 0.0000 0.0000 27.8189
#
#
#
# Elastic Compliance Matrix: (Units=1/GPa)
#
#
# Indices 1 2 3 4 5 6 
#
# 1 0.107536 -0.100688 -0.002979 0.000000 0.000000 0.000000
# 2 -0.100688 0.107554 -0.002980 0.000000 0.000000 0.000000
# 3 -0.002979 -0.002980 0.022927 0.000000 0.000000 0.000000
# 4 0.000000 0.000000 0.000000 0.045739 0.000000 0.000000
# 5 0.000000 0.000000 0.000000 0.000000 0.045739 0.000000
# 6 0.000000 0.000000 0.000000 0.000000 0.000000 0.035947
#
#
# Mechanical properties :
#
#
# Convention : Reuss Voigt Hill
#
# Bulk Modulus (GPa) = 40.44925 51.49322 45.97123
# Shear Modulus (GPa) = 8.51821 20.69830 14.60825
#
# Velocity S-wave (km/s) = 2.14556 3.34451 2.80973
# Velocity P-wave (km/s) = 5.29126 6.53776 5.94726
#
# Compressibility (1/GPa) = 0.02472234
#
# Stress axis : x y z
#
# Youngs Moduli (GPa) = 9.29922 9.29766 43.61592
#
# Poissons Ratio (x) = 0.93616 0.12995
# Poissons Ratio (y) = 0.93632 0.13000
# Poissons Ratio (z) = 0.02771 0.02771
#
# Static dielectric constant tensor:
#      x y z
#    x 3.461980 0.000000 0.000000 
#    y 0.000000 3.461980 0.000000 
#    z 0.000000 0.000000 3.352410 
# 
# 
# High freq. dielectric constant tensor:
#      x y z
#    x 1.708180 0.000000 0.000000 
#    y 0.000000 1.708180 0.000000 
#    z 0.000000 0.000000 1.714250 
# 
# From -- ./inp_files/2065.got.cif
#   From: 2010.03.12/outbox.cif.g09.slc.cpg/sg123_2_cif.got.tgz:2065.got - 2010.04.06 16:26:55.
