data_PCOD8312071
_publ_section_title
;
Structure prediction by ZEFSAII (Michael W. Deem and Ramdas Pophale) SiO2 
 PCOD8312071
Probable space group: I -4 2 D
;
_chemical_formula_sum "Si O2"
_cell_formula_units_Z 52
_cell_length_a 15.761539
_cell_length_b 15.761539
_cell_length_c 8.633492
_cell_angle_alpha 90.000000
_cell_angle_beta 90.000000
_cell_angle_gamma 90.000000
_cell_volume 2144.784848
_symmetry_space_group_name_H-M "I -4 2 D"
_symmetry_group_IT_number 122
_symmetry_cell_setting 'tetragonal'
loop_
_space_group_symop_operation_xyz
x,y,z
y,-x,-z
-x,-y,z
-y,x,-z
x,1/2-y,1/4-z
-x,1/2+y,1/4-z
-y,1/2-x,1/4+z
y,1/2+x,1/4+z
1/2+x,1/2+y,1/2+z
1/2+y,1/2-x,1/2-z
1/2-x,1/2-y,1/2+z
1/2-y,1/2+x,1/2-z
1/2+x,-y,3/4-z
1/2-x,y,3/4-z
1/2-y,-x,3/4+z
1/2+y,x,3/4+z
loop_
_atom_site_type_symbol
_atom_site_label
_atom_site_fract_x
_atom_site_fract_y
_atom_site_fract_z
Si Si1 0.092596 0.591935 0.251013
Si Si2 0.240442 0.840844 0.193225
Si Si3 0.000000 0.000000 0.500000
Si Si4 0.921278 0.154014 0.672421
O O1 0.101498 0.498996 0.331001
O O2 0.164324 0.600106 0.118628
O O3 0.091543 0.658108 0.392130
O O4 0.218020 0.750000 0.125000
O O5 0.250000 0.838162 0.375000
O O6 0.329664 0.874879 0.135690
O O7 0.916183 0.987433 0.391761
O O8 0.948910 0.250000 0.625000
#
# Coordination Sequence:
#
# PCOD8312071 Si02
#       4
#    16  16   4  16
#     4  11  26  46  72 108 150 196 251 315 381 458
#     4  11  25  47  76 106 148 202 253 316 385 458
#     4  12  28  44  86 112 152 212 258 316 380 456
#     4  11  27  49  73 113 153 198 257 316 382 454
#
# _framework density 24.244857
#
# number of rings (size 3 to 8) (size 9 to 14) (size 15 to 20)
#    0.000    0.923    0.000    6.462   12.923    2.462 
#    0.000    0.000    0.000    0.000    0.000    0.000 
#    0.000    0.000    0.000    0.000    0.000    0.000 
#
# Total GULP energy -322259.042810 kJ/mol
# GULP energy per Si atom -12394.578570 kJ/mol
# Density = 2.418967 g / cm^3
# Si number density = 24.244857 Si / 1000 Ang^3
#
#
#
# Elastic Constant Matrix: (Units=GPa)
#
#
# Indices 1 2 3 4 5 6 
#
# 1 130.2424 54.3573 48.9924 0.0000 0.0000 0.0000
# 2 54.3573 130.2424 48.9924 0.0000 0.0000 0.0000
# 3 48.9924 48.9924 167.5497 0.0000 0.0000 0.0000
# 4 0.0000 0.0000 0.0000 36.7738 0.0000 0.0000
# 5 0.0000 0.0000 0.0000 0.0000 36.7738 0.0000
# 6 0.0000 0.0000 0.0000 0.0000 0.0000 37.3472
#
#
#
# Elastic Compliance Matrix: (Units=1/GPa)
#
#
# Indices 1 2 3 4 5 6 
#
# 1 0.009795 -0.003383 -0.001875 0.000000 0.000000 0.000000
# 2 -0.003383 0.009795 -0.001875 0.000000 0.000000 0.000000
# 3 -0.001875 -0.001875 0.007065 0.000000 0.000000 0.000000
# 4 0.000000 0.000000 0.000000 0.027193 0.000000 0.000000
# 5 0.000000 0.000000 0.000000 0.000000 0.027193 0.000000
# 6 0.000000 0.000000 0.000000 0.000000 0.000000 0.026776
#
#
# Mechanical properties :
#
#
# Convention : Reuss Voigt Hill
#
# Bulk Modulus (GPa) = 80.71281 81.41320 81.06300
# Shear Modulus (GPa) = 39.61566 40.55847 40.08707
#
# Velocity S-wave (km/s) = 4.04664 4.09451 4.07065
# Velocity P-wave (km/s) = 7.42945 7.48370 7.45662
#
# Compressibility (1/GPa) = 0.01238961
#
# Stress axis : x y z
#
# Youngs Moduli (GPa) = 102.09192 102.09192 141.54476
#
# Poissons Ratio (x) = 0.34535 0.26540
# Poissons Ratio (y) = 0.34535 0.26540
# Poissons Ratio (z) = 0.19142 0.19142
#
# Static dielectric constant tensor:
#      x y z
#    x 4.768680 0.000000 0.000000 
#    y 0.000000 4.768680 0.000000 
#    z 0.000000 0.000000 4.329400 
# 
# 
# High freq. dielectric constant tensor:
#      x y z
#    x 1.972580 0.000000 0.000000 
#    y 0.000000 1.972580 0.000000 
#    z 0.000000 0.000000 1.966300 
# 
# From -- ./inp_files/2212.got.cif
#   From: 2010.03.12/outbox.cif.g09.slc.cpg/sg122_2_cif.got.tgz:2212.got - 2010.04.06 16:17:16.
