data_PCOD8312673
_publ_section_title
;
Structure prediction by ZEFSAII (Michael W. Deem and Ramdas Pophale) SiO2 
 PCOD8312673
Probable space group: P 4/M M M
;
_chemical_formula_sum "Si O2"
_cell_formula_units_Z 88
_cell_length_a 18.337044
_cell_length_b 18.337044
_cell_length_c 15.734012
_cell_angle_alpha 90.000000
_cell_angle_beta 90.000000
_cell_angle_gamma 90.000000
_cell_volume 5290.517207
_symmetry_space_group_name_H-M "P 4/M M M"
_symmetry_group_IT_number 123
_symmetry_cell_setting 'tetragonal'
loop_
_space_group_symop_operation_xyz
x,y,z
-y,x,z
-x,-y,z
y,-x,z
x,-y,-z
-x,y,-z
y,x,-z
-y,-x,-z
-x,-y,-z
y,-x,-z
x,y,-z
-y,x,-z
-x,y,z
x,-y,z
-y,-x,z
y,x,z
loop_
_atom_site_type_symbol
_atom_site_label
_atom_site_fract_x
_atom_site_fract_y
_atom_site_fract_z
Si Si1 0.299197 0.415165 0.596345
Si Si2 0.083359 0.651548 0.320976
Si Si3 0.919633 0.804256 0.599346
Si Si4 0.914720 0.500000 0.407279
Si Si5 0.656174 0.774296 0.756215
Si Si6 0.299428 0.416970 0.905139
O O1 0.269061 0.402906 0.500000
O O2 0.307166 0.500000 0.617698
O O3 0.379042 0.379042 0.605285
O O4 0.246002 0.378455 0.664972
O O5 0.095010 0.718403 0.386050
O O6 0.108536 0.573962 0.360063
O O7 0.138347 0.668311 0.243188
O O8 0.000000 0.647500 0.288185
O O9 0.919595 0.817071 0.500000
O O10 0.857009 0.857009 0.640242
O O11 0.000000 0.825186 0.636479
O O12 0.876323 0.500000 0.500000
O O13 0.000000 0.500000 0.420366
O O14 0.732451 0.732451 0.770059
O O15 0.602761 0.760600 0.835210
O O16 0.322306 0.500000 0.895023
O O17 0.372423 0.372423 0.886217
O O18 0.268648 0.400740 0.000000
#
# Coordination Sequence:
#
# PCOD8312673 Si02
#       6
#    16  16  16   8  16  16
#     4   9  18  30  43  62  87 117 152 186 222 264
#     4  10  20  32  46  64  86 117 154 193 234 274
#     4   9  17  29  45  65  90 119 152 192 238 288
#     4   9  18  30  42  60  85 115 156 199 233 265
#     4  10  20  33  49  68  92 120 151 188 230 278
#     4   9  18  32  51  74  97 122 152 188 233 282
#
# _framework density 16.633534000000001
#
# number of rings (size 3 to 8) (size 9 to 14) (size 15 to 20)
#    0.000    2.636    0.000    1.636    2.545    4.182 
#    0.000    4.545    0.000    3.818    0.000    1.273 
#    0.000    0.000    0.000    0.000    0.000    0.000 
#
# Total GULP energy -1090411.951295 kJ/mol
# GULP energy per Si atom -12391.044901 kJ/mol
# Density = 1.659567 g / cm^3
# Si number density = 16.633534 Si / 1000 Ang^3
#
#
#
# Elastic Constant Matrix: (Units=GPa)
#
#
# Indices 1 2 3 4 5 6 
#
# 1 99.5174 38.1528 26.8554 0.0000 0.0000 0.0000
# 2 38.1528 99.5174 26.8554 0.0000 0.0000 0.0000
# 3 26.8554 26.8554 69.6293 0.0000 0.0000 0.0000
# 4 0.0000 0.0000 0.0000 16.1727 0.0000 0.0000
# 5 0.0000 0.0000 0.0000 0.0000 16.1727 0.0000
# 6 0.0000 0.0000 0.0000 0.0000 0.0000 15.7915
#
#
#
# Elastic Compliance Matrix: (Units=1/GPa)
#
#
# Indices 1 2 3 4 5 6 
#
# 1 0.012423 -0.003873 -0.003298 0.000000 0.000000 0.000000
# 2 -0.003873 0.012423 -0.003298 0.000000 0.000000 0.000000
# 3 -0.003298 -0.003298 0.016906 0.000000 0.000000 0.000000
# 4 0.000000 0.000000 0.000000 0.061833 0.000000 0.000000
# 5 0.000000 0.000000 0.000000 0.000000 0.061833 0.000000
# 6 0.000000 0.000000 0.000000 0.000000 0.000000 0.063325
#
#
# Mechanical properties :
#
#
# Convention : Reuss Voigt Hill
#
# Bulk Modulus (GPa) = 48.04195 50.26571 49.15383
# Shear Modulus (GPa) = 19.48422 21.41407 20.44914
#
# Velocity S-wave (km/s) = 3.42626 3.59193 3.51007
# Velocity P-wave (km/s) = 6.67815 6.89114 6.78548
#
# Compressibility (1/GPa) = 0.02081514
#
# Stress axis : x y z
#
# Youngs Moduli (GPa) = 80.49464 80.49464 59.15188
#
# Poissons Ratio (x) = 0.31174 0.19507
# Poissons Ratio (y) = 0.31174 0.19507
# Poissons Ratio (z) = 0.26545 0.26545
#
# Static dielectric constant tensor:
#      x y z
#    x 3.272290 0.000000 0.000000 
#    y 0.000000 3.272290 0.000000 
#    z 0.000000 0.000000 2.971420 
# 
# 
# High freq. dielectric constant tensor:
#      x y z
#    x 1.643800 0.000000 0.000000 
#    y 0.000000 1.643800 0.000000 
#    z 0.000000 0.000000 1.598730 
# 
# From -- ./inp_files/4118.got.cif
#   From: 2010.03.12/outbox.cif.g09.slc.cpg/sg123_3_cif.got.tgz:4118.got - 2010.04.06 16:26:55.
