data_PCOD8312832
_publ_section_title
;
Structure prediction by ZEFSAII (Michael W. Deem and Ramdas Pophale) SiO2 
 PCOD8312832
Probable space group: P 4/M M M
;
_chemical_formula_sum "Si O2"
_cell_formula_units_Z 88
_cell_length_a 17.207340
_cell_length_b 17.207340
_cell_length_c 15.242506
_cell_angle_alpha 90.000000
_cell_angle_beta 90.000000
_cell_angle_gamma 90.000000
_cell_volume 4513.192468
_symmetry_space_group_name_H-M "P 4/M M M"
_symmetry_group_IT_number 123
_symmetry_cell_setting 'tetragonal'
loop_
_space_group_symop_operation_xyz
x,y,z
-y,x,z
-x,-y,z
y,-x,z
x,-y,-z
-x,y,-z
y,x,-z
-y,-x,-z
-x,-y,-z
y,-x,-z
x,y,-z
-y,x,-z
-x,y,z
x,-y,z
-y,-x,z
y,x,z
loop_
_atom_site_type_symbol
_atom_site_label
_atom_site_fract_x
_atom_site_fract_y
_atom_site_fract_z
Si Si1 0.500000 0.915781 0.103716
Si Si2 0.213180 0.912322 0.649346
Si Si3 0.590792 0.286817 0.250433
Si Si4 0.912143 0.209439 0.856454
Si Si5 0.204673 0.665611 0.402382
Si Si6 0.357323 0.815351 0.099707
O O1 0.423458 0.872582 0.135964
O O2 0.500000 0.000000 0.148650
O O3 0.500000 0.923538 0.000000
O O4 0.139573 0.860428 0.618250
O O5 0.221106 0.911766 0.753226
O O6 0.294561 0.879312 0.611981
O O7 0.201081 0.000000 0.614096
O O8 0.500000 0.299349 0.230721
O O9 0.630217 0.369784 0.275010
O O10 0.599954 0.225028 0.330499
O O11 0.637750 0.257568 0.164552
O O12 0.873458 0.126543 0.881054
O O13 0.859781 0.275894 0.899651
O O14 0.000000 0.211765 0.894029
O O15 0.208248 0.628866 0.500000
O O16 0.266495 0.733506 0.389448
O O17 0.373145 0.786999 0.000000
#
# Coordination Sequence:
#
# PCOD8312832 Si02
#       6
#     8  16  16  16  16  16
#     4   9  18  32  52  80 112 144 182 231 284 332
#     4   9  17  30  50  78 113 152 194 239 285 333
#     4  11  23  40  62  88 116 145 181 224 275 339
#     4  10  20  34  53  79 113 153 197 244 290 336
#     4   9  18  35  59  83 108 143 186 229 274 326
#     4  11  21  36  58  85 114 148 191 235 282 335
#
# _framework density 19.498391999999999
#
# number of rings (size 3 to 8) (size 9 to 14) (size 15 to 20)
#    0.000    2.091    2.727    1.091    0.000    3.818 
#    0.000    1.818    0.000    0.000    0.000    8.909 
#    0.000    0.000    0.000    0.000    0.000    0.000 
#
# Total GULP energy -1090928.988304 kJ/mol
# GULP energy per Si atom -12396.920322 kJ/mol
# Density = 1.945401 g / cm^3
# Si number density = 19.498392 Si / 1000 Ang^3
#
#
#
# Elastic Constant Matrix: (Units=GPa)
#
#
# Indices 1 2 3 4 5 6 
#
# 1 92.0192 49.5925 28.5155 0.0000 0.0000 0.0000
# 2 49.5925 92.0192 28.5155 0.0000 0.0000 0.0000
# 3 28.5155 28.5155 88.8123 0.0000 0.0000 0.0000
# 4 0.0000 0.0000 0.0000 14.2484 0.0000 0.0000
# 5 0.0000 0.0000 0.0000 0.0000 14.2484 0.0000
# 6 0.0000 0.0000 0.0000 0.0000 0.0000 22.9391
#
#
#
# Elastic Compliance Matrix: (Units=1/GPa)
#
#
# Indices 1 2 3 4 5 6 
#
# 1 0.015840 -0.007730 -0.002604 0.000000 0.000000 0.000000
# 2 -0.007730 0.015840 -0.002604 0.000000 0.000000 0.000000
# 3 -0.002604 -0.002604 0.012932 0.000000 0.000000 0.000000
# 4 0.000000 0.000000 0.000000 0.070183 0.000000 0.000000
# 5 0.000000 0.000000 0.000000 0.000000 0.070183 0.000000
# 6 0.000000 0.000000 0.000000 0.000000 0.000000 0.043594
#
#
# Mechanical properties :
#
#
# Convention : Reuss Voigt Hill
#
# Bulk Modulus (GPa) = 53.37215 54.01085 53.69150
# Shear Modulus (GPa) = 19.17959 21.36899 20.27429
#
# Velocity S-wave (km/s) = 3.13972 3.31408 3.22808
# Velocity P-wave (km/s) = 6.36992 6.51187 6.44129
#
# Compressibility (1/GPa) = 0.01873636
#
# Stress axis : x y z
#
# Youngs Moduli (GPa) = 63.13065 63.13065 77.32825
#
# Poissons Ratio (x) = 0.48799 0.20136
# Poissons Ratio (y) = 0.48799 0.20136
# Poissons Ratio (z) = 0.16439 0.16439
#
# Static dielectric constant tensor:
#      x y z
#    x 3.532850 0.000000 0.000000 
#    y 0.000000 3.532850 0.000000 
#    z 0.000000 0.000000 3.459500 
# 
# 
# High freq. dielectric constant tensor:
#      x y z
#    x 1.747170 0.000000 0.000000 
#    y 0.000000 1.747170 0.000000 
#    z 0.000000 0.000000 1.753160 
# 
# From -- ./inp_files/4063.got.cif
#   From: 2010.03.12/outbox.cif.g09.slc.cpg/sg123_3_cif.got.tgz:4063.got - 2010.04.06 16:26:55.
