data_PCOD8312051
_publ_section_title
;
Structure prediction by ZEFSAII (Michael W. Deem and Ramdas Pophale) SiO2 
 PCOD8312051
Probable space group: I -4 2 D
;
_chemical_formula_sum "Si O2"
_cell_formula_units_Z 88
_cell_length_a 10.960261
_cell_length_b 10.960261
_cell_length_c 33.862624
_cell_angle_alpha 90.000000
_cell_angle_beta 90.000000
_cell_angle_gamma 90.000000
_cell_volume 4067.826310
_symmetry_space_group_name_H-M "I -4 2 D"
_symmetry_group_IT_number 122
_symmetry_cell_setting 'tetragonal'
loop_
_space_group_symop_operation_xyz
x,y,z
y,-x,-z
-x,-y,z
-y,x,-z
x,1/2-y,1/4-z
-x,1/2+y,1/4-z
-y,1/2-x,1/4+z
y,1/2+x,1/4+z
1/2+x,1/2+y,1/2+z
1/2+y,1/2-x,1/2-z
1/2-x,1/2-y,1/2+z
1/2-y,1/2+x,1/2-z
1/2+x,-y,3/4-z
1/2-x,y,3/4-z
1/2-y,-x,3/4+z
1/2+y,x,3/4+z
loop_
_atom_site_type_symbol
_atom_site_label
_atom_site_fract_x
_atom_site_fract_y
_atom_site_fract_z
Si Si1 0.569381 0.683139 0.331345
Si Si2 0.310826 0.932222 0.753634
Si Si3 0.810981 0.471417 0.744697
Si Si4 0.750000 0.832956 0.375000
Si Si5 0.922272 0.118278 0.699940
Si Si6 0.182403 0.576360 0.416431
O O1 0.597308 0.771971 0.294912
O O2 0.633165 0.746088 0.368439
O O3 0.625925 0.552783 0.322132
O O4 0.424969 0.674830 0.338890
O O5 0.426326 0.849015 0.742397
O O6 0.207883 0.915287 0.719865
O O7 0.267118 0.885776 0.796798
O O8 0.902501 0.379328 0.766708
O O9 0.688834 0.494279 0.768897
O O10 0.791599 0.912569 0.337664
O O11 0.000000 0.000000 0.687381
O O12 0.250000 0.569851 0.375000
#
# Coordination Sequence:
#
# PCOD8312051 Si02
#       6
#    16  16  16   8  16  16
#     4  11  23  43  68  98 141 184 230 290 352 412
#     4  11  26  44  71 106 143 185 232 292 361 424
#     4  11  24  45  74 100 135 189 240 281 344 426
#     4  12  26  46  68 100 148 182 230 300 346 410
#     4  12  27  45  74 103 142 185 237 295 351 416
#     4  11  24  40  69 103 139 185 237 285 351 424
#
# _framework density 21.633175999999999
#
# number of rings (size 3 to 8) (size 9 to 14) (size 15 to 20)
#    0.000    0.727    4.545    2.182    5.091    2.909 
#    0.000    0.000    0.000    0.000    0.000    0.000 
#    0.000    0.000    0.000    0.000    0.000    0.000 
#
# Total GULP energy -545661.654721 kJ/mol
# GULP energy per Si atom -12401.401244 kJ/mol
# Density = 2.158394 g / cm^3
# Si number density = 21.633176 Si / 1000 Ang^3
#
#
#
# Elastic Constant Matrix: (Units=GPa)
#
#
# Indices 1 2 3 4 5 6 
#
# 1 96.5333 32.9491 43.3090 0.0000 0.0000 0.0000
# 2 32.9491 96.5333 43.3090 0.0000 0.0000 0.0000
# 3 43.3090 43.3090 111.3945 0.0000 0.0000 0.0000
# 4 0.0000 0.0000 0.0000 28.6301 0.0000 0.0000
# 5 0.0000 0.0000 0.0000 0.0000 28.6301 0.0000
# 6 0.0000 0.0000 0.0000 0.0000 0.0000 32.8650
#
#
#
# Elastic Compliance Matrix: (Units=1/GPa)
#
#
# Indices 1 2 3 4 5 6 
#
# 1 0.013082 -0.002645 -0.004058 0.000000 0.000000 0.000000
# 2 -0.002645 0.013082 -0.004058 0.000000 0.000000 0.000000
# 3 -0.004058 -0.004058 0.012133 0.000000 0.000000 0.000000
# 4 0.000000 0.000000 0.000000 0.034928 0.000000 0.000000
# 5 0.000000 0.000000 0.000000 0.000000 0.034928 0.000000
# 6 0.000000 0.000000 0.000000 0.000000 0.000000 0.030427
#
#
# Mechanical properties :
#
#
# Convention : Reuss Voigt Hill
#
# Bulk Modulus (GPa) = 59.60991 60.39945 60.00468
# Shear Modulus (GPa) = 30.17590 30.35132 30.26361
#
# Velocity S-wave (km/s) = 3.73887 3.74973 3.74430
# Velocity P-wave (km/s) = 6.80100 6.83577 6.81840
#
# Compressibility (1/GPa) = 0.01677574
#
# Stress axis : x y z
#
# Youngs Moduli (GPa) = 76.43823 76.43822 82.42271
#
# Poissons Ratio (x) = 0.20216 0.33448
# Poissons Ratio (y) = 0.20216 0.33448
# Poissons Ratio (z) = 0.31019 0.31019
#
# Static dielectric constant tensor:
#      x y z
#    x 4.032530 0.000000 0.000000 
#    y 0.000000 4.032530 0.000000 
#    z 0.000000 0.000000 3.771560 
# 
# 
# High freq. dielectric constant tensor:
#      x y z
#    x 1.859320 0.000000 0.000000 
#    y 0.000000 1.859320 0.000000 
#    z 0.000000 0.000000 1.843380 
# 
# From -- ./inp_files/9515.got.cif
#   From: 2010.03.12/outbox.cif.g09.slc.cpg/sg122_5_cif.got.tgz:9515.got - 2010.04.06 16:17:16.
