data_PCOD8312117
_publ_section_title
;
Structure prediction by ZEFSAII (Michael W. Deem and Ramdas Pophale) SiO2 
 PCOD8312117
Probable space group: I -4 2 D
;
_chemical_formula_sum "Si O2"
_cell_formula_units_Z 28
_cell_length_a 12.159407
_cell_length_b 12.159407
_cell_length_c 7.598694
_cell_angle_alpha 90.000000
_cell_angle_beta 90.000000
_cell_angle_gamma 90.000000
_cell_volume 1123.475864
_symmetry_space_group_name_H-M "I -4 2 D"
_symmetry_group_IT_number 122
_symmetry_cell_setting 'tetragonal'
loop_
_space_group_symop_operation_xyz
x,y,z
y,-x,-z
-x,-y,z
-y,x,-z
x,1/2-y,1/4-z
-x,1/2+y,1/4-z
-y,1/2-x,1/4+z
y,1/2+x,1/4+z
1/2+x,1/2+y,1/2+z
1/2+y,1/2-x,1/2-z
1/2-x,1/2-y,1/2+z
1/2-y,1/2+x,1/2-z
1/2+x,-y,3/4-z
1/2-x,y,3/4-z
1/2-y,-x,3/4+z
1/2+y,x,3/4+z
loop_
_atom_site_type_symbol
_atom_site_label
_atom_site_fract_x
_atom_site_fract_y
_atom_site_fract_z
Si Si1 0.234999 0.527049 0.175832
Si Si2 0.000000 0.500000 0.250000
Si Si3 0.250000 0.364764 0.875000
O O1 0.250000 0.484046 0.375000
O O2 0.287817 0.646704 0.163286
O O3 0.104520 0.532420 0.129055
O O4 0.285835 0.439579 0.040669
#
# Coordination Sequence:
#
# PCOD8312117 Si02
#       3
#    16   4   8
#     4  12  30  52  79 120 162 218 277 351 408 506
#     4  12  28  52  78 108 172 202 268 360 418 468
#     4  12  32  46  86 114 164 216 286 326 442 478
#
# _framework density 24.922653
#
# number of rings (size 3 to 8) (size 9 to 14) (size 15 to 20)
#    0.000    0.000    5.714    0.000   16.000    1.143 
#    0.000    0.000    0.000    0.000    0.000    0.000 
#    0.000    0.000    0.000    0.000    0.000    0.000 
#
# Total GULP energy -173590.188085 kJ/mol
# GULP energy per Si atom -12399.299149 kJ/mol
# Density = 2.486593 g / cm^3
# Si number density = 24.922653 Si / 1000 Ang^3
#
#
#
# Elastic Constant Matrix: (Units=GPa)
#
#
# Indices 1 2 3 4 5 6 
#
# 1 129.0716 21.0647 47.1876 0.0000 0.0000 0.0000
# 2 21.0647 129.0716 47.1876 0.0000 0.0000 0.0000
# 3 47.1876 47.1876 186.2229 0.0000 0.0000 0.0000
# 4 0.0000 0.0000 0.0000 23.2224 0.0000 0.0000
# 5 0.0000 0.0000 0.0000 0.0000 23.2224 0.0000
# 6 0.0000 0.0000 0.0000 0.0000 0.0000 34.4594
#
#
#
# Elastic Compliance Matrix: (Units=1/GPa)
#
#
# Indices 1 2 3 4 5 6 
#
# 1 0.008591 -0.000668 -0.002008 0.000000 0.000000 0.000000
# 2 -0.000668 0.008591 -0.002008 0.000000 0.000000 0.000000
# 3 -0.002008 -0.002008 0.006387 0.000000 0.000000 0.000000
# 4 0.000000 0.000000 0.000000 0.043062 0.000000 0.000000
# 5 0.000000 0.000000 0.000000 0.000000 0.043062 0.000000
# 6 0.000000 0.000000 0.000000 0.000000 0.000000 0.029020
#
#
# Mechanical properties :
#
#
# Convention : Reuss Voigt Hill
#
# Bulk Modulus (GPa) = 70.41117 75.02732 72.71925
# Shear Modulus (GPa) = 32.71992 38.10926 35.41459
#
# Velocity S-wave (km/s) = 3.62727 3.91461 3.77368
# Velocity P-wave (km/s) = 6.77171 7.11349 6.94470
#
# Compressibility (1/GPa) = 0.01420229
#
# Stress axis : x y z
#
# Youngs Moduli (GPa) = 116.40630 116.40630 156.56090
#
# Poissons Ratio (x) = 0.07777 0.31430
# Poissons Ratio (y) = 0.07777 0.31430
# Poissons Ratio (z) = 0.23369 0.23369
#
# Static dielectric constant tensor:
#      x y z
#    x 4.775220 0.000000 0.000000 
#    y 0.000000 4.775220 0.000000 
#    z 0.000000 0.000000 4.737150 
# 
# 
# High freq. dielectric constant tensor:
#      x y z
#    x 2.010210 0.000000 0.000000 
#    y 0.000000 2.010210 0.000000 
#    z 0.000000 0.000000 1.982640 
# 
# From -- ./inp_files/1639.got.cif
#   From: 2010.03.12/outbox.cif.g09.slc.cpg/sg122_1_cif.got.tgz:1639.got - 2010.04.06 16:17:16.
