data_PCOD8312948
_publ_section_title
;
Structure prediction by ZEFSAII (Michael W. Deem and Ramdas Pophale) SiO2 
 PCOD8312948
Probable space group: P 4/M M M
;
_chemical_formula_sum "Si O2"
_cell_formula_units_Z 96
_cell_length_a 24.470002
_cell_length_b 24.470002
_cell_length_c 8.788725
_cell_angle_alpha 90.000000
_cell_angle_beta 90.000000
_cell_angle_gamma 90.000000
_cell_volume 5262.521526
_symmetry_space_group_name_H-M "P 4/M M M"
_symmetry_group_IT_number 123
_symmetry_cell_setting 'tetragonal'
loop_
_space_group_symop_operation_xyz
x,y,z
-y,x,z
-x,-y,z
y,-x,z
x,-y,-z
-x,y,-z
y,x,-z
-y,-x,-z
-x,-y,-z
y,-x,-z
x,y,-z
-y,x,-z
-x,y,z
x,-y,z
-y,-x,z
y,x,z
loop_
_atom_site_type_symbol
_atom_site_label
_atom_site_fract_x
_atom_site_fract_y
_atom_site_fract_z
Si Si1 0.939944 0.806948 0.166990
Si Si2 0.349868 0.437861 0.675267
Si Si3 0.939320 0.322058 0.171456
Si Si4 0.160222 0.839779 0.670510
Si Si5 0.239728 0.239728 0.821834
Si Si6 0.563134 0.236955 0.823253
Si Si7 0.824440 0.659071 0.678632
O O1 0.940799 0.742402 0.171349
O O2 0.903335 0.829322 0.303204
O O3 0.000000 0.830715 0.196513
O O4 0.919012 0.826037 0.000000
O O5 0.333171 0.428426 0.500000
O O6 0.368260 0.500000 0.703820
O O7 0.400382 0.400382 0.724283
O O8 0.298809 0.421784 0.779413
O O9 0.888293 0.339444 0.275238
O O10 0.000000 0.342989 0.228607
O O11 0.929302 0.343994 0.000000
O O12 0.177036 0.822965 0.500000
O O13 0.194180 0.805821 0.793356
O O14 0.216396 0.296273 0.753351
O O15 0.248641 0.248641 0.000000
O O16 0.500000 0.224752 0.784499
O O17 0.599128 0.195759 0.724491
O O18 0.575961 0.228185 0.000000
O O19 0.820757 0.668271 0.500000
#
# Coordination Sequence:
#
# PCOD8312948 Si02
#       7
#    16  16  16   8   8  16  16
#     4   9  18  33  53  74 100 142 187 222 264 323
#     4   9  18  33  53  78 109 143 182 231 281 330
#     4   9  18  34  56  81 111 148 185 219 262 323
#     4  12  22  32  50  79 113 142 174 223 280 328
#     4  12  24  38  54  78 115 153 187 223 268 328
#     4  10  22  40  60  80 106 147 193 230 272 330
#     4  12  24  37  57  86 117 146 181 229 284 331
#
# _framework density 18.242205999999999
#
# number of rings (size 3 to 8) (size 9 to 14) (size 15 to 20)
#    0.000    1.833    1.667    4.500    1.167    2.167 
#    0.000    2.500    0.000    0.750    0.000    7.583 
#    0.000    0.000    0.000    0.000    0.000    0.000 
#
# Total GULP energy -1189966.770769 kJ/mol
# GULP energy per Si atom -12395.487196 kJ/mol
# Density = 1.820069 g / cm^3
# Si number density = 18.242206 Si / 1000 Ang^3
#
#
#
# Elastic Constant Matrix: (Units=GPa)
#
#
# Indices 1 2 3 4 5 6 
#
# 1 89.1061 60.6633 46.9323 0.0000 0.0000 0.0000
# 2 60.6633 89.1057 46.9317 0.0000 0.0000 0.0000
# 3 46.9323 46.9317 110.1449 0.0000 0.0000 0.0000
# 4 0.0000 0.0000 0.0000 19.7595 0.0000 0.0000
# 5 0.0000 0.0000 0.0000 0.0000 19.7576 0.0000
# 6 0.0000 0.0000 0.0000 0.0000 0.0000 18.5183
#
#
#
# Elastic Compliance Matrix: (Units=1/GPa)
#
#
# Indices 1 2 3 4 5 6 
#
# 1 0.022134 -0.013024 -0.003882 0.000000 0.000000 0.000000
# 2 -0.013024 0.022134 -0.003881 0.000000 0.000000 0.000000
# 3 -0.003882 -0.003881 0.012387 0.000000 0.000000 0.000000
# 4 0.000000 0.000000 0.000000 0.050609 0.000000 0.000000
# 5 0.000000 0.000000 0.000000 0.000000 0.050613 0.000000
# 6 0.000000 0.000000 0.000000 0.000000 0.000000 0.054001
#
#
# Mechanical properties :
#
#
# Convention : Reuss Voigt Hill
#
# Bulk Modulus (GPa) = 66.31396 66.37904 66.34650
# Shear Modulus (GPa) = 19.34392 20.52905 19.93649
#
# Velocity S-wave (km/s) = 3.25990 3.35828 3.30946
# Velocity P-wave (km/s) = 7.11338 7.17663 7.14507
#
# Compressibility (1/GPa) = 0.01507978
#
# Stress axis : x y z
#
# Youngs Moduli (GPa) = 45.17916 45.17923 80.73151
#
# Poissons Ratio (x) = 0.58844 0.31337
# Poissons Ratio (y) = 0.58844 0.31335
# Poissons Ratio (z) = 0.17537 0.17536
#
# Static dielectric constant tensor:
#      x y z
#    x 3.141700 0.000000 0.000000 
#    y 0.000000 3.141680 0.000000 
#    z 0.000000 0.000000 3.400370 
# 
# 
# High freq. dielectric constant tensor:
#      x y z
#    x 1.698500 0.000000 0.000000 
#    y 0.000000 1.698500 0.000000 
#    z 0.000000 0.000000 1.707430 
# 
# From -- ./inp_files/1666.got.cif
#   From: 2010.03.12/outbox.cif.g09.slc.cpg/sg123_1_cif.got.tgz:1666.got - 2010.04.06 16:26:55.
