data_PCOD8312626
_publ_section_title
;
Structure prediction by ZEFSAII (Michael W. Deem and Ramdas Pophale) SiO2 
 PCOD8312626
Probable space group: P 4/M M M
;
_chemical_formula_sum "Si O2"
_cell_formula_units_Z 72
_cell_length_a 17.965930
_cell_length_b 17.965930
_cell_length_c 12.680346
_cell_angle_alpha 90.000000
_cell_angle_beta 90.000000
_cell_angle_gamma 90.000000
_cell_volume 4092.894125
_symmetry_space_group_name_H-M "P 4/M M M"
_symmetry_group_IT_number 123
_symmetry_cell_setting 'tetragonal'
loop_
_space_group_symop_operation_xyz
x,y,z
-y,x,z
-x,-y,z
y,-x,z
x,-y,-z
-x,y,-z
y,x,-z
-y,-x,-z
-x,-y,-z
y,-x,-z
x,y,-z
-y,x,-z
-x,y,z
x,-y,z
-y,-x,z
y,x,z
loop_
_atom_site_type_symbol
_atom_site_label
_atom_site_fract_x
_atom_site_fract_y
_atom_site_fract_z
Si Si1 0.627731 0.000000 0.873697
Si Si2 0.582248 0.698622 0.124221
Si Si3 0.153867 0.275321 0.376653
Si Si4 0.000000 0.121303 0.888840
Si Si5 0.149942 0.583539 0.231456
Si Si6 0.000000 0.237428 0.280879
O O1 0.585334 0.926336 0.834642
O O2 0.706925 0.000000 0.817724
O O3 0.634451 0.000000 0.000000
O O4 0.500000 0.677262 0.166492
O O5 0.641702 0.641702 0.175946
O O6 0.602227 0.783092 0.152291
O O7 0.585076 0.691447 0.000000
O O8 0.163647 0.287397 0.500000
O O9 0.218603 0.218603 0.335237
O O10 0.156900 0.356711 0.324622
O O11 0.072640 0.242055 0.353637
O O12 0.073638 0.073638 0.890975
O O13 0.000000 0.159931 0.776935
O O14 0.000000 0.169013 0.000000
O O15 0.157315 0.500000 0.279241
#
# Coordination Sequence:
#
# PCOD8312626 Si02
#       6
#     8  16  16   8  16   8
#     4  10  20  32  48  72 100 130 163 195 230 277
#     4   9  17  29  46  69  97 127 157 190 230 279
#     4  10  21  36  53  72  95 124 159 201 245 286
#     4   9  17  29  47  72 100 129 160 193 231 278
#     4  10  20  33  50  71  95 125 160 198 239 282
#     4  10  19  33  51  72  98 128 161 196 237 282
#
# _framework density 17.591463999999998
#
# number of rings (size 3 to 8) (size 9 to 14) (size 15 to 20)
#    0.000    2.333    0.000    3.333    0.000    2.444 
#    0.000    1.111    0.000   14.667    0.000    4.667 
#    0.000    0.000    0.000   20.667    0.000    0.222 
#
# Total GULP energy -892182.468813 kJ/mol
# GULP energy per Si atom -12391.423178 kJ/mol
# Density = 1.755143 g / cm^3
# Si number density = 17.591464 Si / 1000 Ang^3
#
#
#
# Elastic Constant Matrix: (Units=GPa)
#
#
# Indices 1 2 3 4 5 6 
#
# 1 115.1738 62.3623 35.9214 0.0000 0.0000 0.0000
# 2 62.3623 115.1738 35.9214 0.0000 0.0000 0.0000
# 3 35.9214 35.9214 65.1260 0.0000 0.0000 0.0000
# 4 0.0000 0.0000 0.0000 22.0953 0.0000 0.0000
# 5 0.0000 0.0000 0.0000 0.0000 22.0953 0.0000
# 6 0.0000 0.0000 0.0000 0.0000 0.0000 26.2124
#
#
#
# Elastic Compliance Matrix: (Units=1/GPa)
#
#
# Indices 1 2 3 4 5 6 
#
# 1 0.013093 -0.005842 -0.003999 0.000000 0.000000 0.000000
# 2 -0.005842 0.013093 -0.003999 0.000000 0.000000 0.000000
# 3 -0.003999 -0.003999 0.019767 0.000000 0.000000 0.000000
# 4 0.000000 0.000000 0.000000 0.045258 0.000000 0.000000
# 5 0.000000 0.000000 0.000000 0.000000 0.045258 0.000000
# 6 0.000000 0.000000 0.000000 0.000000 0.000000 0.038150
#
#
# Mechanical properties :
#
#
# Convention : Reuss Voigt Hill
#
# Bulk Modulus (GPa) = 54.73119 62.65377 58.69248
# Shear Modulus (GPa) = 23.99319 24.83183 24.41251
#
# Velocity S-wave (km/s) = 3.69712 3.76118 3.72929
# Velocity P-wave (km/s) = 7.02886 7.38616 7.20972
#
# Compressibility (1/GPa) = 0.01827112
#
# Stress axis : x y z
#
# Youngs Moduli (GPa) = 76.37551 76.37551 50.58984
#
# Poissons Ratio (x) = 0.44619 0.20233
# Poissons Ratio (y) = 0.44619 0.20233
# Poissons Ratio (z) = 0.30546 0.30546
#
# Static dielectric constant tensor:
#      x y z
#    x 3.467470 0.000000 0.000000 
#    y 0.000000 3.467470 0.000000 
#    z 0.000000 0.000000 3.036560 
# 
# 
# High freq. dielectric constant tensor:
#      x y z
#    x 1.689230 0.000000 0.000000 
#    y 0.000000 1.689230 0.000000 
#    z 0.000000 0.000000 1.660370 
# 
# From -- ./inp_files/2786.got.cif
#   From: 2010.03.12/outbox.cif.g09.slc.cpg/sg123_2_cif.got.tgz:2786.got - 2010.04.06 16:26:55.
