data_PCOD8312356
_publ_section_title
;
Structure prediction by ZEFSAII (Michael W. Deem and Ramdas Pophale) SiO2 
 PCOD8312356
Probable space group: P 4/M M M
;
_chemical_formula_sum "Si O2"
_cell_formula_units_Z 80
_cell_length_a 13.676275
_cell_length_b 13.676275
_cell_length_c 25.582961
_cell_angle_alpha 90.000000
_cell_angle_beta 90.000000
_cell_angle_gamma 90.000000
_cell_volume 4785.049763
_symmetry_space_group_name_H-M "P 4/M M M"
_symmetry_group_IT_number 123
_symmetry_cell_setting 'tetragonal'
loop_
_space_group_symop_operation_xyz
x,y,z
-y,x,z
-x,-y,z
y,-x,z
x,-y,-z
-x,y,-z
y,x,-z
-y,-x,-z
-x,-y,-z
y,-x,-z
x,y,-z
-y,x,-z
-x,y,z
x,-y,z
-y,-x,z
y,x,z
loop_
_atom_site_type_symbol
_atom_site_label
_atom_site_fract_x
_atom_site_fract_y
_atom_site_fract_z
Si Si1 0.884282 0.390967 0.243367
Si Si2 0.115959 0.609093 0.557720
Si Si3 0.115438 0.270683 0.343931
Si Si4 0.273413 0.114970 0.142172
Si Si5 0.387832 0.770398 0.939690
O O1 0.838673 0.500000 0.240595
O O2 0.850551 0.340701 0.296989
O O3 0.847857 0.327419 0.194459
O O4 0.000000 0.398669 0.241655
O O5 0.148001 0.646802 0.500000
O O6 0.157923 0.500000 0.567205
O O7 0.154718 0.681342 0.602361
O O8 0.000000 0.604356 0.561454
O O9 0.165475 0.165475 0.337443
O O10 0.000000 0.252591 0.343704
O O11 0.169801 0.169801 0.137572
O O12 0.342919 0.140539 0.093364
O O13 0.251846 0.000000 0.142700
O O14 0.500000 0.752759 0.923782
O O15 0.329796 0.670205 0.927693
O O16 0.378053 0.800785 0.000000
#
# Coordination Sequence:
#
# PCOD8312356 Si02
#       5
#    16  16  16  16  16
#     4   9  17  30  48  67  86 111 146 189 235 275
#     4   8  14  26  44  63  82 107 142 186 233 271
#     4  10  19  29  42  62  90 123 155 184 216 260
#     4  10  20  33  49  70  97 128 161 195 231 275
#     4   9  18  32  50  73  99 126 158 197 242 291
#
# _framework density 16.718737999999998
#
# number of rings (size 3 to 8) (size 9 to 14) (size 15 to 20)
#    0.000    2.800    0.000    2.400    0.000    5.000 
#    0.000    2.000    0.000    3.600    0.000    5.600 
#    0.000   17.600    0.000    8.800    0.000    0.800 
#
# Total GULP energy -991797.038150 kJ/mol
# GULP energy per Si atom -12397.462977 kJ/mol
# Density = 1.668069 g / cm^3
# Si number density = 16.718738 Si / 1000 Ang^3
#
#
#
# Elastic Constant Matrix: (Units=GPa)
#
#
# Indices 1 2 3 4 5 6 
#
# 1 82.4659 41.6534 47.5408 0.0000 0.0000 0.0000
# 2 41.6534 82.4659 47.5408 0.0000 0.0000 0.0000
# 3 47.5408 47.5408 113.1738 0.0000 0.0000 0.0000
# 4 0.0000 0.0000 0.0000 21.6755 0.0000 0.0000
# 5 0.0000 0.0000 0.0000 0.0000 21.6755 0.0000
# 6 0.0000 0.0000 0.0000 0.0000 0.0000 10.0647
#
#
#
# Elastic Compliance Matrix: (Units=1/GPa)
#
#
# Indices 1 2 3 4 5 6 
#
# 1 0.018191 -0.006311 -0.004990 0.000000 0.000000 0.000000
# 2 -0.006311 0.018191 -0.004990 0.000000 0.000000 0.000000
# 3 -0.004990 -0.004990 0.013028 0.000000 0.000000 0.000000
# 4 0.000000 0.000000 0.000000 0.046135 0.000000 0.000000
# 5 0.000000 0.000000 0.000000 0.000000 0.046135 0.000000
# 6 0.000000 0.000000 0.000000 0.000000 0.000000 0.099358
#
#
# Mechanical properties :
#
#
# Convention : Reuss Voigt Hill
#
# Bulk Modulus (GPa) = 59.42967 61.28616 60.35792
# Shear Modulus (GPa) = 17.90635 20.10783 19.00709
#
# Velocity S-wave (km/s) = 3.27622 3.47178 3.37541
# Velocity P-wave (km/s) = 7.06650 7.26689 7.16739
#
# Compressibility (1/GPa) = 0.01682661
#
# Stress axis : x y z
#
# Youngs Moduli (GPa) = 54.97249 54.97249 76.75523
#
# Poissons Ratio (x) = 0.34695 0.38302
# Poissons Ratio (y) = 0.34695 0.38302
# Poissons Ratio (z) = 0.27432 0.27432
#
# Static dielectric constant tensor:
#      x y z
#    x 2.943210 0.000000 0.000000 
#    y 0.000000 2.943210 0.000000 
#    z 0.000000 0.000000 3.456050 
# 
# 
# High freq. dielectric constant tensor:
#      x y z
#    x 1.621250 0.000000 0.000000 
#    y 0.000000 1.621250 0.000000 
#    z 0.000000 0.000000 1.663280 
# 
# From -- ./inp_files/6274.got.cif
#   From: 2010.03.12/outbox.cif.g09.slc.cpg/sg123_4_cif.got.tgz:6274.got - 2010.04.06 16:26:55.
