data_PCOD8312279
_publ_section_title
;
Structure prediction by ZEFSAII (Michael W. Deem and Ramdas Pophale) SiO2 
 PCOD8312279
Probable space group: P 4/M M M
;
_chemical_formula_sum "Si O2"
_cell_formula_units_Z 56
_cell_length_a 18.055336
_cell_length_b 18.055336
_cell_length_c 8.843775
_cell_angle_alpha 90.000000
_cell_angle_beta 90.000000
_cell_angle_gamma 90.000000
_cell_volume 2883.027829
_symmetry_space_group_name_H-M "P 4/M M M"
_symmetry_group_IT_number 123
_symmetry_cell_setting 'tetragonal'
loop_
_space_group_symop_operation_xyz
x,y,z
-y,x,z
-x,-y,z
y,-x,z
x,-y,-z
-x,y,-z
y,x,-z
-y,-x,-z
-x,-y,-z
y,-x,-z
x,y,-z
-y,x,-z
-x,y,z
x,-y,z
-y,-x,z
y,x,z
loop_
_atom_site_type_symbol
_atom_site_label
_atom_site_fract_x
_atom_site_fract_y
_atom_site_fract_z
Si Si1 0.695384 0.418100 0.821138
Si Si2 0.915394 0.203864 0.678991
Si Si3 0.084449 0.500000 0.823397
Si Si4 0.349800 0.845793 0.821425
O O1 0.704865 0.500000 0.747612
O O2 0.618147 0.381854 0.765698
O O3 0.759993 0.360382 0.777194
O O4 0.695980 0.427546 0.000000
O O5 0.914404 0.209897 0.500000
O O6 0.867044 0.132957 0.733135
O O7 0.879607 0.278304 0.743037
O O8 0.000000 0.194455 0.737865
O O9 0.116880 0.424411 0.755166
O O10 0.000000 0.500000 0.782686
O O11 0.103113 0.500000 0.000000
O O12 0.340704 0.858877 0.000000
#
# Coordination Sequence:
#
# PCOD8312279 Si02
#       4
#    16  16   8  16
#     4   9  16  26  42  67  99 134 172 211 251 297
#     4  10  22  39  57  78 105 137 174 217 265 317
#     4   9  16  26  45  73 104 136 166 201 249 309
#     4  10  18  32  53  79 107 135 172 215 259 308
#
# _framework density 19.424023999999999
#
# number of rings (size 3 to 8) (size 9 to 14) (size 15 to 20)
#    0.000    2.429    1.429    1.714    0.000    4.000 
#    0.000    3.571    0.000    2.571    0.000    2.000 
#    0.000    0.000    0.000    6.000    0.000    5.714 
#
# Total GULP energy -693931.628359 kJ/mol
# GULP energy per Si atom -12391.636221 kJ/mol
# Density = 1.937981 g / cm^3
# Si number density = 19.424024 Si / 1000 Ang^3
#
#
#
# Elastic Constant Matrix: (Units=GPa)
#
#
# Indices 1 2 3 4 5 6 
#
# 1 162.8582 102.8393 17.0863 0.0000 0.0000 0.0000
# 2 102.8393 162.8582 17.0863 0.0000 0.0000 0.0000
# 3 17.0863 17.0863 7.3346 0.0000 0.0000 0.0000
# 4 0.0000 0.0000 0.0000 18.8482 0.0000 0.0000
# 5 0.0000 0.0000 0.0000 0.0000 18.8482 0.0000
# 6 0.0000 0.0000 0.0000 0.0000 0.0000 33.6360
#
#
#
# Elastic Compliance Matrix: (Units=1/GPa)
#
#
# Indices 1 2 3 4 5 6 
#
# 1 0.011018 -0.005644 -0.012518 0.000000 0.000000 0.000000
# 2 -0.005644 0.011018 -0.012518 0.000000 0.000000 0.000000
# 3 -0.012518 -0.012518 0.194665 0.000000 0.000000 0.000000
# 4 0.000000 0.000000 0.000000 0.053056 0.000000 0.000000
# 5 0.000000 0.000000 0.000000 0.000000 0.053056 0.000000
# 6 0.000000 0.000000 0.000000 0.000000 0.000000 0.029730
#
#
# Mechanical properties :
#
#
# Convention : Reuss Voigt Hill
#
# Bulk Modulus (GPa) = 6.43755 67.45272 36.94513
# Shear Modulus (GPa) = 10.73695 27.33575 19.03635
#
# Velocity S-wave (km/s) = 2.35365 3.75549 3.13396
# Velocity P-wave (km/s) = 3.27225 7.32167 5.67073
#
# Compressibility (1/GPa) = 0.15533872
#
# Stress axis : x y z
#
# Youngs Moduli (GPa) = 90.76413 90.76413 5.13704
#
# Poissons Ratio (x) = 0.51226 0.06431
# Poissons Ratio (y) = 0.51226 0.06431
# Poissons Ratio (z) = 1.13622 1.13622
#
# Static dielectric constant tensor:
#      x y z
#    x 3.837030 0.000000 0.000000 
#    y 0.000000 3.837030 0.000000 
#    z 0.000000 0.000000 2.969420 
# 
# 
# High freq. dielectric constant tensor:
#      x y z
#    x 1.773210 0.000000 0.000000 
#    y 0.000000 1.773210 0.000000 
#    z 0.000000 0.000000 1.688080 
# 
# From -- ./inp_files/575.got.cif
#   From: 2010.03.12/outbox.cif.g09.slc.cpg/sg123_1_cif.got.tgz:575.got - 2010.04.06 16:26:55.
