data_PCOD8312242
_publ_section_title
;
Structure prediction by ZEFSAII (Michael W. Deem and Ramdas Pophale) SiO2 
 PCOD8312242
Probable space group: P 4/M M M
;
_chemical_formula_sum "Si O2"
_cell_formula_units_Z 120
_cell_length_a 17.580816
_cell_length_b 17.580816
_cell_length_c 22.683772
_cell_angle_alpha 90.000000
_cell_angle_beta 90.000000
_cell_angle_gamma 90.000000
_cell_volume 7011.215738
_symmetry_space_group_name_H-M "P 4/M M M"
_symmetry_group_IT_number 123
_symmetry_cell_setting 'tetragonal'
loop_
_space_group_symop_operation_xyz
x,y,z
-y,x,z
-x,-y,z
y,-x,z
x,-y,-z
-x,y,-z
y,x,-z
-y,-x,-z
-x,-y,-z
y,-x,-z
x,y,-z
-y,x,-z
-x,y,z
x,-y,z
-y,-x,z
y,x,z
loop_
_atom_site_type_symbol
_atom_site_label
_atom_site_fract_x
_atom_site_fract_y
_atom_site_fract_z
Si Si1 0.166877 0.349517 0.930175
Si Si2 0.789511 0.087424 0.868966
Si Si3 0.413308 0.087056 0.569434
Si Si4 0.813853 0.310680 0.651527
Si Si5 0.913091 0.208996 0.266329
Si Si6 0.414203 0.707924 0.273312
Si Si7 0.297279 0.585564 0.138503
Si Si8 0.500000 0.916583 0.069946
O O1 0.122341 0.275270 0.910005
O O2 0.249306 0.355676 0.900955
O O3 0.123886 0.424489 0.907038
O O4 0.175559 0.346636 0.000000
O O5 0.868086 0.131915 0.880331
O O6 0.763529 0.094824 0.801171
O O7 0.803136 0.000000 0.886818
O O8 0.404629 0.096389 0.500000
O O9 0.500000 0.107576 0.588519
O O10 0.351963 0.144216 0.597617
O O11 0.395486 0.000000 0.588156
O O12 0.752611 0.247390 0.629045
O O13 0.876976 0.272858 0.692704
O O14 0.773709 0.375158 0.689599
O O15 0.871430 0.128571 0.275462
O O16 0.000000 0.196647 0.284750
O O17 0.500000 0.696883 0.295631
O O18 0.371904 0.628097 0.283169
O O19 0.411884 0.733466 0.205209
O O20 0.295198 0.500000 0.112857
O O21 0.384103 0.615898 0.136658
O O22 0.500000 0.000000 0.097793
O O23 0.500000 0.919705 0.000000
#
# Coordination Sequence:
#
# PCOD8312242 Si02
#       8
#    16  16  16  16  16  16  16   8
#     4  11  21  35  53  73  95 122 158 197 242 294
#     4  10  21  36  54  76 101 129 162 200 242 291
#     4   9  18  32  49  69  95 130 170 207 240 277
#     4  10  18  29  48  73 101 129 158 196 244 290
#     4   9  18  32  50  72  98 128 160 196 238 284
#     4   9  18  31  48  70  95 126 159 194 237 282
#     4  10  20  34  51  72  98 126 160 199 239 288
#     4   9  18  32  50  70  91 115 145 185 229 277
#
# _framework density 17.115432999999999
#
# number of rings (size 3 to 8) (size 9 to 14) (size 15 to 20)
#    0.000    2.333    0.667    2.800    0.000    4.800 
#    0.000    2.667    0.000    0.000    0.000    1.867 
#    0.000    0.000    0.000   24.800    0.000    0.267 
#
# Total GULP energy -1487825.221476 kJ/mol
# GULP energy per Si atom -12398.543512 kJ/mol
# Density = 1.707648 g / cm^3
# Si number density = 17.115433 Si / 1000 Ang^3
#
#
#
# Elastic Constant Matrix: (Units=GPa)
#
#
# Indices 1 2 3 4 5 6 
#
# 1 120.0175 59.1693 46.3627 0.0000 0.0000 0.0000
# 2 59.1693 120.0175 46.3627 0.0000 0.0000 0.0000
# 3 46.3627 46.3627 59.7173 0.0000 0.0000 0.0000
# 4 0.0000 0.0000 0.0000 24.6623 0.0000 0.0000
# 5 0.0000 0.0000 0.0000 0.0000 24.6623 0.0000
# 6 0.0000 0.0000 0.0000 0.0000 0.0000 23.5364
#
#
#
# Elastic Compliance Matrix: (Units=1/GPa)
#
#
# Indices 1 2 3 4 5 6 
#
# 1 0.012881 -0.003553 -0.007242 0.000000 0.000000 0.000000
# 2 -0.003553 0.012881 -0.007242 0.000000 0.000000 0.000000
# 3 -0.007242 -0.007242 0.027991 0.000000 0.000000 0.000000
# 4 0.000000 0.000000 0.000000 0.040548 0.000000 0.000000
# 5 0.000000 0.000000 0.000000 0.000000 0.040548 0.000000
# 6 0.000000 0.000000 0.000000 0.000000 0.000000 0.042487
#
#
# Mechanical properties :
#
#
# Convention : Reuss Voigt Hill
#
# Bulk Modulus (GPa) = 56.56551 67.06017 61.81284
# Shear Modulus (GPa) = 22.79930 24.42938 23.61434
#
# Velocity S-wave (km/s) = 3.65374 3.78210 3.71847
# Velocity P-wave (km/s) = 7.13589 7.63797 7.39119
#
# Compressibility (1/GPa) = 0.01767862
#
# Stress axis : x y z
#
# Youngs Moduli (GPa) = 77.63103 77.63103 35.72565
#
# Poissons Ratio (x) = 0.27581 0.25874
# Poissons Ratio (y) = 0.27581 0.25874
# Poissons Ratio (z) = 0.56223 0.56223
#
# Static dielectric constant tensor:
#      x y z
#    x 3.289530 0.000000 0.000000 
#    y 0.000000 3.289530 0.000000 
#    z 0.000000 0.000000 2.951160 
# 
# 
# High freq. dielectric constant tensor:
#      x y z
#    x 1.667880 0.000000 0.000000 
#    y 0.000000 1.667880 0.000000 
#    z 0.000000 0.000000 1.637260 
# 
# From -- ./inp_files/6844.got.cif
#   From: 2010.03.12/outbox.cif.g09.slc.cpg/sg123_4_cif.got.tgz:6844.got - 2010.04.06 16:26:55.
