data_PCOD8312193
_publ_section_title
;
Structure prediction by ZEFSAII (Michael W. Deem and Ramdas Pophale) SiO2 
 PCOD8312193
Probable space group: P 4/M M M
;
_chemical_formula_sum "Si O2"
_cell_formula_units_Z 128
_cell_length_a 17.176566
_cell_length_b 17.176566
_cell_length_c 27.675010
_cell_angle_alpha 90.000000
_cell_angle_beta 90.000000
_cell_angle_gamma 90.000000
_cell_volume 8165.080511
_symmetry_space_group_name_H-M "P 4/M M M"
_symmetry_group_IT_number 123
_symmetry_cell_setting 'tetragonal'
loop_
_space_group_symop_operation_xyz
x,y,z
-y,x,z
-x,-y,z
y,-x,z
x,-y,-z
-x,y,-z
y,x,-z
-y,-x,-z
-x,-y,-z
y,-x,-z
x,y,-z
-y,x,-z
-x,y,z
x,-y,z
-y,-x,z
y,x,z
loop_
_atom_site_type_symbol
_atom_site_label
_atom_site_fract_x
_atom_site_fract_y
_atom_site_fract_z
Si Si1 0.829574 0.300028 0.862144
Si Si2 0.408209 0.087145 0.444770
Si Si3 0.589382 0.716823 0.819478
Si Si4 0.913038 0.213597 0.785766
Si Si5 0.676455 0.199294 0.626446
Si Si6 0.791348 0.087547 0.323030
Si Si7 0.410529 0.284860 0.291554
Si Si8 0.782577 0.909752 0.055557
O O1 0.761462 0.238539 0.855188
O O2 0.788621 0.383926 0.854279
O O3 0.892421 0.286416 0.819882
O O4 0.872569 0.288749 0.913715
O O5 0.381257 0.096392 0.500000
O O6 0.500000 0.094871 0.440143
O O7 0.372550 0.159877 0.415953
O O8 0.383292 0.000000 0.426218
O O9 0.500000 0.697584 0.831337
O O10 0.638722 0.638722 0.829931
O O11 0.600380 0.743651 0.763726
O O12 0.859619 0.140382 0.798429
O O13 0.904264 0.242872 0.730927
O O14 0.000000 0.185418 0.796493
O O15 0.723130 0.276871 0.608720
O O16 0.737724 0.134625 0.641259
O O17 0.622192 0.219352 0.672275
O O18 0.878883 0.121118 0.323822
O O19 0.794951 0.000000 0.341600
O O20 0.500000 0.300700 0.303966
O O21 0.365898 0.365898 0.299667
O O22 0.862711 0.862711 0.066109
O O23 0.796584 0.000000 0.069568
O O24 0.757600 0.901569 0.000000
#
# Coordination Sequence:
#
# PCOD8312193 Si02
#       8
#    16  16  16  16  16  16  16  16
#     4   9  16  27  42  59  82 111 141 172 209 252
#     4   9  18  32  48  64  82 106 137 174 216 257
#     4   9  17  29  46  67  89 112 138 169 206 250
#     4   9  16  25  38  56  79 109 143 176 208 241
#     4  10  18  28  44  64  87 112 138 170 205 245
#     4   9  17  27  39  57  80 107 139 172 206 244
#     4   9  17  28  43  65  91 117 142 167 199 242
#     4   9  17  28  43  64  88 115 148 184 220 256
#
# _framework density 15.676515
#
# number of rings (size 3 to 8) (size 9 to 14) (size 15 to 20)
#    0.000    2.875    0.000    2.250    0.000    3.875 
#    0.000    3.125    0.000    4.125    0.000    7.875 
#    0.000    0.000    0.000   28.125    0.000    0.375 
#
# Total GULP energy -1586344.315753 kJ/mol
# GULP energy per Si atom -12393.314967 kJ/mol
# Density = 1.564083 g / cm^3
# Si number density = 15.676515 Si / 1000 Ang^3
#
#
#
# Elastic Constant Matrix: (Units=GPa)
#
#
# Indices 1 2 3 4 5 6 
#
# 1 77.6022 43.6854 38.6722 0.0000 0.0000 0.0000
# 2 43.6854 77.6022 38.6722 0.0000 0.0000 0.0000
# 3 38.6722 38.6722 61.6467 0.0000 0.0000 0.0000
# 4 0.0000 0.0000 0.0000 23.0389 0.0000 0.0000
# 5 0.0000 0.0000 0.0000 0.0000 23.0389 0.0000
# 6 0.0000 0.0000 0.0000 0.0000 0.0000 19.5149
#
#
#
# Elastic Compliance Matrix: (Units=1/GPa)
#
#
# Indices 1 2 3 4 5 6 
#
# 1 0.021613 -0.007871 -0.008621 0.000000 0.000000 0.000000
# 2 -0.007871 0.021613 -0.008621 0.000000 0.000000 0.000000
# 3 -0.008621 -0.008621 0.027038 0.000000 0.000000 0.000000
# 4 0.000000 0.000000 0.000000 0.043405 0.000000 0.000000
# 5 0.000000 0.000000 0.000000 0.000000 0.043405 0.000000
# 6 0.000000 0.000000 0.000000 0.000000 0.000000 0.051243
#
#
# Mechanical properties :
#
#
# Convention : Reuss Voigt Hill
#
# Bulk Modulus (GPa) = 49.90315 50.99010 50.44663
# Shear Modulus (GPa) = 18.85222 19.50664 19.17943
#
# Velocity S-wave (km/s) = 3.47158 3.53132 3.50158
# Velocity P-wave (km/s) = 6.92613 7.01598 6.97120
#
# Compressibility (1/GPa) = 0.02003881
#
# Stress axis : x y z
#
# Youngs Moduli (GPa) = 46.26821 46.26821 36.98565
#
# Poissons Ratio (x) = 0.36417 0.31885
# Poissons Ratio (y) = 0.36417 0.31885
# Poissons Ratio (z) = 0.39887 0.39887
#
# Static dielectric constant tensor:
#      x y z
#    x 2.974740 0.000000 0.000000 
#    y 0.000000 2.974740 0.000000 
#    z 0.000000 0.000000 2.944620 
# 
# 
# High freq. dielectric constant tensor:
#      x y z
#    x 1.591670 0.000000 0.000000 
#    y 0.000000 1.591670 0.000000 
#    z 0.000000 0.000000 1.589270 
# 
# From -- ./inp_files/7640.got.cif
#   From: 2010.03.12/outbox.cif.g09.slc.cpg/sg123_4_cif.got.tgz:7640.got - 2010.04.06 16:26:55.
