data_PCOD8312909
_publ_section_title
;
Structure prediction by ZEFSAII (Michael W. Deem and Ramdas Pophale) SiO2 
 PCOD8312909
Probable space group: P 4/M M M
;
_chemical_formula_sum "Si O2"
_cell_formula_units_Z 72
_cell_length_a 20.390880
_cell_length_b 20.390880
_cell_length_c 9.085328
_cell_angle_alpha 90.000000
_cell_angle_beta 90.000000
_cell_angle_gamma 90.000000
_cell_volume 3777.570242
_symmetry_space_group_name_H-M "P 4/M M M"
_symmetry_group_IT_number 123
_symmetry_cell_setting 'tetragonal'
loop_
_space_group_symop_operation_xyz
x,y,z
-y,x,z
-x,-y,z
y,-x,z
x,-y,-z
-x,y,-z
y,x,-z
-y,-x,-z
-x,-y,-z
y,-x,-z
x,y,-z
-y,x,-z
-x,y,z
x,-y,z
-y,-x,z
y,x,z
loop_
_atom_site_type_symbol
_atom_site_label
_atom_site_fract_x
_atom_site_fract_y
_atom_site_fract_z
Si Si1 0.400034 0.185894 0.826302
Si Si2 0.179559 0.926178 0.167247
Si Si3 0.679307 0.573076 0.330342
Si Si4 0.075382 0.500000 0.173874
Si Si5 0.270278 0.160435 0.335340
O O1 0.427765 0.252243 0.755987
O O2 0.437640 0.119298 0.774833
O O3 0.325777 0.179455 0.778389
O O4 0.406257 0.194065 0.000000
O O5 0.114672 0.885329 0.199707
O O6 0.237373 0.906074 0.277555
O O7 0.159915 0.000000 0.200392
O O8 0.204302 0.916023 0.000000
O O9 0.695026 0.589314 0.500000
O O10 0.648459 0.500000 0.314748
O O11 0.626807 0.626807 0.269342
O O12 0.000000 0.500000 0.240714
O O13 0.067685 0.500000 0.000000
O O14 0.297713 0.149199 0.500000
O O15 0.218725 0.218725 0.332952
#
# Coordination Sequence:
#
# PCOD8312909 Si02
#       5
#    16  16  16   8  16
#     4  11  21  36  59  84 110 143 186 233 285 342
#     4   9  18  33  53  78 108 142 182 228 279 336
#     4  10  21  37  58  84 116 154 193 235 283 336
#     4   9  20  38  57  79 108 141 178 222 275 333
#     4  10  21  36  54  78 109 144 183 228 277 329
#
# _framework density 19.059871000000001
#
# number of rings (size 3 to 8) (size 9 to 14) (size 15 to 20)
#    0.000    2.111    1.111    2.000    0.000    6.222 
#    0.000    4.444    0.000    4.667    0.000    4.667 
#    0.000    0.000    0.000    0.000    0.000    0.000 
#
# Total GULP energy -892463.353958 kJ/mol
# GULP energy per Si atom -12395.324361 kJ/mol
# Density = 1.901649 g / cm^3
# Si number density = 19.059871 Si / 1000 Ang^3
#
#
#
# Elastic Constant Matrix: (Units=GPa)
#
#
# Indices 1 2 3 4 5 6 
#
# 1 110.0007 34.2597 40.9141 0.0000 0.0000 0.0000
# 2 34.2597 110.0007 40.9141 0.0000 0.0000 0.0000
# 3 40.9141 40.9141 61.7207 0.0000 0.0000 0.0000
# 4 0.0000 0.0000 0.0000 22.3014 0.0000 0.0000
# 5 0.0000 0.0000 0.0000 0.0000 22.3014 0.0000
# 6 0.0000 0.0000 0.0000 0.0000 0.0000 -5.1732
#
#
#
# Elastic Compliance Matrix: (Units=1/GPa)
#
#
# Indices 1 2 3 4 5 6 
#
# 1 0.012156 -0.001047 -0.007364 0.000000 0.000000 0.000000
# 2 -0.001047 0.012156 -0.007364 0.000000 0.000000 0.000000
# 3 -0.007364 -0.007364 0.025965 0.000000 0.000000 0.000000
# 4 0.000000 0.000000 0.000000 0.044840 0.000000 0.000000
# 5 0.000000 0.000000 0.000000 0.000000 0.044840 0.000000
# 6 0.000000 0.000000 0.000000 0.000000 0.000000 -0.193305
#
#
# Mechanical properties :
#
#
# Convention : Reuss Voigt Hill
#
# Bulk Modulus (GPa) = 53.39905 57.09974 55.24940
# Shear Modulus (GPa) = -321.43174 18.92820 -151.25177
#
# Velocity S-wave (km/s) = -13.00036 3.15475 -8.91787
# Velocity P-wave (km/s) = 14.04523 6.57975 8.77426
#
# Compressibility (1/GPa) = 0.01872693
#
# Stress axis : x y z
#
# Youngs Moduli (GPa) = 82.26435 82.26435 38.51323
#
# Poissons Ratio (x) = 0.08613 0.28361
# Poissons Ratio (y) = 0.08613 0.28361
# Poissons Ratio (z) = 0.60580 0.60580
#
# Static dielectric constant tensor:
#      x y z
#    x 3.709300 0.000000 0.000000 
#    y 0.000000 3.709300 0.000000 
#    z 0.000000 0.000000 3.531870 
# 
# 
# High freq. dielectric constant tensor:
#      x y z
#    x 1.743630 0.000000 0.000000 
#    y 0.000000 1.743630 0.000000 
#    z 0.000000 0.000000 1.730210 
# 
# From -- ./inp_files/1060.got.cif
#   From: 2010.03.12/outbox.cif.g09.slc.cpg/sg123_1_cif.got.tgz:1060.got - 2010.04.06 16:26:55.
