data_PCOD8312245
_publ_section_title
;
Structure prediction by ZEFSAII (Michael W. Deem and Ramdas Pophale) SiO2 
 PCOD8312245
Probable space group: P 4/M M M
;
_chemical_formula_sum "Si O2"
_cell_formula_units_Z 112
_cell_length_a 17.333578
_cell_length_b 17.333578
_cell_length_c 20.556037
_cell_angle_alpha 90.000000
_cell_angle_beta 90.000000
_cell_angle_gamma 90.000000
_cell_volume 6176.121469
_symmetry_space_group_name_H-M "P 4/M M M"
_symmetry_group_IT_number 123
_symmetry_cell_setting 'tetragonal'
loop_
_space_group_symop_operation_xyz
x,y,z
-y,x,z
-x,-y,z
y,-x,z
x,-y,-z
-x,y,-z
y,x,-z
-y,-x,-z
-x,-y,-z
y,-x,-z
x,y,-z
-y,x,-z
-x,y,z
x,-y,z
-y,-x,z
y,x,z
loop_
_atom_site_type_symbol
_atom_site_label
_atom_site_fract_x
_atom_site_fract_y
_atom_site_fract_z
Si Si1 0.413486 0.812652 0.202723
Si Si2 0.869914 0.252827 0.237732
Si Si3 0.209454 0.913168 0.100747
Si Si4 0.913411 0.787367 0.378728
Si Si5 0.200193 0.670472 0.571837
Si Si6 0.288201 0.414152 0.323789
Si Si7 0.206830 0.665757 0.072082
O O1 0.500000 0.849581 0.208489
O O2 0.345442 0.869483 0.226787
O O3 0.409083 0.737760 0.248770
O O4 0.400238 0.790193 0.127072
O O5 0.781756 0.218245 0.241033
O O6 0.915016 0.212460 0.179003
O O7 0.915047 0.231417 0.302350
O O8 0.134515 0.865486 0.076661
O O9 0.287139 0.873375 0.073990
O O10 0.203925 0.000000 0.073450
O O11 0.862954 0.862954 0.394467
O O12 0.881343 0.712176 0.415799
O O13 0.000000 0.803470 0.402866
O O14 0.199199 0.631864 0.500000
O O15 0.265188 0.734813 0.576621
O O16 0.217280 0.608194 0.628062
O O17 0.314165 0.500000 0.341704
O O18 0.361469 0.361469 0.336519
O O19 0.275607 0.724394 0.087787
O O20 0.215707 0.628690 0.000000
#
# Coordination Sequence:
#
# PCOD8312245 Si02
#       7
#    16  16  16  16  16  16  16
#     4  10  18  29  51  77  99 124 161 209 253 291
#     4   9  16  30  49  68  96 133 172 205 241 297
#     4   9  17  28  45  69  95 125 161 201 248 301
#     4  10  19  31  51  76 103 135 170 211 259 308
#     4   9  18  33  52  73  99 136 180 214 242 293
#     4  10  19  32  53  80 108 137 170 211 258 306
#     4   9  18  32  49  68  94 130 168 203 241 294
#
# _framework density 18.134357999999999
#
# number of rings (size 3 to 8) (size 9 to 14) (size 15 to 20)
#    0.000    2.571    1.429    2.571    0.000    1.571 
#    0.000    0.000    0.000   14.571    0.000   11.000 
#    0.000    0.000    0.000   22.286    0.000    0.000 
#
# Total GULP energy -1388064.949135 kJ/mol
# GULP energy per Si atom -12393.437046 kJ/mol
# Density = 1.809308 g / cm^3
# Si number density = 18.134358 Si / 1000 Ang^3
#
#
#
# Elastic Constant Matrix: (Units=GPa)
#
#
# Indices 1 2 3 4 5 6 
#
# 1 104.5017 31.4798 22.8136 0.0000 0.0000 0.0000
# 2 31.4798 104.5017 22.8136 0.0000 0.0000 0.0000
# 3 22.8136 22.8136 97.5001 0.0000 0.0000 0.0000
# 4 0.0000 0.0000 0.0000 11.9061 0.0000 0.0000
# 5 0.0000 0.0000 0.0000 0.0000 11.9061 0.0000
# 6 0.0000 0.0000 0.0000 0.0000 0.0000 12.9602
#
#
#
# Elastic Compliance Matrix: (Units=1/GPa)
#
#
# Indices 1 2 3 4 5 6 
#
# 1 0.010838 -0.002857 -0.001867 0.000000 0.000000 0.000000
# 2 -0.002857 0.010838 -0.001867 0.000000 0.000000 0.000000
# 3 -0.001867 -0.001867 0.011130 0.000000 0.000000 0.000000
# 4 0.000000 0.000000 0.000000 0.083991 0.000000 0.000000
# 5 0.000000 0.000000 0.000000 0.000000 0.083991 0.000000
# 6 0.000000 0.000000 0.000000 0.000000 0.000000 0.077159
#
#
# Mechanical properties :
#
#
# Convention : Reuss Voigt Hill
#
# Bulk Modulus (GPa) = 50.96328 51.19083 51.07705
# Shear Modulus (GPa) = 16.79714 22.64758 19.72236
#
# Velocity S-wave (km/s) = 3.04675 3.53778 3.30141
# Velocity P-wave (km/s) = 6.36719 6.70655 6.53907
#
# Compressibility (1/GPa) = 0.01962197
#
# Stress axis : x y z
#
# Youngs Moduli (GPa) = 92.27213 92.27213 89.84526
#
# Poissons Ratio (x) = 0.26362 0.16777
# Poissons Ratio (y) = 0.26362 0.16777
# Poissons Ratio (z) = 0.17230 0.17230
#
# Static dielectric constant tensor:
#      x y z
#    x 3.131050 0.000000 0.000000 
#    y 0.000000 3.131050 0.000000 
#    z 0.000000 0.000000 3.587550 
# 
# 
# High freq. dielectric constant tensor:
#      x y z
#    x 1.673610 0.000000 0.000000 
#    y 0.000000 1.673610 0.000000 
#    z 0.000000 0.000000 1.717870 
# 
# From -- ./inp_files/6718.got.cif
#   From: 2010.03.12/outbox.cif.g09.slc.cpg/sg123_4_cif.got.tgz:6718.got - 2010.04.06 16:26:55.
