data_PCOD8312092
_publ_section_title
;
Structure prediction by ZEFSAII (Michael W. Deem and Ramdas Pophale) SiO2 
 PCOD8312092
Probable space group: I -4 2 D
;
_chemical_formula_sum "Si O2"
_cell_formula_units_Z 40
_cell_length_a 13.904098
_cell_length_b 13.904098
_cell_length_c 8.445037
_cell_angle_alpha 90.000000
_cell_angle_beta 90.000000
_cell_angle_gamma 90.000000
_cell_volume 1632.627836
_symmetry_space_group_name_H-M "I -4 2 D"
_symmetry_group_IT_number 122
_symmetry_cell_setting 'tetragonal'
loop_
_space_group_symop_operation_xyz
x,y,z
y,-x,-z
-x,-y,z
-y,x,-z
x,1/2-y,1/4-z
-x,1/2+y,1/4-z
-y,1/2-x,1/4+z
y,1/2+x,1/4+z
1/2+x,1/2+y,1/2+z
1/2+y,1/2-x,1/2-z
1/2-x,1/2-y,1/2+z
1/2-y,1/2+x,1/2-z
1/2+x,-y,3/4-z
1/2-x,y,3/4-z
1/2-y,-x,3/4+z
1/2+y,x,3/4+z
loop_
_atom_site_type_symbol
_atom_site_label
_atom_site_fract_x
_atom_site_fract_y
_atom_site_fract_z
Si Si1 0.107691 0.607504 0.434494
Si Si2 0.755442 0.750000 0.625000
Si Si3 0.607542 0.892646 0.942220
O O1 0.185270 0.686849 0.491827
O O2 0.111561 0.612812 0.245296
O O3 0.137087 0.501127 0.495356
O O4 0.001039 0.630971 0.498574
O O5 0.819748 0.681289 0.518625
#
# Coordination Sequence:
#
# PCOD8312092 Si02
#       3
#    16   8  16
#     4   9  21  42  66  91 135 174 216 273 331 405
#     4  12  22  36  70 102 124 168 226 276 326 390
#     4   9  21  43  64  97 130 172 223 273 332 392
#
# _framework density 24.50038
#
# number of rings (size 3 to 8) (size 9 to 14) (size 15 to 20)
#    0.000    2.400    0.000    3.600   11.200    0.000 
#    7.200    0.000    0.000    0.000    0.000    0.000 
#    0.000    0.000    0.000    0.000    0.000    0.000 
#
# Total GULP energy -247874.303755 kJ/mol
# GULP energy per Si atom -12393.715188 kJ/mol
# Density = 2.444462 g / cm^3
# Si number density = 24.500380 Si / 1000 Ang^3
#
#
#
# Elastic Constant Matrix: (Units=GPa)
#
#
# Indices 1 2 3 4 5 6 
#
# 1 217.2092 151.0917 34.5047 0.0000 0.0000 0.0000
# 2 151.0917 217.2092 34.5047 0.0000 0.0000 0.0000
# 3 34.5047 34.5047 25.6770 0.0000 0.0000 0.0000
# 4 0.0000 0.0000 0.0000 35.2303 0.0000 0.0000
# 5 0.0000 0.0000 0.0000 0.0000 35.2303 0.0000
# 6 0.0000 0.0000 0.0000 0.0000 0.0000 70.5744
#
#
#
# Elastic Compliance Matrix: (Units=1/GPa)
#
#
# Indices 1 2 3 4 5 6 
#
# 1 0.009377 -0.005748 -0.004876 0.000000 0.000000 0.000000
# 2 -0.005748 0.009377 -0.004876 0.000000 0.000000 0.000000
# 3 -0.004876 -0.004876 0.052051 0.000000 0.000000 0.000000
# 4 0.000000 0.000000 0.000000 0.028385 0.000000 0.000000
# 5 0.000000 0.000000 0.000000 0.000000 0.028385 0.000000
# 6 0.000000 0.000000 0.000000 0.000000 0.000000 0.014169
#
#
# Mechanical properties :
#
#
# Convention : Reuss Voigt Hill
#
# Bulk Modulus (GPa) = 25.12363 100.03307 62.57835
# Shear Modulus (GPa) = 26.87986 44.20664 35.54325
#
# Velocity S-wave (km/s) = 3.31587 4.25234 3.81297
# Velocity P-wave (km/s) = 4.99366 8.06398 6.70688
#
# Compressibility (1/GPa) = 0.03980317
#
# Stress axis : x y z
#
# Youngs Moduli (GPa) = 106.64692 106.64692 19.21180
#
# Poissons Ratio (x) = 0.61299 0.09369
# Poissons Ratio (y) = 0.61299 0.09369
# Poissons Ratio (z) = 0.52006 0.52006
#
# Static dielectric constant tensor:
#      x y z
#    x 5.526020 0.000000 0.000000 
#    y 0.000000 5.526020 0.000000 
#    z 0.000000 0.000000 3.644880 
# 
# 
# High freq. dielectric constant tensor:
#      x y z
#    x 2.001040 0.000000 0.000000 
#    y 0.000000 2.001040 0.000000 
#    z 0.000000 0.000000 1.906090 
# 
# From -- ./inp_files/1799.got.cif
#   From: 2010.03.12/outbox.cif.g09.slc.cpg/sg122_1_cif.got.tgz:1799.got - 2010.04.06 16:17:16.
