data_PCOD8312400
_publ_section_title
;
Structure prediction by ZEFSAII (Michael W. Deem and Ramdas Pophale) SiO2 
 PCOD8312400
Probable space group: P 4/M M M
;
_chemical_formula_sum "Si O2"
_cell_formula_units_Z 72
_cell_length_a 14.140671
_cell_length_b 14.140671
_cell_length_c 22.307927
_cell_angle_alpha 90.000000
_cell_angle_beta 90.000000
_cell_angle_gamma 90.000000
_cell_volume 4460.661324
_symmetry_space_group_name_H-M "P 4/M M M"
_symmetry_group_IT_number 123
_symmetry_cell_setting 'tetragonal'
loop_
_space_group_symop_operation_xyz
x,y,z
-y,x,z
-x,-y,z
y,-x,z
x,-y,-z
-x,y,-z
y,x,-z
-y,-x,-z
-x,-y,-z
y,-x,-z
x,y,-z
-y,x,-z
-x,y,z
x,-y,z
-y,-x,z
y,x,z
loop_
_atom_site_type_symbol
_atom_site_label
_atom_site_fract_x
_atom_site_fract_y
_atom_site_fract_z
Si Si1 0.738846 0.108283 0.930081
Si Si2 0.265196 0.111635 0.500000
Si Si3 0.607503 0.240866 0.281321
Si Si4 0.763589 0.609678 0.855131
Si Si5 0.608080 0.109654 0.611529
O O1 0.834101 0.165900 0.913859
O O2 0.649319 0.151269 0.895331
O O3 0.754690 0.000000 0.910354
O O4 0.715411 0.115915 0.000000
O O5 0.165355 0.165355 0.500000
O O6 0.325136 0.143358 0.442259
O O7 0.244570 0.000000 0.500000
O O8 0.500000 0.270351 0.291906
O O9 0.665659 0.334342 0.295243
O O10 0.623451 0.204336 0.213705
O O11 0.639391 0.159408 0.326962
O O12 0.745757 0.500000 0.870880
O O13 0.666409 0.666409 0.868300
O O14 0.500000 0.133463 0.593875
O O15 0.621276 0.000000 0.623940
#
# Coordination Sequence:
#
# PCOD8312400 Si02
#       5
#    16   8  16  16  16
#     4   9  18  32  49  69  92 117 146 182 224 269
#     4  10  19  30  45  63  84 112 143 175 212 253
#     4   9  17  29  45  65  89 116 145 177 213 254
#     4   9  18  31  46  66  92 121 153 187 221 259
#     4   9  17  29  45  65  87 110 139 176 216 256
#
# _framework density 16.141103999999999
#
# number of rings (size 3 to 8) (size 9 to 14) (size 15 to 20)
#    0.000    2.889    0.000    1.000    0.000    3.889 
#    0.000    6.667    0.000    0.000    0.000    3.111 
#    0.000   13.333    0.000    0.000    0.000    0.000 
#
# Total GULP energy -892765.316775 kJ/mol
# GULP energy per Si atom -12399.518289 kJ/mol
# Density = 1.610437 g / cm^3
# Si number density = 16.141104 Si / 1000 Ang^3
#
#
#
# Elastic Constant Matrix: (Units=GPa)
#
#
# Indices 1 2 3 4 5 6 
#
# 1 96.6131 54.8617 55.2892 0.0000 0.0000 0.0000
# 2 54.8617 96.6131 55.2892 0.0000 0.0000 0.0000
# 3 55.2892 55.2892 78.1403 0.0000 0.0000 0.0000
# 4 0.0000 0.0000 0.0000 27.2339 0.0000 0.0000
# 5 0.0000 0.0000 0.0000 0.0000 27.2339 0.0000
# 6 0.0000 0.0000 0.0000 0.0000 0.0000 23.0836
#
#
#
# Elastic Compliance Matrix: (Units=1/GPa)
#
#
# Indices 1 2 3 4 5 6 
#
# 1 0.018803 -0.005148 -0.009662 0.000000 0.000000 0.000000
# 2 -0.005148 0.018803 -0.009662 0.000000 0.000000 0.000000
# 3 -0.009662 -0.009662 0.026470 0.000000 0.000000 0.000000
# 4 0.000000 0.000000 0.000000 0.036719 0.000000 0.000000
# 5 0.000000 0.000000 0.000000 0.000000 0.036719 0.000000
# 6 0.000000 0.000000 0.000000 0.000000 0.000000 0.043321
#
#
# Mechanical properties :
#
#
# Convention : Reuss Voigt Hill
#
# Bulk Modulus (GPa) = 66.08071 66.91633 66.49852
# Shear Modulus (GPa) = 21.29265 22.57203 21.93234
#
# Velocity S-wave (km/s) = 3.63596 3.74360 3.69017
# Velocity P-wave (km/s) = 7.65867 7.76100 7.71001
#
# Compressibility (1/GPa) = 0.01513301
#
# Stress axis : x y z
#
# Youngs Moduli (GPa) = 53.18268 53.18268 37.77846
#
# Poissons Ratio (x) = 0.27379 0.36501
# Poissons Ratio (y) = 0.27379 0.36501
# Poissons Ratio (z) = 0.51384 0.51384
#
# Static dielectric constant tensor:
#      x y z
#    x 3.019630 0.000000 0.000000 
#    y 0.000000 3.019630 0.000000 
#    z 0.000000 0.000000 3.187050 
# 
# 
# High freq. dielectric constant tensor:
#      x y z
#    x 1.615150 0.000000 0.000000 
#    y 0.000000 1.615150 0.000000 
#    z 0.000000 0.000000 1.625830 
# 
# From -- ./inp_files/5119.got.cif
#   From: 2010.03.12/outbox.cif.g09.slc.cpg/sg123_3_cif.got.tgz:5119.got - 2010.04.06 16:26:55.
