data_PCOD8312847
_publ_section_title
;
Structure prediction by ZEFSAII (Michael W. Deem and Ramdas Pophale) SiO2 
 PCOD8312847
Probable space group: P 4/M M M
;
_chemical_formula_sum "Si O2"
_cell_formula_units_Z 64
_cell_length_a 15.780575
_cell_length_b 15.780575
_cell_length_c 15.758153
_cell_angle_alpha 90.000000
_cell_angle_beta 90.000000
_cell_angle_gamma 90.000000
_cell_volume 3924.198434
_symmetry_space_group_name_H-M "P 4/M M M"
_symmetry_group_IT_number 123
_symmetry_cell_setting 'tetragonal'
loop_
_space_group_symop_operation_xyz
x,y,z
-y,x,z
-x,-y,z
y,-x,z
x,-y,-z
-x,y,-z
y,x,-z
-y,-x,-z
-x,-y,-z
y,-x,-z
x,y,-z
-y,x,-z
-x,y,z
x,-y,z
-y,-x,z
y,x,z
loop_
_atom_site_type_symbol
_atom_site_label
_atom_site_fract_x
_atom_site_fract_y
_atom_site_fract_z
Si Si1 0.791279 0.208722 0.207103
Si Si2 0.099452 0.241588 0.500000
Si Si3 0.900114 0.500000 0.757859
Si Si4 0.676336 0.902075 0.675977
Si Si5 0.323875 0.676126 0.903754
Si Si6 0.905930 0.905930 0.899894
Si Si7 0.759555 0.500000 0.097118
O O1 0.741327 0.143188 0.263320
O O2 0.728173 0.271828 0.163255
O O3 0.839622 0.160379 0.133757
O O4 0.156042 0.156042 0.500000
O O5 0.122221 0.301509 0.420546
O O6 0.000000 0.214455 0.500000
O O7 0.876769 0.419714 0.699189
O O8 0.842672 0.500000 0.842774
O O9 0.000000 0.500000 0.784255
O O10 0.690850 0.000000 0.692185
O O11 0.302670 0.578513 0.885807
O O12 0.299126 0.700875 0.000000
O O13 0.000000 0.882292 0.867651
O O14 0.902614 0.902614 0.000000
O O15 0.793725 0.500000 0.000000
#
# Coordination Sequence:
#
# PCOD8312847 Si02
#       7
#     8   8   8  16   8   8   8
#     4  12  18  31  55  75 102 132 175 220 255 303
#     4  10  20  36  53  77 107 136 172 212 259 310
#     4  10  20  36  53  77 107 136 172 212 259 310
#     4  10  21  34  53  77 104 135 170 213 260 311
#     4  10  21  34  53  77 104 135 170 213 260 311
#     4   9  19  34  48  66  99 141 183 223 259 300
#     4  10  20  36  53  77 107 136 172 212 259 310
#
# _framework density 16.309062999999998
#
# number of rings (size 3 to 8) (size 9 to 14) (size 15 to 20)
#    0.000    1.875    3.750    1.500    0.000    1.125 
#    0.000    3.750    0.000    0.000    0.000    0.000 
#    0.000    0.000    0.000    4.500    0.000    0.000 
#
# Total GULP energy -793441.868657 kJ/mol
# GULP energy per Si atom -12397.529198 kJ/mol
# Density = 1.627194 g / cm^3
# Si number density = 16.309063 Si / 1000 Ang^3
#
#
#
# Elastic Constant Matrix: (Units=GPa)
#
#
# Indices 1 2 3 4 5 6 
#
# 1 78.3326 57.9977 51.6217 0.0000 0.0000 0.0000
# 2 57.9977 78.3322 51.6216 0.0000 0.0000 0.0000
# 3 51.6217 51.6216 97.3083 0.0000 0.0000 0.0000
# 4 0.0000 0.0000 0.0000 18.8309 0.0000 0.0000
# 5 0.0000 0.0000 0.0000 0.0000 18.8312 0.0000
# 6 0.0000 0.0000 0.0000 0.0000 0.0000 28.6403
#
#
#
# Elastic Compliance Matrix: (Units=1/GPa)
#
#
# Indices 1 2 3 4 5 6 
#
# 1 0.030719 -0.018458 -0.006504 0.000000 0.000000 0.000000
# 2 -0.018458 0.030719 -0.006504 0.000000 0.000000 0.000000
# 3 -0.006504 -0.006504 0.017178 0.000000 0.000000 0.000000
# 4 0.000000 0.000000 0.000000 0.053104 0.000000 0.000000
# 5 0.000000 0.000000 0.000000 0.000000 0.053103 0.000000
# 6 0.000000 0.000000 0.000000 0.000000 0.000000 0.034916
#
#
# Mechanical properties :
#
#
# Convention : Reuss Voigt Hill
#
# Bulk Modulus (GPa) = 63.76712 64.05057 63.90884
# Shear Modulus (GPa) = 17.36713 19.44262 18.40487
#
# Velocity S-wave (km/s) = 3.26678 3.45648 3.36297
# Velocity P-wave (km/s) = 7.30844 7.43558 7.37228
#
# Compressibility (1/GPa) = 0.01568206
#
# Stress axis : x y z
#
# Youngs Moduli (GPa) = 32.55322 32.55301 58.21499
#
# Poissons Ratio (x) = 0.60087 0.37865
# Poissons Ratio (y) = 0.60087 0.37865
# Poissons Ratio (z) = 0.21174 0.21174
#
# Static dielectric constant tensor:
#      x y z
#    x 3.185970 0.000000 0.000000 
#    y 0.000000 3.185960 0.000000 
#    z 0.000000 0.000000 3.164770 
# 
# 
# High freq. dielectric constant tensor:
#      x y z
#    x 1.630790 0.000000 0.000000 
#    y 0.000000 1.630790 0.000000 
#    z 0.000000 0.000000 1.631030 
# 
# From -- ./inp_files/5095.got.cif
#   From: 2010.03.12/outbox.cif.g09.slc.cpg/sg123_3_cif.got.tgz:5095.got - 2010.04.06 16:26:55.
