data_PCOD8312998
_publ_section_title
;
Structure prediction by ZEFSAII (Michael W. Deem and Ramdas Pophale) SiO2 
 PCOD8312998
Probable space group: P 4/M M M
;
_chemical_formula_sum "Si O2"
_cell_formula_units_Z 104
_cell_length_a 14.487802
_cell_length_b 14.487802
_cell_length_c 33.118284
_cell_angle_alpha 90.000000
_cell_angle_beta 90.000000
_cell_angle_gamma 90.000000
_cell_volume 6951.408811
_symmetry_space_group_name_H-M "P 4/M M M"
_symmetry_group_IT_number 123
_symmetry_cell_setting 'tetragonal'
loop_
_space_group_symop_operation_xyz
x,y,z
-y,x,z
-x,-y,z
y,-x,z
x,-y,-z
-x,y,-z
y,x,-z
-y,-x,-z
-x,-y,-z
y,-x,-z
x,y,-z
-y,x,-z
-x,y,z
x,-y,z
-y,-x,z
y,x,z
loop_
_atom_site_type_symbol
_atom_site_label
_atom_site_fract_x
_atom_site_fract_y
_atom_site_fract_z
Si Si1 0.609059 0.103067 0.342467
Si Si2 0.754566 0.394418 0.817211
Si Si3 0.396162 0.751025 0.500000
Si Si4 0.105960 0.254989 0.954269
Si Si5 0.238500 0.608427 0.587784
Si Si6 0.606048 0.106008 0.885642
Si Si7 0.756898 0.393424 0.274752
O O1 0.500000 0.093560 0.343358
O O2 0.642963 0.159306 0.381755
O O3 0.640268 0.158063 0.302377
O O4 0.653233 0.000000 0.342289
O O5 0.726835 0.500000 0.824812
O O6 0.663960 0.336041 0.827087
O O7 0.836814 0.362673 0.846479
O O8 0.788700 0.379122 0.771408
O O9 0.500000 0.718588 0.500000
O O10 0.344688 0.655313 0.500000
O O11 0.374862 0.803904 0.457677
O O12 0.163825 0.163825 0.944518
O O13 0.137764 0.336630 0.924687
O O14 0.000000 0.227951 0.947127
O O15 0.122629 0.289727 0.000000
O O16 0.262544 0.500000 0.595001
O O17 0.331311 0.668690 0.594678
O O18 0.500000 0.124049 0.896643
O O19 0.624570 0.000000 0.874731
O O20 0.731381 0.500000 0.283688
O O21 0.666071 0.333930 0.284848
#
# Coordination Sequence:
#
# PCOD8312998 Si02
#       7
#    16  16   8  16  16  16  16
#     4   9  17  28  40  54  75 104 135 165 195 227
#     4   9  17  28  42  60  82 107 133 162 195 231
#     4   8  14  23  35  53  77 105 134 162 193 229
#     4   9  17  28  42  60  81 105 132 163 201 244
#     4   9  16  26  40  58  81 107 134 164 197 234
#     4   9  17  28  42  60  81 106 136 168 200 232
#     4   9  17  28  42  61  83 106 132 161 194 233
#
# _framework density 14.960997000000001
#
# number of rings (size 3 to 8) (size 9 to 14) (size 15 to 20)
#    0.000    3.077    0.000    0.923    0.000    1.615 
#    0.000    8.846    0.000    5.077    0.000    0.000 
#    0.000    4.923    0.000   25.692    0.000   18.615 
#
# Total GULP energy -1288896.049005 kJ/mol
# GULP energy per Si atom -12393.231240 kJ/mol
# Density = 1.492695 g / cm^3
# Si number density = 14.960997 Si / 1000 Ang^3
#
#
#
# Elastic Constant Matrix: (Units=GPa)
#
#
# Indices 1 2 3 4 5 6 
#
# 1 71.4649 42.8653 60.7262 0.0000 0.0000 0.0000
# 2 42.8653 71.4650 60.7263 0.0000 0.0000 0.0000
# 3 60.7262 60.7263 124.8002 0.0000 0.0000 0.0000
# 4 0.0000 0.0000 0.0000 22.6405 0.0000 0.0000
# 5 0.0000 0.0000 0.0000 0.0000 22.6404 0.0000
# 6 0.0000 0.0000 0.0000 0.0000 0.0000 14.7602
#
#
#
# Elastic Compliance Matrix: (Units=1/GPa)
#
#
# Indices 1 2 3 4 5 6 
#
# 1 0.026535 -0.008430 -0.008810 0.000000 0.000000 0.000000
# 2 -0.008430 0.026535 -0.008810 0.000000 0.000000 0.000000
# 3 -0.008810 -0.008810 0.016586 0.000000 0.000000 0.000000
# 4 0.000000 0.000000 0.000000 0.044169 0.000000 0.000000
# 5 0.000000 0.000000 0.000000 0.000000 0.044169 0.000000
# 6 0.000000 0.000000 0.000000 0.000000 0.000000 0.067750
#
#
# Mechanical properties :
#
#
# Convention : Reuss Voigt Hill
#
# Bulk Modulus (GPa) = 56.95555 66.26284 61.60920
# Shear Modulus (GPa) = 17.62450 18.90237 18.26344
#
# Velocity S-wave (km/s) = 3.43597 3.55835 3.49769
# Velocity P-wave (km/s) = 7.34120 7.82745 7.58822
#
# Compressibility (1/GPa) = 0.01755755
#
# Stress axis : x y z
#
# Youngs Moduli (GPa) = 37.68569 37.68565 60.29106
#
# Poissons Ratio (x) = 0.31770 0.53115
# Poissons Ratio (y) = 0.31770 0.53115
# Poissons Ratio (z) = 0.33200 0.33200
#
# Static dielectric constant tensor:
#      x y z
#    x 2.793420 0.000000 0.000000 
#    y 0.000000 2.793420 0.000000 
#    z 0.000000 0.000000 3.204500 
# 
# 
# High freq. dielectric constant tensor:
#      x y z
#    x 1.550130 0.000000 0.000000 
#    y 0.000000 1.550130 0.000000 
#    z 0.000000 0.000000 1.590280 
# 
# From -- ./inp_files/8776.got.cif
#   From: 2010.03.12/outbox.cif.g09.slc.cpg/sg123_5_cif.got.tgz:8776.got - 2010.04.06 16:26:55.
