data_PCOD8312038
_publ_section_title
;
Structure prediction by ZEFSAII (Michael W. Deem and Ramdas Pophale) SiO2 
 PCOD8312038
Probable space group: I -4 2 D
;
_chemical_formula_sum "Si O2"
_cell_formula_units_Z 88
_cell_length_a 11.574560
_cell_length_b 11.574560
_cell_length_c 28.675231
_cell_angle_alpha 90.000000
_cell_angle_beta 90.000000
_cell_angle_gamma 90.000000
_cell_volume 3841.633291
_symmetry_space_group_name_H-M "I -4 2 D"
_symmetry_group_IT_number 122
_symmetry_cell_setting 'tetragonal'
loop_
_space_group_symop_operation_xyz
x,y,z
y,-x,-z
-x,-y,z
-y,x,-z
x,1/2-y,1/4-z
-x,1/2+y,1/4-z
-y,1/2-x,1/4+z
y,1/2+x,1/4+z
1/2+x,1/2+y,1/2+z
1/2+y,1/2-x,1/2-z
1/2-x,1/2-y,1/2+z
1/2-y,1/2+x,1/2-z
1/2+x,-y,3/4-z
1/2-x,y,3/4-z
1/2-y,-x,3/4+z
1/2+y,x,3/4+z
loop_
_atom_site_type_symbol
_atom_site_label
_atom_site_fract_x
_atom_site_fract_y
_atom_site_fract_z
Si Si1 0.274403 0.473688 0.166282
Si Si2 0.207410 0.097944 0.561363
Si Si3 0.392463 0.230653 0.993598
Si Si4 0.500000 0.500000 0.220410
Si Si5 0.139000 0.702409 0.176870
Si Si6 0.769304 0.116979 0.929546
O O1 0.310349 0.425329 0.115831
O O2 0.389038 0.527282 0.188657
O O3 0.179066 0.572326 0.169335
O O4 0.213195 0.366757 0.193536
O O5 0.123545 0.199944 0.542174
O O6 0.337289 0.147199 0.550533
O O7 0.187344 0.977750 0.535710
O O8 0.275699 0.217279 0.962790
O O9 0.459892 0.110035 0.999569
O O10 0.141488 0.750000 0.125000
O O11 0.009646 0.701149 0.199073
O O12 0.750000 0.107257 0.875000
#
# Coordination Sequence:
#
# PCOD8312038 Si02
#       6
#    16  16  16   8  16  16
#     4  11  23  46  70 104 138 196 240 295 381 444
#     4  11  24  45  68 102 145 189 249 296 362 446
#     4  12  25  44  71 104 147 191 243 309 369 428
#     4  12  26  44  70 101 144 192 233 302 364 440
#     4  11  22  42  71 107 137 183 242 305 376 456
#     4   9  20  40  71  99 136 177 237 305 367 438
#
# _framework density 22.906924
#
# number of rings (size 3 to 8) (size 9 to 14) (size 15 to 20)
#    0.000    1.091    3.636    2.727    0.000    1.818 
#    3.273    0.000    4.000    0.000    0.000    0.000 
#    0.000    0.000    0.000    0.000    0.000    0.000 
#
# Total GULP energy -545120.819404 kJ/mol
# GULP energy per Si atom -12389.109532 kJ/mol
# Density = 2.285479 g / cm^3
# Si number density = 22.906924 Si / 1000 Ang^3
#
#
#
# Elastic Constant Matrix: (Units=GPa)
#
#
# Indices 1 2 3 4 5 6 
#
# 1 93.6218 12.6588 21.2097 0.0000 0.0000 0.0000
# 2 12.6588 93.6218 21.2097 0.0000 0.0000 0.0000
# 3 21.2097 21.2097 75.2163 0.0000 0.0000 0.0000
# 4 0.0000 0.0000 0.0000 31.2485 0.0000 0.0000
# 5 0.0000 0.0000 0.0000 0.0000 31.2485 0.0000
# 6 0.0000 0.0000 0.0000 0.0000 0.0000 36.7355
#
#
#
# Elastic Compliance Matrix: (Units=1/GPa)
#
#
# Indices 1 2 3 4 5 6 
#
# 1 0.011477 -0.000875 -0.002990 0.000000 0.000000 0.000000
# 2 -0.000875 0.011477 -0.002990 0.000000 0.000000 0.000000
# 3 -0.002990 -0.002990 0.014981 0.000000 0.000000 0.000000
# 4 0.000000 0.000000 0.000000 0.032001 0.000000 0.000000
# 5 0.000000 0.000000 0.000000 0.000000 0.032001 0.000000
# 6 0.000000 0.000000 0.000000 0.000000 0.000000 0.027222
#
#
# Mechanical properties :
#
#
# Convention : Reuss Voigt Hill
#
# Bulk Modulus (GPa) = 41.27622 41.40178 41.33900
# Shear Modulus (GPa) = 33.12517 33.67197 33.39857
#
# Velocity S-wave (km/s) = 3.80686 3.83815 3.82253
# Velocity P-wave (km/s) = 6.11401 6.14451 6.12928
#
# Compressibility (1/GPa) = 0.02422703
#
# Stress axis : x y z
#
# Youngs Moduli (GPa) = 87.13217 87.13218 66.75096
#
# Poissons Ratio (x) = 0.07620 0.19956
# Poissons Ratio (y) = 0.07620 0.19956
# Poissons Ratio (z) = 0.26050 0.26050
#
# Static dielectric constant tensor:
#      x y z
#    x 4.357140 0.000000 0.000000 
#    y 0.000000 4.357140 0.000000 
#    z 0.000000 0.000000 4.039380 
# 
# 
# High freq. dielectric constant tensor:
#      x y z
#    x 1.907550 0.000000 0.000000 
#    y 0.000000 1.907550 0.000000 
#    z 0.000000 0.000000 1.904130 
# 
# From -- ./inp_files/9520.got.cif
#   From: 2010.03.12/outbox.cif.g09.slc.cpg/sg122_5_cif.got.tgz:9520.got - 2010.04.06 16:17:16.
