data_PCOD8312480
_publ_section_title
;
Structure prediction by ZEFSAII (Michael W. Deem and Ramdas Pophale) SiO2 
 PCOD8312480
Probable space group: P 4/M M M
;
_chemical_formula_sum "Si O2"
_cell_formula_units_Z 80
_cell_length_a 18.514050
_cell_length_b 18.514050
_cell_length_c 13.701026
_cell_angle_alpha 90.000000
_cell_angle_beta 90.000000
_cell_angle_gamma 90.000000
_cell_volume 4696.301331
_symmetry_space_group_name_H-M "P 4/M M M"
_symmetry_group_IT_number 123
_symmetry_cell_setting 'tetragonal'
loop_
_space_group_symop_operation_xyz
x,y,z
-y,x,z
-x,-y,z
y,-x,z
x,-y,-z
-x,y,-z
y,x,-z
-y,-x,-z
-x,-y,-z
y,-x,-z
x,y,-z
-y,x,-z
-x,y,z
x,-y,z
-y,-x,z
y,x,z
loop_
_atom_site_type_symbol
_atom_site_label
_atom_site_fract_x
_atom_site_fract_y
_atom_site_fract_z
Si Si1 0.212413 0.584976 0.606630
Si Si2 0.800983 0.918023 0.611719
Si Si3 0.916716 0.347662 0.709686
Si Si4 0.416677 0.699526 0.789987
Si Si5 0.152299 0.416873 0.111398
O O1 0.229871 0.618560 0.500000
O O2 0.216921 0.500000 0.602086
O O3 0.131226 0.604097 0.637927
O O4 0.270676 0.612155 0.685598
O O5 0.775696 0.904156 0.500000
O O6 0.867154 0.867154 0.641241
O O7 0.735862 0.900983 0.685550
O O8 0.827784 0.000000 0.624310
O O9 0.895810 0.364156 0.821840
O O10 0.000000 0.367020 0.690562
O O11 0.500000 0.674729 0.784719
O O12 0.369302 0.630699 0.820726
O O13 0.406049 0.762534 0.869366
O O14 0.131493 0.500000 0.134635
O O15 0.135435 0.396810 0.000000
#
# Coordination Sequence:
#
# PCOD8312480 Si02
#       5
#    16  16  16  16  16
#     4   9  18  31  45  63  91 128 162 186 217 269
#     4   9  18  32  49  70  97 127 157 190 228 270
#     4  10  19  30  46  71  99 121 149 192 234 269
#     4   9  18  32  49  69  92 118 152 195 238 279
#     4   9  19  35  51  67  91 124 158 190 228 277
#
# _framework density 17.034683000000001
#
# number of rings (size 3 to 8) (size 9 to 14) (size 15 to 20)
#    0.000    2.800    0.000    2.400    0.000    7.600 
#    0.000    3.000    0.000    0.000    0.000    5.600 
#    0.000    0.000    0.000    4.400    0.000    0.200 
#
# Total GULP energy -991766.908579 kJ/mol
# GULP energy per Si atom -12397.086357 kJ/mol
# Density = 1.699591 g / cm^3
# Si number density = 17.034683 Si / 1000 Ang^3
#
#
#
# Elastic Constant Matrix: (Units=GPa)
#
#
# Indices 1 2 3 4 5 6 
#
# 1 61.9915 37.3499 27.8232 0.0000 0.0000 0.0000
# 2 37.3499 61.9915 27.8232 0.0000 0.0000 0.0000
# 3 27.8232 27.8232 87.3443 0.0000 0.0000 0.0000
# 4 0.0000 0.0000 0.0000 16.9309 0.0000 0.0000
# 5 0.0000 0.0000 0.0000 0.0000 16.9309 0.0000
# 6 0.0000 0.0000 0.0000 0.0000 0.0000 33.5504
#
#
#
# Elastic Compliance Matrix: (Units=1/GPa)
#
#
# Indices 1 2 3 4 5 6 
#
# 1 0.026417 -0.014165 -0.003903 0.000000 0.000000 0.000000
# 2 -0.014165 0.026417 -0.003903 0.000000 0.000000 0.000000
# 3 -0.003903 -0.003903 0.013936 0.000000 0.000000 0.000000
# 4 0.000000 0.000000 0.000000 0.059064 0.000000 0.000000
# 5 0.000000 0.000000 0.000000 0.000000 0.059064 0.000000
# 6 0.000000 0.000000 0.000000 0.000000 0.000000 0.029806
#
#
# Mechanical properties :
#
#
# Convention : Reuss Voigt Hill
#
# Bulk Modulus (GPa) = 43.80463 44.14665 43.97564
# Shear Modulus (GPa) = 18.77905 21.37116 20.07511
#
# Velocity S-wave (km/s) = 3.32384 3.54583 3.43663
# Velocity P-wave (km/s) = 6.36407 6.53727 6.45125
#
# Compressibility (1/GPa) = 0.02282864
#
# Stress axis : x y z
#
# Youngs Moduli (GPa) = 37.85413 37.85413 71.75907
#
# Poissons Ratio (x) = 0.53619 0.28008
# Poissons Ratio (y) = 0.53619 0.28008
# Poissons Ratio (z) = 0.14775 0.14775
#
# Static dielectric constant tensor:
#      x y z
#    x 3.051630 0.000000 0.000000 
#    y 0.000000 3.051630 0.000000 
#    z 0.000000 0.000000 3.455200 
# 
# 
# High freq. dielectric constant tensor:
#      x y z
#    x 1.646510 0.000000 0.000000 
#    y 0.000000 1.646510 0.000000 
#    z 0.000000 0.000000 1.652330 
# 
# From -- ./inp_files/3903.got.cif
#   From: 2010.03.12/outbox.cif.g09.slc.cpg/sg123_2_cif.got.tgz:3903.got - 2010.04.06 16:26:55.
