data_PCOD8312893
_publ_section_title
;
Structure prediction by ZEFSAII (Michael W. Deem and Ramdas Pophale) SiO2 
 PCOD8312893
Probable space group: P 4/M M M
;
_chemical_formula_sum "Si O2"
_cell_formula_units_Z 64
_cell_length_a 13.110076
_cell_length_b 13.110076
_cell_length_c 20.778586
_cell_angle_alpha 90.000000
_cell_angle_beta 90.000000
_cell_angle_gamma 90.000000
_cell_volume 3571.300617
_symmetry_space_group_name_H-M "P 4/M M M"
_symmetry_group_IT_number 123
_symmetry_cell_setting 'tetragonal'
loop_
_space_group_symop_operation_xyz
x,y,z
-y,x,z
-x,-y,z
y,-x,z
x,-y,-z
-x,y,-z
y,x,-z
-y,-x,-z
-x,-y,-z
y,-x,-z
x,y,-z
-y,x,-z
-x,y,z
x,-y,z
-y,-x,z
y,x,z
loop_
_atom_site_type_symbol
_atom_site_label
_atom_site_fract_x
_atom_site_fract_y
_atom_site_fract_z
Si Si1 0.117292 0.715931 0.758182
Si Si2 0.615081 0.777792 0.500000
Si Si3 0.784849 0.617978 0.879017
Si Si4 0.285303 0.117605 0.000000
Si Si5 0.380761 0.212997 0.360408
O O1 0.177900 0.822101 0.760653
O O2 0.156495 0.639841 0.812963
O O3 0.130089 0.659487 0.689950
O O4 0.000000 0.742899 0.769253
O O5 0.500000 0.742741 0.500000
O O6 0.671875 0.671875 0.500000
O O7 0.638954 0.835871 0.432372
O O8 0.756181 0.500000 0.882863
O O9 0.679230 0.679230 0.883102
O O10 0.858366 0.647719 0.937483
O O11 0.180606 0.180606 0.000000
O O12 0.254092 0.000000 0.000000
O O13 0.500000 0.236023 0.348857
O O14 0.318958 0.318958 0.351144
#
# Coordination Sequence:
#
# PCOD8312893 Si02
#       5
#    16   8  16   8  16
#     4  10  21  36  53  73  96 124 161 204 249 296
#     4   8  14  25  41  63  94 128 160 196 235 278
#     4  10  21  36  54  78 106 135 168 203 241 290
#     4  10  21  36  54  78 106 136 173 214 254 296
#     4   9  17  29  46  70  99 130 163 197 236 285
#
# _framework density 17.920642000000001
#
# number of rings (size 3 to 8) (size 9 to 14) (size 15 to 20)
#    0.000    2.500    0.000    1.875    0.000    5.000 
#    0.000    3.125    0.000   13.500    0.000    0.000 
#    0.000    5.000    0.000    0.000    0.000    0.000 
#
# Total GULP energy -793293.714552 kJ/mol
# GULP energy per Si atom -12395.214290 kJ/mol
# Density = 1.787985 g / cm^3
# Si number density = 17.920642 Si / 1000 Ang^3
#
#
#
# Elastic Constant Matrix: (Units=GPa)
#
#
# Indices 1 2 3 4 5 6 
#
# 1 106.9023 41.9579 42.0565 0.0000 0.0000 0.0000
# 2 41.9579 106.9023 42.0565 0.0000 0.0000 0.0000
# 3 42.0565 42.0565 132.2121 0.0000 0.0000 0.0000
# 4 0.0000 0.0000 0.0000 12.4621 0.0000 0.0000
# 5 0.0000 0.0000 0.0000 0.0000 12.4621 0.0000
# 6 0.0000 0.0000 0.0000 0.0000 0.0000 8.8836
#
#
#
# Elastic Compliance Matrix: (Units=1/GPa)
#
#
# Indices 1 2 3 4 5 6 
#
# 1 0.011794 -0.003604 -0.002605 0.000000 0.000000 0.000000
# 2 -0.003604 0.011794 -0.002605 0.000000 0.000000 0.000000
# 3 -0.002605 -0.002605 0.009221 0.000000 0.000000 0.000000
# 4 0.000000 0.000000 0.000000 0.080243 0.000000 0.000000
# 5 0.000000 0.000000 0.000000 0.000000 0.080243 0.000000
# 6 0.000000 0.000000 0.000000 0.000000 0.000000 0.112567
#
#
# Mechanical properties :
#
#
# Convention : Reuss Voigt Hill
#
# Bulk Modulus (GPa) = 65.87664 66.46207 66.16936
# Shear Modulus (GPa) = 15.21838 21.42463 18.32151
#
# Velocity S-wave (km/s) = 2.91728 3.46139 3.20092
# Velocity P-wave (km/s) = 6.94171 7.28988 7.11793
#
# Compressibility (1/GPa) = 0.01517989
#
# Stress axis : x y z
#
# Youngs Moduli (GPa) = 84.79060 84.79060 108.44822
#
# Poissons Ratio (x) = 0.30559 0.28252
# Poissons Ratio (y) = 0.30559 0.28252
# Poissons Ratio (z) = 0.22089 0.22089
#
# Static dielectric constant tensor:
#      x y z
#    x 3.073260 0.000000 0.000000 
#    y 0.000000 3.073260 0.000000 
#    z 0.000000 0.000000 3.880470 
# 
# 
# High freq. dielectric constant tensor:
#      x y z
#    x 1.676510 0.000000 0.000000 
#    y 0.000000 1.676510 0.000000 
#    z 0.000000 0.000000 1.724340 
# 
# From -- ./inp_files/7065.got.cif
#   From: 2010.03.12/outbox.cif.g09.slc.cpg/sg123_4_cif.got.tgz:7065.got - 2010.04.06 16:26:55.
