data_PCOD8312409
_publ_section_title
;
Structure prediction by ZEFSAII (Michael W. Deem and Ramdas Pophale) SiO2 
 PCOD8312409
Probable space group: P 4/M M M
;
_chemical_formula_sum "Si O2"
_cell_formula_units_Z 112
_cell_length_a 14.101313
_cell_length_b 14.101313
_cell_length_c 35.689252
_cell_angle_alpha 90.000000
_cell_angle_beta 90.000000
_cell_angle_gamma 90.000000
_cell_volume 7096.701703
_symmetry_space_group_name_H-M "P 4/M M M"
_symmetry_group_IT_number 123
_symmetry_cell_setting 'tetragonal'
loop_
_space_group_symop_operation_xyz
x,y,z
-y,x,z
-x,-y,z
y,-x,z
x,-y,-z
-x,y,-z
y,x,-z
-y,-x,-z
-x,-y,-z
y,-x,-z
x,y,-z
-y,x,-z
-x,y,z
x,-y,z
-y,-x,z
y,x,z
loop_
_atom_site_type_symbol
_atom_site_label
_atom_site_fract_x
_atom_site_fract_y
_atom_site_fract_z
Si Si1 0.612142 0.105561 0.891033
Si Si2 0.608453 0.110316 0.609936
Si Si3 0.766258 0.611284 0.177566
Si Si4 0.608876 0.238387 0.541922
Si Si5 0.108433 0.391446 0.750720
Si Si6 0.237148 0.608910 0.957490
Si Si7 0.265356 0.111054 0.679591
O O1 0.500000 0.096728 0.888375
O O2 0.648619 0.170000 0.856881
O O3 0.643038 0.152858 0.930323
O O4 0.657233 0.000000 0.888777
O O5 0.500000 0.135379 0.620160
O O6 0.641771 0.159822 0.571635
O O7 0.673849 0.144943 0.643947
O O8 0.621164 0.000000 0.602737
O O9 0.742607 0.500000 0.173902
O O10 0.667288 0.667288 0.177921
O O11 0.823940 0.634419 0.215015
O O12 0.627276 0.198071 0.500000
O O13 0.500000 0.265674 0.547679
O O14 0.665736 0.334265 0.549144
O O15 0.122285 0.500000 0.737942
O O16 0.136702 0.325437 0.716232
O O17 0.000000 0.374187 0.763419
O O18 0.264482 0.500000 0.949475
O O19 0.331505 0.668496 0.949304
O O20 0.201152 0.623215 0.000000
O O21 0.166437 0.166437 0.680468
O O22 0.241814 0.000000 0.677654
#
# Coordination Sequence:
#
# PCOD8312409 Si02
#       7
#    16  16  16  16  16  16  16
#     4   9  17  29  44  61  82 110 144 181 219 252
#     4   9  17  29  45  64  84 107 138 176 216 254
#     4  10  19  30  45  65  90 118 145 173 206 248
#     4   9  17  28  42  61  85 112 140 170 205 247
#     4   9  17  30  48  68  88 111 142 179 216 250
#     4   9  17  28  42  62  89 119 148 177 210 253
#     4  10  19  30  45  64  87 114 142 174 212 254
#
# _framework density 15.781980000000001
#
# number of rings (size 3 to 8) (size 9 to 14) (size 15 to 20)
#    0.000    2.714    0.000    2.143    0.000    4.571 
#    0.000    4.286    0.000    2.571    0.000    0.000 
#    0.000   22.857    0.000   19.571    0.000    0.857 
#
# Total GULP energy -1388707.444510 kJ/mol
# GULP energy per Si atom -12399.173612 kJ/mol
# Density = 1.574606 g / cm^3
# Si number density = 15.781980 Si / 1000 Ang^3
#
#
#
# Elastic Constant Matrix: (Units=GPa)
#
#
# Indices 1 2 3 4 5 6 
#
# 1 74.3810 49.3666 57.7668 0.0000 0.0000 0.0000
# 2 49.3666 74.3810 57.7668 0.0000 0.0000 0.0000
# 3 57.7668 57.7668 124.0767 0.0000 0.0000 0.0000
# 4 0.0000 0.0000 0.0000 23.0070 0.0000 0.0000
# 5 0.0000 0.0000 0.0000 0.0000 23.0070 0.0000
# 6 0.0000 0.0000 0.0000 0.0000 0.0000 22.8820
#
#
#
# Elastic Compliance Matrix: (Units=1/GPa)
#
#
# Indices 1 2 3 4 5 6 
#
# 1 0.027136 -0.012841 -0.006655 0.000000 0.000000 0.000000
# 2 -0.012841 0.027136 -0.006655 0.000000 0.000000 0.000000
# 3 -0.006655 -0.006655 0.014256 0.000000 0.000000 0.000000
# 4 0.000000 0.000000 0.000000 0.043465 0.000000 0.000000
# 5 0.000000 0.000000 0.000000 0.000000 0.043465 0.000000
# 6 0.000000 0.000000 0.000000 0.000000 0.000000 0.043702
#
#
# Mechanical properties :
#
#
# Convention : Reuss Voigt Hill
#
# Bulk Modulus (GPa) = 61.63428 66.95990 64.29709
# Shear Modulus (GPa) = 19.46500 20.97509 20.22004
#
# Velocity S-wave (km/s) = 3.51574 3.64957 3.58328
# Velocity P-wave (km/s) = 7.45781 7.76398 7.61243
#
# Compressibility (1/GPa) = 0.01622474
#
# Stress axis : x y z
#
# Youngs Moduli (GPa) = 36.85191 36.85191 70.14424
#
# Poissons Ratio (x) = 0.47323 0.46681
# Poissons Ratio (y) = 0.47323 0.46681
# Poissons Ratio (z) = 0.24525 0.24525
#
# Static dielectric constant tensor:
#      x y z
#    x 2.880790 0.000000 0.000000 
#    y 0.000000 2.880790 0.000000 
#    z 0.000000 0.000000 3.214950 
# 
# 
# High freq. dielectric constant tensor:
#      x y z
#    x 1.589430 0.000000 0.000000 
#    y 0.000000 1.589430 0.000000 
#    z 0.000000 0.000000 1.622720 
# 
# From -- ./inp_files/8782.got.cif
#   From: 2010.03.12/outbox.cif.g09.slc.cpg/sg123_5_cif.got.tgz:8782.got - 2010.04.06 16:26:55.
