data_PCOD8312739
_publ_section_title
;
Structure prediction by ZEFSAII (Michael W. Deem and Ramdas Pophale) SiO2 
 PCOD8312739
Probable space group: P 4/M M M
;
_chemical_formula_sum "Si O2"
_cell_formula_units_Z 104
_cell_length_a 18.162017
_cell_length_b 18.162017
_cell_length_c 19.702228
_cell_angle_alpha 90.000000
_cell_angle_beta 90.000000
_cell_angle_gamma 90.000000
_cell_volume 6498.954497
_symmetry_space_group_name_H-M "P 4/M M M"
_symmetry_group_IT_number 123
_symmetry_cell_setting 'tetragonal'
loop_
_space_group_symop_operation_xyz
x,y,z
-y,x,z
-x,-y,z
y,-x,z
x,-y,-z
-x,y,-z
y,x,-z
-y,-x,-z
-x,-y,-z
y,-x,-z
x,y,-z
-y,x,-z
-x,y,z
x,-y,z
-y,-x,z
y,x,z
loop_
_atom_site_type_symbol
_atom_site_label
_atom_site_fract_x
_atom_site_fract_y
_atom_site_fract_z
Si Si1 0.339410 0.777795 0.577869
Si Si2 0.081826 0.196902 0.255180
Si Si3 0.210640 0.912559 0.000000
Si Si4 0.415498 0.160301 0.214440
Si Si5 0.300635 0.417665 0.694859
Si Si6 0.918404 0.340592 0.335766
Si Si7 0.725646 0.157719 0.130135
O O1 0.364091 0.774245 0.500000
O O2 0.257257 0.742744 0.587763
O O3 0.396463 0.729857 0.621011
O O4 0.345822 0.861924 0.602065
O O5 0.125839 0.125839 0.281014
O O6 0.081910 0.255630 0.315121
O O7 0.119222 0.230809 0.189852
O O8 0.000000 0.171552 0.235974
O O9 0.261436 0.891479 0.936175
O O10 0.133593 0.866408 0.000000
O O11 0.192655 0.000000 0.000000
O O12 0.500000 0.144698 0.191633
O O13 0.407277 0.239893 0.247589
O O14 0.391978 0.101181 0.271404
O O15 0.361470 0.159059 0.148833
O O16 0.329853 0.500000 0.690654
O O17 0.368259 0.368259 0.717837
O O18 0.000000 0.363988 0.360749
O O19 0.759799 0.240201 0.119856
#
# Coordination Sequence:
#
# PCOD8312739 Si02
#       7
#    16  16   8  16  16  16  16
#     4   9  17  29  44  60  80 109 143 176 210 251
#     4   9  16  26  41  60  82 108 137 171 212 256
#     4  10  20  33  49  69  93 121 152 184 218 256
#     4   9  17  30  48  67  87 113 145 179 213 252
#     4   9  17  29  46  68  91 114 141 173 210 253
#     4   9  17  28  42  61  83 106 136 175 217 259
#     4   9  17  30  47  65  87 116 147 178 213 252
#
# _framework density 16.002573000000002
#
# number of rings (size 3 to 8) (size 9 to 14) (size 15 to 20)
#    0.000    2.923    0.000    1.385    0.000    5.615 
#    0.000    0.385    0.000    3.231    0.000    6.462 
#    0.000    0.000    0.000   14.308    0.000   46.154 
#
# Total GULP energy -1289032.189346 kJ/mol
# GULP energy per Si atom -12394.540282 kJ/mol
# Density = 1.596615 g / cm^3
# Si number density = 16.002573 Si / 1000 Ang^3
#
#
#
# Elastic Constant Matrix: (Units=GPa)
#
#
# Indices 1 2 3 4 5 6 
#
# 1 102.3009 45.9854 18.3634 0.0000 0.0000 0.0000
# 2 45.9854 102.3012 18.3636 0.0000 0.0000 0.0000
# 3 18.3634 18.3636 52.1808 0.0000 0.0000 0.0000
# 4 0.0000 0.0000 0.0000 22.8456 0.0000 0.0000
# 5 0.0000 0.0000 0.0000 0.0000 22.8634 0.0000
# 6 0.0000 0.0000 0.0000 0.0000 0.0000 16.5980
#
#
#
# Elastic Compliance Matrix: (Units=1/GPa)
#
#
# Indices 1 2 3 4 5 6 
#
# 1 0.012572 -0.005185 -0.002600 0.000000 0.000000 0.000000
# 2 -0.005185 0.012572 -0.002600 0.000000 0.000000 0.000000
# 3 -0.002600 -0.002600 0.020994 0.000000 0.000000 0.000000
# 4 0.000000 0.000000 0.000000 0.043772 0.000000 0.000000
# 5 0.000000 0.000000 0.000000 0.000000 0.043738 0.000000
# 6 0.000000 0.000000 0.000000 0.000000 0.000000 0.060248
#
#
# Mechanical properties :
#
#
# Convention : Reuss Voigt Hill
#
# Bulk Modulus (GPa) = 39.41687 46.91196 43.16442
# Shear Modulus (GPa) = 22.40924 24.06613 23.23768
#
# Velocity S-wave (km/s) = 3.74619 3.88221 3.81481
# Velocity P-wave (km/s) = 6.58764 7.03380 6.81437
#
# Compressibility (1/GPa) = 0.02536985
#
# Stress axis : x y z
#
# Youngs Moduli (GPa) = 79.53965 79.53981 47.63264
#
# Poissons Ratio (x) = 0.41239 0.12384
# Poissons Ratio (y) = 0.41239 0.12384
# Poissons Ratio (z) = 0.20679 0.20679
#
# Static dielectric constant tensor:
#      x y z
#    x 3.160360 0.000000 0.000000 
#    y 0.000000 3.160360 0.000000 
#    z 0.000000 0.000000 2.882720 
# 
# 
# High freq. dielectric constant tensor:
#      x y z
#    x 1.612250 0.000000 0.000000 
#    y 0.000000 1.612250 0.000000 
#    z 0.000000 0.000000 1.592270 
# 
# From -- ./inp_files/5595.got.cif
#   From: 2010.03.12/outbox.cif.g09.slc.cpg/sg123_3_cif.got.tgz:5595.got - 2010.04.06 16:26:55.
