data_PCOD8312167
_publ_section_title
;
Structure prediction by ZEFSAII (Michael W. Deem and Ramdas Pophale) SiO2 
 PCOD8312167
Probable space group: P 4/M M M
;
_chemical_formula_sum "Si O2"
_cell_formula_units_Z 64
_cell_length_a 20.617292
_cell_length_b 20.617292
_cell_length_c 10.407632
_cell_angle_alpha 90.000000
_cell_angle_beta 90.000000
_cell_angle_gamma 90.000000
_cell_volume 4424.000541
_symmetry_space_group_name_H-M "P 4/M M M"
_symmetry_group_IT_number 123
_symmetry_cell_setting 'tetragonal'
loop_
_space_group_symop_operation_xyz
x,y,z
-y,x,z
-x,-y,z
y,-x,z
x,-y,-z
-x,y,-z
y,x,-z
-y,-x,-z
-x,-y,-z
y,-x,-z
x,y,-z
-y,x,-z
-x,y,z
x,-y,z
-y,-x,z
y,x,z
loop_
_atom_site_type_symbol
_atom_site_label
_atom_site_fract_x
_atom_site_fract_y
_atom_site_fract_z
Si Si1 0.425679 0.683815 0.500000
Si Si2 0.263784 0.627617 0.248281
Si Si3 0.824679 0.072631 0.153464
Si Si4 0.170076 0.279103 0.143338
Si Si5 0.319518 0.572516 0.000000
O O1 0.500000 0.659285 0.500000
O O2 0.379820 0.620181 0.500000
O O3 0.413987 0.730310 0.622300
O O4 0.317471 0.682530 0.251583
O O5 0.192846 0.661806 0.235746
O O6 0.275040 0.582594 0.124874
O O7 0.886624 0.113377 0.204786
O O8 0.757068 0.106113 0.199059
O O9 0.828382 0.000000 0.210071
O O10 0.825732 0.072170 0.000000
O O11 0.226537 0.226537 0.133113
O O12 0.156921 0.306724 0.000000
O O13 0.347050 0.500000 0.000000
O O14 0.381241 0.618760 0.000000
#
# Coordination Sequence:
#
# PCOD8312167 Si02
#       5
#     8  16  16  16   8
#     4  10  20  31  42  58  81 105 128 156 192 238
#     4   9  16  27  41  56  74  99 130 165 200 231
#     4   8  13  19  29  50  82 116 144 167 192 229
#     4   8  12  21  37  54  73 100 134 170 205 233
#     4  10  18  27  40  56  75  99 126 154 186 232
#
# _framework density 14.466544000000001
#
# number of rings (size 3 to 8) (size 9 to 14) (size 15 to 20)
#    0.000    3.250    1.250    2.250    0.000    0.500 
#    0.000    1.250    0.000    4.500    0.000    0.875 
#    0.000    6.000    0.000    0.000    0.000   22.500 
#
# Total GULP energy -792941.355037 kJ/mol
# GULP energy per Si atom -12389.708672 kJ/mol
# Density = 1.443362 g / cm^3
# Si number density = 14.466544 Si / 1000 Ang^3
#
#
#
# Elastic Constant Matrix: (Units=GPa)
#
#
# Indices 1 2 3 4 5 6 
#
# 1 69.7782 61.5886 30.8748 0.0000 0.0000 0.0000
# 2 61.5886 69.7798 30.8748 0.0000 0.0000 0.0000
# 3 30.8748 30.8748 77.4151 0.0000 0.0000 0.0000
# 4 0.0000 0.0000 0.0000 8.7643 0.0000 0.0000
# 5 0.0000 0.0000 0.0000 0.0000 8.7642 0.0000
# 6 0.0000 0.0000 0.0000 0.0000 0.0000 14.6825
#
#
#
# Elastic Compliance Matrix: (Units=1/GPa)
#
#
# Indices 1 2 3 4 5 6 
#
# 1 0.065733 -0.056363 -0.003737 0.000000 0.000000 0.000000
# 2 -0.056363 0.065731 -0.003736 0.000000 0.000000 0.000000
# 3 -0.003737 -0.003736 0.015898 0.000000 0.000000 0.000000
# 4 0.000000 0.000000 0.000000 0.114100 0.000000 0.000000
# 5 0.000000 0.000000 0.000000 0.000000 0.114101 0.000000
# 6 0.000000 0.000000 0.000000 0.000000 0.000000 0.068108
#
#
# Mechanical properties :
#
#
# Convention : Reuss Voigt Hill
#
# Bulk Modulus (GPa) = 50.78918 51.51661 51.15290
# Shear Modulus (GPa) = 8.65194 12.68450 10.66822
#
# Velocity S-wave (km/s) = 2.44819 2.96432 2.71853
# Velocity P-wave (km/s) = 6.57083 6.88509 6.72979
#
# Compressibility (1/GPa) = 0.01968923
#
# Stress axis : x y z
#
# Youngs Moduli (GPa) = 15.21313 15.21355 62.90233
#
# Poissons Ratio (x) = 0.85749 0.23505
# Poissons Ratio (y) = 0.85746 0.23501
# Poissons Ratio (z) = 0.05685 0.05684
#
# Static dielectric constant tensor:
#      x y z
#    x 2.865470 0.000000 0.000000 
#    y 0.000000 2.865470 0.000000 
#    z 0.000000 0.000000 2.822290 
# 
# 
# High freq. dielectric constant tensor:
#      x y z
#    x 1.531380 0.000000 0.000000 
#    y 0.000000 1.531380 0.000000 
#    z 0.000000 0.000000 1.522680 
# 
# From -- ./inp_files/964.got.cif
#   From: 2010.03.12/outbox.cif.g09.slc.cpg/sg123_1_cif.got.tgz:964.got - 2010.04.06 16:26:55.
