data_PCOD8312458
_publ_section_title
;
Structure prediction by ZEFSAII (Michael W. Deem and Ramdas Pophale) SiO2 
 PCOD8312458
Probable space group: P 4/M M M
;
_chemical_formula_sum "Si O2"
_cell_formula_units_Z 88
_cell_length_a 13.674633
_cell_length_b 13.674633
_cell_length_c 27.729913
_cell_angle_alpha 90.000000
_cell_angle_beta 90.000000
_cell_angle_gamma 90.000000
_cell_volume 5185.371378
_symmetry_space_group_name_H-M "P 4/M M M"
_symmetry_group_IT_number 123
_symmetry_cell_setting 'tetragonal'
loop_
_space_group_symop_operation_xyz
x,y,z
-y,x,z
-x,-y,z
y,-x,z
x,-y,-z
-x,y,-z
y,x,-z
-y,-x,-z
-x,-y,-z
y,-x,-z
x,y,-z
-y,x,-z
-x,y,z
x,-y,z
-y,-x,z
y,x,z
loop_
_atom_site_type_symbol
_atom_site_label
_atom_site_fract_x
_atom_site_fract_y
_atom_site_fract_z
Si Si1 0.889040 0.730829 0.124727
Si Si2 0.728873 0.887181 0.235297
Si Si3 0.890587 0.384281 0.405871
Si Si4 0.384949 0.774016 0.311853
Si Si5 0.388547 0.230277 0.945089
Si Si6 0.226411 0.384340 0.500000
O O1 0.826930 0.826930 0.112545
O O2 0.874896 0.697071 0.179825
O O3 0.857377 0.642177 0.090215
O O4 0.000000 0.758908 0.113762
O O5 0.829831 0.829831 0.246025
O O6 0.640726 0.842395 0.266438
O O7 0.746066 0.000000 0.249013
O O8 0.898839 0.500000 0.405434
O O9 0.830330 0.348615 0.359540
O O10 0.835107 0.349701 0.453773
O O11 0.000000 0.338850 0.404926
O O12 0.500000 0.752035 0.312359
O O13 0.329506 0.670495 0.308592
O O14 0.500000 0.258108 0.935221
O O15 0.327093 0.327093 0.933132
O O16 0.371872 0.195307 0.000000
O O17 0.247313 0.500000 0.500000
O O18 0.331098 0.331098 0.500000
#
# Coordination Sequence:
#
# PCOD8312458 Si02
#       6
#    16  16  16  16  16   8
#     4   9  18  32  49  70  96 124 155 192 233 279
#     4   9  18  32  50  72  96 123 156 194 237 282
#     4   9  17  30  48  68  90 118 153 194 238 279
#     4  10  20  33  49  70  97 128 161 196 234 280
#     4   9  18  32  49  69  93 121 154 193 235 278
#     4  10  19  30  45  67  96 128 161 195 232 279
#
# _framework density 16.970818999999999
#
# number of rings (size 3 to 8) (size 9 to 14) (size 15 to 20)
#    0.000    2.727    0.000    1.364    0.000    4.455 
#    0.000    5.455    0.000    3.273    0.000    7.636 
#    0.000   13.818    0.000    0.000    0.000    0.000 
#
# Total GULP energy -1091257.103863 kJ/mol
# GULP energy per Si atom -12400.648908 kJ/mol
# Density = 1.693219 g / cm^3
# Si number density = 16.970819 Si / 1000 Ang^3
#
#
#
# Elastic Constant Matrix: (Units=GPa)
#
#
# Indices 1 2 3 4 5 6 
#
# 1 97.0244 44.9355 53.6410 0.0000 0.0000 0.0000
# 2 44.9355 97.0244 53.6410 0.0000 0.0000 0.0000
# 3 53.6410 53.6410 100.8719 0.0000 0.0000 0.0000
# 4 0.0000 0.0000 0.0000 26.1010 0.0000 0.0000
# 5 0.0000 0.0000 0.0000 0.0000 26.1010 0.0000
# 6 0.0000 0.0000 0.0000 0.0000 0.0000 12.6932
#
#
#
# Elastic Compliance Matrix: (Units=1/GPa)
#
#
# Indices 1 2 3 4 5 6 
#
# 1 0.015488 -0.003710 -0.006263 0.000000 0.000000 0.000000
# 2 -0.003710 0.015488 -0.006263 0.000000 0.000000 0.000000
# 3 -0.006263 -0.006263 0.016574 0.000000 0.000000 0.000000
# 4 0.000000 0.000000 0.000000 0.038313 0.000000 0.000000
# 5 0.000000 0.000000 0.000000 0.000000 0.038313 0.000000
# 6 0.000000 0.000000 0.000000 0.000000 0.000000 0.078782
#
#
# Mechanical properties :
#
#
# Convention : Reuss Voigt Hill
#
# Bulk Modulus (GPa) = 66.32392 66.59508 66.45950
# Shear Modulus (GPa) = 20.79391 22.49258 21.64324
#
# Velocity S-wave (km/s) = 3.50419 3.64451 3.57504
# Velocity P-wave (km/s) = 7.45241 7.55222 7.50248
#
# Compressibility (1/GPa) = 0.01507752
#
# Stress axis : x y z
#
# Youngs Moduli (GPa) = 64.56797 64.56797 60.33436
#
# Poissons Ratio (x) = 0.23957 0.37786
# Poissons Ratio (y) = 0.23957 0.37786
# Poissons Ratio (z) = 0.40437 0.40437
#
# Static dielectric constant tensor:
#      x y z
#    x 3.083920 0.000000 0.000000 
#    y 0.000000 3.083920 0.000000 
#    z 0.000000 0.000000 3.382910 
# 
# 
# High freq. dielectric constant tensor:
#      x y z
#    x 1.643680 0.000000 0.000000 
#    y 0.000000 1.643680 0.000000 
#    z 0.000000 0.000000 1.667370 
# 
# From -- ./inp_files/6407.got.cif
#   From: 2010.03.12/outbox.cif.g09.slc.cpg/sg123_4_cif.got.tgz:6407.got - 2010.04.06 16:26:55.
