data_PCOD8312687
_publ_section_title
;
Structure prediction by ZEFSAII (Michael W. Deem and Ramdas Pophale) SiO2 
 PCOD8312687
Probable space group: P 4/M M M
;
_chemical_formula_sum "Si O2"
_cell_formula_units_Z 104
_cell_length_a 17.964414
_cell_length_b 17.964414
_cell_length_c 19.002895
_cell_angle_alpha 90.000000
_cell_angle_beta 90.000000
_cell_angle_gamma 90.000000
_cell_volume 6132.617512
_symmetry_space_group_name_H-M "P 4/M M M"
_symmetry_group_IT_number 123
_symmetry_cell_setting 'tetragonal'
loop_
_space_group_symop_operation_xyz
x,y,z
-y,x,z
-x,-y,z
y,-x,z
x,-y,-z
-x,y,-z
y,x,-z
-y,-x,-z
-x,-y,-z
y,-x,-z
x,y,-z
-y,x,-z
-x,y,z
x,-y,z
-y,-x,z
y,x,z
loop_
_atom_site_type_symbol
_atom_site_label
_atom_site_fract_x
_atom_site_fract_y
_atom_site_fract_z
Si Si1 0.149902 0.348627 0.711879
Si Si2 0.722712 0.912994 0.076568
Si Si3 0.087573 0.796752 0.219502
Si Si4 0.581556 0.912049 0.154442
Si Si5 0.583205 0.911868 0.422236
Si Si6 0.708208 0.412568 0.346073
Si Si7 0.703607 0.582867 0.500000
O O1 0.132720 0.264817 0.736548
O O2 0.115079 0.406901 0.766222
O O3 0.113832 0.357718 0.635386
O O4 0.237555 0.368221 0.707085
O O5 0.784264 0.898097 0.136130
O O6 0.643668 0.878091 0.102034
O O7 0.711543 0.000000 0.067062
O O8 0.744874 0.878363 0.000000
O O9 0.122714 0.877286 0.238011
O O10 0.000000 0.795305 0.238345
O O11 0.500000 0.887538 0.127685
O O12 0.589891 0.000000 0.156935
O O13 0.604369 0.880117 0.500000
O O14 0.500000 0.883437 0.402098
O O15 0.583857 0.000000 0.425571
O O16 0.699617 0.500000 0.325776
O O17 0.627286 0.372715 0.342550
O O18 0.745933 0.403805 0.425067
O O19 0.672397 0.500000 0.500000
O O20 0.630541 0.630541 0.500000
#
# Coordination Sequence:
#
# PCOD8312687 Si02
#       7
#    16  16  16  16  16  16   8
#     4  11  19  30  47  68  95 124 158 200 247 290
#     4   8  15  28  45  67  95 124 155 194 238 280
#     4  10  21  36  54  74  96 124 157 196 243 298
#     4   9  16  25  40  64  94 131 169 199 232 280
#     4   9  17  27  41  65  96 129 161 193 235 286
#     4  10  20  32  47  66  91 125 162 200 238 277
#     4   8  16  29  42  60  85 115 154 194 232 272
#
# _framework density 16.958500000000001
#
# number of rings (size 3 to 8) (size 9 to 14) (size 15 to 20)
#    0.000    2.615    0.000    4.615    1.077    2.231 
#    0.000    3.077    0.000    0.000    0.000    2.154 
#    0.000    0.000    0.000    3.231    0.000    2.769 
#
# Total GULP energy -1288407.069345 kJ/mol
# GULP energy per Si atom -12388.529513 kJ/mol
# Density = 1.691990 g / cm^3
# Si number density = 16.958500 Si / 1000 Ang^3
#
#
#
# Elastic Constant Matrix: (Units=GPa)
#
#
# Indices 1 2 3 4 5 6 
#
# 1 21.9254 77.3540 19.7599 0.0000 0.0000 0.0000
# 2 77.3540 21.9254 19.7599 0.0000 0.0000 0.0000
# 3 19.7599 19.7599 75.1367 0.0000 0.0000 0.0000
# 4 0.0000 0.0000 0.0000 12.4451 0.0000 0.0000
# 5 0.0000 0.0000 0.0000 0.0000 12.4451 0.0000
# 6 0.0000 0.0000 0.0000 0.0000 0.0000 40.9958
#
#
#
# Elastic Compliance Matrix: (Units=1/GPa)
#
#
# Indices 1 2 3 4 5 6 
#
# 1 -0.003395 0.014646 -0.002959 0.000000 0.000000 0.000000
# 2 0.014646 -0.003395 -0.002959 0.000000 0.000000 0.000000
# 3 -0.002959 -0.002959 0.014865 0.000000 0.000000 0.000000
# 4 0.000000 0.000000 0.000000 0.080353 0.000000 0.000000
# 5 0.000000 0.000000 0.000000 0.000000 0.080353 0.000000
# 6 0.000000 0.000000 0.000000 0.000000 0.000000 0.024393
#
#
# Mechanical properties :
#
#
# Convention : Reuss Voigt Hill
#
# Bulk Modulus (GPa) = 39.16773 39.19277 39.18025
# Shear Modulus (GPa) = 27.14047 13.31810 20.22929
#
# Velocity S-wave (km/s) = 4.00485 2.80542 3.45754
# Velocity P-wave (km/s) = 6.67319 5.80130 6.25246
#
# Compressibility (1/GPa) = 0.02553122
#
# Stress axis : x y z
#
# Youngs Moduli (GPa) = -294.51261 -294.51261 67.27090
#
# Poissons Ratio (x) = 4.31337 0.19903
# Poissons Ratio (y) = 4.31337 0.19903
# Poissons Ratio (z) = -0.87137 -0.87137
#
# Static dielectric constant tensor:
#      x y z
#    x 3.018160 0.000000 0.000000 
#    y 0.000000 3.018160 0.000000 
#    z 0.000000 0.000000 5.157810 
# 
# 
# High freq. dielectric constant tensor:
#      x y z
#    x 1.636480 0.000000 0.000000 
#    y 0.000000 1.636480 0.000000 
#    z 0.000000 0.000000 1.650600 
# 
# From -- ./inp_files/5630.got.cif
#   From: 2010.03.12/outbox.cif.g09.slc.cpg/sg123_3_cif.got.tgz:5630.got - 2010.04.06 16:26:55.
