data_PCOD8312866
_publ_section_title
;
Structure prediction by ZEFSAII (Michael W. Deem and Ramdas Pophale) SiO2 
 PCOD8312866
Probable space group: P 4/M M M
;
_chemical_formula_sum "Si O2"
_cell_formula_units_Z 72
_cell_length_a 13.049452
_cell_length_b 13.049452
_cell_length_c 24.447398
_cell_angle_alpha 90.000000
_cell_angle_beta 90.000000
_cell_angle_gamma 90.000000
_cell_volume 4163.103339
_symmetry_space_group_name_H-M "P 4/M M M"
_symmetry_group_IT_number 123
_symmetry_cell_setting 'tetragonal'
loop_
_space_group_symop_operation_xyz
x,y,z
-y,x,z
-x,-y,z
y,-x,z
x,-y,-z
-x,y,-z
y,x,-z
-y,-x,-z
-x,-y,-z
y,-x,-z
x,y,-z
-y,x,-z
-x,y,z
x,-y,z
-y,-x,z
y,x,z
loop_
_atom_site_type_symbol
_atom_site_label
_atom_site_fract_x
_atom_site_fract_y
_atom_site_fract_z
Si Si1 0.000000 0.621278 0.438158
Si Si2 0.219742 0.615941 0.253984
Si Si3 0.717049 0.885778 0.841929
Si Si4 0.383110 0.782811 0.061308
Si Si5 0.379995 0.790706 0.620148
O O1 0.894176 0.659219 0.409971
O O2 0.000000 0.500000 0.435906
O O3 0.000000 0.663006 0.500000
O O4 0.247703 0.500000 0.241277
O O5 0.322958 0.677043 0.241335
O O6 0.130628 0.652637 0.213523
O O7 0.183011 0.631306 0.316051
O O8 0.816066 0.816066 0.844134
O O9 0.646258 0.869570 0.895133
O O10 0.758561 0.000000 0.842174
O O11 0.500000 0.751104 0.069043
O O12 0.319467 0.680534 0.073416
O O13 0.362005 0.825092 0.000000
O O14 0.500000 0.764250 0.605846
O O15 0.306593 0.693408 0.604119
#
# Coordination Sequence:
#
# PCOD8312866 Si02
#       5
#     8  16  16  16  16
#     4   9  18  32  50  73 101 135 172 207 246 293
#     4   9  18  31  48  73 102 130 160 195 238 289
#     4  10  21  35  50  69  93 123 162 207 251 293
#     4   9  18  32  49  71  99 128 159 195 236 287
#     4   9  18  32  51  76 105 136 170 209 253 302
#
# _framework density 17.294789999999999
#
# number of rings (size 3 to 8) (size 9 to 14) (size 15 to 20)
#    0.000    2.778    0.000    0.667    1.556    3.556 
#    0.000    4.444    0.000    4.333    0.000    7.000 
#    0.000    0.000    0.000    0.000    0.000    0.000 
#
# Total GULP energy -892526.104774 kJ/mol
# GULP energy per Si atom -12396.195900 kJ/mol
# Density = 1.725543 g / cm^3
# Si number density = 17.294790 Si / 1000 Ang^3
#
#
#
# Elastic Constant Matrix: (Units=GPa)
#
#
# Indices 1 2 3 4 5 6 
#
# 1 101.7512 41.7764 51.5223 0.0000 0.0000 0.0000
# 2 41.7764 101.7512 51.5223 0.0000 0.0000 0.0000
# 3 51.5223 51.5223 99.4490 0.0000 0.0000 0.0000
# 4 0.0000 0.0000 0.0000 22.4057 0.0000 0.0000
# 5 0.0000 0.0000 0.0000 0.0000 22.4057 0.0000
# 6 0.0000 0.0000 0.0000 0.0000 0.0000 11.2874
#
#
#
# Elastic Compliance Matrix: (Units=1/GPa)
#
#
# Indices 1 2 3 4 5 6 
#
# 1 0.013884 -0.002790 -0.005747 0.000000 0.000000 0.000000
# 2 -0.002790 0.013884 -0.005747 0.000000 0.000000 0.000000
# 3 -0.005747 -0.005747 0.016011 0.000000 0.000000 0.000000
# 4 0.000000 0.000000 0.000000 0.044632 0.000000 0.000000
# 5 0.000000 0.000000 0.000000 0.000000 0.044632 0.000000
# 6 0.000000 0.000000 0.000000 0.000000 0.000000 0.088595
#
#
# Mechanical properties :
#
#
# Convention : Reuss Voigt Hill
#
# Bulk Modulus (GPa) = 65.75343 65.84374 65.79858
# Shear Modulus (GPa) = 19.58677 21.76176 20.67426
#
# Velocity S-wave (km/s) = 3.36895 3.55108 3.46121
# Velocity P-wave (km/s) = 7.29622 7.41402 7.35535
#
# Compressibility (1/GPa) = 0.01520833
#
# Stress axis : x y z
#
# Youngs Moduli (GPa) = 72.02736 72.02736 62.45884
#
# Poissons Ratio (x) = 0.20096 0.35897
# Poissons Ratio (y) = 0.20096 0.35897
# Poissons Ratio (z) = 0.41396 0.41396
#
# Static dielectric constant tensor:
#      x y z
#    x 3.105600 0.000000 0.000000 
#    y 0.000000 3.105600 0.000000 
#    z 0.000000 0.000000 3.501650 
# 
# 
# High freq. dielectric constant tensor:
#      x y z
#    x 1.654360 0.000000 0.000000 
#    y 0.000000 1.654360 0.000000 
#    z 0.000000 0.000000 1.680080 
# 
# From -- ./inp_files/7785.got.cif
#   From: 2010.03.12/outbox.cif.g09.slc.cpg/sg123_4_cif.got.tgz:7785.got - 2010.04.06 16:26:55.
