data_PCOD8312414
_publ_section_title
;
Structure prediction by ZEFSAII (Michael W. Deem and Ramdas Pophale) SiO2 
 PCOD8312414
Probable space group: P 4/M M M
;
_chemical_formula_sum "Si O2"
_cell_formula_units_Z 112
_cell_length_a 15.324254
_cell_length_b 15.324254
_cell_length_c 28.172429
_cell_angle_alpha 90.000000
_cell_angle_beta 90.000000
_cell_angle_gamma 90.000000
_cell_volume 6615.809276
_symmetry_space_group_name_H-M "P 4/M M M"
_symmetry_group_IT_number 123
_symmetry_cell_setting 'tetragonal'
loop_
_space_group_symop_operation_xyz
x,y,z
-y,x,z
-x,-y,z
y,-x,z
x,-y,-z
-x,y,-z
y,x,-z
-y,-x,-z
-x,-y,-z
y,-x,-z
x,y,-z
-y,x,-z
-x,y,z
x,-y,z
-y,-x,z
y,x,z
loop_
_atom_site_type_symbol
_atom_site_label
_atom_site_fract_x
_atom_site_fract_y
_atom_site_fract_z
Si Si1 0.396481 0.903248 0.053425
Si Si2 0.730847 0.593612 0.681478
Si Si3 0.188098 0.598153 0.221131
Si Si4 0.743326 0.601778 0.117259
Si Si5 0.340245 0.902255 0.645665
Si Si6 0.239753 0.098528 0.552703
Si Si7 0.097516 0.759485 0.261156
O O1 0.500000 0.903841 0.054816
O O2 0.362384 0.827057 0.087986
O O3 0.362965 0.000000 0.069627
O O4 0.363564 0.883822 0.000000
O O5 0.687449 0.500000 0.670049
O O6 0.670026 0.670026 0.660230
O O7 0.738832 0.605929 0.737993
O O8 0.827465 0.591084 0.658659
O O9 0.146578 0.500000 0.220903
O O10 0.236288 0.617014 0.172180
O O11 0.114301 0.670732 0.231202
O O12 0.723518 0.500000 0.106054
O O13 0.658501 0.658501 0.102993
O O14 0.312630 0.882335 0.591839
O O15 0.259460 0.894046 0.682482
O O16 0.381191 0.000000 0.649654
O O17 0.278972 0.116905 0.500000
O O18 0.156128 0.156128 0.563107
O O19 0.206474 0.000000 0.557214
O O20 0.165689 0.834312 0.246427
O O21 0.000000 0.791897 0.248957
#
# Coordination Sequence:
#
# PCOD8312414 Si02
#       7
#    16  16  16  16  16  16  16
#     4   8  15  29  47  65  86 115 153 195 233 261
#     4  10  19  31  48  67  90 119 149 186 228 271
#     4   9  18  32  48  66  89 118 153 192 233 271
#     4  10  19  30  46  68  96 127 154 183 221 271
#     4   9  17  30  47  65  87 116 148 182 223 265
#     4   9  16  25  39  60  86 116 148 181 217 261
#     4  10  19  30  45  64  90 122 152 186 225 269
#
# _framework density 16.929147
#
# number of rings (size 3 to 8) (size 9 to 14) (size 15 to 20)
#    0.000    2.714    0.000    3.857    0.000    2.000 
#    0.000    5.000    0.000    5.571    0.000    4.000 
#    0.000    0.286    0.000    4.571    0.000    0.143 
#
# Total GULP energy -1387892.967087 kJ/mol
# GULP energy per Si atom -12391.901492 kJ/mol
# Density = 1.689062 g / cm^3
# Si number density = 16.929147 Si / 1000 Ang^3
#
#
#
# Elastic Constant Matrix: (Units=GPa)
#
#
# Indices 1 2 3 4 5 6 
#
# 1 90.5455 57.1271 36.0056 0.0000 0.0000 0.0000
# 2 57.1271 90.5455 36.0056 0.0000 0.0000 0.0000
# 3 36.0056 36.0056 70.6846 0.0000 0.0000 0.0000
# 4 0.0000 0.0000 0.0000 15.7953 0.0000 0.0000
# 5 0.0000 0.0000 0.0000 0.0000 15.7953 0.0000
# 6 0.0000 0.0000 0.0000 0.0000 0.0000 14.5157
#
#
#
# Elastic Compliance Matrix: (Units=1/GPa)
#
#
# Indices 1 2 3 4 5 6 
#
# 1 0.019467 -0.010457 -0.004589 0.000000 0.000000 0.000000
# 2 -0.010457 0.019467 -0.004589 0.000000 0.000000 0.000000
# 3 -0.004589 -0.004589 0.018823 0.000000 0.000000 0.000000
# 4 0.000000 0.000000 0.000000 0.063310 0.000000 0.000000
# 5 0.000000 0.000000 0.000000 0.000000 0.063310 0.000000
# 6 0.000000 0.000000 0.000000 0.000000 0.000000 0.068891
#
#
# Mechanical properties :
#
#
# Convention : Reuss Voigt Hill
#
# Bulk Modulus (GPa) = 54.09874 56.67243 55.38559
# Shear Modulus (GPa) = 16.73919 17.39708 17.06814
#
# Velocity S-wave (km/s) = 3.14790 3.20916 3.17868
# Velocity P-wave (km/s) = 6.72590 6.87609 6.80141
#
# Compressibility (1/GPa) = 0.01848472
#
# Stress axis : x y z
#
# Youngs Moduli (GPa) = 51.36986 51.36986 53.12682
#
# Poissons Ratio (x) = 0.53717 0.24382
# Poissons Ratio (y) = 0.53717 0.24382
# Poissons Ratio (z) = 0.23576 0.23576
#
# Static dielectric constant tensor:
#      x y z
#    x 3.056250 0.000000 0.000000 
#    y 0.000000 3.056250 0.000000 
#    z 0.000000 0.000000 3.273500 
# 
# 
# High freq. dielectric constant tensor:
#      x y z
#    x 1.634330 0.000000 0.000000 
#    y 0.000000 1.634330 0.000000 
#    z 0.000000 0.000000 1.645180 
# 
# From -- ./inp_files/8170.got.cif
#   From: 2010.03.12/outbox.cif.g09.slc.cpg/sg123_5_cif.got.tgz:8170.got - 2010.04.06 16:26:55.
