data_PCOD8312937
_publ_section_title
;
Structure prediction by ZEFSAII (Michael W. Deem and Ramdas Pophale) SiO2 
 PCOD8312937
Probable space group: P 4/M M M
;
_chemical_formula_sum "Si O2"
_cell_formula_units_Z 96
_cell_length_a 24.453646
_cell_length_b 24.453646
_cell_length_c 9.168807
_cell_angle_alpha 90.000000
_cell_angle_beta 90.000000
_cell_angle_gamma 90.000000
_cell_volume 5482.770570
_symmetry_space_group_name_H-M "P 4/M M M"
_symmetry_group_IT_number 123
_symmetry_cell_setting 'tetragonal'
loop_
_space_group_symop_operation_xyz
x,y,z
-y,x,z
-x,-y,z
y,-x,z
x,-y,-z
-x,y,-z
y,x,-z
-y,-x,-z
-x,-y,-z
y,-x,-z
x,y,-z
-y,x,-z
-x,y,z
x,-y,z
-y,-x,z
y,x,z
loop_
_atom_site_type_symbol
_atom_site_label
_atom_site_fract_x
_atom_site_fract_y
_atom_site_fract_z
Si Si1 0.939646 0.803816 0.158158
Si Si2 0.349363 0.437637 0.666927
Si Si3 0.938746 0.324207 0.167614
Si Si4 0.152755 0.847246 0.668573
Si Si5 0.238090 0.238090 0.673131
Si Si6 0.563736 0.240137 0.830576
Si Si7 0.826248 0.653490 0.674108
O O1 0.941207 0.740049 0.186469
O O2 0.908200 0.833660 0.286116
O O3 0.000000 0.828507 0.161950
O O4 0.912742 0.815973 0.000000
O O5 0.330710 0.427541 0.500000
O O6 0.367415 0.500000 0.691389
O O7 0.401097 0.401097 0.709245
O O8 0.300079 0.421076 0.772200
O O9 0.888828 0.343327 0.269558
O O10 0.000000 0.347030 0.212359
O O11 0.926624 0.341026 0.000000
O O12 0.158753 0.841248 0.500000
O O13 0.195163 0.804837 0.741157
O O14 0.238368 0.238368 0.500000
O O15 0.215745 0.297736 0.726409
O O16 0.500000 0.227542 0.804997
O O17 0.597149 0.195970 0.738896
O O18 0.579647 0.236789 0.000000
O O19 0.828362 0.651407 0.500000
#
# Coordination Sequence:
#
# PCOD8312937 Si02
#       7
#    16  16  16   8   8  16  16
#     4   9  18  32  49  70  98 135 176 213 253 305
#     4   9  18  33  53  77 105 138 176 219 267 316
#     4   9  18  33  52  76 107 140 174 211 254 308
#     4  11  19  31  49  72 106 137 169 210 257 310
#     4   9  20  33  45  75 114 142 164 204 259 308
#     4  10  22  39  56  76 104 139 181 223 263 312
#     4  11  21  35  55  79 110 142 176 216 261 314
#
# _framework density 17.509395999999999
#
# number of rings (size 3 to 8) (size 9 to 14) (size 15 to 20)
#    0.000    2.333    1.667    2.250    1.167    2.167 
#    0.000    3.750    0.000    0.750    0.000    7.583 
#    0.000    0.000    0.000    0.000    0.000    0.000 
#
# Total GULP energy -1189673.363356 kJ/mol
# GULP energy per Si atom -12392.430868 kJ/mol
# Density = 1.746954 g / cm^3
# Si number density = 17.509396 Si / 1000 Ang^3
#
#
#
# Elastic Constant Matrix: (Units=GPa)
#
#
# Indices 1 2 3 4 5 6 
#
# 1 93.7410 54.7218 50.1067 0.0000 0.0000 0.0000
# 2 54.7218 93.7419 50.1073 0.0000 0.0000 0.0000
# 3 50.1067 50.1073 83.7556 0.0000 0.0000 0.0000
# 4 0.0000 0.0000 0.0000 28.8262 0.0000 0.0000
# 5 0.0000 0.0000 0.0000 0.0000 28.8261 0.0000
# 6 0.0000 0.0000 0.0000 0.0000 0.0000 -15.5537
#
#
#
# Elastic Compliance Matrix: (Units=1/GPa)
#
#
# Indices 1 2 3 4 5 6 
#
# 1 0.018463 -0.007165 -0.006759 0.000000 0.000000 0.000000
# 2 -0.007165 0.018463 -0.006759 0.000000 0.000000 0.000000
# 3 -0.006759 -0.006759 0.020027 0.000000 0.000000 0.000000
# 4 0.000000 0.000000 0.000000 0.034691 0.000000 0.000000
# 5 0.000000 0.000000 0.000000 0.000000 0.034691 0.000000
# 6 0.000000 0.000000 0.000000 0.000000 0.000000 -0.064293
#
#
# Mechanical properties :
#
#
# Convention : Reuss Voigt Hill
#
# Bulk Modulus (GPa) = 64.15778 64.56777 64.36278
# Shear Modulus (GPa) = 46.03912 16.17322 31.10617
#
# Velocity S-wave (km/s) = 5.13333 3.04252 4.21948
# Velocity P-wave (km/s) = 8.47680 7.02130 7.78315
#
# Compressibility (1/GPa) = 0.01558657
#
# Stress axis : x y z
#
# Youngs Moduli (GPa) = 54.16187 54.16207 49.93301
#
# Poissons Ratio (x) = 0.38807 0.33750
# Poissons Ratio (y) = 0.38807 0.33751
# Poissons Ratio (z) = 0.36608 0.36609
#
# Static dielectric constant tensor:
#      x y z
#    x 3.199410 0.000000 0.000000 
#    y 0.000000 3.199420 0.000000 
#    z 0.000000 0.000000 3.250000 
# 
# 
# High freq. dielectric constant tensor:
#      x y z
#    x 1.668440 0.000000 0.000000 
#    y 0.000000 1.668440 0.000000 
#    z 0.000000 0.000000 1.673570 
# 
# From -- ./inp_files/1667.got.cif
#   From: 2010.03.12/outbox.cif.g09.slc.cpg/sg123_1_cif.got.tgz:1667.got - 2010.04.06 16:26:55.
