data_PCOD8312669
_publ_section_title
;
Structure prediction by ZEFSAII (Michael W. Deem and Ramdas Pophale) SiO2 
 PCOD8312669
Probable space group: P 4/M M M
;
_chemical_formula_sum "Si O2"
_cell_formula_units_Z 72
_cell_length_a 18.588834
_cell_length_b 18.588834
_cell_length_c 11.362062
_cell_angle_alpha 90.000000
_cell_angle_beta 90.000000
_cell_angle_gamma 90.000000
_cell_volume 3926.100867
_symmetry_space_group_name_H-M "P 4/M M M"
_symmetry_group_IT_number 123
_symmetry_cell_setting 'tetragonal'
loop_
_space_group_symop_operation_xyz
x,y,z
-y,x,z
-x,-y,z
y,-x,z
x,-y,-z
-x,y,-z
y,x,-z
-y,-x,-z
-x,-y,-z
y,-x,-z
x,y,-z
-y,x,-z
-x,y,z
x,-y,z
-y,-x,z
y,x,z
loop_
_atom_site_type_symbol
_atom_site_label
_atom_site_fract_x
_atom_site_fract_y
_atom_site_fract_z
Si Si1 0.418398 0.814930 0.205981
Si Si2 0.918918 0.301599 0.865639
Si Si3 0.083489 0.916512 0.370641
Si Si4 0.295542 0.583696 0.000000
Si Si5 0.308965 0.579170 0.361953
Si Si6 0.149389 0.850612 0.865332
O O1 0.500000 0.842621 0.188952
O O2 0.367335 0.884358 0.205707
O O3 0.397945 0.754549 0.110762
O O4 0.406082 0.774190 0.329600
O O5 0.867037 0.233287 0.852008
O O6 0.000000 0.285370 0.818596
O O7 0.923045 0.326129 0.000000
O O8 0.113069 0.886932 0.500000
O O9 0.113245 0.886756 0.247659
O O10 0.000000 0.899470 0.368108
O O11 0.319738 0.500000 0.000000
O O12 0.366018 0.633983 0.000000
O O13 0.315480 0.582676 0.500000
O O14 0.331145 0.500000 0.314100
O O15 0.363234 0.636767 0.303664
O O16 0.124194 0.875807 0.000000
#
# Coordination Sequence:
#
# PCOD8312669 Si02
#       6
#    16  16   8   8  16   8
#     4  10  20  34  52  75 103 139 178 221 271 318
#     4  10  21  35  54  81 108 138 178 223 271 322
#     4   9  18  34  56  80 110 148 180 210 260 328
#     4  10  20  31  49  75 105 140 176 210 258 316
#     4   9  18  32  51  76 106 142 184 227 269 316
#     4  10  21  35  55  82 112 142 178 229 280 332
#
# _framework density 18.338804
#
# number of rings (size 3 to 8) (size 9 to 14) (size 15 to 20)
#    0.000    2.333    1.111    1.667    3.111    2.111 
#    0.000    3.889    0.000    6.000    0.000    3.111 
#    0.000    0.000    0.000    0.000    0.000    0.000 
#
# Total GULP energy -892019.342404 kJ/mol
# GULP energy per Si atom -12389.157533 kJ/mol
# Density = 1.829706 g / cm^3
# Si number density = 18.338804 Si / 1000 Ang^3
#
#
#
# Elastic Constant Matrix: (Units=GPa)
#
#
# Indices 1 2 3 4 5 6 
#
# 1 110.7979 72.1965 24.3963 0.0000 0.0000 0.0000
# 2 72.1965 110.7986 24.3961 0.0000 0.0000 0.0000
# 3 24.3963 24.3961 64.7619 0.0000 0.0000 0.0000
# 4 0.0000 0.0000 0.0000 23.2360 0.0000 0.0000
# 5 0.0000 0.0000 0.0000 0.0000 23.2360 0.0000
# 6 0.0000 0.0000 0.0000 0.0000 0.0000 38.4321
#
#
#
# Elastic Compliance Matrix: (Units=1/GPa)
#
#
# Indices 1 2 3 4 5 6 
#
# 1 0.015990 -0.009915 -0.002288 0.000000 0.000000 0.000000
# 2 -0.009915 0.015990 -0.002288 0.000000 0.000000 0.000000
# 3 -0.002288 -0.002288 0.017165 0.000000 0.000000 0.000000
# 4 0.000000 0.000000 0.000000 0.043037 0.000000 0.000000
# 5 0.000000 0.000000 0.000000 0.000000 0.043037 0.000000
# 6 0.000000 0.000000 0.000000 0.000000 0.000000 0.026020
#
#
# Mechanical properties :
#
#
# Convention : Reuss Voigt Hill
#
# Bulk Modulus (GPa) = 49.60012 58.70404 54.15208
# Shear Modulus (GPa) = 25.38796 28.00546 26.69671
#
# Velocity S-wave (km/s) = 3.72477 3.91207 3.81957
# Velocity P-wave (km/s) = 6.75306 7.24473 7.00321
#
# Compressibility (1/GPa) = 0.02016124
#
# Stress axis : x y z
#
# Youngs Moduli (GPa) = 62.53807 62.53860 58.25707
#
# Poissons Ratio (x) = 0.62009 0.13332
# Poissons Ratio (y) = 0.62009 0.13331
# Poissons Ratio (z) = 0.14312 0.14311
#
# Static dielectric constant tensor:
#      x y z
#    x 3.399650 0.000000 0.000000 
#    y 0.000000 3.399650 0.000000 
#    z 0.000000 0.000000 3.633460 
# 
# 
# High freq. dielectric constant tensor:
#      x y z
#    x 1.701930 0.000000 0.000000 
#    y 0.000000 1.701930 0.000000 
#    z 0.000000 0.000000 1.705150 
# 
# From -- ./inp_files/2764.got.cif
#   From: 2010.03.12/outbox.cif.g09.slc.cpg/sg123_2_cif.got.tgz:2764.got - 2010.04.06 16:26:55.
