data_PCOD8312693
_publ_section_title
;
Structure prediction by ZEFSAII (Michael W. Deem and Ramdas Pophale) SiO2 
 PCOD8312693
Probable space group: P 4/M M M
;
_chemical_formula_sum "Si O2"
_cell_formula_units_Z 96
_cell_length_a 24.904651
_cell_length_b 24.904651
_cell_length_c 9.311686
_cell_angle_alpha 90.000000
_cell_angle_beta 90.000000
_cell_angle_gamma 90.000000
_cell_volume 5775.495409
_symmetry_space_group_name_H-M "P 4/M M M"
_symmetry_group_IT_number 123
_symmetry_cell_setting 'tetragonal'
loop_
_space_group_symop_operation_xyz
x,y,z
-y,x,z
-x,-y,z
y,-x,z
x,-y,-z
-x,y,-z
y,x,-z
-y,-x,-z
-x,-y,-z
y,-x,-z
x,y,-z
-y,x,-z
-x,y,z
x,-y,z
-y,-x,z
y,x,z
loop_
_atom_site_type_symbol
_atom_site_label
_atom_site_fract_x
_atom_site_fract_y
_atom_site_fract_z
Si Si1 0.061502 0.851630 0.834066
Si Si2 0.562659 0.867744 0.332854
Si Si3 0.936634 0.645294 0.833960
Si Si4 0.748661 0.936163 0.662365
Si Si5 0.748292 0.563758 0.341181
Si Si6 0.561074 0.646867 0.168953
O O1 0.095519 0.904482 0.797909
O O2 0.084315 0.802659 0.739496
O O3 0.000000 0.865084 0.794995
O O4 0.066887 0.834726 0.000000
O O5 0.574646 0.879480 0.500000
O O6 0.500000 0.874597 0.300052
O O7 0.592888 0.909740 0.232921
O O8 0.582744 0.807525 0.292016
O O9 0.914590 0.697425 0.749892
O O10 0.000000 0.638862 0.814825
O O11 0.920597 0.651040 0.000000
O O12 0.746660 0.913713 0.500000
O O13 0.748222 0.000000 0.663760
O O14 0.735590 0.586154 0.500000
O O15 0.748977 0.500000 0.344510
O O16 0.701910 0.584593 0.235156
O O17 0.500000 0.635726 0.219666
O O18 0.596899 0.596899 0.221863
O O19 0.564129 0.653848 0.000000
#
# Coordination Sequence:
#
# PCOD8312693 Si02
#       6
#    16  16  16  16  16  16
#     4   9  17  29  46  69  97 127 157 190 229 273
#     4   9  18  32  49  69  93 121 152 186 226 272
#     4  10  20  32  47  69  96 123 151 186 228 272
#     4   9  17  30  48  67  88 119 159 196 228 268
#     4   8  15  29  47  65  86 115 152 189 222 260
#     4   9  17  28  43  65  92 121 152 185 222 265
#
# _framework density 16.621950999999999
#
# number of rings (size 3 to 8) (size 9 to 14) (size 15 to 20)
#    0.000    3.000    0.000    2.000    0.000    5.333 
#    0.000    5.000    0.000    1.000    0.000    9.333 
#    0.000    0.000    0.000    0.000    0.000    0.000 
#
# Total GULP energy -1190152.719553 kJ/mol
# GULP energy per Si atom -12397.424162 kJ/mol
# Density = 1.658412 g / cm^3
# Si number density = 16.621951 Si / 1000 Ang^3
#
#
#
# Elastic Constant Matrix: (Units=GPa)
#
#
# Indices 1 2 3 4 5 6 
#
# 1 77.6958 47.6309 53.9858 0.0000 0.0000 0.0000
# 2 47.6309 77.6958 53.9858 0.0000 0.0000 0.0000
# 3 53.9858 53.9858 93.5962 0.0000 0.0000 0.0000
# 4 0.0000 0.0000 0.0000 27.4576 0.0000 0.0000
# 5 0.0000 0.0000 0.0000 0.0000 27.4576 0.0000
# 6 0.0000 0.0000 0.0000 0.0000 0.0000 4.4772
#
#
#
# Elastic Compliance Matrix: (Units=1/GPa)
#
#
# Indices 1 2 3 4 5 6 
#
# 1 0.024561 -0.008700 -0.009148 0.000000 0.000000 0.000000
# 2 -0.008700 0.024561 -0.009148 0.000000 0.000000 0.000000
# 3 -0.009148 -0.009148 0.021238 0.000000 0.000000 0.000000
# 4 0.000000 0.000000 0.000000 0.036420 0.000000 0.000000
# 5 0.000000 0.000000 0.000000 0.000000 0.036420 0.000000
# 6 0.000000 0.000000 0.000000 0.000000 0.000000 0.223354
#
#
# Mechanical properties :
#
#
# Convention : Reuss Voigt Hill
#
# Bulk Modulus (GPa) = 61.10395 62.24363 61.67379
# Shear Modulus (GPa) = 11.73703 18.10417 14.92060
#
# Velocity S-wave (km/s) = 2.66017 3.30384 2.99932
# Velocity P-wave (km/s) = 6.80266 7.21677 7.01277
#
# Compressibility (1/GPa) = 0.01636555
#
# Stress axis : x y z
#
# Youngs Moduli (GPa) = 40.71498 40.71498 47.08638
#
# Poissons Ratio (x) = 0.35424 0.43076
# Poissons Ratio (y) = 0.35424 0.43076
# Poissons Ratio (z) = 0.37247 0.37247
#
# Static dielectric constant tensor:
#      x y z
#    x 3.060920 0.000000 0.000000 
#    y 0.000000 3.060920 0.000000 
#    z 0.000000 0.000000 3.243290 
# 
# 
# High freq. dielectric constant tensor:
#      x y z
#    x 1.622570 0.000000 0.000000 
#    y 0.000000 1.622570 0.000000 
#    z 0.000000 0.000000 1.644310 
# 
# From -- ./inp_files/1627.got.cif
#   From: 2010.03.12/outbox.cif.g09.slc.cpg/sg123_1_cif.got.tgz:1627.got - 2010.04.06 16:26:55.
