data_PCOD8312713
_publ_section_title
;
Structure prediction by ZEFSAII (Michael W. Deem and Ramdas Pophale) SiO2 
 PCOD8312713
Probable space group: P 4/M M M
;
_chemical_formula_sum "Si O2"
_cell_formula_units_Z 104
_cell_length_a 26.346898
_cell_length_b 26.346898
_cell_length_c 8.841689
_cell_angle_alpha 90.000000
_cell_angle_beta 90.000000
_cell_angle_gamma 90.000000
_cell_volume 6137.538297
_symmetry_space_group_name_H-M "P 4/M M M"
_symmetry_group_IT_number 123
_symmetry_cell_setting 'tetragonal'
loop_
_space_group_symop_operation_xyz
x,y,z
-y,x,z
-x,-y,z
y,-x,z
x,-y,-z
-x,y,-z
y,x,-z
-y,-x,-z
-x,-y,-z
y,-x,-z
x,y,-z
-y,x,-z
-x,y,z
x,-y,z
-y,-x,z
y,x,z
loop_
_atom_site_type_symbol
_atom_site_label
_atom_site_fract_x
_atom_site_fract_y
_atom_site_fract_z
Si Si1 0.554355 0.000000 0.178036
Si Si2 0.442514 0.255939 0.677438
Si Si3 0.944938 0.262333 0.677516
Si Si4 0.364364 0.923595 0.828305
Si Si5 0.191736 0.646423 0.827789
Si Si6 0.166955 0.248588 0.679250
Si Si7 0.557163 0.361152 0.827200
O O1 0.584210 0.949742 0.227499
O O2 0.500000 0.000000 0.260891
O O3 0.546636 0.000000 0.000000
O O4 0.437962 0.248033 0.500000
O O5 0.500000 0.240226 0.732018
O O6 0.397313 0.225052 0.753816
O O7 0.432630 0.314214 0.717501
O O8 0.945195 0.254648 0.500000
O O9 0.943307 0.321323 0.716504
O O10 0.891334 0.239057 0.740918
O O11 0.000000 0.240104 0.739519
O O12 0.374957 0.864564 0.816712
O O13 0.349530 0.939379 0.000000
O O14 0.193753 0.701309 0.746811
O O15 0.209519 0.654578 0.000000
O O16 0.166168 0.255898 0.500000
O O17 0.199593 0.199593 0.727914
O O18 0.500000 0.381424 0.809218
O O19 0.593683 0.406318 0.775882
O O20 0.567667 0.344145 0.000000
#
# Coordination Sequence:
#
# PCOD8312713 Si02
#       7
#     8  16  16  16  16  16  16
#     4   9  16  26  41  61  85 111 141 181 224 265
#     4  10  21  36  52  69  91 122 159 196 233 277
#     4   9  16  27  46  68  89 117 152 191 233 275
#     4   9  17  29  45  64  86 114 150 188 226 275
#     4  10  20  32  49  71  92 121 158 196 239 282
#     4   9  18  32  48  68  97 129 159 194 237 286
#     4   9  18  33  53  76  99 120 143 176 220 271
#
# _framework density 16.944904999999999
#
# number of rings (size 3 to 8) (size 9 to 14) (size 15 to 20)
#    0.000    2.692    0.769    0.923    0.000    3.538 
#    0.000    2.308    0.000    0.923    0.000    2.154 
#    0.000    0.308    0.000    4.308    0.000    0.000 
#
# Total GULP energy -1288405.601343 kJ/mol
# GULP energy per Si atom -12388.515398 kJ/mol
# Density = 1.690634 g / cm^3
# Si number density = 16.944905 Si / 1000 Ang^3
#
#
#
# Elastic Constant Matrix: (Units=GPa)
#
#
# Indices 1 2 3 4 5 6 
#
# 1 114.3656 76.1074 25.3523 0.0000 0.0000 0.0000
# 2 76.1074 114.3656 25.3523 0.0000 0.0000 0.0000
# 3 25.3523 25.3523 33.2633 0.0000 0.0000 0.0000
# 4 0.0000 0.0000 0.0000 17.2664 0.0000 0.0000
# 5 0.0000 0.0000 0.0000 0.0000 17.2664 0.0000
# 6 0.0000 0.0000 0.0000 0.0000 0.0000 -104.6363
#
#
#
# Elastic Compliance Matrix: (Units=1/GPa)
#
#
# Indices 1 2 3 4 5 6 
#
# 1 0.016362 -0.009776 -0.005020 0.000000 0.000000 0.000000
# 2 -0.009776 0.016362 -0.005020 0.000000 0.000000 0.000000
# 3 -0.005020 -0.005020 0.037715 0.000000 0.000000 0.000000
# 4 0.000000 0.000000 0.000000 0.057916 0.000000 0.000000
# 5 0.000000 0.000000 0.000000 0.000000 0.057916 0.000000
# 6 0.000000 0.000000 0.000000 0.000000 0.000000 -0.009557
#
#
# Mechanical properties :
#
#
# Convention : Reuss Voigt Hill
#
# Bulk Modulus (GPa) = 32.45886 57.29096 44.87491
# Shear Modulus (GPa) = 22.06378 -5.00851 8.52764
#
# Velocity S-wave (km/s) = 3.61236 -1.72110 2.24577
# Velocity P-wave (km/s) = 6.04946 5.47119 5.76758
#
# Compressibility (1/GPa) = 0.03080823
#
# Stress axis : x y z
#
# Youngs Moduli (GPa) = 61.11618 61.11618 26.51444
#
# Poissons Ratio (x) = 0.59746 0.13310
# Poissons Ratio (y) = 0.59746 0.13310
# Poissons Ratio (z) = 0.30680 0.30680
#
# Static dielectric constant tensor:
#      x y z
#    x 3.352190 0.000000 0.000000 
#    y 0.000000 3.352190 0.000000 
#    z 0.000000 0.000000 3.125210 
# 
# 
# High freq. dielectric constant tensor:
#      x y z
#    x 1.646010 0.000000 0.000000 
#    y 0.000000 1.646010 0.000000 
#    z 0.000000 0.000000 1.643130 
# 
# From -- ./inp_files/1951.got.cif
#   From: 2010.03.12/outbox.cif.g09.slc.cpg/sg123_1_cif.got.tgz:1951.got - 2010.04.06 16:26:55.
