data_PCOD8312062
_publ_section_title
;
Structure prediction by ZEFSAII (Michael W. Deem and Ramdas Pophale) SiO2 
 PCOD8312062
Probable space group: I -4 2 D
;
_chemical_formula_sum "Si O2"
_cell_formula_units_Z 112
_cell_length_a 14.464801
_cell_length_b 14.464801
_cell_length_c 23.836347
_cell_angle_alpha 90.000000
_cell_angle_beta 90.000000
_cell_angle_gamma 90.000000
_cell_volume 4987.290037
_symmetry_space_group_name_H-M "I -4 2 D"
_symmetry_group_IT_number 122
_symmetry_cell_setting 'tetragonal'
loop_
_space_group_symop_operation_xyz
x,y,z
y,-x,-z
-x,-y,z
-y,x,-z
x,1/2-y,1/4-z
-x,1/2+y,1/4-z
-y,1/2-x,1/4+z
y,1/2+x,1/4+z
1/2+x,1/2+y,1/2+z
1/2+y,1/2-x,1/2-z
1/2-x,1/2-y,1/2+z
1/2-y,1/2+x,1/2-z
1/2+x,-y,3/4-z
1/2-x,y,3/4-z
1/2-y,-x,3/4+z
1/2+y,x,3/4+z
loop_
_atom_site_type_symbol
_atom_site_label
_atom_site_fract_x
_atom_site_fract_y
_atom_site_fract_z
Si Si1 0.947158 0.872772 0.523645
Si Si2 0.656621 0.809854 0.011492
Si Si3 0.346292 0.096510 0.895175
Si Si4 0.394501 0.903938 0.872196
Si Si5 0.409366 0.052839 0.105541
Si Si6 0.139565 0.258439 0.034129
Si Si7 0.736614 0.448250 0.584203
O O1 0.920626 0.769284 0.506560
O O2 0.932340 0.891262 0.588891
O O3 0.055770 0.886576 0.512618
O O4 0.635197 0.872159 0.064894
O O5 0.755733 0.761140 0.015811
O O6 0.650728 0.880419 0.960453
O O7 0.250000 0.053070 0.875000
O O8 0.356463 0.192468 0.860696
O O9 0.418847 0.013051 0.882608
O O10 0.355286 0.862902 0.931465
O O11 0.320677 0.898988 0.823094
O O12 0.479443 0.844891 0.848910
O O13 0.500000 0.000000 0.081992
O O14 0.330419 0.975840 0.116258
O O15 0.069749 0.260055 0.980935
#
# Coordination Sequence:
#
# PCOD8312062 Si02
#       7
#    16  16  16  16  16  16  16
#     4  11  24  49  77 104 145 195 250 312 383 462
#     4  12  26  46  77 107 152 192 251 318 385 456
#     4  12  25  46  65 108 153 194 243 308 373 456
#     4  11  25  44  72 105 149 194 253 302 370 460
#     4  12  26  46  74 113 148 190 257 318 379 459
#     4  11  24  44  73 106 149 198 248 307 380 460
#     4  12  26  45  76 105 146 198 250 306 387 449
#
# _framework density 22.457086
#
# number of rings (size 3 to 8) (size 9 to 14) (size 15 to 20)
#    0.000    0.429    5.714    3.429    4.000    3.429 
#    0.000    0.000    0.000    0.000    0.000    0.000 
#    0.000    0.000    0.000    0.000    0.000    0.000 
#
# Total GULP energy -694229.803937 kJ/mol
# GULP energy per Si atom -12396.960785 kJ/mol
# Density = 2.240597 g / cm^3
# Si number density = 22.457086 Si / 1000 Ang^3
#
#
#
# Elastic Constant Matrix: (Units=GPa)
#
#
# Indices 1 2 3 4 5 6 
#
# 1 89.3438 24.3585 11.7893 0.0000 0.0000 0.0000
# 2 24.3585 89.3437 11.7893 0.0000 0.0000 0.0000
# 3 11.7893 11.7893 115.9475 0.0000 0.0000 0.0000
# 4 0.0000 0.0000 0.0000 18.9281 0.0000 0.0000
# 5 0.0000 0.0000 0.0000 0.0000 18.9281 0.0000
# 6 0.0000 0.0000 0.0000 0.0000 0.0000 33.1070
#
#
#
# Elastic Compliance Matrix: (Units=1/GPa)
#
#
# Indices 1 2 3 4 5 6 
#
# 1 0.012186 -0.003202 -0.000914 0.000000 0.000000 0.000000
# 2 -0.003202 0.012186 -0.000914 0.000000 0.000000 0.000000
# 3 -0.000914 -0.000914 0.008810 0.000000 0.000000 0.000000
# 4 0.000000 0.000000 0.000000 0.052831 0.000000 0.000000
# 5 0.000000 0.000000 0.000000 0.000000 0.052831 0.000000
# 6 0.000000 0.000000 0.000000 0.000000 0.000000 0.030205
#
#
# Mechanical properties :
#
#
# Convention : Reuss Voigt Hill
#
# Bulk Modulus (GPa) = 43.24323 43.38989 43.31656
# Shear Modulus (GPa) = 26.76419 30.63918 28.70169
#
# Velocity S-wave (km/s) = 3.45598 3.69771 3.57889
# Velocity P-wave (km/s) = 5.93488 6.13139 6.03393
#
# Compressibility (1/GPa) = 0.02312501
#
# Stress axis : x y z
#
# Youngs Moduli (GPa) = 82.05990 82.05990 113.50275
#
# Poissons Ratio (x) = 0.26275 0.10369
# Poissons Ratio (y) = 0.26275 0.10369
# Poissons Ratio (z) = 0.07496 0.07496
#
# Static dielectric constant tensor:
#      x y z
#    x 5.763450 0.000000 0.000000 
#    y 0.000000 5.763450 0.000000 
#    z 0.000000 0.000000 4.150380 
# 
# 
# High freq. dielectric constant tensor:
#      x y z
#    x 1.894660 0.000000 0.000000 
#    y 0.000000 1.894660 0.000000 
#    z 0.000000 0.000000 1.890780 
# 
# From -- ./inp_files/8134.got.cif
#   From: 2010.03.12/outbox.cif.g09.slc.cpg/sg122_5_cif.got.tgz:8134.got - 2010.04.06 16:17:16.
