data_PCOD8312911
_publ_section_title
;
Structure prediction by ZEFSAII (Michael W. Deem and Ramdas Pophale) SiO2 
 PCOD8312911
Probable space group: P 4/M M M
;
_chemical_formula_sum "Si O2"
_cell_formula_units_Z 64
_cell_length_a 20.039754
_cell_length_b 20.039754
_cell_length_c 7.935715
_cell_angle_alpha 90.000000
_cell_angle_beta 90.000000
_cell_angle_gamma 90.000000
_cell_volume 3186.917598
_symmetry_space_group_name_H-M "P 4/M M M"
_symmetry_group_IT_number 123
_symmetry_cell_setting 'tetragonal'
loop_
_space_group_symop_operation_xyz
x,y,z
-y,x,z
-x,-y,z
y,-x,z
x,-y,-z
-x,y,-z
y,x,-z
-y,-x,-z
-x,-y,-z
y,-x,-z
x,y,-z
-y,x,-z
-x,y,z
x,-y,z
-y,-x,z
y,x,z
loop_
_atom_site_type_symbol
_atom_site_label
_atom_site_fract_x
_atom_site_fract_y
_atom_site_fract_z
Si Si1 0.000000 0.424412 0.300031
Si Si2 0.314756 0.425954 0.500000
Si Si3 0.884393 0.672453 0.306009
Si Si4 0.924518 0.183391 0.803061
Si Si5 0.364329 0.254972 0.186653
O O1 0.064003 0.383002 0.237416
O O2 0.000000 0.500000 0.225355
O O3 0.000000 0.427185 0.500000
O O4 0.344187 0.500000 0.500000
O O5 0.377257 0.377257 0.500000
O O6 0.269466 0.418024 0.667451
O O7 0.866562 0.659064 0.500000
O O8 0.912644 0.746978 0.290880
O O9 0.819461 0.663435 0.193397
O O10 0.873369 0.126631 0.736637
O O11 0.000000 0.159113 0.764603
O O12 0.913912 0.195706 0.000000
O O13 0.301207 0.301207 0.220050
O O14 0.395258 0.267653 0.000000
#
# Coordination Sequence:
#
# PCOD8312911 Si02
#       5
#     8   8  16  16  16
#     4   9  20  36  53  77 112 152 190 232 288 357
#     4  10  22  41  64  93 127 161 200 246 298 358
#     4  11  20  35  58  85 114 151 195 245 300 363
#     4  10  21  36  55  79 110 151 199 253 309 366
#     4  10  21  38  61  89 121 157 198 247 299 350
#
# _framework density 20.082101000000002
#
# number of rings (size 3 to 8) (size 9 to 14) (size 15 to 20)
#    0.000    1.875    2.500    1.500    0.000    5.375 
#    0.000    1.250    0.000    5.250    0.000    5.250 
#    0.000    0.000    0.000    0.000    0.000    0.000 
#
# Total GULP energy -793591.793364 kJ/mol
# GULP energy per Si atom -12399.871771 kJ/mol
# Density = 2.003639 g / cm^3
# Si number density = 20.082101 Si / 1000 Ang^3
#
#
#
# Elastic Constant Matrix: (Units=GPa)
#
#
# Indices 1 2 3 4 5 6 
#
# 1 127.3531 42.8267 33.7936 0.0000 0.0000 0.0000
# 2 42.8267 127.3531 33.7936 0.0000 0.0000 0.0000
# 3 33.7936 33.7936 93.8824 0.0000 0.0000 0.0000
# 4 0.0000 0.0000 0.0000 13.4096 0.0000 0.0000
# 5 0.0000 0.0000 0.0000 0.0000 13.4096 0.0000
# 6 0.0000 0.0000 0.0000 0.0000 0.0000 10.7037
#
#
#
# Elastic Compliance Matrix: (Units=1/GPa)
#
#
# Indices 1 2 3 4 5 6 
#
# 1 0.009343 -0.002487 -0.002468 0.000000 0.000000 0.000000
# 2 -0.002487 0.009343 -0.002468 0.000000 0.000000 0.000000
# 3 -0.002468 -0.002468 0.012428 0.000000 0.000000 0.000000
# 4 0.000000 0.000000 0.000000 0.074573 0.000000 0.000000
# 5 0.000000 0.000000 0.000000 0.000000 0.074573 0.000000
# 6 0.000000 0.000000 0.000000 0.000000 0.000000 0.093425
#
#
# Mechanical properties :
#
#
# Convention : Reuss Voigt Hill
#
# Bulk Modulus (GPa) = 61.46634 63.26847 62.36741
# Shear Modulus (GPa) = 17.00931 23.38291 20.19611
#
# Velocity S-wave (km/s) = 2.91346 3.41598 3.17468
# Velocity P-wave (km/s) = 6.48010 6.86527 6.67546
#
# Compressibility (1/GPa) = 0.01626907
#
# Stress axis : x y z
#
# Youngs Moduli (GPa) = 107.02674 107.02674 80.46128
#
# Poissons Ratio (x) = 0.26619 0.19858
# Poissons Ratio (y) = 0.26619 0.19858
# Poissons Ratio (z) = 0.26414 0.26414
#
# Static dielectric constant tensor:
#      x y z
#    x 3.621350 0.000000 0.000000 
#    y 0.000000 3.621350 0.000000 
#    z 0.000000 0.000000 3.685730 
# 
# 
# High freq. dielectric constant tensor:
#      x y z
#    x 1.778570 0.000000 0.000000 
#    y 0.000000 1.778570 0.000000 
#    z 0.000000 0.000000 1.781740 
# 
# From -- ./inp_files/934.got.cif
#   From: 2010.03.12/outbox.cif.g09.slc.cpg/sg123_1_cif.got.tgz:934.got - 2010.04.06 16:26:55.
