data_PCOD8312470
_publ_section_title
;
Structure prediction by ZEFSAII (Michael W. Deem and Ramdas Pophale) SiO2 
 PCOD8312470
Probable space group: P 4/M M M
;
_chemical_formula_sum "Si O2"
_cell_formula_units_Z 76
_cell_length_a 12.305746
_cell_length_b 12.305746
_cell_length_c 30.049211
_cell_angle_alpha 90.000000
_cell_angle_beta 90.000000
_cell_angle_gamma 90.000000
_cell_volume 4550.393628
_symmetry_space_group_name_H-M "P 4/M M M"
_symmetry_group_IT_number 123
_symmetry_cell_setting 'tetragonal'
loop_
_space_group_symop_operation_xyz
x,y,z
-y,x,z
-x,-y,z
y,-x,z
x,-y,-z
-x,y,-z
y,x,-z
-y,-x,-z
-x,-y,-z
y,-x,-z
x,y,-z
-y,x,-z
-x,y,z
x,-y,z
-y,-x,z
y,x,z
loop_
_atom_site_type_symbol
_atom_site_label
_atom_site_fract_x
_atom_site_fract_y
_atom_site_fract_z
Si Si1 0.813493 0.000000 0.500000
Si Si2 0.000000 0.623791 0.426960
Si Si3 0.793902 0.375519 0.177202
Si Si4 0.000000 0.623676 0.115890
Si Si5 0.628504 0.119442 0.271391
Si Si6 0.175529 0.000000 0.052254
Si Si7 0.792787 0.376738 0.634834
O O1 0.728017 0.000000 0.540677
O O2 0.891983 0.108018 0.500000
O O3 0.104022 0.635745 0.396267
O O4 0.000000 0.500000 0.448704
O O5 0.757219 0.500000 0.176577
O O6 0.694486 0.305515 0.158067
O O7 0.817840 0.335026 0.227224
O O8 0.896806 0.355129 0.146466
O O9 0.000000 0.500000 0.097167
O O10 0.000000 0.707471 0.075364
O O11 0.500000 0.106029 0.271712
O O12 0.666116 0.181436 0.315609
O O13 0.682380 0.000000 0.271109
O O14 0.106959 0.106959 0.065968
O O15 0.197373 0.000000 0.000000
O O16 0.751061 0.500000 0.635973
O O17 0.696165 0.303836 0.614948
#
# Coordination Sequence:
#
# PCOD8312470 Si02
#       7
#     4   8  16   8  16   8  16
#     4  11  23  38  56  78 103 125 150 196 250 285
#     4  10  20  36  56  76  97 127 164 193 227 285
#     4  10  19  30  46  68  95 127 162 199 237 277
#     4  10  19  31  48  70  95 124 160 195 231 280
#     4   9  15  28  46  66  92 124 164 199 229 269
#     4   9  18  33  52  72  94 120 150 190 243 294
#     4  10  19  31  50  74  99 128 161 197 236 278
#
# _framework density 16.701851999999999
#
# number of rings (size 3 to 8) (size 9 to 14) (size 15 to 20)
#    0.000    2.263    2.105    2.368    0.000    0.632 
#    0.000    0.000    0.000    3.789    0.000    1.474 
#    0.000    7.579    0.000   19.579    0.000    0.000 
#
# Total GULP energy -941878.511969 kJ/mol
# GULP energy per Si atom -12393.138315 kJ/mol
# Density = 1.666384 g / cm^3
# Si number density = 16.701852 Si / 1000 Ang^3
#
#
#
# Elastic Constant Matrix: (Units=GPa)
#
#
# Indices 1 2 3 4 5 6 
#
# 1 113.4393 74.8426 43.2248 0.0000 0.0000 0.0000
# 2 74.8426 113.4391 43.2247 0.0000 0.0000 0.0000
# 3 43.2248 43.2247 76.1204 0.0000 0.0000 0.0000
# 4 0.0000 0.0000 0.0000 15.9197 0.0000 0.0000
# 5 0.0000 0.0000 0.0000 0.0000 15.9194 0.0000
# 6 0.0000 0.0000 0.0000 0.0000 0.0000 -22.8186
#
#
#
# Elastic Compliance Matrix: (Units=1/GPa)
#
#
# Indices 1 2 3 4 5 6 
#
# 1 0.016547 -0.009362 -0.004080 0.000000 0.000000 0.000000
# 2 -0.009362 0.016547 -0.004080 0.000000 0.000000 0.000000
# 3 -0.004080 -0.004080 0.017770 0.000000 0.000000 0.000000
# 4 0.000000 0.000000 0.000000 0.062815 0.000000 0.000000
# 5 0.000000 0.000000 0.000000 0.000000 0.062816 0.000000
# 6 0.000000 0.000000 0.000000 0.000000 0.000000 -0.043824
#
#
# Mechanical properties :
#
#
# Convention : Reuss Voigt Hill
#
# Bulk Modulus (GPa) = 63.20902 69.50920 66.35911
# Shear Modulus (GPa) = 28.90371 11.25120 20.07745
#
# Velocity S-wave (km/s) = 4.16452 2.59829 3.47091
# Velocity P-wave (km/s) = 7.81358 7.12106 7.47534
#
# Compressibility (1/GPa) = 0.01582053
#
# Stress axis : x y z
#
# Youngs Moduli (GPa) = 60.43513 60.43500 56.27376
#
# Poissons Ratio (x) = 0.56581 0.22957
# Poissons Ratio (y) = 0.56581 0.22957
# Poissons Ratio (z) = 0.24655 0.24655
#
# Static dielectric constant tensor:
#      x y z
#    x 3.101150 0.000000 0.000000 
#    y 0.000000 3.101150 0.000000 
#    z 0.000000 0.000000 3.051390 
# 
# 
# High freq. dielectric constant tensor:
#      x y z
#    x 1.641350 0.000000 0.000000 
#    y 0.000000 1.641350 0.000000 
#    z 0.000000 0.000000 1.632100 
# 
# From -- ./inp_files/8430.got.cif
#   From: 2010.03.12/outbox.cif.g09.slc.cpg/sg123_5_cif.got.tgz:8430.got - 2010.04.06 16:26:55.
