data_PCOD8312965
_publ_section_title
;
Structure prediction by ZEFSAII (Michael W. Deem and Ramdas Pophale) SiO2 
 PCOD8312965
Probable space group: P 4/M M M
;
_chemical_formula_sum "Si O2"
_cell_formula_units_Z 88
_cell_length_a 14.797123
_cell_length_b 14.797123
_cell_length_c 27.650172
_cell_angle_alpha 90.000000
_cell_angle_beta 90.000000
_cell_angle_gamma 90.000000
_cell_volume 6054.139237
_symmetry_space_group_name_H-M "P 4/M M M"
_symmetry_group_IT_number 123
_symmetry_cell_setting 'tetragonal'
loop_
_space_group_symop_operation_xyz
x,y,z
-y,x,z
-x,-y,z
y,-x,z
x,-y,-z
-x,y,-z
y,x,-z
-y,-x,-z
-x,-y,-z
y,-x,-z
x,y,-z
-y,x,-z
-x,y,z
x,-y,z
-y,-x,z
y,x,z
loop_
_atom_site_type_symbol
_atom_site_label
_atom_site_fract_x
_atom_site_fract_y
_atom_site_fract_z
Si Si1 0.606979 0.901460 0.500000
Si Si2 0.396589 0.896593 0.866804
Si Si3 0.250462 0.603409 0.055406
Si Si4 0.103212 0.249898 0.211239
Si Si5 0.104148 0.249731 0.678034
Si Si6 0.399043 0.891852 0.603841
O O1 0.500000 0.913641 0.500000
O O2 0.633249 0.852647 0.449078
O O3 0.653711 0.000000 0.500000
O O4 0.500000 0.880392 0.851069
O O5 0.369545 0.835613 0.912487
O O6 0.335501 0.869548 0.821162
O O7 0.380402 0.000000 0.882515
O O8 0.279630 0.500000 0.064207
O O9 0.335673 0.664328 0.070304
O O10 0.221968 0.619776 0.000000
O O11 0.164759 0.164759 0.197128
O O12 0.117672 0.279920 0.266583
O O13 0.000000 0.220054 0.202083
O O14 0.158931 0.158931 0.666399
O O15 0.142349 0.330902 0.645032
O O16 0.000000 0.228368 0.666395
O O17 0.500000 0.856781 0.616579
O O18 0.400012 0.000000 0.601162
#
# Coordination Sequence:
#
# PCOD8312965 Si02
#       6
#     8  16  16  16  16  16
#     4   7  10  18  33  52  71  91 117 149 187 227
#     4   9  17  28  42  60  80 101 125 155 194 236
#     4   9  17  28  42  60  81 105 131 157 185 219
#     4   9  17  28  41  56  75 100 129 161 193 224
#     4   9  17  27  38  54  76 102 131 159 187 222
#     4   8  13  22  37  55  73  93 119 154 193 227
#
# _framework density 14.535508999999999
#
# number of rings (size 3 to 8) (size 9 to 14) (size 15 to 20)
#    0.000    3.364    0.000    1.636    0.000    1.636 
#    0.000    8.636    0.000    0.000    0.000    0.000 
#    0.000    4.000    0.000   20.909    0.000    6.000 
#
# Total GULP energy -1090555.200259 kJ/mol
# GULP energy per Si atom -12392.672730 kJ/mol
# Density = 1.450243 g / cm^3
# Si number density = 14.535509 Si / 1000 Ang^3
#
#
#
# Elastic Constant Matrix: (Units=GPa)
#
#
# Indices 1 2 3 4 5 6 
#
# 1 70.7457 46.8420 59.0207 0.0000 0.0000 0.0000
# 2 46.8420 70.7457 59.0207 0.0000 0.0000 0.0000
# 3 59.0207 59.0207 100.3708 0.0000 0.0000 0.0000
# 4 0.0000 0.0000 0.0000 19.3416 0.0000 0.0000
# 5 0.0000 0.0000 0.0000 0.0000 19.3416 0.0000
# 6 0.0000 0.0000 0.0000 0.0000 0.0000 16.0624
#
#
#
# Elastic Compliance Matrix: (Units=1/GPa)
#
#
# Indices 1 2 3 4 5 6 
#
# 1 0.031296 -0.010539 -0.012206 0.000000 0.000000 0.000000
# 2 -0.010539 0.031296 -0.012206 0.000000 0.000000 0.000000
# 3 -0.012206 -0.012206 0.024318 0.000000 0.000000 0.000000
# 4 0.000000 0.000000 0.000000 0.051702 0.000000 0.000000
# 5 0.000000 0.000000 0.000000 0.000000 0.051702 0.000000
# 6 0.000000 0.000000 0.000000 0.000000 0.000000 0.062257
#
#
# Mechanical properties :
#
#
# Convention : Reuss Voigt Hill
#
# Bulk Modulus (GPa) = 58.79261 63.51435 61.15348
# Shear Modulus (GPa) = 15.23737 16.08105 15.65921
#
# Velocity S-wave (km/s) = 3.24124 3.32976 3.28580
# Velocity P-wave (km/s) = 7.38532 7.65336 7.52053
#
# Compressibility (1/GPa) = 0.01700894
#
# Stress axis : x y z
#
# Youngs Moduli (GPa) = 31.95311 31.95311 41.12240
#
# Poissons Ratio (x) = 0.33675 0.50193
# Poissons Ratio (y) = 0.33675 0.50193
# Poissons Ratio (z) = 0.39001 0.39001
#
# Static dielectric constant tensor:
#      x y z
#    x 2.704310 0.000000 0.000000 
#    y 0.000000 2.704310 0.000000 
#    z 0.000000 0.000000 3.063870 
# 
# 
# High freq. dielectric constant tensor:
#      x y z
#    x 1.533560 0.000000 0.000000 
#    y 0.000000 1.533560 0.000000 
#    z 0.000000 0.000000 1.564960 
# 
# From -- ./inp_files/8009.got.cif
#   From: 2010.03.12/outbox.cif.g09.slc.cpg/sg123_5_cif.got.tgz:8009.got - 2010.04.06 16:26:55.
