data_PCOD8312811
_publ_section_title
;
Structure prediction by ZEFSAII (Michael W. Deem and Ramdas Pophale) SiO2 
 PCOD8312811
Probable space group: P 4/M M M
;
_chemical_formula_sum "Si O2"
_cell_formula_units_Z 56
_cell_length_a 12.681302
_cell_length_b 12.681302
_cell_length_c 19.447719
_cell_angle_alpha 90.000000
_cell_angle_beta 90.000000
_cell_angle_gamma 90.000000
_cell_volume 3127.493107
_symmetry_space_group_name_H-M "P 4/M M M"
_symmetry_group_IT_number 123
_symmetry_cell_setting 'tetragonal'
loop_
_space_group_symop_operation_xyz
x,y,z
-y,x,z
-x,-y,z
y,-x,z
x,-y,-z
-x,y,-z
y,x,-z
-y,-x,-z
-x,-y,-z
y,-x,-z
x,y,-z
-y,x,-z
-x,y,z
x,-y,z
-y,-x,z
y,x,z
loop_
_atom_site_type_symbol
_atom_site_label
_atom_site_fract_x
_atom_site_fract_y
_atom_site_fract_z
Si Si1 0.620932 0.208543 0.423171
Si Si2 0.288704 0.119630 0.292750
Si Si3 0.206082 0.622183 0.158716
Si Si4 0.625130 0.000000 0.077542
O O1 0.641590 0.163304 0.500000
O O2 0.500000 0.237141 0.412167
O O3 0.683303 0.316698 0.410487
O O4 0.658103 0.122142 0.368023
O O5 0.174673 0.174673 0.293755
O O6 0.365464 0.178195 0.239083
O O7 0.271803 0.000000 0.270084
O O8 0.232293 0.500000 0.143083
O O9 0.307843 0.692158 0.138570
O O10 0.106106 0.664687 0.115138
O O11 0.500000 0.000000 0.079083
O O12 0.669298 0.000000 0.000000
#
# Coordination Sequence:
#
# PCOD8312811 Si02
#       4
#    16  16  16   8
#     4   9  18  31  47  70  99 131 168 209 254 305
#     4  10  20  34  52  73  99 132 171 216 262 309
#     4  10  20  34  54  81 110 141 176 215 262 314
#     4   9  18  34  56  79 104 138 178 214 249 301
#
# _framework density 17.905716000000002
#
# number of rings (size 3 to 8) (size 9 to 14) (size 15 to 20)
#    0.000    2.429    1.429    0.857    0.000    3.714 
#    0.000    2.857    0.000    5.571    0.000    9.000 
#    0.000    0.000    0.000    0.000    0.000    0.000 
#
# Total GULP energy -694355.905610 kJ/mol
# GULP energy per Si atom -12399.212600 kJ/mol
# Density = 1.786496 g / cm^3
# Si number density = 17.905716 Si / 1000 Ang^3
#
#
#
# Elastic Constant Matrix: (Units=GPa)
#
#
# Indices 1 2 3 4 5 6 
#
# 1 97.4806 49.3343 32.7922 0.0000 0.0000 0.0000
# 2 49.3343 97.4806 32.7922 0.0000 0.0000 0.0000
# 3 32.7922 32.7922 94.2864 0.0000 0.0000 0.0000
# 4 0.0000 0.0000 0.0000 22.1387 0.0000 0.0000
# 5 0.0000 0.0000 0.0000 0.0000 22.1387 0.0000
# 6 0.0000 0.0000 0.0000 0.0000 0.0000 16.4968
#
#
#
# Elastic Compliance Matrix: (Units=1/GPa)
#
#
# Indices 1 2 3 4 5 6 
#
# 1 0.014417 -0.006353 -0.002805 0.000000 0.000000 0.000000
# 2 -0.006353 0.014417 -0.002805 0.000000 0.000000 0.000000
# 3 -0.002805 -0.002805 0.012557 0.000000 0.000000 0.000000
# 4 0.000000 0.000000 0.000000 0.045170 0.000000 0.000000
# 5 0.000000 0.000000 0.000000 0.000000 0.045170 0.000000
# 6 0.000000 0.000000 0.000000 0.000000 0.000000 0.060618
#
#
# Mechanical properties :
#
#
# Convention : Reuss Voigt Hill
#
# Bulk Modulus (GPa) = 57.25225 57.67611 57.46418
# Shear Modulus (GPa) = 22.51289 23.77678 23.14483
#
# Velocity S-wave (km/s) = 3.54969 3.64797 3.59917
# Velocity P-wave (km/s) = 6.98886 7.07280 7.03095
#
# Compressibility (1/GPa) = 0.01746656
#
# Stress axis : x y z
#
# Youngs Moduli (GPa) = 69.36202 69.36202 79.63768
#
# Poissons Ratio (x) = 0.44065 0.22336
# Poissons Ratio (y) = 0.44065 0.22336
# Poissons Ratio (z) = 0.19454 0.19454
#
# Static dielectric constant tensor:
#      x y z
#    x 3.143610 0.000000 0.000000 
#    y 0.000000 3.143610 0.000000 
#    z 0.000000 0.000000 3.521170 
# 
# 
# High freq. dielectric constant tensor:
#      x y z
#    x 1.678790 0.000000 0.000000 
#    y 0.000000 1.678790 0.000000 
#    z 0.000000 0.000000 1.702800 
# 
# From -- ./inp_files/6088.got.cif
#   From: 2010.03.12/outbox.cif.g09.slc.cpg/sg123_4_cif.got.tgz:6088.got - 2010.04.06 16:26:55.
