data_PCOD8312518
_publ_section_title
;
Structure prediction by ZEFSAII (Michael W. Deem and Ramdas Pophale) SiO2 
 PCOD8312518
Probable space group: P 4/M M M
;
_chemical_formula_sum "Si O2"
_cell_formula_units_Z 120
_cell_length_a 23.427778
_cell_length_b 23.427778
_cell_length_c 12.994033
_cell_angle_alpha 90.000000
_cell_angle_beta 90.000000
_cell_angle_gamma 90.000000
_cell_volume 7131.915114
_symmetry_space_group_name_H-M "P 4/M M M"
_symmetry_group_IT_number 123
_symmetry_cell_setting 'tetragonal'
loop_
_space_group_symop_operation_xyz
x,y,z
-y,x,z
-x,-y,z
y,-x,z
x,-y,-z
-x,y,-z
y,x,-z
-y,-x,-z
-x,-y,-z
y,-x,-z
x,y,-z
-y,x,-z
-x,y,z
x,-y,z
-y,-x,z
y,x,z
loop_
_atom_site_type_symbol
_atom_site_label
_atom_site_fract_x
_atom_site_fract_y
_atom_site_fract_z
Si Si1 0.873408 0.348605 0.615274
Si Si2 0.828897 0.433483 0.110021
Si Si3 0.652768 0.436756 0.621618
Si Si4 0.777806 0.128739 0.317816
Si Si5 0.432206 0.778945 0.680984
Si Si6 0.932741 0.838318 0.500000
Si Si7 0.375325 0.063575 0.188209
Si Si8 0.065408 0.751690 0.883841
O O1 0.898001 0.344666 0.500000
O O2 0.852827 0.286458 0.653608
O O3 0.821637 0.394096 0.613709
O O4 0.923876 0.369158 0.690073
O O5 0.823211 0.500000 0.098778
O O6 0.786901 0.412775 0.200185
O O7 0.894182 0.420240 0.137227
O O8 0.811951 0.404972 0.000000
O O9 0.647049 0.438280 0.500000
O O10 0.641700 0.500000 0.667304
O O11 0.606237 0.393764 0.669818
O O12 0.715343 0.415125 0.650648
O O13 0.813613 0.186387 0.323880
O O14 0.801493 0.082388 0.398776
O O15 0.783152 0.103233 0.202476
O O16 0.500000 0.790972 0.662991
O O17 0.897926 0.897926 0.500000
O O18 0.000000 0.852087 0.500000
O O19 0.315884 0.071091 0.129695
O O20 0.399427 0.000000 0.175591
O O21 0.000000 0.770798 0.868376
O O22 0.086011 0.767629 0.000000
#
# Coordination Sequence:
#
# PCOD8312518 Si02
#       8
#    16  16  16  16  16   8  16  16
#     4  10  19  31  46  67  93 125 163 198 238 285
#     4   9  17  29  46  66  87 115 151 193 240 284
#     4   9  17  29  46  70  97 125 157 191 233 284
#     4  10  20  33  48  71 100 127 157 196 245 294
#     4   9  18  32  49  68  93 124 162 203 241 286
#     4  10  20  35  54  74  99 127 157 197 240 286
#     4   9  18  30  43  63  89 117 152 195 237 278
#     4   9  17  30  48  68  90 120 158 193 228 279
#
# _framework density 16.825775
#
# number of rings (size 3 to 8) (size 9 to 14) (size 15 to 20)
#    0.000    2.667    0.667    1.200    0.000    3.667 
#    0.000    1.333    0.000    0.400    0.000    3.733 
#    0.000    0.000    0.000   17.600    0.000    0.133 
#
# Total GULP energy -1487387.756771 kJ/mol
# GULP energy per Si atom -12394.897973 kJ/mol
# Density = 1.678748 g / cm^3
# Si number density = 16.825775 Si / 1000 Ang^3
#
#
#
# Elastic Constant Matrix: (Units=GPa)
#
#
# Indices 1 2 3 4 5 6 
#
# 1 50.3510 27.8772 9.0076 0.0000 0.0000 0.0000
# 2 27.8772 50.3510 9.0076 0.0000 0.0000 0.0000
# 3 9.0076 9.0076 100.1562 0.0000 0.0000 0.0000
# 4 0.0000 0.0000 0.0000 18.5025 0.0000 0.0000
# 5 0.0000 0.0000 0.0000 0.0000 18.5025 0.0000
# 6 0.0000 0.0000 0.0000 0.0000 0.0000 18.8999
#
#
#
# Elastic Compliance Matrix: (Units=1/GPa)
#
#
# Indices 1 2 3 4 5 6 
#
# 1 0.028775 -0.015721 -0.001174 0.000000 0.000000 0.000000
# 2 -0.015721 0.028775 -0.001174 0.000000 0.000000 0.000000
# 3 -0.001174 -0.001174 0.010196 0.000000 0.000000 0.000000
# 4 0.000000 0.000000 0.000000 0.054047 0.000000 0.000000
# 5 0.000000 0.000000 0.000000 0.000000 0.054047 0.000000
# 6 0.000000 0.000000 0.000000 0.000000 0.000000 0.052910
#
#
# Mechanical properties :
#
#
# Convention : Reuss Voigt Hill
#
# Bulk Modulus (GPa) = 31.63892 32.51586 32.07739
# Shear Modulus (GPa) = 18.15388 21.51204 19.83296
#
# Velocity S-wave (km/s) = 3.28827 3.57952 3.43698
# Velocity P-wave (km/s) = 5.76729 6.03746 5.90392
#
# Compressibility (1/GPa) = 0.03160664
#
# Stress axis : x y z
#
# Youngs Moduli (GPa) = 34.75258 34.75258 98.08185
#
# Poissons Ratio (x) = 0.54636 0.11514
# Poissons Ratio (y) = 0.54636 0.11514
# Poissons Ratio (z) = 0.04080 0.04080
#
# Static dielectric constant tensor:
#      x y z
#    x 3.052420 0.000000 0.000000 
#    y 0.000000 3.052420 0.000000 
#    z 0.000000 0.000000 4.238300 
# 
# 
# High freq. dielectric constant tensor:
#      x y z
#    x 1.633190 0.000000 0.000000 
#    y 0.000000 1.633190 0.000000 
#    z 0.000000 0.000000 1.656750 
# 
# From -- ./inp_files/3505.got.cif
#   From: 2010.03.12/outbox.cif.g09.slc.cpg/sg123_2_cif.got.tgz:3505.got - 2010.04.06 16:26:55.
