data_PCOD8312174
_publ_section_title
;
Structure prediction by ZEFSAII (Michael W. Deem and Ramdas Pophale) SiO2 
 PCOD8312174
Probable space group: P 4/M M M
;
_chemical_formula_sum "Si O2"
_cell_formula_units_Z 128
_cell_length_a 17.907180
_cell_length_b 17.907180
_cell_length_c 23.965570
_cell_angle_alpha 90.000000
_cell_angle_beta 90.000000
_cell_angle_gamma 90.000000
_cell_volume 7684.969725
_symmetry_space_group_name_H-M "P 4/M M M"
_symmetry_group_IT_number 123
_symmetry_cell_setting 'tetragonal'
loop_
_space_group_symop_operation_xyz
x,y,z
-y,x,z
-x,-y,z
y,-x,z
x,-y,-z
-x,y,-z
y,x,-z
-y,-x,-z
-x,-y,-z
y,-x,-z
x,y,-z
-y,x,-z
-x,y,z
x,-y,z
-y,-x,z
y,x,z
loop_
_atom_site_type_symbol
_atom_site_label
_atom_site_fract_x
_atom_site_fract_y
_atom_site_fract_z
Si Si1 0.586033 0.294736 0.247331
Si Si2 0.086164 0.796395 0.668501
Si Si3 0.730398 0.849806 0.436425
Si Si4 0.416713 0.914857 0.173290
Si Si5 0.649590 0.853824 0.719080
Si Si6 0.415815 0.703375 0.118828
Si Si7 0.913269 0.585470 0.388524
Si Si8 0.588242 0.147886 0.060791
O O1 0.500000 0.302464 0.265656
O O2 0.625477 0.374524 0.257085
O O3 0.627696 0.233334 0.285605
O O4 0.593478 0.269915 0.182774
O O5 0.122859 0.877142 0.680107
O O6 0.092863 0.775400 0.603058
O O7 0.132511 0.735685 0.703907
O O8 0.000000 0.798568 0.686656
O O9 0.741785 0.875309 0.500000
O O10 0.765635 0.765635 0.427720
O O11 0.642060 0.856753 0.420993
O O12 0.500000 0.877482 0.176750
O O13 0.361875 0.877780 0.217359
O O14 0.383746 0.906480 0.110407
O O15 0.423110 0.000000 0.189150
O O16 0.596627 0.901463 0.677692
O O17 0.500000 0.680197 0.106244
O O18 0.368767 0.631234 0.104366
O O19 0.388551 0.768843 0.078192
O O20 0.894163 0.500000 0.405181
O O21 0.000000 0.603213 0.402999
O O22 0.500000 0.140297 0.055682
O O23 0.623992 0.128110 0.000000
#
# Coordination Sequence:
#
# PCOD8312174 Si02
#       8
#    16  16  16  16  16  16  16  16
#     4  10  19  30  46  66  90 121 155 193 234 276
#     4  10  21  35  52  74  98 126 159 195 235 280
#     4   9  18  33  51  70  96 131 167 199 232 275
#     4  10  18  27  43  65  88 117 149 184 228 275
#     4  11  18  31  49  69  96 123 156 193 232 280
#     4   9  17  29  43  60  81 108 144 185 229 272
#     4  10  20  31  46  72 102 129 157 194 240 285
#     4   9  17  29  42  57  81 111 144 184 228 275
#
# _framework density 16.655888000000001
#
# number of rings (size 3 to 8) (size 9 to 14) (size 15 to 20)
#    0.000    2.250    1.250    3.750    0.000    3.625 
#    0.000    3.125    0.000    0.000    0.000    3.500 
#    0.000    0.250    0.000    1.375    0.000    0.125 
#
# Total GULP energy -1586325.522376 kJ/mol
# GULP energy per Si atom -12393.168144 kJ/mol
# Density = 1.661798 g / cm^3
# Si number density = 16.655888 Si / 1000 Ang^3
#
#
#
# Elastic Constant Matrix: (Units=GPa)
#
#
# Indices 1 2 3 4 5 6 
#
# 1 77.6188 48.5368 31.5025 0.0000 0.0000 0.0000
# 2 48.5368 77.6188 31.5025 0.0000 0.0000 0.0000
# 3 31.5025 31.5025 75.8999 0.0000 0.0000 0.0000
# 4 0.0000 0.0000 0.0000 21.3445 0.0000 0.0000
# 5 0.0000 0.0000 0.0000 0.0000 21.3445 0.0000
# 6 0.0000 0.0000 0.0000 0.0000 0.0000 25.2887
#
#
#
# Elastic Compliance Matrix: (Units=1/GPa)
#
#
# Indices 1 2 3 4 5 6 
#
# 1 0.022193 -0.012193 -0.004150 0.000000 0.000000 0.000000
# 2 -0.012193 0.022193 -0.004150 0.000000 0.000000 0.000000
# 3 -0.004150 -0.004150 0.016620 0.000000 0.000000 0.000000
# 4 0.000000 0.000000 0.000000 0.046851 0.000000 0.000000
# 5 0.000000 0.000000 0.000000 0.000000 0.046851 0.000000
# 6 0.000000 0.000000 0.000000 0.000000 0.000000 0.039543
#
#
# Mechanical properties :
#
#
# Convention : Reuss Voigt Hill
#
# Bulk Modulus (GPa) = 49.95469 50.46903 50.21186
# Shear Modulus (GPa) = 20.66884 21.56857 21.11871
#
# Velocity S-wave (km/s) = 3.52651 3.60245 3.56468
# Velocity P-wave (km/s) = 6.82928 6.90437 6.86693
#
# Compressibility (1/GPa) = 0.02001814
#
# Stress axis : x y z
#
# Youngs Moduli (GPa) = 45.06022 45.06022 60.16681
#
# Poissons Ratio (x) = 0.54942 0.24971
# Poissons Ratio (y) = 0.54942 0.24971
# Poissons Ratio (z) = 0.18701 0.18701
#
# Static dielectric constant tensor:
#      x y z
#    x 3.043420 0.000000 0.000000 
#    y 0.000000 3.043420 0.000000 
#    z 0.000000 0.000000 3.249960 
# 
# 
# High freq. dielectric constant tensor:
#      x y z
#    x 1.624300 0.000000 0.000000 
#    y 0.000000 1.624300 0.000000 
#    z 0.000000 0.000000 1.635630 
# 
# From -- ./inp_files/7642.got.cif
#   From: 2010.03.12/outbox.cif.g09.slc.cpg/sg123_4_cif.got.tgz:7642.got - 2010.04.06 16:26:55.
