data_PCOD8312801
_publ_section_title
;
Structure prediction by ZEFSAII (Michael W. Deem and Ramdas Pophale) SiO2 
 PCOD8312801
Probable space group: P 4/M M M
;
_chemical_formula_sum "Si O2"
_cell_formula_units_Z 96
_cell_length_a 24.654711
_cell_length_b 24.654711
_cell_length_c 8.809773
_cell_angle_alpha 90.000000
_cell_angle_beta 90.000000
_cell_angle_gamma 90.000000
_cell_volume 5355.062580
_symmetry_space_group_name_H-M "P 4/M M M"
_symmetry_group_IT_number 123
_symmetry_cell_setting 'tetragonal'
loop_
_space_group_symop_operation_xyz
x,y,z
-y,x,z
-x,-y,z
y,-x,z
x,-y,-z
-x,y,-z
y,x,-z
-y,-x,-z
-x,-y,-z
y,-x,-z
x,y,-z
-y,x,-z
-x,y,z
x,-y,z
-y,-x,z
y,x,z
loop_
_atom_site_type_symbol
_atom_site_label
_atom_site_fract_x
_atom_site_fract_y
_atom_site_fract_z
Si Si1 0.940130 0.802127 0.169446
Si Si2 0.351107 0.438329 0.675166
Si Si3 0.940612 0.309210 0.326804
Si Si4 0.157297 0.842704 0.672144
Si Si5 0.237775 0.237775 0.821331
Si Si6 0.562308 0.239314 0.822725
Si Si7 0.820804 0.658368 0.677088
O O1 0.941190 0.739131 0.208135
O O2 0.905465 0.832975 0.295128
O O3 0.000000 0.827267 0.177236
O O4 0.915992 0.809073 0.000000
O O5 0.335059 0.429468 0.500000
O O6 0.368769 0.500000 0.706278
O O7 0.401426 0.401426 0.724217
O O8 0.300189 0.421433 0.776997
O O9 0.935831 0.287695 0.500000
O O10 0.885745 0.342148 0.287492
O O11 0.000000 0.340034 0.308988
O O12 0.172193 0.827808 0.500000
O O13 0.192946 0.807055 0.785389
O O14 0.215518 0.294750 0.755546
O O15 0.245136 0.245136 0.000000
O O16 0.500000 0.227624 0.777132
O O17 0.599600 0.197394 0.733222
O O18 0.572128 0.231796 0.000000
O O19 0.809798 0.664974 0.500000
#
# Coordination Sequence:
#
# PCOD8312801 Si02
#       7
#    16  16  16   8   8  16  16
#     4  10  20  33  51  75 103 139 181 223 270 323
#     4   9  18  33  53  77 105 137 176 223 272 324
#     4   9  18  33  53  78 109 142 175 215 266 325
#     4  12  22  34  52  75 109 146 180 221 270 324
#     4  12  24  36  52  80 117 149 179 221 270 324
#     4  10  22  39  57  77 105 144 187 228 272 323
#     4  11  22  36  57  83 112 144 180 223 272 328
#
# _framework density 17.926962
#
# number of rings (size 3 to 8) (size 9 to 14) (size 15 to 20)
#    0.000    1.833    1.667    3.000    1.167    3.167 
#    0.000    0.833    0.000    0.750    0.000    7.583 
#    0.000    0.000    0.000    0.000    0.000    0.000 
#
# Total GULP energy -1189814.474143 kJ/mol
# GULP energy per Si atom -12393.900772 kJ/mol
# Density = 1.788616 g / cm^3
# Si number density = 17.926962 Si / 1000 Ang^3
#
#
#
# Elastic Constant Matrix: (Units=GPa)
#
#
# Indices 1 2 3 4 5 6 
#
# 1 105.3113 69.6020 41.9630 0.0000 0.0000 0.0000
# 2 69.6020 105.3113 41.9628 0.0000 0.0000 0.0000
# 3 41.9630 41.9628 83.7621 0.0000 0.0000 0.0000
# 4 0.0000 0.0000 0.0000 25.1514 0.0000 0.0000
# 5 0.0000 0.0000 0.0000 0.0000 25.1514 0.0000
# 6 0.0000 0.0000 0.0000 0.0000 0.0000 26.2306
#
#
#
# Elastic Compliance Matrix: (Units=1/GPa)
#
#
# Indices 1 2 3 4 5 6 
#
# 1 0.017765 -0.010239 -0.003771 0.000000 0.000000 0.000000
# 2 -0.010239 0.017765 -0.003770 0.000000 0.000000 0.000000
# 3 -0.003771 -0.003770 0.015716 0.000000 0.000000 0.000000
# 4 0.000000 0.000000 0.000000 0.039759 0.000000 0.000000
# 5 0.000000 0.000000 0.000000 0.000000 0.039759 0.000000
# 6 0.000000 0.000000 0.000000 0.000000 0.000000 0.038123
#
#
# Mechanical properties :
#
#
# Convention : Reuss Voigt Hill
#
# Bulk Modulus (GPa) = 63.74703 66.82669 65.28686
# Shear Modulus (GPa) = 23.84622 24.69715 24.27169
#
# Velocity S-wave (km/s) = 3.65113 3.71570 3.68356
# Velocity P-wave (km/s) = 7.30827 7.46771 7.38842
#
# Compressibility (1/GPa) = 0.01568700
#
# Stress axis : x y z
#
# Youngs Moduli (GPa) = 56.29019 56.29033 63.62774
#
# Poissons Ratio (x) = 0.57635 0.23991
# Poissons Ratio (y) = 0.57635 0.23990
# Poissons Ratio (z) = 0.21224 0.21224
#
# Static dielectric constant tensor:
#      x y z
#    x 3.413270 0.000000 0.000000 
#    y 0.000000 3.413270 0.000000 
#    z 0.000000 0.000000 3.383620 
# 
# 
# High freq. dielectric constant tensor:
#      x y z
#    x 1.683060 0.000000 0.000000 
#    y 0.000000 1.683060 0.000000 
#    z 0.000000 0.000000 1.705090 
# 
# From -- ./inp_files/1668.got.cif
#   From: 2010.03.12/outbox.cif.g09.slc.cpg/sg123_1_cif.got.tgz:1668.got - 2010.04.06 16:26:55.
