data_PCOD8312417
_publ_section_title
;
Structure prediction by ZEFSAII (Michael W. Deem and Ramdas Pophale) SiO2 
 PCOD8312417
Probable space group: P 4/M M M
;
_chemical_formula_sum "Si O2"
_cell_formula_units_Z 88
_cell_length_a 13.964215
_cell_length_b 13.964215
_cell_length_c 28.600122
_cell_angle_alpha 90.000000
_cell_angle_beta 90.000000
_cell_angle_gamma 90.000000
_cell_volume 5577.003786
_symmetry_space_group_name_H-M "P 4/M M M"
_symmetry_group_IT_number 123
_symmetry_cell_setting 'tetragonal'
loop_
_space_group_symop_operation_xyz
x,y,z
-y,x,z
-x,-y,z
y,-x,z
x,-y,-z
-x,y,-z
y,x,-z
-y,-x,-z
-x,-y,-z
y,-x,-z
x,y,-z
-y,x,-z
-x,y,z
x,-y,z
-y,-x,z
y,x,z
loop_
_atom_site_type_symbol
_atom_site_label
_atom_site_fract_x
_atom_site_fract_y
_atom_site_fract_z
Si Si1 0.106511 0.613335 0.812565
Si Si2 0.388084 0.230654 0.898690
Si Si3 0.231517 0.613469 0.275323
Si Si4 0.761259 0.392014 0.000000
Si Si5 0.610008 0.765222 0.447220
Si Si6 0.893669 0.386704 0.636957
O O1 0.098273 0.500000 0.811400
O O2 0.153056 0.648037 0.861245
O O3 0.171486 0.647712 0.769610
O O4 0.000000 0.658220 0.808417
O O5 0.500000 0.255523 0.890644
O O6 0.328501 0.328501 0.892375
O O7 0.370287 0.183840 0.950836
O O8 0.251436 0.500000 0.275383
O O9 0.333738 0.666263 0.275223
O O10 0.171718 0.648062 0.320298
O O11 0.727682 0.500000 0.000000
O O12 0.662402 0.337599 0.000000
O O13 0.623965 0.804000 0.500000
O O14 0.500000 0.738736 0.437007
O O15 0.668333 0.668333 0.438623
O O16 0.646599 0.847301 0.412069
O O17 0.902545 0.500000 0.638785
O O18 0.000000 0.341260 0.640882
#
# Coordination Sequence:
#
# PCOD8312417 Si02
#       6
#    16  16  16   8  16  16
#     4   9  17  29  43  58  79 109 143 176 208 242
#     4   9  16  26  40  59  84 112 141 172 205 244
#     4  10  19  30  45  65  89 115 141 169 202 244
#     4   8  14  23  35  53  79 111 142 170 201 237
#     4   9  17  28  42  62  89 119 148 177 209 248
#     4   9  17  29  44  61  83 113 147 180 212 244
#
# _framework density 15.779082000000001
#
# number of rings (size 3 to 8) (size 9 to 14) (size 15 to 20)
#    0.000    2.909    0.000    1.636    0.000    3.182 
#    0.000    5.000    0.000    9.273    0.000    0.000 
#    0.000   29.818    0.000    8.000    0.000   21.091 
#
# Total GULP energy -1090495.957423 kJ/mol
# GULP energy per Si atom -12391.999516 kJ/mol
# Density = 1.574317 g / cm^3
# Si number density = 15.779082 Si / 1000 Ang^3
#
#
#
# Elastic Constant Matrix: (Units=GPa)
#
#
# Indices 1 2 3 4 5 6 
#
# 1 66.7998 35.8580 47.9099 0.0000 0.0000 0.0000
# 2 35.8580 66.7997 47.9098 0.0000 0.0000 0.0000
# 3 47.9099 47.9098 143.9003 0.0000 0.0000 0.0000
# 4 0.0000 0.0000 0.0000 19.3136 0.0000 0.0000
# 5 0.0000 0.0000 0.0000 0.0000 19.3136 0.0000
# 6 0.0000 0.0000 0.0000 0.0000 0.0000 4.8591
#
#
#
# Elastic Compliance Matrix: (Units=1/GPa)
#
#
# Indices 1 2 3 4 5 6 
#
# 1 0.023226 -0.009093 -0.004705 0.000000 0.000000 0.000000
# 2 -0.009093 0.023226 -0.004705 0.000000 0.000000 0.000000
# 3 -0.004705 -0.004705 0.010083 0.000000 0.000000 0.000000
# 4 0.000000 0.000000 0.000000 0.051777 0.000000 0.000000
# 5 0.000000 0.000000 0.000000 0.000000 0.051777 0.000000
# 6 0.000000 0.000000 0.000000 0.000000 0.000000 0.205798
#
#
# Mechanical properties :
#
#
# Convention : Reuss Voigt Hill
#
# Bulk Modulus (GPa) = 51.21128 60.09501 55.65315
# Shear Modulus (GPa) = 12.21291 18.41874 15.31583
#
# Velocity S-wave (km/s) = 2.78509 3.42027 3.11889
# Velocity P-wave (km/s) = 6.54736 7.33250 6.95103
#
# Compressibility (1/GPa) = 0.01952695
#
# Stress axis : x y z
#
# Youngs Moduli (GPa) = 43.05525 43.05529 99.18175
#
# Poissons Ratio (x) = 0.39149 0.46670
# Poissons Ratio (y) = 0.39149 0.46669
# Poissons Ratio (z) = 0.20260 0.20259
#
# Static dielectric constant tensor:
#      x y z
#    x 2.802850 0.000000 0.000000 
#    y 0.000000 2.802850 0.000000 
#    z 0.000000 0.000000 3.482800 
# 
# 
# High freq. dielectric constant tensor:
#      x y z
#    x 1.570600 0.000000 0.000000 
#    y 0.000000 1.570600 0.000000 
#    z 0.000000 0.000000 1.634350 
# 
# From -- ./inp_files/7183.got.cif
#   From: 2010.03.12/outbox.cif.g09.slc.cpg/sg123_4_cif.got.tgz:7183.got - 2010.04.06 16:26:55.
