data_PCOD8312696
_publ_section_title
;
Structure prediction by ZEFSAII (Michael W. Deem and Ramdas Pophale) SiO2 
 PCOD8312696
Probable space group: P 4/M M M
;
_chemical_formula_sum "Si O2"
_cell_formula_units_Z 72
_cell_length_a 13.354675
_cell_length_b 13.354675
_cell_length_c 23.411924
_cell_angle_alpha 90.000000
_cell_angle_beta 90.000000
_cell_angle_gamma 90.000000
_cell_volume 4175.454472
_symmetry_space_group_name_H-M "P 4/M M M"
_symmetry_group_IT_number 123
_symmetry_cell_setting 'tetragonal'
loop_
_space_group_symop_operation_xyz
x,y,z
-y,x,z
-x,-y,z
y,-x,z
x,-y,-z
-x,y,-z
y,x,-z
-y,-x,-z
-x,-y,-z
y,-x,-z
x,y,-z
-y,x,-z
-x,y,z
x,-y,z
-y,-x,z
y,x,z
loop_
_atom_site_type_symbol
_atom_site_label
_atom_site_fract_x
_atom_site_fract_y
_atom_site_fract_z
Si Si1 0.882384 0.723253 0.826075
Si Si2 0.388333 0.881297 0.062765
Si Si3 0.882634 0.717813 0.624065
Si Si4 0.112673 0.272355 0.500000
Si Si5 0.615662 0.219005 0.274070
O O1 0.828192 0.828192 0.812779
O O2 0.842566 0.684046 0.887371
O O3 0.853887 0.641991 0.778429
O O4 0.000000 0.743334 0.825208
O O5 0.500000 0.837349 0.071942
O O6 0.394126 0.000000 0.066288
O O7 0.347792 0.848232 0.000000
O O8 0.822269 0.822269 0.632075
O O9 0.864352 0.670504 0.559981
O O10 0.841326 0.635770 0.667688
O O11 0.000000 0.738861 0.635518
O O12 0.168732 0.168732 0.500000
O O13 0.000000 0.236994 0.500000
O O14 0.500000 0.248960 0.271157
O O15 0.678957 0.321044 0.271070
#
# Coordination Sequence:
#
# PCOD8312696 Si02
#       5
#    16  16  16   8  16
#     4  10  20  32  47  69  97 129 163 196 231 275
#     4   8  14  26  45  67  89 116 154 199 241 275
#     4   9  17  29  46  70  99 130 162 193 227 269
#     4   8  14  25  41  63  94 128 160 194 227 262
#     4  10  21  36  53  72  92 116 150 193 241 290
#
# _framework density 17.243632000000002
#
# number of rings (size 3 to 8) (size 9 to 14) (size 15 to 20)
#    0.000    2.889    0.000    2.000    0.000    3.889 
#    0.000    2.778    0.000    6.000    0.000    3.111 
#    0.000    4.444    0.000   20.667    0.000    1.111 
#
# Total GULP energy -892131.630651 kJ/mol
# GULP energy per Si atom -12390.717092 kJ/mol
# Density = 1.720438 g / cm^3
# Si number density = 17.243632 Si / 1000 Ang^3
#
#
#
# Elastic Constant Matrix: (Units=GPa)
#
#
# Indices 1 2 3 4 5 6 
#
# 1 80.0261 29.0063 41.4314 0.0000 0.0000 0.0000
# 2 29.0063 80.0261 41.4314 0.0000 0.0000 0.0000
# 3 41.4314 41.4314 142.6547 0.0000 0.0000 0.0000
# 4 0.0000 0.0000 0.0000 21.7399 0.0000 0.0000
# 5 0.0000 0.0000 0.0000 0.0000 21.7399 0.0000
# 6 0.0000 0.0000 0.0000 0.0000 0.0000 9.6994
#
#
#
# Elastic Compliance Matrix: (Units=1/GPa)
#
#
# Indices 1 2 3 4 5 6 
#
# 1 0.015685 -0.003915 -0.003418 0.000000 0.000000 0.000000
# 2 -0.003915 0.015685 -0.003418 0.000000 0.000000 0.000000
# 3 -0.003418 -0.003418 0.008995 0.000000 0.000000 0.000000
# 4 0.000000 0.000000 0.000000 0.045998 0.000000 0.000000
# 5 0.000000 0.000000 0.000000 0.000000 0.045998 0.000000
# 6 0.000000 0.000000 0.000000 0.000000 0.000000 0.103099
#
#
# Mechanical properties :
#
#
# Convention : Reuss Voigt Hill
#
# Bulk Modulus (GPa) = 53.01840 58.49391 55.75616
# Shear Modulus (GPa) = 18.99321 23.35835 21.17578
#
# Velocity S-wave (km/s) = 3.32243 3.68449 3.50813
# Velocity P-wave (km/s) = 6.74770 7.21778 6.98669
#
# Compressibility (1/GPa) = 0.01886138
#
# Stress axis : x y z
#
# Youngs Moduli (GPa) = 63.75604 63.75604 111.16748
#
# Poissons Ratio (x) = 0.24963 0.37999
# Poissons Ratio (y) = 0.24963 0.37999
# Poissons Ratio (z) = 0.21793 0.21793
#
# Static dielectric constant tensor:
#      x y z
#    x 2.922130 0.000000 0.000000 
#    y 0.000000 2.922130 0.000000 
#    z 0.000000 0.000000 3.823520 
# 
# 
# High freq. dielectric constant tensor:
#      x y z
#    x 1.638170 0.000000 0.000000 
#    y 0.000000 1.638170 0.000000 
#    z 0.000000 0.000000 1.695250 
# 
# From -- ./inp_files/7883.got.cif
#   From: 2010.03.12/outbox.cif.g09.slc.cpg/sg123_4_cif.got.tgz:7883.got - 2010.04.06 16:26:55.
