data_PCOD8312190
_publ_section_title
;
Structure prediction by ZEFSAII (Michael W. Deem and Ramdas Pophale) SiO2 
 PCOD8312190
Probable space group: P 4/M M M
;
_chemical_formula_sum "Si O2"
_cell_formula_units_Z 104
_cell_length_a 16.831899
_cell_length_b 16.831899
_cell_length_c 23.129792
_cell_angle_alpha 90.000000
_cell_angle_beta 90.000000
_cell_angle_gamma 90.000000
_cell_volume 6552.966689
_symmetry_space_group_name_H-M "P 4/M M M"
_symmetry_group_IT_number 123
_symmetry_cell_setting 'tetragonal'
loop_
_space_group_symop_operation_xyz
x,y,z
-y,x,z
-x,-y,z
y,-x,z
x,-y,-z
-x,y,-z
y,x,-z
-y,-x,-z
-x,-y,-z
y,-x,-z
x,y,-z
-y,x,-z
-x,y,z
x,-y,z
-y,-x,z
y,x,z
loop_
_atom_site_type_symbol
_atom_site_label
_atom_site_fract_x
_atom_site_fract_y
_atom_site_fract_z
Si Si1 0.408602 0.279280 0.934569
Si Si2 0.591900 0.725352 0.500000
Si Si3 0.090093 0.218051 0.214779
Si Si4 0.780801 0.090869 0.649483
Si Si5 0.795486 0.662997 0.829136
Si Si6 0.341585 0.208875 0.613712
Si Si7 0.721812 0.411164 0.276935
O O1 0.500000 0.299650 0.922286
O O2 0.360235 0.360235 0.922670
O O3 0.378165 0.209653 0.892073
O O4 0.395711 0.248784 0.000000
O O5 0.500000 0.698290 0.500000
O O6 0.645733 0.645733 0.500000
O O7 0.609187 0.781125 0.554934
O O8 0.140815 0.140815 0.196901
O O9 0.099507 0.235690 0.282523
O O10 0.118425 0.297025 0.180333
O O11 0.000000 0.200140 0.197142
O O12 0.859456 0.140545 0.632079
O O13 0.702376 0.123445 0.616482
O O14 0.795123 0.000000 0.630957
O O15 0.733158 0.733158 0.822054
O O16 0.776040 0.598877 0.779898
O O17 0.273739 0.273739 0.618233
O O18 0.399550 0.220969 0.667957
O O19 0.687576 0.500000 0.277795
O O20 0.646629 0.353372 0.277833
#
# Coordination Sequence:
#
# PCOD8312190 Si02
#       7
#    16   8  16  16  16  16  16
#     4   9  17  28  43  64  89 118 153 192 231 269
#     4  10  20  33  51  71  90 116 152 194 236 276
#     4   9  16  27  46  71  96 120 146 180 222 267
#     4   9  16  28  48  72  97 122 148 182 222 266
#     4   9  16  28  44  63  88 120 152 179 216 266
#     4   9  17  31  47  65  89 121 155 181 217 274
#     4  10  18  28  44  63  85 114 147 186 229 270
#
# _framework density 15.870673999999999
#
# number of rings (size 3 to 8) (size 9 to 14) (size 15 to 20)
#    0.000    2.769    1.538    0.923    0.000    0.692 
#    0.000    2.692    0.000   11.077    0.000    1.077 
#    0.000    3.077    0.000    6.000    0.000    0.154 
#
# Total GULP energy -1289243.230074 kJ/mol
# GULP energy per Si atom -12396.569520 kJ/mol
# Density = 1.583455 g / cm^3
# Si number density = 15.870674 Si / 1000 Ang^3
#
#
#
# Elastic Constant Matrix: (Units=GPa)
#
#
# Indices 1 2 3 4 5 6 
#
# 1 84.0979 63.0308 42.5715 0.0000 0.0000 0.0000
# 2 63.0308 84.0979 42.5715 0.0000 0.0000 0.0000
# 3 42.5715 42.5715 93.4302 0.0000 0.0000 0.0000
# 4 0.0000 0.0000 0.0000 17.5662 0.0000 0.0000
# 5 0.0000 0.0000 0.0000 0.0000 17.5662 0.0000
# 6 0.0000 0.0000 0.0000 0.0000 0.0000 16.7679
#
#
#
# Elastic Compliance Matrix: (Units=1/GPa)
#
#
# Indices 1 2 3 4 5 6 
#
# 1 0.028349 -0.019118 -0.004206 0.000000 0.000000 0.000000
# 2 -0.019118 0.028349 -0.004206 0.000000 0.000000 0.000000
# 3 -0.004206 -0.004206 0.014536 0.000000 0.000000 0.000000
# 4 0.000000 0.000000 0.000000 0.056928 0.000000 0.000000
# 5 0.000000 0.000000 0.000000 0.000000 0.056928 0.000000
# 6 0.000000 0.000000 0.000000 0.000000 0.000000 0.059638
#
#
# Mechanical properties :
#
#
# Convention : Reuss Voigt Hill
#
# Bulk Modulus (GPa) = 61.82900 61.99706 61.91303
# Shear Modulus (GPa) = 16.38383 17.94353 17.16368
#
# Velocity S-wave (km/s) = 3.21648 3.36610 3.29214
# Velocity P-wave (km/s) = 7.26890 7.36588 7.31755
#
# Compressibility (1/GPa) = 0.01617364
#
# Stress axis : x y z
#
# Youngs Moduli (GPa) = 35.27450 35.27450 68.79418
#
# Poissons Ratio (x) = 0.67439 0.28935
# Poissons Ratio (y) = 0.67439 0.28935
# Poissons Ratio (z) = 0.14836 0.14836
#
# Static dielectric constant tensor:
#      x y z
#    x 2.927600 0.000000 0.000000 
#    y 0.000000 2.927600 0.000000 
#    z 0.000000 0.000000 3.121230 
# 
# 
# High freq. dielectric constant tensor:
#      x y z
#    x 1.593380 0.000000 0.000000 
#    y 0.000000 1.593380 0.000000 
#    z 0.000000 0.000000 1.602140 
# 
# From -- ./inp_files/6692.got.cif
#   From: 2010.03.12/outbox.cif.g09.slc.cpg/sg123_4_cif.got.tgz:6692.got - 2010.04.06 16:26:55.
