data_PCOD8312884
_publ_section_title
;
Structure prediction by ZEFSAII (Michael W. Deem and Ramdas Pophale) SiO2 
 PCOD8312884
Probable space group: P 4/M M M
;
_chemical_formula_sum "Si O2"
_cell_formula_units_Z 112
_cell_length_a 13.672976
_cell_length_b 13.672976
_cell_length_c 34.778684
_cell_angle_alpha 90.000000
_cell_angle_beta 90.000000
_cell_angle_gamma 90.000000
_cell_volume 6501.884458
_symmetry_space_group_name_H-M "P 4/M M M"
_symmetry_group_IT_number 123
_symmetry_cell_setting 'tetragonal'
loop_
_space_group_symop_operation_xyz
x,y,z
-y,x,z
-x,-y,z
y,-x,z
x,-y,-z
-x,y,-z
y,x,-z
-y,-x,-z
-x,-y,-z
y,-x,-z
x,y,-z
-y,x,-z
-x,y,z
x,-y,z
-y,-x,z
y,x,z
loop_
_atom_site_type_symbol
_atom_site_label
_atom_site_fract_x
_atom_site_fract_y
_atom_site_fract_z
Si Si1 0.269285 0.889002 0.756720
Si Si2 0.269815 0.111504 0.956221
Si Si3 0.112508 0.729559 0.455666
Si Si4 0.769773 0.611470 0.187529
Si Si5 0.224456 0.384956 0.393777
Si Si6 0.230192 0.388493 0.900032
Si Si7 0.728815 0.886874 0.331373
O O1 0.173166 0.826835 0.766368
O O2 0.357804 0.857456 0.784326
O O3 0.303378 0.874815 0.712816
O O4 0.241080 0.000000 0.765372
O O5 0.172959 0.172959 0.946725
O O6 0.357497 0.142493 0.928121
O O7 0.242159 0.000000 0.948337
O O8 0.304832 0.128141 0.000000
O O9 0.121419 0.698691 0.500000
O O10 0.168381 0.831620 0.447408
O O11 0.161543 0.642834 0.431357
O O12 0.000000 0.744414 0.443402
O O13 0.741925 0.500000 0.195387
O O14 0.672955 0.672955 0.197059
O O15 0.804778 0.628153 0.143752
O O16 0.246542 0.500000 0.393808
O O17 0.327775 0.327775 0.393594
O O18 0.160688 0.357319 0.356416
O O19 0.257834 0.500000 0.907919
O O20 0.327051 0.327051 0.909540
O O21 0.831142 0.831142 0.339542
O O22 0.744073 0.000000 0.342612
#
# Coordination Sequence:
#
# PCOD8312884 Si02
#       7
#    16  16  16  16  16  16  16
#     4   9  18  32  49  70  97 127 158 192 229 272
#     4   9  18  32  49  69  93 121 153 189 228 270
#     4   9  18  32  50  74 103 132 161 193 231 278
#     4   9  18  32  49  69  93 121 154 193 235 277
#     4  10  21  36  52  70  94 124 160 202 243 283
#     4   9  18  32  49  69  93 121 153 190 232 277
#     4   9  18  32  50  73  99 126 156 190 230 277
#
# _framework density 17.225776
#
# number of rings (size 3 to 8) (size 9 to 14) (size 15 to 20)
#    0.000    2.857    0.000    0.429    0.000    4.429 
#    0.000    8.571    0.000    2.571    0.000   12.000 
#    0.000    0.000    0.000    0.000    0.000    0.000 
#
# Total GULP energy -1388865.810387 kJ/mol
# GULP energy per Si atom -12400.587593 kJ/mol
# Density = 1.718657 g / cm^3
# Si number density = 17.225776 Si / 1000 Ang^3
#
#
#
# Elastic Constant Matrix: (Units=GPa)
#
#
# Indices 1 2 3 4 5 6 
#
# 1 117.0639 49.4584 56.1995 0.0000 0.0000 0.0000
# 2 49.4584 117.0639 56.1995 0.0000 0.0000 0.0000
# 3 56.1995 56.1995 88.3732 0.0000 0.0000 0.0000
# 4 0.0000 0.0000 0.0000 26.6580 0.0000 0.0000
# 5 0.0000 0.0000 0.0000 0.0000 26.6580 0.0000
# 6 0.0000 0.0000 0.0000 0.0000 0.0000 12.8410
#
#
#
# Elastic Compliance Matrix: (Units=1/GPa)
#
#
# Indices 1 2 3 4 5 6 
#
# 1 0.012657 -0.002135 -0.006691 0.000000 0.000000 0.000000
# 2 -0.002135 0.012657 -0.006691 0.000000 0.000000 0.000000
# 3 -0.006691 -0.006691 0.019826 0.000000 0.000000 0.000000
# 4 0.000000 0.000000 0.000000 0.037512 0.000000 0.000000
# 5 0.000000 0.000000 0.000000 0.000000 0.037512 0.000000
# 6 0.000000 0.000000 0.000000 0.000000 0.000000 0.077876
#
#
# Mechanical properties :
#
#
# Convention : Reuss Voigt Hill
#
# Bulk Modulus (GPa) = 70.89807 71.80178 71.34992
# Shear Modulus (GPa) = 21.38813 23.94096 22.66454
#
# Velocity S-wave (km/s) = 3.52751 3.73209 3.63124
# Velocity P-wave (km/s) = 7.60517 7.76818 7.68710
#
# Compressibility (1/GPa) = 0.01410476
#
# Stress axis : x y z
#
# Youngs Moduli (GPa) = 79.01036 79.01036 50.43976
#
# Poissons Ratio (x) = 0.16870 0.33749
# Poissons Ratio (y) = 0.16870 0.33749
# Poissons Ratio (z) = 0.52865 0.52865
#
# Static dielectric constant tensor:
#      x y z
#    x 3.129640 0.000000 0.000000 
#    y 0.000000 3.129640 0.000000 
#    z 0.000000 0.000000 3.415260 
# 
# 
# High freq. dielectric constant tensor:
#      x y z
#    x 1.656520 0.000000 0.000000 
#    y 0.000000 1.656520 0.000000 
#    z 0.000000 0.000000 1.676460 
# 
# From -- ./inp_files/8746.got.cif
#   From: 2010.03.12/outbox.cif.g09.slc.cpg/sg123_5_cif.got.tgz:8746.got - 2010.04.06 16:26:55.
