data_PCOD8312108
_publ_section_title
;
Structure prediction by ZEFSAII (Michael W. Deem and Ramdas Pophale) SiO2 
 PCOD8312108
Probable space group: I -4 2 D
;
_chemical_formula_sum "Si O2"
_cell_formula_units_Z 52
_cell_length_a 20.674979
_cell_length_b 20.674979
_cell_length_c 4.861120
_cell_angle_alpha 90.000000
_cell_angle_beta 90.000000
_cell_angle_gamma 90.000000
_cell_volume 2077.908867
_symmetry_space_group_name_H-M "I -4 2 D"
_symmetry_group_IT_number 122
_symmetry_cell_setting 'tetragonal'
loop_
_space_group_symop_operation_xyz
x,y,z
y,-x,-z
-x,-y,z
-y,x,-z
x,1/2-y,1/4-z
-x,1/2+y,1/4-z
-y,1/2-x,1/4+z
y,1/2+x,1/4+z
1/2+x,1/2+y,1/2+z
1/2+y,1/2-x,1/2-z
1/2-x,1/2-y,1/2+z
1/2-y,1/2+x,1/2-z
1/2+x,-y,3/4-z
1/2-x,y,3/4-z
1/2-y,-x,3/4+z
1/2+y,x,3/4+z
loop_
_atom_site_type_symbol
_atom_site_label
_atom_site_fract_x
_atom_site_fract_y
_atom_site_fract_z
Si Si1 0.460507 0.250000 0.125000
Si Si2 0.054609 0.867857 0.687664
Si Si3 0.000000 0.500000 0.750000
Si Si4 0.323464 0.372600 0.333465
Si Si5 0.750000 0.373903 0.375000
O O1 0.500922 0.312686 0.201529
O O2 0.419384 0.222743 0.382983
O O3 0.023164 0.937946 0.668658
O O4 0.112965 0.847598 0.476688
O O5 0.084397 0.871918 0.989009
O O6 0.250000 0.395753 0.375000
O O7 0.328854 0.300159 0.455111
#
# Coordination Sequence:
#
# PCOD8312108 Si02
#       5
#     8  16   4  16   8
#     4  12  24  49  72 104 149 202 246 306 398 478
#     4  12  26  47  73 105 150 199 247 313 392 466
#     4  12  28  46  76 118 152 190 264 326 376 454
#     4  12  25  48  72 105 147 197 251 309 391 469
#     4  12  26  41  74 108 137 188 256 318 368 460
#
# _framework density 25.02516
#
# number of rings (size 3 to 8) (size 9 to 14) (size 15 to 20)
#    0.000    0.000    3.077    7.385    0.000    7.385 
#    0.000    0.000    0.000    0.000    0.000    0.000 
#    0.000    0.000    0.000    0.000    0.000    0.000 
#
# Total GULP energy -322124.429200 kJ/mol
# GULP energy per Si atom -12389.401123 kJ/mol
# Density = 2.496820 g / cm^3
# Si number density = 25.025160 Si / 1000 Ang^3
#
#
#
# Elastic Constant Matrix: (Units=GPa)
#
#
# Indices 1 2 3 4 5 6 
#
# 1 128.0799 29.1929 4.7548 0.0000 0.0000 0.0000
# 2 29.1929 128.0799 4.7548 0.0000 0.0000 0.0000
# 3 4.7548 4.7548 91.4294 0.0000 0.0000 0.0000
# 4 0.0000 0.0000 0.0000 27.8350 0.0000 0.0000
# 5 0.0000 0.0000 0.0000 0.0000 27.8350 0.0000
# 6 0.0000 0.0000 0.0000 0.0000 0.0000 25.9671
#
#
#
# Elastic Compliance Matrix: (Units=1/GPa)
#
#
# Indices 1 2 3 4 5 6 
#
# 1 0.008245 -0.001867 -0.000332 0.000000 0.000000 0.000000
# 2 -0.001867 0.008245 -0.000332 0.000000 0.000000 0.000000
# 3 -0.000332 -0.000332 0.010972 0.000000 0.000000 0.000000
# 4 0.000000 0.000000 0.000000 0.035926 0.000000 0.000000
# 5 0.000000 0.000000 0.000000 0.000000 0.035926 0.000000
# 6 0.000000 0.000000 0.000000 0.000000 0.000000 0.038510
#
#
# Mechanical properties :
#
#
# Convention : Reuss Voigt Hill
#
# Bulk Modulus (GPa) = 44.63900 47.22156 45.93028
# Shear Modulus (GPa) = 33.25502 36.91989 35.08745
#
# Velocity S-wave (km/s) = 3.64931 3.84514 3.74851
# Velocity P-wave (km/s) = 5.96934 6.21483 6.09332
#
# Compressibility (1/GPa) = 0.02240193
#
# Stress axis : x y z
#
# Youngs Moduli (GPa) = 121.27830 121.27830 91.14190
#
# Poissons Ratio (x) = 0.22643 0.03023
# Poissons Ratio (y) = 0.22643 0.03023
# Poissons Ratio (z) = 0.04023 0.04023
#
# Static dielectric constant tensor:
#      x y z
#    x 4.614220 0.000000 0.000000 
#    y 0.000000 4.614220 0.000000 
#    z 0.000000 0.000000 4.652360 
# 
# 
# High freq. dielectric constant tensor:
#      x y z
#    x 2.005910 0.000000 0.000000 
#    y 0.000000 2.005910 0.000000 
#    z 0.000000 0.000000 2.005290 
# 
# From -- ./inp_files/866.got.cif
#   From: 2010.03.12/outbox.cif.g09.slc.cpg/sg122_1_cif.got.tgz:866.got - 2010.04.06 16:17:16.
