data_PCOD8312021
_publ_section_title
;
Structure prediction by ZEFSAII (Michael W. Deem and Ramdas Pophale) SiO2 
 PCOD8312021
Probable space group: I -4 2 D
;
_chemical_formula_sum "Si O2"
_cell_formula_units_Z 48
_cell_length_a 9.692838
_cell_length_b 9.692838
_cell_length_c 24.823510
_cell_angle_alpha 90.000000
_cell_angle_beta 90.000000
_cell_angle_gamma 90.000000
_cell_volume 2332.196281
_symmetry_space_group_name_H-M "I -4 2 D"
_symmetry_group_IT_number 122
_symmetry_cell_setting 'tetragonal'
loop_
_space_group_symop_operation_xyz
x,y,z
y,-x,-z
-x,-y,z
-y,x,-z
x,1/2-y,1/4-z
-x,1/2+y,1/4-z
-y,1/2-x,1/4+z
y,1/2+x,1/4+z
1/2+x,1/2+y,1/2+z
1/2+y,1/2-x,1/2-z
1/2-x,1/2-y,1/2+z
1/2-y,1/2+x,1/2-z
1/2+x,-y,3/4-z
1/2-x,y,3/4-z
1/2-y,-x,3/4+z
1/2+y,x,3/4+z
loop_
_atom_site_type_symbol
_atom_site_label
_atom_site_fract_x
_atom_site_fract_y
_atom_site_fract_z
Si Si1 0.906855 0.881108 0.163378
Si Si2 0.779401 0.992797 0.009926
Si Si3 0.132031 0.093668 0.629798
O O1 0.913075 0.750000 0.125000
O O2 0.967734 0.848066 0.221796
O O3 0.747137 0.931565 0.166802
O O4 0.000000 0.000000 0.136671
O O5 0.712356 0.937853 0.064691
O O6 0.872931 0.129213 0.018018
O O7 0.078133 0.250000 0.625000
O O8 0.000000 0.000000 0.620259
#
# Coordination Sequence:
#
# PCOD8312021 Si02
#       3
#    16  16  16
#     4  11  22  41  67 102 135 179 241 289 354 427
#     4  11  21  40  73 105 135 177 241 304 358 433
#     4  11  24  43  65 103 145 186 230 298 370 431
#
# _framework density 20.581457
#
# number of rings (size 3 to 8) (size 9 to 14) (size 15 to 20)
#    0.000    1.000    6.667    3.000    0.000    4.000 
#    0.000    0.000    0.000    0.000    0.000    0.000 
#    0.000    0.000    0.000    0.000    0.000    0.000 
#
# Total GULP energy -297510.865188 kJ/mol
# GULP energy per Si atom -12396.286049 kJ/mol
# Density = 2.053461 g / cm^3
# Si number density = 20.581457 Si / 1000 Ang^3
#
#
#
# Elastic Constant Matrix: (Units=GPa)
#
#
# Indices 1 2 3 4 5 6 
#
# 1 154.2652 101.0892 35.1493 0.0000 0.0000 0.0000
# 2 101.0892 154.2652 35.1493 0.0000 0.0000 0.0000
# 3 35.1493 35.1493 78.2804 0.0000 0.0000 0.0000
# 4 0.0000 0.0000 0.0000 26.8644 0.0000 0.0000
# 5 0.0000 0.0000 0.0000 0.0000 26.8644 0.0000
# 6 0.0000 0.0000 0.0000 0.0000 0.0000 51.4543
#
#
#
# Elastic Compliance Matrix: (Units=1/GPa)
#
#
# Indices 1 2 3 4 5 6 
#
# 1 0.011637 -0.007168 -0.002006 0.000000 0.000000 0.000000
# 2 -0.007168 0.011637 -0.002006 0.000000 0.000000 0.000000
# 3 -0.002006 -0.002006 0.014576 0.000000 0.000000 0.000000
# 4 0.000000 0.000000 0.000000 0.037224 0.000000 0.000000
# 5 0.000000 0.000000 0.000000 0.000000 0.037224 0.000000
# 6 0.000000 0.000000 0.000000 0.000000 0.000000 0.019435
#
#
# Mechanical properties :
#
#
# Convention : Reuss Voigt Hill
#
# Bulk Modulus (GPa) = 64.56739 81.06514 72.81626
# Shear Modulus (GPa) = 31.39550 35.39815 33.39682
#
# Velocity S-wave (km/s) = 3.90991 4.15167 4.03260
# Velocity P-wave (km/s) = 7.19881 7.90284 7.55903
#
# Compressibility (1/GPa) = 0.01548769
#
# Stress axis : x y z
#
# Youngs Moduli (GPa) = 85.93293 85.93292 68.60391
#
# Poissons Ratio (x) = 0.61601 0.13765
# Poissons Ratio (y) = 0.61601 0.13765
# Poissons Ratio (z) = 0.17242 0.17242
#
# Static dielectric constant tensor:
#      x y z
#    x 4.207110 0.000000 0.000000 
#    y 0.000000 4.207110 0.000000 
#    z 0.000000 0.000000 3.763080 
# 
# 
# High freq. dielectric constant tensor:
#      x y z
#    x 1.816090 0.000000 0.000000 
#    y 0.000000 1.816090 0.000000 
#    z 0.000000 0.000000 1.784680 
# 
# From -- ./inp_files/9014.got.cif
#   From: 2010.03.12/outbox.cif.g09.slc.cpg/sg122_5_cif.got.tgz:9014.got - 2010.04.06 16:17:16.
