data_PCOD8312210
_publ_section_title
;
Structure prediction by ZEFSAII (Michael W. Deem and Ramdas Pophale) SiO2 
 PCOD8312210
Probable space group: P 4/M M M
;
_chemical_formula_sum "Si O2"
_cell_formula_units_Z 112
_cell_length_a 24.206510
_cell_length_b 24.206510
_cell_length_c 12.596928
_cell_angle_alpha 90.000000
_cell_angle_beta 90.000000
_cell_angle_gamma 90.000000
_cell_volume 7381.234538
_symmetry_space_group_name_H-M "P 4/M M M"
_symmetry_group_IT_number 123
_symmetry_cell_setting 'tetragonal'
loop_
_space_group_symop_operation_xyz
x,y,z
-y,x,z
-x,-y,z
y,-x,z
x,-y,-z
-x,y,-z
y,x,-z
-y,-x,-z
-x,-y,-z
y,-x,-z
x,y,-z
-y,x,-z
-x,y,z
x,-y,z
-y,-x,z
y,x,z
loop_
_atom_site_type_symbol
_atom_site_label
_atom_site_fract_x
_atom_site_fract_y
_atom_site_fract_z
Si Si1 0.564342 0.115054 0.718684
Si Si2 0.645743 0.162713 0.879058
Si Si3 0.852608 0.939267 0.126361
Si Si4 0.376511 0.715514 0.185592
Si Si5 0.564174 0.769156 0.619996
Si Si6 0.234104 0.147292 0.126424
Si Si7 0.565626 0.000000 0.381721
Si Si8 0.564478 0.654113 0.000000
O O1 0.500000 0.111167 0.747340
O O2 0.596716 0.128722 0.825653
O O3 0.575850 0.165475 0.637359
O O4 0.586210 0.056303 0.674616
O O5 0.641163 0.228359 0.870939
O O6 0.704358 0.146102 0.825856
O O7 0.643534 0.144167 0.000000
O O8 0.906102 0.906102 0.167822
O O9 0.796970 0.908326 0.163178
O O10 0.853243 0.000000 0.177580
O O11 0.854199 0.942276 0.000000
O O12 0.323441 0.676560 0.202223
O O13 0.402766 0.729355 0.300116
O O14 0.420507 0.687326 0.107019
O O15 0.582296 0.754656 0.500000
O O16 0.500000 0.756738 0.638183
O O17 0.200472 0.200472 0.169698
O O18 0.236712 0.151140 0.000000
O O19 0.500000 0.000000 0.386293
O O20 0.590282 0.000000 0.500000
O O21 0.500000 0.641735 0.000000
O O22 0.595803 0.595803 0.000000
#
# Coordination Sequence:
#
# PCOD8312210 Si02
#       8
#    16  16  16  16  16  16   8   8
#     4   9  18  30  44  65  86 107 142 182 218 265
#     4  10  18  29  42  61  85 117 148 175 221 262
#     4   8  13  21  32  48  69  94 128 170 211 244
#     4  10  19  30  46  68  91 116 149 187 220 261
#     4   9  17  30  47  67  91 116 143 178 224 273
#     4   8  14  24  38  52  71 103 144 181 205 238
#     4   9  16  30  51  65  77 103 138 178 220 257
#     4  10  20  33  48  68  92 117 149 185 222 268
#
# _framework density 15.173613
#
# number of rings (size 3 to 8) (size 9 to 14) (size 15 to 20)
#    0.000    2.929    0.714    2.143    0.000    3.643 
#    1.286    1.071    0.000    1.286    0.000    0.000 
#    0.000    0.000    0.000   13.286    0.000    0.000 
#
# Total GULP energy -1388136.441087 kJ/mol
# GULP energy per Si atom -12394.075367 kJ/mol
# Density = 1.513908 g / cm^3
# Si number density = 15.173613 Si / 1000 Ang^3
#
#
#
# Elastic Constant Matrix: (Units=GPa)
#
#
# Indices 1 2 3 4 5 6 
#
# 1 104.8202 49.8100 38.4201 0.0000 0.0000 0.0000
# 2 49.8100 104.8202 38.4201 0.0000 0.0000 0.0000
# 3 38.4201 38.4201 70.6651 0.0000 0.0000 0.0000
# 4 0.0000 0.0000 0.0000 10.1297 0.0000 0.0000
# 5 0.0000 0.0000 0.0000 0.0000 10.1297 0.0000
# 6 0.0000 0.0000 0.0000 0.0000 0.0000 17.1357
#
#
#
# Elastic Compliance Matrix: (Units=1/GPa)
#
#
# Indices 1 2 3 4 5 6 
#
# 1 0.013520 -0.004659 -0.004818 0.000000 0.000000 0.000000
# 2 -0.004659 0.013520 -0.004818 0.000000 0.000000 0.000000
# 3 -0.004818 -0.004818 0.019390 0.000000 0.000000 0.000000
# 4 0.000000 0.000000 0.000000 0.098720 0.000000 0.000000
# 5 0.000000 0.000000 0.000000 0.000000 0.098720 0.000000
# 6 0.000000 0.000000 0.000000 0.000000 0.000000 0.058358
#
#
# Mechanical properties :
#
#
# Convention : Reuss Voigt Hill
#
# Bulk Modulus (GPa) = 56.04969 59.28953 57.66961
# Shear Modulus (GPa) = 14.84729 17.72271 16.28500
#
# Velocity S-wave (km/s) = 3.13148 3.42130 3.27960
# Velocity P-wave (km/s) = 7.07771 7.40041 7.24086
#
# Compressibility (1/GPa) = 0.01784131
#
# Stress axis : x y z
#
# Youngs Moduli (GPa) = 73.96572 73.96572 51.57311
#
# Poissons Ratio (x) = 0.34458 0.24846
# Poissons Ratio (y) = 0.34458 0.24846
# Poissons Ratio (z) = 0.35635 0.35635
#
# Static dielectric constant tensor:
#      x y z
#    x 3.014660 0.000000 0.000000 
#    y 0.000000 3.014660 0.000000 
#    z 0.000000 0.000000 2.631450 
# 
# 
# High freq. dielectric constant tensor:
#      x y z
#    x 1.580990 0.000000 0.000000 
#    y 0.000000 1.580990 0.000000 
#    z 0.000000 0.000000 1.543000 
# 
# From -- ./inp_files/3473.got.cif
#   From: 2010.03.12/outbox.cif.g09.slc.cpg/sg123_2_cif.got.tgz:3473.got - 2010.04.06 16:26:55.
