data_PCOD8312150
_publ_section_title
;
Structure prediction by ZEFSAII (Michael W. Deem and Ramdas Pophale) SiO2 
 PCOD8312150
Probable space group: P 4/M M M
;
_chemical_formula_sum "Si O2"
_cell_formula_units_Z 84
_cell_length_a 20.322960
_cell_length_b 20.322960
_cell_length_c 12.197130
_cell_angle_alpha 90.000000
_cell_angle_beta 90.000000
_cell_angle_gamma 90.000000
_cell_volume 5037.691603
_symmetry_space_group_name_H-M "P 4/M M M"
_symmetry_group_IT_number 123
_symmetry_cell_setting 'tetragonal'
loop_
_space_group_symop_operation_xyz
x,y,z
-y,x,z
-x,-y,z
y,-x,z
x,-y,-z
-x,y,-z
y,x,-z
-y,-x,-z
-x,-y,-z
y,-x,-z
x,y,-z
-y,x,-z
-x,y,z
x,-y,z
-y,-x,z
y,x,z
loop_
_atom_site_type_symbol
_atom_site_label
_atom_site_fract_x
_atom_site_fract_y
_atom_site_fract_z
Si Si1 0.773981 0.500000 0.000000
Si Si2 0.183521 0.075760 0.222196
Si Si3 0.500000 0.607362 0.617540
Si Si4 0.155750 0.734050 0.622813
Si Si5 0.352744 0.754737 0.236287
Si Si6 0.641552 0.189503 0.000000
Si Si7 0.257950 0.924231 0.000000
Si Si8 0.277224 0.500000 0.770338
O O1 0.822254 0.437214 0.000000
O O2 0.722415 0.500000 0.900941
O O3 0.117537 0.117537 0.239248
O O4 0.237821 0.091815 0.314980
O O5 0.163368 0.000000 0.231574
O O6 0.214029 0.093126 0.104695
O O7 0.435256 0.564745 0.622028
O O8 0.500000 0.646516 0.500000
O O9 0.500000 0.649859 0.725828
O O10 0.135954 0.711593 0.500000
O O11 0.209257 0.790744 0.618456
O O12 0.185489 0.673105 0.689582
O O13 0.313969 0.686032 0.263267
O O14 0.339039 0.769534 0.108259
O O15 0.430454 0.754432 0.268177
O O16 0.676150 0.118897 0.000000
O O17 0.280589 0.000000 0.000000
#
# Coordination Sequence:
#
# PCOD8312150 Si02
#       8
#     4  16   8  16  16   8   8   8
#     4   8  20  32  47  73 102 130 160 204 256 306
#     4  10  20  33  51  76 105 136 167 200 239 285
#     4   9  18  32  48  64  87 127 173 209 245 295
#     4   9  18  32  49  71  97 125 164 211 251 289
#     4  10  19  30  49  73  97 131 167 204 253 302
#     4  10  17  32  51  72 101 130 166 205 249 301
#     4  10  19  31  52  79 104 132 169 205 241 292
#     4  10  19  32  47  70 102 128 160 209 256 306
#
# _framework density 16.674302999999998
#
# number of rings (size 3 to 8) (size 9 to 14) (size 15 to 20)
#    0.000    2.381    1.905    1.429    0.000    2.095 
#    0.000    3.571    0.000    2.286    0.000    3.333 
#    0.000    1.524    0.000    0.000    0.000    0.000 
#
# Total GULP energy -1040987.311075 kJ/mol
# GULP energy per Si atom -12392.706084 kJ/mol
# Density = 1.663635 g / cm^3
# Si number density = 16.674303 Si / 1000 Ang^3
#
#
#
# Elastic Constant Matrix: (Units=GPa)
#
#
# Indices 1 2 3 4 5 6 
#
# 1 92.8430 59.2710 45.2149 0.0000 0.0000 0.0000
# 2 59.2710 92.8430 45.2149 0.0000 0.0000 0.0000
# 3 45.2149 45.2149 111.4621 0.0000 0.0000 0.0000
# 4 0.0000 0.0000 0.0000 18.2962 0.0000 0.0000
# 5 0.0000 0.0000 0.0000 0.0000 18.2962 0.0000
# 6 0.0000 0.0000 0.0000 0.0000 0.0000 17.2547
#
#
#
# Elastic Compliance Matrix: (Units=1/GPa)
#
#
# Indices 1 2 3 4 5 6 
#
# 1 0.019225 -0.010562 -0.003514 0.000000 0.000000 0.000000
# 2 -0.010562 0.019225 -0.003514 0.000000 0.000000 0.000000
# 3 -0.003514 -0.003514 0.011823 0.000000 0.000000 0.000000
# 4 0.000000 0.000000 0.000000 0.054656 0.000000 0.000000
# 5 0.000000 0.000000 0.000000 0.000000 0.054656 0.000000
# 6 0.000000 0.000000 0.000000 0.000000 0.000000 0.057955
#
#
# Mechanical properties :
#
#
# Convention : Reuss Voigt Hill
#
# Bulk Modulus (GPa) = 66.25948 66.28331 66.27140
# Shear Modulus (GPa) = 19.39852 20.59923 19.99888
#
# Velocity S-wave (km/s) = 3.41453 3.51862 3.46697
# Velocity P-wave (km/s) = 7.44104 7.50638 7.47378
#
# Compressibility (1/GPa) = 0.01509218
#
# Stress axis : x y z
#
# Youngs Moduli (GPa) = 52.01576 52.01576 84.58242
#
# Poissons Ratio (x) = 0.54938 0.29724
# Poissons Ratio (y) = 0.54938 0.29724
# Poissons Ratio (z) = 0.18280 0.18280
#
# Static dielectric constant tensor:
#      x y z
#    x 3.033150 0.000000 0.000000 
#    y 0.000000 3.033150 0.000000 
#    z 0.000000 0.000000 3.431040 
# 
# 
# High freq. dielectric constant tensor:
#      x y z
#    x 1.627460 0.000000 0.000000 
#    y 0.000000 1.627460 0.000000 
#    z 0.000000 0.000000 1.653570 
# 
# From -- ./inp_files/3107.got.cif
#   From: 2010.03.12/outbox.cif.g09.slc.cpg/sg123_2_cif.got.tgz:3107.got - 2010.04.06 16:26:55.
