data_PCOD8312061
_publ_section_title
;
Structure prediction by ZEFSAII (Michael W. Deem and Ramdas Pophale) SiO2 
 PCOD8312061
Probable space group: I -4 2 D
;
_chemical_formula_sum "Si O2"
_cell_formula_units_Z 112
_cell_length_a 14.865414
_cell_length_b 14.865414
_cell_length_c 21.439165
_cell_angle_alpha 90.000000
_cell_angle_beta 90.000000
_cell_angle_gamma 90.000000
_cell_volume 4737.638117
_symmetry_space_group_name_H-M "I -4 2 D"
_symmetry_group_IT_number 122
_symmetry_cell_setting 'tetragonal'
loop_
_space_group_symop_operation_xyz
x,y,z
y,-x,-z
-x,-y,z
-y,x,-z
x,1/2-y,1/4-z
-x,1/2+y,1/4-z
-y,1/2-x,1/4+z
y,1/2+x,1/4+z
1/2+x,1/2+y,1/2+z
1/2+y,1/2-x,1/2-z
1/2-x,1/2-y,1/2+z
1/2-y,1/2+x,1/2-z
1/2+x,-y,3/4-z
1/2-x,y,3/4-z
1/2-y,-x,3/4+z
1/2+y,x,3/4+z
loop_
_atom_site_type_symbol
_atom_site_label
_atom_site_fract_x
_atom_site_fract_y
_atom_site_fract_z
Si Si1 0.366251 0.082420 0.479067
Si Si2 0.487740 0.098287 0.898008
Si Si3 0.941415 0.874848 0.507559
Si Si4 0.009365 0.778895 0.316485
Si Si5 0.220870 0.298817 0.806445
Si Si6 0.903794 0.211451 0.189241
Si Si7 0.914039 0.655868 0.609849
O O1 0.402381 0.065341 0.548833
O O2 0.426144 0.151132 0.437187
O O3 0.272285 0.133718 0.490105
O O4 0.353433 0.985684 0.445928
O O5 0.489691 0.183863 0.851122
O O6 0.395236 0.102614 0.935667
O O7 0.500000 0.000000 0.863701
O O8 0.884252 0.807379 0.463528
O O9 0.971819 0.846200 0.576457
O O10 0.034188 0.889165 0.472547
O O11 0.035026 0.753955 0.245601
O O12 0.088796 0.831532 0.350734
O O13 0.250000 0.332814 0.875000
O O14 0.251453 0.195942 0.798737
O O15 0.944449 0.250000 0.125000
O O16 0.863850 0.750000 0.625000
#
# Coordination Sequence:
#
# PCOD8312061 Si02
#       7
#    16  16  16  16  16  16  16
#     4  12  24  48  75 111 155 206 254 319 404 474
#     4  12  26  52  78 113 158 204 266 337 398 482
#     4  11  25  36  57 100 145 187 240 297 353 452
#     4  12  26  46  83 107 154 208 254 325 398 468
#     4  11  24  42  70 102 147 198 251 305 387 461
#     4  11  25  51  74 110 152 193 261 323 384 474
#     4  12  25  42  69 108 157 198 249 310 381 477
#
# _framework density 23.640473
#
# number of rings (size 3 to 8) (size 9 to 14) (size 15 to 20)
#    0.000    0.429    2.857    6.000   10.000    0.000 
#    5.143    0.714    0.000    0.000    0.000    0.000 
#    0.000    0.000    0.000    0.000    0.000    0.000 
#
# Total GULP energy -693751.291747 kJ/mol
# GULP energy per Si atom -12388.415924 kJ/mol
# Density = 2.358667 g / cm^3
# Si number density = 23.640473 Si / 1000 Ang^3
#
#
#
# Elastic Constant Matrix: (Units=GPa)
#
#
# Indices 1 2 3 4 5 6 
#
# 1 106.2930 19.6007 27.9788 0.0000 0.0000 0.0000
# 2 19.6007 106.2930 27.9788 0.0000 0.0000 0.0000
# 3 27.9788 27.9788 114.9074 0.0000 0.0000 0.0000
# 4 0.0000 0.0000 0.0000 34.7087 0.0000 0.0000
# 5 0.0000 0.0000 0.0000 0.0000 34.7087 0.0000
# 6 0.0000 0.0000 0.0000 0.0000 0.0000 29.2813
#
#
#
# Elastic Compliance Matrix: (Units=1/GPa)
#
#
# Indices 1 2 3 4 5 6 
#
# 1 0.010221 -0.001314 -0.002169 0.000000 0.000000 0.000000
# 2 -0.001314 0.010221 -0.002169 0.000000 0.000000 0.000000
# 3 -0.002169 -0.002169 0.009759 0.000000 0.000000 0.000000
# 4 0.000000 0.000000 0.000000 0.028811 0.000000 0.000000
# 5 0.000000 0.000000 0.000000 0.000000 0.028811 0.000000
# 6 0.000000 0.000000 0.000000 0.000000 0.000000 0.034151
#
#
# Mechanical properties :
#
#
# Convention : Reuss Voigt Hill
#
# Bulk Modulus (GPa) = 52.91571 53.17891 53.04731
# Shear Modulus (GPa) = 35.82240 36.53541 36.17890
#
# Velocity S-wave (km/s) = 3.89691 3.93550 3.91625
# Velocity P-wave (km/s) = 6.53299 6.57226 6.55265
#
# Compressibility (1/GPa) = 0.01889798
#
# Stress axis : x y z
#
# Youngs Moduli (GPa) = 97.83657 97.83657 102.47130
#
# Poissons Ratio (x) = 0.12855 0.22224
# Poissons Ratio (y) = 0.12855 0.22224
# Poissons Ratio (z) = 0.21219 0.21219
#
# Static dielectric constant tensor:
#      x y z
#    x 4.554200 0.000000 0.000000 
#    y 0.000000 4.554200 0.000000 
#    z 0.000000 0.000000 3.919820 
# 
# 
# High freq. dielectric constant tensor:
#      x y z
#    x 1.939250 0.000000 0.000000 
#    y 0.000000 1.939250 0.000000 
#    z 0.000000 0.000000 1.931290 
# 
# From -- ./inp_files/8132.got.cif
#   From: 2010.03.12/outbox.cif.g09.slc.cpg/sg122_5_cif.got.tgz:8132.got - 2010.04.06 16:17:16.
