data_PCOD8312107
_publ_section_title
;
Structure prediction by ZEFSAII (Michael W. Deem and Ramdas Pophale) SiO2 
 PCOD8312107
Probable space group: I -4 2 D
;
_chemical_formula_sum "Si O2"
_cell_formula_units_Z 36
_cell_length_a 9.995231
_cell_length_b 9.995231
_cell_length_c 15.142993
_cell_angle_alpha 90.000000
_cell_angle_beta 90.000000
_cell_angle_gamma 90.000000
_cell_volume 1512.855306
_symmetry_space_group_name_H-M "I -4 2 D"
_symmetry_group_IT_number 122
_symmetry_cell_setting 'tetragonal'
loop_
_space_group_symop_operation_xyz
x,y,z
y,-x,-z
-x,-y,z
-y,x,-z
x,1/2-y,1/4-z
-x,1/2+y,1/4-z
-y,1/2-x,1/4+z
y,1/2+x,1/4+z
1/2+x,1/2+y,1/2+z
1/2+y,1/2-x,1/2-z
1/2-x,1/2-y,1/2+z
1/2-y,1/2+x,1/2-z
1/2+x,-y,3/4-z
1/2-x,y,3/4-z
1/2-y,-x,3/4+z
1/2+y,x,3/4+z
loop_
_atom_site_type_symbol
_atom_site_label
_atom_site_fract_x
_atom_site_fract_y
_atom_site_fract_z
Si Si1 0.599844 0.612950 0.338611
Si Si2 0.608193 0.325750 0.860565
Si Si3 0.500000 0.500000 0.000000
O O1 0.500000 0.500000 0.376311
O O2 0.750000 0.600404 0.375000
O O3 0.604633 0.603102 0.233786
O O4 0.529666 0.746787 0.374015
O O5 0.750000 0.244902 0.875000
O O6 0.614596 0.438656 0.936744
#
# Coordination Sequence:
#
# PCOD8312107 Si02
#       3
#    16  16   4
#     4  12  30  48  80 114 163 211 269 338 416 496
#     4  12  27  49  79 114 158 209 274 338 408 494
#     4  12  24  48  80 112 150 212 272 340 408 488
#
# _framework density 23.796064999999999
#
# number of rings (size 3 to 8) (size 9 to 14) (size 15 to 20)
#    0.000    0.000    6.667    1.333   12.444    1.778 
#    0.000    0.000    0.000    0.000    0.000    0.000 
#    0.000    0.000    0.000    0.000    0.000    0.000 
#
# Total GULP energy -223070.797285 kJ/mol
# GULP energy per Si atom -12392.822071 kJ/mol
# Density = 2.374190 g / cm^3
# Si number density = 23.796065 Si / 1000 Ang^3
#
#
#
# Elastic Constant Matrix: (Units=GPa)
#
#
# Indices 1 2 3 4 5 6 
#
# 1 154.0658 58.8730 47.2475 0.0000 0.0000 0.0000
# 2 58.8730 154.0658 47.2475 0.0000 0.0000 0.0000
# 3 47.2475 47.2475 121.8412 0.0000 0.0000 0.0000
# 4 0.0000 0.0000 0.0000 34.5647 0.0000 0.0000
# 5 0.0000 0.0000 0.0000 0.0000 34.5647 0.0000
# 6 0.0000 0.0000 0.0000 0.0000 0.0000 49.3668
#
#
#
# Elastic Compliance Matrix: (Units=1/GPa)
#
#
# Indices 1 2 3 4 5 6 
#
# 1 0.008089 -0.002416 -0.002200 0.000000 0.000000 0.000000
# 2 -0.002416 0.008089 -0.002200 0.000000 0.000000 0.000000
# 3 -0.002200 -0.002200 0.009913 0.000000 0.000000 0.000000
# 4 0.000000 0.000000 0.000000 0.028931 0.000000 0.000000
# 5 0.000000 0.000000 0.000000 0.000000 0.028931 0.000000
# 6 0.000000 0.000000 0.000000 0.000000 0.000000 0.020257
#
#
# Mechanical properties :
#
#
# Convention : Reuss Voigt Hill
#
# Bulk Modulus (GPa) = 80.25993 81.85651 81.05822
# Shear Modulus (GPa) = 40.98562 42.13953 41.56258
#
# Velocity S-wave (km/s) = 4.15465 4.21273 4.18379
# Velocity P-wave (km/s) = 7.53765 7.62474 7.58132
#
# Compressibility (1/GPa) = 0.01245952
#
# Stress axis : x y z
#
# Youngs Moduli (GPa) = 123.63012 123.63012 100.87434
#
# Poissons Ratio (x) = 0.29873 0.22188
# Poissons Ratio (y) = 0.29873 0.22188
# Poissons Ratio (z) = 0.27194 0.27194
#
# Static dielectric constant tensor:
#      x y z
#    x 4.371630 0.000000 0.000000 
#    y 0.000000 4.371630 0.000000 
#    z 0.000000 0.000000 4.371490 
# 
# 
# High freq. dielectric constant tensor:
#      x y z
#    x 1.945880 0.000000 0.000000 
#    y 0.000000 1.945880 0.000000 
#    z 0.000000 0.000000 1.958080 
# 
# From -- ./inp_files/3351.got.cif
#   From: 2010.03.12/outbox.cif.g09.slc.cpg/sg122_2_cif.got.tgz:3351.got - 2010.04.06 16:17:16.
