data_PCOD8312246
_publ_section_title
;
Structure prediction by ZEFSAII (Michael W. Deem and Ramdas Pophale) SiO2 
 PCOD8312246
Probable space group: P 4/M M M
;
_chemical_formula_sum "Si O2"
_cell_formula_units_Z 96
_cell_length_a 14.925716
_cell_length_b 14.925716
_cell_length_c 27.692931
_cell_angle_alpha 90.000000
_cell_angle_beta 90.000000
_cell_angle_gamma 90.000000
_cell_volume 6169.348037
_symmetry_space_group_name_H-M "P 4/M M M"
_symmetry_group_IT_number 123
_symmetry_cell_setting 'tetragonal'
loop_
_space_group_symop_operation_xyz
x,y,z
-y,x,z
-x,-y,z
y,-x,z
x,-y,-z
-x,y,-z
y,x,-z
-y,-x,-z
-x,-y,-z
y,-x,-z
x,y,-z
-y,x,-z
-x,y,z
x,-y,z
-y,-x,z
y,x,z
loop_
_atom_site_type_symbol
_atom_site_label
_atom_site_fract_x
_atom_site_fract_y
_atom_site_fract_z
Si Si1 0.000000 0.607754 0.942009
Si Si2 0.600426 0.729791 0.000000
Si Si3 0.816779 0.677329 0.093997
Si Si4 0.604363 0.249716 0.807404
Si Si5 0.396933 0.252078 0.444610
Si Si6 0.099667 0.393675 0.734111
Si Si7 0.900747 0.393597 0.625817
O O1 0.078928 0.662573 0.915839
O O2 0.000000 0.500000 0.930520
O O3 0.000000 0.621490 0.000000
O O4 0.641917 0.770220 0.046958
O O5 0.500000 0.755904 0.000000
O O6 0.623078 0.623078 0.000000
O O7 0.780942 0.780942 0.101955
O O8 0.786893 0.616803 0.138812
O O9 0.500000 0.270687 0.798111
O O10 0.658838 0.341163 0.798638
O O11 0.643022 0.173923 0.771079
O O12 0.386795 0.221671 0.500000
O O13 0.500000 0.273056 0.431667
O O14 0.342304 0.342304 0.433807
O O15 0.356545 0.172070 0.411976
O O16 0.098322 0.500000 0.736557
O O17 0.124573 0.361835 0.679929
O O18 0.000000 0.357795 0.748092
O O19 0.901838 0.500000 0.623347
O O20 0.000000 0.357378 0.612070
#
# Coordination Sequence:
#
# PCOD8312246 Si02
#       7
#     8   8  16  16  16  16  16
#     4  11  20  30  52  77  93 117 157 196 231 275
#     4  10  18  30  45  61  88 120 150 184 222 266
#     4  10  21  34  47  68  97 123 147 187 238 279
#     4  10  20  32  46  66  93 124 156 187 221 264
#     4   9  17  27  39  58  85 118 154 187 218 256
#     4   8  15  28  45  64  85 110 142 183 229 269
#     4   8  14  26  43  61  82 109 142 183 230 271
#
# _framework density 15.560802000000001
#
# number of rings (size 3 to 8) (size 9 to 14) (size 15 to 20)
#    0.000    2.750    0.833    2.500    1.167    1.417 
#    0.000    2.500    0.000    3.250    0.000    5.250 
#    0.000    0.667    0.000    5.500    0.000    3.167 
#
# Total GULP energy -1189256.606433 kJ/mol
# GULP energy per Si atom -12388.089650 kJ/mol
# Density = 1.552539 g / cm^3
# Si number density = 15.560802 Si / 1000 Ang^3
#
#
#
# Elastic Constant Matrix: (Units=GPa)
#
#
# Indices 1 2 3 4 5 6 
#
# 1 80.8562 52.0970 42.2314 0.0000 0.0000 0.0000
# 2 52.0970 80.8562 42.2314 0.0000 0.0000 0.0000
# 3 42.2314 42.2314 95.8141 0.0000 0.0000 0.0000
# 4 0.0000 0.0000 0.0000 25.7104 0.0000 0.0000
# 5 0.0000 0.0000 0.0000 0.0000 25.7104 0.0000
# 6 0.0000 0.0000 0.0000 0.0000 0.0000 765.7256
#
#
#
# Elastic Compliance Matrix: (Units=1/GPa)
#
#
# Indices 1 2 3 4 5 6 
#
# 1 0.022609 -0.012162 -0.004604 0.000000 0.000000 0.000000
# 2 -0.012162 0.022609 -0.004604 0.000000 0.000000 0.000000
# 3 -0.004604 -0.004604 0.014496 0.000000 0.000000 0.000000
# 4 0.000000 0.000000 0.000000 0.038895 0.000000 0.000000
# 5 0.000000 0.000000 0.000000 0.000000 0.038895 0.000000
# 6 0.000000 0.000000 0.000000 0.000000 0.000000 0.001306
#
#
# Mechanical properties :
#
#
# Convention : Reuss Voigt Hill
#
# Bulk Modulus (GPa) = 58.92366 58.96068 58.94217
# Shear Modulus (GPa) = 26.70809 171.49373 99.10091
#
# Velocity S-wave (km/s) = 4.14740 10.50943 7.98902
# Velocity P-wave (km/s) = 7.80279 13.61017 11.09325
#
# Compressibility (1/GPa) = 0.01697111
#
# Stress axis : x y z
#
# Youngs Moduli (GPa) = 44.23009 44.23009 68.98521
#
# Poissons Ratio (x) = 0.53795 0.31764
# Poissons Ratio (y) = 0.53795 0.31764
# Poissons Ratio (z) = 0.20366 0.20366
#
# Static dielectric constant tensor:
#      x y z
#    x 4.593060 0.000000 0.000000 
#    y 0.000000 4.593060 0.000000 
#    z 0.000000 0.000000 3.162930 
# 
# 
# High freq. dielectric constant tensor:
#      x y z
#    x 1.574280 0.000000 0.000000 
#    y 0.000000 1.574280 0.000000 
#    z 0.000000 0.000000 1.610090 
# 
# From -- ./inp_files/8064.got.cif
#   From: 2010.03.12/outbox.cif.g09.slc.cpg/sg123_5_cif.got.tgz:8064.got - 2010.04.06 16:26:55.
