data_PCOD8312624
_publ_section_title
;
Structure prediction by ZEFSAII (Michael W. Deem and Ramdas Pophale) SiO2 
 PCOD8312624
Probable space group: P 4/M M M
;
_chemical_formula_sum "Si O2"
_cell_formula_units_Z 80
_cell_length_a 17.794251
_cell_length_b 17.794251
_cell_length_c 13.323360
_cell_angle_alpha 90.000000
_cell_angle_beta 90.000000
_cell_angle_gamma 90.000000
_cell_volume 4218.647005
_symmetry_space_group_name_H-M "P 4/M M M"
_symmetry_group_IT_number 123
_symmetry_cell_setting 'tetragonal'
loop_
_space_group_symop_operation_xyz
x,y,z
-y,x,z
-x,-y,z
y,-x,z
x,-y,-z
-x,y,-z
y,x,-z
-y,-x,-z
-x,-y,-z
y,-x,-z
x,y,-z
-y,x,-z
-x,y,z
x,-y,z
-y,-x,z
y,x,z
loop_
_atom_site_type_symbol
_atom_site_label
_atom_site_fract_x
_atom_site_fract_y
_atom_site_fract_z
Si Si1 0.858430 0.362657 0.386249
Si Si2 0.915234 0.585297 0.188236
Si Si3 0.648960 0.768100 0.886685
Si Si4 0.916492 0.200551 0.381454
Si Si5 0.705314 0.585988 0.692383
O O1 0.884901 0.379773 0.500000
O O2 0.904610 0.414640 0.309100
O O3 0.874039 0.277122 0.354517
O O4 0.769883 0.377308 0.376012
O O5 0.899819 0.500000 0.150968
O O6 0.857623 0.644196 0.136119
O O7 0.000000 0.609620 0.160288
O O8 0.733675 0.733675 0.871750
O O9 0.592797 0.726436 0.810199
O O10 0.621494 0.752886 0.000000
O O11 0.922347 0.192020 0.500000
O O12 0.868574 0.131427 0.336023
O O13 0.000000 0.199834 0.333685
O O14 0.694483 0.500000 0.662902
O O15 0.627832 0.627832 0.668204
#
# Coordination Sequence:
#
# PCOD8312624 Si02
#       5
#    16  16  16  16  16
#     4  10  19  33  51  69  95 132 173 211 245 290
#     4  10  21  34  49  75 107 134 164 204 253 307
#     4   9  18  34  55  76 100 132 169 206 243 293
#     4   9  17  28  43  64  89 119 155 194 237 282
#     4  10  21  35  52  75  99 126 164 208 256 310
#
# _framework density 18.963425999999998
#
# number of rings (size 3 to 8) (size 9 to 14) (size 15 to 20)
#    0.000    2.400    0.000    3.600    0.000    7.200 
#    0.000    3.000    0.000    0.000    0.000    4.200 
#    0.000    0.400    0.000    2.200    0.000    0.000 
#
# Total GULP energy -991539.761619 kJ/mol
# GULP energy per Si atom -12394.247020 kJ/mol
# Density = 1.892026 g / cm^3
# Si number density = 18.963426 Si / 1000 Ang^3
#
#
#
# Elastic Constant Matrix: (Units=GPa)
#
#
# Indices 1 2 3 4 5 6 
#
# 1 118.1236 93.1333 5.8577 0.0000 0.0000 0.0000
# 2 93.1333 118.1236 5.8577 0.0000 0.0000 0.0000
# 3 5.8577 5.8577 49.3540 0.0000 0.0000 0.0000
# 4 0.0000 0.0000 0.0000 15.3712 0.0000 0.0000
# 5 0.0000 0.0000 0.0000 0.0000 15.3712 0.0000
# 6 0.0000 0.0000 0.0000 0.0000 0.0000 31.9797
#
#
#
# Elastic Compliance Matrix: (Units=1/GPa)
#
#
# Indices 1 2 3 4 5 6 
#
# 1 0.022390 -0.017625 -0.000566 0.000000 0.000000 0.000000
# 2 -0.017625 0.022390 -0.000566 0.000000 0.000000 0.000000
# 3 -0.000566 -0.000566 0.020396 0.000000 0.000000 0.000000
# 4 0.000000 0.000000 0.000000 0.065057 0.000000 0.000000
# 5 0.000000 0.000000 0.000000 0.000000 0.065057 0.000000
# 6 0.000000 0.000000 0.000000 0.000000 0.000000 0.031270
#
#
# Mechanical properties :
#
#
# Convention : Reuss Voigt Hill
#
# Bulk Modulus (GPa) = 36.14839 55.03318 45.59079
# Shear Modulus (GPa) = 18.29532 24.59458 21.44495
#
# Velocity S-wave (km/s) = 3.10944 3.60522 3.36647
# Velocity P-wave (km/s) = 5.65642 6.81277 6.26135
#
# Compressibility (1/GPa) = 0.02766375
#
# Stress axis : x y z
#
# Youngs Moduli (GPa) = 44.66228 44.66228 49.02917
#
# Poissons Ratio (x) = 0.78719 0.02773
# Poissons Ratio (y) = 0.78719 0.02773
# Poissons Ratio (z) = 0.02526 0.02526
#
# Static dielectric constant tensor:
#      x y z
#    x 3.520220 0.000000 0.000000 
#    y 0.000000 3.520220 0.000000 
#    z 0.000000 0.000000 3.351700 
# 
# 
# High freq. dielectric constant tensor:
#      x y z
#    x 1.729840 0.000000 0.000000 
#    y 0.000000 1.729840 0.000000 
#    z 0.000000 0.000000 1.711660 
# 
# From -- ./inp_files/3897.got.cif
#   From: 2010.03.12/outbox.cif.g09.slc.cpg/sg123_2_cif.got.tgz:3897.got - 2010.04.06 16:26:55.
