data_PCOD8312968
_publ_section_title
;
Structure prediction by ZEFSAII (Michael W. Deem and Ramdas Pophale) SiO2 
 PCOD8312968
Probable space group: P 4/M M M
;
_chemical_formula_sum "Si O2"
_cell_formula_units_Z 72
_cell_length_a 14.218800
_cell_length_b 14.218800
_cell_length_c 22.648293
_cell_angle_alpha 90.000000
_cell_angle_beta 90.000000
_cell_angle_gamma 90.000000
_cell_volume 4578.902182
_symmetry_space_group_name_H-M "P 4/M M M"
_symmetry_group_IT_number 123
_symmetry_cell_setting 'tetragonal'
loop_
_space_group_symop_operation_xyz
x,y,z
-y,x,z
-x,-y,z
y,-x,z
x,-y,-z
-x,y,-z
y,x,-z
-y,-x,-z
-x,-y,-z
y,-x,-z
x,y,-z
-y,x,-z
-x,y,z
x,-y,z
-y,-x,z
y,x,z
loop_
_atom_site_type_symbol
_atom_site_label
_atom_site_fract_x
_atom_site_fract_y
_atom_site_fract_z
Si Si1 0.112801 0.395194 0.126478
Si Si2 0.611944 0.103192 0.000000
Si Si3 0.892830 0.743321 0.225346
Si Si4 0.108942 0.262695 0.359847
Si Si5 0.759776 0.392216 0.569115
O O1 0.150225 0.500000 0.139082
O O2 0.151305 0.331461 0.179706
O O3 0.000000 0.395318 0.124414
O O4 0.152639 0.358513 0.062265
O O5 0.500000 0.093635 0.000000
O O6 0.658285 0.000000 0.000000
O O7 0.842016 0.842016 0.217241
O O8 0.881038 0.705178 0.291838
O O9 0.000000 0.763404 0.209527
O O10 0.166141 0.166141 0.372105
O O11 0.150269 0.347770 0.398361
O O12 0.000000 0.245233 0.376796
O O13 0.780736 0.385858 0.500000
O O14 0.745789 0.500000 0.589355
O O15 0.665149 0.334852 0.585710
#
# Coordination Sequence:
#
# PCOD8312968 Si02
#       5
#    16   8  16  16  16
#     4   8  13  22  37  56  76  98 127 165 207 246
#     4   7  10  18  33  52  73  97 125 159 201 245
#     4   9  17  28  41  58  81 109 140 171 203 242
#     4   9  18  31  45  62  85 113 146 183 219 255
#     4   9  18  32  49  69  92 116 141 170 206 251
#
# _framework density 15.724292
#
# number of rings (size 3 to 8) (size 9 to 14) (size 15 to 20)
#    0.000    3.444    0.000    1.333    0.000    2.444 
#    0.000    7.222    0.000    0.000    0.000    3.111 
#    0.000    4.889    0.000    0.000    0.000    6.222 
#
# Total GULP energy -892077.145237 kJ/mol
# GULP energy per Si atom -12389.960351 kJ/mol
# Density = 1.568850 g / cm^3
# Si number density = 15.724292 Si / 1000 Ang^3
#
#
#
# Elastic Constant Matrix: (Units=GPa)
#
#
# Indices 1 2 3 4 5 6 
#
# 1 82.1475 38.8931 46.9564 0.0000 0.0000 0.0000
# 2 38.8931 82.1475 46.9564 0.0000 0.0000 0.0000
# 3 46.9564 46.9564 75.5063 0.0000 0.0000 0.0000
# 4 0.0000 0.0000 0.0000 20.3463 0.0000 0.0000
# 5 0.0000 0.0000 0.0000 0.0000 20.3463 0.0000
# 6 0.0000 0.0000 0.0000 0.0000 0.0000 10.1982
#
#
#
# Elastic Compliance Matrix: (Units=1/GPa)
#
#
# Indices 1 2 3 4 5 6 
#
# 1 0.019542 -0.003577 -0.009928 0.000000 0.000000 0.000000
# 2 -0.003577 0.019542 -0.009928 0.000000 0.000000 0.000000
# 3 -0.009928 -0.009928 0.025593 0.000000 0.000000 0.000000
# 4 0.000000 0.000000 0.000000 0.049149 0.000000 0.000000
# 5 0.000000 0.000000 0.000000 0.000000 0.049149 0.000000
# 6 0.000000 0.000000 0.000000 0.000000 0.000000 0.098057
#
#
# Mechanical properties :
#
#
# Convention : Reuss Voigt Hill
#
# Bulk Modulus (GPa) = 56.15168 56.15702 56.15435
# Shear Modulus (GPa) = 15.93195 17.31119 16.62157
#
# Velocity S-wave (km/s) = 3.18654 3.32161 3.25478
# Velocity P-wave (km/s) = 7.02328 7.10647 7.06499
#
# Compressibility (1/GPa) = 0.01780891
#
# Stress axis : x y z
#
# Youngs Moduli (GPa) = 51.17195 51.17195 39.07389
#
# Poissons Ratio (x) = 0.18305 0.38794
# Poissons Ratio (y) = 0.18305 0.38794
# Poissons Ratio (z) = 0.50805 0.50805
#
# Static dielectric constant tensor:
#      x y z
#    x 2.820800 0.000000 0.000000 
#    y 0.000000 2.820800 0.000000 
#    z 0.000000 0.000000 3.334420 
# 
# 
# High freq. dielectric constant tensor:
#      x y z
#    x 1.575510 0.000000 0.000000 
#    y 0.000000 1.575510 0.000000 
#    z 0.000000 0.000000 1.618210 
# 
# From -- ./inp_files/6273.got.cif
#   From: 2010.03.12/outbox.cif.g09.slc.cpg/sg123_4_cif.got.tgz:6273.got - 2010.04.06 16:26:55.
