data_PCOD8312366
_publ_section_title
;
Structure prediction by ZEFSAII (Michael W. Deem and Ramdas Pophale) SiO2 
 PCOD8312366
Probable space group: P 4/M M M
;
_chemical_formula_sum "Si O2"
_cell_formula_units_Z 112
_cell_length_a 15.957036
_cell_length_b 15.957036
_cell_length_c 27.773704
_cell_angle_alpha 90.000000
_cell_angle_beta 90.000000
_cell_angle_gamma 90.000000
_cell_volume 7071.934870
_symmetry_space_group_name_H-M "P 4/M M M"
_symmetry_group_IT_number 123
_symmetry_cell_setting 'tetragonal'
loop_
_space_group_symop_operation_xyz
x,y,z
-y,x,z
-x,-y,z
y,-x,z
x,-y,-z
-x,y,-z
y,x,-z
-y,-x,-z
-x,-y,-z
y,-x,-z
x,y,-z
-y,x,-z
-x,y,z
x,-y,z
-y,-x,z
y,x,z
loop_
_atom_site_type_symbol
_atom_site_label
_atom_site_fract_x
_atom_site_fract_y
_atom_site_fract_z
Si Si1 0.669979 0.191588 0.859015
Si Si2 0.908096 0.226037 0.208773
Si Si3 0.406209 0.727113 0.772278
Si Si4 0.596889 0.096145 0.385706
Si Si5 0.265055 0.596377 0.443224
Si Si6 0.834674 0.299038 0.299389
Si Si7 0.401145 0.093832 0.054109
O O1 0.746540 0.253461 0.869166
O O2 0.697470 0.112025 0.827000
O O3 0.599696 0.237610 0.826753
O O4 0.636048 0.162103 0.910038
O O5 0.848502 0.151499 0.194030
O O6 0.898611 0.250479 0.264706
O O7 0.000000 0.193250 0.199303
O O8 0.500000 0.712110 0.756708
O O9 0.362006 0.637995 0.769691
O O10 0.367086 0.788794 0.733251
O O11 0.500000 0.102332 0.369935
O O12 0.617299 0.171365 0.423359
O O13 0.656323 0.111466 0.340270
O O14 0.614246 0.000000 0.405331
O O15 0.257781 0.604639 0.500000
O O16 0.290712 0.500000 0.429031
O O17 0.336933 0.663068 0.424555
O O18 0.766543 0.233458 0.321273
O O19 0.500000 0.095542 0.058937
O O20 0.368567 0.000000 0.066108
O O21 0.373715 0.118613 0.000000
#
# Coordination Sequence:
#
# PCOD8312366 Si02
#       7
#    16  16  16  16  16  16  16
#     4   9  17  28  42  59  79 105 133 161 196 238
#     4   9  17  28  42  60  81 105 133 165 201 241
#     4   9  17  28  42  60  82 109 140 173 209 248
#     4  10  19  29  44  66  91 120 150 181 221 266
#     4   9  18  32  49  69  93 121 153 189 227 266
#     4   9  17  29  44  61  83 112 144 178 213 249
#     4   9  17  28  42  60  80 101 126 159 199 239
#
# _framework density 15.837249
#
# number of rings (size 3 to 8) (size 9 to 14) (size 15 to 20)
#    0.000    2.857    0.000    4.286    0.000    1.000 
#    0.000    2.143    0.000    6.857    0.000    2.000 
#    0.000    2.571    0.000   32.857    0.000    0.286 
#
# Total GULP energy -1387641.320257 kJ/mol
# GULP energy per Si atom -12389.654645 kJ/mol
# Density = 1.580120 g / cm^3
# Si number density = 15.837249 Si / 1000 Ang^3
#
#
#
# Elastic Constant Matrix: (Units=GPa)
#
#
# Indices 1 2 3 4 5 6 
#
# 1 79.7078 27.0273 16.5417 0.0000 0.0000 0.0000
# 2 27.0273 79.7078 16.5417 0.0000 0.0000 0.0000
# 3 16.5417 16.5417 41.6713 0.0000 0.0000 0.0000
# 4 0.0000 0.0000 0.0000 19.2855 0.0000 0.0000
# 5 0.0000 0.0000 0.0000 0.0000 19.2855 0.0000
# 6 0.0000 0.0000 0.0000 0.0000 0.0000 5.0413
#
#
#
# Elastic Compliance Matrix: (Units=1/GPa)
#
#
# Indices 1 2 3 4 5 6 
#
# 1 0.014833 -0.004149 -0.004241 0.000000 0.000000 0.000000
# 2 -0.004149 0.014833 -0.004241 0.000000 0.000000 0.000000
# 3 -0.004241 -0.004241 0.027364 0.000000 0.000000 0.000000
# 4 0.000000 0.000000 0.000000 0.051852 0.000000 0.000000
# 5 0.000000 0.000000 0.000000 0.000000 0.051852 0.000000
# 6 0.000000 0.000000 0.000000 0.000000 0.000000 0.198361
#
#
# Mechanical properties :
#
#
# Convention : Reuss Voigt Hill
#
# Bulk Modulus (GPa) = 31.47853 35.70092 33.58972
# Shear Modulus (GPa) = 12.65989 18.12087 15.39038
#
# Velocity S-wave (km/s) = 2.83039 3.38626 3.12073
# Velocity P-wave (km/s) = 5.53181 6.15470 5.85155
#
# Compressibility (1/GPa) = 0.03176769
#
# Stress axis : x y z
#
# Youngs Moduli (GPa) = 67.41761 67.41761 36.54403
#
# Poissons Ratio (x) = 0.27975 0.15498
# Poissons Ratio (y) = 0.27975 0.15498
# Poissons Ratio (z) = 0.28591 0.28591
#
# Static dielectric constant tensor:
#      x y z
#    x 3.033320 0.000000 0.000000 
#    y 0.000000 3.033320 0.000000 
#    z 0.000000 0.000000 3.016040 
# 
# 
# High freq. dielectric constant tensor:
#      x y z
#    x 1.602450 0.000000 0.000000 
#    y 0.000000 1.602450 0.000000 
#    z 0.000000 0.000000 1.598950 
# 
# From -- ./inp_files/8186.got.cif
#   From: 2010.03.12/outbox.cif.g09.slc.cpg/sg123_5_cif.got.tgz:8186.got - 2010.04.06 16:26:55.
