data_PCOD8312777
_publ_section_title
;
Structure prediction by ZEFSAII (Michael W. Deem and Ramdas Pophale) SiO2 
 PCOD8312777
Probable space group: P 4/M M M
;
_chemical_formula_sum "Si O2"
_cell_formula_units_Z 56
_cell_length_a 19.283488
_cell_length_b 19.283488
_cell_length_c 9.011927
_cell_angle_alpha 90.000000
_cell_angle_beta 90.000000
_cell_angle_gamma 90.000000
_cell_volume 3351.111275
_symmetry_space_group_name_H-M "P 4/M M M"
_symmetry_group_IT_number 123
_symmetry_cell_setting 'tetragonal'
loop_
_space_group_symop_operation_xyz
x,y,z
-y,x,z
-x,-y,z
y,-x,z
x,-y,-z
-x,y,-z
y,x,-z
-y,-x,-z
-x,-y,-z
y,-x,-z
x,y,-z
-y,x,-z
-x,y,z
x,-y,z
-y,-x,z
y,x,z
loop_
_atom_site_type_symbol
_atom_site_label
_atom_site_fract_x
_atom_site_fract_y
_atom_site_fract_z
Si Si1 0.293446 0.819525 0.172076
Si Si2 0.578893 0.139319 0.675283
Si Si3 0.808510 0.920337 0.327547
Si Si4 0.000000 0.581585 0.164865
O O1 0.249209 0.750792 0.200768
O O2 0.366765 0.805947 0.256080
O O3 0.253810 0.886540 0.235349
O O4 0.308068 0.832327 0.000000
O O5 0.585315 0.135893 0.500000
O O6 0.500000 0.158045 0.722528
O O7 0.604808 0.066663 0.742816
O O8 0.788842 0.914403 0.500000
O O9 0.880552 0.880552 0.293810
O O10 0.817930 0.000000 0.278148
O O11 0.000000 0.500000 0.149067
O O12 0.000000 0.615344 0.000000
#
# Coordination Sequence:
#
# PCOD8312777 Si02
#       4
#    16  16  16   8
#     4  10  21  35  50  69  95 128 163 198 239 287
#     4  10  20  33  50  72  97 125 158 196 238 285
#     4   9  18  32  49  68  90 119 157 202 251 297
#     4   9  17  29  45  67  95 125 156 191 232 277
#
# _framework density 16.710874
#
# number of rings (size 3 to 8) (size 9 to 14) (size 15 to 20)
#    0.000    2.429    0.000    2.143    2.000    6.000 
#    0.000    1.429    0.000    0.000    0.000    4.000 
#    0.000    0.571    0.000    6.286    0.000    4.571 
#
# Total GULP energy -694317.009077 kJ/mol
# GULP energy per Si atom -12398.518019 kJ/mol
# Density = 1.667284 g / cm^3
# Si number density = 16.710874 Si / 1000 Ang^3
#
#
#
# Elastic Constant Matrix: (Units=GPa)
#
#
# Indices 1 2 3 4 5 6 
#
# 1 104.2431 41.8875 52.0766 0.0000 0.0000 0.0000
# 2 41.8875 104.2431 52.0766 0.0000 0.0000 0.0000
# 3 52.0766 52.0766 95.5096 0.0000 0.0000 0.0000
# 4 0.0000 0.0000 0.0000 25.4896 0.0000 0.0000
# 5 0.0000 0.0000 0.0000 0.0000 25.4896 0.0000
# 6 0.0000 0.0000 0.0000 0.0000 0.0000 14.3233
#
#
#
# Elastic Compliance Matrix: (Units=1/GPa)
#
#
# Indices 1 2 3 4 5 6 
#
# 1 0.013615 -0.002422 -0.006103 0.000000 0.000000 0.000000
# 2 -0.002422 0.013615 -0.006103 0.000000 0.000000 0.000000
# 3 -0.006103 -0.006103 0.017125 0.000000 0.000000 0.000000
# 4 0.000000 0.000000 0.000000 0.039232 0.000000 0.000000
# 5 0.000000 0.000000 0.000000 0.000000 0.039232 0.000000
# 6 0.000000 0.000000 0.000000 0.000000 0.000000 0.069816
#
#
# Mechanical properties :
#
#
# Convention : Reuss Voigt Hill
#
# Bulk Modulus (GPa) = 66.22716 66.23081 66.22899
# Shear Modulus (GPa) = 22.03376 23.59084 22.81230
#
# Velocity S-wave (km/s) = 3.63509 3.76134 3.69876
# Velocity P-wave (km/s) = 7.57204 7.65395 7.61311
#
# Compressibility (1/GPa) = 0.01509955
#
# Stress axis : x y z
#
# Youngs Moduli (GPa) = 73.44814 73.44814 58.39249
#
# Poissons Ratio (x) = 0.17789 0.35637
# Poissons Ratio (y) = 0.17789 0.35637
# Poissons Ratio (z) = 0.44826 0.44826
#
# Static dielectric constant tensor:
#      x y z
#    x 3.127810 0.000000 0.000000 
#    y 0.000000 3.127810 0.000000 
#    z 0.000000 0.000000 3.243610 
# 
# 
# High freq. dielectric constant tensor:
#      x y z
#    x 1.626120 0.000000 0.000000 
#    y 0.000000 1.626120 0.000000 
#    z 0.000000 0.000000 1.657280 
# 
# From -- ./inp_files/582.got.cif
#   From: 2010.03.12/outbox.cif.g09.slc.cpg/sg123_1_cif.got.tgz:582.got - 2010.04.06 16:26:55.
