data_PCOD8312661
_publ_section_title
;
Structure prediction by ZEFSAII (Michael W. Deem and Ramdas Pophale) SiO2 
 PCOD8312661
Probable space group: P 4/M M M
;
_chemical_formula_sum "Si O2"
_cell_formula_units_Z 72
_cell_length_a 13.057033
_cell_length_b 13.057033
_cell_length_c 24.638160
_cell_angle_alpha 90.000000
_cell_angle_beta 90.000000
_cell_angle_gamma 90.000000
_cell_volume 4200.464075
_symmetry_space_group_name_H-M "P 4/M M M"
_symmetry_group_IT_number 123
_symmetry_cell_setting 'tetragonal'
loop_
_space_group_symop_operation_xyz
x,y,z
-y,x,z
-x,-y,z
y,-x,z
x,-y,-z
-x,y,-z
y,x,-z
-y,-x,-z
-x,-y,-z
y,-x,-z
x,y,-z
-y,x,-z
-x,y,z
x,-y,z
-y,-x,z
y,x,z
loop_
_atom_site_type_symbol
_atom_site_label
_atom_site_fract_x
_atom_site_fract_y
_atom_site_fract_z
Si Si1 0.621473 0.885716 0.059249
Si Si2 0.884814 0.280113 0.256047
Si Si3 0.222647 0.616649 0.834727
Si Si4 0.709164 0.879697 0.619386
Si Si5 0.878801 0.500000 0.438631
O O1 0.500000 0.891110 0.064787
O O2 0.665124 0.819571 0.109005
O O3 0.666825 0.000000 0.063942
O O4 0.651833 0.839071 0.000000
O O5 0.818003 0.181998 0.240877
O O6 0.858499 0.371574 0.214389
O O7 0.866350 0.317190 0.317372
O O8 0.000000 0.244613 0.247502
O O9 0.251780 0.500000 0.842649
O O10 0.326297 0.673704 0.818478
O O11 0.806781 0.806781 0.603286
O O12 0.605824 0.840896 0.589291
O O13 0.735249 0.000000 0.605802
O O14 0.837154 0.500000 0.500000
O O15 0.000000 0.500000 0.436349
#
# Coordination Sequence:
#
# PCOD8312661 Si02
#       5
#    16  16  16  16   8
#     4   8  14  26  44  64  84 108 143 189 240 289
#     4   9  18  31  48  72  98 123 153 191 238 291
#     4  10  20  31  44  64  90 123 163 204 243 283
#     4   9  18  32  51  76 104 133 166 206 252 301
#     4   9  18  32  50  73 101 135 170 201 238 285
#
# _framework density 17.140962999999999
#
# number of rings (size 3 to 8) (size 9 to 14) (size 15 to 20)
#    0.000    3.000    0.000    1.333    1.556    2.889 
#    0.000    2.222    0.000    0.333    0.000    7.000 
#    0.000    0.000    0.000   20.667    0.000    1.333 
#
# Total GULP energy -892177.471292 kJ/mol
# GULP energy per Si atom -12391.353768 kJ/mol
# Density = 1.710195 g / cm^3
# Si number density = 17.140963 Si / 1000 Ang^3
#
#
#
# Elastic Constant Matrix: (Units=GPa)
#
#
# Indices 1 2 3 4 5 6 
#
# 1 77.1099 36.5786 42.6569 0.0000 0.0000 0.0000
# 2 36.5786 77.1099 42.6569 0.0000 0.0000 0.0000
# 3 42.6569 42.6569 106.0195 0.0000 0.0000 0.0000
# 4 0.0000 0.0000 0.0000 21.7915 0.0000 0.0000
# 5 0.0000 0.0000 0.0000 0.0000 21.7915 0.0000
# 6 0.0000 0.0000 0.0000 0.0000 0.0000 16.4323
#
#
#
# Elastic Compliance Matrix: (Units=1/GPa)
#
#
# Indices 1 2 3 4 5 6 
#
# 1 0.018636 -0.006036 -0.005070 0.000000 0.000000 0.000000
# 2 -0.006036 0.018636 -0.005070 0.000000 0.000000 0.000000
# 3 -0.005070 -0.005070 0.013512 0.000000 0.000000 0.000000
# 4 0.000000 0.000000 0.000000 0.045889 0.000000 0.000000
# 5 0.000000 0.000000 0.000000 0.000000 0.045889 0.000000
# 6 0.000000 0.000000 0.000000 0.000000 0.000000 0.060856
#
#
# Mechanical properties :
#
#
# Convention : Reuss Voigt Hill
#
# Bulk Modulus (GPa) = 54.24875 56.00268 55.12572
# Shear Modulus (GPa) = 20.66845 21.22620 20.94732
#
# Velocity S-wave (km/s) = 3.47622 3.52281 3.49959
# Velocity P-wave (km/s) = 6.91588 7.02066 6.96847
#
# Compressibility (1/GPa) = 0.01843360
#
# Stress axis : x y z
#
# Youngs Moduli (GPa) = 53.65857 53.65857 74.00906
#
# Poissons Ratio (x) = 0.32388 0.37521
# Poissons Ratio (y) = 0.32388 0.37521
# Poissons Ratio (z) = 0.27204 0.27204
#
# Static dielectric constant tensor:
#      x y z
#    x 3.033940 0.000000 0.000000 
#    y 0.000000 3.033940 0.000000 
#    z 0.000000 0.000000 3.501560 
# 
# 
# High freq. dielectric constant tensor:
#      x y z
#    x 1.639180 0.000000 0.000000 
#    y 0.000000 1.639180 0.000000 
#    z 0.000000 0.000000 1.674550 
# 
# From -- ./inp_files/7851.got.cif
#   From: 2010.03.12/outbox.cif.g09.slc.cpg/sg123_4_cif.got.tgz:7851.got - 2010.04.06 16:26:55.
