data_PCOD8312599
_publ_section_title
;
Structure prediction by ZEFSAII (Michael W. Deem and Ramdas Pophale) SiO2 
 PCOD8312599
Probable space group: P 4/M M M
;
_chemical_formula_sum "Si O2"
_cell_formula_units_Z 96
_cell_length_a 20.992898
_cell_length_b 20.992898
_cell_length_c 11.805022
_cell_angle_alpha 90.000000
_cell_angle_beta 90.000000
_cell_angle_gamma 90.000000
_cell_volume 5202.494048
_symmetry_space_group_name_H-M "P 4/M M M"
_symmetry_group_IT_number 123
_symmetry_cell_setting 'tetragonal'
loop_
_space_group_symop_operation_xyz
x,y,z
-y,x,z
-x,-y,z
y,-x,z
x,-y,-z
-x,y,-z
y,x,-z
-y,-x,-z
-x,-y,-z
y,-x,-z
x,y,-z
-y,x,-z
-x,y,z
x,-y,z
-y,-x,z
y,x,z
loop_
_atom_site_type_symbol
_atom_site_label
_atom_site_fract_x
_atom_site_fract_y
_atom_site_fract_z
Si Si1 0.571396 0.930458 0.134234
Si Si2 0.201110 0.632125 0.865025
Si Si3 0.844345 0.256662 0.266893
Si Si4 0.824555 0.928565 0.869808
Si Si5 0.813742 0.294818 0.500000
Si Si6 0.287893 0.392658 0.500000
Si Si7 0.571559 0.321090 0.255526
O O1 0.500000 0.926159 0.182074
O O2 0.608228 0.868379 0.179651
O O3 0.600794 0.000000 0.171054
O O4 0.570330 0.926509 0.000000
O O5 0.203737 0.702124 0.811425
O O6 0.259573 0.590740 0.818166
O O7 0.206789 0.633814 0.000000
O O8 0.809352 0.190649 0.290806
O O9 0.909222 0.238373 0.201703
O O10 0.857913 0.289373 0.388320
O O11 0.885713 0.885713 0.842647
O O12 0.843956 0.000000 0.837826
O O13 0.803978 0.922057 0.000000
O O14 0.758172 0.241829 0.500000
O O15 0.784030 0.365848 0.500000
O O16 0.331396 0.331396 0.500000
O O17 0.301657 0.432936 0.387348
O O18 0.500000 0.342187 0.219144
O O19 0.620692 0.379309 0.233525
#
# Coordination Sequence:
#
# PCOD8312599 Si02
#       7
#    16  16  16  16   8   8  16
#     4   8  15  29  47  67  94 127 161 198 242 294
#     4  11  21  32  51  79 109 138 173 217 268 330
#     4  10  19  32  51  75 102 132 168 216 273 326
#     4   9  18  32  50  75 109 148 189 231 274 323
#     4   9  16  31  54  75  99 130 164 207 266 332
#     4   9  17  35  58  80 102 128 170 222 275 335
#     4  11  23  38  57  80 107 141 183 232 284 338
#
# _framework density 18.452687999999998
#
# number of rings (size 3 to 8) (size 9 to 14) (size 15 to 20)
#    0.000    2.333    1.667    2.250    0.000    4.000 
#    0.000    2.917    0.000    1.500    0.000    1.750 
#    0.000    7.333    0.000    0.000    0.000    0.000 
#
# Total GULP energy -1189476.217794 kJ/mol
# GULP energy per Si atom -12390.377269 kJ/mol
# Density = 1.841069 g / cm^3
# Si number density = 18.452688 Si / 1000 Ang^3
#
#
#
# Elastic Constant Matrix: (Units=GPa)
#
#
# Indices 1 2 3 4 5 6 
#
# 1 101.9521 44.1672 42.4621 0.0000 0.0000 0.0000
# 2 44.1672 101.9521 42.4621 0.0000 0.0000 0.0000
# 3 42.4621 42.4621 95.5437 0.0000 0.0000 0.0000
# 4 0.0000 0.0000 0.0000 16.1326 0.0000 0.0000
# 5 0.0000 0.0000 0.0000 0.0000 16.1325 0.0000
# 6 0.0000 0.0000 0.0000 0.0000 0.0000 22.0968
#
#
#
# Elastic Compliance Matrix: (Units=1/GPa)
#
#
# Indices 1 2 3 4 5 6 
#
# 1 0.013266 -0.004039 -0.004101 0.000000 0.000000 0.000000
# 2 -0.004039 0.013266 -0.004101 0.000000 0.000000 0.000000
# 3 -0.004101 -0.004101 0.014111 0.000000 0.000000 0.000000
# 4 0.000000 0.000000 0.000000 0.061986 0.000000 0.000000
# 5 0.000000 0.000000 0.000000 0.000000 0.061987 0.000000
# 6 0.000000 0.000000 0.000000 0.000000 0.000000 0.045255
#
#
# Mechanical properties :
#
#
# Convention : Reuss Voigt Hill
#
# Bulk Modulus (GPa) = 61.87157 61.95898 61.91527
# Shear Modulus (GPa) = 20.85580 22.22948 21.54264
#
# Velocity S-wave (km/s) = 3.36554 3.47461 3.42051
# Velocity P-wave (km/s) = 6.97890 7.05318 7.01614
#
# Compressibility (1/GPa) = 0.01616251
#
# Stress axis : x y z
#
# Youngs Moduli (GPa) = 75.37892 75.37891 70.86487
#
# Poissons Ratio (x) = 0.30447 0.29060
# Poissons Ratio (y) = 0.30447 0.29060
# Poissons Ratio (z) = 0.30911 0.30911
#
# Static dielectric constant tensor:
#      x y z
#    x 3.412810 0.000000 0.000000 
#    y 0.000000 3.412810 0.000000 
#    z 0.000000 0.000000 3.404720 
# 
# 
# High freq. dielectric constant tensor:
#      x y z
#    x 1.706720 0.000000 0.000000 
#    y 0.000000 1.706720 0.000000 
#    z 0.000000 0.000000 1.697750 
# 
# From -- ./inp_files/3178.got.cif
#   From: 2010.03.12/outbox.cif.g09.slc.cpg/sg123_2_cif.got.tgz:3178.got - 2010.04.06 16:26:55.
