data_PCOD8312868
_publ_section_title
;
Structure prediction by ZEFSAII (Michael W. Deem and Ramdas Pophale) SiO2 
 PCOD8312868
Probable space group: P 4/M M M
;
_chemical_formula_sum "Si O2"
_cell_formula_units_Z 64
_cell_length_a 18.913895
_cell_length_b 18.913895
_cell_length_c 10.194965
_cell_angle_alpha 90.000000
_cell_angle_beta 90.000000
_cell_angle_gamma 90.000000
_cell_volume 3647.100128
_symmetry_space_group_name_H-M "P 4/M M M"
_symmetry_group_IT_number 123
_symmetry_cell_setting 'tetragonal'
loop_
_space_group_symop_operation_xyz
x,y,z
-y,x,z
-x,-y,z
y,-x,z
x,-y,-z
-x,y,-z
y,x,-z
-y,-x,-z
-x,-y,-z
y,-x,-z
x,y,-z
-y,x,-z
-x,y,z
x,-y,z
-y,-x,z
y,x,z
loop_
_atom_site_type_symbol
_atom_site_label
_atom_site_fract_x
_atom_site_fract_y
_atom_site_fract_z
Si Si1 0.718249 0.166358 0.852440
Si Si2 0.419092 0.186887 0.284771
Si Si3 0.922803 0.416847 0.500000
Si Si4 0.696436 0.420914 0.500000
Si Si5 0.196987 0.081593 0.649278
O O1 0.762993 0.237008 0.827693
O O2 0.635822 0.187405 0.835075
O O3 0.742546 0.106664 0.749677
O O4 0.728800 0.137481 0.000000
O O5 0.500000 0.180976 0.233546
O O6 0.395821 0.119326 0.370153
O O7 0.409207 0.256985 0.370763
O O8 0.931844 0.500000 0.500000
O O9 0.000000 0.379305 0.500000
O O10 0.665472 0.500000 0.500000
O O11 0.631677 0.368324 0.500000
O O12 0.224688 0.093386 0.500000
O O13 0.124935 0.124935 0.673727
O O14 0.179199 0.000000 0.675740
#
# Coordination Sequence:
#
# PCOD8312868 Si02
#       5
#    16  16   8   8  16
#     4  10  21  35  50  71 101 134 166 205 253 300
#     4   9  18  31  48  71  95 127 170 207 245 290
#     4   8  15  28  45  67  94 120 149 190 236 279
#     4   9  17  29  47  72 100 128 162 206 253 305
#     4   9  19  35  55  79 103 130 166 205 248 298
#
# _framework density 17.548188
#
# number of rings (size 3 to 8) (size 9 to 14) (size 15 to 20)
#    0.000    2.875    0.000    2.250    3.500    2.375 
#    0.000    1.250    0.000    0.000    0.000    8.750 
#    0.000    0.000    0.000   23.250    0.000    0.000 
#
# Total GULP energy -793352.788995 kJ/mol
# GULP energy per Si atom -12396.137328 kJ/mol
# Density = 1.750825 g / cm^3
# Si number density = 17.548188 Si / 1000 Ang^3
#
#
#
# Elastic Constant Matrix: (Units=GPa)
#
#
# Indices 1 2 3 4 5 6 
#
# 1 110.7271 44.5629 46.9841 0.0000 0.0000 0.0000
# 2 44.5629 110.7267 46.9849 0.0000 0.0000 0.0000
# 3 46.9841 46.9849 89.9914 0.0000 0.0000 0.0000
# 4 0.0000 0.0000 0.0000 20.2249 0.0000 0.0000
# 5 0.0000 0.0000 0.0000 0.0000 20.2244 0.0000
# 6 0.0000 0.0000 0.0000 0.0000 0.0000 18.5740
#
#
#
# Elastic Compliance Matrix: (Units=1/GPa)
#
#
# Indices 1 2 3 4 5 6 
#
# 1 0.012264 -0.002850 -0.004915 0.000000 0.000000 0.000000
# 2 -0.002850 0.012264 -0.004915 0.000000 0.000000 0.000000
# 3 -0.004915 -0.004915 0.016244 0.000000 0.000000 0.000000
# 4 0.000000 0.000000 0.000000 0.049444 0.000000 0.000000
# 5 0.000000 0.000000 0.000000 0.000000 0.049445 0.000000
# 6 0.000000 0.000000 0.000000 0.000000 0.000000 0.053839
#
#
# Mechanical properties :
#
#
# Convention : Reuss Voigt Hill
#
# Bulk Modulus (GPa) = 64.88399 65.38987 65.13693
# Shear Modulus (GPa) = 22.32174 23.33222 22.82698
#
# Velocity S-wave (km/s) = 3.57042 3.65034 3.61060
# Velocity P-wave (km/s) = 7.35202 7.42365 7.38792
#
# Compressibility (1/GPa) = 0.01541212
#
# Stress axis : x y z
#
# Youngs Moduli (GPa) = 81.54134 81.54019 61.56016
#
# Poissons Ratio (x) = 0.23240 0.30255
# Poissons Ratio (y) = 0.23241 0.30257
# Poissons Ratio (z) = 0.40076 0.40077
#
# Static dielectric constant tensor:
#      x y z
#    x 3.305900 0.000000 0.000000 
#    y 0.000000 3.305900 0.000000 
#    z 0.000000 0.000000 3.090890 
# 
# 
# High freq. dielectric constant tensor:
#      x y z
#    x 1.677400 0.000000 0.000000 
#    y 0.000000 1.677400 0.000000 
#    z 0.000000 0.000000 1.657780 
# 
# From -- ./inp_files/985.got.cif
#   From: 2010.03.12/outbox.cif.g09.slc.cpg/sg123_1_cif.got.tgz:985.got - 2010.04.06 16:26:55.
