data_PCOD8312797
_publ_section_title
;
Structure prediction by ZEFSAII (Michael W. Deem and Ramdas Pophale) SiO2 
 PCOD8312797
Probable space group: P 4/M M M
;
_chemical_formula_sum "Si O2"
_cell_formula_units_Z 88
_cell_length_a 18.191828
_cell_length_b 18.191828
_cell_length_c 15.314356
_cell_angle_alpha 90.000000
_cell_angle_beta 90.000000
_cell_angle_gamma 90.000000
_cell_volume 5068.172884
_symmetry_space_group_name_H-M "P 4/M M M"
_symmetry_group_IT_number 123
_symmetry_cell_setting 'tetragonal'
loop_
_space_group_symop_operation_xyz
x,y,z
-y,x,z
-x,-y,z
y,-x,z
x,-y,-z
-x,y,-z
y,x,-z
-y,-x,-z
-x,-y,-z
y,-x,-z
x,y,-z
-y,x,-z
-x,y,z
x,-y,z
-y,-x,z
y,x,z
loop_
_atom_site_type_symbol
_atom_site_label
_atom_site_fract_x
_atom_site_fract_y
_atom_site_fract_z
Si Si1 0.203769 0.915020 0.154576
Si Si2 0.298181 0.583178 0.403027
Si Si3 0.082962 0.286063 0.329388
Si Si4 0.793305 0.911685 0.500000
Si Si5 0.586167 0.822811 0.739156
Si Si6 0.682243 0.802337 0.098159
O O1 0.126835 0.873166 0.136470
O O2 0.223427 0.907755 0.256352
O O3 0.270330 0.877521 0.101159
O O4 0.195703 0.000000 0.125354
O O5 0.263871 0.597498 0.500000
O O6 0.323869 0.500000 0.393758
O O7 0.370499 0.629502 0.387717
O O8 0.242269 0.603511 0.327168
O O9 0.118282 0.253203 0.417225
O O10 0.111639 0.364919 0.298036
O O11 0.000000 0.303061 0.351684
O O12 0.873218 0.873218 0.500000
O O13 0.806246 0.000000 0.500000
O O14 0.500000 0.844253 0.741459
O O15 0.612812 0.802504 0.836775
O O16 0.734930 0.734930 0.125237
O O17 0.651662 0.792877 0.000000
#
# Coordination Sequence:
#
# PCOD8312797 Si02
#       6
#    16  16  16   8  16  16
#     4   9  17  30  48  70  98 129 162 202 246 295
#     4   9  18  31  47  70  99 128 158 192 232 281
#     4   9  19  34  48  67  96 130 168 206 249 300
#     4  10  20  33  51  75 101 133 174 214 252 296
#     4  10  20  33  51  74  99 126 163 211 252 288
#     4   9  18  33  52  72  96 129 165 201 250 308
#
# _framework density 17.363258999999999
#
# number of rings (size 3 to 8) (size 9 to 14) (size 15 to 20)
#    0.000    2.727    0.000    1.091    1.273    3.727 
#    0.000    0.909    0.000    4.909    0.000    7.636 
#    0.000    0.000    0.000   16.909    0.000    0.182 
#
# Total GULP energy -1090707.827787 kJ/mol
# GULP energy per Si atom -12394.407134 kJ/mol
# Density = 1.732374 g / cm^3
# Si number density = 17.363259 Si / 1000 Ang^3
#
#
#
# Elastic Constant Matrix: (Units=GPa)
#
#
# Indices 1 2 3 4 5 6 
#
# 1 76.0077 33.2806 33.2646 0.0000 0.0000 0.0000
# 2 33.2806 76.0077 33.2646 0.0000 0.0000 0.0000
# 3 33.2646 33.2646 100.0836 0.0000 0.0000 0.0000
# 4 0.0000 0.0000 0.0000 21.4756 0.0000 0.0000
# 5 0.0000 0.0000 0.0000 0.0000 21.4756 0.0000
# 6 0.0000 0.0000 0.0000 0.0000 0.0000 23.8896
#
#
#
# Elastic Compliance Matrix: (Units=1/GPa)
#
#
# Indices 1 2 3 4 5 6 
#
# 1 0.017438 -0.005967 -0.003813 0.000000 0.000000 0.000000
# 2 -0.005967 0.017438 -0.003813 0.000000 0.000000 0.000000
# 3 -0.003813 -0.003813 0.012526 0.000000 0.000000 0.000000
# 4 0.000000 0.000000 0.000000 0.046564 0.000000 0.000000
# 5 0.000000 0.000000 0.000000 0.000000 0.046564 0.000000
# 6 0.000000 0.000000 0.000000 0.000000 0.000000 0.041859
#
#
# Mechanical properties :
#
#
# Convention : Reuss Voigt Hill
#
# Bulk Modulus (GPa) = 49.46169 50.19096 49.82632
# Shear Modulus (GPa) = 23.11472 23.52079 23.31776
#
# Velocity S-wave (km/s) = 3.65258 3.68452 3.66859
# Velocity P-wave (km/s) = 6.80711 6.86077 6.83399
#
# Compressibility (1/GPa) = 0.02021767
#
# Stress axis : x y z
#
# Youngs Moduli (GPa) = 57.34705 57.34705 79.83373
#
# Poissons Ratio (x) = 0.34217 0.30438
# Poissons Ratio (y) = 0.34217 0.30438
# Poissons Ratio (z) = 0.21864 0.21864
#
# Static dielectric constant tensor:
#      x y z
#    x 3.153700 0.000000 0.000000 
#    y 0.000000 3.153700 0.000000 
#    z 0.000000 0.000000 3.381750 
# 
# 
# High freq. dielectric constant tensor:
#      x y z
#    x 1.658820 0.000000 0.000000 
#    y 0.000000 1.658820 0.000000 
#    z 0.000000 0.000000 1.682010 
# 
# From -- ./inp_files/4050.got.cif
#   From: 2010.03.12/outbox.cif.g09.slc.cpg/sg123_3_cif.got.tgz:4050.got - 2010.04.06 16:26:55.
