data_PCOD8312951
_publ_section_title
;
Structure prediction by ZEFSAII (Michael W. Deem and Ramdas Pophale) SiO2 
 PCOD8312951
Probable space group: P 4/M M M
;
_chemical_formula_sum "Si O2"
_cell_formula_units_Z 120
_cell_length_a 27.255809
_cell_length_b 27.255809
_cell_length_c 12.607433
_cell_angle_alpha 90.000000
_cell_angle_beta 90.000000
_cell_angle_gamma 90.000000
_cell_volume 9365.798786
_symmetry_space_group_name_H-M "P 4/M M M"
_symmetry_group_IT_number 123
_symmetry_cell_setting 'tetragonal'
loop_
_space_group_symop_operation_xyz
x,y,z
-y,x,z
-x,-y,z
y,-x,z
x,-y,-z
-x,y,-z
y,x,-z
-y,-x,-z
-x,-y,-z
y,-x,-z
x,y,-z
-y,x,-z
-x,y,z
x,-y,z
-y,-x,z
y,x,z
loop_
_atom_site_type_symbol
_atom_site_label
_atom_site_fract_x
_atom_site_fract_y
_atom_site_fract_z
Si Si1 0.589906 0.879099 0.306319
Si Si2 0.055082 0.442380 0.121278
Si Si3 0.445192 0.223403 0.624667
Si Si4 0.130965 0.207845 0.625786
Si Si5 0.055337 0.442131 0.500000
Si Si6 0.867900 0.945757 0.626142
Si Si7 0.688119 0.837416 0.375101
Si Si8 0.730756 0.345837 0.375778
O O1 0.582799 0.903546 0.192269
O O2 0.558724 0.828932 0.316949
O O3 0.575762 0.917820 0.395307
O O4 0.646807 0.866640 0.313334
O O5 0.057855 0.500000 0.140526
O O6 0.000000 0.424142 0.150529
O O7 0.067105 0.429046 0.000000
O O8 0.436768 0.213066 0.500000
O O9 0.500000 0.245109 0.646066
O O10 0.402488 0.261337 0.665114
O O11 0.135688 0.209651 0.500000
O O12 0.173666 0.173666 0.672636
O O13 0.078715 0.184194 0.659171
O O14 0.139079 0.262075 0.670926
O O15 0.054594 0.500000 0.500000
O O16 0.000000 0.421060 0.500000
O O17 0.871274 0.948273 0.500000
O O18 0.913187 0.913187 0.669580
O O19 0.870864 0.000000 0.676416
O O20 0.681279 0.846050 0.500000
O O21 0.685596 0.779434 0.349570
O O22 0.721899 0.348287 0.500000
O O23 0.683294 0.316707 0.325520
#
# Coordination Sequence:
#
# PCOD8312951 Si02
#       8
#    16  16  16  16   8  16  16  16
#     4  11  17  26  37  52  71  90 112 142 176 215
#     4   9  18  31  43  51  60  82 119 157 185 206
#     4   9  15  22  33  50  73  97 114 134 172 217
#     4   8  13  21  33  44  59  87 116 137 158 195
#     4  11  20  26  34  48  67  92 116 136 165 210
#     4   8  13  20  28  38  51  70 101 137 171 204
#     4   9  15  23  33  48  70  90 111 135 166 206
#     4   8  13  20  30  45  65  90 117 142 163 192
#
# _framework density 12.812575000000001
#
# number of rings (size 3 to 8) (size 9 to 14) (size 15 to 20)
#    0.000    3.000    1.333    4.000    0.000    2.800 
#    0.000    2.000    0.000    0.000    0.000    0.000 
#    0.000   13.600    0.000    3.733    0.000    0.000 
#
# Total GULP energy -1486733.590521 kJ/mol
# GULP energy per Si atom -12389.446588 kJ/mol
# Density = 1.278341 g / cm^3
# Si number density = 12.812575 Si / 1000 Ang^3
#
#
#
# Elastic Constant Matrix: (Units=GPa)
#
#
# Indices 1 2 3 4 5 6 
#
# 1 97.1967 51.3171 18.4223 0.0000 0.0000 0.0000
# 2 51.3171 97.1967 18.4223 0.0000 0.0000 0.0000
# 3 18.4223 18.4223 31.2642 0.0000 0.0000 0.0000
# 4 0.0000 0.0000 0.0000 8.5374 0.0000 0.0000
# 5 0.0000 0.0000 0.0000 0.0000 8.5374 0.0000
# 6 0.0000 0.0000 0.0000 0.0000 0.0000 19.6215
#
#
#
# Elastic Compliance Matrix: (Units=1/GPa)
#
#
# Indices 1 2 3 4 5 6 
#
# 1 0.014841 -0.006955 -0.004647 0.000000 0.000000 0.000000
# 2 -0.006955 0.014841 -0.004647 0.000000 0.000000 0.000000
# 3 -0.004647 -0.004647 0.037462 0.000000 0.000000 0.000000
# 4 0.000000 0.000000 0.000000 0.117131 0.000000 0.000000
# 5 0.000000 0.000000 0.000000 0.000000 0.117131 0.000000
# 6 0.000000 0.000000 0.000000 0.000000 0.000000 0.050964
#
#
# Mechanical properties :
#
#
# Convention : Reuss Voigt Hill
#
# Bulk Modulus (GPa) = 28.86289 44.66457 36.76373
# Shear Modulus (GPa) = 12.61297 16.50568 14.55932
#
# Velocity S-wave (km/s) = 3.14095 3.59310 3.37461
# Velocity P-wave (km/s) = 5.97746 7.22146 6.62871
#
# Compressibility (1/GPa) = 0.03464657
#
# Stress axis : x y z
#
# Youngs Moduli (GPa) = 67.37998 67.37998 26.69382
#
# Poissons Ratio (x) = 0.46863 0.12404
# Poissons Ratio (y) = 0.46863 0.12404
# Poissons Ratio (z) = 0.31311 0.31311
#
# Static dielectric constant tensor:
#      x y z
#    x 2.795890 0.000000 0.000000 
#    y 0.000000 2.795890 0.000000 
#    z 0.000000 0.000000 2.125510 
# 
# 
# High freq. dielectric constant tensor:
#      x y z
#    x 1.485770 0.000000 0.000000 
#    y 0.000000 1.485770 0.000000 
#    z 0.000000 0.000000 1.419720 
# 
# From -- ./inp_files/3552.got.cif
#   From: 2010.03.12/outbox.cif.g09.slc.cpg/sg123_2_cif.got.tgz:3552.got - 2010.04.06 16:26:55.
