data_PCOD8312208
_publ_section_title
;
Structure prediction by ZEFSAII (Michael W. Deem and Ramdas Pophale) SiO2 
 PCOD8312208
Probable space group: P 4/M M M
;
_chemical_formula_sum "Si O2"
_cell_formula_units_Z 96
_cell_length_a 24.450961
_cell_length_b 24.450961
_cell_length_c 8.746097
_cell_angle_alpha 90.000000
_cell_angle_beta 90.000000
_cell_angle_gamma 90.000000
_cell_volume 5228.849664
_symmetry_space_group_name_H-M "P 4/M M M"
_symmetry_group_IT_number 123
_symmetry_cell_setting 'tetragonal'
loop_
_space_group_symop_operation_xyz
x,y,z
-y,x,z
-x,-y,z
y,-x,z
x,-y,-z
-x,y,-z
y,x,-z
-y,-x,-z
-x,-y,-z
y,-x,-z
x,y,-z
-y,x,-z
-x,y,z
x,-y,z
-y,-x,z
y,x,z
loop_
_atom_site_type_symbol
_atom_site_label
_atom_site_fract_x
_atom_site_fract_y
_atom_site_fract_z
Si Si1 0.144557 0.060110 0.318201
Si Si2 0.060238 0.438996 0.318261
Si Si3 0.267234 0.644195 0.819648
Si Si4 0.853112 0.647356 0.318124
Si Si5 0.562580 0.349248 0.319741
Si Si6 0.060407 0.734054 0.318151
O O1 0.144723 0.065112 0.500000
O O2 0.103955 0.103955 0.242804
O O3 0.205191 0.071158 0.255320
O O4 0.124520 0.000000 0.268965
O O5 0.060810 0.437678 0.500000
O O6 0.068870 0.500000 0.255661
O O7 0.111585 0.404205 0.257858
O O8 0.000000 0.417218 0.264112
O O9 0.302709 0.697292 0.769021
O O10 0.206365 0.649304 0.755444
O O11 0.295820 0.589387 0.756433
O O12 0.264318 0.639399 0.000000
O O13 0.845827 0.647182 0.500000
O O14 0.889246 0.698150 0.257924
O O15 0.564638 0.340355 0.500000
O O16 0.500000 0.355697 0.262700
O O17 0.596158 0.403843 0.272220
O O18 0.060098 0.732697 0.500000
O O19 0.000000 0.713682 0.262218
#
# Coordination Sequence:
#
# PCOD8312208 Si02
#       6
#    16  16  16  16  16  16
#     4   8  13  20  29  44  70 103 137 174 219 273
#     4   8  14  25  42  67  98 125 148 181 228 280
#     4  10  22  38  51  66  96 136 171 203 242 286
#     4  10  18  28  48  73  91 115 158 205 242 281
#     4   9  18  34  57  83 108 132 159 194 235 278
#     4   8  14  24  38  59  87 115 145 189 243 290
#
# _framework density 18.359677999999999
#
# number of rings (size 3 to 8) (size 9 to 14) (size 15 to 20)
#    0.000    3.167    0.000    2.500    0.000    5.000 
#    0.000    5.000    0.000    2.000    0.000    3.500 
#    0.000    0.000    0.000    0.000    0.000    0.000 
#
# Total GULP energy -1189482.272842 kJ/mol
# GULP energy per Si atom -12390.440342 kJ/mol
# Density = 1.831789 g / cm^3
# Si number density = 18.359678 Si / 1000 Ang^3
#
#
#
# Elastic Constant Matrix: (Units=GPa)
#
#
# Indices 1 2 3 4 5 6 
#
# 1 166.4080 98.6539 25.3974 0.0000 0.0000 0.0000
# 2 98.6539 166.4080 25.3974 0.0000 0.0000 0.0000
# 3 25.3974 25.3974 20.8551 0.0000 0.0000 0.0000
# 4 0.0000 0.0000 0.0000 9.1415 0.0000 0.0000
# 5 0.0000 0.0000 0.0000 0.0000 9.1415 0.0000
# 6 0.0000 0.0000 0.0000 0.0000 0.0000 0.5165
#
#
#
# Elastic Compliance Matrix: (Units=1/GPa)
#
#
# Indices 1 2 3 4 5 6 
#
# 1 0.009840 -0.004919 -0.005993 0.000000 0.000000 0.000000
# 2 -0.004919 0.009840 -0.005993 0.000000 0.000000 0.000000
# 3 -0.005993 -0.005993 0.062547 0.000000 0.000000 0.000000
# 4 0.000000 0.000000 0.000000 0.109391 0.000000 0.000000
# 5 0.000000 0.000000 0.000000 0.000000 0.109391 0.000000
# 6 0.000000 0.000000 0.000000 0.000000 0.000000 1.936279
#
#
# Mechanical properties :
#
#
# Convention : Reuss Voigt Hill
#
# Bulk Modulus (GPa) = 20.65394 72.50762 46.58078
# Shear Modulus (GPa) = 2.18604 17.37473 9.78039
#
# Velocity S-wave (km/s) = 1.09237 3.07962 2.31056
# Velocity P-wave (km/s) = 3.58679 7.22662 5.70478
#
# Compressibility (1/GPa) = 0.04841691
#
# Stress axis : x y z
#
# Youngs Moduli (GPa) = 101.62384 101.62384 15.98805
#
# Poissons Ratio (x) = 0.49989 0.09582
# Poissons Ratio (y) = 0.49989 0.09582
# Poissons Ratio (z) = 0.60903 0.60903
#
# Static dielectric constant tensor:
#      x y z
#    x 3.712680 0.000000 0.000000 
#    y 0.000000 3.712680 0.000000 
#    z 0.000000 0.000000 2.792560 
# 
# 
# High freq. dielectric constant tensor:
#      x y z
#    x 1.720310 0.000000 0.000000 
#    y 0.000000 1.720310 0.000000 
#    z 0.000000 0.000000 1.650320 
# 
# From -- ./inp_files/1558.got.cif
#   From: 2010.03.12/outbox.cif.g09.slc.cpg/sg123_1_cif.got.tgz:1558.got - 2010.04.06 16:26:55.
