data_PCOD8312130
_publ_section_title
;
Structure prediction by ZEFSAII (Michael W. Deem and Ramdas Pophale) SiO2 
 PCOD8312130
Probable space group: P 4/M M M
;
_chemical_formula_sum "Si O2"
_cell_formula_units_Z 112
_cell_length_a 21.934840
_cell_length_b 21.934840
_cell_length_c 18.029946
_cell_angle_alpha 90.000000
_cell_angle_beta 90.000000
_cell_angle_gamma 90.000000
_cell_volume 8674.877840
_symmetry_space_group_name_H-M "P 4/M M M"
_symmetry_group_IT_number 123
_symmetry_cell_setting 'tetragonal'
loop_
_space_group_symop_operation_xyz
x,y,z
-y,x,z
-x,-y,z
y,-x,z
x,-y,-z
-x,y,-z
y,x,-z
-y,-x,-z
-x,-y,-z
y,-x,-z
x,y,-z
-y,x,-z
-x,y,z
x,-y,z
-y,-x,z
y,x,z
loop_
_atom_site_type_symbol
_atom_site_label
_atom_site_fract_x
_atom_site_fract_y
_atom_site_fract_z
Si Si1 0.932192 0.572188 0.917565
Si Si2 0.428625 0.067169 0.358424
Si Si3 0.851812 0.572697 0.218969
Si Si4 0.272143 0.368656 0.500000
Si Si5 0.430677 0.334063 0.083321
Si Si6 0.855236 0.426969 0.500000
Si Si7 0.723274 0.374277 0.778180
Si Si8 0.429923 0.335314 0.637444
O O1 0.935727 0.500000 0.914632
O O2 0.882445 0.593881 0.858075
O O3 0.000000 0.597900 0.898928
O O4 0.912175 0.593998 0.000000
O O5 0.500000 0.058251 0.362761
O O6 0.410943 0.100790 0.282996
O O7 0.407819 0.106155 0.428632
O O8 0.397652 0.000000 0.359793
O O9 0.833887 0.500000 0.219527
O O10 0.795398 0.618550 0.233304
O O11 0.298334 0.298334 0.500000
O O12 0.200074 0.378734 0.500000
O O13 0.293849 0.400339 0.425121
O O14 0.500000 0.342194 0.107373
O O15 0.400616 0.400616 0.088639
O O16 0.397821 0.288036 0.138743
O O17 0.424654 0.307185 0.000000
O O18 0.836974 0.500000 0.500000
O O19 0.694711 0.305290 0.769303
O O20 0.691746 0.418159 0.718618
O O21 0.500000 0.339628 0.620245
O O22 0.403191 0.403191 0.632891
#
# Coordination Sequence:
#
# PCOD8312130 Si02
#       8
#    16  16  16   8  16   8  16  16
#     4   8  14  24  37  55  77  94 109 135 172 214
#     4   9  17  27  39  58  79  93 109 138 176 217
#     4  10  17  25  40  56  70  93 120 143 176 222
#     4  10  20  31  42  57  75  95 121 151 178 207
#     4   9  17  28  40  52  66  84 108 144 188 229
#     4  10  17  26  42  57  73  99 123 142 175 222
#     4  10  20  31  40  52  71  93 119 151 182 213
#     4  10  19  30  42  53  67  86 111 149 192 229
#
# _framework density 12.910845
#
# number of rings (size 3 to 8) (size 9 to 14) (size 15 to 20)
#    0.000    2.571    0.000    3.857    0.000    4.571 
#    0.000    2.143    0.000    3.857    0.000    0.000 
#    0.000    0.000    0.000    0.000    0.000    0.000 
#
# Total GULP energy -1387791.960090 kJ/mol
# GULP energy per Si atom -12390.999644 kJ/mol
# Density = 1.288146 g / cm^3
# Si number density = 12.910845 Si / 1000 Ang^3
#
#
#
# Elastic Constant Matrix: (Units=GPa)
#
#
# Indices 1 2 3 4 5 6 
#
# 1 72.1568 29.8182 26.8068 0.0000 0.0000 0.0000
# 2 29.8182 72.1568 26.8068 0.0000 0.0000 0.0000
# 3 26.8068 26.8068 77.5660 0.0000 0.0000 0.0000
# 4 0.0000 0.0000 0.0000 16.1598 0.0000 0.0000
# 5 0.0000 0.0000 0.0000 0.0000 16.1598 0.0000
# 6 0.0000 0.0000 0.0000 0.0000 0.0000 8.2146
#
#
#
# Elastic Compliance Matrix: (Units=1/GPa)
#
#
# Indices 1 2 3 4 5 6 
#
# 1 0.017801 -0.005818 -0.004142 0.000000 0.000000 0.000000
# 2 -0.005818 0.017801 -0.004142 0.000000 0.000000 0.000000
# 3 -0.004142 -0.004142 0.015755 0.000000 0.000000 0.000000
# 4 0.000000 0.000000 0.000000 0.061882 0.000000 0.000000
# 5 0.000000 0.000000 0.000000 0.000000 0.061882 0.000000
# 6 0.000000 0.000000 0.000000 0.000000 0.000000 0.121735
#
#
# Mechanical properties :
#
#
# Convention : Reuss Voigt Hill
#
# Bulk Modulus (GPa) = 43.18516 43.19368 43.18942
# Shear Modulus (GPa) = 15.02508 17.33669 16.18088
#
# Velocity S-wave (km/s) = 3.41509 3.66840 3.54401
# Velocity P-wave (km/s) = 7.00513 7.17432 7.09023
#
# Compressibility (1/GPa) = 0.02315611
#
# Stress axis : x y z
#
# Youngs Moduli (GPa) = 56.17526 56.17526 63.47229
#
# Poissons Ratio (x) = 0.32681 0.26288
# Poissons Ratio (y) = 0.32681 0.26288
# Poissons Ratio (z) = 0.23265 0.23265
#
# Static dielectric constant tensor:
#      x y z
#    x 2.507570 0.000000 0.000000 
#    y 0.000000 2.507570 0.000000 
#    z 0.000000 0.000000 2.950800 
# 
# 
# High freq. dielectric constant tensor:
#      x y z
#    x 1.454170 0.000000 0.000000 
#    y 0.000000 1.454170 0.000000 
#    z 0.000000 0.000000 1.518740 
# 
# From -- ./inp_files/5970.got.cif
#   From: 2010.03.12/outbox.cif.g09.slc.cpg/sg123_3_cif.got.tgz:5970.got - 2010.04.06 16:26:55.
