data_PCOD8312656
_publ_section_title
;
Structure prediction by ZEFSAII (Michael W. Deem and Ramdas Pophale) SiO2 
 PCOD8312656
Probable space group: P 4/M M M
;
_chemical_formula_sum "Si O2"
_cell_formula_units_Z 120
_cell_length_a 24.660791
_cell_length_b 24.660791
_cell_length_c 14.133023
_cell_angle_alpha 90.000000
_cell_angle_beta 90.000000
_cell_angle_gamma 90.000000
_cell_volume 8595.063129
_symmetry_space_group_name_H-M "P 4/M M M"
_symmetry_group_IT_number 123
_symmetry_cell_setting 'tetragonal'
loop_
_space_group_symop_operation_xyz
x,y,z
-y,x,z
-x,-y,z
y,-x,z
x,-y,-z
-x,y,-z
y,x,-z
-y,-x,-z
-x,-y,-z
y,-x,-z
x,y,-z
-y,x,-z
-x,y,z
x,-y,z
-y,-x,z
y,x,z
loop_
_atom_site_type_symbol
_atom_site_label
_atom_site_fract_x
_atom_site_fract_y
_atom_site_fract_z
Si Si1 0.140240 0.338115 0.390102
Si Si2 0.144792 0.632193 0.889787
Si Si3 0.500000 0.063318 0.392224
Si Si4 0.710787 0.795300 0.237515
Si Si5 0.782821 0.438767 0.608748
Si Si6 0.936525 0.394912 0.272307
Si Si7 0.561249 0.749955 0.893383
Si Si8 0.621619 0.294825 0.734408
O O1 0.136229 0.323725 0.500000
O O2 0.170451 0.289111 0.335770
O O3 0.170533 0.395259 0.367346
O O4 0.081018 0.345745 0.342650
O O5 0.166924 0.689904 0.849212
O O6 0.093871 0.610454 0.828784
O O7 0.191618 0.588030 0.877219
O O8 0.128043 0.639342 0.000000
O O9 0.500000 0.090627 0.500000
O O10 0.448710 0.080320 0.329766
O O11 0.500000 0.000000 0.410520
O O12 0.771164 0.771164 0.216872
O O13 0.671234 0.745660 0.254414
O O14 0.768455 0.437326 0.500000
O O15 0.800869 0.500000 0.639664
O O16 0.726590 0.421352 0.657850
O O17 0.000000 0.391890 0.250699
O O18 0.500000 0.756742 0.859185
O O19 0.590487 0.702786 0.834301
O O20 0.565865 0.730260 0.000000
O O21 0.645715 0.354286 0.708267
#
# Coordination Sequence:
#
# PCOD8312656 Si02
#       8
#    16  16   8  16  16  16  16  16
#     4   9  17  27  40  58  77 101 130 158 192 232
#     4   9  18  30  43  59  76  99 130 159 192 233
#     4   9  18  30  41  53  69  93 126 164 205 239
#     4   8  15  27  40  58  79  97 121 151 187 233
#     4   9  17  27  39  55  74  97 121 144 174 214
#     4  10  20  30  40  55  75 101 132 168 203 232
#     4   9  17  28  42  57  72  94 118 142 177 219
#     4   9  16  25  38  55  75  96 113 136 170 210
#
# _framework density 13.961503
#
# number of rings (size 3 to 8) (size 9 to 14) (size 15 to 20)
#    0.000    3.000    0.000    1.600    1.867    2.133 
#    0.000    5.333    0.000    1.200    0.000    0.000 
#    0.000    4.267    0.000   11.733    0.000    1.067 
#
# Total GULP energy -1486615.283918 kJ/mol
# GULP energy per Si atom -12388.460699 kJ/mol
# Density = 1.392973 g / cm^3
# Si number density = 13.961503 Si / 1000 Ang^3
#
#
#
# Elastic Constant Matrix: (Units=GPa)
#
#
# Indices 1 2 3 4 5 6 
#
# 1 30.2527 29.1436 19.4862 0.0000 0.0000 0.0000
# 2 29.1436 30.2527 19.4862 0.0000 0.0000 0.0000
# 3 19.4862 19.4862 79.8791 0.0000 0.0000 0.0000
# 4 0.0000 0.0000 0.0000 55.6708 0.0000 0.0000
# 5 0.0000 0.0000 0.0000 0.0000 55.6708 0.0000
# 6 0.0000 0.0000 0.0000 0.0000 0.0000 15.2867
#
#
#
# Elastic Compliance Matrix: (Units=1/GPa)
#
#
# Indices 1 2 3 4 5 6 
#
# 1 0.460828 -0.440783 -0.004890 0.000000 0.000000 0.000000
# 2 -0.440783 0.460828 -0.004890 0.000000 0.000000 0.000000
# 3 -0.004890 -0.004890 0.014905 0.000000 0.000000 0.000000
# 4 0.000000 0.000000 0.000000 0.017963 0.000000 0.000000
# 5 0.000000 0.000000 0.000000 0.000000 0.017963 0.000000
# 6 0.000000 0.000000 0.000000 0.000000 0.000000 0.065416
#
#
# Mechanical properties :
#
#
# Convention : Reuss Voigt Hill
#
# Bulk Modulus (GPa) = 28.22113 30.73517 29.47815
# Shear Modulus (GPa) = 2.56300 30.14358 16.35329
#
# Velocity S-wave (km/s) = 1.35637 4.65160 3.42616
# Velocity P-wave (km/s) = 4.76554 7.13525 6.06722
#
# Compressibility (1/GPa) = 0.03543444
#
# Stress axis : x y z
#
# Youngs Moduli (GPa) = 2.17001 2.17001 67.09336
#
# Poissons Ratio (x) = 0.95650 0.32807
# Poissons Ratio (y) = 0.95650 0.32807
# Poissons Ratio (z) = 0.01061 0.01061
#
# Static dielectric constant tensor:
#      x y z
#    x 2.669800 0.000000 0.000000 
#    y 0.000000 2.669800 0.000000 
#    z 0.000000 0.000000 2.919090 
# 
# 
# High freq. dielectric constant tensor:
#      x y z
#    x 1.497500 0.000000 0.000000 
#    y 0.000000 1.497500 0.000000 
#    z 0.000000 0.000000 1.548190 
# 
# From -- ./inp_files/4727.got.cif
#   From: 2010.03.12/outbox.cif.g09.slc.cpg/sg123_3_cif.got.tgz:4727.got - 2010.04.06 16:26:55.
