data_PCOD8312332
_publ_section_title
;
Structure prediction by ZEFSAII (Michael W. Deem and Ramdas Pophale) SiO2 
 PCOD8312332
Probable space group: P 4/M M M
;
_chemical_formula_sum "Si O2"
_cell_formula_units_Z 64
_cell_length_a 14.287773
_cell_length_b 14.287773
_cell_length_c 20.365436
_cell_angle_alpha 90.000000
_cell_angle_beta 90.000000
_cell_angle_gamma 90.000000
_cell_volume 4157.409418
_symmetry_space_group_name_H-M "P 4/M M M"
_symmetry_group_IT_number 123
_symmetry_cell_setting 'tetragonal'
loop_
_space_group_symop_operation_xyz
x,y,z
-y,x,z
-x,-y,z
y,-x,z
x,-y,-z
-x,y,-z
y,x,-z
-y,-x,-z
-x,-y,-z
y,-x,-z
x,y,-z
-y,x,-z
-x,y,z
x,-y,z
-y,-x,z
y,x,z
loop_
_atom_site_type_symbol
_atom_site_label
_atom_site_fract_x
_atom_site_fract_y
_atom_site_fract_z
Si Si1 0.106944 0.607946 0.310195
Si Si2 0.107233 0.741914 0.573843
Si Si3 0.610995 0.104249 0.926670
Si Si4 0.763015 0.610635 0.188657
O O1 0.118811 0.500000 0.327386
O O2 0.137863 0.661662 0.375746
O O3 0.174251 0.637432 0.251112
O O4 0.000000 0.630684 0.289655
O O5 0.125592 0.704296 0.500000
O O6 0.165139 0.834862 0.588730
O O7 0.000000 0.770307 0.583832
O O8 0.500000 0.100331 0.922066
O O9 0.647767 0.180375 0.874925
O O10 0.649993 0.000000 0.910261
O O11 0.642772 0.134154 0.000000
O O12 0.741684 0.500000 0.185330
O O13 0.664495 0.664495 0.192426
#
# Coordination Sequence:
#
# PCOD8312332 Si02
#       4
#    16  16  16  16
#     4   9  17  29  45  63  81 103 135 176 218 251
#     4   9  17  28  42  61  85 111 136 163 198 244
#     4   8  14  26  44  63  81 102 131 169 209 242
#     4  10  19  29  42  60  84 114 143 170 202 242
#
# _framework density 15.394201000000001
#
# number of rings (size 3 to 8) (size 9 to 14) (size 15 to 20)
#    0.000    3.000    0.000    2.250    0.000    4.500 
#    0.000    3.750    0.000    0.000    0.000    3.500 
#    0.000    4.500    0.000   34.250    0.000    1.500 
#
# Total GULP energy -793347.281993 kJ/mol
# GULP energy per Si atom -12396.051281 kJ/mol
# Density = 1.535916 g / cm^3
# Si number density = 15.394201 Si / 1000 Ang^3
#
#
#
# Elastic Constant Matrix: (Units=GPa)
#
#
# Indices 1 2 3 4 5 6 
#
# 1 66.2352 45.1768 58.0840 0.0000 0.0000 0.0000
# 2 45.1768 66.2352 58.0840 0.0000 0.0000 0.0000
# 3 58.0840 58.0840 123.9993 0.0000 0.0000 0.0000
# 4 0.0000 0.0000 0.0000 20.7059 0.0000 0.0000
# 5 0.0000 0.0000 0.0000 0.0000 20.7059 0.0000
# 6 0.0000 0.0000 0.0000 0.0000 0.0000 22.3209
#
#
#
# Elastic Compliance Matrix: (Units=1/GPa)
#
#
# Indices 1 2 3 4 5 6 
#
# 1 0.032516 -0.014971 -0.008218 0.000000 0.000000 0.000000
# 2 -0.014971 0.032516 -0.008218 0.000000 0.000000 0.000000
# 3 -0.008218 -0.008218 0.015764 0.000000 0.000000 0.000000
# 4 0.000000 0.000000 0.000000 0.048295 0.000000 0.000000
# 5 0.000000 0.000000 0.000000 0.000000 0.048295 0.000000
# 6 0.000000 0.000000 0.000000 0.000000 0.000000 0.044801
#
#
# Mechanical properties :
#
#
# Convention : Reuss Voigt Hill
#
# Bulk Modulus (GPa) = 55.61702 64.35104 59.98403
# Shear Modulus (GPa) = 17.18231 19.08820 18.13526
#
# Velocity S-wave (km/s) = 3.34451 3.52513 3.43601
# Velocity P-wave (km/s) = 7.14992 7.64602 7.40213
#
# Compressibility (1/GPa) = 0.01798011
#
# Stress axis : x y z
#
# Youngs Moduli (GPa) = 30.75413 30.75413 63.43577
#
# Poissons Ratio (x) = 0.46042 0.52134
# Poissons Ratio (y) = 0.46042 0.52134
# Poissons Ratio (z) = 0.25275 0.25275
#
# Static dielectric constant tensor:
#      x y z
#    x 2.788200 0.000000 0.000000 
#    y 0.000000 2.788200 0.000000 
#    z 0.000000 0.000000 3.220210 
# 
# 
# High freq. dielectric constant tensor:
#      x y z
#    x 1.569720 0.000000 0.000000 
#    y 0.000000 1.569720 0.000000 
#    z 0.000000 0.000000 1.605080 
# 
# From -- ./inp_files/3785.got.cif
#   From: 2010.03.12/outbox.cif.g09.slc.cpg/sg123_2_cif.got.tgz:3785.got - 2010.04.06 16:26:55.
