data_PCOD8312903
_publ_section_title
;
Structure prediction by ZEFSAII (Michael W. Deem and Ramdas Pophale) SiO2 
 PCOD8312903
Probable space group: P 4/M M M
;
_chemical_formula_sum "Si O2"
_cell_formula_units_Z 96
_cell_length_a 18.956642
_cell_length_b 18.956642
_cell_length_c 14.553840
_cell_angle_alpha 90.000000
_cell_angle_beta 90.000000
_cell_angle_gamma 90.000000
_cell_volume 5229.984635
_symmetry_space_group_name_H-M "P 4/M M M"
_symmetry_group_IT_number 123
_symmetry_cell_setting 'tetragonal'
loop_
_space_group_symop_operation_xyz
x,y,z
-y,x,z
-x,-y,z
y,-x,z
x,-y,-z
-x,y,-z
y,x,-z
-y,-x,-z
-x,-y,-z
y,-x,-z
x,y,-z
-y,x,-z
-x,y,z
x,-y,z
-y,-x,z
y,x,z
loop_
_atom_site_type_symbol
_atom_site_label
_atom_site_fract_x
_atom_site_fract_y
_atom_site_fract_z
Si Si1 0.195303 0.689750 0.895724
Si Si2 0.420727 0.309330 0.859224
Si Si3 0.153331 0.582316 0.602567
Si Si4 0.806322 0.919442 0.603583
Si Si5 0.082633 0.317717 0.261254
Si Si6 0.309124 0.579046 0.358266
O O1 0.247335 0.752666 0.862890
O O2 0.236733 0.615677 0.890810
O O3 0.126096 0.686991 0.832802
O O4 0.169931 0.702595 0.000000
O O5 0.500000 0.312400 0.899759
O O6 0.375955 0.375955 0.897631
O O7 0.422588 0.312026 0.750492
O O8 0.124818 0.599413 0.500000
O O9 0.154159 0.500000 0.622665
O O10 0.102101 0.613754 0.679551
O O11 0.233578 0.610437 0.611184
O O12 0.778136 0.905822 0.500000
O O13 0.876467 0.876467 0.624594
O O14 0.747429 0.895523 0.674939
O O15 0.827382 0.000000 0.618163
O O16 0.000000 0.319103 0.236644
O O17 0.320799 0.500000 0.397988
O O18 0.369947 0.630054 0.398199
#
# Coordination Sequence:
#
# PCOD8312903 Si02
#       6
#    16  16  16  16  16  16
#     4  10  21  37  57  79 105 140 177 212 259 320
#     4   9  17  31  52  77 106 138 172 213 260 309
#     4  10  21  36  53  74 103 141 182 221 266 323
#     4   9  18  32  51  78 110 140 168 199 241 297
#     4  11  22  36  56  79 104 133 171 223 271 309
#     4   9  17  30  49  74 105 140 179 222 265 310
#
# _framework density 18.355695000000001
#
# number of rings (size 3 to 8) (size 9 to 14) (size 15 to 20)
#    0.000    2.333    1.667    1.000    0.000    3.500 
#    0.000    3.333    0.000    0.000    0.000    7.000 
#    0.000    0.000    0.000   15.500    0.000    0.167 
#
# Total GULP energy -1190279.391918 kJ/mol
# GULP energy per Si atom -12398.743666 kJ/mol
# Density = 1.831392 g / cm^3
# Si number density = 18.355695 Si / 1000 Ang^3
#
#
#
# Elastic Constant Matrix: (Units=GPa)
#
#
# Indices 1 2 3 4 5 6 
#
# 1 101.9381 49.9814 45.9585 0.0000 0.0000 0.0000
# 2 49.9814 101.9381 45.9585 0.0000 0.0000 0.0000
# 3 45.9585 45.9585 88.8796 0.0000 0.0000 0.0000
# 4 0.0000 0.0000 0.0000 0.4696 0.0000 0.0000
# 5 0.0000 0.0000 0.0000 0.0000 0.4696 0.0000
# 6 0.0000 0.0000 0.0000 0.0000 0.0000 27.7240
#
#
#
# Elastic Compliance Matrix: (Units=1/GPa)
#
#
# Indices 1 2 3 4 5 6 
#
# 1 0.014413 -0.004834 -0.004953 0.000000 0.000000 0.000000
# 2 -0.004834 0.014413 -0.004953 0.000000 0.000000 0.000000
# 3 -0.004953 -0.004953 0.016374 0.000000 0.000000 0.000000
# 4 0.000000 0.000000 0.000000 2.129523 0.000000 0.000000
# 5 0.000000 0.000000 0.000000 0.000000 2.129523 0.000000
# 6 0.000000 0.000000 0.000000 0.000000 0.000000 0.036070
#
#
# Mechanical properties :
#
#
# Convention : Reuss Voigt Hill
#
# Bulk Modulus (GPa) = 63.61687 64.06144 63.83915
# Shear Modulus (GPa) = 1.14285 15.78979 8.46632
#
# Velocity S-wave (km/s) = 0.78991 2.93612 2.14997
# Velocity P-wave (km/s) = 5.96364 6.81691 6.40450
#
# Compressibility (1/GPa) = 0.01571910
#
# Stress axis : x y z
#
# Youngs Moduli (GPa) = 69.38127 69.38127 61.07297
#
# Poissons Ratio (x) = 0.33537 0.30252
# Poissons Ratio (y) = 0.33537 0.30252
# Poissons Ratio (z) = 0.34367 0.34367
#
# Static dielectric constant tensor:
#      x y z
#    x 3.403640 0.000000 0.000000 
#    y 0.000000 3.403640 0.000000 
#    z 0.000000 0.000000 3.352700 
# 
# 
# High freq. dielectric constant tensor:
#      x y z
#    x 1.703870 0.000000 0.000000 
#    y 0.000000 1.703870 0.000000 
#    z 0.000000 0.000000 1.710490 
# 
# From -- ./inp_files/4325.got.cif
#   From: 2010.03.12/outbox.cif.g09.slc.cpg/sg123_3_cif.got.tgz:4325.got - 2010.04.06 16:26:55.
