data_PCOD8312849
_publ_section_title
;
Structure prediction by ZEFSAII (Michael W. Deem and Ramdas Pophale) SiO2 
 PCOD8312849
Probable space group: P 4/M M M
;
_chemical_formula_sum "Si O2"
_cell_formula_units_Z 44
_cell_length_a 16.864927
_cell_length_b 16.864927
_cell_length_c 8.040806
_cell_angle_alpha 90.000000
_cell_angle_beta 90.000000
_cell_angle_gamma 90.000000
_cell_volume 2287.012379
_symmetry_space_group_name_H-M "P 4/M M M"
_symmetry_group_IT_number 123
_symmetry_cell_setting 'tetragonal'
loop_
_space_group_symop_operation_xyz
x,y,z
-y,x,z
-x,-y,z
y,-x,z
x,-y,-z
-x,y,-z
y,x,-z
-y,-x,-z
-x,-y,-z
y,-x,-z
x,y,-z
-y,x,-z
-x,y,z
x,-y,z
-y,-x,z
y,x,z
loop_
_atom_site_type_symbol
_atom_site_label
_atom_site_fract_x
_atom_site_fract_y
_atom_site_fract_z
Si Si1 0.210495 0.338604 0.691978
Si Si2 0.783416 0.089707 0.195785
Si Si3 0.500000 0.258791 0.185911
Si Si4 0.500000 0.370818 0.500000
O O1 0.223429 0.360180 0.500000
O O2 0.282709 0.282709 0.756320
O O3 0.127841 0.292833 0.715553
O O4 0.206363 0.420412 0.794559
O O5 0.862819 0.137182 0.246595
O O6 0.793274 0.000000 0.259431
O O7 0.769268 0.093395 0.000000
O O8 0.500000 0.324443 0.327663
O O9 0.500000 0.295975 0.000000
O O10 0.579227 0.420774 0.500000
#
# Coordination Sequence:
#
# PCOD8312849 Si02
#       4
#    16  16   8   4
#     4  10  20  36  57  80 110 148 192 241 289 341
#     4   9  18  33  54  82 115 150 190 236 287 345
#     4  12  23  37  60  85 113 152 196 240 289 346
#     4  11  24  40  56  82 119 150 188 242 291 344
#
# _framework density 19.239073999999999
#
# number of rings (size 3 to 8) (size 9 to 14) (size 15 to 20)
#    0.000    1.909    1.818    2.182    0.000    5.455 
#    0.000    3.636    0.000    5.455    0.000    5.091 
#    0.000    0.000    0.000    0.000    0.000    0.000 
#
# Total GULP energy -545604.192511 kJ/mol
# GULP energy per Si atom -12400.095284 kJ/mol
# Density = 1.919529 g / cm^3
# Si number density = 19.239074 Si / 1000 Ang^3
#
#
#
# Elastic Constant Matrix: (Units=GPa)
#
#
# Indices 1 2 3 4 5 6 
#
# 1 142.2677 61.7758 41.0231 0.0000 0.0000 0.0000
# 2 61.7758 142.2681 41.0231 0.0000 0.0000 0.0000
# 3 41.0231 41.0231 95.4242 0.0000 0.0000 0.0000
# 4 0.0000 0.0000 0.0000 26.2005 0.0000 0.0000
# 5 0.0000 0.0000 0.0000 0.0000 26.1998 0.0000
# 6 0.0000 0.0000 0.0000 0.0000 0.0000 20.9138
#
#
#
# Elastic Compliance Matrix: (Units=1/GPa)
#
#
# Indices 1 2 3 4 5 6 
#
# 1 0.009174 -0.003249 -0.002547 0.000000 0.000000 0.000000
# 2 -0.003249 0.009174 -0.002547 0.000000 0.000000 0.000000
# 3 -0.002547 -0.002547 0.012670 0.000000 0.000000 0.000000
# 4 0.000000 0.000000 0.000000 0.038167 0.000000 0.000000
# 5 0.000000 0.000000 0.000000 0.000000 0.038168 0.000000
# 6 0.000000 0.000000 0.000000 0.000000 0.000000 0.047815
#
#
# Mechanical properties :
#
#
# Convention : Reuss Voigt Hill
#
# Bulk Modulus (GPa) = 69.77877 74.17823 71.97850
# Shear Modulus (GPa) = 28.30717 30.40533 29.35625
#
# Velocity S-wave (km/s) = 3.83996 3.97973 3.91047
# Velocity P-wave (km/s) = 7.48388 7.73029 7.60808
#
# Compressibility (1/GPa) = 0.01433101
#
# Stress axis : x y z
#
# Youngs Moduli (GPa) = 108.99911 108.99951 78.92881
#
# Poissons Ratio (x) = 0.35416 0.20105
# Poissons Ratio (y) = 0.35416 0.20105
# Poissons Ratio (z) = 0.27765 0.27765
#
# Static dielectric constant tensor:
#      x y z
#    x 3.591800 0.000000 0.000000 
#    y 0.000000 3.591800 0.000000 
#    z 0.000000 0.000000 3.503280 
# 
# 
# High freq. dielectric constant tensor:
#      x y z
#    x 1.741680 0.000000 0.000000 
#    y 0.000000 1.741680 0.000000 
#    z 0.000000 0.000000 1.751030 
# 
# From -- ./inp_files/439.got.cif
#   From: 2010.03.12/outbox.cif.g09.slc.cpg/sg123_1_cif.got.tgz:439.got - 2010.04.06 16:26:55.
