data_PCOD8312216
_publ_section_title
;
Structure prediction by ZEFSAII (Michael W. Deem and Ramdas Pophale) SiO2 
 PCOD8312216
Probable space group: P 4/M M M
;
_chemical_formula_sum "Si O2"
_cell_formula_units_Z 64
_cell_length_a 20.179911
_cell_length_b 20.179911
_cell_length_c 10.067585
_cell_angle_alpha 90.000000
_cell_angle_beta 90.000000
_cell_angle_gamma 90.000000
_cell_volume 4099.810639
_symmetry_space_group_name_H-M "P 4/M M M"
_symmetry_group_IT_number 123
_symmetry_cell_setting 'tetragonal'
loop_
_space_group_symop_operation_xyz
x,y,z
-y,x,z
-x,-y,z
y,-x,z
x,-y,-z
-x,y,-z
y,x,-z
-y,-x,-z
-x,-y,-z
y,-x,-z
x,y,-z
-y,x,-z
-x,y,z
x,-y,z
-y,-x,z
y,x,z
loop_
_atom_site_type_symbol
_atom_site_label
_atom_site_fract_x
_atom_site_fract_y
_atom_site_fract_z
Si Si1 0.577576 0.689383 0.500000
Si Si2 0.255456 0.633669 0.241505
Si Si3 0.815816 0.076085 0.348657
Si Si4 0.155255 0.266809 0.151612
Si Si5 0.317330 0.572792 0.000000
O O1 0.500000 0.668617 0.500000
O O2 0.621769 0.621769 0.500000
O O3 0.594127 0.737618 0.378027
O O4 0.307343 0.692657 0.236551
O O5 0.182807 0.665067 0.216742
O O6 0.270567 0.581722 0.126346
O O7 0.790879 0.088177 0.500000
O O8 0.881840 0.118160 0.320003
O O9 0.757875 0.095751 0.245759
O O10 0.834693 0.000000 0.324896
O O11 0.212825 0.212825 0.150195
O O12 0.130453 0.279057 0.000000
O O13 0.348169 0.500000 0.000000
O O14 0.378878 0.621123 0.000000
#
# Coordination Sequence:
#
# PCOD8312216 Si02
#       5
#     8  16  16  16   8
#     4  10  20  31  44  64  91 123 156 188 224 272
#     4   9  17  29  44  63  86 115 150 192 238 272
#     4   9  18  30  45  68  98 130 160 187 215 255
#     4   9  16  28  46  66  88 116 152 195 238 270
#     4  10  18  29  44  62  89 121 152 184 220 268
#
# _framework density 15.610476999999999
#
# number of rings (size 3 to 8) (size 9 to 14) (size 15 to 20)
#    0.000    2.750    1.250    0.750    1.750    1.000 
#    0.000    1.250    0.000    4.500    0.000    3.500 
#    0.000    6.000    0.000    0.000    0.000    0.000 
#
# Total GULP energy -793224.762056 kJ/mol
# GULP energy per Si atom -12394.136907 kJ/mol
# Density = 1.557495 g / cm^3
# Si number density = 15.610477 Si / 1000 Ang^3
#
#
#
# Elastic Constant Matrix: (Units=GPa)
#
#
# Indices 1 2 3 4 5 6 
#
# 1 61.4417 52.7686 49.8918 0.0000 0.0000 0.0000
# 2 52.7686 61.4428 49.8920 0.0000 0.0000 0.0000
# 3 49.8918 49.8920 140.9969 0.0000 0.0000 0.0000
# 4 0.0000 0.0000 0.0000 15.4179 0.0000 0.0000
# 5 0.0000 0.0000 0.0000 0.0000 15.4230 0.0000
# 6 0.0000 0.0000 0.0000 0.0000 0.0000 12.6957
#
#
#
# Elastic Compliance Matrix: (Units=1/GPa)
#
#
# Indices 1 2 3 4 5 6 
#
# 1 0.063983 -0.051309 -0.004485 0.000000 0.000000 0.000000
# 2 -0.051309 0.063982 -0.004484 0.000000 0.000000 0.000000
# 3 -0.004485 -0.004484 0.010266 0.000000 0.000000 0.000000
# 4 0.000000 0.000000 0.000000 0.064860 0.000000 0.000000
# 5 0.000000 0.000000 0.000000 0.000000 0.064838 0.000000
# 6 0.000000 0.000000 0.000000 0.000000 0.000000 0.078767
#
#
# Mechanical properties :
#
#
# Convention : Reuss Voigt Hill
#
# Bulk Modulus (GPa) = 56.57616 63.22068 59.89842
# Shear Modulus (GPa) = 10.56761 16.12925 13.34843
#
# Velocity S-wave (km/s) = 2.60466 3.21788 2.92737
# Velocity P-wave (km/s) = 6.73549 7.37517 7.06257
#
# Compressibility (1/GPa) = 0.01767529
#
# Stress axis : x y z
#
# Youngs Moduli (GPa) = 15.62907 15.62944 97.40729
#
# Poissons Ratio (x) = 0.80193 0.43686
# Poissons Ratio (y) = 0.80191 0.43682
# Poissons Ratio (z) = 0.07009 0.07009
#
# Static dielectric constant tensor:
#      x y z
#    x 2.789890 0.000000 0.000000 
#    y 0.000000 2.789890 0.000000 
#    z 0.000000 0.000000 3.097690 
# 
# 
# High freq. dielectric constant tensor:
#      x y z
#    x 1.568430 0.000000 0.000000 
#    y 0.000000 1.568430 0.000000 
#    z 0.000000 0.000000 1.619650 
# 
# From -- ./inp_files/965.got.cif
#   From: 2010.03.12/outbox.cif.g09.slc.cpg/sg123_1_cif.got.tgz:965.got - 2010.04.06 16:26:55.
