data_PCOD8312784
_publ_section_title
;
Structure prediction by ZEFSAII (Michael W. Deem and Ramdas Pophale) SiO2 
 PCOD8312784
Probable space group: P 4/M M M
;
_chemical_formula_sum "Si O2"
_cell_formula_units_Z 88
_cell_length_a 13.216116
_cell_length_b 13.216116
_cell_length_c 28.377427
_cell_angle_alpha 90.000000
_cell_angle_beta 90.000000
_cell_angle_gamma 90.000000
_cell_volume 4956.563779
_symmetry_space_group_name_H-M "P 4/M M M"
_symmetry_group_IT_number 123
_symmetry_cell_setting 'tetragonal'
loop_
_space_group_symop_operation_xyz
x,y,z
-y,x,z
-x,-y,z
y,-x,z
x,-y,-z
-x,y,-z
y,x,-z
-y,-x,-z
-x,-y,-z
y,-x,-z
x,y,-z
-y,x,-z
-x,y,z
x,-y,z
-y,-x,z
y,x,z
loop_
_atom_site_type_symbol
_atom_site_label
_atom_site_fract_x
_atom_site_fract_y
_atom_site_fract_z
Si Si1 0.119023 0.279896 0.762934
Si Si2 0.389246 0.119892 0.856902
Si Si3 0.382142 0.783960 0.322444
Si Si4 0.381822 0.784402 0.500000
Si Si5 0.278026 0.116235 0.051980
Si Si6 0.284151 0.118365 0.411225
O O1 0.173193 0.173193 0.752093
O O2 0.152935 0.315816 0.814778
O O3 0.155865 0.364129 0.726053
O O4 0.000000 0.262636 0.758494
O O5 0.500000 0.167335 0.848308
O O6 0.350638 0.160625 0.907469
O O7 0.397416 0.000000 0.858125
O O8 0.500000 0.758759 0.327969
O O9 0.322118 0.677883 0.323512
O O10 0.345262 0.856734 0.364042
O O11 0.500000 0.757739 0.500000
O O12 0.321484 0.678517 0.500000
O O13 0.354826 0.850727 0.545386
O O14 0.170764 0.170764 0.054424
O O15 0.253997 0.000000 0.062120
O O16 0.328307 0.131320 0.000000
O O17 0.177824 0.177824 0.413074
O O18 0.258844 0.000000 0.413180
#
# Coordination Sequence:
#
# PCOD8312784 Si02
#       6
#    16  16  16   8  16  16
#     4  10  20  33  50  73 100 130 164 200 240 290
#     4   9  17  29  45  64  87 118 155 193 234 279
#     4  10  21  36  54  77 103 132 169 210 251 297
#     4  10  21  36  54  78 106 136 173 214 256 304
#     4   9  17  28  42  62  89 120 153 189 230 280
#     4  10  21  36  54  78 106 136 172 211 252 302
#
# _framework density 17.754235999999999
#
# number of rings (size 3 to 8) (size 9 to 14) (size 15 to 20)
#    0.000    2.364    0.000    2.455    0.000    4.818 
#    0.000    2.727    0.000   11.455    0.000    0.000 
#    0.000    3.273    0.000    8.000    0.000    0.727 
#
# Total GULP energy -1091110.322484 kJ/mol
# GULP energy per Si atom -12398.980937 kJ/mol
# Density = 1.771383 g / cm^3
# Si number density = 17.754236 Si / 1000 Ang^3
#
#
#
# Elastic Constant Matrix: (Units=GPa)
#
#
# Indices 1 2 3 4 5 6 
#
# 1 108.0499 46.7112 39.8811 0.0000 0.0000 0.0000
# 2 46.7112 108.0491 39.8808 0.0000 0.0000 0.0000
# 3 39.8811 39.8808 125.6070 0.0000 0.0000 0.0000
# 4 0.0000 0.0000 0.0000 14.6698 0.0000 0.0000
# 5 0.0000 0.0000 0.0000 0.0000 14.6690 0.0000
# 6 0.0000 0.0000 0.0000 0.0000 0.0000 11.6416
#
#
#
# Elastic Compliance Matrix: (Units=1/GPa)
#
#
# Indices 1 2 3 4 5 6 
#
# 1 0.012014 -0.004289 -0.002453 0.000000 0.000000 0.000000
# 2 -0.004289 0.012014 -0.002453 0.000000 0.000000 0.000000
# 3 -0.002453 -0.002453 0.009519 0.000000 0.000000 0.000000
# 4 0.000000 0.000000 0.000000 0.068167 0.000000 0.000000
# 5 0.000000 0.000000 0.000000 0.000000 0.068171 0.000000
# 6 0.000000 0.000000 0.000000 0.000000 0.000000 0.085899
#
#
# Mechanical properties :
#
#
# Convention : Reuss Voigt Hill
#
# Bulk Modulus (GPa) = 65.96869 66.07246 66.02058
# Shear Modulus (GPa) = 17.90657 22.54493 20.22575
#
# Velocity S-wave (km/s) = 3.17926 3.56734 3.37888
# Velocity P-wave (km/s) = 7.12139 7.36639 7.24493
#
# Compressibility (1/GPa) = 0.01515871
#
# Stress axis : x y z
#
# Youngs Moduli (GPa) = 83.23348 83.23294 105.05282
#
# Poissons Ratio (x) = 0.35695 0.25769
# Poissons Ratio (y) = 0.35696 0.25769
# Poissons Ratio (z) = 0.20417 0.20417
#
# Static dielectric constant tensor:
#      x y z
#    x 3.125550 0.000000 0.000000 
#    y 0.000000 3.125550 0.000000 
#    z 0.000000 0.000000 3.665420 
# 
# 
# High freq. dielectric constant tensor:
#      x y z
#    x 1.670700 0.000000 0.000000 
#    y 0.000000 1.670700 0.000000 
#    z 0.000000 0.000000 1.712410 
# 
# From -- ./inp_files/8456.got.cif
#   From: 2010.03.12/outbox.cif.g09.slc.cpg/sg123_5_cif.got.tgz:8456.got - 2010.04.06 16:26:55.
