data_PCOD8312249
_publ_section_title
;
Structure prediction by ZEFSAII (Michael W. Deem and Ramdas Pophale) SiO2 
 PCOD8312249
Probable space group: P 4/M M M
;
_chemical_formula_sum "Si O2"
_cell_formula_units_Z 64
_cell_length_a 23.011257
_cell_length_b 23.011257
_cell_length_c 7.739917
_cell_angle_alpha 90.000000
_cell_angle_beta 90.000000
_cell_angle_gamma 90.000000
_cell_volume 4098.424973
_symmetry_space_group_name_H-M "P 4/M M M"
_symmetry_group_IT_number 123
_symmetry_cell_setting 'tetragonal'
loop_
_space_group_symop_operation_xyz
x,y,z
-y,x,z
-x,-y,z
y,-x,z
x,-y,-z
-x,y,-z
y,x,-z
-y,-x,-z
-x,-y,-z
y,-x,-z
x,y,-z
-y,x,-z
-x,y,z
x,-y,z
-y,-x,z
y,x,z
loop_
_atom_site_type_symbol
_atom_site_label
_atom_site_fract_x
_atom_site_fract_y
_atom_site_fract_z
Si Si1 0.064826 0.841892 0.305591
Si Si2 0.651464 0.251733 0.308729
Si Si3 0.565255 0.657763 0.795053
Si Si4 0.808203 0.709238 0.000000
Si Si5 0.246405 0.934429 0.000000
O O1 0.079169 0.819776 0.500000
O O2 0.106689 0.893312 0.247576
O O3 0.000000 0.867306 0.296002
O O4 0.072643 0.789631 0.174646
O O5 0.651982 0.223188 0.500000
O O6 0.695670 0.304331 0.294655
O O7 0.588529 0.279653 0.270267
O O8 0.670680 0.204419 0.168828
O O9 0.500000 0.649306 0.724635
O O10 0.604610 0.604610 0.723530
O O11 0.566824 0.658139 0.000000
O O12 0.770659 0.770659 0.000000
O O13 0.878197 0.712852 0.000000
O O14 0.275482 0.000000 0.000000
#
# Coordination Sequence:
#
# PCOD8312249 Si02
#       5
#    16  16  16   8   8
#     4   9  17  28  41  58  81 109 141 174 207 247
#     4   9  17  29  45  65  88 115 150 192 231 260
#     4   9  16  27  43  64  95 132 164 194 223 250
#     4  10  18  30  47  65  85 111 145 184 223 272
#     4  10  20  32  45  62  85 111 137 174 225 278
#
# _framework density 15.615755
#
# number of rings (size 3 to 8) (size 9 to 14) (size 15 to 20)
#    0.000    2.750    1.250    1.125    0.000    2.000 
#    0.000    5.000    0.000    2.250    0.000    3.500 
#    0.000    2.000    0.000    2.250    0.000    0.000 
#
# Total GULP energy -792983.458897 kJ/mol
# GULP energy per Si atom -12390.366545 kJ/mol
# Density = 1.558021 g / cm^3
# Si number density = 15.615755 Si / 1000 Ang^3
#
#
#
# Elastic Constant Matrix: (Units=GPa)
#
#
# Indices 1 2 3 4 5 6 
#
# 1 84.0487 53.4576 37.6109 0.0000 0.0000 0.0000
# 2 53.4576 84.0487 37.6109 0.0000 0.0000 0.0000
# 3 37.6109 37.6109 84.4970 0.0000 0.0000 0.0000
# 4 0.0000 0.0000 0.0000 9.4653 0.0000 0.0000
# 5 0.0000 0.0000 0.0000 0.0000 9.4653 0.0000
# 6 0.0000 0.0000 0.0000 0.0000 0.0000 24.0954
#
#
#
# Elastic Compliance Matrix: (Units=1/GPa)
#
#
# Indices 1 2 3 4 5 6 
#
# 1 0.021151 -0.011538 -0.004279 0.000000 0.000000 0.000000
# 2 -0.011538 0.021151 -0.004279 0.000000 0.000000 0.000000
# 3 -0.004279 -0.004279 0.015644 0.000000 0.000000 0.000000
# 4 0.000000 0.000000 0.000000 0.105649 0.000000 0.000000
# 5 0.000000 0.000000 0.000000 0.000000 0.105649 0.000000
# 6 0.000000 0.000000 0.000000 0.000000 0.000000 0.041502
#
#
# Mechanical properties :
#
#
# Convention : Reuss Voigt Hill
#
# Bulk Modulus (GPa) = 56.32384 56.66148 56.49266
# Shear Modulus (GPa) = 14.01122 16.86619 15.43870
#
# Velocity S-wave (km/s) = 2.99866 3.29001 3.14771
# Velocity P-wave (km/s) = 6.93802 7.12712 7.03321
#
# Compressibility (1/GPa) = 0.01775447
#
# Stress axis : x y z
#
# Youngs Moduli (GPa) = 47.27866 47.27866 63.92219
#
# Poissons Ratio (x) = 0.54550 0.27352
# Poissons Ratio (y) = 0.54550 0.27352
# Poissons Ratio (z) = 0.20230 0.20230
#
# Static dielectric constant tensor:
#      x y z
#    x 2.868530 0.000000 0.000000 
#    y 0.000000 2.868530 0.000000 
#    z 0.000000 0.000000 3.270950 
# 
# 
# High freq. dielectric constant tensor:
#      x y z
#    x 1.566310 0.000000 0.000000 
#    y 0.000000 1.566310 0.000000 
#    z 0.000000 0.000000 1.619600 
# 
# From -- ./inp_files/892.got.cif
#   From: 2010.03.12/outbox.cif.g09.slc.cpg/sg123_1_cif.got.tgz:892.got - 2010.04.06 16:26:55.
