data_PCOD8312364
_publ_section_title
;
Structure prediction by ZEFSAII (Michael W. Deem and Ramdas Pophale) SiO2 
 PCOD8312364
Probable space group: P 4/M M M
;
_chemical_formula_sum "Si O2"
_cell_formula_units_Z 104
_cell_length_a 22.064246
_cell_length_b 22.064246
_cell_length_c 13.105166
_cell_angle_alpha 90.000000
_cell_angle_beta 90.000000
_cell_angle_gamma 90.000000
_cell_volume 6380.000434
_symmetry_space_group_name_H-M "P 4/M M M"
_symmetry_group_IT_number 123
_symmetry_cell_setting 'tetragonal'
loop_
_space_group_symop_operation_xyz
x,y,z
-y,x,z
-x,-y,z
y,-x,z
x,-y,-z
-x,y,-z
y,x,-z
-y,-x,-z
-x,-y,-z
y,-x,-z
x,y,-z
-y,x,-z
-x,y,z
x,-y,z
-y,-x,z
y,x,z
loop_
_atom_site_type_symbol
_atom_site_label
_atom_site_fract_x
_atom_site_fract_y
_atom_site_fract_z
Si Si1 0.333977 0.430933 0.117663
Si Si2 0.242097 0.660309 0.195838
Si Si3 0.930708 0.166283 0.115646
Si Si4 0.716965 0.814514 0.615172
Si Si5 0.371661 0.114620 0.883307
Si Si6 0.500000 0.931900 0.880009
Si Si7 0.274667 0.931454 0.739349
O O1 0.340930 0.500000 0.153174
O O2 0.398909 0.398909 0.132322
O O3 0.283759 0.399207 0.188647
O O4 0.312692 0.426206 0.000000
O O5 0.280885 0.719116 0.158568
O O6 0.220160 0.668959 0.312509
O O7 0.183760 0.651307 0.124717
O O8 0.893155 0.106846 0.142975
O O9 0.910132 0.219304 0.190289
O O10 0.000000 0.148384 0.132733
O O11 0.918799 0.188360 0.000000
O O12 0.692019 0.810685 0.500000
O O13 0.782767 0.782767 0.624170
O O14 0.722411 0.885141 0.645119
O O15 0.441189 0.106799 0.846385
O O16 0.333876 0.070747 0.810038
O O17 0.363678 0.093155 0.000000
O O18 0.500000 0.000000 0.831598
O O19 0.500000 0.939198 0.000000
O O20 0.266996 0.000000 0.697628
#
# Coordination Sequence:
#
# PCOD8312364 Si02
#       7
#    16  16  16  16  16   8  16
#     4   9  17  28  44  68 100 134 162 188 215 253
#     4   9  18  31  46  68  94 119 153 195 237 278
#     4   9  17  28  42  62  90 123 156 188 222 266
#     4   9  18  33  51  68  87 112 145 189 239 286
#     4  10  19  29  44  65  91 125 156 187 226 270
#     4   9  18  30  42  60  87 119 158 194 219 256
#     4  10  19  30  45  66  90 116 147 185 231 279
#
# _framework density 16.300939
#
# number of rings (size 3 to 8) (size 9 to 14) (size 15 to 20)
#    0.000    2.692    0.000    1.846    1.077    3.692 
#    0.000    1.538    0.000    0.462    0.000    0.000 
#    0.000    5.846    0.000   20.308    0.000    0.308 
#
# Total GULP energy -1289348.226624 kJ/mol
# GULP energy per Si atom -12397.579102 kJ/mol
# Density = 1.626384 g / cm^3
# Si number density = 16.300939 Si / 1000 Ang^3
#
#
#
# Elastic Constant Matrix: (Units=GPa)
#
#
# Indices 1 2 3 4 5 6 
#
# 1 95.8205 38.9372 35.2261 0.0000 0.0000 0.0000
# 2 38.9372 95.8205 35.2261 0.0000 0.0000 0.0000
# 3 35.2261 35.2261 71.4354 0.0000 0.0000 0.0000
# 4 0.0000 0.0000 0.0000 15.9475 0.0000 0.0000
# 5 0.0000 0.0000 0.0000 0.0000 15.9475 0.0000
# 6 0.0000 0.0000 0.0000 0.0000 0.0000 21.7329
#
#
#
# Elastic Compliance Matrix: (Units=1/GPa)
#
#
# Indices 1 2 3 4 5 6 
#
# 1 0.013789 -0.003791 -0.004930 0.000000 0.000000 0.000000
# 2 -0.003791 0.013789 -0.004930 0.000000 0.000000 0.000000
# 3 -0.004930 -0.004930 0.018861 0.000000 0.000000 0.000000
# 4 0.000000 0.000000 0.000000 0.062706 0.000000 0.000000
# 5 0.000000 0.000000 0.000000 0.000000 0.062706 0.000000
# 6 0.000000 0.000000 0.000000 0.000000 0.000000 0.046013
#
#
# Mechanical properties :
#
#
# Convention : Reuss Voigt Hill
#
# Bulk Modulus (GPa) = 52.25644 53.53948 52.89796
# Shear Modulus (GPa) = 19.87710 20.97139 20.42424
#
# Velocity S-wave (km/s) = 3.49576 3.59069 3.54354
# Velocity P-wave (km/s) = 6.95850 7.07859 7.01880
#
# Compressibility (1/GPa) = 0.01913640
#
# Stress axis : x y z
#
# Youngs Moduli (GPa) = 72.52104 72.52104 53.01898
#
# Poissons Ratio (x) = 0.27491 0.26140
# Poissons Ratio (y) = 0.27491 0.26140
# Poissons Ratio (z) = 0.35756 0.35756
#
# Static dielectric constant tensor:
#      x y z
#    x 3.152690 0.000000 0.000000 
#    y 0.000000 3.152690 0.000000 
#    z 0.000000 0.000000 2.812450 
# 
# 
# High freq. dielectric constant tensor:
#      x y z
#    x 1.631010 0.000000 0.000000 
#    y 0.000000 1.631010 0.000000 
#    z 0.000000 0.000000 1.589020 
# 
# From -- ./inp_files/4459.got.cif
#   From: 2010.03.12/outbox.cif.g09.slc.cpg/sg123_3_cif.got.tgz:4459.got - 2010.04.06 16:26:55.
