data_PCOD8312806
_publ_section_title
;
Structure prediction by ZEFSAII (Michael W. Deem and Ramdas Pophale) SiO2 
 PCOD8312806
Probable space group: P 4/M M M
;
_chemical_formula_sum "Si O2"
_cell_formula_units_Z 72
_cell_length_a 21.809650
_cell_length_b 21.809650
_cell_length_c 7.930342
_cell_angle_alpha 90.000000
_cell_angle_beta 90.000000
_cell_angle_gamma 90.000000
_cell_volume 3772.153083
_symmetry_space_group_name_H-M "P 4/M M M"
_symmetry_group_IT_number 123
_symmetry_cell_setting 'tetragonal'
loop_
_space_group_symop_operation_xyz
x,y,z
-y,x,z
-x,-y,z
y,-x,z
x,-y,-z
-x,y,-z
y,x,-z
-y,-x,-z
-x,-y,-z
y,-x,-z
x,y,-z
-y,x,-z
-x,y,z
x,-y,z
-y,-x,z
y,x,z
loop_
_atom_site_type_symbol
_atom_site_label
_atom_site_fract_x
_atom_site_fract_y
_atom_site_fract_z
Si Si1 0.432389 0.769350 0.000000
Si Si2 0.636351 0.000000 0.683419
Si Si3 0.837141 0.067707 0.196928
Si Si4 0.345795 0.243097 0.305104
Si Si5 0.500000 0.000000 0.753277
Si Si6 0.707957 0.886083 0.300577
Si Si7 0.500000 0.888708 0.000000
O O1 0.400263 0.745728 0.171875
O O2 0.440010 0.844192 0.000000
O O3 0.500000 0.738848 0.000000
O O4 0.563371 0.000000 0.653118
O O5 0.661385 0.061698 0.773843
O O6 0.667212 0.000000 0.500000
O O7 0.892551 0.107450 0.277356
O O8 0.774458 0.103385 0.225705
O O9 0.835732 0.000000 0.281375
O O10 0.848119 0.060892 0.000000
O O11 0.369913 0.238429 0.500000
O O12 0.297860 0.297860 0.289306
O O13 0.314292 0.180468 0.242939
O O14 0.500000 0.065017 0.845249
O O15 0.711167 0.887692 0.500000
#
# Coordination Sequence:
#
# PCOD8312806 Si02
#       7
#     8   8  16  16   4  16   4
#     4  10  22  39  56  83 118 155 195 235 283 340
#     4  10  20  33  54  77 104 142 185 232 284 332
#     4  10  21  36  52  74  98 129 172 221 284 350
#     4  10  21  37  59  86 116 153 195 240 289 339
#     4  11  19  36  50  72 107 145 192 239 266 326
#     4  10  20  36  54  79 108 138 180 232 285 335
#     4   9  22  36  48  76 110 152 195 228 280 328
#
# _framework density 19.087243000000001
#
# number of rings (size 3 to 8) (size 9 to 14) (size 15 to 20)
#    0.333    1.667    1.111    2.500    1.556    2.000 
#    4.000    2.222    0.000    0.000    0.000    1.556 
#    0.000    3.556    0.000    9.778    0.000    0.000 
#
# Total GULP energy -892049.194983 kJ/mol
# GULP energy per Si atom -12389.572153 kJ/mol
# Density = 1.904380 g / cm^3
# Si number density = 19.087243 Si / 1000 Ang^3
#
#
#
# Elastic Constant Matrix: (Units=GPa)
#
#
# Indices 1 2 3 4 5 6 
#
# 1 101.7164 55.9768 35.9853 0.0000 0.0000 0.0000
# 2 55.9768 101.7164 35.9853 0.0000 0.0000 0.0000
# 3 35.9853 35.9853 67.6229 0.0000 0.0000 0.0000
# 4 0.0000 0.0000 0.0000 7.4976 0.0000 0.0000
# 5 0.0000 0.0000 0.0000 0.0000 7.4976 0.0000
# 6 0.0000 0.0000 0.0000 0.0000 0.0000 11.2101
#
#
#
# Elastic Compliance Matrix: (Units=1/GPa)
#
#
# Indices 1 2 3 4 5 6 
#
# 1 0.015119 -0.006744 -0.004457 0.000000 0.000000 0.000000
# 2 -0.006744 0.015119 -0.004457 0.000000 0.000000 0.000000
# 3 -0.004457 -0.004457 0.019532 0.000000 0.000000 0.000000
# 4 0.000000 0.000000 0.000000 0.133376 0.000000 0.000000
# 5 0.000000 0.000000 0.000000 0.000000 0.133376 0.000000
# 6 0.000000 0.000000 0.000000 0.000000 0.000000 0.089205
#
#
# Mechanical properties :
#
#
# Convention : Reuss Voigt Hill
#
# Bulk Modulus (GPa) = 54.18732 58.55008 56.36870
# Shear Modulus (GPa) = 11.28176 14.78162 13.03169
#
# Velocity S-wave (km/s) = 2.43382 2.78587 2.61577
# Velocity P-wave (km/s) = 6.02900 6.41012 6.22248
#
# Compressibility (1/GPa) = 0.01845450
#
# Stress axis : x y z
#
# Youngs Moduli (GPa) = 66.14076 66.14076 51.19931
#
# Poissons Ratio (x) = 0.44603 0.22820
# Poissons Ratio (y) = 0.44603 0.22820
# Poissons Ratio (z) = 0.29479 0.29479
#
# Static dielectric constant tensor:
#      x y z
#    x -4.052900 0.000000 0.000000 
#    y 0.000000 -4.052900 0.000000 
#    z 0.000000 0.000000 3.337000 
# 
# 
# High freq. dielectric constant tensor:
#      x y z
#    x 1.732200 0.000000 0.000000 
#    y 0.000000 1.732200 0.000000 
#    z 0.000000 0.000000 1.732410 
# 
# From -- ./inp_files/1275.got.cif
#   From: 2010.03.12/outbox.cif.g09.slc.cpg/sg123_1_cif.got.tgz:1275.got - 2010.04.06 16:26:55.
