data_PCOD8312435
_publ_section_title
;
Structure prediction by ZEFSAII (Michael W. Deem and Ramdas Pophale) SiO2 
 PCOD8312435
Probable space group: P 4/M M M
;
_chemical_formula_sum "Si O2"
_cell_formula_units_Z 96
_cell_length_a 13.757715
_cell_length_b 13.757715
_cell_length_c 30.776208
_cell_angle_alpha 90.000000
_cell_angle_beta 90.000000
_cell_angle_gamma 90.000000
_cell_volume 5825.158214
_symmetry_space_group_name_H-M "P 4/M M M"
_symmetry_group_IT_number 123
_symmetry_cell_setting 'tetragonal'
loop_
_space_group_symop_operation_xyz
x,y,z
-y,x,z
-x,-y,z
y,-x,z
x,-y,-z
-x,y,-z
y,x,-z
-y,-x,-z
-x,-y,-z
y,-x,-z
x,y,-z
-y,x,-z
-x,y,z
x,-y,z
-y,-x,z
y,x,z
loop_
_atom_site_type_symbol
_atom_site_label
_atom_site_fract_x
_atom_site_fract_y
_atom_site_fract_z
Si Si1 0.614915 0.773991 0.415176
Si Si2 0.614847 0.109128 0.500000
Si Si3 0.891486 0.615211 0.000000
Si Si4 0.110731 0.386436 0.833497
Si Si5 0.113295 0.271875 0.654417
Si Si6 0.385189 0.770222 0.917017
Si Si7 0.734276 0.889162 0.752461
O O1 0.500000 0.752201 0.414938
O O2 0.671177 0.671177 0.413175
O O3 0.649466 0.831974 0.457835
O O4 0.642118 0.841938 0.374495
O O5 0.500000 0.100058 0.500000
O O6 0.660210 0.000000 0.500000
O O7 0.835427 0.650725 0.042782
O O8 0.898690 0.500000 0.000000
O O9 0.000000 0.660069 0.000000
O O10 0.120365 0.500000 0.827602
O O11 0.176166 0.350465 0.873321
O O12 0.148816 0.341924 0.788204
O O13 0.000000 0.356147 0.843598
O O14 0.170682 0.170682 0.645999
O O15 0.126862 0.307953 0.704052
O O16 0.000000 0.254844 0.643100
O O17 0.500000 0.752250 0.918258
O O18 0.334426 0.665575 0.919551
O O19 0.834988 0.834988 0.758715
O O20 0.759907 0.000000 0.760777
#
# Coordination Sequence:
#
# PCOD8312435 Si02
#       7
#    16   8   8  16  16  16  16
#     4  10  20  33  49  70  96 126 161 199 237 279
#     4   9  17  30  49  71  93 119 151 187 228 271
#     4   9  17  30  47  65  85 109 139 177 217 254
#     4   9  17  29  45  65  88 115 149 189 229 264
#     4   9  18  31  47  69  95 123 156 193 235 284
#     4  10  19  30  45  65  90 119 148 179 216 259
#     4   9  17  29  45  66  92 119 148 184 226 275
#
# _framework density 16.480239000000001
#
# number of rings (size 3 to 8) (size 9 to 14) (size 15 to 20)
#    0.000    2.667    0.000    2.000    0.000    4.333 
#    0.000    3.333    0.000    3.000    0.000    0.000 
#    0.000   22.667    0.000    0.000    0.000    0.000 
#
# Total GULP energy -1190212.585958 kJ/mol
# GULP energy per Si atom -12398.047770 kJ/mol
# Density = 1.644273 g / cm^3
# Si number density = 16.480239 Si / 1000 Ang^3
#
#
#
# Elastic Constant Matrix: (Units=GPa)
#
#
# Indices 1 2 3 4 5 6 
#
# 1 77.9423 44.0314 53.6821 0.0000 0.0000 0.0000
# 2 44.0314 77.9423 53.6821 0.0000 0.0000 0.0000
# 3 53.6821 53.6821 134.3368 0.0000 0.0000 0.0000
# 4 0.0000 0.0000 0.0000 24.5292 0.0000 0.0000
# 5 0.0000 0.0000 0.0000 0.0000 24.5292 0.0000
# 6 0.0000 0.0000 0.0000 0.0000 0.0000 20.2881
#
#
#
# Elastic Compliance Matrix: (Units=1/GPa)
#
#
# Indices 1 2 3 4 5 6 
#
# 1 0.021068 -0.008421 -0.005054 0.000000 0.000000 0.000000
# 2 -0.008421 0.021068 -0.005054 0.000000 0.000000 0.000000
# 3 -0.005054 -0.005054 0.011483 0.000000 0.000000 0.000000
# 4 0.000000 0.000000 0.000000 0.040768 0.000000 0.000000
# 5 0.000000 0.000000 0.000000 0.000000 0.040768 0.000000
# 6 0.000000 0.000000 0.000000 0.000000 0.000000 0.049290
#
#
# Mechanical properties :
#
#
# Convention : Reuss Voigt Hill
#
# Bulk Modulus (GPa) = 60.38022 65.89031 63.13526
# Shear Modulus (GPa) = 22.02424 23.12435 22.57430
#
# Velocity S-wave (km/s) = 3.65965 3.74994 3.70507
# Velocity P-wave (km/s) = 7.38748 7.66926 7.52969
#
# Compressibility (1/GPa) = 0.01656171
#
# Stress axis : x y z
#
# Youngs Moduli (GPa) = 47.46535 47.46535 87.08446
#
# Poissons Ratio (x) = 0.39970 0.44011
# Poissons Ratio (y) = 0.39970 0.44011
# Poissons Ratio (z) = 0.23988 0.23988
#
# Static dielectric constant tensor:
#      x y z
#    x 2.980470 0.000000 0.000000 
#    y 0.000000 2.980470 0.000000 
#    z 0.000000 0.000000 3.411650 
# 
# 
# High freq. dielectric constant tensor:
#      x y z
#    x 1.620510 0.000000 0.000000 
#    y 0.000000 1.620510 0.000000 
#    z 0.000000 0.000000 1.652600 
# 
# From -- ./inp_files/8146.got.cif
#   From: 2010.03.12/outbox.cif.g09.slc.cpg/sg123_5_cif.got.tgz:8146.got - 2010.04.06 16:26:55.
