data_PCOD8312892
_publ_section_title
;
Structure prediction by ZEFSAII (Michael W. Deem and Ramdas Pophale) SiO2 
 PCOD8312892
Probable space group: P 4/M M M
;
_chemical_formula_sum "Si O2"
_cell_formula_units_Z 88
_cell_length_a 13.202609
_cell_length_b 13.202609
_cell_length_c 28.311378
_cell_angle_alpha 90.000000
_cell_angle_beta 90.000000
_cell_angle_gamma 90.000000
_cell_volume 4934.924715
_symmetry_space_group_name_H-M "P 4/M M M"
_symmetry_group_IT_number 123
_symmetry_cell_setting 'tetragonal'
loop_
_space_group_symop_operation_xyz
x,y,z
-y,x,z
-x,-y,z
y,-x,z
x,-y,-z
-x,y,-z
y,x,-z
-y,-x,-z
-x,-y,-z
y,-x,-z
x,y,-z
-y,x,-z
-x,y,z
x,-y,z
-y,-x,z
y,x,z
loop_
_atom_site_type_symbol
_atom_site_label
_atom_site_fract_x
_atom_site_fract_y
_atom_site_fract_z
Si Si1 0.785138 0.618455 0.397503
Si Si2 0.116812 0.717672 0.137114
Si Si3 0.385789 0.224275 0.500000
Si Si4 0.116628 0.717219 0.311613
Si Si5 0.382769 0.216701 0.224067
Si Si6 0.220514 0.616204 0.946184
O O1 0.762309 0.500000 0.388887
O O2 0.680015 0.680015 0.390583
O O3 0.833385 0.637891 0.450376
O O4 0.867873 0.658248 0.360758
O O5 0.177413 0.822588 0.141030
O O6 0.151078 0.640963 0.177824
O O7 0.134142 0.663645 0.086805
O O8 0.000000 0.745079 0.142855
O O9 0.500000 0.259211 0.500000
O O10 0.329444 0.329444 0.500000
O O11 0.178258 0.821743 0.310091
O O12 0.150377 0.643584 0.269683
O O13 0.000000 0.746078 0.305793
O O14 0.500000 0.245568 0.224850
O O15 0.321437 0.321437 0.223869
O O16 0.239859 0.500000 0.932973
O O17 0.326655 0.673346 0.937497
O O18 0.182988 0.628632 0.000000
#
# Coordination Sequence:
#
# PCOD8312892 Si02
#       6
#    16  16   8  16  16  16
#     4   9  17  29  46  70  99 130 163 197 236 285
#     4  10  21  36  53  74 100 130 167 210 252 294
#     4   8  14  25  41  63  94 128 160 196 235 278
#     4  10  21  36  53  73  96 124 161 204 248 292
#     4  10  21  36  54  78 106 134 164 196 233 282
#     4   9  18  32  50  74 103 133 166 204 246 295
#
# _framework density 17.832086
#
# number of rings (size 3 to 8) (size 9 to 14) (size 15 to 20)
#    0.000    2.545    0.000    1.636    0.000    5.000 
#    0.000    4.091    0.000   11.455    0.000    2.545 
#    0.000    3.636    0.000    0.000    0.000    0.000 
#
# Total GULP energy -1090930.016327 kJ/mol
# GULP energy per Si atom -12396.932004 kJ/mol
# Density = 1.779150 g / cm^3
# Si number density = 17.832086 Si / 1000 Ang^3
#
#
#
# Elastic Constant Matrix: (Units=GPa)
#
#
# Indices 1 2 3 4 5 6 
#
# 1 112.8561 45.2444 50.1565 0.0000 0.0000 0.0000
# 2 45.2444 112.8561 50.1565 0.0000 0.0000 0.0000
# 3 50.1565 50.1565 123.4869 0.0000 0.0000 0.0000
# 4 0.0000 0.0000 0.0000 16.3865 0.0000 0.0000
# 5 0.0000 0.0000 0.0000 0.0000 16.3865 0.0000
# 6 0.0000 0.0000 0.0000 0.0000 0.0000 9.5062
#
#
#
# Elastic Compliance Matrix: (Units=1/GPa)
#
#
# Indices 1 2 3 4 5 6 
#
# 1 0.011656 -0.003135 -0.003461 0.000000 0.000000 0.000000
# 2 -0.003135 0.011656 -0.003461 0.000000 0.000000 0.000000
# 3 -0.003461 -0.003461 0.010910 0.000000 0.000000 0.000000
# 4 0.000000 0.000000 0.000000 0.061026 0.000000 0.000000
# 5 0.000000 0.000000 0.000000 0.000000 0.061026 0.000000
# 6 0.000000 0.000000 0.000000 0.000000 0.000000 0.105194
#
#
# Mechanical properties :
#
#
# Convention : Reuss Voigt Hill
#
# Bulk Modulus (GPa) = 70.88342 71.14601 71.01472
# Shear Modulus (GPa) = 17.46527 22.03197 19.74862
#
# Velocity S-wave (km/s) = 3.13298 3.51882 3.33149
# Velocity P-wave (km/s) = 7.27490 7.51623 7.39655
#
# Compressibility (1/GPa) = 0.01410767
#
# Stress axis : x y z
#
# Youngs Moduli (GPa) = 85.79498 85.79498 91.66314
#
# Poissons Ratio (x) = 0.26894 0.31724
# Poissons Ratio (y) = 0.26894 0.31724
# Poissons Ratio (z) = 0.29693 0.29693
#
# Static dielectric constant tensor:
#      x y z
#    x 3.079530 0.000000 0.000000 
#    y 0.000000 3.079530 0.000000 
#    z 0.000000 0.000000 3.778340 
# 
# 
# High freq. dielectric constant tensor:
#      x y z
#    x 1.674330 0.000000 0.000000 
#    y 0.000000 1.674330 0.000000 
#    z 0.000000 0.000000 1.717080 
# 
# From -- ./inp_files/8465.got.cif
#   From: 2010.03.12/outbox.cif.g09.slc.cpg/sg123_5_cif.got.tgz:8465.got - 2010.04.06 16:26:55.
