data_PCOD8312328
_publ_section_title
;
Structure prediction by ZEFSAII (Michael W. Deem and Ramdas Pophale) SiO2 
 PCOD8312328
Probable space group: P 4/M M M
;
_chemical_formula_sum "Si O2"
_cell_formula_units_Z 104
_cell_length_a 14.426283
_cell_length_b 14.426283
_cell_length_c 33.404612
_cell_angle_alpha 90.000000
_cell_angle_beta 90.000000
_cell_angle_gamma 90.000000
_cell_volume 6952.089055
_symmetry_space_group_name_H-M "P 4/M M M"
_symmetry_group_IT_number 123
_symmetry_cell_setting 'tetragonal'
loop_
_space_group_symop_operation_xyz
x,y,z
-y,x,z
-x,-y,z
y,-x,z
x,-y,-z
-x,y,-z
y,x,-z
-y,-x,-z
-x,-y,-z
y,-x,-z
x,y,-z
-y,x,-z
-x,y,z
x,-y,z
-y,-x,z
y,x,z
loop_
_atom_site_type_symbol
_atom_site_label
_atom_site_fract_x
_atom_site_fract_y
_atom_site_fract_z
Si Si1 0.104456 0.253014 0.500000
Si Si2 0.737931 0.109650 0.187948
Si Si3 0.108374 0.259137 0.586620
Si Si4 0.397230 0.889982 0.653257
Si Si5 0.109839 0.603634 0.742489
Si Si6 0.893396 0.605760 0.114485
Si Si7 0.605998 0.755484 0.045241
O O1 0.157877 0.157877 0.500000
O O2 0.124907 0.306176 0.542186
O O3 0.000000 0.219885 0.500000
O O4 0.834403 0.165598 0.185707
O O5 0.679898 0.145989 0.226266
O O6 0.675104 0.134018 0.149824
O O7 0.760870 0.000000 0.190345
O O8 0.162038 0.162038 0.590271
O O9 0.150355 0.328580 0.619694
O O10 0.000000 0.239057 0.594284
O O11 0.500000 0.850706 0.644749
O O12 0.365201 0.859571 0.697803
O O13 0.399141 0.000000 0.650275
O O14 0.148932 0.500000 0.751977
O O15 0.000000 0.598570 0.745719
O O16 0.871944 0.500000 0.128089
O O17 0.837834 0.634212 0.074880
O O18 0.000000 0.616843 0.102928
O O19 0.500000 0.725776 0.051213
O O20 0.665297 0.665297 0.055691
O O21 0.624503 0.790463 0.000000
#
# Coordination Sequence:
#
# PCOD8312328 Si02
#       7
#     8  16  16  16  16  16  16
#     4   8  14  23  33  47  69  99 134 166 193 223
#     4  10  19  29  42  60  83 110 136 162 194 233
#     4   9  16  25  37  53  75 103 133 164 196 230
#     4   8  14  25  40  56  74  97 125 158 195 232
#     4   8  14  26  43  59  74  95 126 163 198 228
#     4   9  17  29  45  63  81 103 135 175 212 238
#     4   9  17  28  42  61  85 111 136 163 198 243
#
# _framework density 14.959531999999999
#
# number of rings (size 3 to 8) (size 9 to 14) (size 15 to 20)
#    0.000    3.231    0.000    1.846    0.000    3.308 
#    0.000    4.231    0.000    2.308    0.000    4.308 
#    0.000    3.077    0.000   21.077    0.000    5.231 
#
# Total GULP energy -1288551.348078 kJ/mol
# GULP energy per Si atom -12389.916808 kJ/mol
# Density = 1.492548 g / cm^3
# Si number density = 14.959532 Si / 1000 Ang^3
#
#
#
# Elastic Constant Matrix: (Units=GPa)
#
#
# Indices 1 2 3 4 5 6 
#
# 1 59.2022 36.0232 55.2105 0.0000 0.0000 0.0000
# 2 36.0232 59.2022 55.2105 0.0000 0.0000 0.0000
# 3 55.2105 55.2105 129.2412 0.0000 0.0000 0.0000
# 4 0.0000 0.0000 0.0000 21.5325 0.0000 0.0000
# 5 0.0000 0.0000 0.0000 0.0000 21.5325 0.0000
# 6 0.0000 0.0000 0.0000 0.0000 0.0000 15.1008
#
#
#
# Elastic Compliance Matrix: (Units=1/GPa)
#
#
# Indices 1 2 3 4 5 6 
#
# 1 0.031976 -0.011166 -0.008890 0.000000 0.000000 0.000000
# 2 -0.011166 0.031976 -0.008890 0.000000 0.000000 0.000000
# 3 -0.008890 -0.008890 0.015333 0.000000 0.000000 0.000000
# 4 0.000000 0.000000 0.000000 0.046441 0.000000 0.000000
# 5 0.000000 0.000000 0.000000 0.000000 0.046441 0.000000
# 6 0.000000 0.000000 0.000000 0.000000 0.000000 0.066222
#
#
# Mechanical properties :
#
#
# Convention : Reuss Voigt Hill
#
# Bulk Modulus (GPa) = 46.74374 60.05931 53.40152
# Shear Modulus (GPa) = 16.47926 18.37992 17.42959
#
# Velocity S-wave (km/s) = 3.32262 3.50900 3.41708
# Velocity P-wave (km/s) = 6.78486 7.52678 7.16543
#
# Compressibility (1/GPa) = 0.02139324
#
# Stress axis : x y z
#
# Youngs Moduli (GPa) = 31.27341 31.27341 65.22056
#
# Poissons Ratio (x) = 0.34921 0.57979
# Poissons Ratio (y) = 0.34921 0.57979
# Poissons Ratio (z) = 0.27801 0.27801
#
# Static dielectric constant tensor:
#      x y z
#    x 2.706530 0.000000 0.000000 
#    y 0.000000 2.706530 0.000000 
#    z 0.000000 0.000000 3.295790 
# 
# 
# High freq. dielectric constant tensor:
#      x y z
#    x 1.543980 0.000000 0.000000 
#    y 0.000000 1.543980 0.000000 
#    z 0.000000 0.000000 1.592240 
# 
# From -- ./inp_files/8739.got.cif
#   From: 2010.03.12/outbox.cif.g09.slc.cpg/sg123_5_cif.got.tgz:8739.got - 2010.04.06 16:26:55.
