data_PCOD8312654
_publ_section_title
;
Structure prediction by ZEFSAII (Michael W. Deem and Ramdas Pophale) SiO2 
 PCOD8312654
Probable space group: P 4/M M M
;
_chemical_formula_sum "Si O2"
_cell_formula_units_Z 96
_cell_length_a 22.321250
_cell_length_b 22.321250
_cell_length_c 13.717703
_cell_angle_alpha 90.000000
_cell_angle_beta 90.000000
_cell_angle_gamma 90.000000
_cell_volume 6834.683672
_symmetry_space_group_name_H-M "P 4/M M M"
_symmetry_group_IT_number 123
_symmetry_cell_setting 'tetragonal'
loop_
_space_group_symop_operation_xyz
x,y,z
-y,x,z
-x,-y,z
y,-x,z
x,-y,-z
-x,y,-z
y,x,-z
-y,-x,-z
-x,-y,-z
y,-x,-z
x,y,-z
-y,x,-z
-x,y,z
x,-y,z
-y,-x,z
y,x,z
loop_
_atom_site_type_symbol
_atom_site_label
_atom_site_fract_x
_atom_site_fract_y
_atom_site_fract_z
Si Si1 0.929798 0.831992 0.724536
Si Si2 0.226642 0.683258 0.114832
Si Si3 0.928892 0.284277 0.391686
Si Si4 0.105046 0.746180 0.113251
Si Si5 0.432666 0.835090 0.885564
Si Si6 0.635785 0.933440 0.218575
O O1 0.892137 0.892137 0.704127
O O2 0.910054 0.781327 0.646642
O O3 0.914777 0.806378 0.831718
O O4 0.000000 0.848101 0.716296
O O5 0.287756 0.712245 0.159653
O O6 0.171727 0.725971 0.145221
O O7 0.216272 0.614491 0.148790
O O8 0.231793 0.683066 0.000000
O O9 0.902169 0.294221 0.500000
O O10 0.905907 0.337123 0.319661
O O11 0.000000 0.287461 0.392460
O O12 0.062462 0.690440 0.141224
O O13 0.099899 0.760835 0.000000
O O14 0.500000 0.812942 0.863685
O O15 0.418875 0.894129 0.822487
O O16 0.424144 0.850400 0.000000
O O17 0.610036 0.000000 0.234724
#
# Coordination Sequence:
#
# PCOD8312654 Si02
#       6
#    16  16  16  16  16  16
#     4  10  20  30  40  55  72  93 122 155 198 252
#     4   8  13  22  37  54  71  95 128 163 194 220
#     4   8  15  29  46  59  69  83 110 153 197 230
#     4   9  16  26  40  57  76  96 123 163 202 231
#     4   9  17  26  35  53  84 115 136 156 183 217
#     4   9  16  25  39  58  77 100 129 155 185 230
#
# _framework density 14.046004
#
# number of rings (size 3 to 8) (size 9 to 14) (size 15 to 20)
#    0.000    3.167    0.000    3.500    0.000    4.167 
#    0.000    0.833    0.000    0.500    0.000    5.833 
#    0.000    0.333    0.000    4.667    0.000    0.000 
#
# Total GULP energy -1189380.962522 kJ/mol
# GULP energy per Si atom -12389.385026 kJ/mol
# Density = 1.401404 g / cm^3
# Si number density = 14.046004 Si / 1000 Ang^3
#
#
#
# Elastic Constant Matrix: (Units=GPa)
#
#
# Indices 1 2 3 4 5 6 
#
# 1 69.0824 41.9133 22.7691 0.0000 0.0000 0.0000
# 2 41.9133 69.0824 22.7691 0.0000 0.0000 0.0000
# 3 22.7691 22.7691 68.1695 0.0000 0.0000 0.0000
# 4 0.0000 0.0000 0.0000 9.4104 0.0000 0.0000
# 5 0.0000 0.0000 0.0000 0.0000 9.4104 0.0000
# 6 0.0000 0.0000 0.0000 0.0000 0.0000 14.5775
#
#
#
# Elastic Compliance Matrix: (Units=1/GPa)
#
#
# Indices 1 2 3 4 5 6 
#
# 1 0.023623 -0.013183 -0.003487 0.000000 0.000000 0.000000
# 2 -0.013183 0.023623 -0.003487 0.000000 0.000000 0.000000
# 3 -0.003487 -0.003487 0.016999 0.000000 0.000000 0.000000
# 4 0.000000 0.000000 0.000000 0.106265 0.000000 0.000000
# 5 0.000000 0.000000 0.000000 0.000000 0.106265 0.000000
# 6 0.000000 0.000000 0.000000 0.000000 0.000000 0.068599
#
#
# Mechanical properties :
#
#
# Convention : Reuss Voigt Hill
#
# Bulk Modulus (GPa) = 41.78756 42.35967 42.07362
# Shear Modulus (GPa) = 12.70110 14.60517 13.65314
#
# Velocity S-wave (km/s) = 3.01034 3.22811 3.12112
# Velocity P-wave (km/s) = 6.47286 6.64210 6.55803
#
# Compressibility (1/GPa) = 0.02393057
#
# Stress axis : x y z
#
# Youngs Moduli (GPa) = 42.33118 42.33118 58.82802
#
# Poissons Ratio (x) = 0.55806 0.20513
# Poissons Ratio (y) = 0.55806 0.20513
# Poissons Ratio (z) = 0.14761 0.14761
#
# Static dielectric constant tensor:
#      x y z
#    x 2.726040 0.000000 0.000000 
#    y 0.000000 2.726040 0.000000 
#    z 0.000000 0.000000 2.840410 
# 
# 
# High freq. dielectric constant tensor:
#      x y z
#    x 1.510590 0.000000 0.000000 
#    y 0.000000 1.510590 0.000000 
#    z 0.000000 0.000000 1.518120 
# 
# From -- ./inp_files/4329.got.cif
#   From: 2010.03.12/outbox.cif.g09.slc.cpg/sg123_3_cif.got.tgz:4329.got - 2010.04.06 16:26:55.
