data_PCOD8312706
_publ_section_title
;
Structure prediction by ZEFSAII (Michael W. Deem and Ramdas Pophale) SiO2 
 PCOD8312706
Probable space group: P 4/M M M
;
_chemical_formula_sum "Si O2"
_cell_formula_units_Z 120
_cell_length_a 21.302888
_cell_length_b 21.302888
_cell_length_c 14.179700
_cell_angle_alpha 90.000000
_cell_angle_beta 90.000000
_cell_angle_gamma 90.000000
_cell_volume 6434.932723
_symmetry_space_group_name_H-M "P 4/M M M"
_symmetry_group_IT_number 123
_symmetry_cell_setting 'tetragonal'
loop_
_space_group_symop_operation_xyz
x,y,z
-y,x,z
-x,-y,z
y,-x,z
x,-y,-z
-x,y,-z
y,x,-z
-y,-x,-z
-x,-y,-z
y,-x,-z
x,y,-z
-y,x,-z
-x,y,z
x,-y,z
-y,-x,z
y,x,z
loop_
_atom_site_type_symbol
_atom_site_label
_atom_site_fract_x
_atom_site_fract_y
_atom_site_fract_z
Si Si1 0.892169 0.365700 0.391393
Si Si2 0.329404 0.430759 0.728649
Si Si3 0.188589 0.294308 0.110988
Si Si4 0.500000 0.930846 0.609933
Si Si5 0.172114 0.072039 0.395716
Si Si6 0.726989 0.929114 0.755222
Si Si7 0.750884 0.651350 0.607129
Si Si8 0.242377 0.429620 0.891647
O O1 0.915961 0.356802 0.500000
O O2 0.890981 0.438831 0.362164
O O3 0.936054 0.332603 0.314694
O O4 0.823761 0.335675 0.377554
O O5 0.347654 0.500000 0.696205
O O6 0.389861 0.389861 0.708526
O O7 0.270140 0.407954 0.667986
O O8 0.308470 0.428063 0.837414
O O9 0.246512 0.246512 0.138799
O O10 0.123023 0.277831 0.162786
O O11 0.202668 0.367476 0.139025
O O12 0.175698 0.288414 0.000000
O O13 0.500000 0.942325 0.500000
O O14 0.500000 0.000000 0.658795
O O15 0.201884 0.085970 0.500000
O O16 0.107026 0.107026 0.382985
O O17 0.217701 0.094101 0.313028
O O18 0.155467 0.000000 0.384766
O O19 0.737670 0.000000 0.797300
O O20 0.735789 0.633944 0.500000
O O21 0.714172 0.714172 0.639248
O O22 0.210504 0.500000 0.873996
O O23 0.259863 0.421938 0.000000
#
# Coordination Sequence:
#
# PCOD8312706 Si02
#       8
#    16  16  16   8  16  16  16  16
#     4  10  20  33  52  75 101 139 178 215 260 313
#     4  10  20  32  48  70  98 132 167 207 255 312
#     4  10  21  38  60  82 104 136 180 226 270 320
#     4   9  18  32  48  68  97 133 176 218 249 292
#     4   9  18  32  51  77 109 144 180 217 260 313
#     4  11  22  35  52  77 109 144 179 219 266 314
#     4   9  19  34  50  72 100 129 169 222 271 309
#     4   9  18  34  57  82 105 128 158 204 263 322
#
# _framework density 18.648213999999999
#
# number of rings (size 3 to 8) (size 9 to 14) (size 15 to 20)
#    0.000    2.333    0.000    2.400    0.933    5.067 
#    1.200    2.000    0.000    0.000    0.000    5.600 
#    0.000    0.000    0.000   12.400    0.000    0.133 
#
# Total GULP energy -1486809.586865 kJ/mol
# GULP energy per Si atom -12390.079891 kJ/mol
# Density = 1.860577 g / cm^3
# Si number density = 18.648214 Si / 1000 Ang^3
#
#
#
# Elastic Constant Matrix: (Units=GPa)
#
#
# Indices 1 2 3 4 5 6 
#
# 1 95.2745 41.4575 33.7191 0.0000 0.0000 0.0000
# 2 41.4575 95.2745 33.7191 0.0000 0.0000 0.0000
# 3 33.7191 33.7191 56.8034 0.0000 0.0000 0.0000
# 4 0.0000 0.0000 0.0000 22.7924 0.0000 0.0000
# 5 0.0000 0.0000 0.0000 0.0000 22.7924 0.0000
# 6 0.0000 0.0000 0.0000 0.0000 0.0000 19.1275
#
#
#
# Elastic Compliance Matrix: (Units=1/GPa)
#
#
# Indices 1 2 3 4 5 6 
#
# 1 0.014461 -0.004120 -0.006139 0.000000 0.000000 0.000000
# 2 -0.004120 0.014461 -0.006139 0.000000 0.000000 0.000000
# 3 -0.006139 -0.006139 0.024893 0.000000 0.000000 0.000000
# 4 0.000000 0.000000 0.000000 0.043874 0.000000 0.000000
# 5 0.000000 0.000000 0.000000 0.000000 0.043874 0.000000
# 6 0.000000 0.000000 0.000000 0.000000 0.000000 0.052281
#
#
# Mechanical properties :
#
#
# Convention : Reuss Voigt Hill
#
# Bulk Modulus (GPa) = 47.57295 51.68265 49.62780
# Shear Modulus (GPa) = 21.39987 22.17291 21.78639
#
# Velocity S-wave (km/s) = 3.39123 3.45194 3.42172
# Velocity P-wave (km/s) = 6.39532 6.60777 6.50241
#
# Compressibility (1/GPa) = 0.02102035
#
# Stress axis : x y z
#
# Youngs Moduli (GPa) = 69.14970 69.14970 40.17267
#
# Poissons Ratio (x) = 0.28491 0.24661
# Poissons Ratio (y) = 0.28491 0.24661
# Poissons Ratio (z) = 0.42449 0.42449
#
# Static dielectric constant tensor:
#      x y z
#    x 3.463120 0.000000 0.000000 
#    y 0.000000 3.463120 0.000000 
#    z 0.000000 0.000000 3.412120 
# 
# 
# High freq. dielectric constant tensor:
#      x y z
#    x 1.720370 0.000000 0.000000 
#    y 0.000000 1.720370 0.000000 
#    z 0.000000 0.000000 1.714140 
# 
# From -- ./inp_files/4618.got.cif
#   From: 2010.03.12/outbox.cif.g09.slc.cpg/sg123_3_cif.got.tgz:4618.got - 2010.04.06 16:26:55.
