data_PCOD8312189
_publ_section_title
;
Structure prediction by ZEFSAII (Michael W. Deem and Ramdas Pophale) SiO2 
 PCOD8312189
Probable space group: P 4/M M M
;
_chemical_formula_sum "Si O2"
_cell_formula_units_Z 112
_cell_length_a 18.086368
_cell_length_b 18.086368
_cell_length_c 22.508260
_cell_angle_alpha 90.000000
_cell_angle_beta 90.000000
_cell_angle_gamma 90.000000
_cell_volume 7362.827901
_symmetry_space_group_name_H-M "P 4/M M M"
_symmetry_group_IT_number 123
_symmetry_cell_setting 'tetragonal'
loop_
_space_group_symop_operation_xyz
x,y,z
-y,x,z
-x,-y,z
y,-x,z
x,-y,-z
-x,y,-z
y,x,-z
-y,-x,-z
-x,-y,-z
y,-x,-z
x,y,-z
-y,x,-z
-x,y,z
x,-y,z
-y,-x,z
y,x,z
loop_
_atom_site_type_symbol
_atom_site_label
_atom_site_fract_x
_atom_site_fract_y
_atom_site_fract_z
Si Si1 0.798384 0.083728 0.930089
Si Si2 0.294925 0.585399 0.930646
Si Si3 0.081987 0.802871 0.677996
Si Si4 0.659107 0.083701 0.755419
Si Si5 0.284243 0.911925 0.434325
Si Si6 0.419315 0.912053 0.638219
Si Si7 0.188013 0.690886 0.861629
O O1 0.875064 0.124937 0.913454
O O2 0.729082 0.127220 0.903348
O O3 0.801857 0.000000 0.904650
O O4 0.786407 0.082686 0.000000
O O5 0.303440 0.500000 0.910257
O O6 0.371836 0.628165 0.917071
O O7 0.227418 0.623953 0.896134
O O8 0.275727 0.590329 0.000000
O O9 0.132018 0.867983 0.702909
O O10 0.083021 0.739812 0.726935
O O11 0.112604 0.776685 0.613627
O O12 0.000000 0.834371 0.669819
O O13 0.602032 0.111065 0.705157
O O14 0.655014 0.144319 0.806873
O O15 0.640437 0.000000 0.778036
O O16 0.266972 0.879598 0.500000
O O17 0.363083 0.880539 0.411197
O O18 0.287675 0.000000 0.436377
O O19 0.500000 0.879985 0.623278
O O20 0.417377 0.000000 0.635583
O O21 0.248982 0.751019 0.840505
#
# Coordination Sequence:
#
# PCOD8312189 Si02
#       7
#    16  16  16  16  16  16  16
#     4   9  17  28  42  60  81 106 137 174 215 255
#     4   9  18  32  49  69  91 112 135 165 200 240
#     4   9  17  28  40  54  74 100 133 174 213 247
#     4   9  17  28  41  57  78 106 137 167 202 242
#     4   8  14  24  37  53  72  94 120 151 192 240
#     4   8  14  24  37  54  75  96 120 152 187 226
#     4  10  18  28  44  63  82 107 139 171 204 245
#
# _framework density 15.211546
#
# number of rings (size 3 to 8) (size 9 to 14) (size 15 to 20)
#    0.000    3.143    0.000    3.000    0.000    3.286 
#    0.000    2.857    0.000    1.286    0.000    9.000 
#    0.000    0.000    0.000    0.000    0.000    0.000 
#
# Total GULP energy -1387958.990818 kJ/mol
# GULP energy per Si atom -12392.490989 kJ/mol
# Density = 1.517692 g / cm^3
# Si number density = 15.211546 Si / 1000 Ang^3
#
#
#
# Elastic Constant Matrix: (Units=GPa)
#
#
# Indices 1 2 3 4 5 6 
#
# 1 61.9282 26.1711 17.0977 0.0000 0.0000 0.0000
# 2 26.1711 61.9282 17.0977 0.0000 0.0000 0.0000
# 3 17.0977 17.0977 49.1139 0.0000 0.0000 0.0000
# 4 0.0000 0.0000 0.0000 9.5862 0.0000 0.0000
# 5 0.0000 0.0000 0.0000 0.0000 9.5862 0.0000
# 6 0.0000 0.0000 0.0000 0.0000 0.0000 11.5210
#
#
#
# Elastic Compliance Matrix: (Units=1/GPa)
#
#
# Indices 1 2 3 4 5 6 
#
# 1 0.020545 -0.007421 -0.004569 0.000000 0.000000 0.000000
# 2 -0.007421 0.020545 -0.004569 0.000000 0.000000 0.000000
# 3 -0.004569 -0.004569 0.023542 0.000000 0.000000 0.000000
# 4 0.000000 0.000000 0.000000 0.104317 0.000000 0.000000
# 5 0.000000 0.000000 0.000000 0.000000 0.104317 0.000000
# 6 0.000000 0.000000 0.000000 0.000000 0.000000 0.086798
#
#
# Mechanical properties :
#
#
# Convention : Reuss Voigt Hill
#
# Bulk Modulus (GPa) = 31.73103 32.63373 32.18238
# Shear Modulus (GPa) = 12.38581 13.64557 13.01569
#
# Velocity S-wave (km/s) = 2.85658 2.99833 2.92832
# Velocity P-wave (km/s) = 5.63784 5.78675 5.71278
#
# Compressibility (1/GPa) = 0.03151489
#
# Stress axis : x y z
#
# Youngs Moduli (GPa) = 48.67284 48.67284 42.47749
#
# Poissons Ratio (x) = 0.36121 0.19407
# Poissons Ratio (y) = 0.36121 0.19407
# Poissons Ratio (z) = 0.22238 0.22238
#
# Static dielectric constant tensor:
#      x y z
#    x 2.861140 0.000000 0.000000 
#    y 0.000000 2.861140 0.000000 
#    z 0.000000 0.000000 3.007680 
# 
# 
# High freq. dielectric constant tensor:
#      x y z
#    x 1.563450 0.000000 0.000000 
#    y 0.000000 1.563450 0.000000 
#    z 0.000000 0.000000 1.580050 
# 
# From -- ./inp_files/6657.got.cif
#   From: 2010.03.12/outbox.cif.g09.slc.cpg/sg123_4_cif.got.tgz:6657.got - 2010.04.06 16:26:55.
