data_PCOD8312498
_publ_section_title
;
Structure prediction by ZEFSAII (Michael W. Deem and Ramdas Pophale) SiO2 
 PCOD8312498
Probable space group: P 4/M M M
;
_chemical_formula_sum "Si O2"
_cell_formula_units_Z 72
_cell_length_a 12.748063
_cell_length_b 12.748063
_cell_length_c 26.060578
_cell_angle_alpha 90.000000
_cell_angle_beta 90.000000
_cell_angle_gamma 90.000000
_cell_volume 4235.185586
_symmetry_space_group_name_H-M "P 4/M M M"
_symmetry_group_IT_number 123
_symmetry_cell_setting 'tetragonal'
loop_
_space_group_symop_operation_xyz
x,y,z
-y,x,z
-x,-y,z
y,-x,z
x,-y,-z
-x,y,-z
y,x,-z
-y,-x,-z
-x,-y,-z
y,-x,-z
x,y,-z
-y,x,-z
-x,y,z
x,-y,z
-y,-x,z
y,x,z
loop_
_atom_site_type_symbol
_atom_site_label
_atom_site_fract_x
_atom_site_fract_y
_atom_site_fract_z
Si Si1 0.292826 0.120166 0.191464
Si Si2 0.500000 0.121883 0.874394
Si Si3 0.883389 0.289589 0.500000
Si Si4 0.616271 0.788853 0.597111
Si Si5 0.118929 0.713147 0.691922
Si Si6 0.669577 0.500000 0.060669
O O1 0.198192 0.198192 0.174936
O O2 0.396168 0.142276 0.158655
O O3 0.326605 0.140254 0.250316
O O4 0.253734 0.000000 0.183755
O O5 0.500000 0.211211 0.918112
O O6 0.500000 0.000000 0.895294
O O7 0.810544 0.189457 0.500000
O O8 0.867245 0.358865 0.550719
O O9 0.000000 0.245509 0.500000
O O10 0.500000 0.745980 0.590982
O O11 0.687808 0.687808 0.594606
O O12 0.624158 0.848296 0.651621
O O13 0.181568 0.818433 0.679461
O O14 0.000000 0.744866 0.683737
O O15 0.603853 0.603853 0.078138
O O16 0.680862 0.500000 0.000000
#
# Coordination Sequence:
#
# PCOD8312498 Si02
#       6
#    16   8   8  16  16   8
#     4   9  18  31  47  69  97 129 166 204 244 293
#     4  10  19  30  48  74 103 133 163 202 251 294
#     4  10  21  36  52  74  98 118 149 186 228 286
#     4  10  21  35  51  70  92 120 154 194 237 282
#     4   9  18  31  47  69  94 122 156 192 233 282
#     4   9  18  33  53  75  99 132 172 208 244 288
#
# _framework density 17.000436000000001
#
# number of rings (size 3 to 8) (size 9 to 14) (size 15 to 20)
#    0.000    2.556    0.000    2.000    1.556    3.222 
#    0.000    2.222    0.000    6.000    0.000    0.000 
#    0.000    0.000    0.000   20.667    0.000    0.222 
#
# Total GULP energy -892484.034885 kJ/mol
# GULP energy per Si atom -12395.611596 kJ/mol
# Density = 1.696174 g / cm^3
# Si number density = 17.000436 Si / 1000 Ang^3
#
#
#
# Elastic Constant Matrix: (Units=GPa)
#
#
# Indices 1 2 3 4 5 6 
#
# 1 99.4470 56.0801 43.7852 0.0000 0.0000 0.0000
# 2 56.0801 99.4406 43.7838 0.0000 0.0000 0.0000
# 3 43.7852 43.7838 67.4756 0.0000 0.0000 0.0000
# 4 0.0000 0.0000 0.0000 20.4422 0.0000 0.0000
# 5 0.0000 0.0000 0.0000 0.0000 20.4425 0.0000
# 6 0.0000 0.0000 0.0000 0.0000 0.0000 13.6689
#
#
#
# Elastic Compliance Matrix: (Units=1/GPa)
#
#
# Indices 1 2 3 4 5 6 
#
# 1 0.016596 -0.006465 -0.006574 0.000000 0.000000 0.000000
# 2 -0.006465 0.016597 -0.006574 0.000000 0.000000 0.000000
# 3 -0.006574 -0.006574 0.023352 0.000000 0.000000 0.000000
# 4 0.000000 0.000000 0.000000 0.048918 0.000000 0.000000
# 5 0.000000 0.000000 0.000000 0.000000 0.048918 0.000000
# 6 0.000000 0.000000 0.000000 0.000000 0.000000 0.073159
#
#
# Mechanical properties :
#
#
# Convention : Reuss Voigt Hill
#
# Bulk Modulus (GPa) = 57.74294 61.51794 59.63044
# Shear Modulus (GPa) = 18.34603 19.09168 18.71886
#
# Velocity S-wave (km/s) = 3.28861 3.35477 3.32185
# Velocity P-wave (km/s) = 6.96127 7.16035 7.06151
#
# Compressibility (1/GPa) = 0.01731813
#
# Stress axis : x y z
#
# Youngs Moduli (GPa) = 60.25677 60.25291 42.82234
#
# Poissons Ratio (x) = 0.38951 0.28153
# Poissons Ratio (y) = 0.38953 0.28153
# Poissons Ratio (z) = 0.39614 0.39613
#
# Static dielectric constant tensor:
#      x y z
#    x 3.148920 0.000000 0.000000 
#    y 0.000000 3.148920 0.000000 
#    z 0.000000 0.000000 3.265200 
# 
# 
# High freq. dielectric constant tensor:
#      x y z
#    x 1.655700 0.000000 0.000000 
#    y 0.000000 1.655700 0.000000 
#    z 0.000000 0.000000 1.649460 
# 
# From -- ./inp_files/7922.got.cif
#   From: 2010.03.12/outbox.cif.g09.slc.cpg/sg123_4_cif.got.tgz:7922.got - 2010.04.06 16:26:55.
