data_PCOD8312226
_publ_section_title
;
Structure prediction by ZEFSAII (Michael W. Deem and Ramdas Pophale) SiO2 
 PCOD8312226
Probable space group: P 4/M M M
;
_chemical_formula_sum "Si O2"
_cell_formula_units_Z 128
_cell_length_a 18.543870
_cell_length_b 18.543870
_cell_length_c 23.535624
_cell_angle_alpha 90.000000
_cell_angle_beta 90.000000
_cell_angle_gamma 90.000000
_cell_volume 8093.315400
_symmetry_space_group_name_H-M "P 4/M M M"
_symmetry_group_IT_number 123
_symmetry_cell_setting 'tetragonal'
loop_
_space_group_symop_operation_xyz
x,y,z
-y,x,z
-x,-y,z
y,-x,z
x,-y,-z
-x,y,-z
y,x,-z
-y,-x,-z
-x,-y,-z
y,-x,-z
x,y,-z
-y,x,-z
-x,y,z
x,-y,z
-y,-x,z
y,x,z
loop_
_atom_site_type_symbol
_atom_site_label
_atom_site_fract_x
_atom_site_fract_y
_atom_site_fract_z
Si Si1 0.730452 0.846673 0.333832
Si Si2 0.916274 0.200529 0.227356
Si Si3 0.417784 0.697271 0.094700
Si Si4 0.198461 0.917285 0.564767
Si Si5 0.582966 0.855275 0.063254
Si Si6 0.159233 0.419278 0.276385
Si Si7 0.651507 0.916326 0.827598
Si Si8 0.421896 0.309702 0.224224
O O1 0.765644 0.765644 0.328917
O O2 0.772777 0.898789 0.290732
O O3 0.741373 0.878531 0.396662
O O4 0.644436 0.851930 0.322345
O O5 0.868954 0.131047 0.210411
O O6 0.895912 0.265226 0.184200
O O7 0.000000 0.178875 0.223377
O O8 0.500000 0.672356 0.084571
O O9 0.366384 0.633617 0.072010
O O10 0.400533 0.770175 0.061131
O O11 0.401598 0.714748 0.160613
O O12 0.225379 0.910101 0.500000
O O13 0.121351 0.878650 0.573550
O O14 0.188199 0.000000 0.582629
O O15 0.500000 0.868542 0.081124
O O16 0.634085 0.895288 0.107811
O O17 0.598025 0.886152 0.000000
O O18 0.133662 0.500000 0.297126
O O19 0.121896 0.401803 0.216578
O O20 0.243753 0.421778 0.266640
O O21 0.638874 0.000000 0.818138
O O22 0.500000 0.347208 0.223161
O O23 0.366250 0.366250 0.249486
#
# Coordination Sequence:
#
# PCOD8312226 Si02
#       8
#    16  16  16  16  16  16  16  16
#     4   9  17  29  45  66  93 122 152 186 222 261
#     4   9  18  31  48  70  93 117 142 172 212 258
#     4   9  17  29  44  62  85 111 140 173 207 248
#     4   9  17  29  46  68  94 124 155 186 221 261
#     4  10  20  33  47  63  84 110 141 177 218 263
#     4  10  18  29  46  66  87 115 150 186 222 260
#     4  10  20  33  47  65  88 110 137 175 218 263
#     4   9  16  26  42  63  87 114 142 173 212 256
#
# _framework density 15.815521
#
# number of rings (size 3 to 8) (size 9 to 14) (size 15 to 20)
#    0.000    2.625    1.250    1.125    0.000    3.500 
#    0.000    2.500    0.000    2.625    0.000    2.625 
#    0.000    0.000    0.000    2.750    0.000    0.000 
#
# Total GULP energy -1586613.824361 kJ/mol
# GULP energy per Si atom -12395.420503 kJ/mol
# Density = 1.577952 g / cm^3
# Si number density = 15.815521 Si / 1000 Ang^3
#
#
#
# Elastic Constant Matrix: (Units=GPa)
#
#
# Indices 1 2 3 4 5 6 
#
# 1 87.9107 46.0707 34.6387 0.0000 0.0000 0.0000
# 2 46.0707 87.9107 34.6387 0.0000 0.0000 0.0000
# 3 34.6387 34.6387 70.0065 0.0000 0.0000 0.0000
# 4 0.0000 0.0000 0.0000 17.3323 0.0000 0.0000
# 5 0.0000 0.0000 0.0000 0.0000 17.3323 0.0000
# 6 0.0000 0.0000 0.0000 0.0000 0.0000 20.8992
#
#
#
# Elastic Compliance Matrix: (Units=1/GPa)
#
#
# Indices 1 2 3 4 5 6 
#
# 1 0.016965 -0.006935 -0.004963 0.000000 0.000000 0.000000
# 2 -0.006935 0.016965 -0.004963 0.000000 0.000000 0.000000
# 3 -0.004963 -0.004963 0.019195 0.000000 0.000000 0.000000
# 4 0.000000 0.000000 0.000000 0.057696 0.000000 0.000000
# 5 0.000000 0.000000 0.000000 0.000000 0.057696 0.000000
# 6 0.000000 0.000000 0.000000 0.000000 0.000000 0.047849
#
#
# Mechanical properties :
#
#
# Convention : Reuss Voigt Hill
#
# Bulk Modulus (GPa) = 51.53505 52.94710 52.24107
# Shear Modulus (GPa) = 19.48895 19.81140 19.65017
#
# Velocity S-wave (km/s) = 3.51417 3.54313 3.52868
# Velocity P-wave (km/s) = 7.00869 7.09147 7.05020
#
# Compressibility (1/GPa) = 0.01940427
#
# Stress axis : x y z
#
# Youngs Moduli (GPa) = 58.94430 58.94430 52.09596
#
# Poissons Ratio (x) = 0.40880 0.25853
# Poissons Ratio (y) = 0.40880 0.25853
# Poissons Ratio (z) = 0.29252 0.29252
#
# Static dielectric constant tensor:
#      x y z
#    x 3.045930 0.000000 0.000000 
#    y 0.000000 3.045930 0.000000 
#    z 0.000000 0.000000 2.859000 
# 
# 
# High freq. dielectric constant tensor:
#      x y z
#    x 1.603700 0.000000 0.000000 
#    y 0.000000 1.603700 0.000000 
#    z 0.000000 0.000000 1.580560 
# 
# From -- ./inp_files/7652.got.cif
#   From: 2010.03.12/outbox.cif.g09.slc.cpg/sg123_4_cif.got.tgz:7652.got - 2010.04.06 16:26:55.
