data_PCOD8312794
_publ_section_title
;
Structure prediction by ZEFSAII (Michael W. Deem and Ramdas Pophale) SiO2 
 PCOD8312794
Probable space group: P 4/M M M
;
_chemical_formula_sum "Si O2"
_cell_formula_units_Z 40
_cell_length_a 17.245669
_cell_length_b 17.245669
_cell_length_c 7.668281
_cell_angle_alpha 90.000000
_cell_angle_beta 90.000000
_cell_angle_gamma 90.000000
_cell_volume 2280.647218
_symmetry_space_group_name_H-M "P 4/M M M"
_symmetry_group_IT_number 123
_symmetry_cell_setting 'tetragonal'
loop_
_space_group_symop_operation_xyz
x,y,z
-y,x,z
-x,-y,z
y,-x,z
x,-y,-z
-x,y,-z
y,x,-z
-y,-x,-z
-x,-y,-z
y,-x,-z
x,y,-z
-y,x,-z
-x,y,z
x,-y,z
-y,-x,z
y,x,z
loop_
_atom_site_type_symbol
_atom_site_label
_atom_site_fract_x
_atom_site_fract_y
_atom_site_fract_z
Si Si1 0.912181 0.782124 0.500000
Si Si2 0.833965 0.703787 0.806856
Si Si3 0.586407 0.708530 0.207122
O O1 0.856719 0.856719 0.500000
O O2 0.899531 0.728577 0.669985
O O3 0.000000 0.812609 0.500000
O O4 0.768944 0.768944 0.816311
O O5 0.791259 0.625065 0.743093
O O6 0.871344 0.693313 0.000000
O O7 0.500000 0.704895 0.287295
O O8 0.637214 0.637214 0.284055
O O9 0.584010 0.701469 0.000000
#
# Coordination Sequence:
#
# PCOD8312794 Si02
#       3
#     8  16  16
#     4  10  20  33  51  73  92 112 140 176 224 278
#     4   8  15  29  47  66  90 122 158 187 211 254
#     4   8  13  22  39  64  93 125 159 194 231 265
#
# _framework density 17.538879999999999
#
# number of rings (size 3 to 8) (size 9 to 14) (size 15 to 20)
#    0.000    3.600    0.000    2.400    0.000    1.400 
#    0.000    3.000    0.000    2.400    0.000   11.200 
#    0.000    8.000    0.000    0.800    0.000    0.000 
#
# Total GULP energy -495645.329514 kJ/mol
# GULP energy per Si atom -12391.133238 kJ/mol
# Density = 1.749896 g / cm^3
# Si number density = 17.538880 Si / 1000 Ang^3
#
#
#
# Elastic Constant Matrix: (Units=GPa)
#
#
# Indices 1 2 3 4 5 6 
#
# 1 83.6999 59.6500 37.4191 0.0000 0.0000 0.0000
# 2 59.6500 83.6999 37.4191 0.0000 0.0000 0.0000
# 3 37.4191 37.4191 76.9793 0.0000 0.0000 0.0000
# 4 0.0000 0.0000 0.0000 10.1675 0.0000 0.0000
# 5 0.0000 0.0000 0.0000 0.0000 10.1675 0.0000
# 6 0.0000 0.0000 0.0000 0.0000 0.0000 15.2684
#
#
#
# Elastic Compliance Matrix: (Units=1/GPa)
#
#
# Indices 1 2 3 4 5 6 
#
# 1 0.025464 -0.016116 -0.004544 0.000000 0.000000 0.000000
# 2 -0.016116 0.025464 -0.004544 0.000000 0.000000 0.000000
# 3 -0.004544 -0.004544 0.017408 0.000000 0.000000 0.000000
# 4 0.000000 0.000000 0.000000 0.098352 0.000000 0.000000
# 5 0.000000 0.000000 0.000000 0.000000 0.098352 0.000000
# 6 0.000000 0.000000 0.000000 0.000000 0.000000 0.065495
#
#
# Mechanical properties :
#
#
# Convention : Reuss Voigt Hill
#
# Bulk Modulus (GPa) = 55.77783 57.03950 56.40867
# Shear Modulus (GPa) = 12.92253 14.44674 13.68464
#
# Velocity S-wave (km/s) = 2.71734 2.87313 2.79632
# Velocity P-wave (km/s) = 6.45884 6.60294 6.53129
#
# Compressibility (1/GPa) = 0.01792827
#
# Stress axis : x y z
#
# Youngs Moduli (GPa) = 39.27067 39.27067 57.44407
#
# Poissons Ratio (x) = 0.63289 0.26103
# Poissons Ratio (y) = 0.63289 0.26103
# Poissons Ratio (z) = 0.17845 0.17845
#
# Static dielectric constant tensor:
#      x y z
#    x 3.167360 0.000000 0.000000 
#    y 0.000000 3.167360 0.000000 
#    z 0.000000 0.000000 3.521770 
# 
# 
# High freq. dielectric constant tensor:
#      x y z
#    x 1.650580 0.000000 0.000000 
#    y 0.000000 1.650580 0.000000 
#    z 0.000000 0.000000 1.670570 
# 
# From -- ./inp_files/292.got.cif
#   From: 2010.03.12/outbox.cif.g09.slc.cpg/sg123_1_cif.got.tgz:292.got - 2010.04.06 16:26:55.
