data_PCOD8312288
_publ_section_title
;
Structure prediction by ZEFSAII (Michael W. Deem and Ramdas Pophale) SiO2 
 PCOD8312288
Probable space group: P 4/M M M
;
_chemical_formula_sum "Si O2"
_cell_formula_units_Z 112
_cell_length_a 20.501219
_cell_length_b 20.501219
_cell_length_c 17.524582
_cell_angle_alpha 90.000000
_cell_angle_beta 90.000000
_cell_angle_gamma 90.000000
_cell_volume 7365.581473
_symmetry_space_group_name_H-M "P 4/M M M"
_symmetry_group_IT_number 123
_symmetry_cell_setting 'tetragonal'
loop_
_space_group_symop_operation_xyz
x,y,z
-y,x,z
-x,-y,z
y,-x,z
x,-y,-z
-x,y,-z
y,x,-z
-y,-x,-z
-x,-y,-z
y,-x,-z
x,y,-z
-y,x,-z
-x,y,z
x,-y,z
-y,-x,z
y,x,z
loop_
_atom_site_type_symbol
_atom_site_label
_atom_site_fract_x
_atom_site_fract_y
_atom_site_fract_z
Si Si1 0.854463 0.305822 0.914138
Si Si2 0.076161 0.571917 0.857376
Si Si3 0.225494 0.123817 0.688651
Si Si4 0.855024 0.425135 0.702197
Si Si5 0.322221 0.776986 0.769817
Si Si6 0.074801 0.182404 0.843941
Si Si7 0.665466 0.925104 0.412554
O O1 0.895513 0.372640 0.911655
O O2 0.791770 0.316058 0.860004
O O3 0.898963 0.244710 0.890193
O O4 0.829458 0.294564 0.000000
O O5 0.103814 0.500000 0.880032
O O6 0.091823 0.585799 0.768587
O O7 0.000000 0.573095 0.867872
O O8 0.166416 0.166416 0.652602
O O9 0.276855 0.171222 0.728015
O O10 0.197189 0.076017 0.753462
O O11 0.262357 0.083629 0.623177
O O12 0.842040 0.500000 0.681779
O O13 0.786786 0.394313 0.734282
O O14 0.880488 0.389265 0.626830
O O15 0.296692 0.703309 0.755294
O O16 0.119658 0.119658 0.863530
O O17 0.000000 0.168055 0.867900
O O18 0.669247 0.902985 0.500000
O O19 0.644074 0.000000 0.404676
#
# Coordination Sequence:
#
# PCOD8312288 Si02
#       7
#    16  16  16  16  16  16  16
#     4  10  19  29  42  61  84 107 133 168 211 259
#     4   9  17  28  42  59  79 109 146 175 200 233
#     4   8  15  29  46  60  75  99 133 171 209 247
#     4   9  17  29  43  58  80 110 141 169 198 237
#     4   8  15  28  45  62  78  99 131 169 202 234
#     4  10  20  32  46  61  76 100 135 176 223 270
#     4  10  19  27  38  60  87 112 137 166 200 240
#
# _framework density 15.205859999999999
#
# number of rings (size 3 to 8) (size 9 to 14) (size 15 to 20)
#    0.000    2.857    0.000    3.429    0.000    4.143 
#    0.000    1.429    0.000    0.000    0.000    1.000 
#    0.000    0.286    0.000   13.286    0.000    0.000 
#
# Total GULP energy -1388083.526067 kJ/mol
# GULP energy per Si atom -12393.602911 kJ/mol
# Density = 1.517125 g / cm^3
# Si number density = 15.205860 Si / 1000 Ang^3
#
#
#
# Elastic Constant Matrix: (Units=GPa)
#
#
# Indices 1 2 3 4 5 6 
#
# 1 61.9404 40.4652 27.9352 0.0000 0.0000 0.0000
# 2 40.4652 61.9404 27.9352 0.0000 0.0000 0.0000
# 3 27.9352 27.9352 86.7009 0.0000 0.0000 0.0000
# 4 0.0000 0.0000 0.0000 11.7437 0.0000 0.0000
# 5 0.0000 0.0000 0.0000 0.0000 11.7437 0.0000
# 6 0.0000 0.0000 0.0000 0.0000 0.0000 20.2718
#
#
#
# Elastic Compliance Matrix: (Units=1/GPa)
#
#
# Indices 1 2 3 4 5 6 
#
# 1 0.029206 -0.017359 -0.003817 0.000000 0.000000 0.000000
# 2 -0.017359 0.029206 -0.003817 0.000000 0.000000 0.000000
# 3 -0.003817 -0.003817 0.013994 0.000000 0.000000 0.000000
# 4 0.000000 0.000000 0.000000 0.085152 0.000000 0.000000
# 5 0.000000 0.000000 0.000000 0.000000 0.085152 0.000000
# 6 0.000000 0.000000 0.000000 0.000000 0.000000 0.049330
#
#
# Mechanical properties :
#
#
# Convention : Reuss Voigt Hill
#
# Bulk Modulus (GPa) = 44.60327 44.80588 44.70457
# Shear Modulus (GPa) = 14.30614 16.36826 15.33720
#
# Velocity S-wave (km/s) = 3.07062 3.28448 3.17935
# Velocity P-wave (km/s) = 6.47829 6.62676 6.55294
#
# Compressibility (1/GPa) = 0.02241988
#
# Stress axis : x y z
#
# Youngs Moduli (GPa) = 34.23900 34.23900 71.46001
#
# Poissons Ratio (x) = 0.59434 0.27279
# Poissons Ratio (y) = 0.59434 0.27279
# Poissons Ratio (z) = 0.13070 0.13070
#
# Static dielectric constant tensor:
#      x y z
#    x 2.978000 0.000000 0.000000 
#    y 0.000000 2.978000 0.000000 
#    z 0.000000 0.000000 2.839890 
# 
# 
# High freq. dielectric constant tensor:
#      x y z
#    x 1.562810 0.000000 0.000000 
#    y 0.000000 1.562810 0.000000 
#    z 0.000000 0.000000 1.575130 
# 
# From -- ./inp_files/5876.got.cif
#   From: 2010.03.12/outbox.cif.g09.slc.cpg/sg123_3_cif.got.tgz:5876.got - 2010.04.06 16:26:55.
