data_PCOD8312281
_publ_section_title
;
Structure prediction by ZEFSAII (Michael W. Deem and Ramdas Pophale) SiO2 
 PCOD8312281
Probable space group: P 4/M M M
;
_chemical_formula_sum "Si O2"
_cell_formula_units_Z 104
_cell_length_a 18.798636
_cell_length_b 18.798636
_cell_length_c 17.280455
_cell_angle_alpha 90.000000
_cell_angle_beta 90.000000
_cell_angle_gamma 90.000000
_cell_volume 6106.717795
_symmetry_space_group_name_H-M "P 4/M M M"
_symmetry_group_IT_number 123
_symmetry_cell_setting 'tetragonal'
loop_
_space_group_symop_operation_xyz
x,y,z
-y,x,z
-x,-y,z
y,-x,z
x,-y,-z
-x,y,-z
y,x,-z
-y,-x,-z
-x,-y,-z
y,-x,-z
x,y,-z
-y,x,-z
-x,y,z
x,-y,z
-y,-x,z
y,x,z
loop_
_atom_site_type_symbol
_atom_site_label
_atom_site_fract_x
_atom_site_fract_y
_atom_site_fract_z
Si Si1 0.665688 0.219809 0.088328
Si Si2 0.192120 0.924478 0.279391
Si Si3 0.857386 0.258784 0.584669
Si Si4 0.832840 0.386997 0.316578
Si Si5 0.081234 0.672588 0.179197
Si Si6 0.918212 0.500000 0.408466
Si Si7 0.299757 0.581624 0.782406
O O1 0.742419 0.257582 0.102499
O O2 0.670470 0.135471 0.106764
O O3 0.607002 0.259577 0.140220
O O4 0.641068 0.228071 0.000000
O O5 0.138285 0.861716 0.266887
O O6 0.231345 0.922743 0.362911
O O7 0.247535 0.919484 0.209949
O O8 0.151901 0.000000 0.275267
O O9 0.883917 0.286998 0.500000
O O10 0.805278 0.194723 0.568797
O O11 0.815149 0.315670 0.636553
O O12 0.886532 0.378756 0.244596
O O13 0.875164 0.433129 0.377955
O O14 0.756769 0.416470 0.288334
O O15 0.000000 0.648986 0.156718
O O16 0.915915 0.500000 0.500000
O O17 0.000000 0.500000 0.379235
O O18 0.325686 0.500000 0.792848
O O19 0.368084 0.631917 0.764957
#
# Coordination Sequence:
#
# PCOD8312281 Si02
#       7
#    16  16  16  16  16   8  16
#     4   9  18  32  51  74 101 132 165 202 247 302
#     4   9  17  28  42  62  89 122 161 204 250 298
#     4   9  17  29  46  66  87 115 156 204 247 288
#     4  10  18  33  49  70  98 132 162 201 242 294
#     4   9  17  29  48  70  94 127 165 206 247 288
#     4  11  22  32  46  72 104 136 168 201 242 294
#     4  10  20  35  56  80 103 132 167 205 250 300
#
# _framework density 17.030425000000001
#
# number of rings (size 3 to 8) (size 9 to 14) (size 15 to 20)
#    0.000    2.538    0.769    1.846    0.000    5.538 
#    0.000    0.000    0.000    0.000    0.000    6.462 
#    0.000    0.615    0.000   14.308    0.000    0.000 
#
# Total GULP energy -1288550.031631 kJ/mol
# GULP energy per Si atom -12389.904150 kJ/mol
# Density = 1.699166 g / cm^3
# Si number density = 17.030425 Si / 1000 Ang^3
#
#
#
# Elastic Constant Matrix: (Units=GPa)
#
#
# Indices 1 2 3 4 5 6 
#
# 1 96.8678 35.9963 25.6840 0.0000 0.0000 0.0000
# 2 35.9963 96.8678 25.6840 0.0000 0.0000 0.0000
# 3 25.6840 25.6840 66.3255 0.0000 0.0000 0.0000
# 4 0.0000 0.0000 0.0000 34.1980 0.0000 0.0000
# 5 0.0000 0.0000 0.0000 0.0000 34.1980 0.0000
# 6 0.0000 0.0000 0.0000 0.0000 0.0000 11.8045
#
#
#
# Elastic Compliance Matrix: (Units=1/GPa)
#
#
# Indices 1 2 3 4 5 6 
#
# 1 0.012640 -0.003788 -0.003428 0.000000 0.000000 0.000000
# 2 -0.003788 0.012640 -0.003428 0.000000 0.000000 0.000000
# 3 -0.003428 -0.003428 0.017732 0.000000 0.000000 0.000000
# 4 0.000000 0.000000 0.000000 0.029242 0.000000 0.000000
# 5 0.000000 0.000000 0.000000 0.000000 0.029242 0.000000
# 6 0.000000 0.000000 0.000000 0.000000 0.000000 0.084713
#
#
# Mechanical properties :
#
#
# Convention : Reuss Voigt Hill
#
# Bulk Modulus (GPa) = 46.03138 48.30999 47.17068
# Shear Modulus (GPa) = 23.28433 27.55321 25.41877
#
# Velocity S-wave (km/s) = 3.70160 4.02665 3.86755
# Velocity P-wave (km/s) = 6.73474 7.07439 6.90666
#
# Compressibility (1/GPa) = 0.02172431
#
# Stress axis : x y z
#
# Youngs Moduli (GPa) = 79.11458 79.11458 56.39552
#
# Poissons Ratio (x) = 0.29970 0.19331
# Poissons Ratio (y) = 0.29970 0.19331
# Poissons Ratio (z) = 0.27119 0.27119
#
# Static dielectric constant tensor:
#      x y z
#    x 3.217320 0.000000 0.000000 
#    y 0.000000 3.217320 0.000000 
#    z 0.000000 0.000000 3.318320 
# 
# 
# High freq. dielectric constant tensor:
#      x y z
#    x 1.649390 0.000000 0.000000 
#    y 0.000000 1.649390 0.000000 
#    z 0.000000 0.000000 1.650930 
# 
# From -- ./inp_files/5614.got.cif
#   From: 2010.03.12/outbox.cif.g09.slc.cpg/sg123_3_cif.got.tgz:5614.got - 2010.04.06 16:26:55.
