data_PCOD8312552
_publ_section_title
;
Structure prediction by ZEFSAII (Michael W. Deem and Ramdas Pophale) SiO2 
 PCOD8312552
Probable space group: P 4/M M M
;
_chemical_formula_sum "Si O2"
_cell_formula_units_Z 120
_cell_length_a 18.163196
_cell_length_b 18.163196
_cell_length_c 22.153383
_cell_angle_alpha 90.000000
_cell_angle_beta 90.000000
_cell_angle_gamma 90.000000
_cell_volume 7308.438467
_symmetry_space_group_name_H-M "P 4/M M M"
_symmetry_group_IT_number 123
_symmetry_cell_setting 'tetragonal'
loop_
_space_group_symop_operation_xyz
x,y,z
-y,x,z
-x,-y,z
y,-x,z
x,-y,-z
-x,y,-z
y,x,-z
-y,-x,-z
-x,-y,-z
y,-x,-z
x,y,-z
-y,x,-z
-x,y,z
x,-y,z
-y,-x,z
y,x,z
loop_
_atom_site_type_symbol
_atom_site_label
_atom_site_fract_x
_atom_site_fract_y
_atom_site_fract_z
Si Si1 0.417233 0.301122 0.432684
Si Si2 0.822773 0.586302 0.654714
Si Si3 0.828171 0.706315 0.752756
Si Si4 0.914449 0.347758 0.868742
Si Si5 0.500000 0.087222 0.931498
Si Si6 0.197196 0.918814 0.929319
Si Si7 0.913743 0.203541 0.343085
Si Si8 0.914114 0.670311 0.432717
O O1 0.409282 0.268422 0.500000
O O2 0.500000 0.317375 0.414904
O O3 0.378431 0.378431 0.425821
O O4 0.383657 0.243661 0.386255
O O5 0.821540 0.500000 0.670082
O O6 0.815117 0.631302 0.716024
O O7 0.893293 0.603976 0.612916
O O8 0.752146 0.752146 0.763503
O O9 0.863123 0.677309 0.814149
O O10 0.886446 0.757478 0.718114
O O11 0.886756 0.425877 0.896388
O O12 0.903561 0.283301 0.917759
O O13 0.000000 0.354654 0.848401
O O14 0.500000 0.000000 0.935590
O O15 0.500000 0.119524 0.000000
O O16 0.143182 0.856819 0.899547
O O17 0.175784 0.000000 0.903452
O O18 0.185132 0.917788 0.000000
O O19 0.875028 0.124973 0.351408
O O20 0.891821 0.252830 0.401000
O O21 0.000000 0.189889 0.337725
O O22 0.877886 0.665042 0.500000
O O23 0.000000 0.665259 0.440652
#
# Coordination Sequence:
#
# PCOD8312552 Si02
#       8
#    16  16  16  16   8  16  16  16
#     4   9  17  29  45  65  88 113 142 176 216 263
#     4  10  20  32  47  66  90 117 150 192 232 278
#     4  10  20  33  49  67  93 127 161 195 236 285
#     4  10  19  31  49  70  95 127 163 199 236 283
#     4   9  18  32  50  74 102 130 160 196 240 289
#     4   9  17  29  46  69  97 129 164 200 236 274
#     4   9  18  32  48  67  91 121 160 207 253 294
#     4   9  18  32  47  64  88 118 152 192 245 304
#
# _framework density 16.419377000000001
#
# number of rings (size 3 to 8) (size 9 to 14) (size 15 to 20)
#    0.000    2.600    0.000    2.000    0.933    4.400 
#    0.000    2.000    0.000    0.000    0.000    3.733 
#    0.000    0.000    0.000    0.000    0.000    0.667 
#
# Total GULP energy -1487075.386923 kJ/mol
# GULP energy per Si atom -12392.294891 kJ/mol
# Density = 1.638201 g / cm^3
# Si number density = 16.419377 Si / 1000 Ang^3
#
#
#
# Elastic Constant Matrix: (Units=GPa)
#
#
# Indices 1 2 3 4 5 6 
#
# 1 81.8399 53.3537 34.8055 0.0000 0.0000 0.0000
# 2 53.3537 81.8399 34.8055 0.0000 0.0000 0.0000
# 3 34.8055 34.8055 79.9909 0.0000 0.0000 0.0000
# 4 0.0000 0.0000 0.0000 21.6284 0.0000 0.0000
# 5 0.0000 0.0000 0.0000 0.0000 21.6284 0.0000
# 6 0.0000 0.0000 0.0000 0.0000 0.0000 21.4961
#
#
#
# Elastic Compliance Matrix: (Units=1/GPa)
#
#
# Indices 1 2 3 4 5 6 
#
# 1 0.022319 -0.012786 -0.004148 0.000000 0.000000 0.000000
# 2 -0.012786 0.022319 -0.004148 0.000000 0.000000 0.000000
# 3 -0.004148 -0.004148 0.016111 0.000000 0.000000 0.000000
# 4 0.000000 0.000000 0.000000 0.046235 0.000000 0.000000
# 5 0.000000 0.000000 0.000000 0.000000 0.046235 0.000000
# 6 0.000000 0.000000 0.000000 0.000000 0.000000 0.046520
#
#
# Mechanical properties :
#
#
# Convention : Reuss Voigt Hill
#
# Bulk Modulus (GPa) = 53.80717 54.40001 54.10359
# Shear Modulus (GPa) = 20.15338 20.99766 20.57552
#
# Velocity S-wave (km/s) = 3.50725 3.57996 3.54379
# Velocity P-wave (km/s) = 7.01732 7.09166 7.05459
#
# Compressibility (1/GPa) = 0.01858488
#
# Stress axis : x y z
#
# Youngs Moduli (GPa) = 44.80569 44.80569 62.06955
#
# Poissons Ratio (x) = 0.57289 0.25745
# Poissons Ratio (y) = 0.57289 0.25745
# Poissons Ratio (z) = 0.18584 0.18584
#
# Static dielectric constant tensor:
#      x y z
#    x 3.166690 0.000000 0.000000 
#    y 0.000000 3.166690 0.000000 
#    z 0.000000 0.000000 3.587020 
# 
# 
# High freq. dielectric constant tensor:
#      x y z
#    x 1.625080 0.000000 0.000000 
#    y 0.000000 1.625080 0.000000 
#    z 0.000000 0.000000 1.626720 
# 
# From -- ./inp_files/6796.got.cif
#   From: 2010.03.12/outbox.cif.g09.slc.cpg/sg123_4_cif.got.tgz:6796.got - 2010.04.06 16:26:55.
