data_PCOD8312351
_publ_section_title
;
Structure prediction by ZEFSAII (Michael W. Deem and Ramdas Pophale) SiO2 
 PCOD8312351
Probable space group: P 4/M M M
;
_chemical_formula_sum "Si O2"
_cell_formula_units_Z 80
_cell_length_a 13.847118
_cell_length_b 13.847118
_cell_length_c 25.292855
_cell_angle_alpha 90.000000
_cell_angle_beta 90.000000
_cell_angle_gamma 90.000000
_cell_volume 4849.719724
_symmetry_space_group_name_H-M "P 4/M M M"
_symmetry_group_IT_number 123
_symmetry_cell_setting 'tetragonal'
loop_
_space_group_symop_operation_xyz
x,y,z
-y,x,z
-x,-y,z
y,-x,z
x,-y,-z
-x,y,-z
y,x,-z
-y,-x,-z
-x,-y,-z
y,-x,-z
x,y,-z
-y,x,-z
-x,y,z
x,-y,z
-y,-x,z
y,x,z
loop_
_atom_site_type_symbol
_atom_site_label
_atom_site_fract_x
_atom_site_fract_y
_atom_site_fract_z
Si Si1 0.113268 0.733273 0.844948
Si Si2 0.114552 0.392236 0.058512
Si Si3 0.266596 0.889323 0.438669
Si Si4 0.611461 0.890092 0.742870
Si Si5 0.613199 0.770536 0.360313
O O1 0.162902 0.837099 0.841051
O O2 0.155088 0.678489 0.896520
O O3 0.141363 0.671547 0.793781
O O4 0.000000 0.751721 0.849107
O O5 0.156154 0.500000 0.067636
O O6 0.000000 0.396497 0.063273
O O7 0.144868 0.354812 0.000000
O O8 0.293961 0.881323 0.500000
O O9 0.167365 0.832636 0.425900
O O10 0.355240 0.842734 0.406914
O O11 0.251193 0.000000 0.421385
O O12 0.500000 0.879361 0.758304
O O13 0.639725 0.820598 0.694953
O O14 0.635103 0.000000 0.726078
O O15 0.500000 0.749387 0.365885
O O16 0.669084 0.669084 0.364408
#
# Coordination Sequence:
#
# PCOD8312351 Si02
#       5
#    16  16  16  16  16
#     4  10  19  29  42  61  88 121 151 178 210 253
#     4   8  14  26  44  63  81 103 136 181 227 260
#     4   9  18  32  50  73  99 125 154 189 229 273
#     4   9  17  30  49  70  88 109 143 188 236 278
#     4  10  20  33  49  69  94 123 155 192 232 275
#
# _framework density 16.495799999999999
#
# number of rings (size 3 to 8) (size 9 to 14) (size 15 to 20)
#    0.000    2.800    0.000    2.400    0.000    5.000 
#    0.000    2.000    0.000    0.000    0.000    8.400 
#    0.000    3.600    0.000    8.800    0.000    0.800 
#
# Total GULP energy -991888.855230 kJ/mol
# GULP energy per Si atom -12398.610690 kJ/mol
# Density = 1.645825 g / cm^3
# Si number density = 16.495800 Si / 1000 Ang^3
#
#
#
# Elastic Constant Matrix: (Units=GPa)
#
#
# Indices 1 2 3 4 5 6 
#
# 1 86.4812 50.7971 56.0948 0.0000 0.0000 0.0000
# 2 50.7971 86.4812 56.0948 0.0000 0.0000 0.0000
# 3 56.0948 56.0948 103.4538 0.0000 0.0000 0.0000
# 4 0.0000 0.0000 0.0000 21.2868 0.0000 0.0000
# 5 0.0000 0.0000 0.0000 0.0000 21.2868 0.0000
# 6 0.0000 0.0000 0.0000 0.0000 0.0000 18.5057
#
#
#
# Elastic Compliance Matrix: (Units=1/GPa)
#
#
# Indices 1 2 3 4 5 6 
#
# 1 0.020552 -0.007471 -0.007093 0.000000 0.000000 0.000000
# 2 -0.007471 0.020552 -0.007093 0.000000 0.000000 0.000000
# 3 -0.007093 -0.007093 0.017358 0.000000 0.000000 0.000000
# 4 0.000000 0.000000 0.000000 0.046977 0.000000 0.000000
# 5 0.000000 0.000000 0.000000 0.000000 0.046977 0.000000
# 6 0.000000 0.000000 0.000000 0.000000 0.000000 0.054038
#
#
# Mechanical properties :
#
#
# Convention : Reuss Voigt Hill
#
# Bulk Modulus (GPa) = 66.01222 66.93215 66.47219
# Shear Modulus (GPa) = 19.62181 19.77782 19.69982
#
# Velocity S-wave (km/s) = 3.45266 3.46636 3.45952
# Velocity P-wave (km/s) = 7.48324 7.52889 7.50610
#
# Compressibility (1/GPa) = 0.01514871
#
# Stress axis : x y z
#
# Youngs Moduli (GPa) = 48.65626 48.65626 57.61078
#
# Poissons Ratio (x) = 0.36353 0.40862
# Poissons Ratio (y) = 0.36353 0.40862
# Poissons Ratio (z) = 0.34511 0.34511
#
# Static dielectric constant tensor:
#      x y z
#    x 2.941930 0.000000 0.000000 
#    y 0.000000 2.941930 0.000000 
#    z 0.000000 0.000000 3.311050 
# 
# 
# High freq. dielectric constant tensor:
#      x y z
#    x 1.618330 0.000000 0.000000 
#    y 0.000000 1.618330 0.000000 
#    z 0.000000 0.000000 1.649810 
# 
# From -- ./inp_files/6289.got.cif
#   From: 2010.03.12/outbox.cif.g09.slc.cpg/sg123_4_cif.got.tgz:6289.got - 2010.04.06 16:26:55.
