data_PCOD8312853
_publ_section_title
;
Structure prediction by ZEFSAII (Michael W. Deem and Ramdas Pophale) SiO2 
 PCOD8312853
Probable space group: P 4/M M M
;
_chemical_formula_sum "Si O2"
_cell_formula_units_Z 72
_cell_length_a 21.086045
_cell_length_b 21.086045
_cell_length_c 7.478680
_cell_angle_alpha 90.000000
_cell_angle_beta 90.000000
_cell_angle_gamma 90.000000
_cell_volume 3325.180377
_symmetry_space_group_name_H-M "P 4/M M M"
_symmetry_group_IT_number 123
_symmetry_cell_setting 'tetragonal'
loop_
_space_group_symop_operation_xyz
x,y,z
-y,x,z
-x,-y,z
y,-x,z
x,-y,-z
-x,y,-z
y,x,-z
-y,-x,-z
-x,-y,-z
y,-x,-z
x,y,-z
-y,x,-z
-x,y,z
x,-y,z
-y,-x,z
y,x,z
loop_
_atom_site_type_symbol
_atom_site_label
_atom_site_fract_x
_atom_site_fract_y
_atom_site_fract_z
Si Si1 0.500000 0.688954 0.787238
Si Si2 0.732657 0.732657 0.790608
Si Si3 0.930526 0.601678 0.210556
Si Si4 0.367576 0.632425 0.213165
Si Si5 0.733941 0.875851 0.209525
Si Si6 0.925546 0.173462 0.500000
Si Si7 0.500000 0.167067 0.786689
O O1 0.562303 0.651646 0.717188
O O2 0.500000 0.761220 0.710475
O O3 0.500000 0.691512 0.000000
O O4 0.682931 0.682931 0.705193
O O5 0.804231 0.716516 0.732074
O O6 0.725325 0.725325 0.000000
O O7 0.919514 0.674585 0.259173
O O8 0.872688 0.560128 0.288105
O O9 0.000000 0.581946 0.287640
O O10 0.931067 0.591544 0.000000
O O11 0.366586 0.633415 0.000000
O O12 0.792546 0.901591 0.320744
O O13 0.751792 0.878715 0.000000
O O14 0.896987 0.103014 0.500000
O O15 0.000000 0.167614 0.500000
O O16 0.500000 0.171092 0.000000
#
# Coordination Sequence:
#
# PCOD8312853 Si02
#       7
#     8   8  16   8  16   8   8
#     4   9  16  24  34  54  91 139 192 244 291 342
#     4   9  16  29  52  77 103 138 184 235 285 338
#     4   9  16  26  44  72 106 143 182 227 281 343
#     4   9  16  25  39  64  99 144 193 242 295 344
#     4  10  20  37  60  87 117 151 193 241 290 339
#     4  12  26  43  64  89 117 149 189 235 287 349
#     4   9  15  24  40  67 103 143 189 238 286 342
#
# _framework density 21.652961999999999
#
# number of rings (size 3 to 8) (size 9 to 14) (size 15 to 20)
#    0.000    2.444    1.111    2.333    0.000    8.333 
#    0.000    1.111    0.000    0.667    0.000    3.889 
#    0.000    0.889    0.000    0.111    0.000   12.444 
#
# Total GULP energy -892404.581062 kJ/mol
# GULP energy per Si atom -12394.508070 kJ/mol
# Density = 2.160368 g / cm^3
# Si number density = 21.652962 Si / 1000 Ang^3
#
#
#
# Elastic Constant Matrix: (Units=GPa)
#
#
# Indices 1 2 3 4 5 6 
#
# 1 95.8737 191.7454 20.7802 0.0000 0.0000 0.0000
# 2 191.7454 95.9009 20.7872 0.0000 0.0000 0.0000
# 3 20.7802 20.7872 50.5013 0.0000 0.0000 0.0000
# 4 0.0000 0.0000 0.0000 -2.9760 0.0000 0.0000
# 5 0.0000 0.0000 0.0000 0.0000 -2.9748 0.0000
# 6 0.0000 0.0000 0.0000 0.0000 0.0000 36.6865
#
#
#
# Elastic Compliance Matrix: (Units=1/GPa)
#
#
# Indices 1 2 3 4 5 6 
#
# 1 -0.003368 0.007064 -0.001522 0.000000 0.000000 0.000000
# 2 0.007064 -0.003367 -0.001521 0.000000 0.000000 0.000000
# 3 -0.001522 -0.001521 0.021054 0.000000 0.000000 0.000000
# 4 0.000000 0.000000 0.000000 -0.336016 0.000000 0.000000
# 5 0.000000 0.000000 0.000000 0.000000 -0.336162 0.000000
# 6 0.000000 0.000000 0.000000 0.000000 0.000000 0.027258
#
#
# Mechanical properties :
#
#
# Convention : Reuss Voigt Hill
#
# Bulk Modulus (GPa) = 44.71972 78.76684 61.74328
# Shear Modulus (GPa) = -7.92152 6.74468 -0.58842
#
# Velocity S-wave (km/s) = -1.91477 1.76682 -0.52186
# Velocity P-wave (km/s) = 3.97609 6.37323 5.31166
#
# Compressibility (1/GPa) = 0.02236150
#
# Stress axis : x y z
#
# Youngs Moduli (GPa) = -296.89434 -296.96703 47.49771
#
# Poissons Ratio (x) = 2.09786 0.07228
# Poissons Ratio (y) = 2.09735 0.07223
# Poissons Ratio (z) = -0.45183 -0.45161
#
# Static dielectric constant tensor:
#      x y z
#    x 4.103950 0.000000 0.000000 
#    y 0.000000 4.103940 0.000000 
#    z 0.000000 0.000000 3.376970 
# 
# 
# High freq. dielectric constant tensor:
#      x y z
#    x 1.852570 0.000000 0.000000 
#    y 0.000000 1.852570 0.000000 
#    z 0.000000 0.000000 1.812210 
# 
# From -- ./inp_files/1260.got.cif
#   From: 2010.03.12/outbox.cif.g09.slc.cpg/sg123_1_cif.got.tgz:1260.got - 2010.04.06 16:26:55.
