data_PCOD8312763
_publ_section_title
;
Structure prediction by ZEFSAII (Michael W. Deem and Ramdas Pophale) SiO2 
 PCOD8312763
Probable space group: P 4/M M M
;
_chemical_formula_sum "Si O2"
_cell_formula_units_Z 88
_cell_length_a 13.234723
_cell_length_b 13.234723
_cell_length_c 28.255565
_cell_angle_alpha 90.000000
_cell_angle_beta 90.000000
_cell_angle_gamma 90.000000
_cell_volume 4949.185228
_symmetry_space_group_name_H-M "P 4/M M M"
_symmetry_group_IT_number 123
_symmetry_cell_setting 'tetragonal'
loop_
_space_group_symop_operation_xyz
x,y,z
-y,x,z
-x,-y,z
y,-x,z
x,-y,-z
-x,y,-z
y,x,-z
-y,-x,-z
-x,-y,-z
y,-x,-z
x,y,-z
-y,x,-z
-x,y,z
x,-y,z
-y,-x,z
y,x,z
loop_
_atom_site_type_symbol
_atom_site_label
_atom_site_fract_x
_atom_site_fract_y
_atom_site_fract_z
Si Si1 0.216178 0.618276 0.000000
Si Si2 0.616505 0.221137 0.634393
Si Si3 0.381071 0.780993 0.824368
Si Si4 0.284048 0.882262 0.089099
Si Si5 0.887629 0.380255 0.271567
Si Si6 0.884331 0.720393 0.446466
O O1 0.150360 0.646118 0.045568
O O2 0.241466 0.500000 0.000000
O O3 0.322465 0.677536 0.000000
O O4 0.500000 0.248253 0.640077
O O5 0.673852 0.326149 0.626873
O O6 0.659722 0.165868 0.680992
O O7 0.631712 0.149072 0.589012
O O8 0.500000 0.760946 0.827094
O O9 0.325703 0.674298 0.833373
O O10 0.347849 0.861971 0.863523
O O11 0.346118 0.823936 0.773824
O O12 0.178771 0.821230 0.088954
O O13 0.257296 0.000000 0.085524
O O14 0.895609 0.500000 0.273278
O O15 0.000000 0.333171 0.268641
O O16 0.866140 0.681708 0.500000
O O17 0.821469 0.821469 0.435629
O O18 0.000000 0.748688 0.437690
#
# Coordination Sequence:
#
# PCOD8312763 Si02
#       6
#     8  16  16  16  16  16
#     4  10  21  36  54  78 106 136 171 208 248 298
#     4  10  20  33  49  70  97 129 166 206 246 291
#     4  10  20  33  50  74 103 135 172 210 248 294
#     4  10  21  36  54  77 103 132 169 211 255 304
#     4   9  17  30  49  71  94 123 160 201 245 290
#     4   9  18  32  50  73  99 126 158 197 242 293
#
# _framework density 17.780702999999999
#
# number of rings (size 3 to 8) (size 9 to 14) (size 15 to 20)
#    0.000    2.364    0.000    2.455    0.000    4.818 
#    0.000    1.818    0.000    8.182    0.000    2.545 
#    0.000   13.091    0.000    0.000    0.000    0.000 
#
# Total GULP energy -1091357.028335 kJ/mol
# GULP energy per Si atom -12401.784413 kJ/mol
# Density = 1.774023 g / cm^3
# Si number density = 17.780703 Si / 1000 Ang^3
#
#
#
# Elastic Constant Matrix: (Units=GPa)
#
#
# Indices 1 2 3 4 5 6 
#
# 1 101.8072 40.6284 43.6963 0.0000 0.0000 0.0000
# 2 40.6284 101.8067 43.6962 0.0000 0.0000 0.0000
# 3 43.6963 43.6962 133.0754 0.0000 0.0000 0.0000
# 4 0.0000 0.0000 0.0000 24.4484 0.0000 0.0000
# 5 0.0000 0.0000 0.0000 0.0000 24.4485 0.0000
# 6 0.0000 0.0000 0.0000 0.0000 0.0000 12.4994
#
#
#
# Elastic Compliance Matrix: (Units=1/GPa)
#
#
# Indices 1 2 3 4 5 6 
#
# 1 0.012569 -0.003777 -0.002887 0.000000 0.000000 0.000000
# 2 -0.003777 0.012569 -0.002887 0.000000 0.000000 0.000000
# 3 -0.002887 -0.002887 0.009410 0.000000 0.000000 0.000000
# 4 0.000000 0.000000 0.000000 0.040902 0.000000 0.000000
# 5 0.000000 0.000000 0.000000 0.000000 0.040902 0.000000
# 6 0.000000 0.000000 0.000000 0.000000 0.000000 0.080004
#
#
# Mechanical properties :
#
#
# Convention : Reuss Voigt Hill
#
# Bulk Modulus (GPa) = 64.73841 65.85900 65.29871
# Shear Modulus (GPa) = 22.66477 26.19050 24.42764
#
# Velocity S-wave (km/s) = 3.57414 3.84210 3.71054
# Velocity P-wave (km/s) = 7.31581 7.53673 7.42709
#
# Compressibility (1/GPa) = 0.01544678
#
# Stress axis : x y z
#
# Youngs Moduli (GPa) = 79.56219 79.56182 106.26520
#
# Poissons Ratio (x) = 0.30049 0.30678
# Poissons Ratio (y) = 0.30049 0.30678
# Poissons Ratio (z) = 0.22969 0.22969
#
# Static dielectric constant tensor:
#      x y z
#    x 3.128040 0.000000 0.000000 
#    y 0.000000 3.128040 0.000000 
#    z 0.000000 0.000000 3.593100 
# 
# 
# High freq. dielectric constant tensor:
#      x y z
#    x 1.676990 0.000000 0.000000 
#    y 0.000000 1.676990 0.000000 
#    z 0.000000 0.000000 1.709330 
# 
# From -- ./inp_files/8457.got.cif
#   From: 2010.03.12/outbox.cif.g09.slc.cpg/sg123_5_cif.got.tgz:8457.got - 2010.04.06 16:26:55.
