data_PCOD8312280
_publ_section_title
;
Structure prediction by ZEFSAII (Michael W. Deem and Ramdas Pophale) SiO2 
 PCOD8312280
Probable space group: P 4/M M M
;
_chemical_formula_sum "Si O2"
_cell_formula_units_Z 104
_cell_length_a 18.867698
_cell_length_b 18.867698
_cell_length_c 16.794980
_cell_angle_alpha 90.000000
_cell_angle_beta 90.000000
_cell_angle_gamma 90.000000
_cell_volume 5978.845397
_symmetry_space_group_name_H-M "P 4/M M M"
_symmetry_group_IT_number 123
_symmetry_cell_setting 'tetragonal'
loop_
_space_group_symop_operation_xyz
x,y,z
-y,x,z
-x,-y,z
y,-x,z
x,-y,-z
-x,y,-z
y,x,-z
-y,-x,-z
-x,-y,-z
y,-x,-z
x,y,-z
-y,x,-z
-x,y,z
x,-y,z
-y,-x,z
y,x,z
loop_
_atom_site_type_symbol
_atom_site_label
_atom_site_fract_x
_atom_site_fract_y
_atom_site_fract_z
Si Si1 0.131090 0.752979 0.087576
Si Si2 0.581459 0.804355 0.590256
Si Si3 0.300195 0.581413 0.270158
Si Si4 0.383482 0.832390 0.170669
Si Si5 0.341086 0.917597 0.679427
Si Si6 0.921492 0.500000 0.908334
Si Si7 0.194782 0.077059 0.244579
O O1 0.181107 0.818894 0.074694
O O2 0.177958 0.689752 0.123875
O O3 0.073334 0.773650 0.154518
O O4 0.097311 0.734595 0.000000
O O5 0.592033 0.778125 0.500000
O O6 0.500000 0.826748 0.606773
O O7 0.602735 0.739412 0.647909
O O8 0.631997 0.872814 0.603487
O O9 0.326786 0.500000 0.272676
O O10 0.367809 0.632192 0.258297
O O11 0.245302 0.590200 0.196909
O O12 0.381426 0.884522 0.245838
O O13 0.433298 0.873090 0.110493
O O14 0.256844 0.907674 0.691862
O O15 0.361072 0.000000 0.668857
O O16 0.000000 0.500000 0.866161
O O17 0.937363 0.500000 0.000000
O O18 0.136092 0.136092 0.256851
O O19 0.161092 0.000000 0.261330
#
# Coordination Sequence:
#
# PCOD8312280 Si02
#       7
#    16  16  16  16  16   8  16
#     4   9  17  29  47  69  92 122 161 203 247 297
#     4   9  19  34  51  76 108 137 165 198 242 299
#     4  10  20  35  55  77 101 132 169 212 257 301
#     4  10  18  33  48  69  98 133 167 207 246 297
#     4   9  18  30  48  71  99 135 169 205 245 292
#     4  11  22  32  46  72 104 136 168 203 246 298
#     4   9  18  32  48  68  94 125 165 211 257 303
#
# _framework density 17.394662
#
# number of rings (size 3 to 8) (size 9 to 14) (size 15 to 20)
#    0.000    2.538    0.769    1.385    1.077    5.846 
#    0.000    0.769    0.000    0.000    0.000    4.308 
#    0.000    0.615    0.000    3.385    0.000    0.000 
#
# Total GULP energy -1288804.168161 kJ/mol
# GULP energy per Si atom -12392.347771 kJ/mol
# Density = 1.735507 g / cm^3
# Si number density = 17.394662 Si / 1000 Ang^3
#
#
#
# Elastic Constant Matrix: (Units=GPa)
#
#
# Indices 1 2 3 4 5 6 
#
# 1 93.5665 52.9493 22.8207 0.0000 0.0000 0.0000
# 2 52.9493 93.5665 22.8207 0.0000 0.0000 0.0000
# 3 22.8207 22.8207 54.0088 0.0000 0.0000 0.0000
# 4 0.0000 0.0000 0.0000 16.8705 0.0000 0.0000
# 5 0.0000 0.0000 0.0000 0.0000 16.8705 0.0000
# 6 0.0000 0.0000 0.0000 0.0000 0.0000 159.5599
#
#
#
# Elastic Compliance Matrix: (Units=1/GPa)
#
#
# Indices 1 2 3 4 5 6 
#
# 1 0.016240 -0.008380 -0.003321 0.000000 0.000000 0.000000
# 2 -0.008380 0.016240 -0.003321 0.000000 0.000000 0.000000
# 3 -0.003321 -0.003321 0.021322 0.000000 0.000000 0.000000
# 4 0.000000 0.000000 0.000000 0.059275 0.000000 0.000000
# 5 0.000000 0.000000 0.000000 0.000000 0.059275 0.000000
# 6 0.000000 0.000000 0.000000 0.000000 0.000000 0.006267
#
#
# Mechanical properties :
#
#
# Convention : Reuss Voigt Hill
#
# Bulk Modulus (GPa) = 42.09222 48.70259 45.39740
# Shear Modulus (GPa) = 23.08589 48.16360 35.62474
#
# Velocity S-wave (km/s) = 3.64700 5.26772 4.53042
# Velocity P-wave (km/s) = 6.47959 8.06584 7.31583
#
# Compressibility (1/GPa) = 0.02375736
#
# Stress axis : x y z
#
# Youngs Moduli (GPa) = 61.57660 61.57660 46.89990
#
# Poissons Ratio (x) = 0.51602 0.15576
# Poissons Ratio (y) = 0.51602 0.15576
# Poissons Ratio (z) = 0.20450 0.20450
#
# Static dielectric constant tensor:
#      x y z
#    x 3.165030 0.000000 0.000000 
#    y 0.000000 3.165030 0.000000 
#    z 0.000000 0.000000 3.359440 
# 
# 
# High freq. dielectric constant tensor:
#      x y z
#    x 1.664550 0.000000 0.000000 
#    y 0.000000 1.664550 0.000000 
#    z 0.000000 0.000000 1.659610 
# 
# From -- ./inp_files/5593.got.cif
#   From: 2010.03.12/outbox.cif.g09.slc.cpg/sg123_3_cif.got.tgz:5593.got - 2010.04.06 16:26:55.
