data_PCOD8312934
_publ_section_title
;
Structure prediction by ZEFSAII (Michael W. Deem and Ramdas Pophale) SiO2 
 PCOD8312934
Probable space group: P 4/M M M
;
_chemical_formula_sum "Si O2"
_cell_formula_units_Z 72
_cell_length_a 21.527248
_cell_length_b 21.527248
_cell_length_c 7.870249
_cell_angle_alpha 90.000000
_cell_angle_beta 90.000000
_cell_angle_gamma 90.000000
_cell_volume 3647.249731
_symmetry_space_group_name_H-M "P 4/M M M"
_symmetry_group_IT_number 123
_symmetry_cell_setting 'tetragonal'
loop_
_space_group_symop_operation_xyz
x,y,z
-y,x,z
-x,-y,z
y,-x,z
x,-y,-z
-x,y,-z
y,x,-z
-y,-x,-z
-x,-y,-z
y,-x,-z
x,y,-z
-y,x,-z
-x,y,z
x,-y,z
-y,-x,z
y,x,z
loop_
_atom_site_type_symbol
_atom_site_label
_atom_site_fract_x
_atom_site_fract_y
_atom_site_fract_z
Si Si1 0.664454 0.138404 0.801206
Si Si2 0.000000 0.688813 0.188564
Si Si3 0.181630 0.000000 0.688106
Si Si4 0.881133 0.118868 0.200217
Si Si5 0.675503 0.426550 0.000000
Si Si6 0.217596 0.782405 0.302633
Si Si7 0.571949 0.235764 0.691258
O O1 0.671550 0.067382 0.723237
O O2 0.718830 0.189313 0.771769
O O3 0.603947 0.169009 0.718459
O O4 0.656185 0.129890 0.000000
O O5 0.000000 0.763259 0.175647
O O6 0.000000 0.660567 0.000000
O O7 0.136235 0.055956 0.713161
O O8 0.211574 0.000000 0.500000
O O9 0.832092 0.167909 0.257575
O O10 0.886534 0.113467 0.000000
O O11 0.713837 0.406548 0.831500
O O12 0.660193 0.500000 0.000000
O O13 0.610778 0.389223 0.000000
O O14 0.228322 0.771679 0.500000
O O15 0.586253 0.260779 0.500000
O O16 0.500000 0.222108 0.716223
#
# Coordination Sequence:
#
# PCOD8312934 Si02
#       7
#    16   8   8   8   8   8  16
#     4  11  22  38  61  88 119 157 203 250 305 368
#     4  10  22  38  58  84 116 155 192 241 308 369
#     4  12  24  39  59  81 107 142 188 243 298 361
#     4  12  24  41  59  78 110 150 189 236 301 370
#     4  10  22  41  66  97 133 173 211 252 302 356
#     4  12  24  36  55  89 120 150 194 248 305 360
#     4  10  22  41  64  92 128 167 207 253 305 359
#
# _framework density 19.740904
#
# number of rings (size 3 to 8) (size 9 to 14) (size 15 to 20)
#    0.000    1.111    3.333    3.667    1.556    1.667 
#    0.000    1.667    0.000    3.333    0.000    3.111 
#    0.000    0.000    0.000    0.000    0.000    0.000 
#
# Total GULP energy -892018.804075 kJ/mol
# GULP energy per Si atom -12389.150057 kJ/mol
# Density = 1.969597 g / cm^3
# Si number density = 19.740904 Si / 1000 Ang^3
#
#
#
# Elastic Constant Matrix: (Units=GPa)
#
#
# Indices 1 2 3 4 5 6 
#
# 1 95.6497 65.9973 31.8370 0.0000 0.0000 0.0000
# 2 65.9973 95.6439 31.8361 0.0000 0.0000 0.0000
# 3 31.8370 31.8361 111.9291 0.0000 0.0000 0.0000
# 4 0.0000 0.0000 0.0000 22.6127 0.0000 0.0000
# 5 0.0000 0.0000 0.0000 0.0000 22.6126 0.0000
# 6 0.0000 0.0000 0.0000 0.0000 0.0000 37.4191
#
#
#
# Elastic Compliance Matrix: (Units=1/GPa)
#
#
# Indices 1 2 3 4 5 6 
#
# 1 0.020347 -0.013380 -0.001982 0.000000 0.000000 0.000000
# 2 -0.013380 0.020348 -0.001982 0.000000 0.000000 0.000000
# 3 -0.001982 -0.001982 0.010062 0.000000 0.000000 0.000000
# 4 0.000000 0.000000 0.000000 0.044223 0.000000 0.000000
# 5 0.000000 0.000000 0.000000 0.000000 0.044223 0.000000
# 6 0.000000 0.000000 0.000000 0.000000 0.000000 0.026724
#
#
# Mechanical properties :
#
#
# Convention : Reuss Voigt Hill
#
# Bulk Modulus (GPa) = 62.23190 62.50704 62.36947
# Shear Modulus (GPa) = 24.27542 28.09903 26.18723
#
# Velocity S-wave (km/s) = 3.51051 3.77688 3.64613
# Velocity P-wave (km/s) = 6.92996 7.12406 7.02768
#
# Compressibility (1/GPa) = 0.01606893
#
# Stress axis : x y z
#
# Youngs Moduli (GPa) = 49.14836 49.14530 99.38838
#
# Poissons Ratio (x) = 0.65757 0.19695
# Poissons Ratio (y) = 0.65761 0.19696
# Poissons Ratio (z) = 0.09739 0.09739
#
# Static dielectric constant tensor:
#      x y z
#    x 3.651090 0.000000 0.000000 
#    y 0.000000 3.651090 0.000000 
#    z 0.000000 0.000000 3.915180 
# 
# 
# High freq. dielectric constant tensor:
#      x y z
#    x 1.766670 0.000000 0.000000 
#    y 0.000000 1.766670 0.000000 
#    z 0.000000 0.000000 1.778930 
# 
# From -- ./inp_files/1263.got.cif
#   From: 2010.03.12/outbox.cif.g09.slc.cpg/sg123_1_cif.got.tgz:1263.got - 2010.04.06 16:26:55.
