data_PCOD8312192
_publ_section_title
;
Structure prediction by ZEFSAII (Michael W. Deem and Ramdas Pophale) SiO2 
 PCOD8312192
Probable space group: P 4/M M M
;
_chemical_formula_sum "Si O2"
_cell_formula_units_Z 128
_cell_length_a 17.503213
_cell_length_b 17.503213
_cell_length_c 26.819926
_cell_angle_alpha 90.000000
_cell_angle_beta 90.000000
_cell_angle_gamma 90.000000
_cell_volume 8216.618649
_symmetry_space_group_name_H-M "P 4/M M M"
_symmetry_group_IT_number 123
_symmetry_cell_setting 'tetragonal'
loop_
_space_group_symop_operation_xyz
x,y,z
-y,x,z
-x,-y,z
y,-x,z
x,-y,-z
-x,y,-z
y,x,-z
-y,-x,-z
-x,-y,-z
y,-x,-z
x,y,-z
-y,x,-z
-x,y,z
x,-y,z
-y,-x,z
y,x,z
loop_
_atom_site_type_symbol
_atom_site_label
_atom_site_fract_x
_atom_site_fract_y
_atom_site_fract_z
Si Si1 0.413794 0.706798 0.181968
Si Si2 0.673469 0.202722 0.360588
Si Si3 0.184762 0.695989 0.125411
Si Si4 0.911094 0.209489 0.675446
Si Si5 0.089579 0.585797 0.942361
Si Si6 0.588270 0.711967 0.557573
Si Si7 0.584402 0.826251 0.734907
Si Si8 0.087278 0.283663 0.220010
O O1 0.500000 0.696404 0.163203
O O2 0.376420 0.623581 0.186973
O O3 0.369653 0.757466 0.141960
O O4 0.408879 0.747231 0.235347
O O5 0.727343 0.272658 0.344129
O O6 0.725260 0.125865 0.360297
O O7 0.632277 0.220003 0.413198
O O8 0.606716 0.193491 0.321025
O O9 0.234002 0.765999 0.101559
O O10 0.129218 0.655634 0.086265
O O11 0.139175 0.733453 0.171939
O O12 0.871899 0.128101 0.663864
O O13 0.896240 0.226401 0.734107
O O14 0.000000 0.204671 0.662356
O O15 0.113675 0.500000 0.923863
O O16 0.000000 0.595921 0.933992
O O17 0.111506 0.594132 0.000000
O O18 0.592694 0.735558 0.500000
O O19 0.500000 0.703363 0.574871
O O20 0.630955 0.630955 0.567087
O O21 0.500000 0.859726 0.735238
O O22 0.632267 0.893934 0.759879
O O23 0.000000 0.279646 0.202797
#
# Coordination Sequence:
#
# PCOD8312192 Si02
#       8
#    16  16  16  16  16  16  16  16
#     4   9  17  27  38  54  76 103 137 173 207 245
#     4   9  16  27  43  60  81 112 145 176 214 257
#     4  10  18  28  44  64  86 111 139 172 208 245
#     4   9  17  29  45  65  88 112 139 171 208 253
#     4   9  18  32  48  65  86 112 140 171 211 257
#     4   9  17  28  43  64  88 115 148 183 217 253
#     4   9  16  25  38  57  80 107 140 176 211 246
#     4   9  17  28  41  60  87 116 142 167 200 245
#
# _framework density 15.578184
#
# number of rings (size 3 to 8) (size 9 to 14) (size 15 to 20)
#    0.000    2.875    0.000    2.250    0.000    4.375 
#    0.000    0.625    0.000    1.500    0.000    2.625 
#    0.000    2.250    0.000   22.000    0.000    0.000 
#
# Total GULP energy -1586386.585941 kJ/mol
# GULP energy per Si atom -12393.645203 kJ/mol
# Density = 1.554273 g / cm^3
# Si number density = 15.578184 Si / 1000 Ang^3
#
#
#
# Elastic Constant Matrix: (Units=GPa)
#
#
# Indices 1 2 3 4 5 6 
#
# 1 89.5808 45.3054 31.5399 0.0000 0.0000 0.0000
# 2 45.3054 89.5808 31.5399 0.0000 0.0000 0.0000
# 3 31.5399 31.5399 55.8468 0.0000 0.0000 0.0000
# 4 0.0000 0.0000 0.0000 19.0217 0.0000 0.0000
# 5 0.0000 0.0000 0.0000 0.0000 19.0217 0.0000
# 6 0.0000 0.0000 0.0000 0.0000 0.0000 21.8949
#
#
#
# Elastic Compliance Matrix: (Units=1/GPa)
#
#
# Indices 1 2 3 4 5 6 
#
# 1 0.016330 -0.006256 -0.005690 0.000000 0.000000 0.000000
# 2 -0.006256 0.016330 -0.005690 0.000000 0.000000 0.000000
# 3 -0.005690 -0.005690 0.024333 0.000000 0.000000 0.000000
# 4 0.000000 0.000000 0.000000 0.052572 0.000000 0.000000
# 5 0.000000 0.000000 0.000000 0.000000 0.052572 0.000000
# 6 0.000000 0.000000 0.000000 0.000000 0.000000 0.045673
#
#
# Mechanical properties :
#
#
# Convention : Reuss Voigt Hill
#
# Bulk Modulus (GPa) = 46.03409 50.19766 48.11588
# Shear Modulus (GPa) = 19.97443 20.42918 20.20180
#
# Velocity S-wave (km/s) = 3.58467 3.62525 3.60502
# Velocity P-wave (km/s) = 6.83723 7.05806 6.94852
#
# Compressibility (1/GPa) = 0.02172303
#
# Stress axis : x y z
#
# Youngs Moduli (GPa) = 61.23637 61.23637 41.09708
#
# Poissons Ratio (x) = 0.38308 0.23383
# Poissons Ratio (y) = 0.38308 0.23383
# Poissons Ratio (z) = 0.34841 0.34841
#
# Static dielectric constant tensor:
#      x y z
#    x 2.976440 0.000000 0.000000 
#    y 0.000000 2.976440 0.000000 
#    z 0.000000 0.000000 2.836510 
# 
# 
# High freq. dielectric constant tensor:
#      x y z
#    x 1.593550 0.000000 0.000000 
#    y 0.000000 1.593550 0.000000 
#    z 0.000000 0.000000 1.576130 
# 
# From -- ./inp_files/7645.got.cif
#   From: 2010.03.12/outbox.cif.g09.slc.cpg/sg123_4_cif.got.tgz:7645.got - 2010.04.06 16:26:55.
