data_PCOD8312341
_publ_section_title
;
Structure prediction by ZEFSAII (Michael W. Deem and Ramdas Pophale) SiO2 
 PCOD8312341
Probable space group: P 4/M M M
;
_chemical_formula_sum "Si O2"
_cell_formula_units_Z 104
_cell_length_a 14.118255
_cell_length_b 14.118255
_cell_length_c 33.368815
_cell_angle_alpha 90.000000
_cell_angle_beta 90.000000
_cell_angle_gamma 90.000000
_cell_volume 6651.243196
_symmetry_space_group_name_H-M "P 4/M M M"
_symmetry_group_IT_number 123
_symmetry_cell_setting 'tetragonal'
loop_
_space_group_symop_operation_xyz
x,y,z
-y,x,z
-x,-y,z
y,-x,z
x,-y,-z
-x,y,-z
y,x,-z
-y,-x,-z
-x,-y,-z
y,-x,-z
x,y,-z
-y,x,-z
-x,y,z
x,-y,z
-y,-x,z
y,x,z
loop_
_atom_site_type_symbol
_atom_site_label
_atom_site_fract_x
_atom_site_fract_y
_atom_site_fract_z
Si Si1 0.612410 0.104975 0.112714
Si Si2 0.392237 0.108343 0.651052
Si Si3 0.111156 0.267097 0.425557
Si Si4 0.612233 0.894050 0.798505
Si Si5 0.393464 0.887964 0.500000
Si Si6 0.389124 0.235923 0.272823
Si Si7 0.391338 0.759780 0.044656
O O1 0.500000 0.101450 0.108868
O O2 0.641320 0.142393 0.157007
O O3 0.654606 0.170190 0.077511
O O4 0.654173 0.000000 0.106562
O O5 0.500000 0.125361 0.636316
O O6 0.321343 0.133625 0.615422
O O7 0.366718 0.174301 0.688180
O O8 0.379395 0.000000 0.665001
O O9 0.169287 0.169287 0.427068
O O10 0.145855 0.336102 0.461001
O O11 0.000000 0.241956 0.429690
O O12 0.500000 0.899272 0.794543
O O13 0.651379 0.821662 0.765406
O O14 0.653208 0.000000 0.791216
O O15 0.500000 0.844014 0.500000
O O16 0.402639 0.000000 0.500000
O O17 0.500000 0.258598 0.268651
O O18 0.335413 0.335413 0.275818
O O19 0.500000 0.739477 0.054596
O O20 0.340700 0.659301 0.047750
O O21 0.379010 0.803898 0.000000
#
# Coordination Sequence:
#
# PCOD8312341 Si02
#       7
#    16  16  16  16   8  16  16
#     4   8  14  25  41  59  77  98 127 166 211 252
#     4   9  17  30  48  67  85 108 143 188 229 255
#     4  10  19  30  45  66  93 121 146 174 211 260
#     4   8  14  26  43  60  77  99 130 169 210 247
#     4   9  17  30  47  65  85 111 145 183 217 244
#     4  10  19  29  42  61  86 115 144 173 206 247
#     4   9  17  27  38  54  78 109 142 171 198 233
#
# _framework density 15.636174
#
# number of rings (size 3 to 8) (size 9 to 14) (size 15 to 20)
#    0.000    3.000    0.000    2.538    0.000    5.077 
#    0.000    2.308    0.000    1.385    0.000    4.308 
#    0.000   14.769    0.000    8.462    0.000    4.462 
#
# Total GULP energy -1289066.073603 kJ/mol
# GULP energy per Si atom -12394.866092 kJ/mol
# Density = 1.560059 g / cm^3
# Si number density = 15.636174 Si / 1000 Ang^3
#
#
#
# Elastic Constant Matrix: (Units=GPa)
#
#
# Indices 1 2 3 4 5 6 
#
# 1 66.7442 41.9354 52.6856 0.0000 0.0000 0.0000
# 2 41.9354 66.7442 52.6856 0.0000 0.0000 0.0000
# 3 52.6856 52.6856 125.4349 0.0000 0.0000 0.0000
# 4 0.0000 0.0000 0.0000 18.3911 0.0000 0.0000
# 5 0.0000 0.0000 0.0000 0.0000 18.3911 0.0000
# 6 0.0000 0.0000 0.0000 0.0000 0.0000 17.1785
#
#
#
# Elastic Compliance Matrix: (Units=1/GPa)
#
#
# Indices 1 2 3 4 5 6 
#
# 1 0.027916 -0.012393 -0.006520 0.000000 0.000000 0.000000
# 2 -0.012393 0.027916 -0.006520 0.000000 0.000000 0.000000
# 3 -0.006520 -0.006520 0.013449 0.000000 0.000000 0.000000
# 4 0.000000 0.000000 0.000000 0.054374 0.000000 0.000000
# 5 0.000000 0.000000 0.000000 0.000000 0.054374 0.000000
# 6 0.000000 0.000000 0.000000 0.000000 0.000000 0.058212
#
#
# Mechanical properties :
#
#
# Convention : Reuss Voigt Hill
#
# Bulk Modulus (GPa) = 54.30300 61.50404 57.90352
# Shear Modulus (GPa) = 17.05062 18.23327 17.64194
#
# Velocity S-wave (km/s) = 3.30579 3.41852 3.36263
# Velocity P-wave (km/s) = 7.02677 7.41630 7.22416
#
# Compressibility (1/GPa) = 0.01841519
#
# Stress axis : x y z
#
# Youngs Moduli (GPa) = 35.82228 35.82228 74.35312
#
# Poissons Ratio (x) = 0.44394 0.48478
# Poissons Ratio (y) = 0.44394 0.48478
# Poissons Ratio (z) = 0.23356 0.23356
#
# Static dielectric constant tensor:
#      x y z
#    x 2.793770 0.000000 0.000000 
#    y 0.000000 2.793770 0.000000 
#    z 0.000000 0.000000 3.275760 
# 
# 
# High freq. dielectric constant tensor:
#      x y z
#    x 1.572130 0.000000 0.000000 
#    y 0.000000 1.572130 0.000000 
#    z 0.000000 0.000000 1.619640 
# 
# From -- ./inp_files/8785.got.cif
#   From: 2010.03.12/outbox.cif.g09.slc.cpg/sg123_5_cif.got.tgz:8785.got - 2010.04.06 16:26:55.
