data_PCOD8312046
_publ_section_title
;
Structure prediction by ZEFSAII (Michael W. Deem and Ramdas Pophale) SiO2 
 PCOD8312046
Probable space group: I -4 2 D
;
_chemical_formula_sum "Si O2"
_cell_formula_units_Z 100
_cell_length_a 14.272295
_cell_length_b 14.272295
_cell_length_c 22.664344
_cell_angle_alpha 90.000000
_cell_angle_beta 90.000000
_cell_angle_gamma 90.000000
_cell_volume 4616.690713
_symmetry_space_group_name_H-M "I -4 2 D"
_symmetry_group_IT_number 122
_symmetry_cell_setting 'tetragonal'
loop_
_space_group_symop_operation_xyz
x,y,z
y,-x,-z
-x,-y,z
-y,x,-z
x,1/2-y,1/4-z
-x,1/2+y,1/4-z
-y,1/2-x,1/4+z
y,1/2+x,1/4+z
1/2+x,1/2+y,1/2+z
1/2+y,1/2-x,1/2-z
1/2-x,1/2-y,1/2+z
1/2-y,1/2+x,1/2-z
1/2+x,-y,3/4-z
1/2-x,y,3/4-z
1/2-y,-x,3/4+z
1/2+y,x,3/4+z
loop_
_atom_site_type_symbol
_atom_site_label
_atom_site_fract_x
_atom_site_fract_y
_atom_site_fract_z
Si Si1 0.856584 0.077961 0.872740
Si Si2 0.423264 0.729852 0.826044
Si Si3 0.975678 0.355611 0.232420
Si Si4 0.572345 0.250000 0.125000
Si Si5 0.430593 0.168967 0.327251
Si Si6 0.000000 0.000000 0.220010
Si Si7 0.000000 0.000000 0.500000
Si Si8 0.930019 0.684111 0.527344
O O1 0.750000 0.113201 0.875000
O O2 0.909702 0.167184 0.897820
O O3 0.854936 0.983955 0.912079
O O4 0.912267 0.045876 0.814779
O O5 0.461872 0.751782 0.759754
O O6 0.497690 0.683795 0.869416
O O7 0.330307 0.665389 0.816416
O O8 0.075664 0.390403 0.255940
O O9 0.641210 0.166128 0.142072
O O10 0.508387 0.231532 0.067911
O O11 0.474461 0.086200 0.290341
O O12 0.414545 0.256299 0.282566
O O13 0.079090 0.959603 0.262305
#
# Coordination Sequence:
#
# PCOD8312046 Si02
#       8
#    16  16  16   8  16   8   4  16
#     4  11  23  39  70 100 143 188 235 298 362 435
#     4  11  24  43  68 105 143 189 240 304 362 449
#     4   9  19  38  62  92 136 187 228 277 359 429
#     4  12  28  48  72 108 142 192 256 314 374 446
#     4  12  26  48  75 106 144 200 249 316 376 449
#     4  12  24  49  69 110 151 189 248 312 366 458
#     4  12  24  50  76  92 148 194 252 316 384 418
#     4  12  27  45  76 105 145 194 248 304 382 442
#
# _framework density 21.660536
#
# number of rings (size 3 to 8) (size 9 to 14) (size 15 to 20)
#    0.000    0.800    3.200    4.800    1.120    3.840 
#    1.440    0.000    0.000    0.000    0.000    0.000 
#    0.000    0.000    0.000    0.000    0.000    0.000 
#
# Total GULP energy -619499.339317 kJ/mol
# GULP energy per Si atom -12389.986786 kJ/mol
# Density = 2.161124 g / cm^3
# Si number density = 21.660536 Si / 1000 Ang^3
#
#
#
# Elastic Constant Matrix: (Units=GPa)
#
#
# Indices 1 2 3 4 5 6 
#
# 1 89.9073 13.2932 14.7747 0.0000 0.0000 0.0000
# 2 13.2932 89.9073 14.7747 0.0000 0.0000 0.0000
# 3 14.7747 14.7747 48.7737 0.0000 0.0000 0.0000
# 4 0.0000 0.0000 0.0000 43.3589 0.0000 0.0000
# 5 0.0000 0.0000 0.0000 0.0000 43.3589 0.0000
# 6 0.0000 0.0000 0.0000 0.0000 0.0000 2.4789
#
#
#
# Elastic Compliance Matrix: (Units=1/GPa)
#
#
# Indices 1 2 3 4 5 6 
#
# 1 0.011831 -0.001221 -0.003214 0.000000 0.000000 0.000000
# 2 -0.001221 0.011831 -0.003214 0.000000 0.000000 0.000000
# 3 -0.003214 -0.003214 0.022450 0.000000 0.000000 0.000000
# 4 0.000000 0.000000 0.000000 0.023063 0.000000 0.000000
# 5 0.000000 0.000000 0.000000 0.000000 0.023063 0.000000
# 6 0.000000 0.000000 0.000000 0.000000 0.000000 0.403410
#
#
# Mechanical properties :
#
#
# Convention : Reuss Voigt Hill
#
# Bulk Modulus (GPa) = 32.45266 34.91929 33.68598
# Shear Modulus (GPa) = 9.59290 30.22239 19.90764
#
# Velocity S-wave (km/s) = 2.10674 3.73939 3.03491
# Velocity P-wave (km/s) = 4.57523 5.89917 5.27887
#
# Compressibility (1/GPa) = 0.03081411
#
# Stress axis : x y z
#
# Youngs Moduli (GPa) = 84.52156 84.52156 44.54328
#
# Poissons Ratio (x) = 0.10321 0.14317
# Poissons Ratio (y) = 0.10321 0.14317
# Poissons Ratio (z) = 0.27166 0.27166
#
# Static dielectric constant tensor:
#      x y z
#    x 4.097950 0.000000 0.000000 
#    y 0.000000 4.097950 0.000000 
#    z 0.000000 0.000000 4.387590 
# 
# 
# High freq. dielectric constant tensor:
#      x y z
#    x 1.856900 0.000000 0.000000 
#    y 0.000000 1.856900 0.000000 
#    z 0.000000 0.000000 1.864040 
# 
# From -- ./inp_files/8081.got.cif
#   From: 2010.03.12/outbox.cif.g09.slc.cpg/sg122_5_cif.got.tgz:8081.got - 2010.04.06 16:17:16.
