data_PCOD8312327
_publ_section_title
;
Structure prediction by ZEFSAII (Michael W. Deem and Ramdas Pophale) SiO2 
 PCOD8312327
Probable space group: P 4/M M M
;
_chemical_formula_sum "Si O2"
_cell_formula_units_Z 64
_cell_length_a 14.047024
_cell_length_b 14.047024
_cell_length_c 20.775430
_cell_angle_alpha 90.000000
_cell_angle_beta 90.000000
_cell_angle_gamma 90.000000
_cell_volume 4099.384647
_symmetry_space_group_name_H-M "P 4/M M M"
_symmetry_group_IT_number 123
_symmetry_cell_setting 'tetragonal'
loop_
_space_group_symop_operation_xyz
x,y,z
-y,x,z
-x,-y,z
y,-x,z
x,-y,-z
-x,y,-z
y,x,-z
-y,-x,-z
-x,-y,-z
y,-x,-z
x,y,-z
-y,x,-z
-x,y,z
x,-y,z
-y,-x,z
y,x,z
loop_
_atom_site_type_symbol
_atom_site_label
_atom_site_fract_x
_atom_site_fract_y
_atom_site_fract_z
Si Si1 0.104104 0.612892 0.000000
Si Si2 0.886055 0.393299 0.861921
Si Si3 0.109184 0.390451 0.621967
Si Si4 0.234071 0.388772 0.500000
Si Si5 0.888256 0.265235 0.255339
O O1 0.155086 0.641438 0.932222
O O2 0.092431 0.500000 0.000000
O O3 0.000000 0.661251 0.000000
O O4 0.849433 0.500000 0.845864
O O5 0.850332 0.321955 0.807037
O O6 0.000000 0.394464 0.864794
O O7 0.126119 0.500000 0.641007
O O8 0.173556 0.359352 0.562240
O O9 0.138084 0.327511 0.682752
O O10 0.000000 0.373479 0.601938
O O11 0.258296 0.500000 0.500000
O O12 0.333199 0.333199 0.500000
O O13 0.835405 0.164596 0.259376
O O14 0.000000 0.244096 0.251186
#
# Coordination Sequence:
#
# PCOD8312327 Si02
#       5
#     8  16  16   8  16
#     4   7  10  18  35  58  79  97 121 159 209 255
#     4   8  13  23  40  60  79  99 127 167 212 249
#     4   9  17  30  48  67  83 101 132 176 219 249
#     4  10  19  30  45  65  90 116 137 159 192 241
#     4  10  19  29  41  58  82 112 143 172 202 240
#
# _framework density 15.6121
#
# number of rings (size 3 to 8) (size 9 to 14) (size 15 to 20)
#    0.000    3.125    0.000    3.375    0.000    4.875 
#    0.000    0.625    0.000    0.000    0.000    0.000 
#    0.000   18.500    0.000    0.000    0.000   28.000 
#
# Total GULP energy -793057.141024 kJ/mol
# GULP energy per Si atom -12391.517829 kJ/mol
# Density = 1.557657 g / cm^3
# Si number density = 15.612100 Si / 1000 Ang^3
#
#
#
# Elastic Constant Matrix: (Units=GPa)
#
#
# Indices 1 2 3 4 5 6 
#
# 1 55.6230 39.3013 51.8791 0.0000 0.0000 0.0000
# 2 39.3013 55.6230 51.8791 0.0000 0.0000 0.0000
# 3 51.8791 51.8791 148.6163 0.0000 0.0000 0.0000
# 4 0.0000 0.0000 0.0000 7.3497 0.0000 0.0000
# 5 0.0000 0.0000 0.0000 0.0000 7.3497 0.0000
# 6 0.0000 0.0000 0.0000 0.0000 0.0000 20.5890
#
#
#
# Elastic Compliance Matrix: (Units=1/GPa)
#
#
# Indices 1 2 3 4 5 6 
#
# 1 0.039151 -0.022117 -0.005946 0.000000 0.000000 0.000000
# 2 -0.022117 0.039151 -0.005946 0.000000 0.000000 0.000000
# 3 -0.005946 -0.005946 0.010880 0.000000 0.000000 0.000000
# 4 0.000000 0.000000 0.000000 0.136061 0.000000 0.000000
# 5 0.000000 0.000000 0.000000 0.000000 0.136061 0.000000
# 6 0.000000 0.000000 0.000000 0.000000 0.000000 0.048570
#
#
# Mechanical properties :
#
#
# Convention : Reuss Voigt Hill
#
# Bulk Modulus (GPa) = 47.25084 60.66459 53.95771
# Shear Modulus (GPa) = 10.31040 14.84452 12.57746
#
# Velocity S-wave (km/s) = 2.57263 3.08691 2.84143
# Velocity P-wave (km/s) = 6.25746 7.18659 6.73806
#
# Compressibility (1/GPa) = 0.02116365
#
# Stress axis : x y z
#
# Youngs Moduli (GPa) = 25.54198 25.54198 91.90917
#
# Poissons Ratio (x) = 0.56490 0.54653
# Poissons Ratio (y) = 0.56490 0.54653
# Poissons Ratio (z) = 0.15188 0.15188
#
# Static dielectric constant tensor:
#      x y z
#    x 2.655080 0.000000 0.000000 
#    y 0.000000 2.655080 0.000000 
#    z 0.000000 0.000000 3.422010 
# 
# 
# High freq. dielectric constant tensor:
#      x y z
#    x 1.564240 0.000000 0.000000 
#    y 0.000000 1.564240 0.000000 
#    z 0.000000 0.000000 1.624960 
# 
# From -- ./inp_files/6215.got.cif
#   From: 2010.03.12/outbox.cif.g09.slc.cpg/sg123_4_cif.got.tgz:6215.got - 2010.04.06 16:26:55.
