data_PCOD8312842
_publ_section_title
;
Structure prediction by ZEFSAII (Michael W. Deem and Ramdas Pophale) SiO2 
 PCOD8312842
Probable space group: P 4/M M M
;
_chemical_formula_sum "Si O2"
_cell_formula_units_Z 128
_cell_length_a 17.350688
_cell_length_b 17.350688
_cell_length_c 24.664196
_cell_angle_alpha 90.000000
_cell_angle_beta 90.000000
_cell_angle_gamma 90.000000
_cell_volume 7425.066775
_symmetry_space_group_name_H-M "P 4/M M M"
_symmetry_group_IT_number 123
_symmetry_cell_setting 'tetragonal'
loop_
_space_group_symop_operation_xyz
x,y,z
-y,x,z
-x,-y,z
y,-x,z
x,-y,-z
-x,y,-z
y,x,-z
-y,-x,-z
-x,-y,-z
y,-x,-z
x,y,-z
-y,x,-z
-x,y,z
x,-y,z
-y,-x,z
y,x,z
loop_
_atom_site_type_symbol
_atom_site_label
_atom_site_fract_x
_atom_site_fract_y
_atom_site_fract_z
Si Si1 0.825418 0.696284 0.747251
Si Si2 0.295901 0.167841 0.560500
Si Si3 0.209775 0.913273 0.062396
Si Si4 0.089222 0.780575 0.657265
Si Si5 0.291868 0.586098 0.418595
Si Si6 0.286040 0.588316 0.062010
Si Si7 0.817733 0.312183 0.868816
Si Si8 0.293977 0.414895 0.291423
O O1 0.760424 0.760424 0.748106
O O2 0.895530 0.729399 0.711234
O O3 0.849999 0.673821 0.808256
O O4 0.790391 0.619509 0.720455
O O5 0.290291 0.131600 0.500000
O O6 0.236114 0.236114 0.569233
O O7 0.274847 0.103507 0.605154
O O8 0.379783 0.206747 0.568683
O O9 0.136542 0.863459 0.080529
O O10 0.285202 0.890499 0.096067
O O11 0.186555 0.000000 0.075430
O O12 0.230513 0.900005 0.000000
O O13 0.142943 0.857058 0.655579
O O14 0.000000 0.806748 0.657334
O O15 0.297143 0.500000 0.443820
O O16 0.359203 0.640798 0.443827
O O17 0.304646 0.581235 0.355072
O O18 0.307399 0.500000 0.072705
O O19 0.362662 0.637339 0.073843
O O20 0.217789 0.611622 0.103500
O O21 0.257990 0.601701 0.000000
O O22 0.752885 0.247116 0.869870
O O23 0.300508 0.500000 0.265522
O O24 0.361253 0.361253 0.265607
#
# Coordination Sequence:
#
# PCOD8312842 Si02
#       8
#    16  16  16  16  16  16  16  16
#     4   9  17  31  49  68  92 126 165 199 232 279
#     4   9  17  31  51  72  96 131 172 203 231 280
#     4   9  17  29  46  69  96 123 150 183 225 274
#     4  10  20  35  55  78 102 125 152 190 239 294
#     4   9  16  27  45  70 100 132 166 203 242 282
#     4   9  17  29  46  70 100 132 167 209 255 299
#     4   9  17  29  47  68  91 124 166 203 234 274
#     4   9  16  27  45  68  96 128 160 196 236 275
#
# _framework density 17.238900999999998
#
# number of rings (size 3 to 8) (size 9 to 14) (size 15 to 20)
#    0.000    2.875    1.250    0.375    0.000    3.625 
#    0.000    2.500    0.000    1.875    0.000   14.875 
#    0.000    0.000    0.000    0.000    0.000    0.000 
#
# Total GULP energy -1586378.186431 kJ/mol
# GULP energy per Si atom -12393.579581 kJ/mol
# Density = 1.719966 g / cm^3
# Si number density = 17.238901 Si / 1000 Ang^3
#
#
#
# Elastic Constant Matrix: (Units=GPa)
#
#
# Indices 1 2 3 4 5 6 
#
# 1 75.5171 58.8482 40.0827 0.0000 0.0000 0.0000
# 2 58.8482 75.5171 40.0827 0.0000 0.0000 0.0000
# 3 40.0827 40.0827 94.1146 0.0000 0.0000 0.0000
# 4 0.0000 0.0000 0.0000 8.9790 0.0000 0.0000
# 5 0.0000 0.0000 0.0000 0.0000 8.9790 0.0000
# 6 0.0000 0.0000 0.0000 0.0000 0.0000 16.4580
#
#
#
# Elastic Compliance Matrix: (Units=1/GPa)
#
#
# Indices 1 2 3 4 5 6 
#
# 1 0.034985 -0.025007 -0.004249 0.000000 0.000000 0.000000
# 2 -0.025007 0.034985 -0.004249 0.000000 0.000000 0.000000
# 3 -0.004249 -0.004249 0.014245 0.000000 0.000000 0.000000
# 4 0.000000 0.000000 0.000000 0.111371 0.000000 0.000000
# 5 0.000000 0.000000 0.000000 0.000000 0.111371 0.000000
# 6 0.000000 0.000000 0.000000 0.000000 0.000000 0.060761
#
#
# Mechanical properties :
#
#
# Convention : Reuss Voigt Hill
#
# Bulk Modulus (GPa) = 58.13060 58.13063 58.13062
# Shear Modulus (GPa) = 11.35169 13.95889 12.65529
#
# Velocity S-wave (km/s) = 2.56890 2.84867 2.71239
# Velocity P-wave (km/s) = 6.52631 6.67935 6.60327
#
# Compressibility (1/GPa) = 0.01720264
#
# Stress axis : x y z
#
# Youngs Moduli (GPa) = 28.58382 28.58382 70.20038
#
# Poissons Ratio (x) = 0.71480 0.29831
# Poissons Ratio (y) = 0.71480 0.29831
# Poissons Ratio (z) = 0.12146 0.12146
#
# Static dielectric constant tensor:
#      x y z
#    x 3.100930 0.000000 0.000000 
#    y 0.000000 3.100930 0.000000 
#    z 0.000000 0.000000 3.378400 
# 
# 
# High freq. dielectric constant tensor:
#      x y z
#    x 1.640350 0.000000 0.000000 
#    y 0.000000 1.640350 0.000000 
#    z 0.000000 0.000000 1.671150 
# 
# From -- ./inp_files/7684.got.cif
#   From: 2010.03.12/outbox.cif.g09.slc.cpg/sg123_4_cif.got.tgz:7684.got - 2010.04.06 16:26:55.
