data_PCOD8312828
_publ_section_title
;
Structure prediction by ZEFSAII (Michael W. Deem and Ramdas Pophale) SiO2 
 PCOD8312828
Probable space group: P 4/M M M
;
_chemical_formula_sum "Si O2"
_cell_formula_units_Z 64
_cell_length_a 12.796666
_cell_length_b 12.796666
_cell_length_c 22.103432
_cell_angle_alpha 90.000000
_cell_angle_beta 90.000000
_cell_angle_gamma 90.000000
_cell_volume 3619.540008
_symmetry_space_group_name_H-M "P 4/M M M"
_symmetry_group_IT_number 123
_symmetry_cell_setting 'tetragonal'
loop_
_space_group_symop_operation_xyz
x,y,z
-y,x,z
-x,-y,z
y,-x,z
x,-y,-z
-x,y,-z
y,x,-z
-y,-x,-z
-x,-y,-z
y,-x,-z
x,y,-z
-y,x,-z
-x,y,z
x,-y,z
-y,-x,z
y,x,z
loop_
_atom_site_type_symbol
_atom_site_label
_atom_site_fract_x
_atom_site_fract_y
_atom_site_fract_z
Si Si1 0.211627 0.378712 0.245680
Si Si2 0.706765 0.121152 0.638245
Si Si3 0.712790 0.885611 0.000000
Si Si4 0.500000 0.876091 0.568269
Si Si5 0.382086 0.212895 0.889635
O O1 0.223292 0.500000 0.262260
O O2 0.326022 0.326022 0.251829
O O3 0.130913 0.322569 0.290979
O O4 0.167169 0.361817 0.177750
O O5 0.807055 0.192946 0.621540
O O6 0.606281 0.162734 0.600651
O O7 0.733947 0.000000 0.623870
O O8 0.642741 0.873922 0.060207
O O9 0.809214 0.809214 0.000000
O O10 0.761287 0.000000 0.000000
O O11 0.500000 0.832670 0.500000
O O12 0.500000 0.000000 0.569991
O O13 0.500000 0.250893 0.895740
O O14 0.314610 0.314610 0.903297
#
# Coordination Sequence:
#
# PCOD8312828 Si02
#       5
#    16  16   8   8  16
#     4   9  17  30  49  74 103 135 170 209 253 301
#     4  10  20  34  53  78 108 140 176 216 258 306
#     4  10  21  36  50  66  90 120 161 210 256 304
#     4   9  18  34  56  79 103 134 172 211 251 299
#     4   9  18  31  48  72 101 131 164 202 246 298
#
# _framework density 17.681804
#
# number of rings (size 3 to 8) (size 9 to 14) (size 15 to 20)
#    0.000    2.625    1.250    0.375    0.000    3.375 
#    0.000    5.000    0.000    2.625    0.000   11.375 
#    0.000    0.000    0.000    0.000    0.000    0.000 
#
# Total GULP energy -793336.224043 kJ/mol
# GULP energy per Si atom -12395.878501 kJ/mol
# Density = 1.764156 g / cm^3
# Si number density = 17.681804 Si / 1000 Ang^3
#
#
#
# Elastic Constant Matrix: (Units=GPa)
#
#
# Indices 1 2 3 4 5 6 
#
# 1 92.8127 37.6879 39.7835 0.0000 0.0000 0.0000
# 2 37.6879 92.8127 39.7835 0.0000 0.0000 0.0000
# 3 39.7835 39.7835 109.3302 0.0000 0.0000 0.0000
# 4 0.0000 0.0000 0.0000 20.0506 0.0000 0.0000
# 5 0.0000 0.0000 0.0000 0.0000 20.0506 0.0000
# 6 0.0000 0.0000 0.0000 0.0000 0.0000 14.9273
#
#
#
# Elastic Compliance Matrix: (Units=1/GPa)
#
#
# Indices 1 2 3 4 5 6 
#
# 1 0.013994 -0.004147 -0.003583 0.000000 0.000000 0.000000
# 2 -0.004147 0.013994 -0.003583 0.000000 0.000000 0.000000
# 3 -0.003583 -0.003583 0.011754 0.000000 0.000000 0.000000
# 4 0.000000 0.000000 0.000000 0.049874 0.000000 0.000000
# 5 0.000000 0.000000 0.000000 0.000000 0.049874 0.000000
# 6 0.000000 0.000000 0.000000 0.000000 0.000000 0.066991
#
#
# Mechanical properties :
#
#
# Convention : Reuss Voigt Hill
#
# Bulk Modulus (GPa) = 58.42434 58.82948 58.62691
# Shear Modulus (GPa) = 21.29345 22.85239 22.07292
#
# Velocity S-wave (km/s) = 3.47401 3.59893 3.53702
# Velocity P-wave (km/s) = 7.01466 7.11429 7.06465
#
# Compressibility (1/GPa) = 0.01711615
#
# Stress axis : x y z
#
# Youngs Moduli (GPa) = 71.45850 71.45850 85.07394
#
# Poissons Ratio (x) = 0.29630 0.30485
# Poissons Ratio (y) = 0.29630 0.30485
# Poissons Ratio (z) = 0.25606 0.25606
#
# Static dielectric constant tensor:
#      x y z
#    x 3.106460 0.000000 0.000000 
#    y 0.000000 3.106460 0.000000 
#    z 0.000000 0.000000 3.613560 
# 
# 
# High freq. dielectric constant tensor:
#      x y z
#    x 1.667530 0.000000 0.000000 
#    y 0.000000 1.667530 0.000000 
#    z 0.000000 0.000000 1.696820 
# 
# From -- ./inp_files/7039.got.cif
#   From: 2010.03.12/outbox.cif.g09.slc.cpg/sg123_4_cif.got.tgz:7039.got - 2010.04.06 16:26:55.
