data_PCOD8312072
_publ_section_title
;
Structure prediction by ZEFSAII (Michael W. Deem and Ramdas Pophale) SiO2 
 PCOD8312072
Probable space group: I -4 2 D
;
_chemical_formula_sum "Si O2"
_cell_formula_units_Z 72
_cell_length_a 10.594546
_cell_length_b 10.594546
_cell_length_c 30.132011
_cell_angle_alpha 90.000000
_cell_angle_beta 90.000000
_cell_angle_gamma 90.000000
_cell_volume 3382.149645
_symmetry_space_group_name_H-M "I -4 2 D"
_symmetry_group_IT_number 122
_symmetry_cell_setting 'tetragonal'
loop_
_space_group_symop_operation_xyz
x,y,z
y,-x,-z
-x,-y,z
-y,x,-z
x,1/2-y,1/4-z
-x,1/2+y,1/4-z
-y,1/2-x,1/4+z
y,1/2+x,1/4+z
1/2+x,1/2+y,1/2+z
1/2+y,1/2-x,1/2-z
1/2-x,1/2-y,1/2+z
1/2-y,1/2+x,1/2-z
1/2+x,-y,3/4-z
1/2-x,y,3/4-z
1/2-y,-x,3/4+z
1/2+y,x,3/4+z
loop_
_atom_site_type_symbol
_atom_site_label
_atom_site_fract_x
_atom_site_fract_y
_atom_site_fract_z
Si Si1 0.143110 0.965302 0.063266
Si Si2 0.500000 0.500000 0.303040
Si Si3 0.123463 0.632771 0.771329
Si Si4 0.627393 0.266939 0.738143
Si Si5 0.776701 0.890654 0.143868
O O1 0.149515 0.813917 0.056858
O O2 0.233383 0.009179 0.103568
O O3 0.000000 0.000000 0.074600
O O4 0.190925 0.028234 0.017834
O O5 0.408104 0.417153 0.272442
O O6 0.410583 0.589669 0.331967
O O7 0.162718 0.486960 0.764455
O O8 0.239535 0.726296 0.763290
O O9 0.080835 0.661242 0.822069
O O10 0.769451 0.750000 0.125000
#
# Coordination Sequence:
#
# PCOD8312072 Si02
#       5
#    16   8  16  16  16
#     4  12  23  40  73 109 144 175 237 307 362 433
#     4  12  26  40  72 103 138 190 229 292 366 446
#     4  11  25  48  67  91 138 196 234 291 370 435
#     4  12  23  44  71 104 138 189 232 291 371 447
#     4  12  24  43  68 104 138 179 239 305 361 431
#
# _framework density 21.288236999999999
#
# number of rings (size 3 to 8) (size 9 to 14) (size 15 to 20)
#    0.000    0.222    7.778    2.667    0.000    0.000 
#    0.000    6.667    0.000    0.000    0.000    0.000 
#    0.000    0.000    0.000    0.000    0.000    0.000 
#
# Total GULP energy -446439.657556 kJ/mol
# GULP energy per Si atom -12401.101599 kJ/mol
# Density = 2.123978 g / cm^3
# Si number density = 21.288237 Si / 1000 Ang^3
#
#
#
# Elastic Constant Matrix: (Units=GPa)
#
#
# Indices 1 2 3 4 5 6 
#
# 1 113.3821 25.3615 48.7160 0.0000 0.0000 0.0000
# 2 25.3615 113.3821 48.7160 0.0000 0.0000 0.0000
# 3 48.7160 48.7160 129.9401 0.0000 0.0000 0.0000
# 4 0.0000 0.0000 0.0000 41.2878 0.0000 0.0000
# 5 0.0000 0.0000 0.0000 0.0000 41.2878 0.0000
# 6 0.0000 0.0000 0.0000 0.0000 0.0000 28.2064
#
#
#
# Elastic Compliance Matrix: (Units=1/GPa)
#
#
# Indices 1 2 3 4 5 6 
#
# 1 0.010572 -0.000789 -0.003668 0.000000 0.000000 0.000000
# 2 -0.000789 0.010572 -0.003668 0.000000 0.000000 0.000000
# 3 -0.003668 -0.003668 0.010446 0.000000 0.000000 0.000000
# 4 0.000000 0.000000 0.000000 0.024220 0.000000 0.000000
# 5 0.000000 0.000000 0.000000 0.000000 0.024220 0.000000
# 6 0.000000 0.000000 0.000000 0.000000 0.000000 0.035453
#
#
# Mechanical properties :
#
#
# Convention : Reuss Voigt Hill
#
# Bulk Modulus (GPa) = 65.18388 66.92123 66.05255
# Shear Modulus (GPa) = 36.53726 37.75046 37.14386
#
# Velocity S-wave (km/s) = 4.14733 4.21563 4.18162
# Velocity P-wave (km/s) = 7.32257 7.42963 7.37629
#
# Compressibility (1/GPa) = 0.01534122
#
# Stress axis : x y z
#
# Youngs Moduli (GPa) = 94.58835 94.58835 95.72961
#
# Poissons Ratio (x) = 0.07462 0.35112
# Poissons Ratio (y) = 0.07462 0.35112
# Poissons Ratio (z) = 0.34694 0.34694
#
# Static dielectric constant tensor:
#      x y z
#    x 3.863150 0.000000 0.000000 
#    y 0.000000 3.863150 0.000000 
#    z 0.000000 0.000000 3.940470 
# 
# 
# High freq. dielectric constant tensor:
#      x y z
#    x 1.835010 0.000000 0.000000 
#    y 0.000000 1.835010 0.000000 
#    z 0.000000 0.000000 1.830320 
# 
# From -- ./inp_files/8653.got.cif
#   From: 2010.03.12/outbox.cif.g09.slc.cpg/sg122_5_cif.got.tgz:8653.got - 2010.04.06 16:17:16.
