data_PCOD8312424
_publ_section_title
;
Structure prediction by ZEFSAII (Michael W. Deem and Ramdas Pophale) SiO2 
 PCOD8312424
Probable space group: P 4/M M M
;
_chemical_formula_sum "Si O2"
_cell_formula_units_Z 104
_cell_length_a 13.817237
_cell_length_b 13.817237
_cell_length_c 33.100166
_cell_angle_alpha 90.000000
_cell_angle_beta 90.000000
_cell_angle_gamma 90.000000
_cell_volume 6319.352560
_symmetry_space_group_name_H-M "P 4/M M M"
_symmetry_group_IT_number 123
_symmetry_cell_setting 'tetragonal'
loop_
_space_group_symop_operation_xyz
x,y,z
-y,x,z
-x,-y,z
y,-x,z
x,-y,-z
-x,y,-z
y,x,-z
-y,-x,-z
-x,-y,-z
y,-x,-z
x,y,-z
-y,x,-z
-x,y,z
x,-y,z
-y,-x,z
y,x,z
loop_
_atom_site_type_symbol
_atom_site_label
_atom_site_fract_x
_atom_site_fract_y
_atom_site_fract_z
Si Si1 0.888954 0.267524 0.953119
Si Si2 0.767954 0.611206 0.258922
Si Si3 0.388875 0.767492 0.349676
Si Si4 0.614396 0.230639 0.500000
Si Si5 0.107220 0.614508 0.184915
Si Si6 0.614345 0.228414 0.107754
Si Si7 0.107179 0.385290 0.423589
O O1 0.831919 0.168082 0.943437
O O2 0.841532 0.356768 0.929156
O O3 0.000000 0.252795 0.939770
O O4 0.881402 0.294740 0.000000
O O5 0.741518 0.500000 0.250209
O O6 0.669198 0.669198 0.252428
O O7 0.809030 0.625266 0.304339
O O8 0.848832 0.648931 0.227731
O O9 0.500000 0.741691 0.358499
O O10 0.331869 0.668132 0.355778
O O11 0.350275 0.847076 0.381217
O O12 0.500000 0.248750 0.500000
O O13 0.665019 0.334982 0.500000
O O14 0.650247 0.171623 0.460924
O O15 0.098481 0.500000 0.183718
O O16 0.175998 0.649140 0.148728
O O17 0.000000 0.660483 0.180336
O O18 0.500000 0.248232 0.106505
O O19 0.668734 0.331267 0.104533
O O20 0.099499 0.500000 0.424685
O O21 0.000000 0.339727 0.427170
#
# Coordination Sequence:
#
# PCOD8312424 Si02
#       7
#    16  16  16   8  16  16  16
#     4   9  18  32  50  73  99 126 158 196 237 281
#     4   9  17  28  42  62  89 120 152 184 218 259
#     4   9  17  28  42  62  89 119 149 181 216 258
#     4  10  19  30  45  65  90 118 145 173 206 249
#     4   9  17  29  45  64  86 114 148 185 227 272
#     4  10  20  33  49  69  94 124 158 195 234 279
#     4   9  17  29  44  61  83 113 147 181 217 254
#
# _framework density 16.457381999999999
#
# number of rings (size 3 to 8) (size 9 to 14) (size 15 to 20)
#    0.000    2.769    0.000    1.615    0.000    3.462 
#    0.000    6.154    0.000    5.538    0.000    2.154 
#    0.000   15.385    0.000   13.538    0.000    1.231 
#
# Total GULP energy -1289402.853781 kJ/mol
# GULP energy per Si atom -12398.104363 kJ/mol
# Density = 1.641992 g / cm^3
# Si number density = 16.457382 Si / 1000 Ang^3
#
#
#
# Elastic Constant Matrix: (Units=GPa)
#
#
# Indices 1 2 3 4 5 6 
#
# 1 87.1465 43.6933 49.7628 0.0000 0.0000 0.0000
# 2 43.6933 87.1453 49.7624 0.0000 0.0000 0.0000
# 3 49.7628 49.7624 107.9760 0.0000 0.0000 0.0000
# 4 0.0000 0.0000 0.0000 23.4589 0.0000 0.0000
# 5 0.0000 0.0000 0.0000 0.0000 23.4591 0.0000
# 6 0.0000 0.0000 0.0000 0.0000 0.0000 8.1866
#
#
#
# Elastic Compliance Matrix: (Units=1/GPa)
#
#
# Indices 1 2 3 4 5 6 
#
# 1 0.017391 -0.005622 -0.005424 0.000000 0.000000 0.000000
# 2 -0.005622 0.017391 -0.005424 0.000000 0.000000 0.000000
# 3 -0.005424 -0.005424 0.014261 0.000000 0.000000 0.000000
# 4 0.000000 0.000000 0.000000 0.042628 0.000000 0.000000
# 5 0.000000 0.000000 0.000000 0.000000 0.042627 0.000000
# 6 0.000000 0.000000 0.000000 0.000000 0.000000 0.122151
#
#
# Mechanical properties :
#
#
# Convention : Reuss Voigt Hill
#
# Bulk Modulus (GPa) = 62.10106 63.18942 62.64524
# Shear Modulus (GPa) = 16.96312 20.29086 18.62699
#
# Velocity S-wave (km/s) = 3.21398 3.51512 3.36792
# Velocity P-wave (km/s) = 7.18257 7.41309 7.29874
#
# Compressibility (1/GPa) = 0.01610279
#
# Stress axis : x y z
#
# Youngs Moduli (GPa) = 57.50095 57.50016 70.12315
#
# Poissons Ratio (x) = 0.32329 0.38033
# Poissons Ratio (y) = 0.32330 0.38034
# Poissons Ratio (z) = 0.31187 0.31187
#
# Static dielectric constant tensor:
#      x y z
#    x 2.979710 0.000000 0.000000 
#    y 0.000000 2.979710 0.000000 
#    z 0.000000 0.000000 3.381360 
# 
# 
# High freq. dielectric constant tensor:
#      x y z
#    x 1.611600 0.000000 0.000000 
#    y 0.000000 1.611600 0.000000 
#    z 0.000000 0.000000 1.651930 
# 
# From -- ./inp_files/8733.got.cif
#   From: 2010.03.12/outbox.cif.g09.slc.cpg/sg123_5_cif.got.tgz:8733.got - 2010.04.06 16:26:55.
