data_PCOD8312465
_publ_section_title
;
Structure prediction by ZEFSAII (Michael W. Deem and Ramdas Pophale) SiO2 
 PCOD8312465
Probable space group: P 4/M M M
;
_chemical_formula_sum "Si O2"
_cell_formula_units_Z 72
_cell_length_a 18.196890
_cell_length_b 18.196890
_cell_length_c 13.390526
_cell_angle_alpha 90.000000
_cell_angle_beta 90.000000
_cell_angle_gamma 90.000000
_cell_volume 4433.962101
_symmetry_space_group_name_H-M "P 4/M M M"
_symmetry_group_IT_number 123
_symmetry_cell_setting 'tetragonal'
loop_
_space_group_symop_operation_xyz
x,y,z
-y,x,z
-x,-y,z
y,-x,z
x,-y,-z
-x,y,-z
y,x,-z
-y,-x,-z
-x,-y,-z
y,-x,-z
x,y,-z
-y,x,-z
-x,y,z
x,-y,z
-y,-x,z
y,x,z
loop_
_atom_site_type_symbol
_atom_site_label
_atom_site_fract_x
_atom_site_fract_y
_atom_site_fract_z
Si Si1 0.581773 0.697930 0.616915
Si Si2 0.194496 0.687498 0.884131
Si Si3 0.412320 0.000000 0.614530
Si Si4 0.807902 0.079870 0.118564
Si Si5 0.414378 0.848314 0.712710
O O1 0.580014 0.685679 0.500000
O O2 0.500000 0.682106 0.661666
O O3 0.640946 0.640946 0.664854
O O4 0.604319 0.782637 0.635831
O O5 0.274133 0.725868 0.866370
O O6 0.131732 0.742609 0.846055
O O7 0.179937 0.615755 0.819023
O O8 0.185732 0.666262 0.000000
O O9 0.382688 0.073841 0.670939
O O10 0.500000 0.000000 0.613419
O O11 0.383373 0.000000 0.500000
O O12 0.885396 0.114605 0.153157
O O13 0.799506 0.000000 0.168430
O O14 0.805758 0.074609 0.000000
O O15 0.500000 0.859036 0.728926
#
# Coordination Sequence:
#
# PCOD8312465 Si02
#       5
#    16  16   8  16  16
#     4   9  17  29  46  68  92 116 143 179 225 276
#     4   9  18  31  45  62  88 121 151 182 224 269
#     4   9  18  32  47  65  91 119 149 188 236 284
#     4   8  14  24  38  56  78 106 136 167 208 253
#     4  10  19  30  46  66  87 117 155 190 225 265
#
# _framework density 16.238298
#
# number of rings (size 3 to 8) (size 9 to 14) (size 15 to 20)
#    0.000    3.000    0.000    2.667    1.556    3.556 
#    0.000    2.222    0.000    2.000    0.000    0.000 
#    0.000    0.000    0.000   20.667    0.000   10.000 
#
# Total GULP energy -891997.795582 kJ/mol
# GULP energy per Si atom -12388.858272 kJ/mol
# Density = 1.620134 g / cm^3
# Si number density = 16.238298 Si / 1000 Ang^3
#
#
#
# Elastic Constant Matrix: (Units=GPa)
#
#
# Indices 1 2 3 4 5 6 
#
# 1 73.7997 44.6832 24.8414 0.0000 0.0000 0.0000
# 2 44.6832 73.7997 24.8414 0.0000 0.0000 0.0000
# 3 24.8414 24.8414 58.3327 0.0000 0.0000 0.0000
# 4 0.0000 0.0000 0.0000 19.7836 0.0000 0.0000
# 5 0.0000 0.0000 0.0000 0.0000 19.7836 0.0000
# 6 0.0000 0.0000 0.0000 0.0000 0.0000 15.6679
#
#
#
# Elastic Compliance Matrix: (Units=1/GPa)
#
#
# Indices 1 2 3 4 5 6 
#
# 1 0.022310 -0.012035 -0.004376 0.000000 0.000000 0.000000
# 2 -0.012035 0.022310 -0.004376 0.000000 0.000000 0.000000
# 3 -0.004376 -0.004376 0.020870 0.000000 0.000000 0.000000
# 4 0.000000 0.000000 0.000000 0.050547 0.000000 0.000000
# 5 0.000000 0.000000 0.000000 0.000000 0.050547 0.000000
# 6 0.000000 0.000000 0.000000 0.000000 0.000000 0.063825
#
#
# Mechanical properties :
#
#
# Convention : Reuss Voigt Hill
#
# Bulk Modulus (GPa) = 41.81122 43.85158 42.83140
# Shear Modulus (GPa) = 17.86017 18.48477 18.17247
#
# Velocity S-wave (km/s) = 3.32004 3.37760 3.34894
# Velocity P-wave (km/s) = 6.36406 6.50189 6.43334
#
# Compressibility (1/GPa) = 0.02391703
#
# Stress axis : x y z
#
# Youngs Moduli (GPa) = 44.82334 44.82334 47.91607
#
# Poissons Ratio (x) = 0.53945 0.20966
# Poissons Ratio (y) = 0.53945 0.20966
# Poissons Ratio (z) = 0.19613 0.19613
#
# Static dielectric constant tensor:
#      x y z
#    x 3.270900 0.000000 0.000000 
#    y 0.000000 3.270900 0.000000 
#    z 0.000000 0.000000 2.753890 
# 
# 
# High freq. dielectric constant tensor:
#      x y z
#    x 1.621770 0.000000 0.000000 
#    y 0.000000 1.621770 0.000000 
#    z 0.000000 0.000000 1.587810 
# 
# From -- ./inp_files/2729.got.cif
#   From: 2010.03.12/outbox.cif.g09.slc.cpg/sg123_2_cif.got.tgz:2729.got - 2010.04.06 16:26:55.
