data_PCOD8312419
_publ_section_title
;
Structure prediction by ZEFSAII (Michael W. Deem and Ramdas Pophale) SiO2 
 PCOD8312419
Probable space group: P 4/M M M
;
_chemical_formula_sum "Si O2"
_cell_formula_units_Z 88
_cell_length_a 14.249400
_cell_length_b 14.249400
_cell_length_c 28.163500
_cell_angle_alpha 90.000000
_cell_angle_beta 90.000000
_cell_angle_gamma 90.000000
_cell_volume 5718.469133
_symmetry_space_group_name_H-M "P 4/M M M"
_symmetry_group_IT_number 123
_symmetry_cell_setting 'tetragonal'
loop_
_space_group_symop_operation_xyz
x,y,z
-y,x,z
-x,-y,z
y,-x,z
x,-y,-z
-x,y,-z
y,x,-z
-y,-x,-z
-x,-y,-z
y,-x,-z
x,y,-z
-y,x,-z
-x,y,z
x,-y,z
-y,-x,z
y,x,z
loop_
_atom_site_type_symbol
_atom_site_label
_atom_site_fract_x
_atom_site_fract_y
_atom_site_fract_z
Si Si1 0.608083 0.757765 0.868321
Si Si2 0.611332 0.104319 0.052495
Si Si3 0.111070 0.733498 0.411992
Si Si4 0.606688 0.108576 0.677037
Si Si5 0.110751 0.393992 0.500000
Si Si6 0.240999 0.607054 0.761844
O O1 0.500000 0.738729 0.879653
O O2 0.658225 0.658225 0.873737
O O3 0.652906 0.829858 0.906226
O O4 0.623065 0.798526 0.815182
O O5 0.500000 0.100339 0.057128
O O6 0.652602 0.000000 0.059781
O O7 0.639676 0.142028 0.000000
O O8 0.169540 0.830461 0.414573
O O9 0.137090 0.678670 0.364062
O O10 0.143218 0.664265 0.454072
O O11 0.000000 0.757844 0.415162
O O12 0.500000 0.133527 0.661240
O O13 0.636449 0.160684 0.725095
O O14 0.615135 0.000000 0.688962
O O15 0.154357 0.500000 0.500000
O O16 0.000000 0.404492 0.500000
O O17 0.271844 0.500000 0.754659
O O18 0.332968 0.667033 0.751523
#
# Coordination Sequence:
#
# PCOD8312419 Si02
#       6
#    16  16  16  16   8  16
#     4   9  17  27  39  57  81 109 138 166 198 239
#     4   8  14  25  40  56  74  98 129 165 203 239
#     4  10  19  30  45  65  90 118 144 171 205 248
#     4   9  17  29  45  64  84 107 138 178 220 253
#     4   9  17  30  47  65  85 109 139 175 209 238
#     4   9  17  28  41  58  81 108 138 171 205 244
#
# _framework density 15.388733
#
# number of rings (size 3 to 8) (size 9 to 14) (size 15 to 20)
#    0.000    3.000    0.000    1.909    0.000    3.818 
#    0.000    5.455    0.000    1.636    0.000    2.545 
#    0.000   14.182    0.000    6.000    0.000    4.909 
#
# Total GULP energy -1090741.633881 kJ/mol
# GULP energy per Si atom -12394.791294 kJ/mol
# Density = 1.535371 g / cm^3
# Si number density = 15.388733 Si / 1000 Ang^3
#
#
#
# Elastic Constant Matrix: (Units=GPa)
#
#
# Indices 1 2 3 4 5 6 
#
# 1 65.9976 40.5081 56.0644 0.0000 0.0000 0.0000
# 2 40.5081 65.9976 56.0644 0.0000 0.0000 0.0000
# 3 56.0644 56.0644 129.6512 0.0000 0.0000 0.0000
# 4 0.0000 0.0000 0.0000 22.0917 0.0000 0.0000
# 5 0.0000 0.0000 0.0000 0.0000 22.0917 0.0000
# 6 0.0000 0.0000 0.0000 0.0000 0.0000 18.0198
#
#
#
# Elastic Compliance Matrix: (Units=1/GPa)
#
#
# Indices 1 2 3 4 5 6 
#
# 1 0.028234 -0.010998 -0.007453 0.000000 0.000000 0.000000
# 2 -0.010998 0.028234 -0.007453 0.000000 0.000000 0.000000
# 3 -0.007453 -0.007453 0.014159 0.000000 0.000000 0.000000
# 4 0.000000 0.000000 0.000000 0.045266 0.000000 0.000000
# 5 0.000000 0.000000 0.000000 0.000000 0.045266 0.000000
# 6 0.000000 0.000000 0.000000 0.000000 0.000000 0.055495
#
#
# Mechanical properties :
#
#
# Convention : Reuss Voigt Hill
#
# Bulk Modulus (GPa) = 53.14117 62.99114 58.06616
# Shear Modulus (GPa) = 18.19940 19.70795 18.95368
#
# Velocity S-wave (km/s) = 3.44269 3.58253 3.51331
# Velocity P-wave (km/s) = 7.10002 7.62462 7.36699
#
# Compressibility (1/GPa) = 0.01881780
#
# Stress axis : x y z
#
# Youngs Moduli (GPa) = 35.41844 35.41844 70.62680
#
# Poissons Ratio (x) = 0.38953 0.52640
# Poissons Ratio (y) = 0.38953 0.52640
# Poissons Ratio (z) = 0.26398 0.26398
#
# Static dielectric constant tensor:
#      x y z
#    x 2.826190 0.000000 0.000000 
#    y 0.000000 2.826190 0.000000 
#    z 0.000000 0.000000 3.227900 
# 
# 
# High freq. dielectric constant tensor:
#      x y z
#    x 1.567980 0.000000 0.000000 
#    y 0.000000 1.567980 0.000000 
#    z 0.000000 0.000000 1.606920 
# 
# From -- ./inp_files/7977.got.cif
#   From: 2010.03.12/outbox.cif.g09.slc.cpg/sg123_4_cif.got.tgz:7977.got - 2010.04.06 16:26:55.
