data_PCOD8312925
_publ_section_title
;
Structure prediction by ZEFSAII (Michael W. Deem and Ramdas Pophale) SiO2 
 PCOD8312925
Probable space group: P 4/M M M
;
_chemical_formula_sum "Si O2"
_cell_formula_units_Z 72
_cell_length_a 21.173298
_cell_length_b 21.173298
_cell_length_c 8.675258
_cell_angle_alpha 90.000000
_cell_angle_beta 90.000000
_cell_angle_gamma 90.000000
_cell_volume 3889.192319
_symmetry_space_group_name_H-M "P 4/M M M"
_symmetry_group_IT_number 123
_symmetry_cell_setting 'tetragonal'
loop_
_space_group_symop_operation_xyz
x,y,z
-y,x,z
-x,-y,z
y,-x,z
x,-y,-z
-x,y,-z
y,x,-z
-y,-x,-z
-x,-y,-z
y,-x,-z
x,y,-z
-y,x,-z
-x,y,z
x,-y,z
-y,-x,z
y,x,z
loop_
_atom_site_type_symbol
_atom_site_label
_atom_site_fract_x
_atom_site_fract_y
_atom_site_fract_z
Si Si1 0.331443 0.093579 0.319599
Si Si2 0.000000 0.763109 0.819617
Si Si3 0.102977 0.000000 0.677202
Si Si4 0.227694 0.668425 0.822376
Si Si5 0.572173 0.000000 0.182674
Si Si6 0.668936 0.429781 0.183264
O O1 0.333664 0.081126 0.500000
O O2 0.268120 0.062423 0.252139
O O3 0.328900 0.167483 0.286402
O O4 0.393661 0.062748 0.244800
O O5 0.000000 0.837328 0.788373
O O6 0.000000 0.750148 0.000000
O O7 0.062072 0.062072 0.712808
O O8 0.125227 0.000000 0.500000
O O9 0.268288 0.731713 0.799272
O O10 0.268133 0.607751 0.768680
O O11 0.206685 0.661732 0.000000
O O12 0.500000 0.000000 0.240505
O O13 0.576028 0.000000 0.000000
O O14 0.670464 0.500000 0.255189
O O15 0.607246 0.392755 0.246219
O O16 0.665455 0.432513 0.000000
#
# Coordination Sequence:
#
# PCOD8312925 Si02
#       6
#    16   8   8  16   8  16
#     4  11  22  36  55  78 106 136 170 216 264 310
#     4  11  22  37  57  79 106 138 173 211 253 306
#     4   9  19  37  59  82 110 142 174 211 257 307
#     4   9  18  33  51  72 102 139 178 217 257 307
#     4  10  21  38  59  80 104 136 172 209 254 313
#     4   8  14  25  43  69 100 133 169 210 255 302
#
# _framework density 18.512841999999999
#
# number of rings (size 3 to 8) (size 9 to 14) (size 15 to 20)
#    0.000    2.444    0.000    6.333    0.000    3.778 
#    0.000    3.889    0.000    0.000    0.000    0.000 
#    0.000    0.000    0.000    4.889    0.000    4.889 
#
# Total GULP energy -892829.034423 kJ/mol
# GULP energy per Si atom -12400.403256 kJ/mol
# Density = 1.847071 g / cm^3
# Si number density = 18.512842 Si / 1000 Ang^3
#
#
#
# Elastic Constant Matrix: (Units=GPa)
#
#
# Indices 1 2 3 4 5 6 
#
# 1 139.4951 54.4905 36.1743 0.0000 0.0000 0.0000
# 2 54.4905 139.4951 36.1743 0.0000 0.0000 0.0000
# 3 36.1743 36.1743 80.9819 0.0000 0.0000 0.0000
# 4 0.0000 0.0000 0.0000 16.0472 0.0000 0.0000
# 5 0.0000 0.0000 0.0000 0.0000 16.0472 0.0000
# 6 0.0000 0.0000 0.0000 0.0000 0.0000 13.2889
#
#
#
# Elastic Compliance Matrix: (Units=1/GPa)
#
#
# Indices 1 2 3 4 5 6 
#
# 1 0.008975 -0.002789 -0.002763 0.000000 0.000000 0.000000
# 2 -0.002789 0.008975 -0.002763 0.000000 0.000000 0.000000
# 3 -0.002763 -0.002763 0.014817 0.000000 0.000000 0.000000
# 4 0.000000 0.000000 0.000000 0.062316 0.000000 0.000000
# 5 0.000000 0.000000 0.000000 0.000000 0.062316 0.000000
# 6 0.000000 0.000000 0.000000 0.000000 0.000000 0.075251
#
#
# Mechanical properties :
#
#
# Convention : Reuss Voigt Hill
#
# Bulk Modulus (GPa) = 61.97409 68.18337 65.07873
# Shear Modulus (GPa) = 19.63410 24.61886 22.12648
#
# Velocity S-wave (km/s) = 3.26017 3.65063 3.46091
# Velocity P-wave (km/s) = 6.90800 7.39458 7.15543
#
# Compressibility (1/GPa) = 0.01613577
#
# Stress axis : x y z
#
# Youngs Moduli (GPa) = 111.42313 111.42313 67.49038
#
# Poissons Ratio (x) = 0.31079 0.18648
# Poissons Ratio (y) = 0.31079 0.18648
# Poissons Ratio (z) = 0.30787 0.30787
#
# Static dielectric constant tensor:
#      x y z
#    x 3.494690 0.000000 0.000000 
#    y 0.000000 3.494690 0.000000 
#    z 0.000000 0.000000 3.141140 
# 
# 
# High freq. dielectric constant tensor:
#      x y z
#    x 1.721870 0.000000 0.000000 
#    y 0.000000 1.721870 0.000000 
#    z 0.000000 0.000000 1.698340 
# 
# From -- ./inp_files/1231.got.cif
#   From: 2010.03.12/outbox.cif.g09.slc.cpg/sg123_1_cif.got.tgz:1231.got - 2010.04.06 16:26:55.
