data_PCOD8312924
_publ_section_title
;
Structure prediction by ZEFSAII (Michael W. Deem and Ramdas Pophale) SiO2 
 PCOD8312924
Probable space group: P 4/M M M
;
_chemical_formula_sum "Si O2"
_cell_formula_units_Z 72
_cell_length_a 20.616729
_cell_length_b 20.616729
_cell_length_c 8.842337
_cell_angle_alpha 90.000000
_cell_angle_beta 90.000000
_cell_angle_gamma 90.000000
_cell_volume 3758.431050
_symmetry_space_group_name_H-M "P 4/M M M"
_symmetry_group_IT_number 123
_symmetry_cell_setting 'tetragonal'
loop_
_space_group_symop_operation_xyz
x,y,z
-y,x,z
-x,-y,z
y,-x,z
x,-y,-z
-x,y,-z
y,x,-z
-y,-x,-z
-x,-y,-z
y,-x,-z
x,y,-z
-y,x,-z
-x,y,z
x,-y,z
-y,-x,z
y,x,z
loop_
_atom_site_type_symbol
_atom_site_label
_atom_site_fract_x
_atom_site_fract_y
_atom_site_fract_z
Si Si1 0.077442 0.500000 0.180346
Si Si2 0.427629 0.678623 0.824848
Si Si3 0.158559 0.263108 0.673933
Si Si4 0.182306 0.408352 0.321766
Si Si5 0.929287 0.172107 0.821438
O O1 0.118636 0.439335 0.243973
O O2 0.000000 0.500000 0.230959
O O3 0.080281 0.500000 0.000000
O O4 0.500000 0.647913 0.804909
O O5 0.373051 0.626950 0.763593
O O6 0.429907 0.747456 0.738223
O O7 0.413473 0.693224 0.000000
O O8 0.139511 0.256802 0.500000
O O9 0.219809 0.219809 0.718410
O O10 0.178156 0.334048 0.720623
O O11 0.096169 0.242256 0.770796
O O12 0.179259 0.423192 0.500000
O O13 0.883294 0.116706 0.751416
O O14 0.000000 0.160581 0.752845
O O15 0.930463 0.168559 0.000000
#
# Coordination Sequence:
#
# PCOD8312924 Si02
#       5
#     8  16  16  16  16
#     4  11  25  43  61  83 114 151 190 235 289 352
#     4  10  21  37  59  88 123 163 203 244 293 350
#     4   9  19  35  54  78 108 141 178 222 273 328
#     4  11  22  38  61  86 114 150 192 240 292 347
#     4   9  18  32  50  74 104 138 178 224 274 329
#
# _framework density 19.156929999999999
#
# number of rings (size 3 to 8) (size 9 to 14) (size 15 to 20)
#    0.000    2.111    1.111    1.667    0.000    5.778 
#    0.000    8.889    0.000    0.000    0.000    4.667 
#    0.000    0.000    0.000    0.000    0.000    0.000 
#
# Total GULP energy -892146.452227 kJ/mol
# GULP energy per Si atom -12390.922948 kJ/mol
# Density = 1.911333 g / cm^3
# Si number density = 19.156930 Si / 1000 Ang^3
#
#
#
# Elastic Constant Matrix: (Units=GPa)
#
#
# Indices 1 2 3 4 5 6 
#
# 1 139.8944 57.7983 37.8902 0.0000 0.0000 0.0000
# 2 57.7983 139.8944 37.8902 0.0000 0.0000 0.0000
# 3 37.8902 37.8902 51.3926 0.0000 0.0000 0.0000
# 4 0.0000 0.0000 0.0000 24.2999 0.0000 0.0000
# 5 0.0000 0.0000 0.0000 0.0000 24.2999 0.0000
# 6 0.0000 0.0000 0.0000 0.0000 0.0000 16.1672
#
#
#
# Elastic Compliance Matrix: (Units=1/GPa)
#
#
# Indices 1 2 3 4 5 6 
#
# 1 0.009616 -0.002565 -0.005199 0.000000 0.000000 0.000000
# 2 -0.002565 0.009616 -0.005199 0.000000 0.000000 0.000000
# 3 -0.005199 -0.005199 0.027124 0.000000 0.000000 0.000000
# 4 0.000000 0.000000 0.000000 0.041152 0.000000 0.000000
# 5 0.000000 0.000000 0.000000 0.000000 0.041152 0.000000
# 6 0.000000 0.000000 0.000000 0.000000 0.000000 0.061853
#
#
# Mechanical properties :
#
#
# Convention : Reuss Voigt Hill
#
# Bulk Modulus (GPa) = 48.94405 66.48207 57.71306
# Shear Modulus (GPa) = 22.39661 26.12693 24.26177
#
# Velocity S-wave (km/s) = 3.42294 3.69702 3.56262
# Velocity P-wave (km/s) = 6.42078 7.28033 6.86403
#
# Compressibility (1/GPa) = 0.02043149
#
# Stress axis : x y z
#
# Youngs Moduli (GPa) = 103.99371 103.99371 36.86839
#
# Poissons Ratio (x) = 0.26673 0.19166
# Poissons Ratio (y) = 0.26673 0.19166
# Poissons Ratio (z) = 0.54062 0.54062
#
# Static dielectric constant tensor:
#      x y z
#    x 3.845480 0.000000 0.000000 
#    y 0.000000 3.845480 0.000000 
#    z 0.000000 0.000000 3.401130 
# 
# 
# High freq. dielectric constant tensor:
#      x y z
#    x 1.752050 0.000000 0.000000 
#    y 0.000000 1.752050 0.000000 
#    z 0.000000 0.000000 1.736830 
# 
# From -- ./inp_files/1086.got.cif
#   From: 2010.03.12/outbox.cif.g09.slc.cpg/sg123_1_cif.got.tgz:1086.got - 2010.04.06 16:26:55.
