data_PCOD8312940
_publ_section_title
;
Structure prediction by ZEFSAII (Michael W. Deem and Ramdas Pophale) SiO2 
 PCOD8312940
Probable space group: P 4/M M M
;
_chemical_formula_sum "Si O2"
_cell_formula_units_Z 64
_cell_length_a 20.348128
_cell_length_b 20.348128
_cell_length_c 7.700882
_cell_angle_alpha 90.000000
_cell_angle_beta 90.000000
_cell_angle_gamma 90.000000
_cell_volume 3188.521800
_symmetry_space_group_name_H-M "P 4/M M M"
_symmetry_group_IT_number 123
_symmetry_cell_setting 'tetragonal'
loop_
_space_group_symop_operation_xyz
x,y,z
-y,x,z
-x,-y,z
y,-x,z
x,-y,-z
-x,y,-z
y,x,-z
-y,-x,-z
-x,-y,-z
y,-x,-z
x,y,-z
-y,x,-z
-x,y,z
x,-y,z
-y,-x,z
y,x,z
loop_
_atom_site_type_symbol
_atom_site_label
_atom_site_fract_x
_atom_site_fract_y
_atom_site_fract_z
Si Si1 0.860339 0.751499 0.803720
Si Si2 0.074835 0.500000 0.206766
Si Si3 0.818727 0.926827 0.500000
Si Si4 0.176787 0.606765 0.204944
Si Si5 0.426337 0.678789 0.206200
O O1 0.796466 0.796466 0.792166
O O2 0.916233 0.776173 0.673579
O O3 0.837897 0.680609 0.739169
O O4 0.888919 0.750303 0.000000
O O5 0.116387 0.562641 0.275616
O O6 0.000000 0.500000 0.283084
O O7 0.070192 0.500000 0.000000
O O8 0.882052 0.882052 0.500000
O O9 0.845467 0.000000 0.500000
O O10 0.247957 0.586732 0.282516
O O11 0.180559 0.598095 0.000000
O O12 0.500000 0.656977 0.260794
O O13 0.373728 0.626273 0.282836
O O14 0.419434 0.680638 0.000000
#
# Coordination Sequence:
#
# PCOD8312940 Si02
#       5
#    16   8   8  16  16
#     4   9  18  33  55  81 107 139 180 225 269 312
#     4   9  16  24  36  59  90 124 167 214 258 316
#     4  10  22  39  58  83 113 141 174 218 266 322
#     4   9  15  26  43  65  96 132 172 217 268 321
#     4   9  15  22  34  55  87 128 173 221 268 316
#
# _framework density 20.071998000000001
#
# number of rings (size 3 to 8) (size 9 to 14) (size 15 to 20)
#    0.000    2.875    1.250    0.750    0.000    4.875 
#    0.000    3.750    0.000    0.750    0.000    5.250 
#    0.000    0.000    0.000    0.000    0.000   12.250 
#
# Total GULP energy -793265.877888 kJ/mol
# GULP energy per Si atom -12394.779342 kJ/mol
# Density = 2.002631 g / cm^3
# Si number density = 20.071998 Si / 1000 Ang^3
#
#
#
# Elastic Constant Matrix: (Units=GPa)
#
#
# Indices 1 2 3 4 5 6 
#
# 1 155.8214 63.0054 26.0119 0.0000 0.0000 0.0000
# 2 63.0054 155.8214 26.0119 0.0000 0.0000 0.0000
# 3 26.0119 26.0119 51.4707 0.0000 0.0000 0.0000
# 4 0.0000 0.0000 0.0000 -25.0060 0.0000 0.0000
# 5 0.0000 0.0000 0.0000 0.0000 -25.0060 0.0000
# 6 0.0000 0.0000 0.0000 0.0000 0.0000 -1.0986
#
#
#
# Elastic Compliance Matrix: (Units=1/GPa)
#
#
# Indices 1 2 3 4 5 6 
#
# 1 0.007984 -0.002790 -0.002625 0.000000 0.000000 0.000000
# 2 -0.002790 0.007984 -0.002625 0.000000 0.000000 0.000000
# 3 -0.002625 -0.002625 0.022082 0.000000 0.000000 0.000000
# 4 0.000000 0.000000 0.000000 -0.039990 0.000000 0.000000
# 5 0.000000 0.000000 0.000000 0.000000 -0.039990 0.000000
# 6 0.000000 0.000000 0.000000 0.000000 0.000000 -0.910245
#
#
# Mechanical properties :
#
#
# Convention : Reuss Voigt Hill
#
# Bulk Modulus (GPa) = 45.51675 65.90801 55.71238
# Shear Modulus (GPa) = -5.38344 6.31682 0.46669
#
# Velocity S-wave (km/s) = -1.63948 1.77593 0.48271
# Velocity P-wave (km/s) = 4.37517 6.09199 5.30351
#
# Compressibility (1/GPa) = 0.02196993
#
# Stress axis : x y z
#
# Youngs Moduli (GPa) = 125.25164 125.25164 45.28666
#
# Poissons Ratio (x) = 0.34946 0.11887
# Poissons Ratio (y) = 0.34946 0.11887
# Poissons Ratio (z) = 0.32876 0.32876
#
# Static dielectric constant tensor:
#      x y z
#    x 3.707700 0.000000 0.000000 
#    y 0.000000 3.707700 0.000000 
#    z 0.000000 0.000000 3.271520 
# 
# 
# High freq. dielectric constant tensor:
#      x y z
#    x 1.782100 0.000000 0.000000 
#    y 0.000000 1.782100 0.000000 
#    z 0.000000 0.000000 1.745380 
# 
# From -- ./inp_files/942.got.cif
#   From: 2010.03.12/outbox.cif.g09.slc.cpg/sg123_1_cif.got.tgz:942.got - 2010.04.06 16:26:55.
