data_PCOD8312559
_publ_section_title
;
Structure prediction by ZEFSAII (Michael W. Deem and Ramdas Pophale) SiO2 
 PCOD8312559
Probable space group: P 4/M M M
;
_chemical_formula_sum "Si O2"
_cell_formula_units_Z 72
_cell_length_a 12.858167
_cell_length_b 12.858167
_cell_length_c 25.002511
_cell_angle_alpha 90.000000
_cell_angle_beta 90.000000
_cell_angle_gamma 90.000000
_cell_volume 4133.726615
_symmetry_space_group_name_H-M "P 4/M M M"
_symmetry_group_IT_number 123
_symmetry_cell_setting 'tetragonal'
loop_
_space_group_symop_operation_xyz
x,y,z
-y,x,z
-x,-y,z
y,-x,z
x,-y,-z
-x,y,-z
y,x,-z
-y,-x,-z
-x,-y,-z
y,-x,-z
x,y,-z
-y,x,-z
-x,y,z
x,-y,z
-y,-x,z
y,x,z
loop_
_atom_site_type_symbol
_atom_site_label
_atom_site_fract_x
_atom_site_fract_y
_atom_site_fract_z
Si Si1 0.621145 0.785344 0.558102
Si Si2 0.878610 0.385400 0.333913
Si Si3 0.376783 0.000000 0.939696
Si Si4 0.715737 0.877062 0.774364
Si Si5 0.205719 0.378539 0.123034
O O1 0.646495 0.838634 0.500000
O O2 0.500000 0.767490 0.563960
O O3 0.672517 0.672517 0.560895
O O4 0.664055 0.853129 0.607865
O O5 0.827574 0.500000 0.328915
O O6 0.839333 0.315203 0.285112
O O7 0.000000 0.396391 0.328801
O O8 0.338457 0.106306 0.911289
O O9 0.500000 0.000000 0.938384
O O10 0.333231 0.000000 0.000000
O O11 0.829777 0.829777 0.786472
O O12 0.632316 0.827725 0.815097
O O13 0.720573 0.000000 0.781238
O O14 0.233206 0.500000 0.111518
O O15 0.306249 0.306249 0.109363
#
# Coordination Sequence:
#
# PCOD8312559 Si02
#       5
#    16  16   8  16  16
#     4   9  17  28  41  58  82 112 146 185 229 279
#     4   9  17  28  44  65  87 114 150 193 239 288
#     4   9  18  34  56  79 105 139 178 215 248 293
#     4  10  19  31  49  72  98 129 164 204 250 299
#     4  10  20  34  54  80 109 141 176 216 260 306
#
# _framework density 17.417698000000001
#
# number of rings (size 3 to 8) (size 9 to 14) (size 15 to 20)
#    0.000    2.556    1.111    1.333    0.000    2.444 
#    0.000    3.333    0.000    0.333    0.000    7.000 
#    0.000    0.000    0.000   20.667    0.000    0.444 
#
# Total GULP energy -892027.181415 kJ/mol
# GULP energy per Si atom -12389.266409 kJ/mol
# Density = 1.737805 g / cm^3
# Si number density = 17.417698 Si / 1000 Ang^3
#
#
#
# Elastic Constant Matrix: (Units=GPa)
#
#
# Indices 1 2 3 4 5 6 
#
# 1 72.3763 41.1441 33.1396 0.0000 0.0000 0.0000
# 2 41.1441 72.3763 33.1396 0.0000 0.0000 0.0000
# 3 33.1396 33.1396 122.6392 0.0000 0.0000 0.0000
# 4 0.0000 0.0000 0.0000 18.9340 0.0000 0.0000
# 5 0.0000 0.0000 0.0000 0.0000 18.9340 0.0000
# 6 0.0000 0.0000 0.0000 0.0000 0.0000 21.2855
#
#
#
# Elastic Compliance Matrix: (Units=1/GPa)
#
#
# Indices 1 2 3 4 5 6 
#
# 1 0.021239 -0.010780 -0.002826 0.000000 0.000000 0.000000
# 2 -0.010780 0.021239 -0.002826 0.000000 0.000000 0.000000
# 3 -0.002826 -0.002826 0.009681 0.000000 0.000000 0.000000
# 4 0.000000 0.000000 0.000000 0.052815 0.000000 0.000000
# 5 0.000000 0.000000 0.000000 0.000000 0.052815 0.000000
# 6 0.000000 0.000000 0.000000 0.000000 0.000000 0.046980
#
#
# Mechanical properties :
#
#
# Convention : Reuss Voigt Hill
#
# Bulk Modulus (GPa) = 51.82799 53.58204 52.70501
# Shear Modulus (GPa) = 20.48637 22.49529 21.49083
#
# Velocity S-wave (km/s) = 3.43327 3.59767 3.51643
# Velocity P-wave (km/s) = 6.74811 6.93451 6.84194
#
# Compressibility (1/GPa) = 0.01929459
#
# Stress axis : x y z
#
# Youngs Moduli (GPa) = 47.08394 47.08394 103.29059
#
# Poissons Ratio (x) = 0.50754 0.29193
# Poissons Ratio (y) = 0.50754 0.29193
# Poissons Ratio (z) = 0.13307 0.13307
#
# Static dielectric constant tensor:
#      x y z
#    x 3.092900 0.000000 0.000000 
#    y 0.000000 3.092900 0.000000 
#    z 0.000000 0.000000 3.677230 
# 
# 
# High freq. dielectric constant tensor:
#      x y z
#    x 1.651680 0.000000 0.000000 
#    y 0.000000 1.651680 0.000000 
#    z 0.000000 0.000000 1.691990 
# 
# From -- ./inp_files/7813.got.cif
#   From: 2010.03.12/outbox.cif.g09.slc.cpg/sg123_4_cif.got.tgz:7813.got - 2010.04.06 16:26:55.
