data_PCOD8312681
_publ_section_title
;
Structure prediction by ZEFSAII (Michael W. Deem and Ramdas Pophale) SiO2 
 PCOD8312681
Probable space group: P 4/M M M
;
_chemical_formula_sum "Si O2"
_cell_formula_units_Z 80
_cell_length_a 13.801150
_cell_length_b 13.801150
_cell_length_c 24.941333
_cell_angle_alpha 90.000000
_cell_angle_beta 90.000000
_cell_angle_gamma 90.000000
_cell_volume 4750.619127
_symmetry_space_group_name_H-M "P 4/M M M"
_symmetry_group_IT_number 123
_symmetry_cell_setting 'tetragonal'
loop_
_space_group_symop_operation_xyz
x,y,z
-y,x,z
-x,-y,z
y,-x,z
x,-y,-z
-x,y,-z
y,x,-z
-y,-x,-z
-x,-y,-z
y,-x,-z
x,y,-z
-y,x,-z
-x,y,z
x,-y,z
-y,-x,z
y,x,z
loop_
_atom_site_type_symbol
_atom_site_label
_atom_site_fract_x
_atom_site_fract_y
_atom_site_fract_z
Si Si1 0.614383 0.229567 0.159721
Si Si2 0.266876 0.889827 0.364218
Si Si3 0.111642 0.731341 0.759308
Si Si4 0.108005 0.385104 0.059336
Si Si5 0.767361 0.610572 0.561413
O O1 0.500000 0.248413 0.160962
O O2 0.667616 0.332385 0.167250
O O3 0.642440 0.155758 0.207118
O O4 0.651709 0.183122 0.103865
O O5 0.170903 0.829098 0.377827
O O6 0.298198 0.877365 0.302622
O O7 0.355676 0.855246 0.400970
O O8 0.241943 0.000000 0.378078
O O9 0.169462 0.830539 0.772023
O O10 0.000000 0.748432 0.775098
O O11 0.103541 0.500000 0.061672
O O12 0.000000 0.344038 0.071174
O O13 0.142302 0.351060 0.000000
O O14 0.799984 0.625011 0.500000
O O15 0.742341 0.500000 0.574239
O O16 0.670833 0.670833 0.574715
#
# Coordination Sequence:
#
# PCOD8312681 Si02
#       5
#    16  16  16  16  16
#     4  10  20  32  46  65  91 124 161 199 235 272
#     4   9  18  32  49  70  96 123 151 185 225 272
#     4   9  18  32  50  72  95 119 149 186 230 279
#     4   8  14  26  45  67  88 111 143 185 231 275
#     4   9  18  32  49  69  93 121 154 193 234 273
#
# _framework density 16.839911000000001
#
# number of rings (size 3 to 8) (size 9 to 14) (size 15 to 20)
#    0.000    3.000    0.000    1.200    0.000    4.000 
#    0.000    6.000    0.000    0.000    0.000   11.200 
#    0.000    0.000    0.000   18.600    0.000    1.200 
#
# Total GULP energy -991861.984129 kJ/mol
# GULP energy per Si atom -12398.274802 kJ/mol
# Density = 1.680158 g / cm^3
# Si number density = 16.839911 Si / 1000 Ang^3
#
#
#
# Elastic Constant Matrix: (Units=GPa)
#
#
# Indices 1 2 3 4 5 6 
#
# 1 96.6627 42.5048 52.1308 0.0000 0.0000 0.0000
# 2 42.5048 96.6627 52.1308 0.0000 0.0000 0.0000
# 3 52.1308 52.1308 83.7776 0.0000 0.0000 0.0000
# 4 0.0000 0.0000 0.0000 26.1501 0.0000 0.0000
# 5 0.0000 0.0000 0.0000 0.0000 26.1501 0.0000
# 6 0.0000 0.0000 0.0000 0.0000 0.0000 12.0941
#
#
#
# Elastic Compliance Matrix: (Units=1/GPa)
#
#
# Indices 1 2 3 4 5 6 
#
# 1 0.015963 -0.002502 -0.008376 0.000000 0.000000 0.000000
# 2 -0.002502 0.015963 -0.008376 0.000000 0.000000 0.000000
# 3 -0.008376 -0.008376 0.022360 0.000000 0.000000 0.000000
# 4 0.000000 0.000000 0.000000 0.038241 0.000000 0.000000
# 5 0.000000 0.000000 0.000000 0.000000 0.038241 0.000000
# 6 0.000000 0.000000 0.000000 0.000000 0.000000 0.082685
#
#
# Mechanical properties :
#
#
# Convention : Reuss Voigt Hill
#
# Bulk Modulus (GPa) = 63.37995 63.40399 63.39197
# Shear Modulus (GPa) = 19.43867 21.56794 20.50330
#
# Velocity S-wave (km/s) = 3.40122 3.58266 3.49312
# Velocity P-wave (km/s) = 7.28991 7.40585 7.34811
#
# Compressibility (1/GPa) = 0.01577786
#
# Stress axis : x y z
#
# Youngs Moduli (GPa) = 62.64644 62.64644 44.72221
#
# Poissons Ratio (x) = 0.15674 0.37459
# Poissons Ratio (y) = 0.15674 0.37459
# Poissons Ratio (z) = 0.52472 0.52472
#
# Static dielectric constant tensor:
#      x y z
#    x 3.044690 0.000000 0.000000 
#    y 0.000000 3.044690 0.000000 
#    z 0.000000 0.000000 3.387900 
# 
# 
# High freq. dielectric constant tensor:
#      x y z
#    x 1.636160 0.000000 0.000000 
#    y 0.000000 1.636160 0.000000 
#    z 0.000000 0.000000 1.658730 
# 
# From -- ./inp_files/6313.got.cif
#   From: 2010.03.12/outbox.cif.g09.slc.cpg/sg123_4_cif.got.tgz:6313.got - 2010.04.06 16:26:55.
