data_PCOD8312378
_publ_section_title
;
Structure prediction by ZEFSAII (Michael W. Deem and Ramdas Pophale) SiO2 
 PCOD8312378
Probable space group: P 4/M M M
;
_chemical_formula_sum "Si O2"
_cell_formula_units_Z 120
_cell_length_a 24.346556
_cell_length_b 24.346556
_cell_length_c 13.723569
_cell_angle_alpha 90.000000
_cell_angle_beta 90.000000
_cell_angle_gamma 90.000000
_cell_volume 8134.711248
_symmetry_space_group_name_H-M "P 4/M M M"
_symmetry_group_IT_number 123
_symmetry_cell_setting 'tetragonal'
loop_
_space_group_symop_operation_xyz
x,y,z
-y,x,z
-x,-y,z
y,-x,z
x,-y,-z
-x,y,-z
y,x,-z
-y,-x,-z
-x,-y,-z
y,-x,-z
x,y,-z
-y,x,-z
-x,y,z
x,-y,z
-y,-x,z
y,x,z
loop_
_atom_site_type_symbol
_atom_site_label
_atom_site_fract_x
_atom_site_fract_y
_atom_site_fract_z
Si Si1 0.731210 0.638813 0.109127
Si Si2 0.759950 0.328632 0.391733
Si Si3 0.153311 0.936971 0.609952
Si Si4 0.350408 0.561775 0.202113
Si Si5 0.292812 0.560678 0.609229
Si Si6 0.845854 0.062369 0.000000
Si Si7 0.193575 0.716194 0.210307
Si Si8 0.199326 0.107218 0.803745
O O1 0.686179 0.686179 0.119307
O O2 0.707615 0.584980 0.162281
O O3 0.789009 0.661010 0.152278
O O4 0.743149 0.621305 0.000000
O O5 0.782754 0.320941 0.500000
O O6 0.700627 0.299374 0.377092
O O7 0.751994 0.392660 0.364542
O O8 0.804906 0.299510 0.324316
O O9 0.178266 0.925581 0.500000
O O10 0.098638 0.901363 0.625022
O O11 0.195339 0.924876 0.699869
O O12 0.135284 0.000000 0.617967
O O13 0.359249 0.500000 0.163003
O O14 0.402241 0.597760 0.166959
O O15 0.345186 0.563386 0.319263
O O16 0.314966 0.571357 0.500000
O O17 0.265040 0.500000 0.617862
O O18 0.810311 0.071161 0.901099
O O19 0.898899 0.101102 0.000000
O O20 0.866903 0.000000 0.000000
O O21 0.236486 0.763515 0.183020
O O22 0.132811 0.739090 0.186607
O O23 0.155826 0.155826 0.800684
#
# Coordination Sequence:
#
# PCOD8312378 Si02
#       8
#    16  16  16  16  16   8  16  16
#     4   9  17  28  42  57  73  95 126 164 204 250
#     4   9  15  23  37  56  78 102 130 164 201 248
#     4   9  17  29  44  61  83 112 147 185 218 245
#     4  10  19  30  42  56  75 100 135 175 214 254
#     4   9  16  25  38  55  75 100 130 165 206 249
#     4  10  20  33  48  66  90 120 155 189 216 242
#     4   9  16  26  40  59  80 101 128 164 208 253
#     4   9  18  29  42  61  85 111 140 177 219 257
#
# _framework density 14.751598
#
# number of rings (size 3 to 8) (size 9 to 14) (size 15 to 20)
#    0.000    2.800    1.333    0.800    0.933    1.933 
#    0.000    3.333    0.000    2.400    0.000    3.733 
#    0.000    0.000    0.000    0.000    0.000   13.333 
#
# Total GULP energy -1486575.256862 kJ/mol
# GULP energy per Si atom -12388.127141 kJ/mol
# Density = 1.471802 g / cm^3
# Si number density = 14.751598 Si / 1000 Ang^3
#
#
#
# Elastic Constant Matrix: (Units=GPa)
#
#
# Indices 1 2 3 4 5 6 
#
# 1 53.5549 44.7450 33.0824 0.0000 0.0000 0.0000
# 2 44.7450 53.5555 33.0825 0.0000 0.0000 0.0000
# 3 33.0824 33.0825 99.4878 0.0000 0.0000 0.0000
# 4 0.0000 0.0000 0.0000 14.8176 0.0000 0.0000
# 5 0.0000 0.0000 0.0000 0.0000 14.8176 0.0000
# 6 0.0000 0.0000 0.0000 0.0000 0.0000 14.8607
#
#
#
# Elastic Compliance Matrix: (Units=1/GPa)
#
#
# Indices 1 2 3 4 5 6 
#
# 1 0.063306 -0.050199 -0.004358 0.000000 0.000000 0.000000
# 2 -0.050199 0.063305 -0.004358 0.000000 0.000000 0.000000
# 3 -0.004358 -0.004358 0.012950 0.000000 0.000000 0.000000
# 4 0.000000 0.000000 0.000000 0.067487 0.000000 0.000000
# 5 0.000000 0.000000 0.000000 0.000000 0.067487 0.000000
# 6 0.000000 0.000000 0.000000 0.000000 0.000000 0.067291
#
#
# Mechanical properties :
#
#
# Convention : Reuss Voigt Hill
#
# Bulk Modulus (GPa) = 46.01974 47.60200 46.81087
# Shear Modulus (GPa) = 10.70889 15.27841 12.99365
#
# Velocity S-wave (km/s) = 2.69726 3.22174 2.97110
# Velocity P-wave (km/s) = 6.40035 6.79548 6.60087
#
# Compressibility (1/GPa) = 0.02172981
#
# Stress axis : x y z
#
# Youngs Moduli (GPa) = 15.79630 15.79648 77.22031
#
# Poissons Ratio (x) = 0.79297 0.33655
# Poissons Ratio (y) = 0.79296 0.33654
# Poissons Ratio (z) = 0.06885 0.06884
#
# Static dielectric constant tensor:
#      x y z
#    x 2.682010 0.000000 0.000000 
#    y 0.000000 2.682010 0.000000 
#    z 0.000000 0.000000 3.174480 
# 
# 
# High freq. dielectric constant tensor:
#      x y z
#    x 1.524840 0.000000 0.000000 
#    y 0.000000 1.524840 0.000000 
#    z 0.000000 0.000000 1.586440 
# 
# From -- ./inp_files/4753.got.cif
#   From: 2010.03.12/outbox.cif.g09.slc.cpg/sg123_3_cif.got.tgz:4753.got - 2010.04.06 16:26:55.
