data_PCOD8312386
_publ_section_title
;
Structure prediction by ZEFSAII (Michael W. Deem and Ramdas Pophale) SiO2 
 PCOD8312386
Probable space group: P 4/M M M
;
_chemical_formula_sum "Si O2"
_cell_formula_units_Z 112
_cell_length_a 26.611948
_cell_length_b 26.611948
_cell_length_c 9.769300
_cell_angle_alpha 90.000000
_cell_angle_beta 90.000000
_cell_angle_gamma 90.000000
_cell_volume 6918.576998
_symmetry_space_group_name_H-M "P 4/M M M"
_symmetry_group_IT_number 123
_symmetry_cell_setting 'tetragonal'
loop_
_space_group_symop_operation_xyz
x,y,z
-y,x,z
-x,-y,z
y,-x,z
x,-y,-z
-x,y,-z
y,x,-z
-y,-x,-z
-x,-y,-z
y,-x,-z
x,y,-z
-y,x,-z
-x,y,z
x,-y,z
-y,-x,z
y,x,z
loop_
_atom_site_type_symbol
_atom_site_label
_atom_site_fract_x
_atom_site_fract_y
_atom_site_fract_z
Si Si1 0.805567 0.273047 0.837016
Si Si2 0.079770 0.000000 0.837278
Si Si3 0.871564 0.557362 0.344288
Si Si4 0.731351 0.917142 0.161155
Si Si5 0.644933 0.272185 0.841587
Si Si6 0.056068 0.379253 0.842703
Si Si7 0.755246 0.557098 0.341671
Si Si8 0.000000 0.193075 0.836148
O O1 0.774891 0.225110 0.781416
O O2 0.861320 0.269503 0.773108
O O3 0.777181 0.324119 0.792176
O O4 0.806813 0.272149 0.000000
O O5 0.049801 0.950200 0.787270
O O6 0.136310 0.000000 0.776766
O O7 0.082200 0.000000 0.000000
O O8 0.880613 0.574449 0.500000
O O9 0.888533 0.500000 0.324654
O O10 0.904415 0.591440 0.246991
O O11 0.813613 0.563534 0.304220
O O12 0.679298 0.944199 0.197517
O O13 0.777566 0.950487 0.218809
O O14 0.738171 0.912028 0.000000
O O15 0.678343 0.321658 0.818117
O O16 0.594655 0.277158 0.751689
O O17 0.629566 0.267267 0.000000
O O18 0.000000 0.400350 0.817648
O O19 0.072361 0.386079 0.000000
O O20 0.745746 0.570112 0.500000
O O21 0.738155 0.500000 0.310871
O O22 0.000000 0.192974 0.000000
#
# Coordination Sequence:
#
# PCOD8312386 Si02
#       8
#    16   8  16  16  16  16  16   8
#     4   8  14  23  36  55  78 104 134 171 216 264
#     4   8  14  23  32  44  66  98 136 173 205 244
#     4   9  19  34  48  63  85 113 147 188 230 271
#     4   9  15  24  36  52  76 102 133 174 218 262
#     4   9  17  29  45  68  96 123 153 188 225 267
#     4  10  19  30  44  61  81 108 142 183 230 275
#     4   9  18  32  48  67  92 121 154 190 225 264
#     4   9  15  22  33  48  68  96 131 172 215 256
#
# _framework density 16.188300000000002
#
# number of rings (size 3 to 8) (size 9 to 14) (size 15 to 20)
#    0.000    3.071    0.714    2.786    0.000    3.714 
#    0.000    5.714    0.000    0.000    0.000    0.000 
#    0.000    0.286    0.000    3.143    0.000    3.000 
#
# Total GULP energy -1388216.945958 kJ/mol
# GULP energy per Si atom -12394.794160 kJ/mol
# Density = 1.615145 g / cm^3
# Si number density = 16.188300 Si / 1000 Ang^3
#
#
#
# Elastic Constant Matrix: (Units=GPa)
#
#
# Indices 1 2 3 4 5 6 
#
# 1 101.1259 44.1845 38.9618 0.0000 0.0000 0.0000
# 2 44.1845 101.1259 38.9618 0.0000 0.0000 0.0000
# 3 38.9618 38.9618 43.0485 0.0000 0.0000 0.0000
# 4 0.0000 0.0000 0.0000 15.5021 0.0000 0.0000
# 5 0.0000 0.0000 0.0000 0.0000 15.5021 0.0000
# 6 0.0000 0.0000 0.0000 0.0000 0.0000 21.8363
#
#
#
# Elastic Compliance Matrix: (Units=1/GPa)
#
#
# Indices 1 2 3 4 5 6 
#
# 1 0.015467 -0.002095 -0.012102 0.000000 0.000000 0.000000
# 2 -0.002095 0.015467 -0.012102 0.000000 0.000000 0.000000
# 3 -0.012102 -0.012102 0.045137 0.000000 0.000000 0.000000
# 4 0.000000 0.000000 0.000000 0.064508 0.000000 0.000000
# 5 0.000000 0.000000 0.000000 0.000000 0.064508 0.000000
# 6 0.000000 0.000000 0.000000 0.000000 0.000000 0.045795
#
#
# Mechanical properties :
#
#
# Convention : Reuss Voigt Hill
#
# Bulk Modulus (GPa) = 42.60647 54.39075 48.49861
# Shear Modulus (GPa) = 16.06148 18.78090 17.42119
#
# Velocity S-wave (km/s) = 3.15328 3.40980 3.28405
# Velocity P-wave (km/s) = 6.29556 7.01242 6.66363
#
# Compressibility (1/GPa) = 0.02347061
#
# Stress axis : x y z
#
# Youngs Moduli (GPa) = 64.65438 64.65438 22.15498
#
# Poissons Ratio (x) = 0.13545 0.26813
# Poissons Ratio (y) = 0.13545 0.26813
# Poissons Ratio (z) = 0.78247 0.78247
#
# Static dielectric constant tensor:
#      x y z
#    x 3.122830 0.000000 0.000000 
#    y 0.000000 3.122830 0.000000 
#    z 0.000000 0.000000 2.610160 
# 
# 
# High freq. dielectric constant tensor:
#      x y z
#    x 1.619060 0.000000 0.000000 
#    y 0.000000 1.619060 0.000000 
#    z 0.000000 0.000000 1.573130 
# 
# From -- ./inp_files/3458.got.cif
#   From: 2010.03.12/outbox.cif.g09.slc.cpg/sg123_2_cif.got.tgz:3458.got - 2010.04.06 16:26:55.
