data_PCOD8312902
_publ_section_title
;
Structure prediction by ZEFSAII (Michael W. Deem and Ramdas Pophale) SiO2 
 PCOD8312902
Probable space group: P 4/M M M
;
_chemical_formula_sum "Si O2"
_cell_formula_units_Z 96
_cell_length_a 23.959018
_cell_length_b 23.959018
_cell_length_c 9.139223
_cell_angle_alpha 90.000000
_cell_angle_beta 90.000000
_cell_angle_gamma 90.000000
_cell_volume 5246.229703
_symmetry_space_group_name_H-M "P 4/M M M"
_symmetry_group_IT_number 123
_symmetry_cell_setting 'tetragonal'
loop_
_space_group_symop_operation_xyz
x,y,z
-y,x,z
-x,-y,z
y,-x,z
x,-y,-z
-x,y,-z
y,x,-z
-y,-x,-z
-x,-y,-z
y,-x,-z
x,y,-z
-y,x,-z
-x,y,z
x,-y,z
-y,-x,z
y,x,z
loop_
_atom_site_type_symbol
_atom_site_label
_atom_site_fract_x
_atom_site_fract_y
_atom_site_fract_z
Si Si1 0.063496 0.846473 0.170770
Si Si2 0.936211 0.267187 0.672988
Si Si3 0.766752 0.563914 0.172465
Si Si4 0.631320 0.858775 0.330028
Si Si5 0.565174 0.060897 0.159261
Si Si6 0.563049 0.346858 0.667226
O O1 0.102725 0.897276 0.221846
O O2 0.081737 0.791069 0.255946
O O3 0.000000 0.863324 0.209243
O O4 0.070426 0.834032 0.000000
O O5 0.933417 0.261076 0.500000
O O6 0.889593 0.312102 0.725524
O O7 0.000000 0.283446 0.720409
O O8 0.785652 0.500000 0.215423
O O9 0.803552 0.613577 0.242494
O O10 0.704676 0.575192 0.227351
O O11 0.768754 0.571086 0.000000
O O12 0.634273 0.843970 0.500000
O O13 0.582703 0.902762 0.297396
O O14 0.500000 0.054694 0.165141
O O15 0.592946 0.000000 0.173895
O O16 0.582525 0.087170 0.000000
O O17 0.573980 0.328070 0.500000
O O18 0.500000 0.368419 0.686746
O O19 0.602833 0.397168 0.714919
#
# Coordination Sequence:
#
# PCOD8312902 Si02
#       6
#    16  16  16  16  16  16
#     4   9  18  33  54  80 107 133 162 198 243 297
#     4   9  19  35  52  72 101 135 170 210 255 301
#     4  10  21  36  53  74 103 139 177 217 260 305
#     4  11  21  32  49  72  97 130 174 219 262 307
#     4   9  18  31  45  64  93 127 163 208 262 314
#     4   9  18  34  57  84 112 139 167 203 250 305
#
# _framework density 18.298855
#
# number of rings (size 3 to 8) (size 9 to 14) (size 15 to 20)
#    0.000    2.500    0.000    2.500    0.000    6.667 
#    0.000    5.000    0.000    1.000    0.000    4.667 
#    0.000    0.000    0.000    0.000    0.000    0.000 
#
# Total GULP energy -1189693.664334 kJ/mol
# GULP energy per Si atom -12392.642337 kJ/mol
# Density = 1.825721 g / cm^3
# Si number density = 18.298855 Si / 1000 Ang^3
#
#
#
# Elastic Constant Matrix: (Units=GPa)
#
#
# Indices 1 2 3 4 5 6 
#
# 1 109.5226 77.9473 43.3145 0.0000 0.0000 0.0000
# 2 77.9473 109.5226 43.3145 0.0000 0.0000 0.0000
# 3 43.3145 43.3145 50.0089 0.0000 0.0000 0.0000
# 4 0.0000 0.0000 0.0000 26.7902 0.0000 0.0000
# 5 0.0000 0.0000 0.0000 0.0000 26.7902 0.0000
# 6 0.0000 0.0000 0.0000 0.0000 0.0000 37.5236
#
#
#
# Elastic Compliance Matrix: (Units=1/GPa)
#
#
# Indices 1 2 3 4 5 6 
#
# 1 0.020282 -0.011388 -0.007703 0.000000 0.000000 0.000000
# 2 -0.011388 0.020282 -0.007703 0.000000 0.000000 0.000000
# 3 -0.007703 -0.007703 0.033341 0.000000 0.000000 0.000000
# 4 0.000000 0.000000 0.000000 0.037327 0.000000 0.000000
# 5 0.000000 0.000000 0.000000 0.000000 0.037327 0.000000
# 6 0.000000 0.000000 0.000000 0.000000 0.000000 0.026650
#
#
# Mechanical properties :
#
#
# Convention : Reuss Voigt Hill
#
# Bulk Modulus (GPa) = 49.22425 66.46742 57.84583
# Shear Modulus (GPa) = 21.22510 25.18598 23.20554
#
# Velocity S-wave (km/s) = 3.40945 3.71397 3.56496
# Velocity P-wave (km/s) = 6.51595 7.40227 6.97321
#
# Compressibility (1/GPa) = 0.02031519
#
# Stress axis : x y z
#
# Youngs Moduli (GPa) = 49.30468 49.30468 29.99341
#
# Poissons Ratio (x) = 0.56149 0.23105
# Poissons Ratio (y) = 0.56149 0.23105
# Poissons Ratio (z) = 0.37981 0.37981
#
# Static dielectric constant tensor:
#      x y z
#    x 3.376960 0.000000 0.000000 
#    y 0.000000 3.376960 0.000000 
#    z 0.000000 0.000000 3.404260 
# 
# 
# High freq. dielectric constant tensor:
#      x y z
#    x 1.701130 0.000000 0.000000 
#    y 0.000000 1.701130 0.000000 
#    z 0.000000 0.000000 1.707080 
# 
# From -- ./inp_files/1643.got.cif
#   From: 2010.03.12/outbox.cif.g09.slc.cpg/sg123_1_cif.got.tgz:1643.got - 2010.04.06 16:26:55.
