data_PCOD8312302
_publ_section_title
;
Structure prediction by ZEFSAII (Michael W. Deem and Ramdas Pophale) SiO2 
 PCOD8312302
Probable space group: P 4/M M M
;
_chemical_formula_sum "Si O2"
_cell_formula_units_Z 80
_cell_length_a 14.379986
_cell_length_b 14.379986
_cell_length_c 25.649820
_cell_angle_alpha 90.000000
_cell_angle_beta 90.000000
_cell_angle_gamma 90.000000
_cell_volume 5303.972311
_symmetry_space_group_name_H-M "P 4/M M M"
_symmetry_group_IT_number 123
_symmetry_cell_setting 'tetragonal'
loop_
_space_group_symop_operation_xyz
x,y,z
-y,x,z
-x,-y,z
y,-x,z
x,-y,-z
-x,y,-z
y,x,-z
-y,-x,-z
-x,-y,-z
y,-x,-z
x,y,-z
-y,x,-z
-x,y,z
x,-y,z
-y,-x,z
y,x,z
loop_
_atom_site_type_symbol
_atom_site_label
_atom_site_fract_x
_atom_site_fract_y
_atom_site_fract_z
Si Si1 0.761741 0.610841 0.649213
Si Si2 0.610472 0.103092 0.143499
Si Si3 0.610130 0.896142 0.259510
Si Si4 0.244162 0.393236 0.941421
Si Si5 0.610270 0.103525 0.441855
O O1 0.743427 0.500000 0.649400
O O2 0.662368 0.662368 0.649397
O O3 0.820621 0.645590 0.699139
O O4 0.819588 0.645256 0.598845
O O5 0.500000 0.101273 0.139570
O O6 0.641267 0.135639 0.201446
O O7 0.651004 0.171117 0.099322
O O8 0.649879 0.000000 0.132649
O O9 0.500000 0.901507 0.262881
O O10 0.649409 0.000000 0.271885
O O11 0.264819 0.500000 0.928301
O O12 0.341627 0.341627 0.935114
O O13 0.203868 0.381515 0.000000
O O14 0.644340 0.131091 0.500000
O O15 0.500000 0.100441 0.439939
O O16 0.647727 0.000000 0.427249
#
# Coordination Sequence:
#
# PCOD8312302 Si02
#       5
#    16  16  16  16  16
#     4  10  19  28  39  57  83 115 145 168 191 225
#     4   8  14  25  41  59  76  95 123 163 211 255
#     4   8  14  26  43  59  74  95 127 169 213 247
#     4   9  17  27  38  54  78 109 142 170 193 222
#     4   8  14  26  44  62  77  96 128 173 218 247
#
# _framework density 15.083035000000001
#
# number of rings (size 3 to 8) (size 9 to 14) (size 15 to 20)
#    0.000    3.400    0.000    2.400    0.000    4.400 
#    0.000    3.000    0.000    0.000    0.000    8.400 
#    0.000    6.800    0.000   19.800    0.000    6.600 
#
# Total GULP energy -991261.477700 kJ/mol
# GULP energy per Si atom -12390.768471 kJ/mol
# Density = 1.504870 g / cm^3
# Si number density = 15.083035 Si / 1000 Ang^3
#
#
#
# Elastic Constant Matrix: (Units=GPa)
#
#
# Indices 1 2 3 4 5 6 
#
# 1 55.7188 30.8740 47.7191 0.0000 0.0000 0.0000
# 2 30.8740 55.7188 47.7191 0.0000 0.0000 0.0000
# 3 47.7191 47.7191 121.0974 0.0000 0.0000 0.0000
# 4 0.0000 0.0000 0.0000 16.8721 0.0000 0.0000
# 5 0.0000 0.0000 0.0000 0.0000 16.8721 0.0000
# 6 0.0000 0.0000 0.0000 0.0000 0.0000 3.7740
#
#
#
# Elastic Compliance Matrix: (Units=1/GPa)
#
#
# Indices 1 2 3 4 5 6 
#
# 1 0.030332 -0.009918 -0.008044 0.000000 0.000000 0.000000
# 2 -0.009918 0.030332 -0.008044 0.000000 0.000000 0.000000
# 3 -0.008044 -0.008044 0.014598 0.000000 0.000000 0.000000
# 4 0.000000 0.000000 0.000000 0.059269 0.000000 0.000000
# 5 0.000000 0.000000 0.000000 0.000000 0.059269 0.000000
# 6 0.000000 0.000000 0.000000 0.000000 0.000000 0.264968
#
#
# Mechanical properties :
#
#
# Convention : Reuss Voigt Hill
#
# Bulk Modulus (GPa) = 43.01272 53.90661 48.45966
# Shear Modulus (GPa) = 9.64262 14.58518 12.11390
#
# Velocity S-wave (km/s) = 2.53119 3.11302 2.83706
# Velocity P-wave (km/s) = 6.09276 6.98131 6.55212
#
# Compressibility (1/GPa) = 0.02324894
#
# Stress axis : x y z
#
# Youngs Moduli (GPa) = 32.96833 32.96833 68.50373
#
# Poissons Ratio (x) = 0.32697 0.55108
# Poissons Ratio (y) = 0.32697 0.55108
# Poissons Ratio (z) = 0.26521 0.26521
#
# Static dielectric constant tensor:
#      x y z
#    x 2.661690 0.000000 0.000000 
#    y 0.000000 2.661690 0.000000 
#    z 0.000000 0.000000 3.359690 
# 
# 
# High freq. dielectric constant tensor:
#      x y z
#    x 1.539060 0.000000 0.000000 
#    y 0.000000 1.539060 0.000000 
#    z 0.000000 0.000000 1.597830 
# 
# From -- ./inp_files/7091.got.cif
#   From: 2010.03.12/outbox.cif.g09.slc.cpg/sg123_4_cif.got.tgz:7091.got - 2010.04.06 16:26:55.
