data_PCOD8312589
_publ_section_title
;
Structure prediction by ZEFSAII (Michael W. Deem and Ramdas Pophale) SiO2 
 PCOD8312589
Probable space group: P 4/M M M
;
_chemical_formula_sum "Si O2"
_cell_formula_units_Z 120
_cell_length_a 18.310528
_cell_length_b 18.310528
_cell_length_c 19.196733
_cell_angle_alpha 90.000000
_cell_angle_beta 90.000000
_cell_angle_gamma 90.000000
_cell_volume 6436.193019
_symmetry_space_group_name_H-M "P 4/M M M"
_symmetry_group_IT_number 123
_symmetry_cell_setting 'tetragonal'
loop_
_space_group_symop_operation_xyz
x,y,z
-y,x,z
-x,-y,z
y,-x,z
x,-y,-z
-x,y,-z
y,x,-z
-y,-x,-z
-x,-y,-z
y,-x,-z
x,y,-z
-y,x,-z
-x,y,z
x,-y,z
-y,-x,z
y,x,z
loop_
_atom_site_type_symbol
_atom_site_label
_atom_site_fract_x
_atom_site_fract_y
_atom_site_fract_z
Si Si1 0.293832 0.414310 0.171258
Si Si2 0.804042 0.082251 0.843281
Si Si3 0.807518 0.920340 0.679470
Si Si4 0.414890 0.000000 0.076872
Si Si5 0.644172 0.137578 0.158856
Si Si6 0.084141 0.353211 0.691082
Si Si7 0.583243 0.301836 0.334089
Si Si8 0.831000 0.415623 0.576562
O O1 0.307544 0.500000 0.150293
O O2 0.363456 0.363456 0.147994
O O3 0.218510 0.384079 0.136104
O O4 0.282284 0.407271 0.253477
O O5 0.871477 0.128523 0.876524
O O6 0.817828 0.074559 0.761878
O O7 0.730304 0.128388 0.855908
O O8 0.799452 0.000000 0.876010
O O9 0.864494 0.864494 0.645068
O O10 0.726454 0.891960 0.663657
O O11 0.821195 0.000000 0.646092
O O12 0.395060 0.925881 0.116449
O O13 0.500000 0.000000 0.067972
O O14 0.377869 0.000000 0.000000
O O15 0.624078 0.128868 0.240470
O O16 0.097899 0.405962 0.625437
O O17 0.000000 0.353582 0.713402
O O18 0.500000 0.315776 0.353850
O O19 0.624440 0.375561 0.353777
O O20 0.617891 0.236944 0.380472
O O21 0.839866 0.378573 0.500000
O O22 0.817542 0.500000 0.565175
#
# Coordination Sequence:
#
# PCOD8312589 Si02
#       8
#    16  16  16   8  16  16  16  16
#     4  10  20  33  54  83 112 147 191 238 288 342
#     4   9  16  27  46  75 109 143 181 225 268 308
#     4   8  15  26  42  67  98 127 159 203 252 297
#     4  11  24  38  56  86 122 154 180 218 274 331
#     4  11  18  35  56  82 110 145 186 227 273 329
#     4  10  19  32  50  74 100 132 174 215 258 314
#     4   9  18  32  49  72 101 134 176 223 273 328
#     4  10  21  35  48  66  97 132 169 218 269 317
#
# _framework density 18.644560999999999
#
# number of rings (size 3 to 8) (size 9 to 14) (size 15 to 20)
#    0.000    2.333    2.667    1.600    0.000    2.933 
#    0.000    3.333    0.000    1.600    0.000    1.867 
#    0.000    0.533    0.000    5.733    0.000    2.133 
#
# Total GULP energy -1486976.975138 kJ/mol
# GULP energy per Si atom -12391.474793 kJ/mol
# Density = 1.860213 g / cm^3
# Si number density = 18.644561 Si / 1000 Ang^3
#
#
#
# Elastic Constant Matrix: (Units=GPa)
#
#
# Indices 1 2 3 4 5 6 
#
# 1 100.4662 59.0211 24.4271 0.0000 0.0000 0.0000
# 2 59.0211 100.4662 24.4271 0.0000 0.0000 0.0000
# 3 24.4271 24.4271 42.0224 0.0000 0.0000 0.0000
# 4 0.0000 0.0000 0.0000 -185.8046 0.0000 0.0000
# 5 0.0000 0.0000 0.0000 0.0000 -185.8046 0.0000
# 6 0.0000 0.0000 0.0000 0.0000 0.0000 31.1223
#
#
#
# Elastic Compliance Matrix: (Units=1/GPa)
#
#
# Indices 1 2 3 4 5 6 
#
# 1 0.015878 -0.008250 -0.004434 0.000000 0.000000 0.000000
# 2 -0.008250 0.015878 -0.004434 0.000000 0.000000 0.000000
# 3 -0.004434 -0.004434 0.028952 0.000000 0.000000 0.000000
# 4 0.000000 0.000000 0.000000 -0.005382 0.000000 0.000000
# 5 0.000000 0.000000 0.000000 0.000000 -0.005382 0.000000
# 6 0.000000 0.000000 0.000000 0.000000 0.000000 0.032131
#
#
# Mechanical properties :
#
#
# Convention : Reuss Voigt Hill
#
# Bulk Modulus (GPa) = 37.77629 50.96730 44.37180
# Shear Modulus (GPa) = 39.95621 -59.09207 -9.56793
#
# Velocity S-wave (km/s) = 4.63433 -5.63585 -2.26779
# Velocity P-wave (km/s) = 6.99581 3.86714 4.12229
#
# Compressibility (1/GPa) = 0.02647163
#
# Stress axis : x y z
#
# Youngs Moduli (GPa) = 62.97887 62.97887 34.53989
#
# Poissons Ratio (x) = 0.51957 0.15316
# Poissons Ratio (y) = 0.51957 0.15316
# Poissons Ratio (z) = 0.27927 0.27927
#
# Static dielectric constant tensor:
#      x y z
#    x 3.655930 0.000000 0.000000 
#    y 0.000000 3.655930 0.000000 
#    z 0.000000 0.000000 3.111410 
# 
# 
# High freq. dielectric constant tensor:
#      x y z
#    x 1.726660 0.000000 0.000000 
#    y 0.000000 1.726660 0.000000 
#    z 0.000000 0.000000 1.668660 
# 
# From -- ./inp_files/6792.got.cif
#   From: 2010.03.12/outbox.cif.g09.slc.cpg/sg123_4_cif.got.tgz:6792.got - 2010.04.06 16:26:55.
