data_PCOD8312449
_publ_section_title
;
Structure prediction by ZEFSAII (Michael W. Deem and Ramdas Pophale) SiO2 
 PCOD8312449
Probable space group: P 4/M M M
;
_chemical_formula_sum "Si O2"
_cell_formula_units_Z 88
_cell_length_a 13.900903
_cell_length_b 13.900903
_cell_length_c 27.800463
_cell_angle_alpha 90.000000
_cell_angle_beta 90.000000
_cell_angle_gamma 90.000000
_cell_volume 5372.025365
_symmetry_space_group_name_H-M "P 4/M M M"
_symmetry_group_IT_number 123
_symmetry_cell_setting 'tetragonal'
loop_
_space_group_symop_operation_xyz
x,y,z
-y,x,z
-x,-y,z
y,-x,z
x,-y,-z
-x,y,-z
y,x,-z
-y,-x,-z
-x,-y,-z
y,-x,-z
x,y,-z
-y,x,-z
-x,y,z
x,-y,z
-y,-x,z
y,x,z
loop_
_atom_site_type_symbol
_atom_site_label
_atom_site_fract_x
_atom_site_fract_y
_atom_site_fract_z
Si Si1 0.106599 0.386213 0.817449
Si Si2 0.386022 0.230114 0.908280
Si Si3 0.234734 0.610123 0.269199
Si Si4 0.892244 0.386319 0.000000
Si Si5 0.610413 0.766935 0.378613
Si Si6 0.890024 0.265619 0.555401
O O1 0.097487 0.500000 0.819759
O O2 0.173996 0.351270 0.860776
O O3 0.151317 0.353208 0.766489
O O4 0.000000 0.340320 0.822117
O O5 0.500000 0.250775 0.908798
O O6 0.332541 0.332541 0.910547
O O7 0.352465 0.165018 0.952959
O O8 0.261334 0.500000 0.258294
O O9 0.331747 0.668254 0.259414
O O10 0.198051 0.624093 0.323697
O O11 0.901431 0.500000 0.000000
O O12 0.000000 0.341404 0.000000
O O13 0.500000 0.743721 0.390308
O O14 0.669753 0.669753 0.388988
O O15 0.645953 0.852852 0.412626
O O16 0.877661 0.295834 0.500000
O O17 0.830761 0.169240 0.567429
O O18 0.000000 0.243683 0.568361
#
# Coordination Sequence:
#
# PCOD8312449 Si02
#       6
#    16  16  16   8  16  16
#     4   9  17  29  44  62  86 116 149 186 224 257
#     4  10  19  30  45  66  93 122 150 181 217 262
#     4   9  17  29  45  66  92 120 149 181 218 263
#     4   9  17  30  47  65  87 117 151 185 219 254
#     4   9  18  31  46  66  93 124 157 191 225 265
#     4   9  18  32  49  69  92 117 147 186 232 281
#
# _framework density 16.381159
#
# number of rings (size 3 to 8) (size 9 to 14) (size 15 to 20)
#    0.000    2.818    0.000    1.364    0.000    4.364 
#    0.000    5.455    0.000    4.909    0.000    2.545 
#    0.000   27.636    0.000    0.000    0.000    0.000 
#
# Total GULP energy -1091118.695097 kJ/mol
# GULP energy per Si atom -12399.076081 kJ/mol
# Density = 1.634387 g / cm^3
# Si number density = 16.381159 Si / 1000 Ang^3
#
#
#
# Elastic Constant Matrix: (Units=GPa)
#
#
# Indices 1 2 3 4 5 6 
#
# 1 91.3293 44.9584 52.8025 0.0000 0.0000 0.0000
# 2 44.9584 91.3293 52.8025 0.0000 0.0000 0.0000
# 3 52.8025 52.8025 100.1680 0.0000 0.0000 0.0000
# 4 0.0000 0.0000 0.0000 23.4859 0.0000 0.0000
# 5 0.0000 0.0000 0.0000 0.0000 23.4859 0.0000
# 6 0.0000 0.0000 0.0000 0.0000 0.0000 11.5078
#
#
#
# Elastic Compliance Matrix: (Units=1/GPa)
#
#
# Indices 1 2 3 4 5 6 
#
# 1 0.016985 -0.004581 -0.006539 0.000000 0.000000 0.000000
# 2 -0.004581 0.016985 -0.006539 0.000000 0.000000 0.000000
# 3 -0.006539 -0.006539 0.016877 0.000000 0.000000 0.000000
# 4 0.000000 0.000000 0.000000 0.042579 0.000000 0.000000
# 5 0.000000 0.000000 0.000000 0.000000 0.042579 0.000000
# 6 0.000000 0.000000 0.000000 0.000000 0.000000 0.086897
#
#
# Mechanical properties :
#
#
# Convention : Reuss Voigt Hill
#
# Bulk Modulus (GPa) = 64.39057 64.88373 64.63715
# Shear Modulus (GPa) = 18.98301 20.51346 19.74824
#
# Velocity S-wave (km/s) = 3.40786 3.54257 3.47586
# Velocity P-wave (km/s) = 7.40795 7.51184 7.46008
#
# Compressibility (1/GPa) = 0.01553022
#
# Stress axis : x y z
#
# Youngs Moduli (GPa) = 58.87678 58.87678 59.25293
#
# Poissons Ratio (x) = 0.26969 0.38743
# Poissons Ratio (y) = 0.26969 0.38743
# Poissons Ratio (z) = 0.38497 0.38497
#
# Static dielectric constant tensor:
#      x y z
#    x 2.991180 0.000000 0.000000 
#    y 0.000000 2.991180 0.000000 
#    z 0.000000 0.000000 3.321340 
# 
# 
# High freq. dielectric constant tensor:
#      x y z
#    x 1.611370 0.000000 0.000000 
#    y 0.000000 1.611370 0.000000 
#    z 0.000000 0.000000 1.645580 
# 
# From -- ./inp_files/7178.got.cif
#   From: 2010.03.12/outbox.cif.g09.slc.cpg/sg123_4_cif.got.tgz:7178.got - 2010.04.06 16:26:55.
