data_PCOD8312134
_publ_section_title
;
Structure prediction by ZEFSAII (Michael W. Deem and Ramdas Pophale) SiO2 
 PCOD8312134
Probable space group: P 4/M M M
;
_chemical_formula_sum "Si O2"
_cell_formula_units_Z 128
_cell_length_a 21.910527
_cell_length_b 21.910527
_cell_length_c 18.277839
_cell_angle_alpha 90.000000
_cell_angle_beta 90.000000
_cell_angle_gamma 90.000000
_cell_volume 8774.663982
_symmetry_space_group_name_H-M "P 4/M M M"
_symmetry_group_IT_number 123
_symmetry_cell_setting 'tetragonal'
loop_
_space_group_symop_operation_xyz
x,y,z
-y,x,z
-x,-y,z
y,-x,z
x,-y,-z
-x,y,-z
y,x,-z
-y,-x,-z
-x,-y,-z
y,-x,-z
x,y,-z
-y,x,-z
-x,y,z
x,-y,z
-y,-x,z
y,x,z
loop_
_atom_site_type_symbol
_atom_site_label
_atom_site_fract_x
_atom_site_fract_y
_atom_site_fract_z
Si Si1 0.153980 0.256617 0.917862
Si Si2 0.307872 0.932943 0.416717
Si Si3 0.219215 0.316585 0.204519
Si Si4 0.567089 0.122159 0.582226
Si Si5 0.331845 0.570334 0.581926
Si Si6 0.769682 0.570038 0.695408
Si Si7 0.071860 0.826007 0.826685
Si Si8 0.768342 0.863067 0.303230
O O1 0.206313 0.206313 0.914779
O O2 0.179247 0.314425 0.870774
O O3 0.092926 0.224545 0.886319
O O4 0.140570 0.279469 0.000000
O O5 0.290245 0.920872 0.500000
O O6 0.380664 0.927620 0.404836
O O7 0.269093 0.885983 0.371382
O O8 0.289085 0.000000 0.391253
O O9 0.286503 0.286503 0.193649
O O10 0.225521 0.385960 0.233775
O O11 0.181702 0.275887 0.260416
O O12 0.573189 0.150673 0.500000
O O13 0.500000 0.091556 0.590368
O O14 0.575603 0.172061 0.644216
O O15 0.305174 0.582444 0.500000
O O16 0.347226 0.500000 0.592677
O O17 0.394591 0.605410 0.593881
O O18 0.285300 0.592575 0.643980
O O19 0.761191 0.500000 0.722685
O O20 0.111345 0.888656 0.834737
O O21 0.083101 0.794911 0.747809
O O22 0.000000 0.840812 0.836840
O O23 0.825264 0.825264 0.334643
#
# Coordination Sequence:
#
# PCOD8312134 Si02
#       8
#    16  16  16  16  16  16  16  16
#     4   8  15  28  45  64  85 109 136 165 197 237
#     4  10  19  29  42  59  79 105 138 176 214 251
#     4   9  16  27  44  63  82 105 135 170 206 245
#     4   9  17  28  40  55  79 110 139 168 206 252
#     4   9  17  27  38  54  78 111 150 186 218 252
#     4  10  17  26  41  59  83 110 136 173 215 256
#     4   9  17  28  44  65  89 117 141 166 201 240
#     4   9  17  30  44  59  82 108 137 173 211 248
#
# _framework density 14.587453
#
# number of rings (size 3 to 8) (size 9 to 14) (size 15 to 20)
#    0.000    2.875    1.250    2.625    0.000    2.500 
#    0.000    1.875    0.000    0.375    0.000    1.750 
#    0.000    0.000    0.000   14.875    0.000    0.000 
#
# Total GULP energy -1585981.729443 kJ/mol
# GULP energy per Si atom -12390.482261 kJ/mol
# Density = 1.455425 g / cm^3
# Si number density = 14.587453 Si / 1000 Ang^3
#
#
#
# Elastic Constant Matrix: (Units=GPa)
#
#
# Indices 1 2 3 4 5 6 
#
# 1 67.1514 22.1862 45.3079 0.0000 0.0000 0.0000
# 2 22.1862 67.1514 45.3079 0.0000 0.0000 0.0000
# 3 45.3079 45.3079 67.4119 0.0000 0.0000 0.0000
# 4 0.0000 0.0000 0.0000 14.8077 0.0000 0.0000
# 5 0.0000 0.0000 0.0000 0.0000 14.8077 0.0000
# 6 0.0000 0.0000 0.0000 0.0000 0.0000 16.7291
#
#
#
# Elastic Compliance Matrix: (Units=1/GPa)
#
#
# Indices 1 2 3 4 5 6 
#
# 1 0.028704 0.006465 -0.023637 0.000000 0.000000 0.000000
# 2 0.006465 0.028704 -0.023637 0.000000 0.000000 0.000000
# 3 -0.023637 -0.023637 0.046608 0.000000 0.000000 0.000000
# 4 0.000000 0.000000 0.000000 0.067532 0.000000 0.000000
# 5 0.000000 0.000000 0.000000 0.000000 0.067532 0.000000
# 6 0.000000 0.000000 0.000000 0.000000 0.000000 0.059776
#
#
# Mechanical properties :
#
#
# Convention : Reuss Voigt Hill
#
# Bulk Modulus (GPa) = 44.64976 47.47985 46.06480
# Shear Modulus (GPa) = 12.88854 15.19643 14.04249
#
# Velocity S-wave (km/s) = 2.97566 3.23111 3.10601
# Velocity P-wave (km/s) = 6.51773 6.82196 6.67158
#
# Compressibility (1/GPa) = 0.02239654
#
# Stress axis : x y z
#
# Youngs Moduli (GPa) = 34.83818 34.83818 21.45574
#
# Poissons Ratio (x) = -0.22522 0.50715
# Poissons Ratio (y) = -0.22522 0.50715
# Poissons Ratio (z) = 0.82348 0.82348
#
# Static dielectric constant tensor:
#      x y z
#    x 2.804690 0.000000 0.000000 
#    y 0.000000 2.804690 0.000000 
#    z 0.000000 0.000000 2.892290 
# 
# 
# High freq. dielectric constant tensor:
#      x y z
#    x 1.546970 0.000000 0.000000 
#    y 0.000000 1.546970 0.000000 
#    z 0.000000 0.000000 1.540710 
# 
# From -- ./inp_files/5993.got.cif
#   From: 2010.03.12/outbox.cif.g09.slc.cpg/sg123_3_cif.got.tgz:5993.got - 2010.04.06 16:26:55.
