data_PCOD8312275
_publ_section_title
;
Structure prediction by ZEFSAII (Michael W. Deem and Ramdas Pophale) SiO2 
 PCOD8312275
Probable space group: P 4/M M M
;
_chemical_formula_sum "Si O2"
_cell_formula_units_Z 104
_cell_length_a 26.115105
_cell_length_b 26.115105
_cell_length_c 7.989010
_cell_angle_alpha 90.000000
_cell_angle_beta 90.000000
_cell_angle_gamma 90.000000
_cell_volume 5448.494507
_symmetry_space_group_name_H-M "P 4/M M M"
_symmetry_group_IT_number 123
_symmetry_cell_setting 'tetragonal'
loop_
_space_group_symop_operation_xyz
x,y,z
-y,x,z
-x,-y,z
y,-x,z
x,-y,-z
-x,y,-z
y,x,-z
-y,-x,-z
-x,-y,-z
y,-x,-z
x,y,-z
-y,x,-z
-x,y,z
x,-y,z
-y,-x,z
y,x,z
loop_
_atom_site_type_symbol
_atom_site_label
_atom_site_fract_x
_atom_site_fract_y
_atom_site_fract_z
Si Si1 0.314419 0.603679 0.816553
Si Si2 0.942980 0.606657 0.192879
Si Si3 0.784404 0.348566 0.300101
Si Si4 0.280154 0.943046 0.302711
Si Si5 0.555811 0.153474 0.308577
Si Si6 0.836111 0.244268 0.301573
Si Si7 0.643969 0.557247 0.500000
O O1 0.368423 0.631578 0.831142
O O2 0.272678 0.646826 0.769693
O O3 0.319716 0.563037 0.664717
O O4 0.302504 0.578355 0.000000
O O5 0.930131 0.666309 0.216571
O O6 0.906154 0.570196 0.297832
O O7 0.000000 0.595611 0.258347
O O8 0.936805 0.592442 0.000000
O O9 0.785009 0.348148 0.500000
O O10 0.813925 0.398441 0.225083
O O11 0.810213 0.296419 0.231842
O O12 0.289311 0.941739 0.500000
O O13 0.241767 0.896609 0.248975
O O14 0.259657 0.000000 0.248374
O O15 0.551462 0.169472 0.500000
O O16 0.500000 0.163613 0.223098
O O17 0.831710 0.244431 0.500000
O O18 0.805212 0.194789 0.229628
O O19 0.621121 0.500000 0.500000
O O20 0.597492 0.597492 0.500000
#
# Coordination Sequence:
#
# PCOD8312275 Si02
#       7
#    16  16  16  16  16  16   8
#     4  10  21  37  58  83 109 140 176 209 249 308
#     4  10  20  33  49  67  90 123 163 208 254 298
#     4  10  18  32  51  74 101 136 170 209 262 310
#     4   9  16  29  49  69  92 125 164 203 245 297
#     4  10  21  35  50  69  93 123 164 212 255 297
#     4   9  16  26  46  75 101 127 162 206 256 307
#     4  10  22  41  64  88 114 140 169 213 261 313
#
# _framework density 19.087841999999998
#
# number of rings (size 3 to 8) (size 9 to 14) (size 15 to 20)
#    0.000    2.308    2.308    0.923    0.000    3.769 
#    0.000    1.538    0.000    0.462    0.000    2.154 
#    0.000    0.308    0.000    4.308    0.000    0.000 
#
# Total GULP energy -1288580.774127 kJ/mol
# GULP energy per Si atom -12390.199751 kJ/mol
# Density = 1.904440 g / cm^3
# Si number density = 19.087842 Si / 1000 Ang^3
#
#
#
# Elastic Constant Matrix: (Units=GPa)
#
#
# Indices 1 2 3 4 5 6 
#
# 1 101.6321 46.1307 18.6730 0.0000 0.0000 0.0000
# 2 46.1307 101.6321 18.6730 0.0000 0.0000 0.0000
# 3 18.6730 18.6730 50.1110 0.0000 0.0000 0.0000
# 4 0.0000 0.0000 0.0000 7.3771 0.0000 0.0000
# 5 0.0000 0.0000 0.0000 0.0000 7.3771 0.0000
# 6 0.0000 0.0000 0.0000 0.0000 0.0000 25.9825
#
#
#
# Elastic Compliance Matrix: (Units=1/GPa)
#
#
# Indices 1 2 3 4 5 6 
#
# 1 0.012744 -0.005273 -0.002784 0.000000 0.000000 0.000000
# 2 -0.005273 0.012744 -0.002784 0.000000 0.000000 0.000000
# 3 -0.002784 -0.002784 0.022031 0.000000 0.000000 0.000000
# 4 0.000000 0.000000 0.000000 0.135554 0.000000 0.000000
# 5 0.000000 0.000000 0.000000 0.000000 0.135554 0.000000
# 6 0.000000 0.000000 0.000000 0.000000 0.000000 0.038487
#
#
# Mechanical properties :
#
#
# Convention : Reuss Voigt Hill
#
# Bulk Modulus (GPa) = 38.70430 46.70316 42.70373
# Shear Modulus (GPa) = 12.90624 19.47393 16.19008
#
# Velocity S-wave (km/s) = 2.60311 3.19756 2.91553
# Velocity P-wave (km/s) = 5.41810 6.17682 5.80986
#
# Compressibility (1/GPa) = 0.02583692
#
# Stress axis : x y z
#
# Youngs Moduli (GPa) = 78.46586 78.46586 45.39157
#
# Poissons Ratio (x) = 0.41376 0.12637
# Poissons Ratio (y) = 0.41376 0.12637
# Poissons Ratio (z) = 0.21845 0.21845
#
# Static dielectric constant tensor:
#      x y z
#    x 3.586350 0.000000 0.000000 
#    y 0.000000 3.586350 0.000000 
#    z 0.000000 0.000000 3.416340 
# 
# 
# High freq. dielectric constant tensor:
#      x y z
#    x 1.722920 0.000000 0.000000 
#    y 0.000000 1.722920 0.000000 
#    z 0.000000 0.000000 1.726330 
# 
# From -- ./inp_files/1919.got.cif
#   From: 2010.03.12/outbox.cif.g09.slc.cpg/sg123_1_cif.got.tgz:1919.got - 2010.04.06 16:26:55.
