data_PCOD8312255
_publ_section_title
;
Structure prediction by ZEFSAII (Michael W. Deem and Ramdas Pophale) SiO2 
 PCOD8312255
Probable space group: P 4/M M M
;
_chemical_formula_sum "Si O2"
_cell_formula_units_Z 112
_cell_length_a 22.665788
_cell_length_b 22.665788
_cell_length_c 13.548179
_cell_angle_alpha 90.000000
_cell_angle_beta 90.000000
_cell_angle_gamma 90.000000
_cell_volume 6960.213647
_symmetry_space_group_name_H-M "P 4/M M M"
_symmetry_group_IT_number 123
_symmetry_cell_setting 'tetragonal'
loop_
_space_group_symop_operation_xyz
x,y,z
-y,x,z
-x,-y,z
y,-x,z
x,-y,-z
-x,y,-z
y,x,-z
-y,-x,-z
-x,-y,-z
y,-x,-z
x,y,-z
-y,x,-z
-x,y,z
x,-y,z
-y,-x,z
y,x,z
loop_
_atom_site_type_symbol
_atom_site_label
_atom_site_fract_x
_atom_site_fract_y
_atom_site_fract_z
Si Si1 0.933156 0.838594 0.386016
Si Si2 0.434295 0.877782 0.112066
Si Si3 0.313215 0.065979 0.885575
Si Si4 0.146873 0.242755 0.259423
Si Si5 0.567464 0.232801 0.251643
Si Si6 0.675399 0.229009 0.386296
Si Si7 0.338352 0.432607 0.112385
O O1 0.929467 0.820090 0.500000
O O2 0.900423 0.900423 0.367129
O O3 0.903584 0.786633 0.324860
O O4 0.000000 0.847040 0.350338
O O5 0.500000 0.905564 0.127628
O O6 0.383475 0.925736 0.132079
O O7 0.424034 0.825762 0.188698
O O8 0.429103 0.853128 0.000000
O O9 0.274589 0.115746 0.832094
O O10 0.297576 0.000000 0.847870
O O11 0.297491 0.072362 0.000000
O O12 0.193917 0.193917 0.220959
O O13 0.178736 0.290938 0.326329
O O14 0.500000 0.240029 0.287248
O O15 0.608605 0.233529 0.347689
O O16 0.588185 0.285613 0.181608
O O17 0.673515 0.209650 0.500000
O O18 0.708390 0.291611 0.373732
O O19 0.355322 0.500000 0.131046
O O20 0.395975 0.395975 0.140145
O O21 0.318128 0.421818 0.000000
#
# Coordination Sequence:
#
# PCOD8312255 Si02
#       7
#    16  16  16  16  16  16  16
#     4   9  17  29  47  71  96 123 155 190 231 278
#     4   9  17  30  48  70  96 124 154 191 234 279
#     4  10  20  33  50  73  99 125 156 193 231 275
#     4  10  19  33  50  68  95 127 159 193 232 278
#     4  10  18  30  48  68  93 123 155 194 239 286
#     4  10  20  33  49  69  93 121 157 202 245 282
#     4   9  17  28  43  65  93 125 159 193 231 278
#
# _framework density 16.091459
#
# number of rings (size 3 to 8) (size 9 to 14) (size 15 to 20)
#    0.000    2.429    1.429    1.714    0.000    4.571 
#    0.000    2.857    0.000    0.000    0.000    0.000 
#    0.000    2.286    0.000   26.571    0.000    0.286 
#
# Total GULP energy -1388572.661734 kJ/mol
# GULP energy per Si atom -12397.970194 kJ/mol
# Density = 1.605483 g / cm^3
# Si number density = 16.091459 Si / 1000 Ang^3
#
#
#
# Elastic Constant Matrix: (Units=GPa)
#
#
# Indices 1 2 3 4 5 6 
#
# 1 96.7385 46.7915 49.2718 0.0000 0.0000 0.0000
# 2 46.7915 96.7385 49.2718 0.0000 0.0000 0.0000
# 3 49.2718 49.2718 73.3443 0.0000 0.0000 0.0000
# 4 0.0000 0.0000 0.0000 25.8883 0.0000 0.0000
# 5 0.0000 0.0000 0.0000 0.0000 25.8883 0.0000
# 6 0.0000 0.0000 0.0000 0.0000 0.0000 20.2720
#
#
#
# Elastic Compliance Matrix: (Units=1/GPa)
#
#
# Indices 1 2 3 4 5 6 
#
# 1 0.016476 -0.003545 -0.008687 0.000000 0.000000 0.000000
# 2 -0.003545 0.016476 -0.008687 0.000000 0.000000 0.000000
# 3 -0.008687 -0.008687 0.025306 0.000000 0.000000 0.000000
# 4 0.000000 0.000000 0.000000 0.038627 0.000000 0.000000
# 5 0.000000 0.000000 0.000000 0.000000 0.038627 0.000000
# 6 0.000000 0.000000 0.000000 0.000000 0.000000 0.049329
#
#
# Mechanical properties :
#
#
# Convention : Reuss Voigt Hill
#
# Bulk Modulus (GPa) = 60.89983 61.94349 61.42166
# Shear Modulus (GPa) = 21.53726 22.50879 22.02303
#
# Velocity S-wave (km/s) = 3.66242 3.74412 3.70349
# Velocity P-wave (km/s) = 7.47079 7.56766 7.51938
#
# Compressibility (1/GPa) = 0.01642041
#
# Stress axis : x y z
#
# Youngs Moduli (GPa) = 60.69269 60.69269 39.51567
#
# Poissons Ratio (x) = 0.21514 0.34329
# Poissons Ratio (y) = 0.21514 0.34329
# Poissons Ratio (z) = 0.52726 0.52726
#
# Static dielectric constant tensor:
#      x y z
#    x 3.110910 0.000000 0.000000 
#    y 0.000000 3.110910 0.000000 
#    z 0.000000 0.000000 2.909290 
# 
# 
# High freq. dielectric constant tensor:
#      x y z
#    x 1.620780 0.000000 0.000000 
#    y 0.000000 1.620780 0.000000 
#    z 0.000000 0.000000 1.603390 
# 
# From -- ./inp_files/3377.got.cif
#   From: 2010.03.12/outbox.cif.g09.slc.cpg/sg123_2_cif.got.tgz:3377.got - 2010.04.06 16:26:55.
