data_PCOD8312684
_publ_section_title
;
Structure prediction by ZEFSAII (Michael W. Deem and Ramdas Pophale) SiO2 
 PCOD8312684
Probable space group: P 4/M M M
;
_chemical_formula_sum "Si O2"
_cell_formula_units_Z 56
_cell_length_a 19.339605
_cell_length_b 19.339605
_cell_length_c 9.161238
_cell_angle_alpha 90.000000
_cell_angle_beta 90.000000
_cell_angle_gamma 90.000000
_cell_volume 3426.489183
_symmetry_space_group_name_H-M "P 4/M M M"
_symmetry_group_IT_number 123
_symmetry_cell_setting 'tetragonal'
loop_
_space_group_symop_operation_xyz
x,y,z
-y,x,z
-x,-y,z
y,-x,z
x,-y,-z
-x,y,-z
y,x,-z
-y,-x,-z
-x,-y,-z
y,-x,-z
x,y,-z
-y,x,-z
-x,y,z
x,-y,z
-y,-x,z
y,x,z
loop_
_atom_site_type_symbol
_atom_site_label
_atom_site_fract_x
_atom_site_fract_y
_atom_site_fract_z
Si Si1 0.686251 0.577704 0.326379
Si Si2 0.920933 0.636786 0.828442
Si Si3 0.918676 0.500000 0.661905
Si Si4 0.200893 0.686547 0.331982
O O1 0.684940 0.575335 0.500000
O O2 0.689148 0.500000 0.260666
O O3 0.616737 0.616737 0.270754
O O4 0.753159 0.621539 0.276600
O O5 0.895359 0.566754 0.751168
O O6 0.868523 0.694273 0.765693
O O7 0.000000 0.656087 0.787890
O O8 0.912662 0.627914 0.000000
O O9 0.884069 0.500000 0.500000
O O10 0.000000 0.500000 0.645056
O O11 0.179389 0.676437 0.500000
O O12 0.242932 0.757069 0.311163
#
# Coordination Sequence:
#
# PCOD8312684 Si02
#       4
#    16  16   8  16
#     4   8  14  24  38  58  83 111 147 191 233 270
#     4  10  20  32  46  67  94 120 151 193 235 277
#     4   9  17  29  45  65  89 119 152 185 228 277
#     4   9  18  31  46  66  92 122 157 193 227 272
#
# _framework density 16.343260000000001
#
# number of rings (size 3 to 8) (size 9 to 14) (size 15 to 20)
#    0.000    3.000    0.000    3.000    2.000    4.286 
#    0.000    1.429    0.000    0.000    0.000    0.000 
#    0.000    0.571    0.000   12.571    0.000   10.857 
#
# Total GULP energy -694082.751817 kJ/mol
# GULP energy per Si atom -12394.334854 kJ/mol
# Density = 1.630606 g / cm^3
# Si number density = 16.343260 Si / 1000 Ang^3
#
#
#
# Elastic Constant Matrix: (Units=GPa)
#
#
# Indices 1 2 3 4 5 6 
#
# 1 93.8163 36.3671 39.0328 0.0000 0.0000 0.0000
# 2 36.3671 93.8163 39.0328 0.0000 0.0000 0.0000
# 3 39.0328 39.0328 67.2695 0.0000 0.0000 0.0000
# 4 0.0000 0.0000 0.0000 19.8127 0.0000 0.0000
# 5 0.0000 0.0000 0.0000 0.0000 19.8127 0.0000
# 6 0.0000 0.0000 0.0000 0.0000 0.0000 14.9633
#
#
#
# Elastic Compliance Matrix: (Units=1/GPa)
#
#
# Indices 1 2 3 4 5 6 
#
# 1 0.014594 -0.002813 -0.006836 0.000000 0.000000 0.000000
# 2 -0.002813 0.014594 -0.006836 0.000000 0.000000 0.000000
# 3 -0.006836 -0.006836 0.022798 0.000000 0.000000 0.000000
# 4 0.000000 0.000000 0.000000 0.050473 0.000000 0.000000
# 5 0.000000 0.000000 0.000000 0.000000 0.050473 0.000000
# 6 0.000000 0.000000 0.000000 0.000000 0.000000 0.066830
#
#
# Mechanical properties :
#
#
# Convention : Reuss Voigt Hill
#
# Bulk Modulus (GPa) = 52.58484 53.75192 53.16838
# Shear Modulus (GPa) = 19.29992 20.28236 19.79114
#
# Velocity S-wave (km/s) = 3.44017 3.52664 3.48367
# Velocity P-wave (km/s) = 6.92999 7.03872 6.98457
#
# Compressibility (1/GPa) = 0.01901689
#
# Stress axis : x y z
#
# Youngs Moduli (GPa) = 68.52334 68.52334 43.86323
#
# Poissons Ratio (x) = 0.19276 0.29983
# Poissons Ratio (y) = 0.19276 0.29983
# Poissons Ratio (z) = 0.46839 0.46839
#
# Static dielectric constant tensor:
#      x y z
#    x 3.068860 0.000000 0.000000 
#    y 0.000000 3.068860 0.000000 
#    z 0.000000 0.000000 2.833120 
# 
# 
# High freq. dielectric constant tensor:
#      x y z
#    x 1.613070 0.000000 0.000000 
#    y 0.000000 1.613070 0.000000 
#    z 0.000000 0.000000 1.605250 
# 
# From -- ./inp_files/578.got.cif
#   From: 2010.03.12/outbox.cif.g09.slc.cpg/sg123_1_cif.got.tgz:578.got - 2010.04.06 16:26:55.
