data_PCOD8312069
_publ_section_title
;
Structure prediction by ZEFSAII (Michael W. Deem and Ramdas Pophale) SiO2 
 PCOD8312069
Probable space group: I -4 2 D
;
_chemical_formula_sum "Si O2"
_cell_formula_units_Z 96
_cell_length_a 20.618395
_cell_length_b 20.618395
_cell_length_c 11.007314
_cell_angle_alpha 90.000000
_cell_angle_beta 90.000000
_cell_angle_gamma 90.000000
_cell_volume 4679.409651
_symmetry_space_group_name_H-M "I -4 2 D"
_symmetry_group_IT_number 122
_symmetry_cell_setting 'tetragonal'
loop_
_space_group_symop_operation_xyz
x,y,z
y,-x,-z
-x,-y,z
-y,x,-z
x,1/2-y,1/4-z
-x,1/2+y,1/4-z
-y,1/2-x,1/4+z
y,1/2+x,1/4+z
1/2+x,1/2+y,1/2+z
1/2+y,1/2-x,1/2-z
1/2-x,1/2-y,1/2+z
1/2-y,1/2+x,1/2-z
1/2+x,-y,3/4-z
1/2-x,y,3/4-z
1/2-y,-x,3/4+z
1/2+y,x,3/4+z
loop_
_atom_site_type_symbol
_atom_site_label
_atom_site_fract_x
_atom_site_fract_y
_atom_site_fract_z
Si Si1 0.217976 0.179011 0.604927
Si Si2 0.154766 0.882424 0.198859
Si Si3 0.438492 0.914457 0.759658
Si Si4 0.605068 0.339939 0.260353
Si Si5 0.698862 0.396082 0.086091
Si Si6 0.981856 0.676181 0.636810
O O1 0.250397 0.250000 0.625000
O O2 0.186591 0.155537 0.732035
O O3 0.270677 0.127369 0.560849
O O4 0.163383 0.185101 0.503479
O O5 0.224324 0.901751 0.140382
O O6 0.133502 0.939183 0.293120
O O7 0.102725 0.877106 0.091990
O O8 0.513006 0.912918 0.719594
O O9 0.433424 0.876958 0.885868
O O10 0.665976 0.382239 0.215832
O O11 0.557606 0.331206 0.143124
O O12 0.664048 0.461152 0.028027
O O13 0.956627 0.750000 0.625000
#
# Coordination Sequence:
#
# PCOD8312069 Si02
#       6
#    16  16  16  16  16  16
#     4   9  20  37  64  95 127 157 194 256 321 379
#     4   9  19  42  61  86 123 167 198 247 317 365
#     4  11  25  45  61  82 124 172 215 255 308 372
#     4  12  22  38  62  95 119 163 206 256 311 374
#     4   9  20  37  63  94 125 153 200 259 311 370
#     4   9  18  38  62  85 122 157 194 248 306 362
#
# _framework density 20.515408999999998
#
# number of rings (size 3 to 8) (size 9 to 14) (size 15 to 20)
#    0.000    2.167    1.667    3.500    2.333    0.667 
#   12.000    1.667    0.000    0.000    0.000    0.000 
#    0.000    0.000    0.000    0.000    0.000    0.000 
#
# Total GULP energy -595006.441203 kJ/mol
# GULP energy per Si atom -12395.967525 kJ/mol
# Density = 2.046872 g / cm^3
# Si number density = 20.515409 Si / 1000 Ang^3
#
#
#
# Elastic Constant Matrix: (Units=GPa)
#
#
# Indices 1 2 3 4 5 6 
#
# 1 87.5951 32.6542 28.9314 0.0000 0.0000 0.0000
# 2 32.6542 87.5951 28.9314 0.0000 0.0000 0.0000
# 3 28.9314 28.9314 64.2199 0.0000 0.0000 0.0000
# 4 0.0000 0.0000 0.0000 31.7786 0.0000 0.0000
# 5 0.0000 0.0000 0.0000 0.0000 31.7786 0.0000
# 6 0.0000 0.0000 0.0000 0.0000 0.0000 26.2587
#
#
#
# Elastic Compliance Matrix: (Units=1/GPa)
#
#
# Indices 1 2 3 4 5 6 
#
# 1 0.014410 -0.003792 -0.004783 0.000000 0.000000 0.000000
# 2 -0.003792 0.014410 -0.004783 0.000000 0.000000 0.000000
# 3 -0.004783 -0.004783 0.019881 0.000000 0.000000 0.000000
# 4 0.000000 0.000000 0.000000 0.031468 0.000000 0.000000
# 5 0.000000 0.000000 0.000000 0.000000 0.031468 0.000000
# 6 0.000000 0.000000 0.000000 0.000000 0.000000 0.038083
#
#
# Mechanical properties :
#
#
# Convention : Reuss Voigt Hill
#
# Bulk Modulus (GPa) = 45.48877 46.71601 46.10239
# Shear Modulus (GPa) = 27.20890 27.88938 27.54914
#
# Velocity S-wave (km/s) = 3.64574 3.69105 3.66847
# Velocity P-wave (km/s) = 6.32005 6.40201 6.36116
#
# Compressibility (1/GPa) = 0.02198345
#
# Stress axis : x y z
#
# Youngs Moduli (GPa) = 69.39830 69.39830 50.29834
#
# Poissons Ratio (x) = 0.26314 0.24060
# Poissons Ratio (y) = 0.26314 0.24060
# Poissons Ratio (z) = 0.33196 0.33196
#
# Static dielectric constant tensor:
#      x y z
#    x 3.615390 0.000000 0.000000 
#    y 0.000000 3.615390 0.000000 
#    z 0.000000 0.000000 3.691200 
# 
# 
# High freq. dielectric constant tensor:
#      x y z
#    x 1.789970 0.000000 0.000000 
#    y 0.000000 1.789970 0.000000 
#    z 0.000000 0.000000 1.794840 
# 
# From -- ./inp_files/4459.got.cif
#   From: 2010.03.12/outbox.cif.g09.slc.cpg/sg122_3_cif.got.tgz:4459.got - 2010.04.06 16:17:16.
