data_PCOD8312497
_publ_section_title
;
Structure prediction by ZEFSAII (Michael W. Deem and Ramdas Pophale) SiO2 
 PCOD8312497
Probable space group: P 4/M M M
;
_chemical_formula_sum "Si O2"
_cell_formula_units_Z 112
_cell_length_a 25.208732
_cell_length_b 25.208732
_cell_length_c 9.649569
_cell_angle_alpha 90.000000
_cell_angle_beta 90.000000
_cell_angle_gamma 90.000000
_cell_volume 6132.109739
_symmetry_space_group_name_H-M "P 4/M M M"
_symmetry_group_IT_number 123
_symmetry_cell_setting 'tetragonal'
loop_
_space_group_symop_operation_xyz
x,y,z
-y,x,z
-x,-y,z
y,-x,z
x,-y,-z
-x,y,-z
y,x,-z
-y,-x,-z
-x,-y,-z
y,-x,-z
x,y,-z
-y,x,-z
-x,y,z
x,-y,z
-y,-x,z
y,x,z
loop_
_atom_site_type_symbol
_atom_site_label
_atom_site_fract_x
_atom_site_fract_y
_atom_site_fract_z
Si Si1 0.643773 0.440751 0.164812
Si Si2 0.702769 0.789673 0.654716
Si Si3 0.257752 0.900417 0.661352
Si Si4 0.392343 0.245659 0.159879
Si Si5 0.059864 0.854629 0.665257
Si Si6 0.368953 0.058736 0.659548
Si Si7 0.440277 0.866061 0.158998
O O1 0.633537 0.500000 0.222973
O O2 0.598430 0.401570 0.224261
O O3 0.701520 0.421284 0.214553
O O4 0.641969 0.441376 0.000000
O O5 0.678782 0.799721 0.500000
O O6 0.753263 0.753263 0.642598
O O7 0.722964 0.844347 0.724472
O O8 0.660014 0.762209 0.751357
O O9 0.246814 0.891703 0.500000
O O10 0.202549 0.921412 0.726950
O O11 0.305724 0.941359 0.688759
O O12 0.432095 0.196559 0.180197
O O13 0.375296 0.251949 0.000000
O O14 0.060453 0.852882 0.500000
O O15 0.099155 0.900846 0.720129
O O16 0.000000 0.866371 0.717887
O O17 0.380017 0.073029 0.500000
O O18 0.398853 0.101811 0.750119
O O19 0.390164 0.000000 0.695464
O O20 0.500000 0.880118 0.205151
O O21 0.430780 0.882091 0.000000
#
# Coordination Sequence:
#
# PCOD8312497 Si02
#       7
#    16  16  16  16  16  16  16
#     4   9  17  29  47  72 101 133 168 206 247 292
#     4  10  19  30  48  74 102 131 163 203 250 300
#     4   9  16  29  46  66  94 126 163 204 249 297
#     4  10  19  33  52  74 101 132 168 205 248 300
#     4   9  16  25  39  61  91 129 170 209 250 298
#     4  10  20  34  53  75  98 128 169 213 253 296
#     4  10  21  36  53  73  99 133 170 206 249 304
#
# _framework density 18.264513000000001
#
# number of rings (size 3 to 8) (size 9 to 14) (size 15 to 20)
#    0.000    2.429    1.429    1.714    0.000    7.143 
#    0.000    2.857    0.000    1.286    0.000    0.000 
#    0.000    0.000    0.000    3.000    0.000    4.000 
#
# Total GULP energy -1388442.254171 kJ/mol
# GULP energy per Si atom -12396.805841 kJ/mol
# Density = 1.822294 g / cm^3
# Si number density = 18.264513 Si / 1000 Ang^3
#
#
#
# Elastic Constant Matrix: (Units=GPa)
#
#
# Indices 1 2 3 4 5 6 
#
# 1 137.9321 68.3030 31.1924 0.0000 0.0000 0.0000
# 2 68.3030 137.9321 31.1924 0.0000 0.0000 0.0000
# 3 31.1924 31.1924 32.7628 0.0000 0.0000 0.0000
# 4 0.0000 0.0000 0.0000 18.6695 0.0000 0.0000
# 5 0.0000 0.0000 0.0000 0.0000 18.6695 0.0000
# 6 0.0000 0.0000 0.0000 0.0000 0.0000 25.0926
#
#
#
# Elastic Compliance Matrix: (Units=1/GPa)
#
#
# Indices 1 2 3 4 5 6 
#
# 1 0.010586 -0.003776 -0.006484 0.000000 0.000000 0.000000
# 2 -0.003776 0.010586 -0.006484 0.000000 0.000000 0.000000
# 3 -0.006484 -0.006484 0.042868 0.000000 0.000000 0.000000
# 4 0.000000 0.000000 0.000000 0.053563 0.000000 0.000000
# 5 0.000000 0.000000 0.000000 0.000000 0.053563 0.000000
# 6 0.000000 0.000000 0.000000 0.000000 0.000000 0.039852
#
#
# Mechanical properties :
#
#
# Convention : Reuss Voigt Hill
#
# Bulk Modulus (GPa) = 32.72928 63.33362 48.03145
# Shear Modulus (GPa) = 19.63171 24.34893 21.99032
#
# Velocity S-wave (km/s) = 3.28206 3.65516 3.47362
# Velocity P-wave (km/s) = 5.68516 7.25015 6.51482
#
# Compressibility (1/GPa) = 0.03055368
#
# Stress axis : x y z
#
# Youngs Moduli (GPa) = 94.46475 94.46475 23.32734
#
# Poissons Ratio (x) = 0.35669 0.15125
# Poissons Ratio (y) = 0.35669 0.15125
# Poissons Ratio (z) = 0.61248 0.61248
#
# Static dielectric constant tensor:
#      x y z
#    x 3.529330 0.000000 0.000000 
#    y 0.000000 3.529330 0.000000 
#    z 0.000000 0.000000 2.938200 
# 
# 
# High freq. dielectric constant tensor:
#      x y z
#    x 1.719160 0.000000 0.000000 
#    y 0.000000 1.719160 0.000000 
#    z 0.000000 0.000000 1.645390 
# 
# From -- ./inp_files/3380.got.cif
#   From: 2010.03.12/outbox.cif.g09.slc.cpg/sg123_2_cif.got.tgz:3380.got - 2010.04.06 16:26:55.
