data_PCOD8312503
_publ_section_title
;
Structure prediction by ZEFSAII (Michael W. Deem and Ramdas Pophale) SiO2 
 PCOD8312503
Probable space group: P 4/M M M
;
_chemical_formula_sum "Si O2"
_cell_formula_units_Z 120
_cell_length_a 26.608622
_cell_length_b 26.608622
_cell_length_c 8.132436
_cell_angle_alpha 90.000000
_cell_angle_beta 90.000000
_cell_angle_gamma 90.000000
_cell_volume 5757.917291
_symmetry_space_group_name_H-M "P 4/M M M"
_symmetry_group_IT_number 123
_symmetry_cell_setting 'tetragonal'
loop_
_space_group_symop_operation_xyz
x,y,z
-y,x,z
-x,-y,z
y,-x,z
x,-y,-z
-x,y,-z
y,x,-z
-y,-x,-z
-x,-y,-z
y,-x,-z
x,y,-z
-y,x,-z
-x,y,z
x,-y,z
-y,-x,z
y,x,z
loop_
_atom_site_type_symbol
_atom_site_label
_atom_site_fract_x
_atom_site_fract_y
_atom_site_fract_z
Si Si1 0.319682 0.598014 0.817077
Si Si2 0.648469 0.941200 0.184421
Si Si3 0.245131 0.092722 0.810931
Si Si4 0.554775 0.362405 0.500000
Si Si5 0.615429 0.214521 0.688495
Si Si6 0.138143 0.942966 0.195593
Si Si7 0.119656 0.444310 0.307504
Si Si8 0.720771 0.200157 0.189167
O O1 0.351681 0.648320 0.789597
O O2 0.330440 0.559695 0.668160
O O3 0.261755 0.612805 0.808798
O O4 0.330782 0.575117 0.000000
O O5 0.702042 0.926686 0.270305
O O6 0.598175 0.921124 0.269865
O O7 0.642552 0.000000 0.186872
O O8 0.648940 0.918921 0.000000
O O9 0.193860 0.070261 0.731663
O O10 0.242491 0.152626 0.790326
O O11 0.246413 0.075255 0.000000
O O12 0.500000 0.386272 0.500000
O O13 0.592088 0.407913 0.500000
O O14 0.605447 0.230314 0.500000
O O15 0.574803 0.174222 0.752461
O O16 0.671183 0.191326 0.702528
O O17 0.095679 0.904322 0.264966
O O18 0.124167 0.000000 0.248828
O O19 0.139778 0.937988 0.000000
O O20 0.121298 0.450721 0.500000
O O21 0.108136 0.500000 0.229371
O O22 0.750961 0.249040 0.251796
O O23 0.704847 0.206550 0.000000
#
# Coordination Sequence:
#
# PCOD8312503 Si02
#       8
#    16  16  16   8  16  16  16  16
#     4  10  21  38  61  89 123 163 204 245 294 357
#     4  10  20  35  57  81 103 133 179 234 285 336
#     4   9  16  29  47  69 100 135 177 225 278 338
#     4  10  22  41  64  92 126 162 205 257 305 353
#     4  11  21  35  55  82 113 149 190 234 284 345
#     4   9  16  25  39  62  95 137 183 230 281 338
#     4  10  23  41  57  76 106 144 184 227 277 338
#     4  10  19  30  49  77 108 144 183 223 272 336
#
# _framework density 20.840868
#
# number of rings (size 3 to 8) (size 9 to 14) (size 15 to 20)
#    0.000    2.133    2.000    1.600    0.000    7.400 
#    0.000    2.000    0.000    0.000    0.000    1.867 
#    0.000    0.000    0.000    0.000    0.000    1.067 
#
# Total GULP energy -1487177.275754 kJ/mol
# GULP energy per Si atom -12393.143965 kJ/mol
# Density = 2.079343 g / cm^3
# Si number density = 20.840868 Si / 1000 Ang^3
#
#
#
# Elastic Constant Matrix: (Units=GPa)
#
#
# Indices 1 2 3 4 5 6 
#
# 1 138.8037 60.5043 19.3384 0.0000 0.0000 0.0000
# 2 60.5043 138.8051 19.3384 0.0000 0.0000 0.0000
# 3 19.3384 19.3384 54.6904 0.0000 0.0000 0.0000
# 4 0.0000 0.0000 0.0000 14.1642 0.0000 0.0000
# 5 0.0000 0.0000 0.0000 0.0000 14.1644 0.0000
# 6 0.0000 0.0000 0.0000 0.0000 0.0000 -5.4946
#
#
#
# Elastic Compliance Matrix: (Units=1/GPa)
#
#
# Indices 1 2 3 4 5 6 
#
# 1 0.009079 -0.003692 -0.001905 0.000000 0.000000 0.000000
# 2 -0.003692 0.009079 -0.001905 0.000000 0.000000 0.000000
# 3 -0.001905 -0.001905 0.019632 0.000000 0.000000 0.000000
# 4 0.000000 0.000000 0.000000 0.070601 0.000000 0.000000
# 5 0.000000 0.000000 0.000000 0.000000 0.070599 0.000000
# 6 0.000000 0.000000 0.000000 0.000000 0.000000 -0.181997
#
#
# Mechanical properties :
#
#
# Convention : Reuss Voigt Hill
#
# Bulk Modulus (GPa) = 43.88565 58.96238 51.42401
# Shear Modulus (GPa) = 255.20447 20.10801 137.65624
#
# Velocity S-wave (km/s) = 11.07789 3.10955 8.13600
# Velocity P-wave (km/s) = 13.59152 6.42227 10.62956
#
# Compressibility (1/GPa) = 0.02278649
#
# Stress axis : x y z
#
# Youngs Moduli (GPa) = 110.14159 110.14267 50.93770
#
# Poissons Ratio (x) = 0.40667 0.09703
# Poissons Ratio (y) = 0.40666 0.09703
# Poissons Ratio (z) = 0.20980 0.20980
#
# Static dielectric constant tensor:
#      x y z
#    x 3.861130 0.000000 0.000000 
#    y 0.000000 3.861130 0.000000 
#    z 0.000000 0.000000 3.530670 
# 
# 
# High freq. dielectric constant tensor:
#      x y z
#    x 1.816790 0.000000 0.000000 
#    y 0.000000 1.816790 0.000000 
#    z 0.000000 0.000000 1.777610 
# 
# From -- ./inp_files/2017.got.cif
#   From: 2010.03.12/outbox.cif.g09.slc.cpg/sg123_2_cif.got.tgz:2017.got - 2010.04.06 16:26:55.
