data_PCOD8312126
_publ_section_title
;
Structure prediction by ZEFSAII (Michael W. Deem and Ramdas Pophale) SiO2 
 PCOD8312126
Probable space group: P 4/M M M
;
_chemical_formula_sum "Si O2"
_cell_formula_units_Z 106
_cell_length_a 16.742093
_cell_length_b 16.742093
_cell_length_c 23.979178
_cell_angle_alpha 90.000000
_cell_angle_beta 90.000000
_cell_angle_gamma 90.000000
_cell_volume 6721.307914
_symmetry_space_group_name_H-M "P 4/M M M"
_symmetry_group_IT_number 123
_symmetry_cell_setting 'tetragonal'
loop_
_space_group_symop_operation_xyz
x,y,z
-y,x,z
-x,-y,z
y,-x,z
x,-y,-z
-x,y,-z
y,x,-z
-y,-x,-z
-x,-y,-z
y,-x,-z
x,y,-z
-y,x,-z
-x,y,z
x,-y,z
-y,-x,z
y,x,z
loop_
_atom_site_type_symbol
_atom_site_label
_atom_site_fract_x
_atom_site_fract_y
_atom_site_fract_z
Si Si1 0.686751 0.818396 0.835557
Si Si2 0.185914 0.315527 0.655393
Si Si3 0.500000 0.500000 0.886680
Si Si4 0.619421 0.380580 0.936367
Si Si5 0.908276 0.591771 0.564279
Si Si6 0.408585 0.804468 0.937408
Si Si7 0.223661 0.092091 0.745989
Si Si8 0.722787 0.406772 0.746488
O O1 0.754579 0.754579 0.850192
O O2 0.646362 0.851212 0.892442
O O3 0.726064 0.891967 0.802348
O O4 0.618130 0.777725 0.798200
O O5 0.247404 0.247404 0.636399
O O6 0.148300 0.352251 0.600283
O O7 0.116807 0.277431 0.693380
O O8 0.232243 0.383984 0.689468
O O9 0.567418 0.432583 0.895298
O O10 0.600755 0.288624 0.924290
O O11 0.597212 0.402789 0.000000
O O12 0.886337 0.606054 0.500000
O O13 0.893580 0.500000 0.580830
O O14 0.000000 0.614686 0.575568
O O15 0.500000 0.831429 0.930468
O O16 0.378548 0.824399 0.000000
O O17 0.142149 0.142149 0.746564
O O18 0.200658 0.000000 0.741822
O O19 0.704329 0.500000 0.748282
O O20 0.637791 0.362210 0.749892
#
# Coordination Sequence:
#
# PCOD8312126 Si02
#       8
#    16  16   2   8  16  16  16  16
#     4   9  17  29  44  60  84 113 142 178 212 255
#     4   9  17  29  46  67  90 119 149 179 215 261
#     4  12  17  24  32  48  88 120 148 192 232 260
#     4  10  17  22  32  50  76 112 147 182 218 254
#     4   9  17  28  43  65  93 123 153 188 225 253
#     4  10  18  26  39  58  81 114 151 185 221 255
#     4   9  18  32  51  74  93 111 134 165 212 266
#     4   9  17  28  42  58  80 113 151 190 228 257
#
# _framework density 15.77074
#
# number of rings (size 3 to 8) (size 9 to 14) (size 15 to 20)
#    0.000    2.717    1.509    3.962    0.000    0.604 
#    0.000    0.000    0.000    9.509    0.000    1.057 
#    0.000    0.000    0.000   31.396    0.000    0.000 
#
# Total GULP energy -1313345.249008 kJ/mol
# GULP energy per Si atom -12390.049519 kJ/mol
# Density = 1.573485 g / cm^3
# Si number density = 15.770740 Si / 1000 Ang^3
#
#
#
# Elastic Constant Matrix: (Units=GPa)
#
#
# Indices 1 2 3 4 5 6 
#
# 1 74.0598 27.5337 33.3453 0.0000 0.0000 0.0000
# 2 27.5337 74.0597 33.3453 0.0000 0.0000 0.0000
# 3 33.3453 33.3453 86.9087 0.0000 0.0000 0.0000
# 4 0.0000 0.0000 0.0000 19.3453 0.0000 0.0000
# 5 0.0000 0.0000 0.0000 0.0000 19.3453 0.0000
# 6 0.0000 0.0000 0.0000 0.0000 0.0000 13.7927
#
#
#
# Elastic Compliance Matrix: (Units=1/GPa)
#
#
# Indices 1 2 3 4 5 6 
#
# 1 0.017325 -0.004168 -0.005048 0.000000 0.000000 0.000000
# 2 -0.004168 0.017325 -0.005048 0.000000 0.000000 0.000000
# 3 -0.005048 -0.005048 0.015380 0.000000 0.000000 0.000000
# 4 0.000000 0.000000 0.000000 0.051692 0.000000 0.000000
# 5 0.000000 0.000000 0.000000 0.000000 0.051692 0.000000
# 6 0.000000 0.000000 0.000000 0.000000 0.000000 0.072502
#
#
# Mechanical properties :
#
#
# Convention : Reuss Voigt Hill
#
# Bulk Modulus (GPa) = 46.50814 47.05296 46.78055
# Shear Modulus (GPa) = 19.11221 19.88357 19.49789
#
# Velocity S-wave (km/s) = 3.48498 3.55461 3.51997
# Velocity P-wave (km/s) = 6.76370 6.83721 6.80055
#
# Compressibility (1/GPa) = 0.02150161
#
# Stress axis : x y z
#
# Youngs Moduli (GPa) = 57.71961 57.71956 65.01927
#
# Poissons Ratio (x) = 0.24059 0.32822
# Poissons Ratio (y) = 0.24059 0.32822
# Poissons Ratio (z) = 0.29137 0.29137
#
# Static dielectric constant tensor:
#      x y z
#    x 2.856940 0.000000 0.000000 
#    y 0.000000 2.856940 0.000000 
#    z 0.000000 0.000000 2.968880 
# 
# 
# High freq. dielectric constant tensor:
#      x y z
#    x 1.589930 0.000000 0.000000 
#    y 0.000000 1.589930 0.000000 
#    z 0.000000 0.000000 1.599780 
# 
# From -- ./inp_files/6741.got.cif
#   From: 2010.03.12/outbox.cif.g09.slc.cpg/sg123_4_cif.got.tgz:6741.got - 2010.04.06 16:26:55.
