data_PCOD8312087
_publ_section_title
;
Structure prediction by ZEFSAII (Michael W. Deem and Ramdas Pophale) SiO2 
 PCOD8312087
Probable space group: I -4 2 D
;
_chemical_formula_sum "Si O2"
_cell_formula_units_Z 68
_cell_length_a 13.976689
_cell_length_b 13.976689
_cell_length_c 18.858067
_cell_angle_alpha 90.000000
_cell_angle_beta 90.000000
_cell_angle_gamma 90.000000
_cell_volume 3683.882568
_symmetry_space_group_name_H-M "I -4 2 D"
_symmetry_group_IT_number 122
_symmetry_cell_setting 'tetragonal'
loop_
_space_group_symop_operation_xyz
x,y,z
y,-x,-z
-x,-y,z
-y,x,-z
x,1/2-y,1/4-z
-x,1/2+y,1/4-z
-y,1/2-x,1/4+z
y,1/2+x,1/4+z
1/2+x,1/2+y,1/2+z
1/2+y,1/2-x,1/2-z
1/2-x,1/2-y,1/2+z
1/2-y,1/2+x,1/2-z
1/2+x,-y,3/4-z
1/2-x,y,3/4-z
1/2-y,-x,3/4+z
1/2+y,x,3/4+z
loop_
_atom_site_type_symbol
_atom_site_label
_atom_site_fract_x
_atom_site_fract_y
_atom_site_fract_z
Si Si1 0.316861 0.804006 0.052145
Si Si2 0.000000 0.000000 0.500000
Si Si3 0.993050 0.384805 0.908270
Si Si4 0.317669 0.207117 0.047134
Si Si5 0.695885 0.504748 0.001450
O O1 0.295708 0.750000 0.125000
O O2 0.326510 0.916993 0.060925
O O3 0.230947 0.779182 0.997017
O O4 0.418519 0.773196 0.019786
O O5 0.098470 0.015363 0.452376
O O6 0.904279 0.343190 0.953436
O O7 0.000000 0.500000 0.916651
O O8 0.975979 0.351119 0.827968
O O9 0.308440 0.250000 0.125000
O O10 0.399880 0.262117 0.004015
#
# Coordination Sequence:
#
# PCOD8312087 Si02
#       5
#    16   4  16  16  16
#     4  12  24  40  62  94 134 173 211 261 330 385
#     4  12  16  28  52  96 124 156 192 228 314 388
#     4  12  24  39  65 100 134 168 219 266 324 394
#     4  12  24  40  62  94 134 173 211 261 330 385
#     4  12  21  33  61  94 132 165 199 258 325 387
#
# _framework density 18.458787000000001
#
# number of rings (size 3 to 8) (size 9 to 14) (size 15 to 20)
#    0.000    0.000   10.588    0.706    0.000    0.000 
#    0.000    1.176    0.000    0.706    0.000    0.000 
#    0.000    0.000    0.000    0.000    0.000    0.000 
#
# Total GULP energy -421248.533702 kJ/mol
# GULP energy per Si atom -12389.662756 kJ/mol
# Density = 1.841677 g / cm^3
# Si number density = 18.458787 Si / 1000 Ang^3
#
#
#
# Elastic Constant Matrix: (Units=GPa)
#
#
# Indices 1 2 3 4 5 6 
#
# 1 114.4499 23.7791 38.3974 0.0000 0.0000 0.0000
# 2 23.7791 114.4498 38.3974 0.0000 0.0000 0.0000
# 3 38.3974 38.3974 67.7440 0.0000 0.0000 0.0000
# 4 0.0000 0.0000 0.0000 29.9872 0.0000 0.0000
# 5 0.0000 0.0000 0.0000 0.0000 29.9872 0.0000
# 6 0.0000 0.0000 0.0000 0.0000 0.0000 27.0882
#
#
#
# Elastic Compliance Matrix: (Units=1/GPa)
#
#
# Indices 1 2 3 4 5 6 
#
# 1 0.010794 -0.000235 -0.005985 0.000000 0.000000 0.000000
# 2 -0.000235 0.010794 -0.005985 0.000000 0.000000 0.000000
# 3 -0.005985 -0.005985 0.021546 0.000000 0.000000 0.000000
# 4 0.000000 0.000000 0.000000 0.033348 0.000000 0.000000
# 5 0.000000 0.000000 0.000000 0.000000 0.033348 0.000000
# 6 0.000000 0.000000 0.000000 0.000000 0.000000 0.036916
#
#
# Mechanical properties :
#
#
# Convention : Reuss Voigt Hill
#
# Bulk Modulus (GPa) = 53.40553 55.31019 54.35786
# Shear Modulus (GPa) = 28.18526 30.48384 29.33455
#
# Velocity S-wave (km/s) = 3.91183 4.06822 3.99079
# Velocity P-wave (km/s) = 7.02840 7.21778 7.12372
#
# Compressibility (1/GPa) = 0.01872465
#
# Stress axis : x y z
#
# Youngs Moduli (GPa) = 92.64229 92.64229 46.41183
#
# Poissons Ratio (x) = 0.02174 0.27778
# Poissons Ratio (y) = 0.02174 0.27778
# Poissons Ratio (z) = 0.55448 0.55448
#
# Static dielectric constant tensor:
#      x y z
#    x 3.623070 0.000000 0.000000 
#    y 0.000000 3.623070 0.000000 
#    z 0.000000 0.000000 3.395480 
# 
# 
# High freq. dielectric constant tensor:
#      x y z
#    x 1.716560 0.000000 0.000000 
#    y 0.000000 1.716560 0.000000 
#    z 0.000000 0.000000 1.696810 
# 
# From -- ./inp_files/7040.got.cif
#   From: 2010.03.12/outbox.cif.g09.slc.cpg/sg122_4_cif.got.tgz:7040.got - 2010.04.06 16:17:16.
