data_PCOD8312425
_publ_section_title
;
Structure prediction by ZEFSAII (Michael W. Deem and Ramdas Pophale) SiO2 
 PCOD8312425
Probable space group: P 4/M M M
;
_chemical_formula_sum "Si O2"
_cell_formula_units_Z 56
_cell_length_a 14.059747
_cell_length_b 14.059747
_cell_length_c 17.960060
_cell_angle_alpha 90.000000
_cell_angle_beta 90.000000
_cell_angle_gamma 90.000000
_cell_volume 3550.281544
_symmetry_space_group_name_H-M "P 4/M M M"
_symmetry_group_IT_number 123
_symmetry_cell_setting 'tetragonal'
loop_
_space_group_symop_operation_xyz
x,y,z
-y,x,z
-x,-y,z
y,-x,z
x,-y,-z
-x,y,-z
y,x,-z
-y,-x,-z
-x,-y,-z
y,-x,-z
x,y,-z
-y,x,-z
-x,y,z
x,-y,z
-y,-x,z
y,x,z
loop_
_atom_site_type_symbol
_atom_site_label
_atom_site_fract_x
_atom_site_fract_y
_atom_site_fract_z
Si Si1 0.609177 0.762227 0.916875
Si Si2 0.110520 0.608255 0.219027
Si Si3 0.887569 0.393124 0.500000
Si Si4 0.267919 0.112426 0.639651
O O1 0.500000 0.734926 0.905890
O O2 0.665804 0.665804 0.902987
O O3 0.641962 0.840004 0.857002
O O4 0.628047 0.803327 0.000000
O O5 0.137946 0.500000 0.240781
O O6 0.141448 0.677545 0.285295
O O7 0.000000 0.616746 0.203216
O O8 0.843352 0.500000 0.500000
O O9 0.854009 0.335709 0.572542
O O10 0.000000 0.402543 0.500000
O O11 0.168164 0.168164 0.635527
O O12 0.245480 0.000000 0.635612
#
# Coordination Sequence:
#
# PCOD8312425 Si02
#       4
#    16  16   8  16
#     4   9  17  28  42  61  85 112 141 174 213 259
#     4   9  17  29  45  64  85 110 142 181 221 255
#     4   9  17  30  47  65  85 109 139 175 211 244
#     4  10  19  30  45  65  90 118 145 174 209 251
#
# _framework density 15.773396999999999
#
# number of rings (size 3 to 8) (size 9 to 14) (size 15 to 20)
#    0.000    2.714    0.000    2.143    0.000    4.571 
#    0.000    4.286    0.000    2.571    0.000    0.000 
#    0.000   21.714    0.000   26.571    0.000    0.571 
#
# Total GULP energy -694278.406601 kJ/mol
# GULP energy per Si atom -12397.828689 kJ/mol
# Density = 1.573750 g / cm^3
# Si number density = 15.773397 Si / 1000 Ang^3
#
#
#
# Elastic Constant Matrix: (Units=GPa)
#
#
# Indices 1 2 3 4 5 6 
#
# 1 68.3958 45.6736 56.9335 0.0000 0.0000 0.0000
# 2 45.6736 68.3958 56.9335 0.0000 0.0000 0.0000
# 3 56.9335 56.9335 137.4116 0.0000 0.0000 0.0000
# 4 0.0000 0.0000 0.0000 22.2329 0.0000 0.0000
# 5 0.0000 0.0000 0.0000 0.0000 22.2329 0.0000
# 6 0.0000 0.0000 0.0000 0.0000 0.0000 24.9927
#
#
#
# Elastic Compliance Matrix: (Units=1/GPa)
#
#
# Indices 1 2 3 4 5 6 
#
# 1 0.029480 -0.014530 -0.006194 0.000000 0.000000 0.000000
# 2 -0.014530 0.029480 -0.006194 0.000000 0.000000 0.000000
# 3 -0.006194 -0.006194 0.012410 0.000000 0.000000 0.000000
# 4 0.000000 0.000000 0.000000 0.044978 0.000000 0.000000
# 5 0.000000 0.000000 0.000000 0.000000 0.044978 0.000000
# 6 0.000000 0.000000 0.000000 0.000000 0.000000 0.040012
#
#
# Mechanical properties :
#
#
# Convention : Reuss Voigt Hill
#
# Bulk Modulus (GPa) = 57.03459 65.92051 61.47755
# Shear Modulus (GPa) = 19.15570 21.53588 20.34579
#
# Velocity S-wave (km/s) = 3.48865 3.69905 3.59539
# Velocity P-wave (km/s) = 7.24326 7.75415 7.50305
#
# Compressibility (1/GPa) = 0.01753322
#
# Stress axis : x y z
#
# Youngs Moduli (GPa) = 33.92156 33.92156 80.57912
#
# Poissons Ratio (x) = 0.49288 0.49911
# Poissons Ratio (y) = 0.49288 0.49911
# Poissons Ratio (z) = 0.21011 0.21011
#
# Static dielectric constant tensor:
#      x y z
#    x 2.884940 0.000000 0.000000 
#    y 0.000000 2.884940 0.000000 
#    z 0.000000 0.000000 3.265760 
# 
# 
# High freq. dielectric constant tensor:
#      x y z
#    x 1.590270 0.000000 0.000000 
#    y 0.000000 1.590270 0.000000 
#    z 0.000000 0.000000 1.623160 
# 
# From -- ./inp_files/3669.got.cif
#   From: 2010.03.12/outbox.cif.g09.slc.cpg/sg123_2_cif.got.tgz:3669.got - 2010.04.06 16:26:55.
