data_PCOD8312854
_publ_section_title
;
Structure prediction by ZEFSAII (Michael W. Deem and Ramdas Pophale) SiO2 
 PCOD8312854
Probable space group: P 4/M M M
;
_chemical_formula_sum "Si O2"
_cell_formula_units_Z 88
_cell_length_a 18.727396
_cell_length_b 18.727396
_cell_length_c 13.146797
_cell_angle_alpha 90.000000
_cell_angle_beta 90.000000
_cell_angle_gamma 90.000000
_cell_volume 4610.783655
_symmetry_space_group_name_H-M "P 4/M M M"
_symmetry_group_IT_number 123
_symmetry_cell_setting 'tetragonal'
loop_
_space_group_symop_operation_xyz
x,y,z
-y,x,z
-x,-y,z
y,-x,z
x,-y,-z
-x,y,-z
y,x,-z
-y,-x,-z
-x,-y,-z
y,-x,-z
x,y,-z
-y,x,-z
-x,y,z
x,-y,z
-y,-x,z
y,x,z
loop_
_atom_site_type_symbol
_atom_site_label
_atom_site_fract_x
_atom_site_fract_y
_atom_site_fract_z
Si Si1 0.080731 0.193944 0.379177
Si Si2 0.771369 0.228632 0.877472
Si Si3 0.305304 0.694696 0.302830
Si Si4 0.922279 0.282118 0.117067
Si Si5 0.919000 0.577239 0.222024
Si Si6 0.154455 0.661543 0.382702
Si Si7 0.583322 0.416679 0.380979
O O1 0.084562 0.195745 0.500000
O O2 0.128550 0.128550 0.337472
O O3 0.112377 0.268978 0.338327
O O4 0.000000 0.183108 0.340468
O O5 0.718439 0.281562 0.812854
O O6 0.759946 0.146684 0.841856
O O7 0.759052 0.240949 0.000000
O O8 0.238259 0.667004 0.366050
O O9 0.366717 0.633284 0.307993
O O10 0.906585 0.365974 0.132591
O O11 0.000000 0.260303 0.167353
O O12 0.929057 0.265862 0.000000
O O13 0.896099 0.500000 0.178758
O O14 0.872427 0.593365 0.321407
O O15 0.000000 0.577052 0.259556
O O16 0.136995 0.649907 0.500000
O O17 0.599780 0.500000 0.357040
O O18 0.599170 0.400831 0.500000
#
# Coordination Sequence:
#
# PCOD8312854 Si02
#       7
#    16   8   8  16  16  16   8
#     4   9  17  29  45  65  92 131 178 223 267 313
#     4  10  20  37  61  89 117 144 185 240 289 338
#     4  12  21  36  60  85 111 143 183 229 281 335
#     4   9  18  35  59  84 112 148 187 230 285 344
#     4  10  21  35  51  75 107 144 186 228 274 330
#     4  11  21  34  51  75 108 145 183 225 272 327
#     4   9  20  40  64  90 120 154 192 231 271 322
#
# _framework density 19.085692000000002
#
# number of rings (size 3 to 8) (size 9 to 14) (size 15 to 20)
#    0.000    2.091    2.727    1.636    0.000    2.727 
#    0.000    3.636    0.000    0.818    0.000    2.545 
#    0.000    0.000    0.000    0.000    0.000    0.000 
#
# Total GULP energy -1090467.142048 kJ/mol
# GULP energy per Si atom -12391.672069 kJ/mol
# Density = 1.904225 g / cm^3
# Si number density = 19.085692 Si / 1000 Ang^3
#
#
#
# Elastic Constant Matrix: (Units=GPa)
#
#
# Indices 1 2 3 4 5 6 
#
# 1 116.7220 65.0662 8.9065 0.0000 0.0000 0.0000
# 2 65.0662 116.7221 8.9065 0.0000 0.0000 0.0000
# 3 8.9065 8.9065 42.4304 0.0000 0.0000 0.0000
# 4 0.0000 0.0000 0.0000 18.6241 0.0000 0.0000
# 5 0.0000 0.0000 0.0000 0.0000 18.6242 0.0000
# 6 0.0000 0.0000 0.0000 0.0000 0.0000 30.8844
#
#
#
# Elastic Compliance Matrix: (Units=1/GPa)
#
#
# Indices 1 2 3 4 5 6 
#
# 1 0.012488 -0.006871 -0.001179 0.000000 0.000000 0.000000
# 2 -0.006871 0.012488 -0.001179 0.000000 0.000000 0.000000
# 3 -0.001179 -0.001179 0.024063 0.000000 0.000000 0.000000
# 4 0.000000 0.000000 0.000000 0.053694 0.000000 0.000000
# 5 0.000000 0.000000 0.000000 0.000000 0.053694 0.000000
# 6 0.000000 0.000000 0.000000 0.000000 0.000000 0.032379
#
#
# Mechanical properties :
#
#
# Convention : Reuss Voigt Hill
#
# Bulk Modulus (GPa) = 32.70108 49.07034 40.88571
# Shear Modulus (GPa) = 22.99315 26.49289 24.74302
#
# Velocity S-wave (km/s) = 3.47469 3.72977 3.60449
# Velocity P-wave (km/s) = 5.76793 6.65692 6.22830
#
# Compressibility (1/GPa) = 0.03058003
#
# Stress axis : x y z
#
# Youngs Moduli (GPa) = 80.07898 80.07903 41.55771
#
# Poissons Ratio (x) = 0.55024 0.04899
# Poissons Ratio (y) = 0.55024 0.04899
# Poissons Ratio (z) = 0.09441 0.09441
#
# Static dielectric constant tensor:
#      x y z
#    x 3.767800 0.000000 0.000000 
#    y 0.000000 3.767800 0.000000 
#    z 0.000000 0.000000 3.314360 
# 
# 
# High freq. dielectric constant tensor:
#      x y z
#    x 1.737190 0.000000 0.000000 
#    y 0.000000 1.737190 0.000000 
#    z 0.000000 0.000000 1.734140 
# 
# From -- ./inp_files/4121.got.cif
#   From: 2010.03.12/outbox.cif.g09.slc.cpg/sg123_3_cif.got.tgz:4121.got - 2010.04.06 16:26:55.
