data_PCOD8312814
_publ_section_title
;
Structure prediction by ZEFSAII (Michael W. Deem and Ramdas Pophale) SiO2 
 PCOD8312814
Probable space group: P 4/M M M
;
_chemical_formula_sum "Si O2"
_cell_formula_units_Z 120
_cell_length_a 27.360598
_cell_length_b 27.360598
_cell_length_c 9.234886
_cell_angle_alpha 90.000000
_cell_angle_beta 90.000000
_cell_angle_gamma 90.000000
_cell_volume 6913.257111
_symmetry_space_group_name_H-M "P 4/M M M"
_symmetry_group_IT_number 123
_symmetry_cell_setting 'tetragonal'
loop_
_space_group_symop_operation_xyz
x,y,z
-y,x,z
-x,-y,z
y,-x,z
x,-y,-z
-x,y,-z
y,x,-z
-y,-x,-z
-x,-y,-z
y,-x,-z
x,y,-z
-y,x,-z
-x,y,z
x,-y,z
-y,-x,z
y,x,z
loop_
_atom_site_type_symbol
_atom_site_label
_atom_site_fract_x
_atom_site_fract_y
_atom_site_fract_z
Si Si1 0.821870 0.555786 0.833318
Si Si2 0.801854 0.877439 0.329538
Si Si3 0.080179 0.388002 0.830196
Si Si4 0.000000 0.557218 0.337992
Si Si5 0.365737 0.555750 0.831834
Si Si6 0.287967 0.942952 0.670724
Si Si7 0.054454 0.870352 0.161073
Si Si8 0.727814 0.558085 0.337470
O O1 0.836346 0.500000 0.788545
O O2 0.864955 0.593886 0.803128
O O3 0.776654 0.576389 0.741143
O O4 0.806058 0.556364 0.000000
O O5 0.800196 0.876570 0.500000
O O6 0.822850 0.822850 0.276781
O O7 0.750158 0.900394 0.275543
O O8 0.840615 0.916524 0.279211
O O9 0.047222 0.427612 0.751280
O O10 0.069981 0.335844 0.760344
O O11 0.067530 0.385967 0.000000
O O12 0.000000 0.500000 0.353356
O O13 0.000000 0.580878 0.500000
O O14 0.376877 0.500000 0.787303
O O15 0.413665 0.586335 0.791131
O O16 0.319968 0.577934 0.744584
O O17 0.352514 0.559871 0.000000
O O18 0.298112 0.937760 0.500000
O O19 0.271947 0.000000 0.703894
O O20 0.074683 0.925318 0.154755
O O21 0.000000 0.872600 0.217887
O O22 0.058590 0.846386 0.000000
O O23 0.727634 0.578808 0.500000
O O24 0.726802 0.500000 0.334010
#
# Coordination Sequence:
#
# PCOD8312814 Si02
#       8
#    16  16  16   8  16  16  16  16
#     4   9  18  33  52  73  98 128 164 208 255 300
#     4   9  18  33  53  74  94 122 162 206 252 300
#     4  11  22  35  53  78 106 138 177 215 252 302
#     4  11  23  37  53  75 109 149 181 211 250 301
#     4   9  17  29  46  69  99 136 175 216 265 321
#     4  10  20  34  52  74 104 138 171 213 264 317
#     4   9  17  28  42  63  91 121 153 190 232 281
#     4   9  17  29  47  71  96 124 163 210 255 300
#
# _framework density 17.357953999999999
#
# number of rings (size 3 to 8) (size 9 to 14) (size 15 to 20)
#    0.000    2.467    0.667    1.800    0.000    5.600 
#    0.000    2.667    0.000    0.800    0.000    7.467 
#    0.000    0.000    0.000    0.000    0.000    0.000 
#
# Total GULP energy -1486702.772777 kJ/mol
# GULP energy per Si atom -12389.189773 kJ/mol
# Density = 1.731845 g / cm^3
# Si number density = 17.357954 Si / 1000 Ang^3
#
#
#
# Elastic Constant Matrix: (Units=GPa)
#
#
# Indices 1 2 3 4 5 6 
#
# 1 90.9015 50.4086 45.1165 0.0000 0.0000 0.0000
# 2 50.4086 90.9015 45.1165 0.0000 0.0000 0.0000
# 3 45.1165 45.1165 58.5372 0.0000 0.0000 0.0000
# 4 0.0000 0.0000 0.0000 21.6002 0.0000 0.0000
# 5 0.0000 0.0000 0.0000 0.0000 21.6002 0.0000
# 6 0.0000 0.0000 0.0000 0.0000 0.0000 2.4303
#
#
#
# Elastic Compliance Matrix: (Units=1/GPa)
#
#
# Indices 1 2 3 4 5 6 
#
# 1 0.019315 -0.005381 -0.010740 0.000000 0.000000 0.000000
# 2 -0.005381 0.019315 -0.010740 0.000000 0.000000 0.000000
# 3 -0.010740 -0.010740 0.033638 0.000000 0.000000 0.000000
# 4 0.000000 0.000000 0.000000 0.046296 0.000000 0.000000
# 5 0.000000 0.000000 0.000000 0.000000 0.046296 0.000000
# 6 0.000000 0.000000 0.000000 0.000000 0.000000 0.411479
#
#
# Mechanical properties :
#
#
# Convention : Reuss Voigt Hill
#
# Bulk Modulus (GPa) = 53.91404 57.95816 55.93610
# Shear Modulus (GPa) = 7.85865 15.77271 11.81568
#
# Velocity S-wave (km/s) = 2.13008 3.01769 2.61187
# Velocity P-wave (km/s) = 6.09731 6.75310 6.43357
#
# Compressibility (1/GPa) = 0.01854804
#
# Stress axis : x y z
#
# Youngs Moduli (GPa) = 51.77310 51.77310 29.72824
#
# Poissons Ratio (x) = 0.27857 0.31927
# Poissons Ratio (y) = 0.27857 0.31927
# Poissons Ratio (z) = 0.55603 0.55603
#
# Static dielectric constant tensor:
#      x y z
#    x 3.332870 0.000000 0.000000 
#    y 0.000000 3.332870 0.000000 
#    z 0.000000 0.000000 3.344260 
# 
# 
# High freq. dielectric constant tensor:
#      x y z
#    x 1.658530 0.000000 0.000000 
#    y 0.000000 1.658530 0.000000 
#    z 0.000000 0.000000 1.674650 
# 
# From -- ./inp_files/2051.got.cif
#   From: 2010.03.12/outbox.cif.g09.slc.cpg/sg123_2_cif.got.tgz:2051.got - 2010.04.06 16:26:55.
