data_PCOD8312517
_publ_section_title
;
Structure prediction by ZEFSAII (Michael W. Deem and Ramdas Pophale) SiO2 
 PCOD8312517
Probable space group: P 4/M M M
;
_chemical_formula_sum "Si O2"
_cell_formula_units_Z 88
_cell_length_a 17.688290
_cell_length_b 17.688290
_cell_length_c 16.895930
_cell_angle_alpha 90.000000
_cell_angle_beta 90.000000
_cell_angle_gamma 90.000000
_cell_volume 5286.324289
_symmetry_space_group_name_H-M "P 4/M M M"
_symmetry_group_IT_number 123
_symmetry_cell_setting 'tetragonal'
loop_
_space_group_symop_operation_xyz
x,y,z
-y,x,z
-x,-y,z
y,-x,z
x,-y,-z
-x,y,-z
y,x,-z
-y,-x,-z
-x,-y,-z
y,-x,-z
x,y,-z
-y,x,-z
-x,y,z
x,-y,z
-y,-x,z
y,x,z
loop_
_atom_site_type_symbol
_atom_site_label
_atom_site_fract_x
_atom_site_fract_y
_atom_site_fract_z
Si Si1 0.085542 0.413059 0.593116
Si Si2 0.914762 0.658449 0.912050
Si Si3 0.808601 0.310279 0.696708
Si Si4 0.586751 0.784230 0.161584
Si Si5 0.411255 0.705380 0.000000
Si Si6 0.913282 0.791827 0.200153
O O1 0.093497 0.402059 0.500000
O O2 0.100215 0.500000 0.617020
O O3 0.150534 0.362651 0.632645
O O4 0.000000 0.389946 0.619610
O O5 0.873147 0.597782 0.856041
O O6 0.907668 0.744171 0.880739
O O7 0.000000 0.630344 0.912050
O O8 0.880184 0.656828 0.000000
O O9 0.742775 0.257226 0.658557
O O10 0.765502 0.361192 0.762964
O O11 0.873174 0.256339 0.731605
O O12 0.500000 0.764543 0.180976
O O13 0.616875 0.743958 0.081583
O O14 0.500000 0.702104 0.000000
O O15 0.379183 0.620818 0.000000
O O16 0.871850 0.871850 0.187469
O O17 0.000000 0.807369 0.224390
#
# Coordination Sequence:
#
# PCOD8312517 Si02
#       6
#    16  16  16  16   8  16
#     4   9  18  33  53  76 101 129 159 191 232 285
#     4   9  17  29  42  60  87 115 147 188 236 285
#     4  10  19  31  48  71  98 127 157 192 236 284
#     4  10  19  31  46  67  91 121 157 191 231 278
#     4  10  20  33  47  63  85 113 150 192 230 270
#     4   9  18  30  43  61  84 115 156 197 236 278
#
# _framework density 16.646728
#
# number of rings (size 3 to 8) (size 9 to 14) (size 15 to 20)
#    0.000    2.545    0.909    2.182    0.000    2.818 
#    0.000    0.909    0.000    0.000    0.000    2.545 
#    0.000    3.273    0.000   24.909    0.000    0.000 
#
# Total GULP energy -1090526.137198 kJ/mol
# GULP energy per Si atom -12392.342468 kJ/mol
# Density = 1.660884 g / cm^3
# Si number density = 16.646728 Si / 1000 Ang^3
#
#
#
# Elastic Constant Matrix: (Units=GPa)
#
#
# Indices 1 2 3 4 5 6 
#
# 1 52.7490 46.5536 23.5057 0.0000 0.0000 0.0000
# 2 46.5536 52.7583 23.5063 0.0000 0.0000 0.0000
# 3 23.5057 23.5063 51.8372 0.0000 0.0000 0.0000
# 4 0.0000 0.0000 0.0000 19.4639 0.0000 0.0000
# 5 0.0000 0.0000 0.0000 0.0000 19.4639 0.0000
# 6 0.0000 0.0000 0.0000 0.0000 0.0000 32.4774
#
#
#
# Elastic Compliance Matrix: (Units=1/GPa)
#
#
# Indices 1 2 3 4 5 6 
#
# 1 0.087065 -0.074234 -0.005818 0.000000 0.000000 0.000000
# 2 -0.074234 0.087047 -0.005811 0.000000 0.000000 0.000000
# 3 -0.005818 -0.005811 0.024564 0.000000 0.000000 0.000000
# 4 0.000000 0.000000 0.000000 0.051377 0.000000 0.000000
# 5 0.000000 0.000000 0.000000 0.000000 0.051377 0.000000
# 6 0.000000 0.000000 0.000000 0.000000 0.000000 0.030791
#
#
# Mechanical properties :
#
#
# Convention : Reuss Voigt Hill
#
# Bulk Modulus (GPa) = 37.10382 38.27507 37.68944
# Shear Modulus (GPa) = 9.74792 18.53297 14.14044
#
# Velocity S-wave (km/s) = 2.42249 3.34025 2.91768
# Velocity P-wave (km/s) = 5.49199 6.15783 5.83441
#
# Compressibility (1/GPa) = 0.02695140
#
# Stress axis : x y z
#
# Youngs Moduli (GPa) = 11.48566 11.48805 40.70948
#
# Poissons Ratio (x) = 0.85280 0.23683
# Poissons Ratio (y) = 0.85262 0.23657
# Poissons Ratio (z) = 0.06682 0.06676
#
# Static dielectric constant tensor:
#      x y z
#    x 3.066250 0.000000 0.000000 
#    y 0.000000 3.066250 0.000000 
#    z 0.000000 0.000000 2.997550 
# 
# 
# High freq. dielectric constant tensor:
#      x y z
#    x 1.634120 0.000000 0.000000 
#    y 0.000000 1.634120 0.000000 
#    z 0.000000 0.000000 1.624490 
# 
# From -- ./inp_files/4053.got.cif
#   From: 2010.03.12/outbox.cif.g09.slc.cpg/sg123_3_cif.got.tgz:4053.got - 2010.04.06 16:26:55.
