data_PCOD8312787
_publ_section_title
;
Structure prediction by ZEFSAII (Michael W. Deem and Ramdas Pophale) SiO2 
 PCOD8312787
Probable space group: P 4/M M M
;
_chemical_formula_sum "Si O2"
_cell_formula_units_Z 80
_cell_length_a 12.633545
_cell_length_b 12.633545
_cell_length_c 28.763863
_cell_angle_alpha 90.000000
_cell_angle_beta 90.000000
_cell_angle_gamma 90.000000
_cell_volume 4590.898328
_symmetry_space_group_name_H-M "P 4/M M M"
_symmetry_group_IT_number 123
_symmetry_cell_setting 'tetragonal'
loop_
_space_group_symop_operation_xyz
x,y,z
-y,x,z
-x,-y,z
y,-x,z
x,-y,-z
-x,y,-z
y,x,-z
-y,-x,-z
-x,-y,-z
y,-x,-z
x,y,-z
-y,x,-z
-x,y,z
x,-y,z
-y,-x,z
y,x,z
loop_
_atom_site_type_symbol
_atom_site_label
_atom_site_fract_x
_atom_site_fract_y
_atom_site_fract_z
Si Si1 0.000000 0.374335 0.447563
Si Si2 0.796369 0.376984 0.891429
Si Si3 0.119648 0.288992 0.301879
Si Si4 0.000000 0.374346 0.052458
Si Si5 0.206000 0.377774 0.392510
Si Si6 0.790319 0.620196 0.214263
O O1 0.106056 0.334346 0.421951
O O2 0.000000 0.500000 0.446490
O O3 0.000000 0.330081 0.500000
O O4 0.769253 0.500000 0.902176
O O5 0.692159 0.307842 0.902969
O O6 0.832535 0.362303 0.838014
O O7 0.893926 0.333907 0.922107
O O8 0.174463 0.174463 0.301331
O O9 0.178616 0.366181 0.338042
O O10 0.121457 0.341194 0.250674
O O11 0.000000 0.272337 0.317630
O O12 0.000000 0.500000 0.053673
O O13 0.000000 0.330321 0.000000
O O14 0.232031 0.500000 0.403530
O O15 0.308187 0.308187 0.406193
O O16 0.761125 0.500000 0.223464
O O17 0.682290 0.682290 0.223467
#
# Coordination Sequence:
#
# PCOD8312787 Si02
#       6
#     8  16  16   8  16  16
#     4   9  18  34  55  76 100 133 173 216 258 301
#     4   9  18  32  50  74 102 131 166 205 247 297
#     4  10  20  33  50  73 101 134 172 213 255 299
#     4   9  18  32  49  70  96 127 163 204 252 301
#     4  10  20  34  53  79 108 138 173 211 255 307
#     4   9  18  30  46  71 100 131 164 199 242 292
#
# _framework density 17.425784
#
# number of rings (size 3 to 8) (size 9 to 14) (size 15 to 20)
#    0.000    2.600    1.000    0.600    1.400    2.800 
#    0.000    2.000    0.000    4.200    0.000    7.000 
#    0.000    0.000    0.000    0.000    0.000    0.000 
#
# Total GULP energy -991908.724041 kJ/mol
# GULP energy per Si atom -12398.859051 kJ/mol
# Density = 1.738612 g / cm^3
# Si number density = 17.425784 Si / 1000 Ang^3
#
#
#
# Elastic Constant Matrix: (Units=GPa)
#
#
# Indices 1 2 3 4 5 6 
#
# 1 92.1024 53.5970 40.9698 0.0000 0.0000 0.0000
# 2 53.5970 92.1024 40.9698 0.0000 0.0000 0.0000
# 3 40.9698 40.9698 93.6352 0.0000 0.0000 0.0000
# 4 0.0000 0.0000 0.0000 21.2613 0.0000 0.0000
# 5 0.0000 0.0000 0.0000 0.0000 21.2613 0.0000
# 6 0.0000 0.0000 0.0000 0.0000 0.0000 15.6272
#
#
#
# Elastic Compliance Matrix: (Units=1/GPa)
#
#
# Indices 1 2 3 4 5 6 
#
# 1 0.017537 -0.008433 -0.003983 0.000000 0.000000 0.000000
# 2 -0.008433 0.017537 -0.003983 0.000000 0.000000 0.000000
# 3 -0.003983 -0.003983 0.014165 0.000000 0.000000 0.000000
# 4 0.000000 0.000000 0.000000 0.047034 0.000000 0.000000
# 5 0.000000 0.000000 0.000000 0.000000 0.047034 0.000000
# 6 0.000000 0.000000 0.000000 0.000000 0.000000 0.063991
#
#
# Mechanical properties :
#
#
# Convention : Reuss Voigt Hill
#
# Bulk Modulus (GPa) = 60.82861 60.99038 60.90949
# Shear Modulus (GPa) = 20.36015 21.11685 20.73850
#
# Velocity S-wave (km/s) = 3.42188 3.48489 3.45353
# Velocity P-wave (km/s) = 7.11304 7.16022 7.13667
#
# Compressibility (1/GPa) = 0.01643963
#
# Stress axis : x y z
#
# Youngs Moduli (GPa) = 57.02235 57.02235 70.59422
#
# Poissons Ratio (x) = 0.48089 0.28119
# Poissons Ratio (y) = 0.48089 0.28119
# Poissons Ratio (z) = 0.22713 0.22713
#
# Static dielectric constant tensor:
#      x y z
#    x 3.093500 0.000000 0.000000 
#    y 0.000000 3.093500 0.000000 
#    z 0.000000 0.000000 3.418120 
# 
# 
# High freq. dielectric constant tensor:
#      x y z
#    x 1.658360 0.000000 0.000000 
#    y 0.000000 1.658360 0.000000 
#    z 0.000000 0.000000 1.679860 
# 
# From -- ./inp_files/8357.got.cif
#   From: 2010.03.12/outbox.cif.g09.slc.cpg/sg123_5_cif.got.tgz:8357.got - 2010.04.06 16:26:55.
