data_PCOD8312354
_publ_section_title
;
Structure prediction by ZEFSAII (Michael W. Deem and Ramdas Pophale) SiO2 
 PCOD8312354
Probable space group: P 4/M M M
;
_chemical_formula_sum "Si O2"
_cell_formula_units_Z 112
_cell_length_a 13.796197
_cell_length_b 13.796197
_cell_length_c 35.678934
_cell_angle_alpha 90.000000
_cell_angle_beta 90.000000
_cell_angle_gamma 90.000000
_cell_volume 6790.951746
_symmetry_space_group_name_H-M "P 4/M M M"
_symmetry_group_IT_number 123
_symmetry_cell_setting 'tetragonal'
loop_
_space_group_symop_operation_xyz
x,y,z
-y,x,z
-x,-y,z
y,-x,z
x,-y,-z
-x,y,-z
y,x,-z
-y,-x,-z
-x,-y,-z
y,-x,-z
x,y,-z
-y,x,-z
-x,y,z
x,-y,z
-y,-x,z
y,x,z
loop_
_atom_site_type_symbol
_atom_site_label
_atom_site_fract_x
_atom_site_fract_y
_atom_site_fract_z
Si Si1 0.614960 0.891878 0.041476
Si Si2 0.385188 0.108155 0.817322
Si Si3 0.769702 0.386284 0.253414
Si Si4 0.113289 0.728955 0.400344
Si Si5 0.389389 0.888497 0.673206
Si Si6 0.230969 0.614514 0.111160
Si Si7 0.767616 0.388943 0.456636
O O1 0.500000 0.896395 0.044029
O O2 0.653210 0.818842 0.073039
O O3 0.656228 0.000000 0.048880
O O4 0.647170 0.855825 0.000000
O O5 0.500000 0.100762 0.815921
O O6 0.347692 0.165337 0.780938
O O7 0.352074 0.162979 0.854741
O O8 0.340201 0.000000 0.817436
O O9 0.748788 0.500000 0.250003
O O10 0.666539 0.333462 0.252678
O O11 0.824657 0.359119 0.291453
O O12 0.169608 0.830393 0.403580
O O13 0.139864 0.679286 0.361067
O O14 0.143865 0.656134 0.433403
O O15 0.000000 0.751070 0.404127
O O16 0.500000 0.867817 0.661151
O O17 0.376238 0.000000 0.684848
O O18 0.249331 0.500000 0.111126
O O19 0.335131 0.664870 0.115123
O O20 0.796406 0.379857 0.500000
O O21 0.750693 0.500000 0.444859
O O22 0.668221 0.331780 0.447733
#
# Coordination Sequence:
#
# PCOD8312354 Si02
#       7
#    16  16  16  16  16  16  16
#     4   8  14  26  44  63  82 107 142 186 231 262
#     4   9  17  30  47  64  82 107 143 188 231 260
#     4  10  19  30  45  66  94 125 152 178 211 257
#     4  10  20  33  49  69  94 124 159 199 240 282
#     4   9  17  30  49  71  92 116 150 193 238 276
#     4  10  19  29  42  62  90 122 151 177 208 253
#     4   9  18  32  50  73  99 125 154 189 230 278
#
# _framework density 16.492533999999999
#
# number of rings (size 3 to 8) (size 9 to 14) (size 15 to 20)
#    0.000    2.714    0.000    2.571    0.000    5.429 
#    0.000    1.429    0.000    2.571    0.000    6.000 
#    0.000   22.571    0.000    6.286    0.000    0.571 
#
# Total GULP energy -1388683.928796 kJ/mol
# GULP energy per Si atom -12398.963650 kJ/mol
# Density = 1.645500 g / cm^3
# Si number density = 16.492534 Si / 1000 Ang^3
#
#
#
# Elastic Constant Matrix: (Units=GPa)
#
#
# Indices 1 2 3 4 5 6 
#
# 1 84.9238 49.6248 55.2669 0.0000 0.0000 0.0000
# 2 49.6248 84.9238 55.2669 0.0000 0.0000 0.0000
# 3 55.2669 55.2669 114.5910 0.0000 0.0000 0.0000
# 4 0.0000 0.0000 0.0000 20.0431 0.0000 0.0000
# 5 0.0000 0.0000 0.0000 0.0000 20.0431 0.0000
# 6 0.0000 0.0000 0.0000 0.0000 0.0000 15.2660
#
#
#
# Elastic Compliance Matrix: (Units=1/GPa)
#
#
# Indices 1 2 3 4 5 6 
#
# 1 0.020319 -0.008010 -0.005937 0.000000 0.000000 0.000000
# 2 -0.008010 0.020319 -0.005937 0.000000 0.000000 0.000000
# 3 -0.005937 -0.005937 0.014453 0.000000 0.000000 0.000000
# 4 0.000000 0.000000 0.000000 0.049892 0.000000 0.000000
# 5 0.000000 0.000000 0.000000 0.000000 0.049892 0.000000
# 6 0.000000 0.000000 0.000000 0.000000 0.000000 0.065505
#
#
# Mechanical properties :
#
#
# Convention : Reuss Voigt Hill
#
# Bulk Modulus (GPa) = 65.25304 67.19505 66.22405
# Shear Modulus (GPa) = 18.84960 19.35578 19.10269
#
# Velocity S-wave (km/s) = 3.38437 3.42951 3.40702
# Velocity P-wave (km/s) = 7.41101 7.51753 7.46446
#
# Compressibility (1/GPa) = 0.01532496
#
# Stress axis : x y z
#
# Youngs Moduli (GPa) = 49.21400 49.21400 69.18840
#
# Poissons Ratio (x) = 0.39420 0.41076
# Poissons Ratio (y) = 0.39420 0.41076
# Poissons Ratio (z) = 0.29217 0.29217
#
# Static dielectric constant tensor:
#      x y z
#    x 2.928160 0.000000 0.000000 
#    y 0.000000 2.928160 0.000000 
#    z 0.000000 0.000000 3.346200 
# 
# 
# High freq. dielectric constant tensor:
#      x y z
#    x 1.615030 0.000000 0.000000 
#    y 0.000000 1.615030 0.000000 
#    z 0.000000 0.000000 1.652830 
# 
# From -- ./inp_files/8729.got.cif
#   From: 2010.03.12/outbox.cif.g09.slc.cpg/sg123_5_cif.got.tgz:8729.got - 2010.04.06 16:26:55.
