data_PCOD8312642
_publ_section_title
;
Structure prediction by ZEFSAII (Michael W. Deem and Ramdas Pophale) SiO2 
 PCOD8312642
Probable space group: P 4/M M M
;
_chemical_formula_sum "Si O2"
_cell_formula_units_Z 64
_cell_length_a 13.439833
_cell_length_b 13.439833
_cell_length_c 21.432670
_cell_angle_alpha 90.000000
_cell_angle_beta 90.000000
_cell_angle_gamma 90.000000
_cell_volume 3871.364130
_symmetry_space_group_name_H-M "P 4/M M M"
_symmetry_group_IT_number 123
_symmetry_cell_setting 'tetragonal'
loop_
_space_group_symop_operation_xyz
x,y,z
-y,x,z
-x,-y,z
y,-x,z
x,-y,-z
-x,y,-z
y,x,-z
-y,-x,-z
-x,-y,-z
y,-x,-z
x,y,-z
-y,x,-z
-x,y,z
x,-y,z
-y,-x,z
y,x,z
loop_
_atom_site_type_symbol
_atom_site_label
_atom_site_fract_x
_atom_site_fract_y
_atom_site_fract_z
Si Si1 0.247595 0.752406 0.850557
Si Si2 0.756805 0.756805 0.288586
Si Si3 0.886125 0.113876 0.784406
Si Si4 0.384696 0.218822 0.500000
Si Si5 0.383758 0.113946 0.628465
Si Si6 0.888458 0.617171 0.929285
O O1 0.280717 0.719284 0.780155
O O2 0.162809 0.837192 0.845652
O O3 0.339451 0.800842 0.886716
O O4 0.841037 0.841037 0.279259
O O5 0.807791 0.666361 0.324777
O O6 0.000000 0.139604 0.785835
O O7 0.500000 0.253171 0.500000
O O8 0.317999 0.317999 0.500000
O O9 0.359731 0.149505 0.558735
O O10 0.500000 0.118607 0.642904
O O11 0.345473 0.000000 0.636967
O O12 0.875871 0.500000 0.926416
O O13 0.000000 0.646521 0.905888
O O14 0.874168 0.655435 0.000000
#
# Coordination Sequence:
#
# PCOD8312642 Si02
#       6
#     8   8   8   8  16  16
#     4  10  20  30  49  74 103 134 169 205 254 307
#     4  10  21  32  50  75 103 142 174 205 258 308
#     4   9  18  31  45  67 101 137 170 202 242 299
#     4  10  19  34  55  80 104 134 173 218 268 316
#     4  10  20  35  55  78 104 135 177 223 262 304
#     4   9  18  33  53  76 101 131 170 215 258 300
#
# _framework density 16.531639999999999
#
# number of rings (size 3 to 8) (size 9 to 14) (size 15 to 20)
#    0.750    1.625    1.250    3.000    0.000    2.625 
#    0.000    2.500    0.000    0.750    0.000    9.625 
#    0.000    0.000    0.000    0.000    0.000    0.000 
#
# Total GULP energy -793109.900392 kJ/mol
# GULP energy per Si atom -12392.342194 kJ/mol
# Density = 1.649401 g / cm^3
# Si number density = 16.531640 Si / 1000 Ang^3
#
#
#
# Elastic Constant Matrix: (Units=GPa)
#
#
# Indices 1 2 3 4 5 6 
#
# 1 69.1368 30.4764 39.1501 0.0000 0.0000 0.0000
# 2 30.4764 69.1368 39.1501 0.0000 0.0000 0.0000
# 3 39.1501 39.1501 109.8928 0.0000 0.0000 0.0000
# 4 0.0000 0.0000 0.0000 19.0297 0.0000 0.0000
# 5 0.0000 0.0000 0.0000 0.0000 19.0297 0.0000
# 6 0.0000 0.0000 0.0000 0.0000 0.0000 35.5964
#
#
#
# Elastic Compliance Matrix: (Units=1/GPa)
#
#
# Indices 1 2 3 4 5 6 
#
# 1 0.019905 -0.005961 -0.004967 0.000000 0.000000 0.000000
# 2 -0.005961 0.019905 -0.004967 0.000000 0.000000 0.000000
# 3 -0.004967 -0.004967 0.012639 0.000000 0.000000 0.000000
# 4 0.000000 0.000000 0.000000 0.052549 0.000000 0.000000
# 5 0.000000 0.000000 0.000000 0.000000 0.052549 0.000000
# 6 0.000000 0.000000 0.000000 0.000000 0.000000 0.028093
#
#
# Mechanical properties :
#
#
# Convention : Reuss Voigt Hill
#
# Bulk Modulus (GPa) = 48.41147 51.74660 50.07904
# Shear Modulus (GPa) = 22.28972 24.02380 23.15676
#
# Velocity S-wave (km/s) = 3.67591 3.81622 3.74673
# Velocity P-wave (km/s) = 6.88216 7.12654 7.00542
#
# Compressibility (1/GPa) = 0.02065626
#
# Stress axis : x y z
#
# Youngs Moduli (GPa) = 50.23895 50.23895 79.11912
#
# Poissons Ratio (x) = 0.29949 0.39302
# Poissons Ratio (y) = 0.29949 0.39302
# Poissons Ratio (z) = 0.24956 0.24956
#
# Static dielectric constant tensor:
#      x y z
#    x 2.993320 0.000000 0.000000 
#    y 0.000000 2.993320 0.000000 
#    z 0.000000 0.000000 3.149960 
# 
# 
# High freq. dielectric constant tensor:
#      x y z
#    x 1.630010 0.000000 0.000000 
#    y 0.000000 1.630010 0.000000 
#    z 0.000000 0.000000 1.638460 
# 
# From -- ./inp_files/5066.got.cif
#   From: 2010.03.12/outbox.cif.g09.slc.cpg/sg123_3_cif.got.tgz:5066.got - 2010.04.06 16:26:55.
