data_PCOD8312582
_publ_section_title
;
Structure prediction by ZEFSAII (Michael W. Deem and Ramdas Pophale) SiO2 
 PCOD8312582
Probable space group: P 4/M M M
;
_chemical_formula_sum "Si O2"
_cell_formula_units_Z 72
_cell_length_a 19.208519
_cell_length_b 19.208519
_cell_length_c 10.449686
_cell_angle_alpha 90.000000
_cell_angle_beta 90.000000
_cell_angle_gamma 90.000000
_cell_volume 3855.591407
_symmetry_space_group_name_H-M "P 4/M M M"
_symmetry_group_IT_number 123
_symmetry_cell_setting 'tetragonal'
loop_
_space_group_symop_operation_xyz
x,y,z
-y,x,z
-x,-y,z
y,-x,z
x,-y,-z
-x,y,-z
y,x,-z
-y,-x,-z
-x,-y,-z
y,-x,-z
x,y,-z
-y,x,-z
-x,y,z
x,-y,z
-y,-x,z
y,x,z
loop_
_atom_site_type_symbol
_atom_site_label
_atom_site_fract_x
_atom_site_fract_y
_atom_site_fract_z
Si Si1 0.340934 0.919302 0.249197
Si Si2 0.801840 0.420282 0.641843
Si Si3 0.580146 0.306431 0.144396
Si Si4 0.191025 0.078736 0.148198
Si Si5 0.577339 0.082370 0.000000
O O1 0.371737 0.870796 0.360257
O O2 0.258837 0.906303 0.232952
O O3 0.381060 0.892734 0.123449
O O4 0.356021 0.000000 0.280409
O O5 0.768153 0.413816 0.500000
O O6 0.823686 0.500000 0.669887
O O7 0.748730 0.393377 0.750312
O O8 0.500000 0.325628 0.169515
O O9 0.622987 0.377014 0.162369
O O10 0.590682 0.276132 0.000000
O O11 0.129848 0.129848 0.193405
O O12 0.164665 0.000000 0.169920
O O13 0.210782 0.090183 0.000000
O O14 0.500000 0.115989 0.000000
O O15 0.572311 0.000000 0.000000
#
# Coordination Sequence:
#
# PCOD8312582 Si02
#       5
#    16  16  16  16   8
#     4  10  19  32  49  72 102 137 179 223 265 311
#     4  10  22  37  52  75 109 146 180 218 264 314
#     4   9  19  36  58  83 109 139 177 221 268 318
#     4   9  17  30  48  72 103 135 169 214 267 322
#     4   9  16  26  43  68  95 127 169 216 261 302
#
# _framework density 18.674178999999999
#
# number of rings (size 3 to 8) (size 9 to 14) (size 15 to 20)
#    0.000    2.556    1.111    0.667    1.556    3.556 
#    0.000    5.556    0.000    0.000    0.000    3.111 
#    0.000    0.000    0.000    4.889    0.000    0.222 
#
# Total GULP energy -892671.109803 kJ/mol
# GULP energy per Si atom -12398.209858 kJ/mol
# Density = 1.863168 g / cm^3
# Si number density = 18.674179 Si / 1000 Ang^3
#
#
#
# Elastic Constant Matrix: (Units=GPa)
#
#
# Indices 1 2 3 4 5 6 
#
# 1 89.9179 55.9458 40.8382 0.0000 0.0000 0.0000
# 2 55.9458 89.9179 40.8382 0.0000 0.0000 0.0000
# 3 40.8382 40.8382 88.7972 0.0000 0.0000 0.0000
# 4 0.0000 0.0000 0.0000 19.3135 0.0000 0.0000
# 5 0.0000 0.0000 0.0000 0.0000 19.3135 0.0000
# 6 0.0000 0.0000 0.0000 0.0000 0.0000 34.3931
#
#
#
# Elastic Compliance Matrix: (Units=1/GPa)
#
#
# Indices 1 2 3 4 5 6 
#
# 1 0.019335 -0.010101 -0.004247 0.000000 0.000000 0.000000
# 2 -0.010101 0.019335 -0.004247 0.000000 0.000000 0.000000
# 3 -0.004247 -0.004247 0.015168 0.000000 0.000000 0.000000
# 4 0.000000 0.000000 0.000000 0.051777 0.000000 0.000000
# 5 0.000000 0.000000 0.000000 0.000000 0.051777 0.000000
# 6 0.000000 0.000000 0.000000 0.000000 0.000000 0.029076
#
#
# Mechanical properties :
#
#
# Convention : Reuss Voigt Hill
#
# Bulk Modulus (GPa) = 60.06527 60.43080 60.24804
# Shear Modulus (GPa) = 21.81450 23.33807 22.57628
#
# Velocity S-wave (km/s) = 3.42155 3.53902 3.48078
# Velocity P-wave (km/s) = 6.91694 7.00931 6.96328
#
# Compressibility (1/GPa) = 0.01664856
#
# Stress axis : x y z
#
# Youngs Moduli (GPa) = 51.72029 51.72029 65.92990
#
# Poissons Ratio (x) = 0.52244 0.27997
# Poissons Ratio (y) = 0.52244 0.27997
# Poissons Ratio (z) = 0.21963 0.21963
#
# Static dielectric constant tensor:
#      x y z
#    x 3.327250 0.000000 0.000000 
#    y 0.000000 3.327250 0.000000 
#    z 0.000000 0.000000 3.318840 
# 
# 
# High freq. dielectric constant tensor:
#      x y z
#    x 1.717660 0.000000 0.000000 
#    y 0.000000 1.717660 0.000000 
#    z 0.000000 0.000000 1.704680 
# 
# From -- ./inp_files/1076.got.cif
#   From: 2010.03.12/outbox.cif.g09.slc.cpg/sg123_1_cif.got.tgz:1076.got - 2010.04.06 16:26:55.
