data_PCOD8312766
_publ_section_title
;
Structure prediction by ZEFSAII (Michael W. Deem and Ramdas Pophale) SiO2 
 PCOD8312766
Probable space group: P 4/M M M
;
_chemical_formula_sum "Si O2"
_cell_formula_units_Z 104
_cell_length_a 25.724793
_cell_length_b 25.724793
_cell_length_c 8.983903
_cell_angle_alpha 90.000000
_cell_angle_beta 90.000000
_cell_angle_gamma 90.000000
_cell_volume 5945.232343
_symmetry_space_group_name_H-M "P 4/M M M"
_symmetry_group_IT_number 123
_symmetry_cell_setting 'tetragonal'
loop_
_space_group_symop_operation_xyz
x,y,z
-y,x,z
-x,-y,z
y,-x,z
x,-y,-z
-x,y,-z
y,x,-z
-y,-x,-z
-x,-y,-z
y,-x,-z
x,y,-z
-y,x,-z
-x,y,z
x,-y,z
-y,-x,z
y,x,z
loop_
_atom_site_type_symbol
_atom_site_label
_atom_site_fract_x
_atom_site_fract_y
_atom_site_fract_z
Si Si1 0.215334 0.127380 0.333838
Si Si2 0.438217 0.895189 0.669963
Si Si3 0.197603 0.717229 0.163429
Si Si4 0.000000 0.561923 0.170039
Si Si5 0.858437 0.941455 0.171868
Si Si6 0.356350 0.726838 0.675444
Si Si7 0.560268 0.788774 0.825262
O O1 0.234629 0.115972 0.500000
O O2 0.172710 0.172710 0.331783
O O3 0.265296 0.143146 0.235447
O O4 0.191727 0.074998 0.265911
O O5 0.418197 0.894168 0.500000
O O6 0.500000 0.896169 0.676192
O O7 0.418624 0.842667 0.752769
O O8 0.416752 0.947611 0.749453
O O9 0.232166 0.767835 0.141283
O O10 0.224388 0.678503 0.278341
O O11 0.188738 0.691267 0.000000
O O12 0.000000 0.500000 0.175940
O O13 0.000000 0.581711 0.000000
O O14 0.908365 0.908365 0.219410
O O15 0.872916 0.000000 0.210237
O O16 0.844445 0.933090 0.000000
O O17 0.365346 0.727051 0.500000
O O18 0.327369 0.672632 0.723593
O O19 0.411006 0.737304 0.758565
O O20 0.500000 0.780748 0.787773
O O21 0.570580 0.791894 0.000000
#
# Coordination Sequence:
#
# PCOD8312766 Si02
#       7
#    16  16  16   8  16  16  16
#     4   9  16  26  41  61  84 108 137 176 221 271
#     4   9  16  26  41  62  89 122 161 204 248 291
#     4   9  16  27  45  68  92 116 143 179 224 271
#     4   9  15  23  37  59  87 117 153 199 245 287
#     4   9  17  28  41  58  81 110 146 188 234 285
#     4  10  20  33  50  74 103 133 166 204 246 293
#     4  10  20  33  49  71 101 137 175 213 254 299
#
# _framework density 17.493008
#
# number of rings (size 3 to 8) (size 9 to 14) (size 15 to 20)
#    0.000    2.692    0.000    2.538    0.000    8.769 
#    0.000    0.769    0.000    0.000    2.000    2.154 
#    0.000    0.308    0.000    3.385    0.000    2.462 
#
# Total GULP energy -1288993.063383 kJ/mol
# GULP energy per Si atom -12394.164071 kJ/mol
# Density = 1.745319 g / cm^3
# Si number density = 17.493008 Si / 1000 Ang^3
#
#
#
# Elastic Constant Matrix: (Units=GPa)
#
#
# Indices 1 2 3 4 5 6 
#
# 1 64.4472 37.8653 37.9153 0.0000 0.0000 0.0000
# 2 37.8653 64.4472 37.9153 0.0000 0.0000 0.0000
# 3 37.9153 37.9153 106.8184 0.0000 0.0000 0.0000
# 4 0.0000 0.0000 0.0000 23.3858 0.0000 0.0000
# 5 0.0000 0.0000 0.0000 0.0000 23.3858 0.0000
# 6 0.0000 0.0000 0.0000 0.0000 0.0000 21.6773
#
#
#
# Elastic Compliance Matrix: (Units=1/GPa)
#
#
# Indices 1 2 3 4 5 6 
#
# 1 0.025441 -0.012178 -0.004708 0.000000 0.000000 0.000000
# 2 -0.012178 0.025441 -0.004708 0.000000 0.000000 0.000000
# 3 -0.004708 -0.004708 0.012704 0.000000 0.000000 0.000000
# 4 0.000000 0.000000 0.000000 0.042761 0.000000 0.000000
# 5 0.000000 0.000000 0.000000 0.000000 0.042761 0.000000
# 6 0.000000 0.000000 0.000000 0.000000 0.000000 0.046131
#
#
# Mechanical properties :
#
#
# Convention : Reuss Voigt Hill
#
# Bulk Modulus (GPa) = 49.02193 51.45608 50.23900
# Shear Modulus (GPa) = 20.38929 21.82425 21.10677
#
# Velocity S-wave (km/s) = 3.41775 3.53597 3.47736
# Velocity P-wave (km/s) = 6.60751 6.79337 6.70108
#
# Compressibility (1/GPa) = 0.02039904
#
# Stress axis : x y z
#
# Youngs Moduli (GPa) = 39.30606 39.30606 78.71680
#
# Poissons Ratio (x) = 0.47867 0.37058
# Poissons Ratio (y) = 0.47867 0.37058
# Poissons Ratio (z) = 0.18505 0.18505
#
# Static dielectric constant tensor:
#      x y z
#    x 3.115200 0.000000 0.000000 
#    y 0.000000 3.115200 0.000000 
#    z 0.000000 0.000000 3.489100 
# 
# 
# High freq. dielectric constant tensor:
#      x y z
#    x 1.643190 0.000000 0.000000 
#    y 0.000000 1.643190 0.000000 
#    z 0.000000 0.000000 1.693170 
# 
# From -- ./inp_files/1933.got.cif
#   From: 2010.03.12/outbox.cif.g09.slc.cpg/sg123_1_cif.got.tgz:1933.got - 2010.04.06 16:26:55.
