data_PCOD8312620
_publ_section_title
;
Structure prediction by ZEFSAII (Michael W. Deem and Ramdas Pophale) SiO2 
 PCOD8312620
Probable space group: P 4/M M M
;
_chemical_formula_sum "Si O2"
_cell_formula_units_Z 120
_cell_length_a 18.265507
_cell_length_b 18.265507
_cell_length_c 19.567522
_cell_angle_alpha 90.000000
_cell_angle_beta 90.000000
_cell_angle_gamma 90.000000
_cell_volume 6528.287827
_symmetry_space_group_name_H-M "P 4/M M M"
_symmetry_group_IT_number 123
_symmetry_cell_setting 'tetragonal'
loop_
_space_group_symop_operation_xyz
x,y,z
-y,x,z
-x,-y,z
y,-x,z
x,-y,-z
-x,y,-z
y,x,-z
-y,-x,-z
-x,-y,-z
y,-x,-z
x,y,-z
-y,x,-z
-x,y,z
x,-y,z
-y,-x,z
y,x,z
loop_
_atom_site_type_symbol
_atom_site_label
_atom_site_fract_x
_atom_site_fract_y
_atom_site_fract_z
Si Si1 0.298810 0.415415 0.190834
Si Si2 0.798118 0.083868 0.852452
Si Si3 0.806424 0.919531 0.691649
Si Si4 0.500000 0.913877 0.076580
Si Si5 0.636341 0.145999 0.159110
Si Si6 0.083995 0.353840 0.695908
Si Si7 0.582965 0.301148 0.350831
Si Si8 0.840854 0.415022 0.574830
O O1 0.303288 0.500000 0.166476
O O2 0.375266 0.375266 0.172568
O O3 0.233741 0.371867 0.152336
O O4 0.283082 0.410830 0.271155
O O5 0.861030 0.138971 0.883948
O O6 0.813321 0.078180 0.772863
O O7 0.716818 0.118158 0.864778
O O8 0.802684 0.000000 0.883193
O O9 0.866053 0.866053 0.658435
O O10 0.726599 0.888902 0.673055
O O11 0.819835 0.000000 0.660639
O O12 0.425867 0.889536 0.113151
O O13 0.500000 0.000000 0.075009
O O14 0.500000 0.881313 0.000000
O O15 0.617970 0.126904 0.237921
O O16 0.093717 0.403704 0.628970
O O17 0.000000 0.350639 0.718460
O O18 0.500000 0.316428 0.372496
O O19 0.626952 0.373049 0.371578
O O20 0.617638 0.233077 0.392152
O O21 0.857048 0.379409 0.500000
O O22 0.830010 0.500000 0.564583
#
# Coordination Sequence:
#
# PCOD8312620 Si02
#       8
#    16  16  16   8  16  16  16  16
#     4  10  19  32  53  82 110 141 184 231 277 326
#     4   9  17  29  48  77 112 149 187 227 272 320
#     4   8  15  27  43  68  99 129 165 209 255 303
#     4  11  24  38  56  86 122 154 182 222 275 330
#     4  11  19  35  56  82 110 144 185 228 273 328
#     4  10  20  32  50  74 100 132 172 215 258 313
#     4   9  18  32  49  72 101 132 170 215 262 314
#     4  10  21  35  48  66  97 131 168 215 260 310
#
# _framework density 18.381543000000001
#
# number of rings (size 3 to 8) (size 9 to 14) (size 15 to 20)
#    0.000    2.333    2.000    2.400    0.933    2.400 
#    0.000    3.333    0.000    1.600    0.000    1.867 
#    0.000    0.533    0.000    5.733    0.000    5.067 
#
# Total GULP energy -1487114.574141 kJ/mol
# GULP energy per Si atom -12392.621451 kJ/mol
# Density = 1.833971 g / cm^3
# Si number density = 18.381543 Si / 1000 Ang^3
#
#
#
# Elastic Constant Matrix: (Units=GPa)
#
#
# Indices 1 2 3 4 5 6 
#
# 1 102.8630 61.1419 31.6924 0.0000 0.0000 0.0000
# 2 61.1419 102.8630 31.6924 0.0000 0.0000 0.0000
# 3 31.6924 31.6924 46.2193 0.0000 0.0000 0.0000
# 4 0.0000 0.0000 0.0000 4.0357 0.0000 0.0000
# 5 0.0000 0.0000 0.0000 0.0000 4.0357 0.0000
# 6 0.0000 0.0000 0.0000 0.0000 0.0000 32.6301
#
#
#
# Elastic Compliance Matrix: (Units=1/GPa)
#
#
# Indices 1 2 3 4 5 6 
#
# 1 0.016132 -0.007836 -0.005688 0.000000 0.000000 0.000000
# 2 -0.007836 0.016132 -0.005688 0.000000 0.000000 0.000000
# 3 -0.005688 -0.005688 0.029437 0.000000 0.000000 0.000000
# 4 0.000000 0.000000 0.000000 0.247791 0.000000 0.000000
# 5 0.000000 0.000000 0.000000 0.000000 0.247791 0.000000
# 6 0.000000 0.000000 0.000000 0.000000 0.000000 0.030647
#
#
# Mechanical properties :
#
#
# Convention : Reuss Voigt Hill
#
# Bulk Modulus (GPa) = 42.96452 55.66654 49.31553
# Shear Modulus (GPa) = 7.88500 16.63487 12.25994
#
# Velocity S-wave (km/s) = 2.07339 3.01155 2.58538
# Velocity P-wave (km/s) = 5.39967 6.51477 5.98325
#
# Compressibility (1/GPa) = 0.02327502
#
# Stress axis : x y z
#
# Youngs Moduli (GPa) = 61.98756 61.98756 33.97080
#
# Poissons Ratio (x) = 0.48576 0.19324
# Poissons Ratio (y) = 0.48576 0.19324
# Poissons Ratio (z) = 0.35261 0.35261
#
# Static dielectric constant tensor:
#      x y z
#    x 3.578820 0.000000 0.000000 
#    y 0.000000 3.578820 0.000000 
#    z 0.000000 0.000000 3.099490 
# 
# 
# High freq. dielectric constant tensor:
#      x y z
#    x 1.716920 0.000000 0.000000 
#    y 0.000000 1.716920 0.000000 
#    z 0.000000 0.000000 1.659600 
# 
# From -- ./inp_files/6793.got.cif
#   From: 2010.03.12/outbox.cif.g09.slc.cpg/sg123_4_cif.got.tgz:6793.got - 2010.04.06 16:26:55.
