data_PCOD8312645
_publ_section_title
;
Structure prediction by ZEFSAII (Michael W. Deem and Ramdas Pophale) SiO2 
 PCOD8312645
Probable space group: P 4/M M M
;
_chemical_formula_sum "Si O2"
_cell_formula_units_Z 72
_cell_length_a 20.290526
_cell_length_b 20.290526
_cell_length_c 9.771852
_cell_angle_alpha 90.000000
_cell_angle_beta 90.000000
_cell_angle_gamma 90.000000
_cell_volume 4023.124680
_symmetry_space_group_name_H-M "P 4/M M M"
_symmetry_group_IT_number 123
_symmetry_cell_setting 'tetragonal'
loop_
_space_group_symop_operation_xyz
x,y,z
-y,x,z
-x,-y,z
y,-x,z
x,-y,-z
-x,y,-z
y,x,-z
-y,-x,-z
-x,-y,-z
y,-x,-z
x,y,-z
-y,x,-z
-x,y,z
x,-y,z
-y,-x,z
y,x,z
loop_
_atom_site_type_symbol
_atom_site_label
_atom_site_fract_x
_atom_site_fract_y
_atom_site_fract_z
Si Si1 0.425970 0.320790 0.155132
Si Si2 0.240025 0.350021 0.347672
Si Si3 0.903253 0.309582 0.660938
Si Si4 0.817931 0.926269 0.157391
Si Si5 0.424372 0.000000 0.339463
O O1 0.500000 0.343489 0.178325
O O2 0.383022 0.383022 0.200805
O O3 0.410010 0.257472 0.247542
O O4 0.411729 0.299794 0.000000
O O5 0.235119 0.379358 0.500000
O O6 0.294080 0.294080 0.335482
O O7 0.172648 0.317118 0.302608
O O8 0.916434 0.295084 0.500000
O O9 0.926595 0.247200 0.748398
O O10 0.937596 0.378953 0.704389
O O11 0.872701 0.872701 0.206581
O O12 0.848639 0.000000 0.168723
O O13 0.797621 0.911617 0.000000
O O14 0.500000 0.000000 0.274721
O O15 0.435024 0.000000 0.500000
#
# Coordination Sequence:
#
# PCOD8312645 Si02
#       5
#    16  16  16  16   8
#     4   9  18  32  49  70  97 129 166 209 257 309
#     4   9  18  31  48  72  99 128 166 211 256 303
#     4  10  19  34  56  79 104 137 177 219 263 312
#     4  10  21  36  55  80 110 145 183 223 268 318
#     4   9  18  32  51  77 106 135 170 212 259 311
#
# _framework density 17.896536999999999
#
# number of rings (size 3 to 8) (size 9 to 14) (size 15 to 20)
#    0.000    2.556    1.111    0.667    0.000    4.000 
#    0.000    6.667    0.000    1.333    0.000    4.667 
#    0.000    0.000    0.000    0.000    0.000    0.000 
#
# Total GULP energy -892223.271821 kJ/mol
# GULP energy per Si atom -12391.989886 kJ/mol
# Density = 1.785580 g / cm^3
# Si number density = 17.896537 Si / 1000 Ang^3
#
#
#
# Elastic Constant Matrix: (Units=GPa)
#
#
# Indices 1 2 3 4 5 6 
#
# 1 102.1167 33.6109 44.8396 0.0000 0.0000 0.0000
# 2 33.6109 102.1167 44.8396 0.0000 0.0000 0.0000
# 3 44.8396 44.8396 56.9848 0.0000 0.0000 0.0000
# 4 0.0000 0.0000 0.0000 24.1864 0.0000 0.0000
# 5 0.0000 0.0000 0.0000 0.0000 24.1864 0.0000
# 6 0.0000 0.0000 0.0000 0.0000 0.0000 12.1413
#
#
#
# Elastic Compliance Matrix: (Units=1/GPa)
#
#
# Indices 1 2 3 4 5 6 
#
# 1 0.014972 0.000375 -0.012076 0.000000 0.000000 0.000000
# 2 0.000375 0.014972 -0.012076 0.000000 0.000000 0.000000
# 3 -0.012076 -0.012076 0.036552 0.000000 0.000000 0.000000
# 4 0.000000 0.000000 0.000000 0.041346 0.000000 0.000000
# 5 0.000000 0.000000 0.000000 0.000000 0.041346 0.000000
# 6 0.000000 0.000000 0.000000 0.000000 0.000000 0.082364
#
#
# Mechanical properties :
#
#
# Convention : Reuss Voigt Hill
#
# Bulk Modulus (GPa) = 52.79063 56.42203 54.60633
# Shear Modulus (GPa) = 17.51812 21.29802 19.40807
#
# Velocity S-wave (km/s) = 3.13206 3.45347 3.29669
# Velocity P-wave (km/s) = 6.53004 6.89182 6.71337
#
# Compressibility (1/GPa) = 0.01894276
#
# Stress axis : x y z
#
# Youngs Moduli (GPa) = 66.79199 66.79199 27.35796
#
# Poissons Ratio (x) = -0.02502 0.33036
# Poissons Ratio (y) = -0.02502 0.33036
# Poissons Ratio (z) = 0.80656 0.80656
#
# Static dielectric constant tensor:
#      x y z
#    x 3.413940 0.000000 0.000000 
#    y 0.000000 3.413940 0.000000 
#    z 0.000000 0.000000 3.321780 
# 
# 
# High freq. dielectric constant tensor:
#      x y z
#    x 1.693630 0.000000 0.000000 
#    y 0.000000 1.693630 0.000000 
#    z 0.000000 0.000000 1.678320 
# 
# From -- ./inp_files/1059.got.cif
#   From: 2010.03.12/outbox.cif.g09.slc.cpg/sg123_1_cif.got.tgz:1059.got - 2010.04.06 16:26:55.
