data_PCOD8312876
_publ_section_title
;
Structure prediction by ZEFSAII (Michael W. Deem and Ramdas Pophale) SiO2 
 PCOD8312876
Probable space group: P 4/M M M
;
_chemical_formula_sum "Si O2"
_cell_formula_units_Z 80
_cell_length_a 13.141316
_cell_length_b 13.141316
_cell_length_c 27.002134
_cell_angle_alpha 90.000000
_cell_angle_beta 90.000000
_cell_angle_gamma 90.000000
_cell_volume 4663.111557
_symmetry_space_group_name_H-M "P 4/M M M"
_symmetry_group_IT_number 123
_symmetry_cell_setting 'tetragonal'
loop_
_space_group_symop_operation_xyz
x,y,z
-y,x,z
-x,-y,z
y,-x,z
x,-y,-z
-x,y,-z
y,x,-z
-y,-x,-z
-x,-y,-z
y,-x,-z
x,y,-z
-y,x,-z
-x,y,z
x,-y,z
-y,-x,z
y,x,z
loop_
_atom_site_type_symbol
_atom_site_label
_atom_site_fract_x
_atom_site_fract_y
_atom_site_fract_z
Si Si1 0.114480 0.279054 0.801782
Si Si2 0.385661 0.781862 0.000000
Si Si3 0.000000 0.379654 0.556031
Si Si4 0.209789 0.620053 0.392093
Si Si5 0.116783 0.281412 0.087276
Si Si6 0.613583 0.776757 0.721231
O O1 0.181307 0.181307 0.789101
O O2 0.137179 0.322166 0.856910
O O3 0.133625 0.365705 0.760639
O O4 0.000000 0.240858 0.797881
O O5 0.367672 0.849021 0.951003
O O6 0.500000 0.743127 0.000000
O O7 0.317961 0.682040 0.000000
O O8 0.894153 0.342188 0.581135
O O9 0.000000 0.500000 0.558386
O O10 0.000000 0.338590 0.500000
O O11 0.235490 0.500000 0.404294
O O12 0.306573 0.693428 0.407028
O O13 0.184592 0.634104 0.334292
O O14 0.177810 0.177810 0.076990
O O15 0.000000 0.254273 0.078487
O O16 0.500000 0.737802 0.726895
O O17 0.680604 0.680604 0.735621
#
# Coordination Sequence:
#
# PCOD8312876 Si02
#       6
#    16   8   8  16  16  16
#     4   9  18  31  47  69  97 127 160 197 236 281
#     4  10  21  36  52  68  90 120 155 198 240 282
#     4   9  18  32  50  73 101 133 167 201 242 296
#     4   9  18  32  51  75 102 133 169 209 253 299
#     4   9  18  32  49  71  97 124 155 192 236 285
#     4   9  18  31  47  69  96 126 159 198 243 288
#
# _framework density 17.155926999999998
#
# number of rings (size 3 to 8) (size 9 to 14) (size 15 to 20)
#    0.000    2.900    0.000    0.300    1.400    3.300 
#    0.000    6.000    0.000    2.100    0.000    9.100 
#    0.000    0.000    0.000    0.000    0.000    0.000 
#
# Total GULP energy -991510.375285 kJ/mol
# GULP energy per Si atom -12393.879691 kJ/mol
# Density = 1.711688 g / cm^3
# Si number density = 17.155927 Si / 1000 Ang^3
#
#
#
# Elastic Constant Matrix: (Units=GPa)
#
#
# Indices 1 2 3 4 5 6 
#
# 1 94.3467 37.2876 50.7381 0.0000 0.0000 0.0000
# 2 37.2876 94.3458 50.7380 0.0000 0.0000 0.0000
# 3 50.7381 50.7380 104.2790 0.0000 0.0000 0.0000
# 4 0.0000 0.0000 0.0000 23.7809 0.0000 0.0000
# 5 0.0000 0.0000 0.0000 0.0000 23.7808 0.0000
# 6 0.0000 0.0000 0.0000 0.0000 0.0000 14.0846
#
#
#
# Elastic Compliance Matrix: (Units=1/GPa)
#
#
# Indices 1 2 3 4 5 6 
#
# 1 0.014841 -0.002685 -0.005915 0.000000 0.000000 0.000000
# 2 -0.002685 0.014841 -0.005915 0.000000 0.000000 0.000000
# 3 -0.005915 -0.005915 0.015346 0.000000 0.000000 0.000000
# 4 0.000000 0.000000 0.000000 0.042051 0.000000 0.000000
# 5 0.000000 0.000000 0.000000 0.000000 0.042051 0.000000
# 6 0.000000 0.000000 0.000000 0.000000 0.000000 0.070999
#
#
# Mechanical properties :
#
#
# Convention : Reuss Voigt Hill
#
# Bulk Modulus (GPa) = 62.50341 63.38876 62.94609
# Shear Modulus (GPa) = 21.32279 22.60978 21.96628
#
# Velocity S-wave (km/s) = 3.52928 3.63423 3.58214
# Velocity P-wave (km/s) = 7.28830 7.39182 7.34024
#
# Compressibility (1/GPa) = 0.01599913
#
# Stress axis : x y z
#
# Youngs Moduli (GPa) = 67.38019 67.37951 65.16527
#
# Poissons Ratio (x) = 0.18089 0.38545
# Poissons Ratio (y) = 0.18089 0.38545
# Poissons Ratio (z) = 0.39855 0.39855
#
# Static dielectric constant tensor:
#      x y z
#    x 3.138910 0.000000 0.000000 
#    y 0.000000 3.138910 0.000000 
#    z 0.000000 0.000000 3.480560 
# 
# 
# High freq. dielectric constant tensor:
#      x y z
#    x 1.648870 0.000000 0.000000 
#    y 0.000000 1.648870 0.000000 
#    z 0.000000 0.000000 1.673210 
# 
# From -- ./inp_files/8389.got.cif
#   From: 2010.03.12/outbox.cif.g09.slc.cpg/sg123_5_cif.got.tgz:8389.got - 2010.04.06 16:26:55.
