data_PCOD8312622
_publ_section_title
;
Structure prediction by ZEFSAII (Michael W. Deem and Ramdas Pophale) SiO2 
 PCOD8312622
Probable space group: P 4/M M M
;
_chemical_formula_sum "Si O2"
_cell_formula_units_Z 64
_cell_length_a 15.735464
_cell_length_b 15.735464
_cell_length_c 16.077876
_cell_angle_alpha 90.000000
_cell_angle_beta 90.000000
_cell_angle_gamma 90.000000
_cell_volume 3980.959710
_symmetry_space_group_name_H-M "P 4/M M M"
_symmetry_group_IT_number 123
_symmetry_cell_setting 'tetragonal'
loop_
_space_group_symop_operation_xyz
x,y,z
-y,x,z
-x,-y,z
y,-x,z
x,-y,-z
-x,y,-z
y,x,-z
-y,-x,-z
-x,-y,-z
y,-x,-z
x,y,-z
-y,x,-z
-x,y,z
x,-y,z
-y,-x,z
y,x,z
loop_
_atom_site_type_symbol
_atom_site_label
_atom_site_fract_x
_atom_site_fract_y
_atom_site_fract_z
Si Si1 0.209146 0.790855 0.785800
Si Si2 0.901078 0.098923 0.093115
Si Si3 0.731091 0.500000 0.091361
Si Si4 0.500000 0.908376 0.149363
Si Si5 0.643917 0.096961 0.715844
Si Si6 0.898757 0.500000 0.406131
Si Si7 0.678477 0.678477 0.899757
O O1 0.146153 0.853848 0.832754
O O2 0.274060 0.843078 0.727308
O O3 0.256642 0.743358 0.859975
O O4 0.000000 0.118594 0.103674
O O5 0.872056 0.127945 0.000000
O O6 0.833259 0.500000 0.082831
O O7 0.698775 0.415171 0.136382
O O8 0.691133 0.500000 0.000000
O O9 0.585078 0.900463 0.203171
O O10 0.500000 0.000000 0.103563
O O11 0.586375 0.132522 0.639411
O O12 0.674504 0.000000 0.699244
O O13 0.863774 0.500000 0.500000
O O14 0.000000 0.500000 0.401459
O O15 0.685782 0.685782 0.000000
#
# Coordination Sequence:
#
# PCOD8312622 Si02
#       7
#     8   8   8   8  16   8   8
#     4  12  18  28  48  69  98 121 152 210 251 276
#     4   9  19  34  47  60  87 134 184 217 245 286
#     4  10  19  33  45  61  85 116 158 196 233 285
#     4   9  16  30  45  63  92 117 144 192 241 286
#     4   9  18  29  46  72  94 120 155 187 234 287
#     4   8  15  32  54  70  92 123 149 176 220 289
#     4  10  21  32  46  63  87 122 159 195 241 293
#
# _framework density 16.076525
#
# number of rings (size 3 to 8) (size 9 to 14) (size 15 to 20)
#    0.000    2.500    2.500    3.000    0.000    0.500 
#    0.000    1.875    0.000    0.000    0.000    0.000 
#    0.000    0.000    0.000   19.625    0.000    0.000 
#
# Total GULP energy -793072.911075 kJ/mol
# GULP energy per Si atom -12391.764236 kJ/mol
# Density = 1.603993 g / cm^3
# Si number density = 16.076525 Si / 1000 Ang^3
#
#
#
# Elastic Constant Matrix: (Units=GPa)
#
#
# Indices 1 2 3 4 5 6 
#
# 1 95.0037 63.7891 34.2560 0.0000 0.0000 0.0000
# 2 63.7891 95.0046 34.2561 0.0000 0.0000 0.0000
# 3 34.2560 34.2561 67.6251 0.0000 0.0000 0.0000
# 4 0.0000 0.0000 0.0000 14.3430 0.0000 0.0000
# 5 0.0000 0.0000 0.0000 0.0000 14.3431 0.0000
# 6 0.0000 0.0000 0.0000 0.0000 0.0000 30.0748
#
#
#
# Elastic Compliance Matrix: (Units=1/GPa)
#
#
# Indices 1 2 3 4 5 6 
#
# 1 0.020047 -0.011989 -0.004082 0.000000 0.000000 0.000000
# 2 -0.011989 0.020047 -0.004082 0.000000 0.000000 0.000000
# 3 -0.004082 -0.004082 0.018923 0.000000 0.000000 0.000000
# 4 0.000000 0.000000 0.000000 0.069720 0.000000 0.000000
# 5 0.000000 0.000000 0.000000 0.000000 0.069720 0.000000
# 6 0.000000 0.000000 0.000000 0.000000 0.000000 0.033250
#
#
# Mechanical properties :
#
#
# Convention : Reuss Voigt Hill
#
# Bulk Modulus (GPa) = 53.44221 58.02621 55.73421
# Shear Modulus (GPa) = 17.96932 20.10765 19.03848
#
# Velocity S-wave (km/s) = 3.34688 3.54043 3.44501
# Velocity P-wave (km/s) = 6.94623 7.27220 7.11108
#
# Compressibility (1/GPa) = 0.01871180
#
# Stress axis : x y z
#
# Youngs Moduli (GPa) = 49.88172 49.88222 52.84512
#
# Poissons Ratio (x) = 0.59801 0.21573
# Poissons Ratio (y) = 0.59801 0.21573
# Poissons Ratio (z) = 0.20363 0.20363
#
# Static dielectric constant tensor:
#      x y z
#    x 3.117390 0.000000 0.000000 
#    y 0.000000 3.117380 0.000000 
#    z 0.000000 0.000000 2.818070 
# 
# 
# High freq. dielectric constant tensor:
#      x y z
#    x 1.617180 0.000000 0.000000 
#    y 0.000000 1.617180 0.000000 
#    z 0.000000 0.000000 1.579470 
# 
# From -- ./inp_files/5100.got.cif
#   From: 2010.03.12/outbox.cif.g09.slc.cpg/sg123_3_cif.got.tgz:5100.got - 2010.04.06 16:26:55.
