data_PCOD8312598
_publ_section_title
;
Structure prediction by ZEFSAII (Michael W. Deem and Ramdas Pophale) SiO2 
 PCOD8312598
Probable space group: P 4/M M M
;
_chemical_formula_sum "Si O2"
_cell_formula_units_Z 72
_cell_length_a 12.279790
_cell_length_b 12.279790
_cell_length_c 28.616959
_cell_angle_alpha 90.000000
_cell_angle_beta 90.000000
_cell_angle_gamma 90.000000
_cell_volume 4315.244036
_symmetry_space_group_name_H-M "P 4/M M M"
_symmetry_group_IT_number 123
_symmetry_cell_setting 'tetragonal'
loop_
_space_group_symop_operation_xyz
x,y,z
-y,x,z
-x,-y,z
y,-x,z
x,-y,-z
-x,y,-z
y,x,-z
-y,-x,-z
-x,-y,-z
y,-x,-z
x,y,-z
-y,x,-z
-x,y,z
x,-y,z
-y,-x,z
y,x,z
loop_
_atom_site_type_symbol
_atom_site_label
_atom_site_fract_x
_atom_site_fract_y
_atom_site_fract_z
Si Si1 0.500000 0.129778 0.113417
Si Si2 0.875480 0.299655 0.946518
Si Si3 0.304328 0.126389 0.282552
Si Si4 0.870657 0.500000 0.218659
Si Si5 0.370607 0.000000 0.447490
Si Si6 0.195664 0.373624 0.383527
O O1 0.606240 0.172962 0.086474
O O2 0.500000 0.175785 0.166057
O O3 0.500000 0.000000 0.112366
O O4 0.810348 0.189653 0.936653
O O5 0.000000 0.273425 0.934081
O O6 0.863504 0.338744 0.000000
O O7 0.193244 0.193244 0.276464
O O8 0.391505 0.170350 0.244811
O O9 0.357213 0.142854 0.333030
O O10 0.275957 0.000000 0.274784
O O11 0.000000 0.500000 0.219131
O O12 0.329750 0.891551 0.421247
O O13 0.500000 0.000000 0.447215
O O14 0.323417 0.000000 0.500000
O O15 0.224135 0.500000 0.391306
O O16 0.306730 0.306730 0.389649
#
# Coordination Sequence:
#
# PCOD8312598 Si02
#       6
#     8  16  16   8   8  16
#     4   9  17  30  47  69  94 126 168 205 242 290
#     4   9  17  29  47  71  99 131 165 204 249 295
#     4  10  19  32  51  74  99 129 164 202 246 296
#     4   9  18  31  50  70  93 128 164 204 248 292
#     4   9  18  32  52  75  99 131 169 206 243 295
#     4  10  19  32  52  75 102 134 168 208 250 295
#
# _framework density 16.685036
#
# number of rings (size 3 to 8) (size 9 to 14) (size 15 to 20)
#    0.000    2.556    2.222    0.333    0.000    3.333 
#    0.000    1.111    0.000    1.000    0.000   13.222 
#    0.000    0.000    0.000    0.000    0.000    0.000 
#
# Total GULP energy -892789.190611 kJ/mol
# GULP energy per Si atom -12399.849870 kJ/mol
# Density = 1.664706 g / cm^3
# Si number density = 16.685036 Si / 1000 Ang^3
#
#
#
# Elastic Constant Matrix: (Units=GPa)
#
#
# Indices 1 2 3 4 5 6 
#
# 1 89.8970 50.9400 47.2418 0.0000 0.0000 0.0000
# 2 50.9400 89.8970 47.2418 0.0000 0.0000 0.0000
# 3 47.2418 47.2418 128.2222 0.0000 0.0000 0.0000
# 4 0.0000 0.0000 0.0000 15.0779 0.0000 0.0000
# 5 0.0000 0.0000 0.0000 0.0000 15.0779 0.0000
# 6 0.0000 0.0000 0.0000 0.0000 0.0000 9.9799
#
#
#
# Elastic Compliance Matrix: (Units=1/GPa)
#
#
# Indices 1 2 3 4 5 6 
#
# 1 0.017551 -0.008119 -0.003475 0.000000 0.000000 0.000000
# 2 -0.008119 0.017551 -0.003475 0.000000 0.000000 0.000000
# 3 -0.003475 -0.003475 0.010360 0.000000 0.000000 0.000000
# 4 0.000000 0.000000 0.000000 0.066322 0.000000 0.000000
# 5 0.000000 0.000000 0.000000 0.000000 0.066322 0.000000
# 6 0.000000 0.000000 0.000000 0.000000 0.000000 0.100201
#
#
# Mechanical properties :
#
#
# Convention : Reuss Voigt Hill
#
# Bulk Modulus (GPa) = 65.26129 66.54037 65.90083
# Shear Modulus (GPa) = 15.94633 18.86664 17.40649
#
# Velocity S-wave (km/s) = 3.09484 3.36631 3.23343
# Velocity P-wave (km/s) = 7.20897 7.42134 7.31593
#
# Compressibility (1/GPa) = 0.01532302
#
# Stress axis : x y z
#
# Youngs Moduli (GPa) = 56.97839 56.97839 96.52903
#
# Poissons Ratio (x) = 0.46260 0.33544
# Poissons Ratio (y) = 0.46260 0.33544
# Poissons Ratio (z) = 0.19800 0.19800
#
# Static dielectric constant tensor:
#      x y z
#    x 2.962860 0.000000 0.000000 
#    y 0.000000 2.962860 0.000000 
#    z 0.000000 0.000000 3.371490 
# 
# 
# High freq. dielectric constant tensor:
#      x y z
#    x 1.626830 0.000000 0.000000 
#    y 0.000000 1.626830 0.000000 
#    z 0.000000 0.000000 1.650360 
# 
# From -- ./inp_files/7911.got.cif
#   From: 2010.03.12/outbox.cif.g09.slc.cpg/sg123_4_cif.got.tgz:7911.got - 2010.04.06 16:26:55.
