data_PCOD8312666
_publ_section_title
;
Structure prediction by ZEFSAII (Michael W. Deem and Ramdas Pophale) SiO2 
 PCOD8312666
Probable space group: P 4/M M M
;
_chemical_formula_sum "Si O2"
_cell_formula_units_Z 128
_cell_length_a 18.393185
_cell_length_b 18.393185
_cell_length_c 22.699868
_cell_angle_alpha 90.000000
_cell_angle_beta 90.000000
_cell_angle_gamma 90.000000
_cell_volume 7679.575419
_symmetry_space_group_name_H-M "P 4/M M M"
_symmetry_group_IT_number 123
_symmetry_cell_setting 'tetragonal'
loop_
_space_group_symop_operation_xyz
x,y,z
-y,x,z
-x,-y,z
y,-x,z
x,-y,-z
-x,y,-z
y,x,-z
-y,-x,-z
-x,-y,-z
y,-x,-z
x,y,-z
-y,x,-z
-x,y,z
x,-y,z
-y,-x,z
y,x,z
loop_
_atom_site_type_symbol
_atom_site_label
_atom_site_fract_x
_atom_site_fract_y
_atom_site_fract_z
Si Si1 0.084218 0.796629 0.170834
Si Si2 0.582955 0.170251 0.139567
Si Si3 0.083618 0.652325 0.237712
Si Si4 0.188488 0.415829 0.327304
Si Si5 0.194072 0.314393 0.567266
Si Si6 0.195010 0.081059 0.569964
Si Si7 0.299723 0.418659 0.772529
Si Si8 0.278314 0.838778 0.066908
O O1 0.132759 0.867242 0.184775
O O2 0.101529 0.735744 0.220154
O O3 0.102221 0.762997 0.106923
O O4 0.000000 0.819852 0.171662
O O5 0.500000 0.164937 0.116863
O O6 0.598923 0.103746 0.183765
O O7 0.597909 0.243533 0.175530
O O8 0.637048 0.168965 0.084160
O O9 0.126062 0.631528 0.296611
O O10 0.000000 0.641643 0.251928
O O11 0.164757 0.500000 0.330291
O O12 0.201147 0.385791 0.392796
O O13 0.262542 0.406481 0.290739
O O14 0.185891 0.340671 0.500000
O O15 0.265412 0.265412 0.574644
O O16 0.123432 0.268359 0.587405
O O17 0.189656 0.077494 0.500000
O O18 0.124664 0.124664 0.594524
O O19 0.196201 0.000000 0.597546
O O20 0.329521 0.500000 0.777641
O O21 0.367503 0.367503 0.780339
O O22 0.239494 0.760507 0.074228
O O23 0.274066 0.866803 0.000000
#
# Coordination Sequence:
#
# PCOD8312666 Si02
#       8
#    16  16  16  16  16  16  16  16
#     4   9  18  32  50  72  96 123 156 193 233 275
#     4   9  17  28  44  66  90 118 151 191 234 268
#     4   9  18  32  48  67  92 120 150 183 223 277
#     4  10  20  31  47  71  92 115 149 189 229 265
#     4   9  18  32  48  65  89 123 156 185 223 272
#     4   8  14  25  41  61  84 110 141 176 214 256
#     4   9  17  29  45  66  91 115 142 179 223 273
#     4   9  17  29  45  64  89 124 161 194 231 277
#
# _framework density 16.667587999999999
#
# number of rings (size 3 to 8) (size 9 to 14) (size 15 to 20)
#    0.000    3.000    0.000    2.625    0.000    6.125 
#    0.000    0.625    0.000    0.000    0.000    7.875 
#    0.000    2.000    0.000   23.375    0.000    0.500 
#
# Total GULP energy -1586922.719847 kJ/mol
# GULP energy per Si atom -12397.833749 kJ/mol
# Density = 1.662965 g / cm^3
# Si number density = 16.667588 Si / 1000 Ang^3
#
#
#
# Elastic Constant Matrix: (Units=GPa)
#
#
# Indices 1 2 3 4 5 6 
#
# 1 92.8001 49.4697 31.1464 0.0000 0.0000 0.0000
# 2 49.4697 92.8001 31.1464 0.0000 0.0000 0.0000
# 3 31.1464 31.1464 62.4413 0.0000 0.0000 0.0000
# 4 0.0000 0.0000 0.0000 17.8960 0.0000 0.0000
# 5 0.0000 0.0000 0.0000 0.0000 17.8960 0.0000
# 6 0.0000 0.0000 0.0000 0.0000 0.0000 21.3218
#
#
#
# Elastic Compliance Matrix: (Units=1/GPa)
#
#
# Indices 1 2 3 4 5 6 
#
# 1 0.016036 -0.007043 -0.004486 0.000000 0.000000 0.000000
# 2 -0.007043 0.016036 -0.004486 0.000000 0.000000 0.000000
# 3 -0.004486 -0.004486 0.020490 0.000000 0.000000 0.000000
# 4 0.000000 0.000000 0.000000 0.055878 0.000000 0.000000
# 5 0.000000 0.000000 0.000000 0.000000 0.055878 0.000000
# 6 0.000000 0.000000 0.000000 0.000000 0.000000 0.046900
#
#
# Mechanical properties :
#
#
# Convention : Reuss Voigt Hill
#
# Bulk Modulus (GPa) = 48.70217 52.39626 50.54922
# Shear Modulus (GPa) = 19.99265 20.50803 20.25034
#
# Velocity S-wave (km/s) = 3.46713 3.51153 3.48940
# Velocity P-wave (km/s) = 6.73135 6.92426 6.82849
#
# Compressibility (1/GPa) = 0.02053296
#
# Stress axis : x y z
#
# Youngs Moduli (GPa) = 62.36064 62.36064 48.80393
#
# Poissons Ratio (x) = 0.43919 0.21892
# Poissons Ratio (y) = 0.43919 0.21892
# Poissons Ratio (z) = 0.27974 0.27974
#
# Static dielectric constant tensor:
#      x y z
#    x 3.113130 0.000000 0.000000 
#    y 0.000000 3.113130 0.000000 
#    z 0.000000 0.000000 2.937220 
# 
# 
# High freq. dielectric constant tensor:
#      x y z
#    x 1.637470 0.000000 0.000000 
#    y 0.000000 1.637470 0.000000 
#    z 0.000000 0.000000 1.623640 
# 
# From -- ./inp_files/7643.got.cif
#   From: 2010.03.12/outbox.cif.g09.slc.cpg/sg123_4_cif.got.tgz:7643.got - 2010.04.06 16:26:55.
