data_PCOD8312933
_publ_section_title
;
Structure prediction by ZEFSAII (Michael W. Deem and Ramdas Pophale) SiO2 
 PCOD8312933
Probable space group: P 4/M M M
;
_chemical_formula_sum "Si O2"
_cell_formula_units_Z 120
_cell_length_a 22.441056
_cell_length_b 22.441056
_cell_length_c 13.275852
_cell_angle_alpha 90.000000
_cell_angle_beta 90.000000
_cell_angle_gamma 90.000000
_cell_volume 6685.732269
_symmetry_space_group_name_H-M "P 4/M M M"
_symmetry_group_IT_number 123
_symmetry_cell_setting 'tetragonal'
loop_
_space_group_symop_operation_xyz
x,y,z
-y,x,z
-x,-y,z
y,-x,z
x,-y,-z
-x,y,-z
y,x,-z
-y,-x,-z
-x,-y,-z
y,-x,-z
x,y,-z
-y,x,-z
-x,y,z
x,-y,z
-y,-x,z
y,x,z
loop_
_atom_site_type_symbol
_atom_site_label
_atom_site_fract_x
_atom_site_fract_y
_atom_site_fract_z
Si Si1 0.930850 0.754702 0.804111
Si Si2 0.232879 0.568350 0.113989
Si Si3 0.430761 0.332505 0.269427
Si Si4 0.349354 0.748972 0.388953
Si Si5 0.432571 0.069700 0.612421
Si Si6 0.068935 0.832937 0.000000
Si Si7 0.146715 0.355299 0.241315
Si Si8 0.068060 0.834550 0.613662
O O1 0.915608 0.796107 0.899279
O O2 0.888235 0.697876 0.812869
O O3 0.915604 0.785547 0.697200
O O4 0.000000 0.735152 0.807361
O O5 0.213949 0.500000 0.127070
O O6 0.296406 0.580184 0.166533
O O7 0.177972 0.606310 0.155201
O O8 0.243327 0.587164 0.000000
O O9 0.500000 0.347976 0.287895
O O10 0.394205 0.394205 0.266281
O O11 0.407834 0.288458 0.357088
O O12 0.362433 0.774170 0.500000
O O13 0.292476 0.707525 0.387589
O O14 0.332043 0.803011 0.316965
O O15 0.408562 0.084344 0.500000
O O16 0.500000 0.093020 0.622082
O O17 0.393927 0.100218 0.696991
O O18 0.429499 0.000000 0.632498
O O19 0.107026 0.892975 0.000000
O O20 0.000000 0.851930 0.000000
O O21 0.078589 0.808726 0.500000
O O22 0.107169 0.892832 0.632361
O O23 0.000000 0.854939 0.627568
#
# Coordination Sequence:
#
# PCOD8312933 Si02
#       8
#    16  16  16  16  16   8  16  16
#     4  10  22  37  53  77 110 144 174 215 270 328
#     4   9  19  35  54  75 100 130 169 219 266 305
#     4   9  18  33  53  77 105 137 171 212 264 317
#     4   9  19  34  49  71 104 137 172 216 256 292
#     4   9  18  32  50  76 109 139 171 216 262 302
#     4  10  22  41  62  82 107 139 179 229 280 330
#     4  11  20  32  55  76 101 134 180 212 254 315
#     4   9  18  33  53  77 105 136 171 213 262 316
#
# _framework density 17.94867
#
# number of rings (size 3 to 8) (size 9 to 14) (size 15 to 20)
#    0.000    2.533    0.000    2.000    0.933    3.533 
#    0.000    3.333    0.000    2.400    0.000    6.533 
#    0.000    0.000    0.000    0.000    0.000    0.000 
#
# Total GULP energy -1487797.201812 kJ/mol
# GULP energy per Si atom -12398.310015 kJ/mol
# Density = 1.790782 g / cm^3
# Si number density = 17.948670 Si / 1000 Ang^3
#
#
#
# Elastic Constant Matrix: (Units=GPa)
#
#
# Indices 1 2 3 4 5 6 
#
# 1 84.3585 53.3779 34.8172 0.0000 0.0000 0.0000
# 2 53.3779 84.3568 34.8167 0.0000 0.0000 0.0000
# 3 34.8172 34.8167 100.1929 0.0000 0.0000 0.0000
# 4 0.0000 0.0000 0.0000 21.1935 0.0000 0.0000
# 5 0.0000 0.0000 0.0000 0.0000 21.1936 0.0000
# 6 0.0000 0.0000 0.0000 0.0000 0.0000 38.6180
#
#
#
# Elastic Compliance Matrix: (Units=1/GPa)
#
#
# Indices 1 2 3 4 5 6 
#
# 1 0.020543 -0.011736 -0.003061 0.000000 0.000000 0.000000
# 2 -0.011736 0.020544 -0.003061 0.000000 0.000000 0.000000
# 3 -0.003061 -0.003061 0.012108 0.000000 0.000000 0.000000
# 4 0.000000 0.000000 0.000000 0.047184 0.000000 0.000000
# 5 0.000000 0.000000 0.000000 0.000000 0.047184 0.000000
# 6 0.000000 0.000000 0.000000 0.000000 0.000000 0.025895
#
#
# Mechanical properties :
#
#
# Convention : Reuss Voigt Hill
#
# Bulk Modulus (GPa) = 57.20633 57.21463 57.21048
# Shear Modulus (GPa) = 23.25596 25.92745 24.59171
#
# Velocity S-wave (km/s) = 3.60348 3.80482 3.70552
# Velocity P-wave (km/s) = 7.01818 7.15879 7.08883
#
# Compressibility (1/GPa) = 0.01748058
#
# Stress axis : x y z
#
# Youngs Moduli (GPa) = 48.67800 48.67708 82.59074
#
# Poissons Ratio (x) = 0.57126 0.25278
# Poissons Ratio (y) = 0.57127 0.25278
# Poissons Ratio (z) = 0.14899 0.14898
#
# Static dielectric constant tensor:
#      x y z
#    x 3.276180 0.000000 0.000000 
#    y 0.000000 3.276180 0.000000 
#    z 0.000000 0.000000 3.521180 
# 
# 
# High freq. dielectric constant tensor:
#      x y z
#    x 1.691770 0.000000 0.000000 
#    y 0.000000 1.691770 0.000000 
#    z 0.000000 0.000000 1.701820 
# 
# From -- ./inp_files/4593.got.cif
#   From: 2010.03.12/outbox.cif.g09.slc.cpg/sg123_3_cif.got.tgz:4593.got - 2010.04.06 16:26:55.
