data_PCOD8312779
_publ_section_title
;
Structure prediction by ZEFSAII (Michael W. Deem and Ramdas Pophale) SiO2 
 PCOD8312779
Probable space group: P 4/M M M
;
_chemical_formula_sum "Si O2"
_cell_formula_units_Z 72
_cell_length_a 13.318365
_cell_length_b 13.318365
_cell_length_c 23.290554
_cell_angle_alpha 90.000000
_cell_angle_beta 90.000000
_cell_angle_gamma 90.000000
_cell_volume 4131.251598
_symmetry_space_group_name_H-M "P 4/M M M"
_symmetry_group_IT_number 123
_symmetry_cell_setting 'tetragonal'
loop_
_space_group_symop_operation_xyz
x,y,z
-y,x,z
-x,-y,z
y,-x,z
x,-y,-z
-x,y,-z
y,x,-z
-y,-x,-z
-x,-y,-z
y,-x,-z
x,y,-z
-y,x,-z
-x,y,z
x,-y,z
-y,-x,z
y,x,z
loop_
_atom_site_type_symbol
_atom_site_label
_atom_site_fract_x
_atom_site_fract_y
_atom_site_fract_z
Si Si1 0.118128 0.282777 0.500000
Si Si2 0.278664 0.118595 0.289568
Si Si3 0.117928 0.388158 0.824353
Si Si4 0.782816 0.617598 0.607169
Si Si5 0.776308 0.383712 0.937049
O O1 0.176626 0.176626 0.500000
O O2 0.146707 0.348186 0.555160
O O3 0.000000 0.259146 0.500000
O O4 0.172294 0.172294 0.302025
O O5 0.316257 0.153251 0.226879
O O6 0.361504 0.155265 0.334874
O O7 0.262197 0.000000 0.294626
O O8 0.162272 0.500000 0.814256
O O9 0.152054 0.344491 0.886054
O O10 0.000000 0.393815 0.825168
O O11 0.758176 0.500000 0.602441
O O12 0.677408 0.677408 0.606250
O O13 0.753857 0.500000 0.929763
O O14 0.669723 0.330278 0.931666
O O15 0.825632 0.361571 0.000000
#
# Coordination Sequence:
#
# PCOD8312779 Si02
#       5
#     8  16  16  16  16
#     4  10  21  36  54  78 106 136 171 208 246 288
#     4  10  20  33  50  72  97 126 160 197 238 285
#     4   9  17  29  46  67  89 115 149 189 233 279
#     4  10  21  36  54  77 103 131 165 203 243 289
#     4   9  17  28  42  61  86 116 148 183 224 270
#
# _framework density 17.428132000000002
#
# number of rings (size 3 to 8) (size 9 to 14) (size 15 to 20)
#    0.000    2.444    0.000    2.333    0.000    4.333 
#    0.000    3.333    0.000    6.000    0.000    3.111 
#    0.000    0.000    0.000   20.667    0.000    0.444 
#
# Total GULP energy -892557.797871 kJ/mol
# GULP energy per Si atom -12396.636082 kJ/mol
# Density = 1.738846 g / cm^3
# Si number density = 17.428132 Si / 1000 Ang^3
#
#
#
# Elastic Constant Matrix: (Units=GPa)
#
#
# Indices 1 2 3 4 5 6 
#
# 1 81.3826 45.1560 44.1965 0.0000 0.0000 0.0000
# 2 45.1560 81.3826 44.1965 0.0000 0.0000 0.0000
# 3 44.1965 44.1965 138.8391 0.0000 0.0000 0.0000
# 4 0.0000 0.0000 0.0000 22.2533 0.0000 0.0000
# 5 0.0000 0.0000 0.0000 0.0000 22.2533 0.0000
# 6 0.0000 0.0000 0.0000 0.0000 0.0000 17.9982
#
#
#
# Elastic Compliance Matrix: (Units=1/GPa)
#
#
# Indices 1 2 3 4 5 6 
#
# 1 0.018883 -0.008721 -0.003235 0.000000 0.000000 0.000000
# 2 -0.008721 0.018883 -0.003235 0.000000 0.000000 0.000000
# 3 -0.003235 -0.003235 0.009262 0.000000 0.000000 0.000000
# 4 0.000000 0.000000 0.000000 0.044937 0.000000 0.000000
# 5 0.000000 0.000000 0.000000 0.000000 0.044937 0.000000
# 6 0.000000 0.000000 0.000000 0.000000 0.000000 0.055561
#
#
# Mechanical properties :
#
#
# Convention : Reuss Voigt Hill
#
# Bulk Modulus (GPa) = 60.07033 63.18913 61.62973
# Shear Modulus (GPa) = 21.89191 23.70464 22.79827
#
# Velocity S-wave (km/s) = 3.54803 3.69200 3.62073
# Velocity P-wave (km/s) = 7.16428 7.38310 7.27452
#
# Compressibility (1/GPa) = 0.01664715
#
# Stress axis : x y z
#
# Youngs Moduli (GPa) = 52.95698 52.95698 107.96583
#
# Poissons Ratio (x) = 0.46182 0.34927
# Poissons Ratio (y) = 0.46182 0.34927
# Poissons Ratio (z) = 0.17132 0.17132
#
# Static dielectric constant tensor:
#      x y z
#    x 3.098310 0.000000 0.000000 
#    y 0.000000 3.098310 0.000000 
#    z 0.000000 0.000000 3.694760 
# 
# 
# High freq. dielectric constant tensor:
#      x y z
#    x 1.659960 0.000000 0.000000 
#    y 0.000000 1.659960 0.000000 
#    z 0.000000 0.000000 1.698490 
# 
# From -- ./inp_files/7808.got.cif
#   From: 2010.03.12/outbox.cif.g09.slc.cpg/sg123_4_cif.got.tgz:7808.got - 2010.04.06 16:26:55.
