data_PCOD8312198
_publ_section_title
;
Structure prediction by ZEFSAII (Michael W. Deem and Ramdas Pophale) SiO2 
 PCOD8312198
Probable space group: P 4/M M M
;
_chemical_formula_sum "Si O2"
_cell_formula_units_Z 112
_cell_length_a 17.809686
_cell_length_b 17.809686
_cell_length_c 22.449086
_cell_angle_alpha 90.000000
_cell_angle_beta 90.000000
_cell_angle_gamma 90.000000
_cell_volume 7120.511444
_symmetry_space_group_name_H-M "P 4/M M M"
_symmetry_group_IT_number 123
_symmetry_cell_setting 'tetragonal'
loop_
_space_group_symop_operation_xyz
x,y,z
-y,x,z
-x,-y,z
y,-x,z
x,-y,-z
-x,y,-z
y,x,-z
-y,-x,-z
-x,-y,-z
y,-x,-z
x,y,-z
-y,x,-z
-x,y,z
x,-y,z
-y,-x,z
y,x,z
loop_
_atom_site_type_symbol
_atom_site_label
_atom_site_fract_x
_atom_site_fract_y
_atom_site_fract_z
Si Si1 0.296215 0.085647 0.243313
Si Si2 0.414654 0.295088 0.276511
Si Si3 0.585373 0.913740 0.429793
Si Si4 0.822599 0.584534 0.823444
Si Si5 0.684898 0.807425 0.932449
Si Si6 0.203653 0.085196 0.128377
Si Si7 0.311465 0.190774 0.648250
O O1 0.371791 0.111129 0.210029
O O2 0.228096 0.094333 0.197124
O O3 0.278820 0.137035 0.300215
O O4 0.306590 0.000000 0.264278
O O5 0.500000 0.307599 0.296433
O O6 0.375830 0.375830 0.270581
O O7 0.408434 0.254506 0.212983
O O8 0.374810 0.245731 0.326750
O O9 0.591449 0.903703 0.500000
O O10 0.500000 0.893184 0.408912
O O11 0.648449 0.859652 0.401789
O O12 0.602441 0.000000 0.411626
O O13 0.851276 0.500000 0.828007
O O14 0.805873 0.613328 0.889698
O O15 0.730735 0.730735 0.923412
O O16 0.736988 0.877645 0.916073
O O17 0.656637 0.816265 0.000000
O O18 0.122744 0.122744 0.121194
O O19 0.196153 0.000000 0.108540
O O20 0.241334 0.241334 0.623561
#
# Coordination Sequence:
#
# PCOD8312198 Si02
#       7
#    16  16  16  16  16  16  16
#     4   9  17  29  44  62  86 115 141 166 204 255
#     4   9  17  28  42  61  85 112 141 174 212 253
#     4   9  18  32  48  66  91 123 155 185 218 258
#     4   9  17  28  42  62  85 106 134 175 215 249
#     4   9  17  29  44  59  77 106 139 167 204 257
#     4   9  17  29  44  61  81 104 132 166 202 242
#     4  10  18  28  45  68  92 116 145 181 219 256
#
# _framework density 15.729207000000001
#
# number of rings (size 3 to 8) (size 9 to 14) (size 15 to 20)
#    0.000    2.857    0.000    2.143    0.000    5.429 
#    0.000    0.000    0.000    0.000    0.000    6.000 
#    0.000    2.571    0.000   32.857    0.000    0.000 
#
# Total GULP energy -1388485.846136 kJ/mol
# GULP energy per Si atom -12397.195055 kJ/mol
# Density = 1.569341 g / cm^3
# Si number density = 15.729207 Si / 1000 Ang^3
#
#
#
# Elastic Constant Matrix: (Units=GPa)
#
#
# Indices 1 2 3 4 5 6 
#
# 1 81.0956 47.6396 26.5572 0.0000 0.0000 0.0000
# 2 47.6396 81.0956 26.5572 0.0000 0.0000 0.0000
# 3 26.5572 26.5572 59.3357 0.0000 0.0000 0.0000
# 4 0.0000 0.0000 0.0000 19.3291 0.0000 0.0000
# 5 0.0000 0.0000 0.0000 0.0000 19.3291 0.0000
# 6 0.0000 0.0000 0.0000 0.0000 0.0000 21.9878
#
#
#
# Elastic Compliance Matrix: (Units=1/GPa)
#
#
# Indices 1 2 3 4 5 6 
#
# 1 0.019709 -0.010181 -0.004264 0.000000 0.000000 0.000000
# 2 -0.010181 0.019709 -0.004264 0.000000 0.000000 0.000000
# 3 -0.004264 -0.004264 0.020670 0.000000 0.000000 0.000000
# 4 0.000000 0.000000 0.000000 0.051735 0.000000 0.000000
# 5 0.000000 0.000000 0.000000 0.000000 0.051735 0.000000
# 6 0.000000 0.000000 0.000000 0.000000 0.000000 0.045480
#
#
# Mechanical properties :
#
#
# Convention : Reuss Voigt Hill
#
# Bulk Modulus (GPa) = 44.11472 47.00385 45.55928
# Shear Modulus (GPa) = 19.68400 20.18075 19.93238
#
# Velocity S-wave (km/s) = 3.54139 3.58580 3.56367
# Velocity P-wave (km/s) = 6.69546 6.86236 6.77943
#
# Compressibility (1/GPa) = 0.02266817
#
# Stress axis : x y z
#
# Youngs Moduli (GPa) = 50.73928 50.73928 48.37855
#
# Poissons Ratio (x) = 0.51660 0.20629
# Poissons Ratio (y) = 0.51660 0.20629
# Poissons Ratio (z) = 0.21636 0.21636
#
# Static dielectric constant tensor:
#      x y z
#    x 3.002640 0.000000 0.000000 
#    y 0.000000 3.002640 0.000000 
#    z 0.000000 0.000000 2.896690 
# 
# 
# High freq. dielectric constant tensor:
#      x y z
#    x 1.598510 0.000000 0.000000 
#    y 0.000000 1.598510 0.000000 
#    z 0.000000 0.000000 1.592410 
# 
# From -- ./inp_files/6648.got.cif
#   From: 2010.03.12/outbox.cif.g09.slc.cpg/sg123_4_cif.got.tgz:6648.got - 2010.04.06 16:26:55.
