data_PCOD8312250
_publ_section_title
;
Structure prediction by ZEFSAII (Michael W. Deem and Ramdas Pophale) SiO2 
 PCOD8312250
Probable space group: P 4/M M M
;
_chemical_formula_sum "Si O2"
_cell_formula_units_Z 96
_cell_length_a 21.882975
_cell_length_b 21.882975
_cell_length_c 12.653143
_cell_angle_alpha 90.000000
_cell_angle_beta 90.000000
_cell_angle_gamma 90.000000
_cell_volume 6059.142196
_symmetry_space_group_name_H-M "P 4/M M M"
_symmetry_group_IT_number 123
_symmetry_cell_setting 'tetragonal'
loop_
_space_group_symop_operation_xyz
x,y,z
-y,x,z
-x,-y,z
y,-x,z
x,-y,-z
-x,y,-z
y,x,-z
-y,-x,-z
-x,-y,-z
y,-x,-z
x,y,-z
-y,x,-z
-x,y,z
x,-y,z
-y,-x,z
y,x,z
loop_
_atom_site_type_symbol
_atom_site_label
_atom_site_fract_x
_atom_site_fract_y
_atom_site_fract_z
Si Si1 0.632930 0.729769 0.616308
Si Si2 0.755829 0.429625 0.176345
Si Si3 0.572095 0.667339 0.000000
Si Si4 0.735317 0.169016 0.378460
Si Si5 0.431098 0.927561 0.500000
Si Si6 0.889616 0.571679 0.877838
Si Si7 0.069294 0.651406 0.694135
O O1 0.603270 0.736742 0.500000
O O2 0.662796 0.662796 0.628219
O O3 0.580342 0.739135 0.701874
O O4 0.684812 0.779393 0.634141
O O5 0.759436 0.500000 0.149656
O O6 0.703506 0.401946 0.101865
O O7 0.821560 0.403053 0.144274
O O8 0.500000 0.658602 0.000000
O O9 0.600069 0.600069 0.000000
O O10 0.741511 0.147798 0.500000
O O11 0.800471 0.199530 0.341266
O O12 0.713122 0.111065 0.307672
O O13 0.500000 0.899700 0.500000
O O14 0.394595 0.904853 0.396352
O O15 0.435710 0.000000 0.500000
O O16 0.897948 0.500000 0.847483
O O17 0.931584 0.614641 0.804768
O O18 0.907550 0.581783 0.000000
O O19 0.000000 0.671928 0.669903
#
# Coordination Sequence:
#
# PCOD8312250 Si02
#       7
#    16  16   8  16   8  16  16
#     4   9  17  29  45  65  89 116 147 185 232 284
#     4  10  18  30  47  66  89 117 153 195 236 281
#     4  10  20  33  50  70  89 115 153 199 254 304
#     4   9  17  30  47  67  93 122 152 189 234 282
#     4   9  18  30  43  66  98 126 156 195 236 275
#     4  10  20  34  48  63  92 130 167 202 232 274
#     4  11  20  31  49  70  95 126 161 201 239 281
#
# _framework density 15.843826999999999
#
# number of rings (size 3 to 8) (size 9 to 14) (size 15 to 20)
#    0.000    2.250    3.333    2.000    0.000    1.750 
#    0.000    0.833    0.000    0.000    0.000    0.000 
#    0.000    0.333    0.000   17.333    0.000    0.000 
#
# Total GULP energy -1189792.873859 kJ/mol
# GULP energy per Si atom -12393.675769 kJ/mol
# Density = 1.580777 g / cm^3
# Si number density = 15.843827 Si / 1000 Ang^3
#
#
#
# Elastic Constant Matrix: (Units=GPa)
#
#
# Indices 1 2 3 4 5 6 
#
# 1 52.1468 34.5792 23.8565 0.0000 0.0000 0.0000
# 2 34.5792 52.1468 23.8565 0.0000 0.0000 0.0000
# 3 23.8565 23.8565 95.4531 0.0000 0.0000 0.0000
# 4 0.0000 0.0000 0.0000 19.0091 0.0000 0.0000
# 5 0.0000 0.0000 0.0000 0.0000 19.0091 0.0000
# 6 0.0000 0.0000 0.0000 0.0000 0.0000 21.1054
#
#
#
# Elastic Compliance Matrix: (Units=1/GPa)
#
#
# Indices 1 2 3 4 5 6 
#
# 1 0.035146 -0.021777 -0.003341 0.000000 0.000000 0.000000
# 2 -0.021777 0.035146 -0.003341 0.000000 0.000000 0.000000
# 3 -0.003341 -0.003341 0.012147 0.000000 0.000000 0.000000
# 4 0.000000 0.000000 0.000000 0.052606 0.000000 0.000000
# 5 0.000000 0.000000 0.000000 0.000000 0.052606 0.000000
# 6 0.000000 0.000000 0.000000 0.000000 0.000000 0.047381
#
#
# Mechanical properties :
#
#
# Convention : Reuss Voigt Hill
#
# Bulk Modulus (GPa) = 39.18638 40.48125 39.83381
# Shear Modulus (GPa) = 16.64126 19.65501 18.14813
#
# Velocity S-wave (km/s) = 3.24440 3.52596 3.38810
# Velocity P-wave (km/s) = 6.23068 6.49478 6.36410
#
# Compressibility (1/GPa) = 0.02551907
#
# Stress axis : x y z
#
# Youngs Moduli (GPa) = 28.45277 28.45277 82.32819
#
# Poissons Ratio (x) = 0.61962 0.27508
# Poissons Ratio (y) = 0.61962 0.27508
# Poissons Ratio (z) = 0.09507 0.09507
#
# Static dielectric constant tensor:
#      x y z
#    x 2.924870 0.000000 0.000000 
#    y 0.000000 2.924870 0.000000 
#    z 0.000000 0.000000 3.077400 
# 
# 
# High freq. dielectric constant tensor:
#      x y z
#    x 1.580320 0.000000 0.000000 
#    y 0.000000 1.580320 0.000000 
#    z 0.000000 0.000000 1.610970 
# 
# From -- ./inp_files/3312.got.cif
#   From: 2010.03.12/outbox.cif.g09.slc.cpg/sg123_2_cif.got.tgz:3312.got - 2010.04.06 16:26:55.
