data_PCOD8312800
_publ_section_title
;
Structure prediction by ZEFSAII (Michael W. Deem and Ramdas Pophale) SiO2 
 PCOD8312800
Probable space group: P 4/M M M
;
_chemical_formula_sum "Si O2"
_cell_formula_units_Z 96
_cell_length_a 24.596658
_cell_length_b 24.596658
_cell_length_c 8.862301
_cell_angle_alpha 90.000000
_cell_angle_beta 90.000000
_cell_angle_gamma 90.000000
_cell_volume 5361.652976
_symmetry_space_group_name_H-M "P 4/M M M"
_symmetry_group_IT_number 123
_symmetry_cell_setting 'tetragonal'
loop_
_space_group_symop_operation_xyz
x,y,z
-y,x,z
-x,-y,z
y,-x,z
x,-y,-z
-x,y,-z
y,x,-z
-y,-x,-z
-x,-y,-z
y,-x,-z
x,y,-z
-y,x,-z
-x,y,z
x,-y,z
-y,-x,z
y,x,z
loop_
_atom_site_type_symbol
_atom_site_label
_atom_site_fract_x
_atom_site_fract_y
_atom_site_fract_z
Si Si1 0.646929 0.266726 0.176977
Si Si2 0.000000 0.243009 0.825616
Si Si3 0.437280 0.908415 0.821848
Si Si4 0.205346 0.437444 0.330191
Si Si5 0.886295 0.799789 0.825015
Si Si6 0.187762 0.277909 0.665771
Si Si7 0.000000 0.637628 0.679911
O O1 0.680449 0.319552 0.234861
O O2 0.589604 0.260323 0.261264
O O3 0.677229 0.210916 0.221126
O O4 0.638586 0.270069 0.000000
O O5 0.950263 0.201717 0.789775
O O6 0.000000 0.299298 0.732298
O O7 0.000000 0.261065 0.000000
O O8 0.500000 0.923544 0.779469
O O9 0.424066 0.847300 0.770287
O O10 0.394663 0.947399 0.739264
O O11 0.428439 0.913286 0.000000
O O12 0.194833 0.416746 0.500000
O O13 0.219465 0.500000 0.327789
O O14 0.855980 0.855980 0.771930
O O15 0.866285 0.746552 0.736989
O O16 0.873663 0.790831 0.000000
O O17 0.175320 0.302912 0.500000
O O18 0.229981 0.229981 0.648980
O O19 0.000000 0.636723 0.500000
#
# Coordination Sequence:
#
# PCOD8312800 Si02
#       7
#    16   8  16  16  16  16   8
#     4  10  20  33  51  75 103 137 176 215 257 308
#     4  10  22  37  53  75 102 131 164 207 260 313
#     4  10  21  38  58  76  98 135 179 219 261 309
#     4  10  21  36  54  77 105 138 177 220 265 310
#     4   9  18  34  54  73  96 128 164 201 248 310
#     4   9  17  29  47  71  98 128 161 201 250 300
#     4  12  25  37  52  75 105 135 169 219 264 305
#
# _framework density 17.904924999999999
#
# number of rings (size 3 to 8) (size 9 to 14) (size 15 to 20)
#    0.000    2.167    0.000    3.000    2.333    6.667 
#    0.000    0.000    0.000    0.250    0.000    1.750 
#    0.000    0.333    0.000    8.583    0.000    7.833 
#
# Total GULP energy -1189706.602257 kJ/mol
# GULP energy per Si atom -12392.777107 kJ/mol
# Density = 1.786417 g / cm^3
# Si number density = 17.904925 Si / 1000 Ang^3
#
#
#
# Elastic Constant Matrix: (Units=GPa)
#
#
# Indices 1 2 3 4 5 6 
#
# 1 87.6459 48.5065 38.0460 0.0000 0.0000 0.0000
# 2 48.5065 87.6459 38.0460 0.0000 0.0000 0.0000
# 3 38.0460 38.0460 83.0256 0.0000 0.0000 0.0000
# 4 0.0000 0.0000 0.0000 20.7115 0.0000 0.0000
# 5 0.0000 0.0000 0.0000 0.0000 20.7115 0.0000
# 6 0.0000 0.0000 0.0000 0.0000 0.0000 31.2017
#
#
#
# Elastic Compliance Matrix: (Units=1/GPa)
#
#
# Indices 1 2 3 4 5 6 
#
# 1 0.017711 -0.007838 -0.004524 0.000000 0.000000 0.000000
# 2 -0.007838 0.017711 -0.004524 0.000000 0.000000 0.000000
# 3 -0.004524 -0.004524 0.016191 0.000000 0.000000 0.000000
# 4 0.000000 0.000000 0.000000 0.048282 0.000000 0.000000
# 5 0.000000 0.000000 0.000000 0.000000 0.048282 0.000000
# 6 0.000000 0.000000 0.000000 0.000000 0.000000 0.032050
#
#
# Mechanical properties :
#
#
# Convention : Reuss Voigt Hill
#
# Bulk Modulus (GPa) = 56.05360 56.39049 56.22204
# Shear Modulus (GPa) = 22.73255 23.43952 23.08603
#
# Velocity S-wave (km/s) = 3.56705 3.62209 3.59467
# Velocity P-wave (km/s) = 6.95265 7.00396 6.97835
#
# Compressibility (1/GPa) = 0.01784007
#
# Stress axis : x y z
#
# Youngs Moduli (GPa) = 56.46058 56.46058 61.76267
#
# Poissons Ratio (x) = 0.44255 0.27944
# Poissons Ratio (y) = 0.44255 0.27944
# Poissons Ratio (z) = 0.25545 0.25545
#
# Static dielectric constant tensor:
#      x y z
#    x 3.383030 0.000000 0.000000 
#    y 0.000000 3.383030 0.000000 
#    z 0.000000 0.000000 3.604270 
# 
# 
# High freq. dielectric constant tensor:
#      x y z
#    x 1.678160 0.000000 0.000000 
#    y 0.000000 1.678160 0.000000 
#    z 0.000000 0.000000 1.703550 
# 
# From -- ./inp_files/1688.got.cif
#   From: 2010.03.12/outbox.cif.g09.slc.cpg/sg123_1_cif.got.tgz:1688.got - 2010.04.06 16:26:55.
