data_PCOD8312169
_publ_section_title
;
Structure prediction by ZEFSAII (Michael W. Deem and Ramdas Pophale) SiO2 
 PCOD8312169
Probable space group: P 4/M M M
;
_chemical_formula_sum "Si O2"
_cell_formula_units_Z 56
_cell_length_a 15.746585
_cell_length_b 15.746585
_cell_length_c 12.827253
_cell_angle_alpha 90.000000
_cell_angle_beta 90.000000
_cell_angle_gamma 90.000000
_cell_volume 3180.580737
_symmetry_space_group_name_H-M "P 4/M M M"
_symmetry_group_IT_number 123
_symmetry_cell_setting 'tetragonal'
loop_
_space_group_symop_operation_xyz
x,y,z
-y,x,z
-x,-y,z
y,-x,z
x,-y,-z
-x,y,-z
y,x,-z
-y,-x,-z
-x,-y,-z
y,-x,-z
x,y,-z
-y,x,-z
-x,y,z
x,-y,z
-y,-x,z
y,x,z
loop_
_atom_site_type_symbol
_atom_site_label
_atom_site_fract_x
_atom_site_fract_y
_atom_site_fract_z
Si Si1 0.647902 0.904653 0.694199
Si Si2 0.095004 0.768491 0.881997
Si Si3 0.731304 0.406256 0.620861
Si Si4 0.907596 0.768971 0.500000
O O1 0.687549 0.894631 0.808356
O O2 0.587976 0.822601 0.679893
O O3 0.716661 0.894356 0.604582
O O4 0.604877 0.000000 0.684884
O O5 0.157427 0.842574 0.844918
O O6 0.000000 0.805575 0.873427
O O7 0.115098 0.738835 0.000000
O O8 0.749189 0.386614 0.500000
O O9 0.689750 0.500000 0.634472
O O10 0.665654 0.334347 0.664892
O O11 0.843907 0.843907 0.500000
O O12 0.000000 0.810242 0.500000
#
# Coordination Sequence:
#
# PCOD8312169 Si02
#       4
#    16  16  16   8
#     4  10  19  31  48  70  96 127 161 198 239 287
#     4   9  17  28  43  64  91 126 167 209 250 290
#     4  10  20  33  51  74 100 130 162 199 243 291
#     4  10  18  27  41  61  88 124 160 196 237 280
#
# _framework density 17.606846999999998
#
# number of rings (size 3 to 8) (size 9 to 14) (size 15 to 20)
#    0.000    2.286    1.429    2.571    0.000    1.286 
#    0.000    4.286    0.000    6.000    0.000    4.000 
#    0.000    0.000    0.000    6.000    0.000    0.286 
#
# Total GULP energy -693759.517201 kJ/mol
# GULP energy per Si atom -12388.562807 kJ/mol
# Density = 1.756677 g / cm^3
# Si number density = 17.606847 Si / 1000 Ang^3
#
#
#
# Elastic Constant Matrix: (Units=GPa)
#
#
# Indices 1 2 3 4 5 6 
#
# 1 81.9771 44.5131 16.5610 0.0000 0.0000 0.0000
# 2 44.5131 81.9771 16.5610 0.0000 0.0000 0.0000
# 3 16.5610 16.5610 63.9980 0.0000 0.0000 0.0000
# 4 0.0000 0.0000 0.0000 15.4882 0.0000 0.0000
# 5 0.0000 0.0000 0.0000 0.0000 15.4882 0.0000
# 6 0.0000 0.0000 0.0000 0.0000 0.0000 12.3465
#
#
#
# Elastic Compliance Matrix: (Units=1/GPa)
#
#
# Indices 1 2 3 4 5 6 
#
# 1 0.017586 -0.009106 -0.002194 0.000000 0.000000 0.000000
# 2 -0.009106 0.017586 -0.002194 0.000000 0.000000 0.000000
# 3 -0.002194 -0.002194 0.016761 0.000000 0.000000 0.000000
# 4 0.000000 0.000000 0.000000 0.064565 0.000000 0.000000
# 5 0.000000 0.000000 0.000000 0.000000 0.064565 0.000000
# 6 0.000000 0.000000 0.000000 0.000000 0.000000 0.080994
#
#
# Mechanical properties :
#
#
# Convention : Reuss Voigt Hill
#
# Bulk Modulus (GPa) = 40.08977 42.58027 41.33502
# Shear Modulus (GPa) = 16.81445 18.68574 17.75010
#
# Velocity S-wave (km/s) = 3.09365 3.26126 3.17856
# Velocity P-wave (km/s) = 5.96488 6.19819 6.08265
#
# Compressibility (1/GPa) = 0.02494402
#
# Stress axis : x y z
#
# Youngs Moduli (GPa) = 56.86235 56.86235 59.66146
#
# Poissons Ratio (x) = 0.51779 0.13093
# Poissons Ratio (y) = 0.51779 0.13093
# Poissons Ratio (z) = 0.12478 0.12478
#
# Static dielectric constant tensor:
#      x y z
#    x 3.253030 0.000000 0.000000 
#    y 0.000000 3.253030 0.000000 
#    z 0.000000 0.000000 3.299170 
# 
# 
# High freq. dielectric constant tensor:
#      x y z
#    x 1.669910 0.000000 0.000000 
#    y 0.000000 1.669910 0.000000 
#    z 0.000000 0.000000 1.666960 
# 
# From -- ./inp_files/2448.got.cif
#   From: 2010.03.12/outbox.cif.g09.slc.cpg/sg123_2_cif.got.tgz:2448.got - 2010.04.06 16:26:55.
