data_PCOD8312064
_publ_section_title
;
Structure prediction by ZEFSAII (Michael W. Deem and Ramdas Pophale) SiO2 
 PCOD8312064
Probable space group: I -4 2 D
;
_chemical_formula_sum "Si O2"
_cell_formula_units_Z 52
_cell_length_a 20.218589
_cell_length_b 20.218589
_cell_length_c 4.858285
_cell_angle_alpha 90.000000
_cell_angle_beta 90.000000
_cell_angle_gamma 90.000000
_cell_volume 1986.024841
_symmetry_space_group_name_H-M "I -4 2 D"
_symmetry_group_IT_number 122
_symmetry_cell_setting 'tetragonal'
loop_
_space_group_symop_operation_xyz
x,y,z
y,-x,-z
-x,-y,z
-y,x,-z
x,1/2-y,1/4-z
-x,1/2+y,1/4-z
-y,1/2-x,1/4+z
y,1/2+x,1/4+z
1/2+x,1/2+y,1/2+z
1/2+y,1/2-x,1/2-z
1/2-x,1/2-y,1/2+z
1/2-y,1/2+x,1/2-z
1/2+x,-y,3/4-z
1/2-x,y,3/4-z
1/2-y,-x,3/4+z
1/2+y,x,3/4+z
loop_
_atom_site_type_symbol
_atom_site_label
_atom_site_fract_x
_atom_site_fract_y
_atom_site_fract_z
Si Si1 0.496104 0.750000 0.125000
Si Si2 0.616058 0.581203 0.913811
Si Si3 0.601035 0.833250 0.851218
Si Si4 0.000000 0.500000 0.750000
Si Si5 0.790379 0.750000 0.625000
O O1 0.450234 0.688511 0.038097
O O2 0.543097 0.722504 0.373738
O O3 0.613924 0.645098 0.712809
O O4 0.560767 0.528655 0.812756
O O5 0.587568 0.602891 0.211064
O O6 0.669120 0.806661 0.973624
O O7 0.750000 0.784319 0.375000
#
# Coordination Sequence:
#
# PCOD8312064 Si02
#       5
#     8  16  16   4   8
#     4  11  28  50  80 116 162 218 279 344 420 501
#     4  12  28  48  80 111 161 210 278 339 418 488
#     4  11  28  48  72 115 155 204 270 337 402 497
#     4  12  28  54  80 118 160 222 276 354 404 526
#     4  11  24  46  74 106 154 198 253 322 408 491
#
# _framework density 26.182956000000001
#
# number of rings (size 3 to 8) (size 9 to 14) (size 15 to 20)
#    0.000    0.615    3.077    1.846   10.769    7.385 
#    0.000    0.000    0.000    0.000    0.000    0.000 
#    0.000    0.000    0.000    0.000    0.000    0.000 
#
# Total GULP energy -322119.292384 kJ/mol
# GULP energy per Si atom -12389.203553 kJ/mol
# Density = 2.612336 g / cm^3
# Si number density = 26.182956 Si / 1000 Ang^3
#
#
#
# Elastic Constant Matrix: (Units=GPa)
#
#
# Indices 1 2 3 4 5 6 
#
# 1 154.2356 61.4835 28.6060 0.0000 0.0000 0.0000
# 2 61.4835 154.2356 28.6060 0.0000 0.0000 0.0000
# 3 28.6060 28.6060 91.0586 0.0000 0.0000 0.0000
# 4 0.0000 0.0000 0.0000 20.6251 0.0000 0.0000
# 5 0.0000 0.0000 0.0000 0.0000 20.6251 0.0000
# 6 0.0000 0.0000 0.0000 0.0000 0.0000 45.7605
#
#
#
# Elastic Compliance Matrix: (Units=1/GPa)
#
#
# Indices 1 2 3 4 5 6 
#
# 1 0.007919 -0.002862 -0.001589 0.000000 0.000000 0.000000
# 2 -0.002862 0.007919 -0.001589 0.000000 0.000000 0.000000
# 3 -0.001589 -0.001589 0.011980 0.000000 0.000000 0.000000
# 4 0.000000 0.000000 0.000000 0.048485 0.000000 0.000000
# 5 0.000000 0.000000 0.000000 0.000000 0.048485 0.000000
# 6 0.000000 0.000000 0.000000 0.000000 0.000000 0.021853
#
#
# Mechanical properties :
#
#
# Convention : Reuss Voigt Hill
#
# Bulk Modulus (GPa) = 63.53457 70.76899 67.15178
# Shear Modulus (GPa) = 30.49413 36.12443 33.30928
#
# Velocity S-wave (km/s) = 3.41641 3.71845 3.57062
# Velocity P-wave (km/s) = 6.31512 6.74709 6.53467
#
# Compressibility (1/GPa) = 0.01573946
#
# Stress axis : x y z
#
# Youngs Moduli (GPa) = 126.27515 126.27515 83.47181
#
# Poissons Ratio (x) = 0.36143 0.13261
# Poissons Ratio (y) = 0.36143 0.13261
# Poissons Ratio (z) = 0.20061 0.20061
#
# Static dielectric constant tensor:
#      x y z
#    x 4.988740 0.000000 0.000000 
#    y 0.000000 4.988740 0.000000 
#    z 0.000000 0.000000 5.653950 
# 
# 
# High freq. dielectric constant tensor:
#      x y z
#    x 2.067930 0.000000 0.000000 
#    y 0.000000 2.067930 0.000000 
#    z 0.000000 0.000000 2.019600 
# 
# From -- ./inp_files/767.got.cif
#   From: 2010.03.12/outbox.cif.g09.slc.cpg/sg122_1_cif.got.tgz:767.got - 2010.04.06 16:17:16.
