data_PCOD8312557
_publ_section_title
;
Structure prediction by ZEFSAII (Michael W. Deem and Ramdas Pophale) SiO2 
 PCOD8312557
Probable space group: P 4/M M M
;
_chemical_formula_sum "Si O2"
_cell_formula_units_Z 120
_cell_length_a 17.734014
_cell_length_b 17.734014
_cell_length_c 22.944713
_cell_angle_alpha 90.000000
_cell_angle_beta 90.000000
_cell_angle_gamma 90.000000
_cell_volume 7216.003310
_symmetry_space_group_name_H-M "P 4/M M M"
_symmetry_group_IT_number 123
_symmetry_cell_setting 'tetragonal'
loop_
_space_group_symop_operation_xyz
x,y,z
-y,x,z
-x,-y,z
y,-x,z
x,-y,-z
-x,y,-z
y,x,-z
-y,-x,-z
-x,-y,-z
y,-x,-z
x,y,-z
-y,x,-z
-x,y,z
x,-y,z
-y,-x,z
y,x,z
loop_
_atom_site_type_symbol
_atom_site_label
_atom_site_fract_x
_atom_site_fract_y
_atom_site_fract_z
Si Si1 0.207013 0.087075 0.180093
Si Si2 0.914798 0.291387 0.934713
Si Si3 0.705679 0.413503 0.177839
Si Si4 0.144516 0.412161 0.638575
Si Si5 0.793514 0.415191 0.934857
Si Si6 0.295191 0.415272 0.567577
Si Si7 0.410967 0.000000 0.565282
Si Si8 0.687261 0.189357 0.745312
O O1 0.127887 0.127887 0.193037
O O2 0.224910 0.098372 0.111570
O O3 0.273448 0.123417 0.218045
O O4 0.198818 0.000000 0.197483
O O5 0.862176 0.361222 0.918582
O O6 0.000000 0.321728 0.930297
O O7 0.897646 0.260404 0.000000
O O8 0.698818 0.500000 0.196997
O O9 0.625569 0.374432 0.189809
O O10 0.724901 0.403209 0.109647
O O11 0.771008 0.375333 0.215209
O O12 0.136029 0.500000 0.657742
O O13 0.218711 0.399516 0.600954
O O14 0.073925 0.384700 0.600172
O O15 0.149079 0.356388 0.693034
O O16 0.825126 0.500000 0.929644
O O17 0.762750 0.398731 0.000000
O O18 0.278554 0.401231 0.500000
O O19 0.324329 0.500000 0.578667
O O20 0.359675 0.359675 0.591458
O O21 0.500000 0.000000 0.559128
O O22 0.375379 0.000000 0.500000
O O23 0.749430 0.250570 0.723842
#
# Coordination Sequence:
#
# PCOD8312557 Si02
#       8
#    16  16  16  16  16  16   8  16
#     4  10  21  36  53  74 100 129 161 200 244 293
#     4   9  17  30  49  73 100 129 162 200 245 300
#     4  10  20  34  50  69  96 129 169 215 260 306
#     4  10  19  31  49  71  98 132 165 200 242 289
#     4   9  17  29  46  68  94 126 165 209 259 312
#     4   9  17  29  46  69  97 129 165 203 242 285
#     4   9  18  32  50  74 102 132 166 200 236 285
#     4  10  20  34  52  73  98 130 165 205 248 291
#
# _framework density 16.629704
#
# number of rings (size 3 to 8) (size 9 to 14) (size 15 to 20)
#    0.000    2.467    1.333    1.200    0.933    2.800 
#    0.000    3.333    0.000    0.000    0.000    5.600 
#    0.000    0.000    0.000    0.000    0.000    5.867 
#
# Total GULP energy -1487785.937896 kJ/mol
# GULP energy per Si atom -12398.216149 kJ/mol
# Density = 1.659185 g / cm^3
# Si number density = 16.629704 Si / 1000 Ang^3
#
#
#
# Elastic Constant Matrix: (Units=GPa)
#
#
# Indices 1 2 3 4 5 6 
#
# 1 107.1073 62.3057 50.5026 0.0000 0.0000 0.0000
# 2 62.3057 107.1073 50.5026 0.0000 0.0000 0.0000
# 3 50.5026 50.5026 89.6887 0.0000 0.0000 0.0000
# 4 0.0000 0.0000 0.0000 23.5084 0.0000 0.0000
# 5 0.0000 0.0000 0.0000 0.0000 23.5084 0.0000
# 6 0.0000 0.0000 0.0000 0.0000 0.0000 17.6758
#
#
#
# Elastic Compliance Matrix: (Units=1/GPa)
#
#
# Indices 1 2 3 4 5 6 
#
# 1 0.015603 -0.006717 -0.005004 0.000000 0.000000 0.000000
# 2 -0.006717 0.015603 -0.005004 0.000000 0.000000 0.000000
# 3 -0.005004 -0.005004 0.016785 0.000000 0.000000 0.000000
# 4 0.000000 0.000000 0.000000 0.042538 0.000000 0.000000
# 5 0.000000 0.000000 0.000000 0.000000 0.042538 0.000000
# 6 0.000000 0.000000 0.000000 0.000000 0.000000 0.056575
#
#
# Mechanical properties :
#
#
# Convention : Reuss Voigt Hill
#
# Bulk Modulus (GPa) = 68.76557 70.05837 69.41197
# Shear Modulus (GPa) = 21.93578 22.31131 22.12355
#
# Velocity S-wave (km/s) = 3.63584 3.66683 3.65137
# Velocity P-wave (km/s) = 7.68548 7.75548 7.72056
#
# Compressibility (1/GPa) = 0.01454216
#
# Stress axis : x y z
#
# Youngs Moduli (GPa) = 64.08913 64.08913 59.57867
#
# Poissons Ratio (x) = 0.43051 0.29810
# Poissons Ratio (y) = 0.43051 0.29810
# Poissons Ratio (z) = 0.32067 0.32067
#
# Static dielectric constant tensor:
#      x y z
#    x 3.063470 0.000000 0.000000 
#    y 0.000000 3.063470 0.000000 
#    z 0.000000 0.000000 3.201910 
# 
# 
# High freq. dielectric constant tensor:
#      x y z
#    x 1.632130 0.000000 0.000000 
#    y 0.000000 1.632130 0.000000 
#    z 0.000000 0.000000 1.641040 
# 
# From -- ./inp_files/6841.got.cif
#   From: 2010.03.12/outbox.cif.g09.slc.cpg/sg123_4_cif.got.tgz:6841.got - 2010.04.06 16:26:55.
