data_PCOD8312749
_publ_section_title
;
Structure prediction by ZEFSAII (Michael W. Deem and Ramdas Pophale) SiO2 
 PCOD8312749
Probable space group: P 4/M M M
;
_chemical_formula_sum "Si O2"
_cell_formula_units_Z 112
_cell_length_a 13.775914
_cell_length_b 13.775914
_cell_length_c 35.920944
_cell_angle_alpha 90.000000
_cell_angle_beta 90.000000
_cell_angle_gamma 90.000000
_cell_volume 6816.926119
_symmetry_space_group_name_H-M "P 4/M M M"
_symmetry_group_IT_number 123
_symmetry_cell_setting 'tetragonal'
loop_
_space_group_symop_operation_xyz
x,y,z
-y,x,z
-x,-y,z
y,-x,z
x,-y,-z
-x,y,-z
y,x,-z
-y,-x,-z
-x,-y,-z
y,-x,-z
x,y,-z
-y,x,-z
-x,y,z
x,-y,z
-y,-x,z
y,x,z
loop_
_atom_site_type_symbol
_atom_site_label
_atom_site_fract_x
_atom_site_fract_y
_atom_site_fract_z
Si Si1 0.732556 0.110800 0.539373
Si Si2 0.232531 0.611241 0.761031
Si Si3 0.614905 0.892613 0.170940
Si Si4 0.731624 0.111363 0.043117
Si Si5 0.388634 0.769427 0.323292
Si Si6 0.614465 0.228107 0.099772
Si Si7 0.113143 0.726350 0.620219
O O1 0.674426 0.134550 0.500000
O O2 0.832735 0.167266 0.539138
O O3 0.679029 0.133260 0.578766
O O4 0.763407 0.000000 0.539398
O O5 0.258408 0.500000 0.769334
O O6 0.331740 0.668261 0.767734
O O7 0.150744 0.649425 0.789467
O O8 0.193793 0.625988 0.719046
O O9 0.500000 0.901166 0.169730
O O10 0.649946 0.823750 0.137605
O O11 0.661090 0.000000 0.166641
O O12 0.831172 0.168829 0.051941
O O13 0.642395 0.157578 0.065749
O O14 0.747556 0.000000 0.055050
O O15 0.703328 0.119776 0.000000
O O16 0.500000 0.744237 0.331576
O O17 0.328192 0.671809 0.331274
O O18 0.354262 0.855988 0.349983
O O19 0.500000 0.248356 0.098943
O O20 0.668922 0.331079 0.096374
O O21 0.175088 0.824913 0.625985
O O22 0.000000 0.751417 0.625958
#
# Coordination Sequence:
#
# PCOD8312749 Si02
#       7
#    16  16  16  16  16  16  16
#     4   8  13  21  34  53  78 108 139 171 209 253
#     4   9  17  29  45  66  91 116 143 177 218 266
#     4   9  17  29  45  65  89 117 148 180 215 258
#     4   9  18  32  50  73  99 126 158 196 237 281
#     4   9  18  31  46  65  88 114 147 187 228 269
#     4  10  20  33  49  69  94 124 159 199 240 282
#     4   9  17  28  42  62  88 116 146 179 214 257
#
# _framework density 16.429691999999999
#
# number of rings (size 3 to 8) (size 9 to 14) (size 15 to 20)
#    0.000    3.000    0.000    0.857    0.000    2.857 
#    0.000    6.429    0.000    3.000    0.000    4.000 
#    0.000    2.571    0.000    6.143    0.000    0.429 
#
# Total GULP energy -1387753.905243 kJ/mol
# GULP energy per Si atom -12390.659868 kJ/mol
# Density = 1.639230 g / cm^3
# Si number density = 16.429692 Si / 1000 Ang^3
#
#
#
# Elastic Constant Matrix: (Units=GPa)
#
#
# Indices 1 2 3 4 5 6 
#
# 1 80.9592 34.0766 50.6918 0.0000 0.0000 0.0000
# 2 34.0766 80.9592 50.6918 0.0000 0.0000 0.0000
# 3 50.6918 50.6918 112.2438 0.0000 0.0000 0.0000
# 4 0.0000 0.0000 0.0000 23.2811 0.0000 0.0000
# 5 0.0000 0.0000 0.0000 0.0000 23.2811 0.0000
# 6 0.0000 0.0000 0.0000 0.0000 0.0000 12.4649
#
#
#
# Elastic Compliance Matrix: (Units=1/GPa)
#
#
# Indices 1 2 3 4 5 6 
#
# 1 0.017885 -0.003445 -0.006522 0.000000 0.000000 0.000000
# 2 -0.003445 0.017885 -0.006522 0.000000 0.000000 0.000000
# 3 -0.006522 -0.006522 0.014800 0.000000 0.000000 0.000000
# 4 0.000000 0.000000 0.000000 0.042953 0.000000 0.000000
# 5 0.000000 0.000000 0.000000 0.000000 0.042953 0.000000
# 6 0.000000 0.000000 0.000000 0.000000 0.000000 0.080226
#
#
# Mechanical properties :
#
#
# Convention : Reuss Voigt Hill
#
# Bulk Modulus (GPa) = 56.83644 60.56472 58.70058
# Shear Modulus (GPa) = 19.56614 21.05221 20.30917
#
# Velocity S-wave (km/s) = 3.45469 3.58348 3.51967
# Velocity P-wave (km/s) = 7.11210 7.35287 7.23349
#
# Compressibility (1/GPa) = 0.01759435
#
# Stress axis : x y z
#
# Youngs Moduli (GPa) = 55.91190 55.91190 67.56801
#
# Poissons Ratio (x) = 0.19259 0.44066
# Poissons Ratio (y) = 0.19259 0.44066
# Poissons Ratio (z) = 0.36464 0.36464
#
# Static dielectric constant tensor:
#      x y z
#    x 2.929580 0.000000 0.000000 
#    y 0.000000 2.929580 0.000000 
#    z 0.000000 0.000000 3.564000 
# 
# 
# High freq. dielectric constant tensor:
#      x y z
#    x 1.610310 0.000000 0.000000 
#    y 0.000000 1.610310 0.000000 
#    z 0.000000 0.000000 1.654600 
# 
# From -- ./inp_files/8759.got.cif
#   From: 2010.03.12/outbox.cif.g09.slc.cpg/sg123_5_cif.got.tgz:8759.got - 2010.04.06 16:26:55.
