data_PCOD8312052
_publ_section_title
;
Structure prediction by ZEFSAII (Michael W. Deem and Ramdas Pophale) SiO2 
 PCOD8312052
Probable space group: I -4 2 D
;
_chemical_formula_sum "Si O2"
_cell_formula_units_Z 48
_cell_length_a 9.031840
_cell_length_b 9.031840
_cell_length_c 27.116069
_cell_angle_alpha 90.000000
_cell_angle_beta 90.000000
_cell_angle_gamma 90.000000
_cell_volume 2211.969840
_symmetry_space_group_name_H-M "I -4 2 D"
_symmetry_group_IT_number 122
_symmetry_cell_setting 'tetragonal'
loop_
_space_group_symop_operation_xyz
x,y,z
y,-x,-z
-x,-y,z
-y,x,-z
x,1/2-y,1/4-z
-x,1/2+y,1/4-z
-y,1/2-x,1/4+z
y,1/2+x,1/4+z
1/2+x,1/2+y,1/2+z
1/2+y,1/2-x,1/2-z
1/2-x,1/2-y,1/2+z
1/2-y,1/2+x,1/2-z
1/2+x,-y,3/4-z
1/2-x,y,3/4-z
1/2-y,-x,3/4+z
1/2+y,x,3/4+z
loop_
_atom_site_type_symbol
_atom_site_label
_atom_site_fract_x
_atom_site_fract_y
_atom_site_fract_z
Si Si1 0.400350 0.720386 0.495497
Si Si2 0.404853 0.864614 0.395309
Si Si3 0.396573 0.138472 0.908085
O O1 0.575033 0.692782 0.493011
O O2 0.355718 0.762900 0.440538
O O3 0.358504 0.847936 0.534681
O O4 0.250000 0.925566 0.375000
O O5 0.504882 0.782136 0.354233
O O6 0.500000 0.000000 0.416176
O O7 0.250000 0.128133 0.875000
O O8 0.500000 0.000000 0.895684
#
# Coordination Sequence:
#
# PCOD8312052 Si02
#       3
#    16  16  16
#     4  11  23  43  74 106 137 185 246 297 357 443
#     4  12  27  47  69 105 148 188 239 305 373 442
#     4  12  23  43  72 103 141 187 243 300 364 437
#
# _framework density 21.700116000000001
#
# number of rings (size 3 to 8) (size 9 to 14) (size 15 to 20)
#    0.000    0.333    3.333    7.000    0.000    0.000 
#    0.000    0.000    0.000    0.000    0.000    0.000 
#    0.000    0.000    0.000    0.000    0.000    0.000 
#
# Total GULP energy -297695.728805 kJ/mol
# GULP energy per Si atom -12403.988700 kJ/mol
# Density = 2.165073 g / cm^3
# Si number density = 21.700116 Si / 1000 Ang^3
#
#
#
# Elastic Constant Matrix: (Units=GPa)
#
#
# Indices 1 2 3 4 5 6 
#
# 1 88.5054 16.9624 27.4401 0.0000 0.0000 0.0000
# 2 16.9624 88.5054 27.4401 0.0000 0.0000 0.0000
# 3 27.4401 27.4401 99.7952 0.0000 0.0000 0.0000
# 4 0.0000 0.0000 0.0000 31.0083 0.0000 0.0000
# 5 0.0000 0.0000 0.0000 0.0000 31.0083 0.0000
# 6 0.0000 0.0000 0.0000 0.0000 0.0000 43.5391
#
#
#
# Elastic Compliance Matrix: (Units=1/GPa)
#
#
# Indices 1 2 3 4 5 6 
#
# 1 0.012521 -0.001456 -0.003042 0.000000 0.000000 0.000000
# 2 -0.001456 0.012521 -0.003042 0.000000 0.000000 0.000000
# 3 -0.003042 -0.003042 0.011694 0.000000 0.000000 0.000000
# 4 0.000000 0.000000 0.000000 0.032249 0.000000 0.000000
# 5 0.000000 0.000000 0.000000 0.000000 0.032249 0.000000
# 6 0.000000 0.000000 0.000000 0.000000 0.000000 0.022968
#
#
# Mechanical properties :
#
#
# Convention : Reuss Voigt Hill
#
# Bulk Modulus (GPa) = 46.18208 46.72123 46.45165
# Shear Modulus (GPa) = 34.12904 34.77538 34.45221
#
# Velocity S-wave (km/s) = 3.97010 4.00752 3.98886
# Velocity P-wave (km/s) = 6.50721 6.55674 6.53202
#
# Compressibility (1/GPa) = 0.02165342
#
# Stress axis : x y z
#
# Youngs Moduli (GPa) = 79.86490 79.86490 85.51678
#
# Poissons Ratio (x) = 0.11632 0.26017
# Poissons Ratio (y) = 0.11632 0.26017
# Poissons Ratio (z) = 0.24298 0.24298
#
# Static dielectric constant tensor:
#      x y z
#    x 4.040280 0.000000 0.000000 
#    y 0.000000 4.040280 0.000000 
#    z 0.000000 0.000000 3.944260 
# 
# 
# High freq. dielectric constant tensor:
#      x y z
#    x 1.859500 0.000000 0.000000 
#    y 0.000000 1.859500 0.000000 
#    z 0.000000 0.000000 1.855810 
# 
# From -- ./inp_files/8995.got.cif
#   From: 2010.03.12/outbox.cif.g09.slc.cpg/sg122_5_cif.got.tgz:8995.got - 2010.04.06 16:17:16.
