data_PCOD8312858
_publ_section_title
;
Structure prediction by ZEFSAII (Michael W. Deem and Ramdas Pophale) SiO2 
 PCOD8312858
Probable space group: P 4/M M M
;
_chemical_formula_sum "Si O2"
_cell_formula_units_Z 120
_cell_length_a 21.162798
_cell_length_b 21.162798
_cell_length_c 14.869430
_cell_angle_alpha 90.000000
_cell_angle_beta 90.000000
_cell_angle_gamma 90.000000
_cell_volume 6659.482683
_symmetry_space_group_name_H-M "P 4/M M M"
_symmetry_group_IT_number 123
_symmetry_cell_setting 'tetragonal'
loop_
_space_group_symop_operation_xyz
x,y,z
-y,x,z
-x,-y,z
y,-x,z
x,-y,-z
-x,y,-z
y,x,-z
-y,-x,-z
-x,-y,-z
y,-x,-z
x,y,-z
-y,x,-z
-x,y,z
x,-y,z
-y,-x,z
y,x,z
loop_
_atom_site_type_symbol
_atom_site_label
_atom_site_fract_x
_atom_site_fract_y
_atom_site_fract_z
Si Si1 0.120922 0.647436 0.395972
Si Si2 0.743543 0.150512 0.100467
Si Si3 0.644735 0.249210 0.101126
Si Si4 0.930147 0.829014 0.786869
Si Si5 0.636001 0.737396 0.395733
Si Si6 0.106840 0.793554 0.599579
Si Si7 0.000000 0.427444 0.392724
Si Si8 0.572410 0.325052 0.762300
O O1 0.124521 0.630549 0.500000
O O2 0.190980 0.634580 0.356765
O O3 0.106114 0.720122 0.380250
O O4 0.063796 0.605817 0.353190
O O5 0.794457 0.205544 0.102096
O O6 0.675632 0.181056 0.126783
O O7 0.763436 0.096978 0.172154
O O8 0.740092 0.121111 0.000000
O O9 0.698892 0.301109 0.107904
O O10 0.589473 0.267463 0.170171
O O11 0.617021 0.246594 0.000000
O O12 0.887607 0.887607 0.819375
O O13 0.933748 0.825854 0.678183
O O14 0.000000 0.840405 0.824665
O O15 0.616273 0.734508 0.500000
O O16 0.705680 0.705680 0.381925
O O17 0.584969 0.697713 0.339524
O O18 0.077591 0.807104 0.500000
O O19 0.178329 0.821672 0.603391
O O20 0.000000 0.500000 0.361431
O O21 0.000000 0.420794 0.500000
O O22 0.500000 0.343630 0.773964
O O23 0.612737 0.387264 0.785787
#
# Coordination Sequence:
#
# PCOD8312858 Si02
#       8
#    16  16  16  16  16  16   8  16
#     4   9  17  29  47  67  90 123 158 200 250 299
#     4   8  15  30  52  75  97 122 154 198 253 303
#     4   8  15  30  52  75  98 124 155 197 250 302
#     4  10  21  33  48  71  99 134 172 211 254 304
#     4   9  18  32  50  72  97 127 169 219 264 302
#     4   9  18  31  47  69  95 123 162 212 261 303
#     4   9  18  30  42  62  92 126 160 188 232 307
#     4  10  21  34  50  74 102 135 173 211 252 301
#
# _framework density 18.019418000000002
#
# number of rings (size 3 to 8) (size 9 to 14) (size 15 to 20)
#    0.000    3.000    0.000    1.200    2.800    3.467 
#    0.000    1.333    0.000    0.000    0.000    7.467 
#    0.000    0.000    0.000    2.933    0.000    0.267 
#
# Total GULP energy -1486904.925195 kJ/mol
# GULP energy per Si atom -12390.874377 kJ/mol
# Density = 1.797840 g / cm^3
# Si number density = 18.019418 Si / 1000 Ang^3
#
#
#
# Elastic Constant Matrix: (Units=GPa)
#
#
# Indices 1 2 3 4 5 6 
#
# 1 101.6151 55.3618 31.3955 0.0000 0.0000 0.0000
# 2 55.3618 101.6151 31.3955 0.0000 0.0000 0.0000
# 3 31.3955 31.3955 74.0606 0.0000 0.0000 0.0000
# 4 0.0000 0.0000 0.0000 12.7227 0.0000 0.0000
# 5 0.0000 0.0000 0.0000 0.0000 12.7227 0.0000
# 6 0.0000 0.0000 0.0000 0.0000 0.0000 20.6729
#
#
#
# Elastic Compliance Matrix: (Units=1/GPa)
#
#
# Indices 1 2 3 4 5 6 
#
# 1 0.014646 -0.006974 -0.003252 0.000000 0.000000 0.000000
# 2 -0.006974 0.014646 -0.003252 0.000000 0.000000 0.000000
# 3 -0.003252 -0.003252 0.016260 0.000000 0.000000 0.000000
# 4 0.000000 0.000000 0.000000 0.078600 0.000000 0.000000
# 5 0.000000 0.000000 0.000000 0.000000 0.078600 0.000000
# 6 0.000000 0.000000 0.000000 0.000000 0.000000 0.048372
#
#
# Mechanical properties :
#
#
# Convention : Reuss Voigt Hill
#
# Bulk Modulus (GPa) = 53.78038 57.06625 55.42332
# Shear Modulus (GPa) = 17.58846 19.83286 18.71066
#
# Velocity S-wave (km/s) = 3.12762 3.32119 3.22586
# Velocity P-wave (km/s) = 6.55388 6.81506 6.68575
#
# Compressibility (1/GPa) = 0.01859414
#
# Stress axis : x y z
#
# Youngs Moduli (GPa) = 68.27986 68.27986 61.50233
#
# Poissons Ratio (x) = 0.47622 0.20000
# Poissons Ratio (y) = 0.47622 0.20000
# Poissons Ratio (z) = 0.22204 0.22204
#
# Static dielectric constant tensor:
#      x y z
#    x 3.248630 0.000000 0.000000 
#    y 0.000000 3.248630 0.000000 
#    z 0.000000 0.000000 3.339250 
# 
# 
# High freq. dielectric constant tensor:
#      x y z
#    x 1.673570 0.000000 0.000000 
#    y 0.000000 1.673570 0.000000 
#    z 0.000000 0.000000 1.684800 
# 
# From -- ./inp_files/4578.got.cif
#   From: 2010.03.12/outbox.cif.g09.slc.cpg/sg123_3_cif.got.tgz:4578.got - 2010.04.06 16:26:55.
