data_PCOD8312437
_publ_section_title
;
Structure prediction by ZEFSAII (Michael W. Deem and Ramdas Pophale) SiO2 
 PCOD8312437
Probable space group: P 4/M M M
;
_chemical_formula_sum "Si O2"
_cell_formula_units_Z 56
_cell_length_a 13.476199
_cell_length_b 13.476199
_cell_length_c 19.885123
_cell_angle_alpha 90.000000
_cell_angle_beta 90.000000
_cell_angle_gamma 90.000000
_cell_volume 3611.296214
_symmetry_space_group_name_H-M "P 4/M M M"
_symmetry_group_IT_number 123
_symmetry_cell_setting 'tetragonal'
loop_
_space_group_symop_operation_xyz
x,y,z
-y,x,z
-x,-y,z
y,-x,z
x,-y,-z
-x,y,-z
y,x,-z
-y,-x,-z
-x,-y,-z
y,-x,-z
x,y,-z
-y,x,-z
-x,y,z
x,-y,z
-y,-x,z
y,x,z
loop_
_atom_site_type_symbol
_atom_site_label
_atom_site_fract_x
_atom_site_fract_y
_atom_site_fract_z
Si Si1 0.617588 0.000000 0.077188
Si Si2 0.382930 0.225983 0.703436
Si Si3 0.890236 0.725815 0.183181
Si Si4 0.617658 0.110688 0.574013
O O1 0.663317 0.098054 0.113617
O O2 0.500000 0.000000 0.084969
O O3 0.650942 0.000000 0.000000
O O4 0.500000 0.240447 0.706372
O O5 0.333144 0.333144 0.714012
O O6 0.349106 0.151220 0.761278
O O7 0.344051 0.183414 0.632130
O O8 0.819975 0.819975 0.171598
O O9 0.000000 0.763150 0.206266
O O10 0.651180 0.149579 0.500000
O O11 0.500000 0.105620 0.577667
O O12 0.660585 0.000000 0.585898
#
# Coordination Sequence:
#
# PCOD8312437 Si02
#       4
#     8  16  16  16
#     4   9  18  32  51  73  98 130 161 188 225 277
#     4  10  19  30  45  65  91 125 164 204 245 289
#     4   9  19  32  49  73  96 124 158 193 238 290
#     4   8  14  25  42  63  84 110 149 196 243 288
#
# _framework density 15.506899000000001
#
# number of rings (size 3 to 8) (size 9 to 14) (size 15 to 20)
#    0.857    2.143    0.000    2.571    0.000    2.857 
#    0.000    0.000    0.000    0.857    0.000    4.000 
#    0.000    0.000    0.000   53.143    0.000    1.429 
#
# Total GULP energy -693832.757388 kJ/mol
# GULP energy per Si atom -12389.870668 kJ/mol
# Density = 1.547160 g / cm^3
# Si number density = 15.506899 Si / 1000 Ang^3
#
#
#
# Elastic Constant Matrix: (Units=GPa)
#
#
# Indices 1 2 3 4 5 6 
#
# 1 83.7194 46.4015 53.7137 0.0000 0.0000 0.0000
# 2 46.4015 83.7194 53.7137 0.0000 0.0000 0.0000
# 3 53.7137 53.7137 134.8640 0.0000 0.0000 0.0000
# 4 0.0000 0.0000 0.0000 17.8305 0.0000 0.0000
# 5 0.0000 0.0000 0.0000 0.0000 17.8305 0.0000
# 6 0.0000 0.0000 0.0000 0.0000 0.0000 13.8924
#
#
#
# Elastic Compliance Matrix: (Units=1/GPa)
#
#
# Indices 1 2 3 4 5 6 
#
# 1 0.019123 -0.007673 -0.004560 0.000000 0.000000 0.000000
# 2 -0.007673 0.019123 -0.004560 0.000000 0.000000 0.000000
# 3 -0.004560 -0.004560 0.011048 0.000000 0.000000 0.000000
# 4 0.000000 0.000000 0.000000 0.056084 0.000000 0.000000
# 5 0.000000 0.000000 0.000000 0.000000 0.056084 0.000000
# 6 0.000000 0.000000 0.000000 0.000000 0.000000 0.071982
#
#
# Mechanical properties :
#
#
# Convention : Reuss Voigt Hill
#
# Bulk Modulus (GPa) = 63.66853 67.77342 65.72098
# Shear Modulus (GPa) = 18.36431 19.80894 19.08662
#
# Velocity S-wave (km/s) = 3.44505 3.57799 3.51215
# Velocity P-wave (km/s) = 7.54797 7.80189 7.67598
#
# Compressibility (1/GPa) = 0.01570635
#
# Stress axis : x y z
#
# Youngs Moduli (GPa) = 52.29170 52.29170 90.51807
#
# Poissons Ratio (x) = 0.40125 0.41280
# Poissons Ratio (y) = 0.40125 0.41280
# Poissons Ratio (z) = 0.23847 0.23847
#
# Static dielectric constant tensor:
#      x y z
#    x 2.758810 0.000000 0.000000 
#    y 0.000000 2.758810 0.000000 
#    z 0.000000 0.000000 3.135380 
# 
# 
# High freq. dielectric constant tensor:
#      x y z
#    x 1.577660 0.000000 0.000000 
#    y 0.000000 1.577660 0.000000 
#    z 0.000000 0.000000 1.602800 
# 
# From -- ./inp_files/4876.got.cif
#   From: 2010.03.12/outbox.cif.g09.slc.cpg/sg123_3_cif.got.tgz:4876.got - 2010.04.06 16:26:55.
