data_PCOD8312258
_publ_section_title
;
Structure prediction by ZEFSAII (Michael W. Deem and Ramdas Pophale) SiO2 
 PCOD8312258
Probable space group: P 4/M M M
;
_chemical_formula_sum "Si O2"
_cell_formula_units_Z 96
_cell_length_a 18.674827
_cell_length_b 18.674827
_cell_length_c 16.416587
_cell_angle_alpha 90.000000
_cell_angle_beta 90.000000
_cell_angle_gamma 90.000000
_cell_volume 5725.270983
_symmetry_space_group_name_H-M "P 4/M M M"
_symmetry_group_IT_number 123
_symmetry_cell_setting 'tetragonal'
loop_
_space_group_symop_operation_xyz
x,y,z
-y,x,z
-x,-y,z
y,-x,z
x,-y,-z
-x,y,-z
y,x,-z
-y,-x,-z
-x,-y,-z
y,-x,-z
x,y,-z
-y,x,-z
-x,y,z
x,-y,z
-y,-x,z
y,x,z
loop_
_atom_site_type_symbol
_atom_site_label
_atom_site_fract_x
_atom_site_fract_y
_atom_site_fract_z
Si Si1 0.686895 0.081320 0.178452
Si Si2 0.304158 0.419050 0.843136
Si Si3 0.775679 0.417141 0.000000
Si Si4 0.821904 0.417651 0.274821
Si Si5 0.199433 0.916002 0.691038
Si Si6 0.297964 0.818217 0.594526
Si Si7 0.345513 0.080187 0.000000
O O1 0.618386 0.125800 0.208701
O O2 0.759724 0.103075 0.224676
O O3 0.701602 0.091565 0.081775
O O4 0.667573 0.000000 0.199926
O O5 0.326680 0.500000 0.863104
O O6 0.376029 0.376029 0.827033
O O7 0.260443 0.384183 0.918958
O O8 0.257398 0.415732 0.761687
O O9 0.760717 0.500000 0.000000
O O10 0.861081 0.407567 0.000000
O O11 0.845996 0.500000 0.290938
O O12 0.821035 0.373364 0.358591
O O13 0.122461 0.877540 0.692789
O O14 0.248548 0.886132 0.617806
O O15 0.186349 0.000000 0.678300
O O16 0.316485 0.823026 0.500000
O O17 0.254673 0.745328 0.615793
O O18 0.379340 0.000000 0.000000
#
# Coordination Sequence:
#
# PCOD8312258 Si02
#       7
#    16  16   8  16  16  16   8
#     4   9  18  32  48  69  99 131 162 196 234 283
#     4  10  20  33  48  66  92 124 160 204 247 288
#     4  10  19  32  45  67  96 123 160 201 242 284
#     4  10  19  31  49  72  98 125 156 198 240 283
#     4   9  18  33  52  74 100 128 160 199 242 286
#     4   9  18  33  52  72  96 127 159 191 234 291
#     4  10  18  30  48  70  98 131 166 200 234 279
#
# _framework density 16.767765000000001
#
# number of rings (size 3 to 8) (size 9 to 14) (size 15 to 20)
#    0.000    2.500    1.667    0.750    0.000    2.167 
#    0.000    2.083    0.000    1.500    0.000    7.000 
#    0.000    3.333    0.000   15.500    0.000    0.000 
#
# Total GULP energy -1190019.688937 kJ/mol
# GULP energy per Si atom -12396.038426 kJ/mol
# Density = 1.672960 g / cm^3
# Si number density = 16.767765 Si / 1000 Ang^3
#
#
#
# Elastic Constant Matrix: (Units=GPa)
#
#
# Indices 1 2 3 4 5 6 
#
# 1 94.4203 45.1824 35.4047 0.0000 0.0000 0.0000
# 2 45.1824 94.4203 35.4047 0.0000 0.0000 0.0000
# 3 35.4047 35.4047 103.1269 0.0000 0.0000 0.0000
# 4 0.0000 0.0000 0.0000 19.0686 0.0000 0.0000
# 5 0.0000 0.0000 0.0000 0.0000 19.0686 0.0000
# 6 0.0000 0.0000 0.0000 0.0000 0.0000 24.3370
#
#
#
# Elastic Compliance Matrix: (Units=1/GPa)
#
#
# Indices 1 2 3 4 5 6 
#
# 1 0.014492 -0.005818 -0.002978 0.000000 0.000000 0.000000
# 2 -0.005818 0.014492 -0.002978 0.000000 0.000000 0.000000
# 3 -0.002978 -0.002978 0.011741 0.000000 0.000000 0.000000
# 4 0.000000 0.000000 0.000000 0.052442 0.000000 0.000000
# 5 0.000000 0.000000 0.000000 0.000000 0.052442 0.000000
# 6 0.000000 0.000000 0.000000 0.000000 0.000000 0.041090
#
#
# Mechanical properties :
#
#
# Convention : Reuss Voigt Hill
#
# Bulk Modulus (GPa) = 58.21553 58.21678 58.21616
# Shear Modulus (GPa) = 23.15119 24.22653 23.68886
#
# Velocity S-wave (km/s) = 3.71980 3.80521 3.76275
# Velocity P-wave (km/s) = 7.29680 7.35534 7.32613
#
# Compressibility (1/GPa) = 0.01717755
#
# Stress axis : x y z
#
# Youngs Moduli (GPa) = 69.00566 69.00566 85.16886
#
# Poissons Ratio (x) = 0.40148 0.25361
# Poissons Ratio (y) = 0.40148 0.25361
# Poissons Ratio (z) = 0.20548 0.20548
#
# Static dielectric constant tensor:
#      x y z
#    x 3.038330 0.000000 0.000000 
#    y 0.000000 3.038330 0.000000 
#    z 0.000000 0.000000 3.260220 
# 
# 
# High freq. dielectric constant tensor:
#      x y z
#    x 1.636010 0.000000 0.000000 
#    y 0.000000 1.636010 0.000000 
#    z 0.000000 0.000000 1.646970 
# 
# From -- ./inp_files/5511.got.cif
#   From: 2010.03.12/outbox.cif.g09.slc.cpg/sg123_3_cif.got.tgz:5511.got - 2010.04.06 16:26:55.
