data_PCOD8312074
_publ_section_title
;
Structure prediction by ZEFSAII (Michael W. Deem and Ramdas Pophale) SiO2 
 PCOD8312074
Probable space group: I -4 2 D
;
_chemical_formula_sum "Si O2"
_cell_formula_units_Z 60
_cell_length_a 16.210827
_cell_length_b 16.210827
_cell_length_c 10.417148
_cell_angle_alpha 90.000000
_cell_angle_beta 90.000000
_cell_angle_gamma 90.000000
_cell_volume 2737.531824
_symmetry_space_group_name_H-M "I -4 2 D"
_symmetry_group_IT_number 122
_symmetry_cell_setting 'tetragonal'
loop_
_space_group_symop_operation_xyz
x,y,z
y,-x,-z
-x,-y,z
-y,x,-z
x,1/2-y,1/4-z
-x,1/2+y,1/4-z
-y,1/2-x,1/4+z
y,1/2+x,1/4+z
1/2+x,1/2+y,1/2+z
1/2+y,1/2-x,1/2-z
1/2-x,1/2-y,1/2+z
1/2-y,1/2+x,1/2-z
1/2+x,-y,3/4-z
1/2-x,y,3/4-z
1/2-y,-x,3/4+z
1/2+y,x,3/4+z
loop_
_atom_site_type_symbol
_atom_site_label
_atom_site_fract_x
_atom_site_fract_y
_atom_site_fract_z
Si Si1 0.250000 0.947956 0.875000
Si Si2 0.500000 0.500000 0.500000
Si Si3 0.380706 0.419335 0.328731
Si Si4 0.402059 0.924693 0.291204
Si Si5 0.843328 0.765336 0.377381
O O1 0.225389 0.889282 0.757388
O O2 0.327121 0.008387 0.855579
O O3 0.466159 0.426719 0.407282
O O4 0.390428 0.431234 0.177641
O O5 0.339525 0.330735 0.341636
O O6 0.475882 0.896870 0.195836
O O7 0.315310 0.890034 0.239790
O O8 0.750000 0.799672 0.375000
#
# Coordination Sequence:
#
# PCOD8312074 Si02
#       5
#     8   4  16  16  16
#     4  12  26  50  72 106 152 192 248 314 376 460
#     4  12  24  44  74 104 140 192 248 294 380 460
#     4  12  25  46  73 105 144 193 244 306 373 451
#     4  11  25  48  72 104 147 193 247 310 377 452
#     4  12  28  45  76 109 146 195 253 310 377 455
#
# _framework density 21.917553000000002
#
# number of rings (size 3 to 8) (size 9 to 14) (size 15 to 20)
#    0.000    0.267    6.667    2.400    3.733    2.133 
#    0.000    0.000    0.000    0.000    0.000    0.000 
#    0.000    0.000    0.000    0.000    0.000    0.000 
#
# Total GULP energy -371920.606765 kJ/mol
# GULP energy per Si atom -12397.353559 kJ/mol
# Density = 2.186767 g / cm^3
# Si number density = 21.917553 Si / 1000 Ang^3
#
#
#
# Elastic Constant Matrix: (Units=GPa)
#
#
# Indices 1 2 3 4 5 6 
#
# 1 119.6955 35.8160 38.6856 0.0000 0.0000 0.0000
# 2 35.8160 119.6955 38.6856 0.0000 0.0000 0.0000
# 3 38.6856 38.6856 109.7465 0.0000 0.0000 0.0000
# 4 0.0000 0.0000 0.0000 37.8613 0.0000 0.0000
# 5 0.0000 0.0000 0.0000 0.0000 37.8613 0.0000
# 6 0.0000 0.0000 0.0000 0.0000 0.0000 36.3615
#
#
#
# Elastic Compliance Matrix: (Units=1/GPa)
#
#
# Indices 1 2 3 4 5 6 
#
# 1 0.009860 -0.002062 -0.002749 0.000000 0.000000 0.000000
# 2 -0.002062 0.009860 -0.002749 0.000000 0.000000 0.000000
# 3 -0.002749 -0.002749 0.011050 0.000000 0.000000 0.000000
# 4 0.000000 0.000000 0.000000 0.026412 0.000000 0.000000
# 5 0.000000 0.000000 0.000000 0.000000 0.026412 0.000000
# 6 0.000000 0.000000 0.000000 0.000000 0.000000 0.027502
#
#
# Mechanical properties :
#
#
# Convention : Reuss Voigt Hill
#
# Bulk Modulus (GPa) = 63.89520 63.94577 63.92048
# Shear Modulus (GPa) = 38.04262 38.14684 38.09473
#
# Velocity S-wave (km/s) = 4.17071 4.17642 4.17357
# Velocity P-wave (km/s) = 7.23940 7.24538 7.24239
#
# Compressibility (1/GPa) = 0.01565063
#
# Stress axis : x y z
#
# Youngs Moduli (GPa) = 101.42058 101.42058 90.49929
#
# Poissons Ratio (x) = 0.20912 0.24876
# Poissons Ratio (y) = 0.20912 0.24876
# Poissons Ratio (z) = 0.27878 0.27878
#
# Static dielectric constant tensor:
#      x y z
#    x 3.969670 0.000000 0.000000 
#    y 0.000000 3.969670 0.000000 
#    z 0.000000 0.000000 3.939520 
# 
# 
# High freq. dielectric constant tensor:
#      x y z
#    x 1.867060 0.000000 0.000000 
#    y 0.000000 1.867060 0.000000 
#    z 0.000000 0.000000 1.865240 
# 
# From -- ./inp_files/2324.got.cif
#   From: 2010.03.12/outbox.cif.g09.slc.cpg/sg122_2_cif.got.tgz:2324.got - 2010.04.06 16:17:16.
