data_PCOD8312479
_publ_section_title
;
Structure prediction by ZEFSAII (Michael W. Deem and Ramdas Pophale) SiO2 
 PCOD8312479
Probable space group: P 4/M M M
;
_chemical_formula_sum "Si O2"
_cell_formula_units_Z 84
_cell_length_a 12.482833
_cell_length_b 12.482833
_cell_length_c 30.730142
_cell_angle_alpha 90.000000
_cell_angle_beta 90.000000
_cell_angle_gamma 90.000000
_cell_volume 4788.405135
_symmetry_space_group_name_H-M "P 4/M M M"
_symmetry_group_IT_number 123
_symmetry_cell_setting 'tetragonal'
loop_
_space_group_symop_operation_xyz
x,y,z
-y,x,z
-x,-y,z
y,-x,z
x,-y,-z
-x,y,-z
y,x,-z
-y,-x,-z
-x,-y,-z
y,-x,-z
x,y,-z
-y,x,-z
-x,y,z
x,-y,z
-y,-x,z
y,x,z
loop_
_atom_site_type_symbol
_atom_site_label
_atom_site_fract_x
_atom_site_fract_y
_atom_site_fract_z
Si Si1 0.209740 0.374012 0.284597
Si Si2 0.500000 0.685623 0.500000
Si Si3 0.880744 0.293237 0.370494
Si Si4 0.500000 0.127262 0.049025
Si Si5 0.618971 0.875068 0.192993
Si Si6 0.124882 0.500000 0.428868
Si Si7 0.124911 0.292785 0.100706
O O1 0.210910 0.500000 0.288512
O O2 0.328837 0.328837 0.293857
O O3 0.129086 0.325106 0.319892
O O4 0.175758 0.333543 0.236787
O O5 0.393186 0.606815 0.500000
O O6 0.500000 0.772432 0.460890
O O7 0.799244 0.200757 0.384694
O O8 0.858516 0.396129 0.399685
O O9 0.000000 0.248814 0.378091
O O10 0.605102 0.168132 0.074036
O O11 0.500000 0.000000 0.049510
O O12 0.500000 0.172663 0.000000
O O13 0.500000 0.829428 0.183694
O O14 0.692204 0.849177 0.151640
O O15 0.611687 0.000000 0.201038
O O16 0.000000 0.500000 0.448215
O O17 0.188736 0.188736 0.084173
O O18 0.000000 0.272889 0.092029
#
# Coordination Sequence:
#
# PCOD8312479 Si02
#       7
#    16   4  16   8  16   8  16
#     4  10  19  30  46  70 101 138 178 216 254 299
#     4  11  23  38  58  84 113 141 172 212 264 325
#     4  10  20  34  53  77 106 139 176 217 258 303
#     4   9  18  34  53  72  93 122 164 204 239 289
#     4   9  16  28  48  71  96 129 174 217 247 285
#     4  10  20  37  59  81 107 138 178 220 260 308
#     4  10  19  32  51  76 104 132 164 203 249 299
#
# _framework density 17.542376000000001
#
# number of rings (size 3 to 8) (size 9 to 14) (size 15 to 20)
#    0.000    2.238    1.905    1.857    0.000    1.714 
#    0.000    0.000    0.000    0.286    0.000    6.000 
#    0.000    6.857    0.000    0.000    0.000    0.000 
#
# Total GULP energy -1040905.325913 kJ/mol
# GULP energy per Si atom -12391.730070 kJ/mol
# Density = 1.750245 g / cm^3
# Si number density = 17.542376 Si / 1000 Ang^3
#
#
#
# Elastic Constant Matrix: (Units=GPa)
#
#
# Indices 1 2 3 4 5 6 
#
# 1 102.9177 68.5017 47.0718 0.0000 0.0000 0.0000
# 2 68.5017 102.9175 47.0717 0.0000 0.0000 0.0000
# 3 47.0718 47.0717 78.6933 0.0000 0.0000 0.0000
# 4 0.0000 0.0000 0.0000 13.7941 0.0000 0.0000
# 5 0.0000 0.0000 0.0000 0.0000 13.7937 0.0000
# 6 0.0000 0.0000 0.0000 0.0000 0.0000 16.9830
#
#
#
# Elastic Compliance Matrix: (Units=1/GPa)
#
#
# Indices 1 2 3 4 5 6 
#
# 1 0.018872 -0.010184 -0.005197 0.000000 0.000000 0.000000
# 2 -0.010184 0.018872 -0.005197 0.000000 0.000000 0.000000
# 3 -0.005197 -0.005197 0.018925 0.000000 0.000000 0.000000
# 4 0.000000 0.000000 0.000000 0.072495 0.000000 0.000000
# 5 0.000000 0.000000 0.000000 0.000000 0.072497 0.000000
# 6 0.000000 0.000000 0.000000 0.000000 0.000000 0.058882
#
#
# Mechanical properties :
#
#
# Convention : Reuss Voigt Hill
#
# Bulk Modulus (GPa) = 64.46146 67.75766 66.10956
# Shear Modulus (GPa) = 16.29362 17.03973 16.66667
#
# Velocity S-wave (km/s) = 3.05095 3.12002 3.08568
# Velocity P-wave (km/s) = 7.01691 7.18946 7.10371
#
# Compressibility (1/GPa) = 0.01551315
#
# Stress axis : x y z
#
# Youngs Moduli (GPa) = 52.98866 52.98856 52.84150
#
# Poissons Ratio (x) = 0.53965 0.27460
# Poissons Ratio (y) = 0.53965 0.27460
# Poissons Ratio (z) = 0.27536 0.27536
#
# Static dielectric constant tensor:
#      x y z
#    x 3.220980 0.000000 0.000000 
#    y 0.000000 3.220980 0.000000 
#    z 0.000000 0.000000 3.384940 
# 
# 
# High freq. dielectric constant tensor:
#      x y z
#    x 1.669100 0.000000 0.000000 
#    y 0.000000 1.669100 0.000000 
#    z 0.000000 0.000000 1.680920 
# 
# From -- ./inp_files/8551.got.cif
#   From: 2010.03.12/outbox.cif.g09.slc.cpg/sg123_5_cif.got.tgz:8551.got - 2010.04.06 16:26:55.
