data_PCOD8312292
_publ_section_title
;
Structure prediction by ZEFSAII (Michael W. Deem and Ramdas Pophale) SiO2 
 PCOD8312292
Probable space group: P 4/M M M
;
_chemical_formula_sum "Si O2"
_cell_formula_units_Z 96
_cell_length_a 20.912190
_cell_length_b 20.912190
_cell_length_c 17.144882
_cell_angle_alpha 90.000000
_cell_angle_beta 90.000000
_cell_angle_gamma 90.000000
_cell_volume 7497.794492
_symmetry_space_group_name_H-M "P 4/M M M"
_symmetry_group_IT_number 123
_symmetry_cell_setting 'tetragonal'
loop_
_space_group_symop_operation_xyz
x,y,z
-y,x,z
-x,-y,z
y,-x,z
x,-y,-z
-x,y,-z
y,x,-z
-y,-x,-z
-x,-y,-z
y,-x,-z
x,y,-z
-y,x,-z
-x,y,z
x,-y,z
-y,-x,z
y,x,z
loop_
_atom_site_type_symbol
_atom_site_label
_atom_site_fract_x
_atom_site_fract_y
_atom_site_fract_z
Si Si1 0.924675 0.827041 0.000000
Si Si2 0.076124 0.570799 0.320122
Si Si3 0.924972 0.177682 0.677361
Si Si4 0.925190 0.767653 0.841311
Si Si5 0.076190 0.626783 0.839275
Si Si6 0.693917 0.075931 0.411985
Si Si7 0.428218 0.076182 0.000000
O O1 0.896517 0.792688 0.922871
O O2 0.899505 0.899505 0.000000
O O3 0.000000 0.830473 0.000000
O O4 0.100151 0.500000 0.347426
O O5 0.099646 0.581548 0.231153
O O6 0.103696 0.628383 0.373809
O O7 0.000000 0.572970 0.323918
O O8 0.882286 0.117715 0.647553
O O9 0.911120 0.185369 0.769413
O O10 0.902374 0.242471 0.634063
O O11 0.000000 0.163183 0.660998
O O12 0.897129 0.697747 0.822421
O O13 0.000000 0.760220 0.853710
O O14 0.000000 0.625362 0.842245
O O15 0.104330 0.604518 0.922316
O O16 0.698286 0.102065 0.500000
O O17 0.690664 0.000000 0.409940
O O18 0.500000 0.100841 0.000000
O O19 0.424178 0.000000 0.000000
#
# Coordination Sequence:
#
# PCOD8312292 Si02
#       7
#     8  16  16  16  16  16   8
#     4  10  19  28  38  52  66  84 113 148 189 235
#     4   9  15  23  37  56  76  96 115 135 162 202
#     4  10  19  31  45  58  72  91 118 155 199 243
#     4   9  16  27  40  52  67  89 115 143 179 225
#     4   9  14  22  34  48  69  94 116 136 161 199
#     4   9  17  29  42  55  72  92 113 140 178 225
#     4   9  15  19  26  46  72  95 117 136 154 185
#
# _framework density 12.803765
#
# number of rings (size 3 to 8) (size 9 to 14) (size 15 to 20)
#    0.000    2.750    1.667    1.500    0.000    4.917 
#    0.000    1.667    0.000    3.000    0.000    2.333 
#    0.000    0.000    0.000    0.000    0.000    0.000 
#
# Total GULP energy -1189458.974305 kJ/mol
# GULP energy per Si atom -12390.197649 kJ/mol
# Density = 1.277462 g / cm^3
# Si number density = 12.803765 Si / 1000 Ang^3
#
#
#
# Elastic Constant Matrix: (Units=GPa)
#
#
# Indices 1 2 3 4 5 6 
#
# 1 45.8323 33.8589 24.1972 0.0000 0.0000 0.0000
# 2 33.8589 45.8323 24.1972 0.0000 0.0000 0.0000
# 3 24.1972 24.1972 90.0555 0.0000 0.0000 0.0000
# 4 0.0000 0.0000 0.0000 9.5520 0.0000 0.0000
# 5 0.0000 0.0000 0.0000 0.0000 9.5520 0.0000
# 6 0.0000 0.0000 0.0000 0.0000 0.0000 1.0635
#
#
#
# Elastic Compliance Matrix: (Units=1/GPa)
#
#
# Indices 1 2 3 4 5 6 
#
# 1 0.049257 -0.034262 -0.004029 0.000000 0.000000 0.000000
# 2 -0.034262 0.049257 -0.004029 0.000000 0.000000 0.000000
# 3 -0.004029 -0.004029 0.013269 0.000000 0.000000 0.000000
# 4 0.000000 0.000000 0.000000 0.104690 0.000000 0.000000
# 5 0.000000 0.000000 0.000000 0.000000 0.104690 0.000000
# 6 0.000000 0.000000 0.000000 0.000000 0.000000 0.940297
#
#
# Mechanical properties :
#
#
# Convention : Reuss Voigt Hill
#
# Bulk Modulus (GPa) = 36.84127 38.46962 37.65545
# Shear Modulus (GPa) = 3.68964 10.66464 7.17714
#
# Velocity S-wave (km/s) = 1.69939 2.88918 2.37016
# Velocity P-wave (km/s) = 5.71724 6.42189 6.07978
#
# Compressibility (1/GPa) = 0.02714347
#
# Stress axis : x y z
#
# Youngs Moduli (GPa) = 20.30167 20.30167 75.36121
#
# Poissons Ratio (x) = 0.69557 0.30364
# Poissons Ratio (y) = 0.69557 0.30364
# Poissons Ratio (z) = 0.08180 0.08180
#
# Static dielectric constant tensor:
#      x y z
#    x 2.365720 0.000000 0.000000 
#    y 0.000000 2.365720 0.000000 
#    z 0.000000 0.000000 2.855710 
# 
# 
# High freq. dielectric constant tensor:
#      x y z
#    x 1.441530 0.000000 0.000000 
#    y 0.000000 1.441530 0.000000 
#    z 0.000000 0.000000 1.505150 
# 
# From -- ./inp_files/5824.got.cif
#   From: 2010.03.12/outbox.cif.g09.slc.cpg/sg123_3_cif.got.tgz:5824.got - 2010.04.06 16:26:55.
