data_PCOD8312082
_publ_section_title
;
Structure prediction by ZEFSAII (Michael W. Deem and Ramdas Pophale) SiO2 
 PCOD8312082
Probable space group: I -4 2 D
;
_chemical_formula_sum "Si O2"
_cell_formula_units_Z 64
_cell_length_a 10.254182
_cell_length_b 10.254182
_cell_length_c 25.640872
_cell_angle_alpha 90.000000
_cell_angle_beta 90.000000
_cell_angle_gamma 90.000000
_cell_volume 2696.092781
_symmetry_space_group_name_H-M "I -4 2 D"
_symmetry_group_IT_number 122
_symmetry_cell_setting 'tetragonal'
loop_
_space_group_symop_operation_xyz
x,y,z
y,-x,-z
-x,-y,z
-y,x,-z
x,1/2-y,1/4-z
-x,1/2+y,1/4-z
-y,1/2-x,1/4+z
y,1/2+x,1/4+z
1/2+x,1/2+y,1/2+z
1/2+y,1/2-x,1/2-z
1/2-x,1/2-y,1/2+z
1/2-y,1/2+x,1/2-z
1/2+x,-y,3/4-z
1/2-x,y,3/4-z
1/2-y,-x,3/4+z
1/2+y,x,3/4+z
loop_
_atom_site_type_symbol
_atom_site_label
_atom_site_fract_x
_atom_site_fract_y
_atom_site_fract_z
Si Si1 0.543319 0.642774 0.431803
Si Si2 0.573161 0.195436 0.523862
Si Si3 0.906123 0.669302 0.736344
Si Si4 0.329151 0.130014 0.588231
O O1 0.500000 0.500000 0.449189
O O2 0.467576 0.743164 0.468614
O O3 0.698919 0.643452 0.438508
O O4 0.504156 0.672487 0.371619
O O5 0.687978 0.091541 0.512773
O O6 0.447163 0.123655 0.546970
O O7 0.859260 0.557596 0.777975
O O8 0.812125 0.657714 0.686486
O O9 0.365750 0.250000 0.625000
#
# Coordination Sequence:
#
# PCOD8312082 Si02
#       4
#    16  16  16  16
#     4  12  20  39  68 109 138 164 241 304 349 411
#     4  12  22  43  73 103 141 181 228 310 363 409
#     4  11  27  48  65  94 147 195 226 286 370 437
#     4  12  24  40  73 103 136 185 234 287 357 435
#
# _framework density 23.738054000000002
#
# number of rings (size 3 to 8) (size 9 to 14) (size 15 to 20)
#    0.000    0.250   10.000    0.000    3.500    0.000 
#    0.000    6.250    0.000    0.000    0.000    0.000 
#    0.000    0.000    0.000    0.000    0.000    0.000 
#
# Total GULP energy -396726.541650 kJ/mol
# GULP energy per Si atom -12397.704427 kJ/mol
# Density = 2.368403 g / cm^3
# Si number density = 23.738054 Si / 1000 Ang^3
#
#
#
# Elastic Constant Matrix: (Units=GPa)
#
#
# Indices 1 2 3 4 5 6 
#
# 1 105.4861 5.6343 35.1058 0.0000 0.0000 0.0000
# 2 5.6343 105.4861 35.1058 0.0000 0.0000 0.0000
# 3 35.1058 35.1058 110.9895 0.0000 0.0000 0.0000
# 4 0.0000 0.0000 0.0000 28.3572 0.0000 0.0000
# 5 0.0000 0.0000 0.0000 0.0000 28.3572 0.0000
# 6 0.0000 0.0000 0.0000 0.0000 0.0000 33.8329
#
#
#
# Elastic Compliance Matrix: (Units=1/GPa)
#
#
# Indices 1 2 3 4 5 6 
#
# 1 0.010631 0.000616 -0.003557 0.000000 0.000000 0.000000
# 2 0.000616 0.010631 -0.003557 0.000000 0.000000 0.000000
# 3 -0.003557 -0.003557 0.011260 0.000000 0.000000 0.000000
# 4 0.000000 0.000000 0.000000 0.035264 0.000000 0.000000
# 5 0.000000 0.000000 0.000000 0.000000 0.035264 0.000000
# 6 0.000000 0.000000 0.000000 0.000000 0.000000 0.029557
#
#
# Mechanical properties :
#
#
# Convention : Reuss Voigt Hill
#
# Bulk Modulus (GPa) = 51.21734 52.62816 51.92275
# Shear Modulus (GPa) = 32.87015 34.51718 33.69367
#
# Velocity S-wave (km/s) = 3.72520 3.81739 3.77157
# Velocity P-wave (km/s) = 6.33448 6.45356 6.39430
#
# Compressibility (1/GPa) = 0.01952464
#
# Stress axis : x y z
#
# Youngs Moduli (GPa) = 94.06524 94.06524 88.80787
#
# Poissons Ratio (x) = -0.05795 0.31593
# Poissons Ratio (y) = -0.05795 0.31593
# Poissons Ratio (z) = 0.33463 0.33463
#
# Static dielectric constant tensor:
#      x y z
#    x 4.478210 0.000000 0.000000 
#    y 0.000000 4.478210 0.000000 
#    z 0.000000 0.000000 4.186910 
# 
# 
# High freq. dielectric constant tensor:
#      x y z
#    x 1.950300 0.000000 0.000000 
#    y 0.000000 1.950300 0.000000 
#    z 0.000000 0.000000 1.918830 
# 
# From -- ./inp_files/7837.got.cif
#   From: 2010.03.12/outbox.cif.g09.slc.cpg/sg122_4_cif.got.tgz:7837.got - 2010.04.06 16:17:16.
