data_PCOD8312721
_publ_section_title
;
Structure prediction by ZEFSAII (Michael W. Deem and Ramdas Pophale) SiO2 
 PCOD8312721
Probable space group: P 4/M M M
;
_chemical_formula_sum "Si O2"
_cell_formula_units_Z 88
_cell_length_a 18.927964
_cell_length_b 18.927964
_cell_length_c 14.630407
_cell_angle_alpha 90.000000
_cell_angle_beta 90.000000
_cell_angle_gamma 90.000000
_cell_volume 5241.604039
_symmetry_space_group_name_H-M "P 4/M M M"
_symmetry_group_IT_number 123
_symmetry_cell_setting 'tetragonal'
loop_
_space_group_symop_operation_xyz
x,y,z
-y,x,z
-x,-y,z
y,-x,z
x,-y,-z
-x,y,-z
y,x,-z
-y,-x,-z
-x,-y,-z
y,-x,-z
x,y,-z
-y,x,-z
-x,y,z
x,-y,z
-y,-x,z
y,x,z
loop_
_atom_site_type_symbol
_atom_site_label
_atom_site_fract_x
_atom_site_fract_y
_atom_site_fract_z
Si Si1 0.917067 0.500000 0.897735
Si Si2 0.417585 0.150793 0.397661
Si Si3 0.420266 0.691456 0.141243
Si Si4 0.691443 0.579027 0.642156
Si Si5 0.917526 0.365302 0.779760
Si Si6 0.309340 0.805294 0.897236
O O1 0.893907 0.432593 0.839527
O O2 0.000000 0.500000 0.908883
O O3 0.883041 0.500000 0.000000
O O4 0.401584 0.122818 0.500000
O O5 0.500000 0.143713 0.373887
O O6 0.394068 0.232343 0.391633
O O7 0.374853 0.102535 0.326356
O O8 0.500000 0.688612 0.102093
O O9 0.376692 0.623309 0.104814
O O10 0.421169 0.691224 0.249658
O O11 0.383428 0.763174 0.107782
O O12 0.676132 0.500000 0.604580
O O13 0.631788 0.631788 0.602971
O O14 0.870818 0.303869 0.826383
O O15 0.000000 0.347179 0.787167
O O16 0.246706 0.753295 0.868238
O O17 0.299520 0.834264 0.000000
#
# Coordination Sequence:
#
# PCOD8312721 Si02
#       6
#     8  16  16  16  16  16
#     4   9  18  30  45  71 101 125 153 194 244 290
#     4  10  20  33  48  66  93 131 169 207 259 318
#     4   9  17  29  45  64  89 123 164 210 256 298
#     4   9  17  30  47  67  92 125 170 223 271 310
#     4  11  21  34  52  74  98 126 163 206 249 295
#     4  10  21  35  51  72 100 133 163 196 246 306
#
# _framework density 16.788754000000001
#
# number of rings (size 3 to 8) (size 9 to 14) (size 15 to 20)
#    0.000    2.273    2.727    0.545    1.273    2.545 
#    0.000    2.727    0.000    0.000    0.000    5.091 
#    0.000    0.364    0.000    2.000    0.000    0.000 
#
# Total GULP energy -1090918.130848 kJ/mol
# GULP energy per Si atom -12396.796941 kJ/mol
# Density = 1.675054 g / cm^3
# Si number density = 16.788754 Si / 1000 Ang^3
#
#
#
# Elastic Constant Matrix: (Units=GPa)
#
#
# Indices 1 2 3 4 5 6 
#
# 1 90.4071 36.3281 35.9661 0.0000 0.0000 0.0000
# 2 36.3281 90.4071 35.9661 0.0000 0.0000 0.0000
# 3 35.9661 35.9661 90.1198 0.0000 0.0000 0.0000
# 4 0.0000 0.0000 0.0000 -7.6661 0.0000 0.0000
# 5 0.0000 0.0000 0.0000 0.0000 -7.6661 0.0000
# 6 0.0000 0.0000 0.0000 0.0000 0.0000 12.3921
#
#
#
# Elastic Compliance Matrix: (Units=1/GPa)
#
#
# Indices 1 2 3 4 5 6 
#
# 1 0.014346 -0.004145 -0.004071 0.000000 0.000000 0.000000
# 2 -0.004145 0.014346 -0.004071 0.000000 0.000000 0.000000
# 3 -0.004071 -0.004071 0.014346 0.000000 0.000000 0.000000
# 4 0.000000 0.000000 0.000000 -0.130445 0.000000 0.000000
# 5 0.000000 0.000000 0.000000 0.000000 -0.130445 0.000000
# 6 0.000000 0.000000 0.000000 0.000000 0.000000 0.080697
#
#
# Mechanical properties :
#
#
# Convention : Reuss Voigt Hill
#
# Bulk Modulus (GPa) = 54.16104 54.16162 54.16133
# Shear Modulus (GPa) = -46.98170 10.25689 -18.36241
#
# Velocity S-wave (km/s) = -5.29573 2.47440 -3.31075
# Velocity P-wave (km/s) = 2.25004 6.36351 4.20901
#
# Compressibility (1/GPa) = 0.01846346
#
# Stress axis : x y z
#
# Youngs Moduli (GPa) = 69.70417 69.70417 69.70619
#
# Poissons Ratio (x) = 0.28893 0.28379
# Poissons Ratio (y) = 0.28893 0.28379
# Poissons Ratio (z) = 0.28378 0.28378
#
# Static dielectric constant tensor:
#      x y z
#    x 3.007650 0.000000 0.000000 
#    y 0.000000 3.007650 0.000000 
#    z 0.000000 0.000000 3.257250 
# 
# 
# High freq. dielectric constant tensor:
#      x y z
#    x 1.615120 0.000000 0.000000 
#    y 0.000000 1.615120 0.000000 
#    z 0.000000 0.000000 1.660880 
# 
# From -- ./inp_files/4057.got.cif
#   From: 2010.03.12/outbox.cif.g09.slc.cpg/sg123_3_cif.got.tgz:4057.got - 2010.04.06 16:26:55.
