data_PCOD8312945
_publ_section_title
;
Structure prediction by ZEFSAII (Michael W. Deem and Ramdas Pophale) SiO2 
 PCOD8312945
Probable space group: P 4/M M M
;
_chemical_formula_sum "Si O2"
_cell_formula_units_Z 120
_cell_length_a 27.806651
_cell_length_b 27.806651
_cell_length_c 8.041967
_cell_angle_alpha 90.000000
_cell_angle_beta 90.000000
_cell_angle_gamma 90.000000
_cell_volume 6218.128016
_symmetry_space_group_name_H-M "P 4/M M M"
_symmetry_group_IT_number 123
_symmetry_cell_setting 'tetragonal'
loop_
_space_group_symop_operation_xyz
x,y,z
-y,x,z
-x,-y,z
y,-x,z
x,-y,-z
-x,y,-z
y,x,-z
-y,-x,-z
-x,-y,-z
y,-x,-z
x,y,-z
-y,x,-z
-x,y,z
x,-y,z
-y,-x,z
y,x,z
loop_
_atom_site_type_symbol
_atom_site_label
_atom_site_fract_x
_atom_site_fract_y
_atom_site_fract_z
Si Si1 0.872653 0.207445 0.316392
Si Si2 0.555370 0.365377 0.000000
Si Si3 0.444238 0.295568 0.693856
Si Si4 0.145950 0.307828 0.185876
Si Si5 0.552669 0.108402 0.697504
Si Si6 0.130836 0.054314 0.301362
Si Si7 0.642834 0.947025 0.303590
Si Si8 0.200177 0.393870 0.690816
O O1 0.884591 0.228005 0.500000
O O2 0.831923 0.168078 0.329229
O O3 0.851593 0.250647 0.207363
O O4 0.920015 0.180622 0.241072
O O5 0.566707 0.337153 0.827759
O O6 0.500000 0.381233 0.000000
O O7 0.586876 0.413125 0.000000
O O8 0.432824 0.310930 0.500000
O O9 0.500000 0.279496 0.706064
O O10 0.409842 0.252136 0.759100
O O11 0.091095 0.321139 0.225715
O O12 0.186302 0.337303 0.289952
O O13 0.158938 0.321497 0.000000
O O14 0.549754 0.112878 0.500000
O O15 0.500000 0.098914 0.774143
O O16 0.587818 0.064808 0.747579
O O17 0.574618 0.157638 0.774263
O O18 0.130627 0.054191 0.500000
O O19 0.084361 0.084361 0.236650
O O20 0.128534 0.000000 0.229971
O O21 0.648805 0.944252 0.500000
O O22 0.655575 0.000000 0.235773
O O23 0.202029 0.407359 0.500000
#
# Coordination Sequence:
#
# PCOD8312945 Si02
#       8
#    16   8  16  16  16  16  16  16
#     4   9  18  34  53  70  93 127 166 202 236 287
#     4  10  22  39  60  88 122 158 195 235 275 325
#     4   9  18  34  59  88 116 150 190 234 283 333
#     4  11  22  33  49  72  99 130 167 216 268 317
#     4   8  13  23  43  71  97 121 158 209 257 302
#     4   8  14  25  44  72 101 126 153 189 238 298
#     4   9  18  32  48  66  92 129 171 212 256 307
#     4   9  17  31  52  76 104 136 173 217 267 324
#
# _framework density 19.298411999999999
#
# number of rings (size 3 to 8) (size 9 to 14) (size 15 to 20)
#    0.000    2.933    0.000    3.200    0.933    3.400 
#    0.000    4.000    0.000    4.400    0.000    5.600 
#    0.000    0.000    0.000    2.933    0.000    2.933 
#
# Total GULP energy -1486767.657213 kJ/mol
# GULP energy per Si atom -12389.730477 kJ/mol
# Density = 1.925449 g / cm^3
# Si number density = 19.298412 Si / 1000 Ang^3
#
#
#
# Elastic Constant Matrix: (Units=GPa)
#
#
# Indices 1 2 3 4 5 6 
#
# 1 98.7951 40.7570 18.0606 0.0000 0.0000 0.0000
# 2 40.7570 98.7915 18.0599 0.0000 0.0000 0.0000
# 3 18.0606 18.0599 47.7752 0.0000 0.0000 0.0000
# 4 0.0000 0.0000 0.0000 9.6926 0.0000 0.0000
# 5 0.0000 0.0000 0.0000 0.0000 9.6928 0.0000
# 6 0.0000 0.0000 0.0000 0.0000 0.0000 19.3551
#
#
#
# Elastic Compliance Matrix: (Units=1/GPa)
#
#
# Indices 1 2 3 4 5 6 
#
# 1 0.012587 -0.004644 -0.003003 0.000000 0.000000 0.000000
# 2 -0.004644 0.012587 -0.003003 0.000000 0.000000 0.000000
# 3 -0.003003 -0.003003 0.023202 0.000000 0.000000 0.000000
# 4 0.000000 0.000000 0.000000 0.103171 0.000000 0.000000
# 5 0.000000 0.000000 0.000000 0.000000 0.103170 0.000000
# 6 0.000000 0.000000 0.000000 0.000000 0.000000 0.051666
#
#
# Mechanical properties :
#
#
# Convention : Reuss Voigt Hill
#
# Bulk Modulus (GPa) = 36.93179 44.34632 40.63906
# Shear Modulus (GPa) = 14.84975 18.98039 16.91507
#
# Velocity S-wave (km/s) = 2.77696 3.13952 2.96379
# Velocity P-wave (km/s) = 5.42778 6.01425 5.72853
#
# Compressibility (1/GPa) = 0.02707694
#
# Stress axis : x y z
#
# Youngs Moduli (GPa) = 79.44942 79.44675 43.10059
#
# Poissons Ratio (x) = 0.36893 0.12942
# Poissons Ratio (y) = 0.36894 0.12942
# Poissons Ratio (z) = 0.23856 0.23855
#
# Static dielectric constant tensor:
#      x y z
#    x 3.536110 0.000000 0.000000 
#    y 0.000000 3.536110 0.000000 
#    z 0.000000 0.000000 3.328230 
# 
# 
# High freq. dielectric constant tensor:
#      x y z
#    x 1.740990 0.000000 0.000000 
#    y 0.000000 1.740990 0.000000 
#    z 0.000000 0.000000 1.723080 
# 
# From -- ./inp_files/2001.got.cif
#   From: 2010.03.12/outbox.cif.g09.slc.cpg/sg123_2_cif.got.tgz:2001.got - 2010.04.06 16:26:55.
