data_PCOD8312278
_publ_section_title
;
Structure prediction by ZEFSAII (Michael W. Deem and Ramdas Pophale) SiO2 
 PCOD8312278
Probable space group: P 4/M M M
;
_chemical_formula_sum "Si O2"
_cell_formula_units_Z 72
_cell_length_a 20.497058
_cell_length_b 20.497058
_cell_length_c 9.482796
_cell_angle_alpha 90.000000
_cell_angle_beta 90.000000
_cell_angle_gamma 90.000000
_cell_volume 3984.001267
_symmetry_space_group_name_H-M "P 4/M M M"
_symmetry_group_IT_number 123
_symmetry_cell_setting 'tetragonal'
loop_
_space_group_symop_operation_xyz
x,y,z
-y,x,z
-x,-y,z
y,-x,z
x,-y,-z
-x,y,-z
y,x,-z
-y,-x,-z
-x,-y,-z
y,-x,-z
x,y,-z
-y,x,-z
-x,y,z
x,-y,z
-y,-x,z
y,x,z
loop_
_atom_site_type_symbol
_atom_site_label
_atom_site_fract_x
_atom_site_fract_y
_atom_site_fract_z
Si Si1 0.571644 0.324792 0.166645
Si Si2 0.500000 0.924994 0.166657
Si Si3 0.926302 0.178941 0.840603
Si Si4 0.606933 0.820742 0.166762
Si Si5 0.265567 0.156205 0.660063
O O1 0.500000 0.349451 0.216960
O O2 0.628412 0.371588 0.233100
O O3 0.576760 0.248941 0.210916
O O4 0.576984 0.329461 0.000000
O O5 0.562547 0.882362 0.214897
O O6 0.500000 0.000000 0.229173
O O7 0.500000 0.930447 0.000000
O O8 0.885501 0.114500 0.809032
O O9 0.908028 0.235740 0.731888
O O10 0.000000 0.158475 0.814687
O O11 0.914501 0.204573 0.000000
O O12 0.673035 0.823318 0.250823
O O13 0.619962 0.823725 0.000000
O O14 0.285014 0.139672 0.500000
O O15 0.215017 0.215017 0.668050
#
# Coordination Sequence:
#
# PCOD8312278 Si02
#       5
#    16   8  16  16  16
#     4   9  16  26  43  69  99 131 166 207 256 310
#     4   9  18  32  51  75 102 132 168 213 261 311
#     4   9  18  33  53  77 104 134 170 212 259 312
#     4  10  18  32  53  75 100 131 173 217 260 312
#     4  10  21  35  51  74 104 137 174 215 258 305
#
# _framework density 18.072282999999999
#
# number of rings (size 3 to 8) (size 9 to 14) (size 15 to 20)
#    0.000    2.556    1.111    1.333    0.000    4.000 
#    0.000    5.000    0.000    0.667    0.000    3.111 
#    0.000    0.000    0.000    4.667    0.000    4.444 
#
# Total GULP energy -892315.617878 kJ/mol
# GULP energy per Si atom -12393.272471 kJ/mol
# Density = 1.803115 g / cm^3
# Si number density = 18.072283 Si / 1000 Ang^3
#
#
#
# Elastic Constant Matrix: (Units=GPa)
#
#
# Indices 1 2 3 4 5 6 
#
# 1 112.4826 38.9648 28.6274 0.0000 0.0000 0.0000
# 2 38.9648 112.4826 28.6274 0.0000 0.0000 0.0000
# 3 28.6274 28.6274 49.7454 0.0000 0.0000 0.0000
# 4 0.0000 0.0000 0.0000 10.3250 0.0000 0.0000
# 5 0.0000 0.0000 0.0000 0.0000 10.3250 0.0000
# 6 0.0000 0.0000 0.0000 0.0000 0.0000 6.4177
#
#
#
# Elastic Compliance Matrix: (Units=1/GPa)
#
#
# Indices 1 2 3 4 5 6 
#
# 1 0.011021 -0.002582 -0.004856 0.000000 0.000000 0.000000
# 2 -0.002582 0.011021 -0.004856 0.000000 0.000000 0.000000
# 3 -0.004856 -0.004856 0.025692 0.000000 0.000000 0.000000
# 4 0.000000 0.000000 0.000000 0.096853 0.000000 0.000000
# 5 0.000000 0.000000 0.000000 0.000000 0.096853 0.000000
# 6 0.000000 0.000000 0.000000 0.000000 0.000000 0.155820
#
#
# Mechanical properties :
#
#
# Convention : Reuss Voigt Hill
#
# Bulk Modulus (GPa) = 43.20762 51.90554 47.55658
# Shear Modulus (GPa) = 11.63978 17.31292 14.47635
#
# Velocity S-wave (km/s) = 2.54060 3.09849 2.83331
# Velocity P-wave (km/s) = 5.70669 6.44859 6.08895
#
# Compressibility (1/GPa) = 0.02314406
#
# Stress axis : x y z
#
# Youngs Moduli (GPa) = 90.73971 90.73971 38.92277
#
# Poissons Ratio (x) = 0.23425 0.18903
# Poissons Ratio (y) = 0.23425 0.18903
# Poissons Ratio (z) = 0.44067 0.44067
#
# Static dielectric constant tensor:
#      x y z
#    x 3.551750 0.000000 0.000000 
#    y 0.000000 3.551750 0.000000 
#    z 0.000000 0.000000 3.101740 
# 
# 
# High freq. dielectric constant tensor:
#      x y z
#    x 1.705400 0.000000 0.000000 
#    y 0.000000 1.705400 0.000000 
#    z 0.000000 0.000000 1.657190 
# 
# From -- ./inp_files/1057.got.cif
#   From: 2010.03.12/outbox.cif.g09.slc.cpg/sg123_1_cif.got.tgz:1057.got - 2010.04.06 16:26:55.
