data_PCOD8312553
_publ_section_title
;
Structure prediction by ZEFSAII (Michael W. Deem and Ramdas Pophale) SiO2 
 PCOD8312553
Probable space group: P 4/M M M
;
_chemical_formula_sum "Si O2"
_cell_formula_units_Z 112
_cell_length_a 14.940159
_cell_length_b 14.940159
_cell_length_c 28.877449
_cell_angle_alpha 90.000000
_cell_angle_beta 90.000000
_cell_angle_gamma 90.000000
_cell_volume 6445.687771
_symmetry_space_group_name_H-M "P 4/M M M"
_symmetry_group_IT_number 123
_symmetry_cell_setting 'tetragonal'
loop_
_space_group_symop_operation_xyz
x,y,z
-y,x,z
-x,-y,z
y,-x,z
x,-y,-z
-x,y,-z
y,x,-z
-y,-x,-z
-x,-y,-z
y,-x,-z
x,y,-z
-y,x,-z
-x,y,z
x,-y,z
-y,-x,z
y,x,z
loop_
_atom_site_type_symbol
_atom_site_label
_atom_site_fract_x
_atom_site_fract_y
_atom_site_fract_z
Si Si1 0.102096 0.397391 0.626060
Si Si2 0.753712 0.101739 0.553306
Si Si3 0.405447 0.269089 0.946115
Si Si4 0.762664 0.098875 0.147823
Si Si5 0.098602 0.306001 0.051023
Si Si6 0.605356 0.241090 0.707314
Si Si7 0.601747 0.101852 0.788202
O O1 0.112247 0.500000 0.610070
O O2 0.122413 0.335562 0.582061
O O3 0.177065 0.373985 0.663942
O O4 0.000000 0.381237 0.644791
O O5 0.729016 0.119187 0.500000
O O6 0.834139 0.165861 0.569842
O O7 0.786442 0.000000 0.561147
O O8 0.500000 0.292471 0.922317
O O9 0.328187 0.328187 0.921881
O O10 0.387264 0.164942 0.939051
O O11 0.409916 0.292283 0.000000
O O12 0.832518 0.167483 0.170282
O O13 0.765869 0.109017 0.091965
O O14 0.663658 0.118531 0.167085
O O15 0.794012 0.000000 0.162362
O O16 0.000000 0.348270 0.052014
O O17 0.118679 0.262304 0.000000
O O18 0.500000 0.271695 0.707367
O O19 0.671431 0.328570 0.707220
O O20 0.626361 0.177384 0.750848
O O21 0.500000 0.114041 0.804836
O O22 0.615624 0.000000 0.768554
#
# Coordination Sequence:
#
# PCOD8312553 Si02
#       7
#    16  16  16  16  16  16  16
#     4   9  17  29  46  68  92 120 157 199 242 284
#     4   9  17  28  42  62  90 124 161 201 243 287
#     4   9  17  28  42  61  85 112 140 170 205 247
#     4  10  20  33  50  71  95 123 152 183 221 266
#     4   9  18  32  49  68  90 118 152 189 227 262
#     4  10  19  31  49  71  96 125 154 187 228 275
#     4   9  18  33  52  73  95 118 148 187 229 271
#
# _framework density 17.375958000000001
#
# number of rings (size 3 to 8) (size 9 to 14) (size 15 to 20)
#    0.000    2.714    0.000    1.714    0.000    4.286 
#    0.000    5.714    0.000    0.000    0.000    2.000 
#    0.000   13.714    0.000   13.429    0.000    0.286 
#
# Total GULP energy -1387483.791427 kJ/mol
# GULP energy per Si atom -12388.248138 kJ/mol
# Density = 1.733641 g / cm^3
# Si number density = 17.375958 Si / 1000 Ang^3
#
#
#
# Elastic Constant Matrix: (Units=GPa)
#
#
# Indices 1 2 3 4 5 6 
#
# 1 112.9073 84.4465 43.6074 0.0000 0.0000 0.0000
# 2 84.4465 112.9073 43.6074 0.0000 0.0000 0.0000
# 3 43.6074 43.6074 72.0664 0.0000 0.0000 0.0000
# 4 0.0000 0.0000 0.0000 17.7318 0.0000 0.0000
# 5 0.0000 0.0000 0.0000 0.0000 17.7318 0.0000
# 6 0.0000 0.0000 0.0000 0.0000 0.0000 24.8277
#
#
#
# Elastic Compliance Matrix: (Units=1/GPa)
#
#
# Indices 1 2 3 4 5 6 
#
# 1 0.021026 -0.014110 -0.004185 0.000000 0.000000 0.000000
# 2 -0.014110 0.021026 -0.004185 0.000000 0.000000 0.000000
# 3 -0.004185 -0.004185 0.018941 0.000000 0.000000 0.000000
# 4 0.000000 0.000000 0.000000 0.056396 0.000000 0.000000
# 5 0.000000 0.000000 0.000000 0.000000 0.056396 0.000000
# 6 0.000000 0.000000 0.000000 0.000000 0.000000 0.040278
#
#
# Mechanical properties :
#
#
# Convention : Reuss Voigt Hill
#
# Bulk Modulus (GPa) = 62.37015 71.24486 66.80751
# Shear Modulus (GPa) = 18.91306 20.47291 19.69299
#
# Velocity S-wave (km/s) = 3.30276 3.43626 3.37017
# Velocity P-wave (km/s) = 7.10751 7.53889 7.32638
#
# Compressibility (1/GPa) = 0.01603331
#
# Stress axis : x y z
#
# Youngs Moduli (GPa) = 47.55952 47.55952 52.79533
#
# Poissons Ratio (x) = 0.67105 0.22096
# Poissons Ratio (y) = 0.67105 0.22096
# Poissons Ratio (z) = 0.19905 0.19905
#
# Static dielectric constant tensor:
#      x y z
#    x 3.321150 0.000000 0.000000 
#    y 0.000000 3.321150 0.000000 
#    z 0.000000 0.000000 3.102580 
# 
# 
# High freq. dielectric constant tensor:
#      x y z
#    x 1.669260 0.000000 0.000000 
#    y 0.000000 1.669260 0.000000 
#    z 0.000000 0.000000 1.649030 
# 
# From -- ./inp_files/8165.got.cif
#   From: 2010.03.12/outbox.cif.g09.slc.cpg/sg123_5_cif.got.tgz:8165.got - 2010.04.06 16:26:55.
