data_PCOD8312982
_publ_section_title
;
Structure prediction by ZEFSAII (Michael W. Deem and Ramdas Pophale) SiO2 
 PCOD8312982
Probable space group: P 4/M M M
;
_chemical_formula_sum "Si O2"
_cell_formula_units_Z 80
_cell_length_a 13.942082
_cell_length_b 13.942082
_cell_length_c 25.239394
_cell_angle_alpha 90.000000
_cell_angle_beta 90.000000
_cell_angle_gamma 90.000000
_cell_volume 4906.075063
_symmetry_space_group_name_H-M "P 4/M M M"
_symmetry_group_IT_number 123
_symmetry_cell_setting 'tetragonal'
loop_
_space_group_symop_operation_xyz
x,y,z
-y,x,z
-x,-y,z
y,-x,z
x,-y,-z
-x,y,-z
y,x,-z
-y,-x,-z
-x,-y,-z
y,-x,-z
x,y,-z
-y,x,-z
-x,y,z
x,-y,z
-y,-x,z
y,x,z
loop_
_atom_site_type_symbol
_atom_site_label
_atom_site_fract_x
_atom_site_fract_y
_atom_site_fract_z
Si Si1 0.264657 0.890448 0.868982
Si Si2 0.235260 0.609591 0.061118
Si Si3 0.390680 0.764095 0.443961
Si Si4 0.771008 0.387697 0.328728
Si Si5 0.890154 0.265032 0.746654
O O1 0.168607 0.831394 0.882439
O O2 0.353088 0.853045 0.903877
O O3 0.293911 0.878768 0.807844
O O4 0.243225 0.000000 0.883775
O O5 0.256779 0.500000 0.075815
O O6 0.331395 0.668606 0.074483
O O7 0.205761 0.621393 0.000000
O O8 0.367720 0.821744 0.500000
O O9 0.500000 0.733012 0.443695
O O10 0.334633 0.665368 0.444508
O O11 0.368624 0.816999 0.387947
O O12 0.748612 0.500000 0.319346
O O13 0.672620 0.327381 0.320852
O O14 0.850918 0.354074 0.287193
O O15 0.831472 0.168529 0.733243
O O16 0.000000 0.244651 0.731675
#
# Coordination Sequence:
#
# PCOD8312982 Si02
#       5
#    16  16  16  16  16
#     4   9  18  32  49  69  92 116 143 178 220 266
#     4   9  18  32  49  69  93 121 153 188 222 254
#     4   8  13  21  34  53  78 109 143 177 212 249
#     4   9  17  28  42  62  89 119 149 180 213 253
#     4   9  18  32  49  68  88 111 142 181 224 267
#
# _framework density 16.306314
#
# number of rings (size 3 to 8) (size 9 to 14) (size 15 to 20)
#    0.000    3.200    0.000    0.000    0.000    3.000 
#    0.000    9.000    0.000    0.600    0.000   11.200 
#    0.000    0.000    0.000    7.800    0.000    0.200 
#
# Total GULP energy -991097.020447 kJ/mol
# GULP energy per Si atom -12388.712756 kJ/mol
# Density = 1.626920 g / cm^3
# Si number density = 16.306314 Si / 1000 Ang^3
#
#
#
# Elastic Constant Matrix: (Units=GPa)
#
#
# Indices 1 2 3 4 5 6 
#
# 1 91.3448 38.8884 53.5773 0.0000 0.0000 0.0000
# 2 38.8884 91.3448 53.5773 0.0000 0.0000 0.0000
# 3 53.5773 53.5773 84.2055 0.0000 0.0000 0.0000
# 4 0.0000 0.0000 0.0000 21.0583 0.0000 0.0000
# 5 0.0000 0.0000 0.0000 0.0000 21.0583 0.0000
# 6 0.0000 0.0000 0.0000 0.0000 0.0000 11.8241
#
#
#
# Elastic Compliance Matrix: (Units=1/GPa)
#
#
# Indices 1 2 3 4 5 6 
#
# 1 0.017589 -0.001474 -0.010253 0.000000 0.000000 0.000000
# 2 -0.001474 0.017589 -0.010253 0.000000 0.000000 0.000000
# 3 -0.010253 -0.010253 0.024924 0.000000 0.000000 0.000000
# 4 0.000000 0.000000 0.000000 0.047487 0.000000 0.000000
# 5 0.000000 0.000000 0.000000 0.000000 0.047487 0.000000
# 6 0.000000 0.000000 0.000000 0.000000 0.000000 0.084573
#
#
# Mechanical properties :
#
#
# Convention : Reuss Voigt Hill
#
# Bulk Modulus (GPa) = 61.95885 62.10904 62.03395
# Shear Modulus (GPa) = 17.30156 18.84496 18.07326
#
# Velocity S-wave (km/s) = 3.26089 3.40322 3.33281
# Velocity P-wave (km/s) = 7.22891 7.32217 7.27569
#
# Compressibility (1/GPa) = 0.01613974
#
# Stress axis : x y z
#
# Youngs Moduli (GPa) = 56.85300 56.85300 40.12257
#
# Poissons Ratio (x) = 0.08381 0.41140
# Poissons Ratio (y) = 0.08381 0.41140
# Poissons Ratio (z) = 0.58294 0.58294
#
# Static dielectric constant tensor:
#      x y z
#    x 2.935600 0.000000 0.000000 
#    y 0.000000 2.935600 0.000000 
#    z 0.000000 0.000000 3.526400 
# 
# 
# High freq. dielectric constant tensor:
#      x y z
#    x 1.608030 0.000000 0.000000 
#    y 0.000000 1.608030 0.000000 
#    z 0.000000 0.000000 1.645130 
# 
# From -- ./inp_files/6248.got.cif
#   From: 2010.03.12/outbox.cif.g09.slc.cpg/sg123_4_cif.got.tgz:6248.got - 2010.04.06 16:26:55.
