data_PCOD8312967
_publ_section_title
;
Structure prediction by ZEFSAII (Michael W. Deem and Ramdas Pophale) SiO2 
 PCOD8312967
Probable space group: P 4/M M M
;
_chemical_formula_sum "Si O2"
_cell_formula_units_Z 88
_cell_length_a 14.457987
_cell_length_b 14.457987
_cell_length_c 28.209219
_cell_angle_alpha 90.000000
_cell_angle_beta 90.000000
_cell_angle_gamma 90.000000
_cell_volume 5896.668623
_symmetry_space_group_name_H-M "P 4/M M M"
_symmetry_group_IT_number 123
_symmetry_cell_setting 'tetragonal'
loop_
_space_group_symop_operation_xyz
x,y,z
-y,x,z
-x,-y,z
y,-x,z
x,-y,-z
-x,y,-z
y,x,-z
-y,-x,-z
-x,-y,-z
y,-x,-z
x,y,-z
-y,x,-z
-x,y,z
x,-y,z
-y,-x,z
y,x,z
loop_
_atom_site_type_symbol
_atom_site_label
_atom_site_fract_x
_atom_site_fract_y
_atom_site_fract_z
Si Si1 0.896789 0.389169 0.601657
Si Si2 0.606120 0.754502 0.678967
Si Si3 0.609279 0.102997 0.133607
Si Si4 0.757600 0.606605 0.786598
Si Si5 0.890158 0.398788 0.500000
Si Si6 0.393528 0.243027 0.945821
O O1 0.897098 0.500000 0.599625
O O2 0.830990 0.352474 0.643356
O O3 0.862045 0.349584 0.549957
O O4 0.000000 0.352891 0.612830
O O5 0.500000 0.733368 0.667351
O O6 0.658818 0.658818 0.671184
O O7 0.618862 0.791421 0.732503
O O8 0.500000 0.092938 0.133700
O O9 0.641585 0.158577 0.180346
O O10 0.641387 0.158481 0.086790
O O11 0.654069 0.000000 0.133577
O O12 0.731923 0.500000 0.797533
O O13 0.666231 0.666231 0.797296
O O14 0.843598 0.500000 0.500000
O O15 0.000000 0.409536 0.500000
O O16 0.500000 0.268410 0.934704
O O17 0.334259 0.334259 0.934459
O O18 0.380777 0.210902 0.000000
#
# Coordination Sequence:
#
# PCOD8312967 Si02
#       6
#    16  16  16  16   8  16
#     4   8  13  22  37  55  73  94 123 161 202 237
#     4   9  17  27  38  54  77 105 135 163 190 224
#     4   9  17  28  41  57  78 104 132 162 198 238
#     4   9  17  28  41  57  78 104 133 164 195 228
#     4   7  10  18  33  52  71  91 119 157 199 237
#     4   9  17  28  42  61  85 112 140 168 195 224
#
# _framework density 14.923679999999999
#
# number of rings (size 3 to 8) (size 9 to 14) (size 15 to 20)
#    0.000    3.364    0.000    1.636    0.000    1.636 
#    0.000    8.636    0.000    3.273    0.000    0.000 
#    0.000    9.818    0.000   16.000    0.000    6.545 
#
# Total GULP energy -1090385.916474 kJ/mol
# GULP energy per Si atom -12390.749051 kJ/mol
# Density = 1.488971 g / cm^3
# Si number density = 14.923680 Si / 1000 Ang^3
#
#
#
# Elastic Constant Matrix: (Units=GPa)
#
#
# Indices 1 2 3 4 5 6 
#
# 1 65.0043 33.7133 52.2597 0.0000 0.0000 0.0000
# 2 33.7133 65.0043 52.2597 0.0000 0.0000 0.0000
# 3 52.2597 52.2597 123.5465 0.0000 0.0000 0.0000
# 4 0.0000 0.0000 0.0000 19.6086 0.0000 0.0000
# 5 0.0000 0.0000 0.0000 0.0000 19.6086 0.0000
# 6 0.0000 0.0000 0.0000 0.0000 0.0000 2.6845
#
#
#
# Elastic Compliance Matrix: (Units=1/GPa)
#
#
# Indices 1 2 3 4 5 6 
#
# 1 0.025152 -0.006806 -0.007761 0.000000 0.000000 0.000000
# 2 -0.006806 0.025152 -0.007761 0.000000 0.000000 0.000000
# 3 -0.007761 -0.007761 0.014659 0.000000 0.000000 0.000000
# 4 0.000000 0.000000 0.000000 0.050998 0.000000 0.000000
# 5 0.000000 0.000000 0.000000 0.000000 0.050998 0.000000
# 6 0.000000 0.000000 0.000000 0.000000 0.000000 0.372513
#
#
# Mechanical properties :
#
#
# Convention : Reuss Voigt Hill
#
# Bulk Modulus (GPa) = 49.23576 58.89119 54.06347
# Shear Modulus (GPa) = 8.46172 16.06851 12.26511
#
# Velocity S-wave (km/s) = 2.38376 3.28489 2.86991
# Velocity P-wave (km/s) = 6.37493 7.34402 6.87657
#
# Compressibility (1/GPa) = 0.02031044
#
# Stress axis : x y z
#
# Youngs Moduli (GPa) = 39.75785 39.75785 68.21541
#
# Poissons Ratio (x) = 0.27058 0.52939
# Poissons Ratio (y) = 0.27058 0.52939
# Poissons Ratio (z) = 0.30854 0.30854
#
# Static dielectric constant tensor:
#      x y z
#    x 2.683140 0.000000 0.000000 
#    y 0.000000 2.683140 0.000000 
#    z 0.000000 0.000000 3.274330 
# 
# 
# High freq. dielectric constant tensor:
#      x y z
#    x 1.533020 0.000000 0.000000 
#    y 0.000000 1.533020 0.000000 
#    z 0.000000 0.000000 1.594950 
# 
# From -- ./inp_files/8007.got.cif
#   From: 2010.03.12/outbox.cif.g09.slc.cpg/sg123_5_cif.got.tgz:8007.got - 2010.04.06 16:26:55.
