data_PCOD8312588
_publ_section_title
;
Structure prediction by ZEFSAII (Michael W. Deem and Ramdas Pophale) SiO2 
 PCOD8312588
Probable space group: P 4/M M M
;
_chemical_formula_sum "Si O2"
_cell_formula_units_Z 128
_cell_length_a 19.414189
_cell_length_b 19.414189
_cell_length_c 20.321928
_cell_angle_alpha 90.000000
_cell_angle_beta 90.000000
_cell_angle_gamma 90.000000
_cell_volume 7659.552809
_symmetry_space_group_name_H-M "P 4/M M M"
_symmetry_group_IT_number 123
_symmetry_cell_setting 'tetragonal'
loop_
_space_group_symop_operation_xyz
x,y,z
-y,x,z
-x,-y,z
y,-x,z
x,-y,-z
-x,y,-z
y,x,-z
-y,-x,-z
-x,-y,-z
y,-x,-z
x,y,-z
-y,x,-z
-x,y,z
x,-y,z
-y,-x,z
y,x,z
loop_
_atom_site_type_symbol
_atom_site_label
_atom_site_fract_x
_atom_site_fract_y
_atom_site_fract_z
Si Si1 0.421831 0.161370 0.119341
Si Si2 0.080139 0.291475 0.311160
Si Si3 0.683217 0.424269 0.118520
Si Si4 0.921192 0.809399 0.424897
Si Si5 0.578213 0.838924 0.725831
Si Si6 0.683287 0.575696 0.274993
Si Si7 0.705884 0.079054 0.073983
Si Si8 0.804963 0.081618 0.189713
O O1 0.500000 0.139644 0.100715
O O2 0.407811 0.239404 0.096183
O O3 0.410344 0.152801 0.196737
O O4 0.367565 0.115371 0.081049
O O5 0.100727 0.254127 0.379017
O O6 0.115451 0.365981 0.311696
O O7 0.103312 0.243015 0.250865
O O8 0.000000 0.306395 0.306140
O O9 0.661237 0.500000 0.093274
O O10 0.631841 0.368160 0.087040
O O11 0.679639 0.422494 0.196767
O O12 0.910458 0.785503 0.500000
O O13 0.876051 0.876051 0.407732
O O14 0.000000 0.830877 0.410878
O O15 0.500000 0.861385 0.707305
O O16 0.591588 0.760821 0.702688
O O17 0.660812 0.500000 0.300059
O O18 0.632115 0.632115 0.306400
O O19 0.764358 0.105484 0.124068
O O20 0.691068 0.000000 0.089875
O O21 0.733728 0.090307 0.000000
O O22 0.876579 0.123422 0.193399
O O23 0.822270 0.000000 0.190007
#
# Coordination Sequence:
#
# PCOD8312588 Si02
#       8
#    16  16  16  16  16  16  16  16
#     4   9  17  30  46  67  95 122 152 193 239 288
#     4  10  19  32  50  73  99 127 162 201 239 281
#     4   8  14  24  38  58  84 113 145 181 221 267
#     4   9  18  32  50  74 104 135 166 202 244 291
#     4   9  17  29  45  68  97 126 159 198 237 280
#     4   8  14  23  35  55  84 116 150 187 226 269
#     4  10  21  36  51  69  94 121 152 194 242 291
#     4  10  21  36  53  74  97 123 158 198 241 291
#
# _framework density 16.711158999999999
#
# number of rings (size 3 to 8) (size 9 to 14) (size 15 to 20)
#    0.000    2.875    1.250    1.875    0.000    3.000 
#    0.000    3.750    0.000    2.625    0.000    3.500 
#    0.000    0.000    0.000    2.750    0.000    2.750 
#
# Total GULP energy -1586735.825459 kJ/mol
# GULP energy per Si atom -12396.373636 kJ/mol
# Density = 1.667312 g / cm^3
# Si number density = 16.711159 Si / 1000 Ang^3
#
#
#
# Elastic Constant Matrix: (Units=GPa)
#
#
# Indices 1 2 3 4 5 6 
#
# 1 92.8313 67.0132 38.5651 0.0000 0.0000 0.0000
# 2 67.0132 92.8313 38.5651 0.0000 0.0000 0.0000
# 3 38.5651 38.5651 63.5677 0.0000 0.0000 0.0000
# 4 0.0000 0.0000 0.0000 15.8130 0.0000 0.0000
# 5 0.0000 0.0000 0.0000 0.0000 15.8130 0.0000
# 6 0.0000 0.0000 0.0000 0.0000 0.0000 38.4615
#
#
#
# Elastic Compliance Matrix: (Units=1/GPa)
#
#
# Indices 1 2 3 4 5 6 
#
# 1 0.023789 -0.014943 -0.005366 0.000000 0.000000 0.000000
# 2 -0.014943 0.023789 -0.005366 0.000000 0.000000 0.000000
# 3 -0.005366 -0.005366 0.022243 0.000000 0.000000 0.000000
# 4 0.000000 0.000000 0.000000 0.063239 0.000000 0.000000
# 5 0.000000 0.000000 0.000000 0.000000 0.063239 0.000000
# 6 0.000000 0.000000 0.000000 0.000000 0.000000 0.026000
#
#
# Mechanical properties :
#
#
# Convention : Reuss Voigt Hill
#
# Bulk Modulus (GPa) = 54.14738 59.72411 56.93574
# Shear Modulus (GPa) = 17.86944 21.02330 19.44637
#
# Velocity S-wave (km/s) = 3.27358 3.55073 3.41497
# Velocity P-wave (km/s) = 6.83818 7.25444 7.04938
#
# Compressibility (1/GPa) = 0.01846812
#
# Stress axis : x y z
#
# Youngs Moduli (GPa) = 42.03618 42.03618 44.95877
#
# Poissons Ratio (x) = 0.62817 0.24127
# Poissons Ratio (y) = 0.62817 0.24127
# Poissons Ratio (z) = 0.22558 0.22558
#
# Static dielectric constant tensor:
#      x y z
#    x 3.234610 0.000000 0.000000 
#    y 0.000000 3.234610 0.000000 
#    z 0.000000 0.000000 2.891560 
# 
# 
# High freq. dielectric constant tensor:
#      x y z
#    x 1.644580 0.000000 0.000000 
#    y 0.000000 1.644580 0.000000 
#    z 0.000000 0.000000 1.604840 
# 
# From -- ./inp_files/7679.got.cif
#   From: 2010.03.12/outbox.cif.g09.slc.cpg/sg123_4_cif.got.tgz:7679.got - 2010.04.06 16:26:55.
