data_PCOD8312178
_publ_section_title
;
Structure prediction by ZEFSAII (Michael W. Deem and Ramdas Pophale) SiO2 
 PCOD8312178
Probable space group: P 4/M M M
;
_chemical_formula_sum "Si O2"
_cell_formula_units_Z 96
_cell_length_a 24.435133
_cell_length_b 24.435133
_cell_length_c 9.065350
_cell_angle_alpha 90.000000
_cell_angle_beta 90.000000
_cell_angle_gamma 90.000000
_cell_volume 5412.700421
_symmetry_space_group_name_H-M "P 4/M M M"
_symmetry_group_IT_number 123
_symmetry_cell_setting 'tetragonal'
loop_
_space_group_symop_operation_xyz
x,y,z
-y,x,z
-x,-y,z
y,-x,z
x,-y,-z
-x,y,-z
y,x,-z
-y,-x,-z
-x,-y,-z
y,-x,-z
x,y,-z
-y,x,-z
-x,y,z
x,-y,z
-y,-x,z
y,x,z
loop_
_atom_site_type_symbol
_atom_site_label
_atom_site_fract_x
_atom_site_fract_y
_atom_site_fract_z
Si Si1 0.438665 0.648005 0.675432
Si Si2 0.061163 0.564454 0.167537
Si Si3 0.641186 0.141260 0.675544
Si Si4 0.267003 0.939293 0.324633
Si Si5 0.060606 0.854368 0.324354
Si Si6 0.735114 0.648276 0.324613
O O1 0.441650 0.648439 0.500000
O O2 0.500000 0.648574 0.743138
O O3 0.406681 0.593320 0.728404
O O4 0.405289 0.701606 0.729755
O O5 0.066570 0.500000 0.177503
O O6 0.109506 0.587820 0.268836
O O7 0.000000 0.582101 0.222142
O O8 0.069593 0.584500 0.000000
O O9 0.639513 0.142712 0.500000
O O10 0.692744 0.106969 0.737772
O O11 0.645301 0.203138 0.739360
O O12 0.267772 0.938742 0.500000
O O13 0.206325 0.925320 0.266663
O O14 0.284599 0.000000 0.269226
O O15 0.063918 0.855532 0.500000
O O16 0.103588 0.896413 0.253066
O O17 0.000000 0.871577 0.272547
O O18 0.737195 0.648918 0.500000
O O19 0.703323 0.703323 0.270292
#
# Coordination Sequence:
#
# PCOD8312178 Si02
#       6
#    16  16  16  16  16  16
#     4   8  13  21  32  46  69 102 135 167 203 242
#     4   9  19  35  50  64  88 120 147 176 224 281
#     4  10  18  27  45  69  87 110 149 188 214 249
#     4   8  14  23  33  49  74  98 123 164 212 244
#     4   8  13  20  29  43  67 100 135 169 206 248
#     4   8  15  26  37  55  86 116 139 171 219 264
#
# _framework density 17.736063999999999
#
# number of rings (size 3 to 8) (size 9 to 14) (size 15 to 20)
#    0.000    3.500    0.000    3.000    0.000    3.000 
#    0.000    7.500    0.000    0.500    0.000    0.000 
#    0.000    0.000    0.000    0.000    0.000    0.167 
#
# Total GULP energy -1189466.956895 kJ/mol
# GULP energy per Si atom -12390.280801 kJ/mol
# Density = 1.769570 g / cm^3
# Si number density = 17.736064 Si / 1000 Ang^3
#
#
#
# Elastic Constant Matrix: (Units=GPa)
#
#
# Indices 1 2 3 4 5 6 
#
# 1 150.7671 85.9149 12.8211 0.0000 0.0000 0.0000
# 2 85.9149 150.7671 12.8211 0.0000 0.0000 0.0000
# 3 12.8211 12.8211 7.3167 0.0000 0.0000 0.0000
# 4 0.0000 0.0000 0.0000 6.9845 0.0000 0.0000
# 5 0.0000 0.0000 0.0000 0.0000 6.9845 0.0000
# 6 0.0000 0.0000 0.0000 0.0000 0.0000 20.6524
#
#
#
# Elastic Compliance Matrix: (Units=1/GPa)
#
#
# Indices 1 2 3 4 5 6 
#
# 1 0.010317 -0.005102 -0.009139 0.000000 0.000000 0.000000
# 2 -0.005102 0.010317 -0.009139 0.000000 0.000000 0.000000
# 3 -0.009139 -0.009139 0.168701 0.000000 0.000000 0.000000
# 4 0.000000 0.000000 0.000000 0.143173 0.000000 0.000000
# 5 0.000000 0.000000 0.000000 0.000000 0.143173 0.000000
# 6 0.000000 0.000000 0.000000 0.000000 0.000000 0.048421
#
#
# Mechanical properties :
#
#
# Convention : Reuss Voigt Hill
#
# Bulk Modulus (GPa) = 7.01374 59.10722 33.06048
# Shear Modulus (GPa) = 8.08554 20.07721 14.08138
#
# Velocity S-wave (km/s) = 2.13745 3.36817 2.82075
# Velocity P-wave (km/s) = 3.17092 6.96595 5.41198
#
# Compressibility (1/GPa) = 0.14257731
#
# Stress axis : x y z
#
# Youngs Moduli (GPa) = 96.92344 96.92344 5.92764
#
# Poissons Ratio (x) = 0.49453 0.05417
# Poissons Ratio (y) = 0.49453 0.05417
# Poissons Ratio (z) = 0.88574 0.88574
#
# Static dielectric constant tensor:
#      x y z
#    x 3.610580 0.000000 0.000000 
#    y 0.000000 3.610580 0.000000 
#    z 0.000000 0.000000 2.543920 
# 
# 
# High freq. dielectric constant tensor:
#      x y z
#    x 1.693990 0.000000 0.000000 
#    y 0.000000 1.693990 0.000000 
#    z 0.000000 0.000000 1.604810 
# 
# From -- ./inp_files/1647.got.cif
#   From: 2010.03.12/outbox.cif.g09.slc.cpg/sg123_1_cif.got.tgz:1647.got - 2010.04.06 16:26:55.
