data_PCOD8312556
_publ_section_title
;
Structure prediction by ZEFSAII (Michael W. Deem and Ramdas Pophale) SiO2 
 PCOD8312556
Probable space group: P 4/M M M
;
_chemical_formula_sum "Si O2"
_cell_formula_units_Z 72
_cell_length_a 20.024897
_cell_length_b 20.024897
_cell_length_c 9.391861
_cell_angle_alpha 90.000000
_cell_angle_beta 90.000000
_cell_angle_gamma 90.000000
_cell_volume 3766.103388
_symmetry_space_group_name_H-M "P 4/M M M"
_symmetry_group_IT_number 123
_symmetry_cell_setting 'tetragonal'
loop_
_space_group_symop_operation_xyz
x,y,z
-y,x,z
-x,-y,z
y,-x,z
x,-y,-z
-x,y,-z
y,x,-z
-y,-x,-z
-x,-y,-z
y,-x,-z
x,y,-z
-y,x,-z
-x,y,z
x,-y,z
-y,-x,z
y,x,z
loop_
_atom_site_type_symbol
_atom_site_label
_atom_site_fract_x
_atom_site_fract_y
_atom_site_fract_z
Si Si1 0.181837 0.925624 0.336577
Si Si2 0.500000 0.728793 0.166297
Si Si3 0.686471 0.896630 0.832254
Si Si4 0.248597 0.354635 0.168806
Si Si5 0.608724 0.500000 0.653004
Si Si6 0.000000 0.424264 0.832131
O O1 0.199731 0.909487 0.500000
O O2 0.127465 0.872536 0.278154
O O3 0.249364 0.924994 0.246312
O O4 0.150910 0.000000 0.323021
O O5 0.430293 0.756546 0.231995
O O6 0.500000 0.651491 0.204567
O O7 0.500000 0.741610 0.000000
O O8 0.681640 0.819443 0.788508
O O9 0.618538 0.934947 0.784480
O O10 0.697345 0.906592 0.000000
O O11 0.310985 0.310985 0.230484
O O12 0.256401 0.359453 0.000000
O O13 0.565715 0.565715 0.659787
O O14 0.648099 0.500000 0.500000
O O15 0.000000 0.500000 0.764940
O O16 0.000000 0.433143 0.000000
#
# Coordination Sequence:
#
# PCOD8312556 Si02
#       6
#    16   8  16  16   8   8
#     4  10  21  37  57  81 110 143 179 222 270 321
#     4  10  19  31  49  71  98 129 168 214 258 305
#     4  10  19  34  56  80 107 142 179 218 263 317
#     4   9  18  30  46  72 102 130 164 211 262 305
#     4   9  18  32  48  66  91 125 164 207 259 316
#     4   9  18  30  51  83 112 137 174 218 263 313
#
# _framework density 19.117902999999998
#
# number of rings (size 3 to 8) (size 9 to 14) (size 15 to 20)
#    0.000    2.444    1.111    1.667    1.556    2.889 
#    0.000    2.778    0.000    5.333    0.000    1.556 
#    0.000    0.000    0.000    0.000    0.000    0.000 
#
# Total GULP energy -892022.169899 kJ/mol
# GULP energy per Si atom -12389.196804 kJ/mol
# Density = 1.907439 g / cm^3
# Si number density = 19.117903 Si / 1000 Ang^3
#
#
#
# Elastic Constant Matrix: (Units=GPa)
#
#
# Indices 1 2 3 4 5 6 
#
# 1 128.5330 54.6933 21.0504 0.0000 0.0000 0.0000
# 2 54.6933 128.5330 21.0504 0.0000 0.0000 0.0000
# 3 21.0504 21.0504 19.0977 0.0000 0.0000 0.0000
# 4 0.0000 0.0000 0.0000 18.0696 0.0000 0.0000
# 5 0.0000 0.0000 0.0000 0.0000 18.0696 0.0000
# 6 0.0000 0.0000 0.0000 0.0000 0.0000 26.3594
#
#
#
# Elastic Compliance Matrix: (Units=1/GPa)
#
#
# Indices 1 2 3 4 5 6 
#
# 1 0.010426 -0.003117 -0.008056 0.000000 0.000000 0.000000
# 2 -0.003117 0.010426 -0.008056 0.000000 0.000000 0.000000
# 3 -0.008056 -0.008056 0.070122 0.000000 0.000000 0.000000
# 4 0.000000 0.000000 0.000000 0.055342 0.000000 0.000000
# 5 0.000000 0.000000 0.000000 0.000000 0.055342 0.000000
# 6 0.000000 0.000000 0.000000 0.000000 0.000000 0.037937
#
#
# Mechanical properties :
#
#
# Convention : Reuss Voigt Hill
#
# Bulk Modulus (GPa) = 19.04211 52.19467 35.61839
# Shear Modulus (GPa) = 16.91715 24.45769 20.68742
#
# Velocity S-wave (km/s) = 2.97793 3.58062 3.29309
# Velocity P-wave (km/s) = 4.66970 6.66747 5.75592
#
# Compressibility (1/GPa) = 0.05251518
#
# Stress axis : x y z
#
# Youngs Moduli (GPa) = 95.91550 95.91550 14.26083
#
# Poissons Ratio (x) = 0.29897 0.11489
# Poissons Ratio (y) = 0.29897 0.11489
# Poissons Ratio (z) = 0.77271 0.77271
#
# Static dielectric constant tensor:
#      x y z
#    x 3.682770 0.000000 0.000000 
#    y 0.000000 3.682770 0.000000 
#    z 0.000000 0.000000 3.152050 
# 
# 
# High freq. dielectric constant tensor:
#      x y z
#    x 1.751990 0.000000 0.000000 
#    y 0.000000 1.751990 0.000000 
#    z 0.000000 0.000000 1.692750 
# 
# From -- ./inp_files/1165.got.cif
#   From: 2010.03.12/outbox.cif.g09.slc.cpg/sg123_1_cif.got.tgz:1165.got - 2010.04.06 16:26:55.
