data_PCOD8312792
_publ_section_title
;
Structure prediction by ZEFSAII (Michael W. Deem and Ramdas Pophale) SiO2 
 PCOD8312792
Probable space group: P 4/M M M
;
_chemical_formula_sum "Si O2"
_cell_formula_units_Z 72
_cell_length_a 13.200886
_cell_length_b 13.200886
_cell_length_c 22.974520
_cell_angle_alpha 90.000000
_cell_angle_beta 90.000000
_cell_angle_gamma 90.000000
_cell_volume 4003.617766
_symmetry_space_group_name_H-M "P 4/M M M"
_symmetry_group_IT_number 123
_symmetry_cell_setting 'tetragonal'
loop_
_space_group_symop_operation_xyz
x,y,z
-y,x,z
-x,-y,z
y,-x,z
x,-y,-z
-x,y,-z
y,x,-z
-y,-x,-z
-x,-y,-z
y,-x,-z
x,y,-z
-y,x,-z
-x,y,z
x,-y,z
-y,-x,z
y,x,z
loop_
_atom_site_type_symbol
_atom_site_label
_atom_site_fract_x
_atom_site_fract_y
_atom_site_fract_z
Si Si1 0.116295 0.279691 0.933636
Si Si2 0.618403 0.218930 0.617518
Si Si3 0.620133 0.112808 0.500000
Si Si4 0.716268 0.882915 0.723050
Si Si5 0.782142 0.617154 0.831108
O O1 0.173681 0.173681 0.922644
O O2 0.163770 0.366524 0.893214
O O3 0.000000 0.260369 0.917435
O O4 0.128808 0.316813 0.000000
O O5 0.500000 0.243081 0.616228
O O6 0.675237 0.324764 0.628645
O O7 0.657559 0.171438 0.557135
O O8 0.643068 0.140465 0.668812
O O9 0.500000 0.105284 0.500000
O O10 0.667257 0.000000 0.500000
O O11 0.819818 0.819818 0.718574
O O12 0.655920 0.858007 0.781685
O O13 0.746311 0.000000 0.722848
O O14 0.757577 0.500000 0.822229
O O15 0.675780 0.675780 0.827511
#
# Coordination Sequence:
#
# PCOD8312792 Si02
#       5
#    16  16   8  16  16
#     4   9  18  32  50  74 103 133 166 204 246 294
#     4  10  20  33  50  74 103 135 172 211 251 298
#     4   9  17  30  49  71  95 127 167 209 252 295
#     4  10  21  36  54  77 103 131 165 204 247 297
#     4  10  21  36  53  74 100 130 166 207 249 295
#
# _framework density 17.983733999999998
#
# number of rings (size 3 to 8) (size 9 to 14) (size 15 to 20)
#    0.000    2.333    0.000    2.333    0.000    5.333 
#    0.000    2.222    0.000   10.000    0.000    3.111 
#    0.000    8.000    0.000    0.000    0.000    0.000 
#
# Total GULP energy -893005.881139 kJ/mol
# GULP energy per Si atom -12402.859460 kJ/mol
# Density = 1.794280 g / cm^3
# Si number density = 17.983734 Si / 1000 Ang^3
#
#
#
# Elastic Constant Matrix: (Units=GPa)
#
#
# Indices 1 2 3 4 5 6 
#
# 1 111.0508 42.4389 39.3863 0.0000 0.0000 0.0000
# 2 42.4389 111.0508 39.3863 0.0000 0.0000 0.0000
# 3 39.3863 39.3863 107.9455 0.0000 0.0000 0.0000
# 4 0.0000 0.0000 0.0000 24.9826 0.0000 0.0000
# 5 0.0000 0.0000 0.0000 0.0000 24.9826 0.0000
# 6 0.0000 0.0000 0.0000 0.0000 0.0000 11.6870
#
#
#
# Elastic Compliance Matrix: (Units=1/GPa)
#
#
# Indices 1 2 3 4 5 6 
#
# 1 0.011295 -0.003279 -0.002925 0.000000 0.000000 0.000000
# 2 -0.003279 0.011295 -0.002925 0.000000 0.000000 0.000000
# 3 -0.002925 -0.002925 0.011398 0.000000 0.000000 0.000000
# 4 0.000000 0.000000 0.000000 0.040028 0.000000 0.000000
# 5 0.000000 0.000000 0.000000 0.000000 0.040028 0.000000
# 6 0.000000 0.000000 0.000000 0.000000 0.000000 0.085565
#
#
# Mechanical properties :
#
#
# Convention : Reuss Voigt Hill
#
# Bulk Modulus (GPa) = 63.56802 63.60780 63.58791
# Shear Modulus (GPa) = 22.41029 26.25279 24.33154
#
# Velocity S-wave (km/s) = 3.53390 3.82489 3.68227
# Velocity P-wave (km/s) = 7.21634 7.41301 7.31534
#
# Compressibility (1/GPa) = 0.01573118
#
# Stress axis : x y z
#
# Youngs Moduli (GPa) = 88.53112 88.53112 87.73193
#
# Poissons Ratio (x) = 0.29032 0.25661
# Poissons Ratio (y) = 0.29032 0.25661
# Poissons Ratio (z) = 0.25894 0.25894
#
# Static dielectric constant tensor:
#      x y z
#    x 3.150860 0.000000 0.000000 
#    y 0.000000 3.150860 0.000000 
#    z 0.000000 0.000000 3.609610 
# 
# 
# High freq. dielectric constant tensor:
#      x y z
#    x 1.686110 0.000000 0.000000 
#    y 0.000000 1.686110 0.000000 
#    z 0.000000 0.000000 1.717760 
# 
# From -- ./inp_files/7804.got.cif
#   From: 2010.03.12/outbox.cif.g09.slc.cpg/sg123_4_cif.got.tgz:7804.got - 2010.04.06 16:26:55.
