data_PCOD8312204
_publ_section_title
;
Structure prediction by ZEFSAII (Michael W. Deem and Ramdas Pophale) SiO2 
 PCOD8312204
Probable space group: P 4/M M M
;
_chemical_formula_sum "Si O2"
_cell_formula_units_Z 128
_cell_length_a 17.481787
_cell_length_b 17.481787
_cell_length_c 25.167058
_cell_angle_alpha 90.000000
_cell_angle_beta 90.000000
_cell_angle_gamma 90.000000
_cell_volume 7691.376994
_symmetry_space_group_name_H-M "P 4/M M M"
_symmetry_group_IT_number 123
_symmetry_cell_setting 'tetragonal'
loop_
_space_group_symop_operation_xyz
x,y,z
-y,x,z
-x,-y,z
y,-x,z
x,-y,-z
-x,y,-z
y,x,-z
-y,-x,-z
-x,-y,-z
y,-x,-z
x,y,-z
-y,x,-z
-x,y,z
x,-y,z
-y,-x,z
y,x,z
loop_
_atom_site_type_symbol
_atom_site_label
_atom_site_fract_x
_atom_site_fract_y
_atom_site_fract_z
Si Si1 0.412287 0.711506 0.439310
Si Si2 0.710899 0.413841 0.141102
Si Si3 0.211393 0.088799 0.672456
Si Si4 0.667601 0.206177 0.348500
Si Si5 0.809186 0.413313 0.759938
Si Si6 0.326376 0.801853 0.940880
Si Si7 0.789028 0.089126 0.101813
Si Si8 0.086071 0.724786 0.786069
O O1 0.403751 0.739045 0.500000
O O2 0.500000 0.696459 0.424009
O O3 0.367961 0.632040 0.429430
O O4 0.376878 0.778607 0.403298
O O5 0.687539 0.500000 0.127243
O O6 0.637348 0.362653 0.129548
O O7 0.734352 0.406492 0.202955
O O8 0.781732 0.390891 0.102552
O O9 0.134620 0.134620 0.654981
O O10 0.287692 0.125231 0.645523
O O11 0.221055 0.099053 0.735459
O O12 0.203851 0.000000 0.655257
O O13 0.729601 0.270400 0.335199
O O14 0.606501 0.209008 0.301023
O O15 0.841601 0.500000 0.762219
O O16 0.868900 0.354077 0.783690
O O17 0.260368 0.739633 0.935671
O O18 0.286813 0.883897 0.929765
O O19 0.362575 0.802564 0.000000
O O20 0.864702 0.135299 0.083401
O O21 0.775339 0.108960 0.163567
O O22 0.803188 0.000000 0.090675
O O23 0.000000 0.696687 0.790374
#
# Coordination Sequence:
#
# PCOD8312204 Si02
#       8
#    16  16  16  16  16  16  16  16
#     4   9  17  29  46  69  97 129 164 200 236 273
#     4  10  20  33  50  72  95 120 152 191 236 284
#     4   9  17  28  44  67  94 124 158 197 241 288
#     4   9  17  29  46  67  94 128 164 198 231 277
#     4  10  18  28  46  70  94 123 158 195 234 277
#     4   9  18  33  52  70  89 117 154 191 225 271
#     4  10  19  31  49  71  96 125 155 189 229 273
#     4   9  17  29  44  65  94 126 157 191 232 277
#
# _framework density 16.642012999999999
#
# number of rings (size 3 to 8) (size 9 to 14) (size 15 to 20)
#    0.000    2.625    1.250    1.125    0.000    2.250 
#    0.000    0.625    0.000    4.125    0.000    7.000 
#    0.000    0.000    0.000    4.875    0.000    0.000 
#
# Total GULP energy -1586750.662232 kJ/mol
# GULP energy per Si atom -12396.489549 kJ/mol
# Density = 1.660414 g / cm^3
# Si number density = 16.642013 Si / 1000 Ang^3
#
#
#
# Elastic Constant Matrix: (Units=GPa)
#
#
# Indices 1 2 3 4 5 6 
#
# 1 25.5840 120.8092 35.8583 0.0000 0.0000 0.0000
# 2 120.8092 25.5840 35.8583 0.0000 0.0000 0.0000
# 3 35.8583 35.8583 69.5877 0.0000 0.0000 0.0000
# 4 0.0000 0.0000 0.0000 18.5296 0.0000 0.0000
# 5 0.0000 0.0000 0.0000 0.0000 18.5296 0.0000
# 6 0.0000 0.0000 0.0000 0.0000 0.0000 17.5230
#
#
#
# Elastic Compliance Matrix: (Units=1/GPa)
#
#
# Indices 1 2 3 4 5 6 
#
# 1 -0.000682 0.009820 -0.004709 0.000000 0.000000 0.000000
# 2 0.009820 -0.000682 -0.004709 0.000000 0.000000 0.000000
# 3 -0.004709 -0.004709 0.019223 0.000000 0.000000 0.000000
# 4 0.000000 0.000000 0.000000 0.053968 0.000000 0.000000
# 5 0.000000 0.000000 0.000000 0.000000 0.053968 0.000000
# 6 0.000000 0.000000 0.000000 0.000000 0.000000 0.057068
#
#
# Mechanical properties :
#
#
# Convention : Reuss Voigt Hill
#
# Bulk Modulus (GPa) = 53.57942 56.20082 54.89012
# Shear Modulus (GPa) = 26.55638 6.13179 16.34409
#
# Velocity S-wave (km/s) = 3.99901 1.92159 3.13724
# Velocity P-wave (km/s) = 7.32038 6.22632 6.79541
#
# Compressibility (1/GPa) = 0.01866388
#
# Stress axis : x y z
#
# Youngs Moduli (GPa) = -1466.47386 -1466.47386 52.02107
#
# Poissons Ratio (x) = 14.40006 0.24495
# Poissons Ratio (y) = 14.40006 0.24495
# Poissons Ratio (z) = -6.90501 -6.90501
#
# Static dielectric constant tensor:
#      x y z
#    x 3.063070 0.000000 0.000000 
#    y 0.000000 3.063070 0.000000 
#    z 0.000000 0.000000 3.112470 
# 
# 
# High freq. dielectric constant tensor:
#      x y z
#    x 1.631960 0.000000 0.000000 
#    y 0.000000 1.631960 0.000000 
#    z 0.000000 0.000000 1.631600 
# 
# From -- ./inp_files/7720.got.cif
#   From: 2010.03.12/outbox.cif.g09.slc.cpg/sg123_4_cif.got.tgz:7720.got - 2010.04.06 16:26:55.
