data_PCOD8312024
_publ_section_title
;
Structure prediction by ZEFSAII (Michael W. Deem and Ramdas Pophale) SiO2 
 PCOD8312024
Probable space group: I -4 2 D
;
_chemical_formula_sum "Si O2"
_cell_formula_units_Z 68
_cell_length_a 11.227902
_cell_length_b 11.227902
_cell_length_c 24.958954
_cell_angle_alpha 90.000000
_cell_angle_beta 90.000000
_cell_angle_gamma 90.000000
_cell_volume 3146.470087
_symmetry_space_group_name_H-M "I -4 2 D"
_symmetry_group_IT_number 122
_symmetry_cell_setting 'tetragonal'
loop_
_space_group_symop_operation_xyz
x,y,z
y,-x,-z
-x,-y,z
-y,x,-z
x,1/2-y,1/4-z
-x,1/2+y,1/4-z
-y,1/2-x,1/4+z
y,1/2+x,1/4+z
1/2+x,1/2+y,1/2+z
1/2+y,1/2-x,1/2-z
1/2-x,1/2-y,1/2+z
1/2-y,1/2+x,1/2-z
1/2+x,-y,3/4-z
1/2-x,y,3/4-z
1/2-y,-x,3/4+z
1/2+y,x,3/4+z
loop_
_atom_site_type_symbol
_atom_site_label
_atom_site_fract_x
_atom_site_fract_y
_atom_site_fract_z
Si Si1 0.298875 0.915792 0.081049
Si Si2 0.099410 0.750000 0.125000
Si Si3 0.000000 0.500000 0.750000
Si Si4 0.750000 0.498755 0.875000
Si Si5 0.183015 0.086229 0.574583
Si Si6 0.627987 0.055527 0.965361
O O1 0.181005 0.840718 0.092337
O O2 0.420060 0.844579 0.093636
O O3 0.292167 0.033158 0.117089
O O4 0.295933 0.957548 0.019591
O O5 0.016519 0.684999 0.082801
O O6 0.119868 0.510956 0.714051
O O7 0.808056 0.413462 0.830076
O O8 0.305279 0.128682 0.548867
O O9 0.500000 0.000000 0.976556
#
# Coordination Sequence:
#
# PCOD8312024 Si02
#       6
#    16   8   4   8  16  16
#     4  11  25  46  71 100 144 186 233 303 357 426
#     4  11  27  50  66 106 145 187 246 296 350 439
#     4  12  24  40  68 112 140 176 232 312 366 416
#     4  11  21  42  70 106 139 175 234 296 372 423
#     4  12  24  43  70 104 144 181 238 296 362 438
#     4  12  26  45  74 101 143 195 243 292 367 440
#
# _framework density 21.611521
#
# number of rings (size 3 to 8) (size 9 to 14) (size 15 to 20)
#    0.000    0.471    4.706    3.529    3.294    5.647 
#    0.000    0.000    0.000    0.000    0.000    0.000 
#    0.000    0.000    0.000    0.000    0.000    0.000 
#
# Total GULP energy -421765.175531 kJ/mol
# GULP energy per Si atom -12404.858104 kJ/mol
# Density = 2.156233 g / cm^3
# Si number density = 21.611521 Si / 1000 Ang^3
#
#
#
# Elastic Constant Matrix: (Units=GPa)
#
#
# Indices 1 2 3 4 5 6 
#
# 1 96.1382 12.2024 45.0992 0.0000 0.0000 0.0000
# 2 12.2024 96.1382 45.0992 0.0000 0.0000 0.0000
# 3 45.0992 45.0992 152.6211 0.0000 0.0000 0.0000
# 4 0.0000 0.0000 0.0000 34.1885 0.0000 0.0000
# 5 0.0000 0.0000 0.0000 0.0000 34.1885 0.0000
# 6 0.0000 0.0000 0.0000 0.0000 0.0000 19.0063
#
#
#
# Elastic Compliance Matrix: (Units=1/GPa)
#
#
# Indices 1 2 3 4 5 6 
#
# 1 0.012078 0.000164 -0.003617 0.000000 0.000000 0.000000
# 2 0.000164 0.012078 -0.003617 0.000000 0.000000 0.000000
# 3 -0.003617 -0.003617 0.008690 0.000000 0.000000 0.000000
# 4 0.000000 0.000000 0.000000 0.029250 0.000000 0.000000
# 5 0.000000 0.000000 0.000000 0.000000 0.029250 0.000000
# 6 0.000000 0.000000 0.000000 0.000000 0.000000 0.052614
#
#
# Mechanical properties :
#
#
# Convention : Reuss Voigt Hill
#
# Bulk Modulus (GPa) = 53.46454 61.07768 57.27111
# Shear Modulus (GPa) = 30.42558 33.64312 32.03435
#
# Velocity S-wave (km/s) = 3.75619 3.94981 3.85422
# Velocity P-wave (km/s) = 6.60338 7.00888 6.80914
#
# Compressibility (1/GPa) = 0.01870399
#
# Stress axis : x y z
#
# Youngs Moduli (GPa) = 82.79619 82.79619 115.07390
#
# Poissons Ratio (x) = -0.01358 0.41627
# Poissons Ratio (y) = -0.01358 0.41627
# Poissons Ratio (z) = 0.29951 0.29951
#
# Static dielectric constant tensor:
#      x y z
#    x 3.955040 0.000000 0.000000 
#    y 0.000000 3.955040 0.000000 
#    z 0.000000 0.000000 4.052540 
# 
# 
# High freq. dielectric constant tensor:
#      x y z
#    x 1.850100 0.000000 0.000000 
#    y 0.000000 1.850100 0.000000 
#    z 0.000000 0.000000 1.863450 
# 
# From -- ./inp_files/8659.got.cif
#   From: 2010.03.12/outbox.cif.g09.slc.cpg/sg122_5_cif.got.tgz:8659.got - 2010.04.06 16:17:16.
