data_PCOD8312283
_publ_section_title
;
Structure prediction by ZEFSAII (Michael W. Deem and Ramdas Pophale) SiO2 
 PCOD8312283
Probable space group: P 4/M M M
;
_chemical_formula_sum "Si O2"
_cell_formula_units_Z 104
_cell_length_a 20.223570
_cell_length_b 20.223570
_cell_length_c 16.400188
_cell_angle_alpha 90.000000
_cell_angle_beta 90.000000
_cell_angle_gamma 90.000000
_cell_volume 6707.558541
_symmetry_space_group_name_H-M "P 4/M M M"
_symmetry_group_IT_number 123
_symmetry_cell_setting 'tetragonal'
loop_
_space_group_symop_operation_xyz
x,y,z
-y,x,z
-x,-y,z
y,-x,z
x,-y,-z
-x,y,-z
y,x,-z
-y,-x,-z
-x,-y,-z
y,-x,-z
x,y,-z
-y,x,-z
-x,y,z
x,-y,z
-y,-x,z
y,x,z
loop_
_atom_site_type_symbol
_atom_site_label
_atom_site_fract_x
_atom_site_fract_y
_atom_site_fract_z
Si Si1 0.877040 0.226028 0.691902
Si Si2 0.681318 0.784824 0.404597
Si Si3 0.627783 0.000000 0.409466
Si Si4 0.866751 0.573269 0.666715
Si Si5 0.075870 0.571427 0.837882
Si Si6 0.215708 0.000000 0.592605
Si Si7 0.076758 0.715718 0.142584
Si Si8 0.188232 0.920631 0.000000
O O1 0.832273 0.167727 0.728231
O O2 0.839993 0.266722 0.622180
O O3 0.893262 0.273994 0.767617
O O4 0.937912 0.191440 0.645765
O O5 0.668784 0.793125 0.500000
O O6 0.711696 0.711696 0.384565
O O7 0.613025 0.800014 0.357725
O O8 0.605176 0.066431 0.366242
O O9 0.598242 0.000000 0.500000
O O10 0.705884 0.000000 0.409733
O O11 0.858430 0.500000 0.630379
O O12 0.872903 0.570736 0.763747
O O13 0.085173 0.500000 0.885502
O O14 0.090579 0.639432 0.888012
O O15 0.000000 0.575091 0.806030
O O16 0.186644 0.000000 0.500000
O O17 0.000000 0.728767 0.151187
O O18 0.103450 0.768554 0.077452
O O19 0.118255 0.881746 0.000000
O O20 0.174834 0.000000 0.000000
#
# Coordination Sequence:
#
# PCOD8312283 Si02
#       8
#    16  16   8  16  16   8  16   8
#     4  11  20  31  48  65  84 117 155 191 236 281
#     4  10  20  31  41  59  89 122 157 192 224 267
#     4  11  19  26  35  56  88 116 144 182 224 263
#     4  11  19  28  42  62  88 119 153 187 226 269
#     4   9  16  27  44  66  94 124 149 176 214 263
#     4  11  20  31  46  63  87 115 152 197 232 276
#     4  10  18  33  52  70  92 115 145 185 230 283
#     4  10  22  37  55  77  95 113 147 201 256 298
#
# _framework density 15.504897
#
# number of rings (size 3 to 8) (size 9 to 14) (size 15 to 20)
#    0.000    1.692    4.615    1.615    0.000    2.538 
#    0.000    0.385    0.000    2.538    0.000    0.538 
#    0.000    0.308    0.000    1.692    0.000    0.000 
#
# Total GULP energy -1288421.006488 kJ/mol
# GULP energy per Si atom -12388.663524 kJ/mol
# Density = 1.546961 g / cm^3
# Si number density = 15.504897 Si / 1000 Ang^3
#
#
#
# Elastic Constant Matrix: (Units=GPa)
#
#
# Indices 1 2 3 4 5 6 
#
# 1 68.1447 31.3706 14.2626 0.0000 0.0000 0.0000
# 2 31.3706 68.1428 14.2624 0.0000 0.0000 0.0000
# 3 14.2626 14.2624 39.2222 0.0000 0.0000 0.0000
# 4 0.0000 0.0000 0.0000 15.1155 0.0000 0.0000
# 5 0.0000 0.0000 0.0000 0.0000 15.1156 0.0000
# 6 0.0000 0.0000 0.0000 0.0000 0.0000 0.1380
#
#
#
# Elastic Compliance Matrix: (Units=1/GPa)
#
#
# Indices 1 2 3 4 5 6 
#
# 1 0.019206 -0.007988 -0.004079 0.000000 0.000000 0.000000
# 2 -0.007988 0.019206 -0.004079 0.000000 0.000000 0.000000
# 3 -0.004079 -0.004079 0.028462 0.000000 0.000000 0.000000
# 4 0.000000 0.000000 0.000000 0.066157 0.000000 0.000000
# 5 0.000000 0.000000 0.000000 0.000000 0.066157 0.000000
# 6 0.000000 0.000000 0.000000 0.000000 0.000000 7.248856
#
#
# Mechanical properties :
#
#
# Convention : Reuss Voigt Hill
#
# Bulk Modulus (GPa) = 28.91711 32.81120 30.86416
# Shear Modulus (GPa) = 0.66739 13.78141 7.22440
#
# Velocity S-wave (km/s) = 0.65679 2.98458 2.16091
# Velocity P-wave (km/s) = 4.38930 5.75193 5.11618
#
# Compressibility (1/GPa) = 0.03458160
#
# Stress axis : x y z
#
# Youngs Moduli (GPa) = 52.06795 52.06653 35.13395
#
# Poissons Ratio (x) = 0.41590 0.14332
# Poissons Ratio (y) = 0.41591 0.14332
# Poissons Ratio (z) = 0.21240 0.21239
#
# Static dielectric constant tensor:
#      x y z
#    x 3.054790 0.000000 0.000000 
#    y 0.000000 3.054790 0.000000 
#    z 0.000000 0.000000 2.974610 
# 
# 
# High freq. dielectric constant tensor:
#      x y z
#    x 1.573760 0.000000 0.000000 
#    y 0.000000 1.573760 0.000000 
#    z 0.000000 0.000000 1.585130 
# 
# From -- ./inp_files/4558.got.cif
#   From: 2010.03.12/outbox.cif.g09.slc.cpg/sg123_3_cif.got.tgz:4558.got - 2010.04.06 16:26:55.
