data_PCOD8312160
_publ_section_title
;
Structure prediction by ZEFSAII (Michael W. Deem and Ramdas Pophale) SiO2 
 PCOD8312160
Probable space group: P 4/M M M
;
_chemical_formula_sum "Si O2"
_cell_formula_units_Z 72
_cell_length_a 18.473025
_cell_length_b 18.473025
_cell_length_c 16.387237
_cell_angle_alpha 90.000000
_cell_angle_beta 90.000000
_cell_angle_gamma 90.000000
_cell_volume 5592.188096
_symmetry_space_group_name_H-M "P 4/M M M"
_symmetry_group_IT_number 123
_symmetry_cell_setting 'tetragonal'
loop_
_space_group_symop_operation_xyz
x,y,z
-y,x,z
-x,-y,z
y,-x,z
x,-y,-z
-x,y,-z
y,x,-z
-y,-x,-z
-x,-y,-z
y,-x,-z
x,y,-z
-y,x,-z
-x,y,z
x,-y,z
-y,-x,z
y,x,z
loop_
_atom_site_type_symbol
_atom_site_label
_atom_site_fract_x
_atom_site_fract_y
_atom_site_fract_z
Si Si1 0.415029 0.219884 0.162825
Si Si2 0.583863 0.699719 0.674066
Si Si3 0.414538 0.846022 0.410648
Si Si4 0.080170 0.413433 0.249817
Si Si5 0.296329 0.586662 0.000000
O O1 0.500000 0.211683 0.154910
O O2 0.395722 0.275562 0.234529
O O3 0.383822 0.139520 0.184658
O O4 0.385130 0.250373 0.077636
O O5 0.500000 0.678579 0.667746
O O6 0.629287 0.629287 0.650302
O O7 0.604379 0.763413 0.611629
O O8 0.381094 0.864589 0.500000
O O9 0.500000 0.855116 0.414012
O O10 0.384116 0.899658 0.340637
O O11 0.082723 0.500000 0.251239
O O12 0.000000 0.385284 0.226006
O O13 0.309695 0.500000 0.000000
O O14 0.374715 0.625286 0.000000
#
# Coordination Sequence:
#
# PCOD8312160 Si02
#       5
#    16  16  16  16   8
#     4   8  15  26  36  48  65  82 102 132 172 211
#     4   9  16  25  35  45  60  83 111 145 183 217
#     4   8  14  23  33  46  63  81 102 130 165 202
#     4   8  13  22  36  51  66  82  98 120 156 205
#     4  10  18  27  39  51  65  87 115 147 180 210
#
# _framework density 12.875102999999999
#
# number of rings (size 3 to 8) (size 9 to 14) (size 15 to 20)
#    0.000    3.556    0.000    3.333    0.000    1.222 
#    0.000    2.778    0.000    7.333    0.000    3.111 
#    0.000    0.000    0.000    0.000    0.000    0.000 
#
# Total GULP energy -891946.581561 kJ/mol
# GULP energy per Si atom -12388.146966 kJ/mol
# Density = 1.284580 g / cm^3
# Si number density = 12.875103 Si / 1000 Ang^3
#
#
#
# Elastic Constant Matrix: (Units=GPa)
#
#
# Indices 1 2 3 4 5 6 
#
# 1 46.5604 25.8146 16.0873 0.0000 0.0000 0.0000
# 2 25.8146 46.5618 16.0880 0.0000 0.0000 0.0000
# 3 16.0873 16.0880 75.6400 0.0000 0.0000 0.0000
# 4 0.0000 0.0000 0.0000 9.0845 0.0000 0.0000
# 5 0.0000 0.0000 0.0000 0.0000 9.0843 0.0000
# 6 0.0000 0.0000 0.0000 0.0000 0.0000 1.1187
#
#
#
# Elastic Compliance Matrix: (Units=1/GPa)
#
#
# Indices 1 2 3 4 5 6 
#
# 1 0.031731 -0.016471 -0.003245 0.000000 0.000000 0.000000
# 2 -0.016471 0.031730 -0.003246 0.000000 0.000000 0.000000
# 3 -0.003245 -0.003246 0.014601 0.000000 0.000000 0.000000
# 4 0.000000 0.000000 0.000000 0.110078 0.000000 0.000000
# 5 0.000000 0.000000 0.000000 0.000000 0.110080 0.000000
# 6 0.000000 0.000000 0.000000 0.000000 0.000000 0.893901
#
#
# Mechanical properties :
#
#
# Convention : Reuss Voigt Hill
#
# Bulk Modulus (GPa) = 31.11557 31.63798 31.37678
# Shear Modulus (GPa) = 4.00398 11.24231 7.62315
#
# Velocity S-wave (km/s) = 1.76539 2.95817 2.43592
# Velocity P-wave (km/s) = 5.32684 6.02445 5.68635
#
# Compressibility (1/GPa) = 0.03213825
#
# Stress axis : x y z
#
# Youngs Moduli (GPa) = 31.51528 31.51607 68.48810
#
# Poissons Ratio (x) = 0.51909 0.22227
# Poissons Ratio (y) = 0.51908 0.22229
# Poissons Ratio (z) = 0.10228 0.10229
#
# Static dielectric constant tensor:
#      x y z
#    x 2.408760 0.000000 0.000000 
#    y 0.000000 2.408750 0.000000 
#    z 0.000000 0.000000 3.654600 
# 
# 
# High freq. dielectric constant tensor:
#      x y z
#    x 1.448470 0.000000 0.000000 
#    y 0.000000 1.448470 0.000000 
#    z 0.000000 0.000000 1.499920 
# 
# From -- ./inp_files/5292.got.cif
#   From: 2010.03.12/outbox.cif.g09.slc.cpg/sg123_3_cif.got.tgz:5292.got - 2010.04.06 16:26:55.
