data_PCOD8312310
_publ_section_title
;
Structure prediction by ZEFSAII (Michael W. Deem and Ramdas Pophale) SiO2 
 PCOD8312310
Probable space group: P 4/M M M
;
_chemical_formula_sum "Si O2"
_cell_formula_units_Z 56
_cell_length_a 12.611992
_cell_length_b 12.611992
_cell_length_c 21.048741
_cell_angle_alpha 90.000000
_cell_angle_beta 90.000000
_cell_angle_gamma 90.000000
_cell_volume 3348.062044
_symmetry_space_group_name_H-M "P 4/M M M"
_symmetry_group_IT_number 123
_symmetry_cell_setting 'tetragonal'
loop_
_space_group_symop_operation_xyz
x,y,z
-y,x,z
-x,-y,z
y,-x,z
x,-y,-z
-x,y,-z
y,x,-z
-y,-x,-z
-x,-y,-z
y,-x,-z
x,y,-z
-y,x,-z
-x,y,z
x,-y,z
-y,-x,z
y,x,z
loop_
_atom_site_type_symbol
_atom_site_label
_atom_site_fract_x
_atom_site_fract_y
_atom_site_fract_z
Si Si1 0.000000 0.378773 0.157712
Si Si2 0.374545 0.116078 0.370115
Si Si3 0.171116 0.000000 0.924974
Si Si4 0.375497 0.785986 0.500000
Si Si5 0.789391 0.378424 0.238833
O O1 0.897047 0.361061 0.200447
O O2 0.000000 0.500000 0.129772
O O3 0.000000 0.289623 0.103324
O O4 0.500000 0.107452 0.374514
O O5 0.329803 0.157008 0.437259
O O6 0.344318 0.192174 0.311884
O O7 0.325571 0.000000 0.357561
O O8 0.104765 0.104765 0.903799
O O9 0.185147 0.000000 0.000000
O O10 0.500000 0.781547 0.500000
O O11 0.334287 0.665714 0.500000
O O12 0.751270 0.500000 0.233509
O O13 0.696365 0.303636 0.211101
#
# Coordination Sequence:
#
# PCOD8312310 Si02
#       5
#     8  16   8   8  16
#     4  10  19  32  50  73 101 132 166 199 231 274
#     4   9  16  29  45  62  84 111 151 198 238 281
#     4   9  18  33  53  77 104 131 160 198 242 284
#     4  10  19  28  41  61  84 114 149 189 239 290
#     4  10  19  31  48  70  97 127 159 198 241 285
#
# _framework density 16.726092999999999
#
# number of rings (size 3 to 8) (size 9 to 14) (size 15 to 20)
#    0.000    2.429    1.429    2.571    0.000    2.429 
#    0.000    0.000    0.000    5.143    0.000    0.000 
#    0.000    2.286    0.000   26.571    0.000    0.000 
#
# Total GULP energy -693985.678368 kJ/mol
# GULP energy per Si atom -12392.601399 kJ/mol
# Density = 1.668802 g / cm^3
# Si number density = 16.726093 Si / 1000 Ang^3
#
#
#
# Elastic Constant Matrix: (Units=GPa)
#
#
# Indices 1 2 3 4 5 6 
#
# 1 90.4028 68.6015 33.8681 0.0000 0.0000 0.0000
# 2 68.6015 90.4060 33.8679 0.0000 0.0000 0.0000
# 3 33.8681 33.8679 62.3498 0.0000 0.0000 0.0000
# 4 0.0000 0.0000 0.0000 18.8822 0.0000 0.0000
# 5 0.0000 0.0000 0.0000 0.0000 18.8821 0.0000
# 6 0.0000 0.0000 0.0000 0.0000 0.0000 22.2256
#
#
#
# Elastic Compliance Matrix: (Units=1/GPa)
#
#
# Indices 1 2 3 4 5 6 
#
# 1 0.027025 -0.018841 -0.004445 0.000000 0.000000 0.000000
# 2 -0.018841 0.027023 -0.004444 0.000000 0.000000 0.000000
# 3 -0.004445 -0.004444 0.020867 0.000000 0.000000 0.000000
# 4 0.000000 0.000000 0.000000 0.052960 0.000000 0.000000
# 5 0.000000 0.000000 0.000000 0.000000 0.052960 0.000000
# 6 0.000000 0.000000 0.000000 0.000000 0.000000 0.044993
#
#
# Mechanical properties :
#
#
# Convention : Reuss Voigt Hill
#
# Bulk Modulus (GPa) = 51.40470 57.31483 54.35977
# Shear Modulus (GPa) = 17.37471 19.11939 18.24705
#
# Velocity S-wave (km/s) = 3.22651 3.38463 3.30651
# Velocity P-wave (km/s) = 6.68434 7.04382 6.86643
#
# Compressibility (1/GPa) = 0.01945347
#
# Stress axis : x y z
#
# Youngs Moduli (GPa) = 37.00331 37.00507 47.92211
#
# Poissons Ratio (x) = 0.69723 0.21302
# Poissons Ratio (y) = 0.69720 0.21298
# Poissons Ratio (z) = 0.16448 0.16446
#
# Static dielectric constant tensor:
#      x y z
#    x 3.098130 0.000000 0.000000 
#    y 0.000000 3.098120 0.000000 
#    z 0.000000 0.000000 3.096750 
# 
# 
# High freq. dielectric constant tensor:
#      x y z
#    x 1.634430 0.000000 0.000000 
#    y 0.000000 1.634430 0.000000 
#    z 0.000000 0.000000 1.634490 
# 
# From -- ./inp_files/6980.got.cif
#   From: 2010.03.12/outbox.cif.g09.slc.cpg/sg123_4_cif.got.tgz:6980.got - 2010.04.06 16:26:55.
