data_PCOD8312810
_publ_section_title
;
Structure prediction by ZEFSAII (Michael W. Deem and Ramdas Pophale) SiO2 
 PCOD8312810
Probable space group: P 4/M M M
;
_chemical_formula_sum "Si O2"
_cell_formula_units_Z 64
_cell_length_a 12.670085
_cell_length_b 12.670085
_cell_length_c 22.334416
_cell_angle_alpha 90.000000
_cell_angle_beta 90.000000
_cell_angle_gamma 90.000000
_cell_volume 3585.367339
_symmetry_space_group_name_H-M "P 4/M M M"
_symmetry_group_IT_number 123
_symmetry_cell_setting 'tetragonal'
loop_
_space_group_symop_operation_xyz
x,y,z
-y,x,z
-x,-y,z
y,-x,z
x,-y,-z
-x,y,-z
y,x,-z
-y,-x,-z
-x,-y,-z
y,-x,-z
x,y,-z
-y,x,-z
-x,y,z
x,-y,z
-y,-x,z
y,x,z
loop_
_atom_site_type_symbol
_atom_site_label
_atom_site_fract_x
_atom_site_fract_y
_atom_site_fract_z
Si Si1 0.206019 0.622239 0.638308
Si Si2 0.211486 0.380204 0.000000
Si Si3 0.374747 0.000000 0.432481
Si Si4 0.795635 0.377619 0.129319
Si Si5 0.711011 0.880384 0.755205
O O1 0.232196 0.500000 0.624654
O O2 0.307924 0.692077 0.620736
O O3 0.106098 0.664894 0.600313
O O4 0.178283 0.634578 0.708304
O O5 0.151579 0.354574 0.936956
O O6 0.245523 0.500000 0.000000
O O7 0.321671 0.321671 0.000000
O O8 0.500000 0.000000 0.431150
O O9 0.330534 0.000000 0.500000
O O10 0.767051 0.500000 0.136568
O O11 0.687746 0.312255 0.138233
O O12 0.878882 0.343280 0.179594
O O13 0.824919 0.824919 0.756703
O O14 0.728582 0.000000 0.735230
#
# Coordination Sequence:
#
# PCOD8312810 Si02
#       5
#    16   8   8  16  16
#     4  10  20  34  54  81 111 142 176 214 259 311
#     4   8  14  25  39  59  90 124 160 200 241 290
#     4   9  18  34  56  79 105 140 180 217 249 291
#     4   9  17  28  44  67  95 128 163 200 244 295
#     4  10  20  34  52  73  96 126 165 210 259 307
#
# _framework density 17.850332000000002
#
# number of rings (size 3 to 8) (size 9 to 14) (size 15 to 20)
#    0.000    2.625    1.250    0.750    0.000    2.875 
#    0.000    3.125    0.000    7.125    0.000    4.375 
#    0.000    5.000    0.000    0.000    0.000    0.000 
#
# Total GULP energy -793068.892429 kJ/mol
# GULP energy per Si atom -12391.701444 kJ/mol
# Density = 1.780970 g / cm^3
# Si number density = 17.850332 Si / 1000 Ang^3
#
#
#
# Elastic Constant Matrix: (Units=GPa)
#
#
# Indices 1 2 3 4 5 6 
#
# 1 85.5778 42.5949 29.6695 0.0000 0.0000 0.0000
# 2 42.5949 85.5778 29.6695 0.0000 0.0000 0.0000
# 3 29.6695 29.6695 108.8108 0.0000 0.0000 0.0000
# 4 0.0000 0.0000 0.0000 22.0658 0.0000 0.0000
# 5 0.0000 0.0000 0.0000 0.0000 22.0658 0.0000
# 6 0.0000 0.0000 0.0000 0.0000 0.0000 14.6331
#
#
#
# Elastic Compliance Matrix: (Units=1/GPa)
#
#
# Indices 1 2 3 4 5 6 
#
# 1 0.016097 -0.007168 -0.002435 0.000000 0.000000 0.000000
# 2 -0.007168 0.016097 -0.002435 0.000000 0.000000 0.000000
# 3 -0.002435 -0.002435 0.010518 0.000000 0.000000 0.000000
# 4 0.000000 0.000000 0.000000 0.045319 0.000000 0.000000
# 5 0.000000 0.000000 0.000000 0.000000 0.045319 0.000000
# 6 0.000000 0.000000 0.000000 0.000000 0.000000 0.068338
#
#
# Mechanical properties :
#
#
# Convention : Reuss Voigt Hill
#
# Bulk Modulus (GPa) = 53.65543 53.75938 53.70740
# Shear Modulus (GPa) = 21.55395 23.62175 22.58785
#
# Velocity S-wave (km/s) = 3.47865 3.64170 3.56111
# Velocity P-wave (km/s) = 6.80136 6.91843 6.86015
#
# Compressibility (1/GPa) = 0.01863744
#
# Stress axis : x y z
#
# Youngs Moduli (GPa) = 62.12297 62.12297 95.07492
#
# Poissons Ratio (x) = 0.44529 0.23148
# Poissons Ratio (y) = 0.44529 0.23148
# Poissons Ratio (z) = 0.15125 0.15125
#
# Static dielectric constant tensor:
#      x y z
#    x 3.063190 0.000000 0.000000 
#    y 0.000000 3.063190 0.000000 
#    z 0.000000 0.000000 3.739740 
# 
# 
# High freq. dielectric constant tensor:
#      x y z
#    x 1.667950 0.000000 0.000000 
#    y 0.000000 1.667950 0.000000 
#    z 0.000000 0.000000 1.710130 
# 
# From -- ./inp_files/7057.got.cif
#   From: 2010.03.12/outbox.cif.g09.slc.cpg/sg123_4_cif.got.tgz:7057.got - 2010.04.06 16:26:55.
