data_PCOD8312961
_publ_section_title
;
Structure prediction by ZEFSAII (Michael W. Deem and Ramdas Pophale) SiO2 
 PCOD8312961
Probable space group: P 4/M M M
;
_chemical_formula_sum "Si O2"
_cell_formula_units_Z 120
_cell_length_a 18.121973
_cell_length_b 18.121973
_cell_length_c 19.470000
_cell_angle_alpha 90.000000
_cell_angle_beta 90.000000
_cell_angle_gamma 90.000000
_cell_volume 6394.062978
_symmetry_space_group_name_H-M "P 4/M M M"
_symmetry_group_IT_number 123
_symmetry_cell_setting 'tetragonal'
loop_
_space_group_symop_operation_xyz
x,y,z
-y,x,z
-x,-y,z
y,-x,z
x,-y,-z
-x,y,-z
y,x,-z
-y,-x,-z
-x,-y,-z
y,-x,-z
x,y,-z
-y,x,-z
-x,y,z
x,-y,z
-y,-x,z
y,x,z
loop_
_atom_site_type_symbol
_atom_site_label
_atom_site_fract_x
_atom_site_fract_y
_atom_site_fract_z
Si Si1 0.416769 0.298099 0.851905
Si Si2 0.252040 0.868432 0.291018
Si Si3 0.753289 0.365962 0.716896
Si Si4 0.082021 0.500000 0.918391
Si Si5 0.213595 0.415461 0.574827
Si Si6 0.692362 0.080858 0.574481
Si Si7 0.085371 0.792011 0.852989
Si Si8 0.648122 0.839095 0.918845
O O1 0.500000 0.304295 0.882686
O O2 0.379315 0.379315 0.851611
O O3 0.426426 0.263312 0.775264
O O4 0.362732 0.245714 0.896741
O O5 0.201199 0.798802 0.303843
O O6 0.334886 0.837144 0.276101
O O7 0.250129 0.913148 0.362572
O O8 0.223047 0.918117 0.228564
O O9 0.700128 0.299873 0.736300
O O10 0.734900 0.394961 0.639724
O O11 0.120261 0.574483 0.891209
O O12 0.000000 0.500000 0.888533
O O13 0.083039 0.500000 0.000000
O O14 0.250948 0.397001 0.500000
O O15 0.192579 0.500000 0.578979
O O16 0.137458 0.373491 0.583192
O O17 0.732149 0.093648 0.500000
O O18 0.656549 0.000000 0.576690
O O19 0.134317 0.865684 0.868992
O O20 0.123932 0.721819 0.888386
O O21 0.000000 0.802828 0.878259
O O22 0.656232 0.844509 0.000000
#
# Coordination Sequence:
#
# PCOD8312961 Si02
#       8
#    16  16  16   8  16  16  16  16
#     4  11  22  37  58  83 113 149 187 228 276 330
#     4   9  17  31  51  74 100 131 172 222 273 322
#     4   9  17  31  51  73  99 132 173 221 271 323
#     4   9  18  34  58  88 119 145 170 214 275 326
#     4   9  17  28  43  65  95 131 170 213 259 310
#     4   9  17  28  43  65  95 132 171 211 257 312
#     4  11  23  39  60  85 115 152 191 233 281 333
#     4  11  22  39  62  88 115 145 184 228 276 335
#
# _framework density 18.767410000000002
#
# number of rings (size 3 to 8) (size 9 to 14) (size 15 to 20)
#    0.000    2.200    2.000    1.600    0.000    2.933 
#    0.000    4.000    0.000    0.000    0.000    1.867 
#    0.000    0.000    0.000   24.800    0.000    0.533 
#
# Total GULP energy -1486573.322790 kJ/mol
# GULP energy per Si atom -12388.111023 kJ/mol
# Density = 1.872469 g / cm^3
# Si number density = 18.767410 Si / 1000 Ang^3
#
#
#
# Elastic Constant Matrix: (Units=GPa)
#
#
# Indices 1 2 3 4 5 6 
#
# 1 87.8673 41.4620 27.7815 0.0000 0.0000 0.0000
# 2 41.4620 87.8673 27.7815 0.0000 0.0000 0.0000
# 3 27.7815 27.7815 75.2563 0.0000 0.0000 0.0000
# 4 0.0000 0.0000 0.0000 20.4847 0.0000 0.0000
# 5 0.0000 0.0000 0.0000 0.0000 20.4847 0.0000
# 6 0.0000 0.0000 0.0000 0.0000 0.0000 15.1719
#
#
#
# Elastic Compliance Matrix: (Units=1/GPa)
#
#
# Indices 1 2 3 4 5 6 
#
# 1 0.015369 -0.006180 -0.003392 0.000000 0.000000 0.000000
# 2 -0.006180 0.015369 -0.003392 0.000000 0.000000 0.000000
# 3 -0.003392 -0.003392 0.015793 0.000000 0.000000 0.000000
# 4 0.000000 0.000000 0.000000 0.048817 0.000000 0.000000
# 5 0.000000 0.000000 0.000000 0.000000 0.048817 0.000000
# 6 0.000000 0.000000 0.000000 0.000000 0.000000 0.065911
#
#
# Mechanical properties :
#
#
# Convention : Reuss Voigt Hill
#
# Bulk Modulus (GPa) = 48.53850 49.44897 48.99374
# Shear Modulus (GPa) = 20.58684 21.49265 21.03975
#
# Velocity S-wave (km/s) = 3.31561 3.38777 3.35188
# Velocity P-wave (km/s) = 6.37001 6.45819 6.41425
#
# Compressibility (1/GPa) = 0.02060220
#
# Stress axis : x y z
#
# Youngs Moduli (GPa) = 65.06403 65.06403 63.32070
#
# Poissons Ratio (x) = 0.40208 0.21481
# Poissons Ratio (y) = 0.40208 0.21481
# Poissons Ratio (z) = 0.22073 0.22073
#
# Static dielectric constant tensor:
#      x y z
#    x 3.317580 0.000000 0.000000 
#    y 0.000000 3.317580 0.000000 
#    z 0.000000 0.000000 3.759440 
# 
# 
# High freq. dielectric constant tensor:
#      x y z
#    x 1.709880 0.000000 0.000000 
#    y 0.000000 1.709880 0.000000 
#    z 0.000000 0.000000 1.739660 
# 
# From -- ./inp_files/6849.got.cif
#   From: 2010.03.12/outbox.cif.g09.slc.cpg/sg123_4_cif.got.tgz:6849.got - 2010.04.06 16:26:55.
