data_PCOD8312571
_publ_section_title
;
Structure prediction by ZEFSAII (Michael W. Deem and Ramdas Pophale) SiO2 
 PCOD8312571
Probable space group: P 4/M M M
;
_chemical_formula_sum "Si O2"
_cell_formula_units_Z 72
_cell_length_a 20.384645
_cell_length_b 20.384645
_cell_length_c 9.076433
_cell_angle_alpha 90.000000
_cell_angle_beta 90.000000
_cell_angle_gamma 90.000000
_cell_volume 3771.564257
_symmetry_space_group_name_H-M "P 4/M M M"
_symmetry_group_IT_number 123
_symmetry_cell_setting 'tetragonal'
loop_
_space_group_symop_operation_xyz
x,y,z
-y,x,z
-x,-y,z
y,-x,z
x,-y,-z
-x,y,-z
y,x,-z
-y,-x,-z
-x,-y,-z
y,-x,-z
x,y,-z
-y,x,-z
-x,y,z
x,-y,z
-y,-x,z
y,x,z
loop_
_atom_site_type_symbol
_atom_site_label
_atom_site_fract_x
_atom_site_fract_y
_atom_site_fract_z
Si Si1 0.751883 0.645299 0.675159
Si Si2 0.000000 0.571696 0.673172
Si Si3 0.000000 0.107376 0.663734
Si Si4 0.270739 0.500000 0.330223
Si Si5 0.677587 0.102517 0.673780
Si Si6 0.393152 0.500000 0.160008
Si Si7 0.000000 0.235749 0.827886
O O1 0.745608 0.641201 0.500000
O O2 0.691878 0.691878 0.735309
O O3 0.752970 0.570077 0.739338
O O4 0.821413 0.676612 0.721973
O O5 0.065932 0.610158 0.720537
O O6 0.000000 0.500000 0.749810
O O7 0.000000 0.562493 0.500000
O O8 0.064465 0.064465 0.682857
O O9 0.000000 0.139887 0.500000
O O10 0.000000 0.159221 0.794657
O O11 0.251786 0.500000 0.500000
O O12 0.347896 0.500000 0.302639
O O13 0.689561 0.095306 0.500000
O O14 0.736066 0.066603 0.757654
O O15 0.435479 0.435479 0.171142
O O16 0.356288 0.500000 0.000000
O O17 0.000000 0.249973 0.000000
#
# Coordination Sequence:
#
# PCOD8312571 Si02
#       7
#    16   8   8   8  16   8   8
#     4   9  18  31  49  77 109 138 174 224 276 328
#     4   8  14  24  45  73  94 115 160 222 272 311
#     4   9  19  37  61  87 112 141 180 220 259 311
#     4  10  19  31  51  77 105 132 168 222 285 334
#     4   9  18  33  52  74 102 140 185 223 265 323
#     4   9  18  32  48  66  91 127 171 214 260 325
#     4  11  22  36  55  81 116 149 181 221 269 319
#
# _framework density 19.090222000000001
#
# number of rings (size 3 to 8) (size 9 to 14) (size 15 to 20)
#    0.000    2.778    0.000    3.000    1.556    2.667 
#    0.000    4.444    0.000    6.667    0.000    0.000 
#    0.000    0.000    0.000    0.000    0.000    0.000 
#
# Total GULP energy -891979.498777 kJ/mol
# GULP energy per Si atom -12388.604150 kJ/mol
# Density = 1.904677 g / cm^3
# Si number density = 19.090222 Si / 1000 Ang^3
#
#
#
# Elastic Constant Matrix: (Units=GPa)
#
#
# Indices 1 2 3 4 5 6 
#
# 1 134.1780 52.6425 26.4328 0.0000 0.0000 0.0000
# 2 52.6425 134.1780 26.4328 0.0000 0.0000 0.0000
# 3 26.4328 26.4328 36.7642 0.0000 0.0000 0.0000
# 4 0.0000 0.0000 0.0000 9.8326 0.0000 0.0000
# 5 0.0000 0.0000 0.0000 0.0000 9.8326 0.0000
# 6 0.0000 0.0000 0.0000 0.0000 0.0000 14.5888
#
#
#
# Elastic Compliance Matrix: (Units=1/GPa)
#
#
# Indices 1 2 3 4 5 6 
#
# 1 0.009492 -0.002772 -0.004832 0.000000 0.000000 0.000000
# 2 -0.002772 0.009492 -0.004832 0.000000 0.000000 0.000000
# 3 -0.004832 -0.004832 0.034148 0.000000 0.000000 0.000000
# 4 0.000000 0.000000 0.000000 0.101702 0.000000 0.000000
# 5 0.000000 0.000000 0.000000 0.000000 0.101702 0.000000
# 6 0.000000 0.000000 0.000000 0.000000 0.000000 0.068546
#
#
# Mechanical properties :
#
#
# Convention : Reuss Voigt Hill
#
# Bulk Modulus (GPa) = 35.38351 57.34846 46.36599
# Shear Modulus (GPa) = 13.91309 20.15828 17.03568
#
# Velocity S-wave (km/s) = 2.70257 3.25306 2.99051
# Velocity P-wave (km/s) = 5.32106 6.64950 6.02202
#
# Compressibility (1/GPa) = 0.02826175
#
# Stress axis : x y z
#
# Youngs Moduli (GPa) = 105.34896 105.34896 29.28435
#
# Poissons Ratio (x) = 0.29206 0.14149
# Poissons Ratio (y) = 0.29206 0.14149
# Poissons Ratio (z) = 0.50899 0.50899
#
# Static dielectric constant tensor:
#      x y z
#    x 3.641710 0.000000 0.000000 
#    y 0.000000 3.641710 0.000000 
#    z 0.000000 0.000000 3.090080 
# 
# 
# High freq. dielectric constant tensor:
#      x y z
#    x 1.746860 0.000000 0.000000 
#    y 0.000000 1.746860 0.000000 
#    z 0.000000 0.000000 1.688570 
# 
# From -- ./inp_files/1239.got.cif
#   From: 2010.03.12/outbox.cif.g09.slc.cpg/sg123_1_cif.got.tgz:1239.got - 2010.04.06 16:26:55.
