data_PCOD8312406
_publ_section_title
;
Structure prediction by ZEFSAII (Michael W. Deem and Ramdas Pophale) SiO2 
 PCOD8312406
Probable space group: P 4/M M M
;
_chemical_formula_sum "Si O2"
_cell_formula_units_Z 80
_cell_length_a 14.140902
_cell_length_b 14.140902
_cell_length_c 25.524723
_cell_angle_alpha 90.000000
_cell_angle_beta 90.000000
_cell_angle_gamma 90.000000
_cell_volume 5104.054026
_symmetry_space_group_name_H-M "P 4/M M M"
_symmetry_group_IT_number 123
_symmetry_cell_setting 'tetragonal'
loop_
_space_group_symop_operation_xyz
x,y,z
-y,x,z
-x,-y,z
y,-x,z
x,-y,-z
-x,y,-z
y,x,-z
-y,-x,-z
-x,-y,-z
y,-x,-z
x,y,-z
-y,x,-z
-x,y,z
x,-y,z
-y,-x,z
y,x,z
loop_
_atom_site_type_symbol
_atom_site_label
_atom_site_fract_x
_atom_site_fract_y
_atom_site_fract_z
Si Si1 0.233722 0.611842 0.248134
Si Si2 0.390440 0.892154 0.653195
Si Si3 0.237769 0.608623 0.059539
Si Si4 0.894635 0.611730 0.151923
Si Si5 0.260737 0.108469 0.558634
O O1 0.255313 0.500000 0.245314
O O2 0.333247 0.666754 0.247486
O O3 0.176141 0.640137 0.299921
O O4 0.170326 0.647244 0.199530
O O5 0.500000 0.882088 0.641045
O O6 0.339321 0.859485 0.600136
O O7 0.364987 0.000000 0.668932
O O8 0.265100 0.500000 0.070922
O O9 0.331540 0.668461 0.071329
O O10 0.152898 0.642472 0.097055
O O11 0.202586 0.622692 0.000000
O O12 0.904074 0.500000 0.155468
O O13 0.000000 0.656788 0.155220
O O14 0.300683 0.127113 0.500000
O O15 0.165507 0.165507 0.569102
O O16 0.233042 0.000000 0.566463
#
# Coordination Sequence:
#
# PCOD8312406 Si02
#       5
#    16  16  16  16  16
#     4  10  19  30  45  64  87 114 141 170 205 247
#     4   9  17  29  45  64  85 110 141 176 213 250
#     4   9  17  28  42  62  89 119 148 177 209 248
#     4   9  17  29  44  61  82 109 141 176 213 249
#     4   9  17  28  42  61  85 112 141 174 212 254
#
# _framework density 15.673814
#
# number of rings (size 3 to 8) (size 9 to 14) (size 15 to 20)
#    0.000    2.800    0.000    1.800    0.000    3.800 
#    0.000    6.000    0.000    3.600    0.000    0.000 
#    0.000   17.600    0.000   27.400    0.000    1.200 
#
# Total GULP energy -991829.062051 kJ/mol
# GULP energy per Si atom -12397.863276 kJ/mol
# Density = 1.563814 g / cm^3
# Si number density = 15.673814 Si / 1000 Ang^3
#
#
#
# Elastic Constant Matrix: (Units=GPa)
#
#
# Indices 1 2 3 4 5 6 
#
# 1 72.6115 45.2998 56.6535 0.0000 0.0000 0.0000
# 2 45.2998 72.6115 56.6535 0.0000 0.0000 0.0000
# 3 56.6535 56.6535 124.5294 0.0000 0.0000 0.0000
# 4 0.0000 0.0000 0.0000 23.8594 0.0000 0.0000
# 5 0.0000 0.0000 0.0000 0.0000 23.8594 0.0000
# 6 0.0000 0.0000 0.0000 0.0000 0.0000 19.3807
#
#
#
# Elastic Compliance Matrix: (Units=1/GPa)
#
#
# Indices 1 2 3 4 5 6 
#
# 1 0.025841 -0.010773 -0.006855 0.000000 0.000000 0.000000
# 2 -0.010773 0.025841 -0.006855 0.000000 0.000000 0.000000
# 3 -0.006855 -0.006855 0.014268 0.000000 0.000000 0.000000
# 4 0.000000 0.000000 0.000000 0.041912 0.000000 0.000000
# 5 0.000000 0.000000 0.000000 0.000000 0.041912 0.000000
# 6 0.000000 0.000000 0.000000 0.000000 0.000000 0.051598
#
#
# Mechanical properties :
#
#
# Convention : Reuss Voigt Hill
#
# Bulk Modulus (GPa) = 58.88010 65.21841 62.04926
# Shear Modulus (GPa) = 19.53116 20.82958 20.18037
#
# Velocity S-wave (km/s) = 3.53385 3.64942 3.59210
# Velocity P-wave (km/s) = 7.36873 7.71089 7.54175
#
# Compressibility (1/GPa) = 0.01698367
#
# Stress axis : x y z
#
# Youngs Moduli (GPa) = 38.69752 38.69752 70.08817
#
# Poissons Ratio (x) = 0.41688 0.48048
# Poissons Ratio (y) = 0.41688 0.48048
# Poissons Ratio (z) = 0.26528 0.26528
#
# Static dielectric constant tensor:
#      x y z
#    x 2.879040 0.000000 0.000000 
#    y 0.000000 2.879040 0.000000 
#    z 0.000000 0.000000 3.232540 
# 
# 
# High freq. dielectric constant tensor:
#      x y z
#    x 1.582750 0.000000 0.000000 
#    y 0.000000 1.582750 0.000000 
#    z 0.000000 0.000000 1.619020 
# 
# From -- ./inp_files/6250.got.cif
#   From: 2010.03.12/outbox.cif.g09.slc.cpg/sg123_4_cif.got.tgz:6250.got - 2010.04.06 16:26:55.
