data_PCOD8312750
_publ_section_title
;
Structure prediction by ZEFSAII (Michael W. Deem and Ramdas Pophale) SiO2 
 PCOD8312750
Probable space group: P 4/M M M
;
_chemical_formula_sum "Si O2"
_cell_formula_units_Z 112
_cell_length_a 13.689220
_cell_length_b 13.689220
_cell_length_c 35.490876
_cell_angle_alpha 90.000000
_cell_angle_beta 90.000000
_cell_angle_gamma 90.000000
_cell_volume 6650.803630
_symmetry_space_group_name_H-M "P 4/M M M"
_symmetry_group_IT_number 123
_symmetry_cell_setting 'tetragonal'
loop_
_space_group_symop_operation_xyz
x,y,z
-y,x,z
-x,-y,z
y,-x,z
x,-y,-z
-x,y,-z
y,x,-z
-y,-x,-z
-x,-y,-z
y,-x,-z
x,y,-z
-y,x,-z
-x,y,z
x,-y,z
-y,-x,z
y,x,z
loop_
_atom_site_type_symbol
_atom_site_label
_atom_site_fract_x
_atom_site_fract_y
_atom_site_fract_z
Si Si1 0.773865 0.385463 0.751079
Si Si2 0.769840 0.611887 0.543354
Si Si3 0.111518 0.611918 0.675957
Si Si4 0.884624 0.726486 0.813300
Si Si5 0.387376 0.230884 0.958352
Si Si6 0.389975 0.114511 0.886687
Si Si7 0.886307 0.727764 0.398532
O O1 0.753363 0.500000 0.756670
O O2 0.672001 0.328000 0.756045
O O3 0.817764 0.361996 0.710251
O O4 0.853193 0.350330 0.781446
O O5 0.801328 0.623315 0.500000
O O6 0.749666 0.500000 0.554060
O O7 0.670279 0.670279 0.552130
O O8 0.858216 0.653616 0.568130
O O9 0.124626 0.500000 0.663385
O O10 0.141688 0.679124 0.641101
O O11 0.000000 0.631893 0.688429
O O12 0.829562 0.829562 0.807836
O O13 0.852570 0.681096 0.853231
O O14 0.000000 0.745527 0.810586
O O15 0.500000 0.255797 0.953063
O O16 0.332678 0.332678 0.953390
O O17 0.350957 0.156654 0.926268
O O18 0.367227 0.185183 0.000000
O O19 0.500000 0.151156 0.877701
O O20 0.388817 0.000000 0.891305
O O21 0.829338 0.829338 0.402727
O O22 0.000000 0.751573 0.401517
#
# Coordination Sequence:
#
# PCOD8312750 Si02
#       7
#    16  16  16  16  16  16  16
#     4  10  20  33  50  72  98 128 160 193 229 271
#     4   9  18  32  50  73  99 125 154 190 234 285
#     4   9  17  30  50  74  96 120 154 195 237 281
#     4  10  20  33  50  71  94 121 153 190 233 279
#     4   9  17  28  42  61  86 116 148 182 220 262
#     4   9  17  29  46  67  89 114 146 184 225 270
#     4  10  20  33  49  69  95 127 163 202 240 278
#
# _framework density 16.840070000000001
#
# number of rings (size 3 to 8) (size 9 to 14) (size 15 to 20)
#    0.000    2.571    0.000    2.143    0.000    3.571 
#    0.000    3.571    0.000    0.000    0.000    8.000 
#    0.000    0.000    0.000   13.286    0.000    0.286 
#
# Total GULP energy -1388781.004470 kJ/mol
# GULP energy per Si atom -12399.830397 kJ/mol
# Density = 1.680174 g / cm^3
# Si number density = 16.840070 Si / 1000 Ang^3
#
#
#
# Elastic Constant Matrix: (Units=GPa)
#
#
# Indices 1 2 3 4 5 6 
#
# 1 81.6752 44.3230 52.0032 0.0000 0.0000 0.0000
# 2 44.3230 81.6752 52.0032 0.0000 0.0000 0.0000
# 3 52.0032 52.0032 106.2759 0.0000 0.0000 0.0000
# 4 0.0000 0.0000 0.0000 26.6543 0.0000 0.0000
# 5 0.0000 0.0000 0.0000 0.0000 26.6543 0.0000
# 6 0.0000 0.0000 0.0000 0.0000 0.0000 19.0035
#
#
#
# Elastic Compliance Matrix: (Units=1/GPa)
#
#
# Indices 1 2 3 4 5 6 
#
# 1 0.020043 -0.006729 -0.006515 0.000000 0.000000 0.000000
# 2 -0.006729 0.020043 -0.006515 0.000000 0.000000 0.000000
# 3 -0.006515 -0.006515 0.015786 0.000000 0.000000 0.000000
# 4 0.000000 0.000000 0.000000 0.037517 0.000000 0.000000
# 5 0.000000 0.000000 0.000000 0.000000 0.037517 0.000000
# 6 0.000000 0.000000 0.000000 0.000000 0.000000 0.052622
#
#
# Mechanical properties :
#
#
# Convention : Reuss Voigt Hill
#
# Bulk Modulus (GPa) = 61.14660 62.92057 62.03359
# Shear Modulus (GPa) = 21.88198 22.54887 22.21542
#
# Velocity S-wave (km/s) = 3.60863 3.66321 3.63602
# Velocity P-wave (km/s) = 7.33157 7.43887 7.38542
#
# Compressibility (1/GPa) = 0.01635414
#
# Stress axis : x y z
#
# Youngs Moduli (GPa) = 49.89178 49.89178 63.34926
#
# Poissons Ratio (x) = 0.33571 0.41273
# Poissons Ratio (y) = 0.33571 0.41273
# Poissons Ratio (z) = 0.32505 0.32505
#
# Static dielectric constant tensor:
#      x y z
#    x 3.043600 0.000000 0.000000 
#    y 0.000000 3.043600 0.000000 
#    z 0.000000 0.000000 3.358270 
# 
# 
# High freq. dielectric constant tensor:
#      x y z
#    x 1.641470 0.000000 0.000000 
#    y 0.000000 1.641470 0.000000 
#    z 0.000000 0.000000 1.663440 
# 
# From -- ./inp_files/8166.got.cif
#   From: 2010.03.12/outbox.cif.g09.slc.cpg/sg123_5_cif.got.tgz:8166.got - 2010.04.06 16:26:55.
