data_PCOD8312532
_publ_section_title
;
Structure prediction by ZEFSAII (Michael W. Deem and Ramdas Pophale) SiO2 
 PCOD8312532
Probable space group: P 4/M M M
;
_chemical_formula_sum "Si O2"
_cell_formula_units_Z 104
_cell_length_a 27.299506
_cell_length_b 27.299506
_cell_length_c 9.251474
_cell_angle_alpha 90.000000
_cell_angle_beta 90.000000
_cell_angle_gamma 90.000000
_cell_volume 6894.781525
_symmetry_space_group_name_H-M "P 4/M M M"
_symmetry_group_IT_number 123
_symmetry_cell_setting 'tetragonal'
loop_
_space_group_symop_operation_xyz
x,y,z
-y,x,z
-x,-y,z
y,-x,z
x,-y,-z
-x,y,-z
y,x,-z
-y,-x,-z
-x,-y,-z
y,-x,-z
x,y,-z
-y,x,-z
-x,y,z
x,-y,z
-y,-x,z
y,x,z
loop_
_atom_site_type_symbol
_atom_site_label
_atom_site_fract_x
_atom_site_fract_y
_atom_site_fract_z
Si Si1 0.443684 0.000000 0.330650
Si Si2 0.106765 0.442640 0.329877
Si Si3 0.639793 0.849007 0.168449
Si Si4 0.131998 0.944771 0.165115
Si Si5 0.219152 0.097384 0.331024
Si Si6 0.303161 0.946248 0.835364
Si Si7 0.803962 0.725504 0.667939
O O1 0.423597 0.947390 0.273102
O O2 0.500000 0.000000 0.290249
O O3 0.435770 0.000000 0.500000
O O4 0.112137 0.432425 0.500000
O O5 0.113796 0.500000 0.296541
O O6 0.149697 0.413371 0.245258
O O7 0.659539 0.903270 0.201617
O O8 0.675742 0.808408 0.238508
O O9 0.634125 0.836914 0.000000
O O10 0.077435 0.922566 0.176675
O O11 0.166801 0.910304 0.259475
O O12 0.130921 0.000000 0.225847
O O13 0.150542 0.943980 0.000000
O O14 0.214218 0.089031 0.500000
O O15 0.256260 0.057248 0.267640
O O16 0.237797 0.151887 0.293490
O O17 0.327630 0.000000 0.809408
O O18 0.284940 0.941072 0.000000
O O19 0.805915 0.710825 0.500000
O O20 0.753035 0.753035 0.705703
#
# Coordination Sequence:
#
# PCOD8312532 Si02
#       7
#     8  16  16  16  16  16  16
#     4   7  12  24  41  59  77 103 141 179 211 241
#     4   9  17  30  46  62  83 113 148 183 215 250
#     4  10  20  30  43  64  87 111 139 173 213 253
#     4  10  21  35  49  63  78  97 119 143 175 219
#     4  10  19  31  48  69  86  99 121 153 190 231
#     4   9  18  31  43  57  83 114 137 160 193 236
#     4   9  18  33  50  65  84 109 135 165 201 245
#
# _framework density 15.083872
#
# number of rings (size 3 to 8) (size 9 to 14) (size 15 to 20)
#    0.000    2.692    0.000    2.769    1.077    5.385 
#    0.000    0.769    0.000    1.385    0.000    1.077 
#    0.000    0.000    0.000    0.000    0.000    0.000 
#
# Total GULP energy -1288880.312054 kJ/mol
# GULP energy per Si atom -12393.079924 kJ/mol
# Density = 1.504954 g / cm^3
# Si number density = 15.083872 Si / 1000 Ang^3
#
#
#
# Elastic Constant Matrix: (Units=GPa)
#
#
# Indices 1 2 3 4 5 6 
#
# 1 59.3562 27.2066 31.8894 0.0000 0.0000 0.0000
# 2 27.2066 59.3562 31.8894 0.0000 0.0000 0.0000
# 3 31.8894 31.8894 60.5763 0.0000 0.0000 0.0000
# 4 0.0000 0.0000 0.0000 17.9257 0.0000 0.0000
# 5 0.0000 0.0000 0.0000 0.0000 17.9257 0.0000
# 6 0.0000 0.0000 0.0000 0.0000 0.0000 18.8398
#
#
#
# Elastic Compliance Matrix: (Units=1/GPa)
#
#
# Indices 1 2 3 4 5 6 
#
# 1 0.024988 -0.006116 -0.009935 0.000000 0.000000 0.000000
# 2 -0.006116 0.024988 -0.009935 0.000000 0.000000 0.000000
# 3 -0.009935 -0.009935 0.026968 0.000000 0.000000 0.000000
# 4 0.000000 0.000000 0.000000 0.055786 0.000000 0.000000
# 5 0.000000 0.000000 0.000000 0.000000 0.055786 0.000000
# 6 0.000000 0.000000 0.000000 0.000000 0.000000 0.053079
#
#
# Mechanical properties :
#
#
# Convention : Reuss Voigt Hill
#
# Bulk Modulus (GPa) = 40.04335 40.13995 40.09165
# Shear Modulus (GPa) = 16.56216 16.82512 16.69364
#
# Velocity S-wave (km/s) = 3.31721 3.34344 3.33035
# Velocity P-wave (km/s) = 6.42469 6.44777 6.43624
#
# Compressibility (1/GPa) = 0.02497294
#
# Stress axis : x y z
#
# Youngs Moduli (GPa) = 40.01845 40.01845 37.08042
#
# Poissons Ratio (x) = 0.24476 0.36840
# Poissons Ratio (y) = 0.24476 0.36840
# Poissons Ratio (z) = 0.39759 0.39759
#
# Static dielectric constant tensor:
#      x y z
#    x 2.705730 0.000000 0.000000 
#    y 0.000000 2.705730 0.000000 
#    z 0.000000 0.000000 2.865000 
# 
# 
# High freq. dielectric constant tensor:
#      x y z
#    x 1.546420 0.000000 0.000000 
#    y 0.000000 1.546420 0.000000 
#    z 0.000000 0.000000 1.578740 
# 
# From -- ./inp_files/1900.got.cif
#   From: 2010.03.12/outbox.cif.g09.slc.cpg/sg123_1_cif.got.tgz:1900.got - 2010.04.06 16:26:55.
