data_PCOD8312989
_publ_section_title
;
Structure prediction by ZEFSAII (Michael W. Deem and Ramdas Pophale) SiO2 
 PCOD8312989
Probable space group: P 4/M M M
;
_chemical_formula_sum "Si O2"
_cell_formula_units_Z 120
_cell_length_a 18.972864
_cell_length_b 18.972864
_cell_length_c 26.854991
_cell_angle_alpha 90.000000
_cell_angle_beta 90.000000
_cell_angle_gamma 90.000000
_cell_volume 9666.979519
_symmetry_space_group_name_H-M "P 4/M M M"
_symmetry_group_IT_number 123
_symmetry_cell_setting 'tetragonal'
loop_
_space_group_symop_operation_xyz
x,y,z
-y,x,z
-x,-y,z
y,-x,z
x,-y,-z
-x,y,-z
y,x,-z
-y,-x,-z
-x,-y,-z
y,-x,-z
x,y,-z
-y,x,-z
-x,y,z
x,-y,z
-y,-x,z
y,x,z
loop_
_atom_site_type_symbol
_atom_site_label
_atom_site_fract_x
_atom_site_fract_y
_atom_site_fract_z
Si Si1 0.578739 0.084263 0.200649
Si Si2 0.081561 0.803732 0.056268
Si Si3 0.917243 0.286115 0.853330
Si Si4 0.809297 0.079036 0.558349
Si Si5 0.084099 0.420828 0.500000
Si Si6 0.339874 0.916625 0.295697
Si Si7 0.198501 0.082776 0.242715
Si Si8 0.916067 0.338571 0.594913
O O1 0.500000 0.113828 0.189479
O O2 0.635630 0.113187 0.159876
O O3 0.604840 0.112267 0.254777
O O4 0.577476 0.000000 0.200580
O O5 0.124714 0.875287 0.065322
O O6 0.109740 0.742175 0.093153
O O7 0.000000 0.822019 0.067373
O O8 0.091757 0.775780 0.000000
O O9 0.897555 0.228641 0.811697
O O10 0.000000 0.295614 0.854627
O O11 0.793313 0.083491 0.500000
O O12 0.875683 0.124318 0.574955
O O13 0.741382 0.108420 0.586652
O O14 0.827217 0.000000 0.574799
O O15 0.111082 0.500000 0.500000
O O16 0.115398 0.386003 0.449639
O O17 0.000000 0.414933 0.500000
O O18 0.259222 0.896536 0.282384
O O19 0.361355 0.887404 0.350506
O O20 0.345099 0.000000 0.295780
O O21 0.128827 0.128827 0.253407
O O22 0.178472 0.000000 0.246246
O O23 0.000000 0.343320 0.592843
#
# Coordination Sequence:
#
# PCOD8312989 Si02
#       8
#    16  16  16  16   8  16  16  16
#     4   8  13  22  36  51  63  76  97 124 158 203
#     4   9  16  24  34  48  66  90 119 148 177 207
#     4   8  14  24  35  47  64  84 104 132 170 207
#     4   9  16  25  36  47  59  79 107 138 170 200
#     4   9  16  24  35  50  63  75  90 109 143 196
#     4   8  15  24  34  47  62  79  98 124 159 197
#     4   9  16  25  35  47  63  84 111 140 171 204
#     4   9  15  25  36  46  63  81  96 120 157 199
#
# _framework density 12.413391000000001
#
# number of rings (size 3 to 8) (size 9 to 14) (size 15 to 20)
#    0.000    3.400    0.667    2.000    0.000    1.467 
#    0.000    4.000    0.000    2.800    0.000    6.533 
#    0.000    0.000    0.000    0.000    0.000    0.000 
#
# Total GULP energy -1486656.499555 kJ/mol
# GULP energy per Si atom -12388.804163 kJ/mol
# Density = 1.238514 g / cm^3
# Si number density = 12.413391 Si / 1000 Ang^3
#
#
#
# Elastic Constant Matrix: (Units=GPa)
#
#
# Indices 1 2 3 4 5 6 
#
# 1 50.7353 23.7797 33.4819 0.0000 0.0000 0.0000
# 2 23.7797 50.7353 33.4819 0.0000 0.0000 0.0000
# 3 33.4819 33.4819 92.6690 0.0000 0.0000 0.0000
# 4 0.0000 0.0000 0.0000 9.5699 0.0000 0.0000
# 5 0.0000 0.0000 0.0000 0.0000 9.5699 0.0000
# 6 0.0000 0.0000 0.0000 0.0000 0.0000 0.5784
#
#
#
# Elastic Compliance Matrix: (Units=1/GPa)
#
#
# Indices 1 2 3 4 5 6 
#
# 1 0.028485 -0.008613 -0.007180 0.000000 0.000000 0.000000
# 2 -0.008613 0.028485 -0.007180 0.000000 0.000000 0.000000
# 3 -0.007180 -0.007180 0.015980 0.000000 0.000000 0.000000
# 4 0.000000 0.000000 0.000000 0.104494 0.000000 0.000000
# 5 0.000000 0.000000 0.000000 0.000000 0.104494 0.000000
# 6 0.000000 0.000000 0.000000 0.000000 0.000000 1.728884
#
#
# Mechanical properties :
#
#
# Convention : Reuss Voigt Hill
#
# Bulk Modulus (GPa) = 37.03112 41.73631 39.38371
# Shear Modulus (GPa) = 2.42040 10.83671 6.62856
#
# Velocity S-wave (km/s) = 1.39788 2.95784 2.31332
# Velocity P-wave (km/s) = 5.70103 6.73499 6.23946
#
# Compressibility (1/GPa) = 0.02700432
#
# Stress axis : x y z
#
# Youngs Moduli (GPa) = 35.10577 35.10577 62.58001
#
# Poissons Ratio (x) = 0.30236 0.44933
# Poissons Ratio (y) = 0.30236 0.44933
# Poissons Ratio (z) = 0.25206 0.25206
#
# Static dielectric constant tensor:
#      x y z
#    x 2.370700 0.000000 0.000000 
#    y 0.000000 2.370700 0.000000 
#    z 0.000000 0.000000 2.944200 
# 
# 
# High freq. dielectric constant tensor:
#      x y z
#    x 1.430430 0.000000 0.000000 
#    y 0.000000 1.430430 0.000000 
#    z 0.000000 0.000000 1.481100 
# 
# From -- ./inp_files/8254.got.cif
#   From: 2010.03.12/outbox.cif.g09.slc.cpg/sg123_5_cif.got.tgz:8254.got - 2010.04.06 16:26:55.
