data_PCOD8312358
_publ_section_title
;
Structure prediction by ZEFSAII (Michael W. Deem and Ramdas Pophale) SiO2 
 PCOD8312358
Probable space group: P 4/M M M
;
_chemical_formula_sum "Si O2"
_cell_formula_units_Z 128
_cell_length_a 20.550834
_cell_length_b 20.550834
_cell_length_c 19.558077
_cell_angle_alpha 90.000000
_cell_angle_beta 90.000000
_cell_angle_gamma 90.000000
_cell_volume 8260.095226
_symmetry_space_group_name_H-M "P 4/M M M"
_symmetry_group_IT_number 123
_symmetry_cell_setting 'tetragonal'
loop_
_space_group_symop_operation_xyz
x,y,z
-y,x,z
-x,-y,z
y,-x,z
x,-y,-z
-x,y,-z
y,x,-z
-y,-x,-z
-x,-y,-z
y,-x,-z
x,y,-z
-y,x,-z
-x,y,z
x,-y,z
-y,-x,z
y,x,z
loop_
_atom_site_type_symbol
_atom_site_label
_atom_site_fract_x
_atom_site_fract_y
_atom_site_fract_z
Si Si1 0.076066 0.428613 0.322118
Si Si2 0.117328 0.683875 0.421811
Si Si3 0.255820 0.362584 0.425854
Si Si4 0.575479 0.317476 0.153966
Si Si5 0.073100 0.176475 0.418719
Si Si6 0.321354 0.572911 0.690262
Si Si7 0.422594 0.811754 0.077215
Si Si8 0.927058 0.422683 0.828704
O O1 0.107243 0.500000 0.339095
O O2 0.091774 0.377630 0.380622
O O3 0.098582 0.403455 0.247209
O O4 0.000000 0.438206 0.317120
O O5 0.093695 0.675683 0.500000
O O6 0.194950 0.685062 0.415327
O O7 0.090862 0.751658 0.390815
O O8 0.249468 0.398726 0.500000
O O9 0.319500 0.319500 0.426538
O O10 0.262166 0.412713 0.362687
O O11 0.500000 0.335018 0.137825
O O12 0.619289 0.380711 0.136580
O O13 0.583882 0.296007 0.232862
O O14 0.600747 0.256336 0.110034
O O15 0.079088 0.177192 0.500000
O O16 0.122496 0.122496 0.388156
O O17 0.000000 0.158397 0.395380
O O18 0.345527 0.500000 0.679260
O O19 0.383386 0.616615 0.674039
O O20 0.500000 0.813924 0.079568
O O21 0.394033 0.874335 0.117745
O O22 0.396136 0.815285 0.000000
O O23 0.929950 0.500000 0.834317
O O24 0.000000 0.394678 0.844026
#
# Coordination Sequence:
#
# PCOD8312358 Si02
#       8
#    16  16  16  16  16  16  16  16
#     4   9  18  30  42  58  82 113 146 178 212 249
#     4  10  19  29  43  62  84 114 149 181 216 259
#     4   9  18  31  44  59  81 107 137 176 219 264
#     4   9  18  31  46  65  88 115 147 181 219 263
#     4   9  17  29  45  64  85 109 139 177 221 267
#     4   9  18  31  46  63  82 108 142 182 229 275
#     4   9  17  28  44  66  87 108 136 172 213 255
#     4   8  15  28  44  62  85 113 141 169 209 259
#
# _framework density 15.49619
#
# number of rings (size 3 to 8) (size 9 to 14) (size 15 to 20)
#    0.000    3.000    0.000    1.500    1.750    4.125 
#    0.000    5.000    0.000    0.000    0.000    3.500 
#    0.000    0.000    0.000    0.000    0.000    0.000 
#
# Total GULP energy -1586241.178379 kJ/mol
# GULP energy per Si atom -12392.509206 kJ/mol
# Density = 1.546092 g / cm^3
# Si number density = 15.496190 Si / 1000 Ang^3
#
#
#
# Elastic Constant Matrix: (Units=GPa)
#
#
# Indices 1 2 3 4 5 6 
#
# 1 77.3060 36.5983 43.6302 0.0000 0.0000 0.0000
# 2 36.5983 77.3060 43.6302 0.0000 0.0000 0.0000
# 3 43.6302 43.6302 85.9311 0.0000 0.0000 0.0000
# 4 0.0000 0.0000 0.0000 14.6175 0.0000 0.0000
# 5 0.0000 0.0000 0.0000 0.0000 14.6175 0.0000
# 6 0.0000 0.0000 0.0000 0.0000 0.0000 17.1622
#
#
#
# Elastic Compliance Matrix: (Units=1/GPa)
#
#
# Indices 1 2 3 4 5 6 
#
# 1 0.019467 -0.005099 -0.007295 0.000000 0.000000 0.000000
# 2 -0.005099 0.019467 -0.007295 0.000000 0.000000 0.000000
# 3 -0.007295 -0.007295 0.019045 0.000000 0.000000 0.000000
# 4 0.000000 0.000000 0.000000 0.068411 0.000000 0.000000
# 5 0.000000 0.000000 0.000000 0.000000 0.068411 0.000000
# 6 0.000000 0.000000 0.000000 0.000000 0.000000 0.058268
#
#
# Mechanical properties :
#
#
# Convention : Reuss Voigt Hill
#
# Bulk Modulus (GPa) = 53.76147 54.25115 54.00631
# Shear Modulus (GPa) = 16.74217 17.05838 16.90028
#
# Velocity S-wave (km/s) = 3.29052 3.32145 3.30602
# Velocity P-wave (km/s) = 7.01465 7.05654 7.03563
#
# Compressibility (1/GPa) = 0.01860068
#
# Stress axis : x y z
#
# Youngs Moduli (GPa) = 51.36980 51.36980 52.50669
#
# Poissons Ratio (x) = 0.26192 0.38304
# Poissons Ratio (y) = 0.26192 0.38304
# Poissons Ratio (z) = 0.37475 0.37475
#
# Static dielectric constant tensor:
#      x y z
#    x 2.891410 0.000000 0.000000 
#    y 0.000000 2.891410 0.000000 
#    z 0.000000 0.000000 3.157310 
# 
# 
# High freq. dielectric constant tensor:
#      x y z
#    x 1.578280 0.000000 0.000000 
#    y 0.000000 1.578280 0.000000 
#    z 0.000000 0.000000 1.578510 
# 
# From -- ./inp_files/6002.got.cif
#   From: 2010.03.12/outbox.cif.g09.slc.cpg/sg123_4_cif.got.tgz:6002.got - 2010.04.06 16:26:55.
