data_PCOD8312042
_publ_section_title
;
Structure prediction by ZEFSAII (Michael W. Deem and Ramdas Pophale) SiO2 
 PCOD8312042
Probable space group: I -4 2 D
;
_chemical_formula_sum "Si O2"
_cell_formula_units_Z 48
_cell_length_a 9.015041
_cell_length_b 9.015041
_cell_length_c 26.474864
_cell_angle_alpha 90.000000
_cell_angle_beta 90.000000
_cell_angle_gamma 90.000000
_cell_volume 2151.637725
_symmetry_space_group_name_H-M "I -4 2 D"
_symmetry_group_IT_number 122
_symmetry_cell_setting 'tetragonal'
loop_
_space_group_symop_operation_xyz
x,y,z
y,-x,-z
-x,-y,z
-y,x,-z
x,1/2-y,1/4-z
-x,1/2+y,1/4-z
-y,1/2-x,1/4+z
y,1/2+x,1/4+z
1/2+x,1/2+y,1/2+z
1/2+y,1/2-x,1/2-z
1/2-x,1/2-y,1/2+z
1/2-y,1/2+x,1/2-z
1/2+x,-y,3/4-z
1/2-x,y,3/4-z
1/2-y,-x,3/4+z
1/2+y,x,3/4+z
loop_
_atom_site_type_symbol
_atom_site_label
_atom_site_fract_x
_atom_site_fract_y
_atom_site_fract_z
Si Si1 0.343798 0.574833 0.127409
Si Si2 0.432028 0.217307 0.767813
Si Si3 0.554419 0.288768 0.979063
O O1 0.500000 0.500000 0.137726
O O2 0.365263 0.750000 0.125000
O O3 0.233895 0.532481 0.172996
O O4 0.269764 0.513554 0.076375
O O5 0.582951 0.184353 0.738025
O O6 0.363873 0.368886 0.745570
O O7 0.424850 0.327125 0.019675
#
# Coordination Sequence:
#
# PCOD8312042 Si02
#       3
#    16  16  16
#     4  12  25  43  78 111 138 191 249 295 360 432
#     4  11  28  49  66 107 153 190 236 297 368 433
#     4  11  22  46  76 109 137 182 250 299 351 425
#
# _framework density 22.308585999999998
#
# number of rings (size 3 to 8) (size 9 to 14) (size 15 to 20)
#    0.000    0.667    6.667    0.000    9.333    0.000 
#   12.000    0.000    0.000    0.000    0.000    0.000 
#    0.000    0.000    0.000    0.000    0.000    0.000 
#
# Total GULP energy -297730.311219 kJ/mol
# GULP energy per Si atom -12405.429634 kJ/mol
# Density = 2.225781 g / cm^3
# Si number density = 22.308586 Si / 1000 Ang^3
#
#
#
# Elastic Constant Matrix: (Units=GPa)
#
#
# Indices 1 2 3 4 5 6 
#
# 1 67.9420 23.6152 66.8525 0.0000 0.0000 0.0000
# 2 23.6152 67.9420 66.8525 0.0000 0.0000 0.0000
# 3 66.8525 66.8525 195.6110 0.0000 0.0000 0.0000
# 4 0.0000 0.0000 0.0000 25.0003 0.0000 0.0000
# 5 0.0000 0.0000 0.0000 0.0000 25.0003 0.0000
# 6 0.0000 0.0000 0.0000 0.0000 0.0000 54.4617
#
#
#
# Elastic Compliance Matrix: (Units=1/GPa)
#
#
# Indices 1 2 3 4 5 6 
#
# 1 0.022182 -0.000378 -0.007452 0.000000 0.000000 0.000000
# 2 -0.000378 0.022182 -0.007452 0.000000 0.000000 0.000000
# 3 -0.007452 -0.007452 0.010206 0.000000 0.000000 0.000000
# 4 0.000000 0.000000 0.000000 0.040000 0.000000 0.000000
# 5 0.000000 0.000000 0.000000 0.000000 0.040000 0.000000
# 6 0.000000 0.000000 0.000000 0.000000 0.000000 0.018362
#
#
# Mechanical properties :
#
#
# Convention : Reuss Voigt Hill
#
# Bulk Modulus (GPa) = 41.65448 71.79281 56.72364
# Shear Modulus (GPa) = 26.11019 32.50411 29.30715
#
# Velocity S-wave (km/s) = 3.42484 3.82124 3.62845
# Velocity P-wave (km/s) = 5.86104 7.19171 6.56020
#
# Compressibility (1/GPa) = 0.02400702
#
# Stress axis : x y z
#
# Youngs Moduli (GPa) = 45.08132 45.08133 97.98353
#
# Poissons Ratio (x) = 0.01702 0.73017
# Poissons Ratio (y) = 0.01702 0.73017
# Poissons Ratio (z) = 0.33595 0.33595
#
# Static dielectric constant tensor:
#      x y z
#    x 4.065830 0.000000 0.000000 
#    y 0.000000 4.065830 0.000000 
#    z 0.000000 0.000000 4.272120 
# 
# 
# High freq. dielectric constant tensor:
#      x y z
#    x 1.879420 0.000000 0.000000 
#    y 0.000000 1.879420 0.000000 
#    z 0.000000 0.000000 1.884250 
# 
# From -- ./inp_files/9026.got.cif
#   From: 2010.03.12/outbox.cif.g09.slc.cpg/sg122_5_cif.got.tgz:9026.got - 2010.04.06 16:17:16.
