data_PCOD8312486
_publ_section_title
;
Structure prediction by ZEFSAII (Michael W. Deem and Ramdas Pophale) SiO2 
 PCOD8312486
Probable space group: P 4/M M M
;
_chemical_formula_sum "Si O2"
_cell_formula_units_Z 104
_cell_length_a 18.266382
_cell_length_b 18.266382
_cell_length_c 18.259822
_cell_angle_alpha 90.000000
_cell_angle_beta 90.000000
_cell_angle_gamma 90.000000
_cell_volume 6092.585198
_symmetry_space_group_name_H-M "P 4/M M M"
_symmetry_group_IT_number 123
_symmetry_cell_setting 'tetragonal'
loop_
_space_group_symop_operation_xyz
x,y,z
-y,x,z
-x,-y,z
y,-x,z
x,-y,-z
-x,y,-z
y,x,-z
-y,-x,-z
-x,-y,-z
y,-x,-z
x,y,-z
-y,x,-z
-x,y,z
x,-y,z
-y,-x,z
y,x,z
loop_
_atom_site_type_symbol
_atom_site_label
_atom_site_fract_x
_atom_site_fract_y
_atom_site_fract_z
Si Si1 0.699808 0.582502 0.149113
Si Si2 0.080537 0.414183 0.500000
Si Si3 0.084242 0.417092 0.226541
Si Si4 0.084411 0.200947 0.585227
Si Si5 0.844557 0.655084 0.362346
Si Si6 0.150913 0.413279 0.920069
Si Si7 0.299477 0.415379 0.319317
O O1 0.679060 0.500000 0.128189
O O2 0.630078 0.630078 0.128372
O O3 0.767588 0.611585 0.101571
O O4 0.721827 0.588224 0.234108
O O5 0.073461 0.500000 0.500000
O O6 0.120649 0.391687 0.426613
O O7 0.000000 0.377490 0.500000
O O8 0.115740 0.500000 0.232593
O O9 0.125195 0.366458 0.283480
O O10 0.095785 0.386548 0.143777
O O11 0.000000 0.415701 0.246819
O O12 0.085774 0.222317 0.500000
O O13 0.121060 0.121060 0.597951
O O14 0.135402 0.259744 0.626985
O O15 0.000000 0.199498 0.613786
O O16 0.758422 0.635239 0.363452
O O17 0.146744 0.500000 0.925327
O O18 0.130149 0.379590 0.000000
O O19 0.300120 0.500000 0.346860
O O20 0.379880 0.379880 0.332159
#
# Coordination Sequence:
#
# PCOD8312486 Si02
#       7
#    16   8  16  16  16  16  16
#     4   9  17  30  47  68  94 125 163 208 257 308
#     4  11  22  32  47  74 106 140 171 203 248 302
#     4  10  19  30  47  70  97 132 169 205 249 302
#     4  10  21  37  56  79 107 138 172 209 250 299
#     4  12  20  34  53  75 105 135 167 211 257 303
#     4   9  17  30  46  64  90 123 160 205 253 299
#     4  10  20  34  53  75 101 135 175 219 264 311
#
# _framework density 17.069929999999999
#
# number of rings (size 3 to 8) (size 9 to 14) (size 15 to 20)
#    0.000    1.923    2.308    3.231    0.000    2.308 
#    0.000    3.846    0.000    0.000    0.000    2.154 
#    0.000    1.846    0.000    0.000    0.000    0.154 
#
# Total GULP energy -1289166.199222 kJ/mol
# GULP energy per Si atom -12395.828839 kJ/mol
# Density = 1.703108 g / cm^3
# Si number density = 17.069930 Si / 1000 Ang^3
#
#
#
# Elastic Constant Matrix: (Units=GPa)
#
#
# Indices 1 2 3 4 5 6 
#
# 1 75.3241 36.7718 23.6661 0.0000 0.0000 0.0000
# 2 36.7718 75.3241 23.6661 0.0000 0.0000 0.0000
# 3 23.6661 23.6661 66.3780 0.0000 0.0000 0.0000
# 4 0.0000 0.0000 0.0000 29.2552 0.0000 0.0000
# 5 0.0000 0.0000 0.0000 0.0000 29.2552 0.0000
# 6 0.0000 0.0000 0.0000 0.0000 0.0000 24.2919
#
#
#
# Elastic Compliance Matrix: (Units=1/GPa)
#
#
# Indices 1 2 3 4 5 6 
#
# 1 0.018220 -0.007718 -0.003744 0.000000 0.000000 0.000000
# 2 -0.007718 0.018220 -0.003744 0.000000 0.000000 0.000000
# 3 -0.003744 -0.003744 0.017735 0.000000 0.000000 0.000000
# 4 0.000000 0.000000 0.000000 0.034182 0.000000 0.000000
# 5 0.000000 0.000000 0.000000 0.000000 0.034182 0.000000
# 6 0.000000 0.000000 0.000000 0.000000 0.000000 0.041166
#
#
# Mechanical properties :
#
#
# Convention : Reuss Voigt Hill
#
# Bulk Modulus (GPa) = 42.08429 42.80380 42.44405
# Shear Modulus (GPa) = 24.74752 25.42195 25.08473
#
# Velocity S-wave (km/s) = 3.81172 3.86331 3.83760
# Velocity P-wave (km/s) = 6.63926 6.71045 6.67495
#
# Compressibility (1/GPa) = 0.02376184
#
# Stress axis : x y z
#
# Youngs Moduli (GPa) = 54.88368 54.88368 56.38508
#
# Poissons Ratio (x) = 0.42361 0.21112
# Poissons Ratio (y) = 0.42361 0.21112
# Poissons Ratio (z) = 0.20550 0.20550
#
# Static dielectric constant tensor:
#      x y z
#    x 3.146670 0.000000 0.000000 
#    y 0.000000 3.146670 0.000000 
#    z 0.000000 0.000000 3.216520 
# 
# 
# High freq. dielectric constant tensor:
#      x y z
#    x 1.645920 0.000000 0.000000 
#    y 0.000000 1.645920 0.000000 
#    z 0.000000 0.000000 1.649490 
# 
# From -- ./inp_files/5601.got.cif
#   From: 2010.03.12/outbox.cif.g09.slc.cpg/sg123_3_cif.got.tgz:5601.got - 2010.04.06 16:26:55.
