data_PCOD8312799
_publ_section_title
;
Structure prediction by ZEFSAII (Michael W. Deem and Ramdas Pophale) SiO2 
 PCOD8312799
Probable space group: P 4/M M M
;
_chemical_formula_sum "Si O2"
_cell_formula_units_Z 120
_cell_length_a 27.032269
_cell_length_b 27.032269
_cell_length_c 9.347493
_cell_angle_alpha 90.000000
_cell_angle_beta 90.000000
_cell_angle_gamma 90.000000
_cell_volume 6830.620380
_symmetry_space_group_name_H-M "P 4/M M M"
_symmetry_group_IT_number 123
_symmetry_cell_setting 'tetragonal'
loop_
_space_group_symop_operation_xyz
x,y,z
-y,x,z
-x,-y,z
y,-x,z
x,-y,-z
-x,y,-z
y,x,-z
-y,-x,-z
-x,-y,-z
y,-x,-z
x,y,-z
-y,x,-z
-x,y,z
x,-y,z
-y,-x,z
y,x,z
loop_
_atom_site_type_symbol
_atom_site_label
_atom_site_fract_x
_atom_site_fract_y
_atom_site_fract_z
Si Si1 0.941411 0.500000 0.836149
Si Si2 0.444405 0.364829 0.837859
Si Si3 0.686024 0.766424 0.168778
Si Si4 0.401831 0.942589 0.332942
Si Si5 0.685187 0.865853 0.337393
Si Si6 0.700120 0.382692 0.341256
Si Si7 0.200428 0.878084 0.340218
Si Si8 0.054762 0.132765 0.168301
O O1 0.923355 0.449904 0.755512
O O2 0.000000 0.500000 0.833802
O O3 0.921465 0.500000 0.000000
O O4 0.500000 0.381823 0.814285
O O5 0.412181 0.412181 0.797787
O O6 0.432635 0.319292 0.732738
O O7 0.434157 0.347233 0.000000
O O8 0.736270 0.736270 0.210931
O O9 0.684934 0.821851 0.224365
O O10 0.638355 0.742851 0.242084
O O11 0.678748 0.765855 0.000000
O O12 0.414845 0.937551 0.500000
O O13 0.353963 0.908813 0.293616
O O14 0.389371 0.000000 0.295410
O O15 0.674101 0.847633 0.500000
O O16 0.741102 0.884180 0.326765
O O17 0.720516 0.394458 0.500000
O O18 0.655821 0.344180 0.349275
O O19 0.184086 0.892424 0.500000
O O20 0.176815 0.823185 0.304662
O O21 0.180179 0.918303 0.231511
O O22 0.082883 0.082883 0.213476
O O23 0.000000 0.128841 0.231966
O O24 0.054111 0.139978 0.000000
#
# Coordination Sequence:
#
# PCOD8312799 Si02
#       8
#     8  16  16  16  16  16  16  16
#     4   9  17  31  53  77  99 127 163 199 237 285
#     4   9  17  29  46  69  98 132 169 209 252 298
#     4  10  20  33  51  75 102 132 165 203 249 298
#     4   9  18  33  53  77 104 134 167 202 242 289
#     4  10  20  33  52  78 105 132 165 205 245 290
#     4   9  17  30  49  70  92 122 161 203 245 292
#     4   9  18  32  49  70  99 135 170 204 248 303
#     4   9  18  32  49  69  94 127 169 216 264 311
#
# _framework density 17.56795
#
# number of rings (size 3 to 8) (size 9 to 14) (size 15 to 20)
#    0.000    2.733    0.000    1.400    0.000    6.133 
#    0.000    4.000    1.467    1.600    0.000    3.733 
#    0.000    0.000    0.000    0.000    0.000    0.000 
#
# Total GULP energy -1487168.298769 kJ/mol
# GULP energy per Si atom -12393.069156 kJ/mol
# Density = 1.752796 g / cm^3
# Si number density = 17.567950 Si / 1000 Ang^3
#
#
#
# Elastic Constant Matrix: (Units=GPa)
#
#
# Indices 1 2 3 4 5 6 
#
# 1 87.5839 61.7692 47.1157 0.0000 0.0000 0.0000
# 2 61.7692 87.5839 47.1157 0.0000 0.0000 0.0000
# 3 47.1157 47.1157 79.7592 0.0000 0.0000 0.0000
# 4 0.0000 0.0000 0.0000 24.6868 0.0000 0.0000
# 5 0.0000 0.0000 0.0000 0.0000 24.6868 0.0000
# 6 0.0000 0.0000 0.0000 0.0000 0.0000 21.8256
#
#
#
# Elastic Compliance Matrix: (Units=1/GPa)
#
#
# Indices 1 2 3 4 5 6 
#
# 1 0.024706 -0.014032 -0.006305 0.000000 0.000000 0.000000
# 2 -0.014032 0.024706 -0.006305 0.000000 0.000000 0.000000
# 3 -0.006305 -0.006305 0.019987 0.000000 0.000000 0.000000
# 4 0.000000 0.000000 0.000000 0.040508 0.000000 0.000000
# 5 0.000000 0.000000 0.000000 0.000000 0.040508 0.000000
# 6 0.000000 0.000000 0.000000 0.000000 0.000000 0.045818
#
#
# Mechanical properties :
#
#
# Convention : Reuss Voigt Hill
#
# Bulk Modulus (GPa) = 62.05953 62.99204 62.52579
# Shear Modulus (GPa) = 19.61653 20.83492 20.22573
#
# Velocity S-wave (km/s) = 3.34520 3.44752 3.39674
# Velocity P-wave (km/s) = 7.09384 7.19592 7.14506
#
# Compressibility (1/GPa) = 0.01611356
#
# Stress axis : x y z
#
# Youngs Moduli (GPa) = 40.47659 40.47659 50.03248
#
# Poissons Ratio (x) = 0.56797 0.31547
# Poissons Ratio (y) = 0.56797 0.31547
# Poissons Ratio (z) = 0.25521 0.25521
#
# Static dielectric constant tensor:
#      x y z
#    x 3.245140 0.000000 0.000000 
#    y 0.000000 3.245140 0.000000 
#    z 0.000000 0.000000 3.436280 
# 
# 
# High freq. dielectric constant tensor:
#      x y z
#    x 1.666010 0.000000 0.000000 
#    y 0.000000 1.666010 0.000000 
#    z 0.000000 0.000000 1.683860 
# 
# From -- ./inp_files/2007.got.cif
#   From: 2010.03.12/outbox.cif.g09.slc.cpg/sg123_2_cif.got.tgz:2007.got - 2010.04.06 16:26:55.
