data_PCOD8312298
_publ_section_title
;
Structure prediction by ZEFSAII (Michael W. Deem and Ramdas Pophale) SiO2 
 PCOD8312298
Probable space group: P 4/M M M
;
_chemical_formula_sum "Si O2"
_cell_formula_units_Z 88
_cell_length_a 14.216753
_cell_length_b 14.216753
_cell_length_c 28.202779
_cell_angle_alpha 90.000000
_cell_angle_beta 90.000000
_cell_angle_gamma 90.000000
_cell_volume 5700.234738
_symmetry_space_group_name_H-M "P 4/M M M"
_symmetry_group_IT_number 123
_symmetry_cell_setting 'tetragonal'
loop_
_space_group_symop_operation_xyz
x,y,z
-y,x,z
-x,-y,z
y,-x,z
x,-y,-z
-x,y,-z
y,x,-z
-y,-x,-z
-x,-y,-z
y,-x,-z
x,y,-z
-y,x,-z
-x,y,z
x,-y,z
-y,-x,z
y,x,z
loop_
_atom_site_type_symbol
_atom_site_label
_atom_site_fract_x
_atom_site_fract_y
_atom_site_fract_z
Si Si1 0.107498 0.391323 0.137798
Si Si2 0.111785 0.736617 0.500000
Si Si3 0.892155 0.740618 0.946805
Si Si4 0.395576 0.888524 0.584582
Si Si5 0.104563 0.611499 0.310479
Si Si6 0.611193 0.236026 0.773917
O O1 0.119343 0.500000 0.126081
O O2 0.139429 0.338691 0.090191
O O3 0.174344 0.360872 0.180638
O O4 0.000000 0.367755 0.152137
O O5 0.162440 0.837561 0.500000
O O6 0.146968 0.678399 0.454251
O O7 0.000000 0.754138 0.500000
O O8 0.834805 0.834805 0.936789
O O9 0.000000 0.768506 0.939565
O O10 0.873787 0.701779 0.000000
O O11 0.500000 0.846438 0.574231
O O12 0.359896 0.858796 0.637040
O O13 0.403319 0.000000 0.582218
O O14 0.096838 0.500000 0.307085
O O15 0.178404 0.648117 0.271759
O O16 0.000000 0.653913 0.300831
O O17 0.500000 0.256666 0.771659
O O18 0.664617 0.335384 0.776043
#
# Coordination Sequence:
#
# PCOD8312298 Si02
#       6
#    16   8  16  16  16  16
#     4   9  17  29  45  63  81 102 132 172 212 242
#     4  10  19  28  39  57  82 112 141 165 192 231
#     4   9  17  28  42  61  85 111 136 162 194 236
#     4   8  14  26  44  63  81 100 126 167 213 245
#     4   8  14  26  44  64  83 101 125 163 209 248
#     4  10  19  29  42  60  83 111 138 163 194 235
#
# _framework density 15.43796
#
# number of rings (size 3 to 8) (size 9 to 14) (size 15 to 20)
#    0.000    3.091    0.000    2.455    0.000    4.818 
#    0.000    2.727    0.000    0.000    0.000    0.000 
#    0.000    6.182    0.000   17.636    0.000    1.091 
#
# Total GULP energy -1090774.183308 kJ/mol
# GULP energy per Si atom -12395.161174 kJ/mol
# Density = 1.540282 g / cm^3
# Si number density = 15.437960 Si / 1000 Ang^3
#
#
#
# Elastic Constant Matrix: (Units=GPa)
#
#
# Indices 1 2 3 4 5 6 
#
# 1 60.2194 40.6697 53.5911 0.0000 0.0000 0.0000
# 2 40.6697 60.2183 53.5907 0.0000 0.0000 0.0000
# 3 53.5911 53.5907 131.4840 0.0000 0.0000 0.0000
# 4 0.0000 0.0000 0.0000 14.9683 0.0000 0.0000
# 5 0.0000 0.0000 0.0000 0.0000 14.9676 0.0000
# 6 0.0000 0.0000 0.0000 0.0000 0.0000 22.3182
#
#
#
# Elastic Compliance Matrix: (Units=1/GPa)
#
#
# Indices 1 2 3 4 5 6 
#
# 1 0.034317 -0.016836 -0.007125 0.000000 0.000000 0.000000
# 2 -0.016836 0.034318 -0.007125 0.000000 0.000000 0.000000
# 3 -0.007125 -0.007125 0.013414 0.000000 0.000000 0.000000
# 4 0.000000 0.000000 0.000000 0.066808 0.000000 0.000000
# 5 0.000000 0.000000 0.000000 0.000000 0.066811 0.000000
# 6 0.000000 0.000000 0.000000 0.000000 0.000000 0.044806
#
#
# Mechanical properties :
#
#
# Convention : Reuss Voigt Hill
#
# Bulk Modulus (GPa) = 50.31179 60.84719 55.57949
# Shear Modulus (GPa) = 15.18504 17.38884 16.28694
#
# Velocity S-wave (km/s) = 3.13967 3.35978 3.25159
# Velocity P-wave (km/s) = 6.76785 7.38583 7.08358
#
# Compressibility (1/GPa) = 0.01987606
#
# Stress axis : x y z
#
# Youngs Moduli (GPa) = 29.14004 29.13950 74.55020
#
# Poissons Ratio (x) = 0.49058 0.53119
# Poissons Ratio (y) = 0.49059 0.53119
# Poissons Ratio (z) = 0.20763 0.20763
#
# Static dielectric constant tensor:
#      x y z
#    x 2.753380 0.000000 0.000000 
#    y 0.000000 2.753380 0.000000 
#    z 0.000000 0.000000 3.359410 
# 
# 
# High freq. dielectric constant tensor:
#      x y z
#    x 1.565780 0.000000 0.000000 
#    y 0.000000 1.565780 0.000000 
#    z 0.000000 0.000000 1.609900 
# 
# From -- ./inp_files/7952.got.cif
#   From: 2010.03.12/outbox.cif.g09.slc.cpg/sg123_4_cif.got.tgz:7952.got - 2010.04.06 16:26:55.
