data_PCOD8312086
_publ_section_title
;
Structure prediction by ZEFSAII (Michael W. Deem and Ramdas Pophale) SiO2 
 PCOD8312086
Probable space group: I -4 2 D
;
_chemical_formula_sum "Si O2"
_cell_formula_units_Z 88
_cell_length_a 16.626205
_cell_length_b 16.626205
_cell_length_c 14.419389
_cell_angle_alpha 90.000000
_cell_angle_beta 90.000000
_cell_angle_gamma 90.000000
_cell_volume 3985.961690
_symmetry_space_group_name_H-M "I -4 2 D"
_symmetry_group_IT_number 122
_symmetry_cell_setting 'tetragonal'
loop_
_space_group_symop_operation_xyz
x,y,z
y,-x,-z
-x,-y,z
-y,x,-z
x,1/2-y,1/4-z
-x,1/2+y,1/4-z
-y,1/2-x,1/4+z
y,1/2+x,1/4+z
1/2+x,1/2+y,1/2+z
1/2+y,1/2-x,1/2-z
1/2-x,1/2-y,1/2+z
1/2-y,1/2+x,1/2-z
1/2+x,-y,3/4-z
1/2-x,y,3/4-z
1/2-y,-x,3/4+z
1/2+y,x,3/4+z
loop_
_atom_site_type_symbol
_atom_site_label
_atom_site_fract_x
_atom_site_fract_y
_atom_site_fract_z
Si Si1 0.574716 0.556612 0.867179
Si Si2 0.678563 0.920531 0.545508
Si Si3 0.937227 0.380932 0.252271
Si Si4 0.283254 0.273476 0.027008
Si Si5 0.461306 0.309565 0.003071
Si Si6 0.750000 0.642655 0.375000
O O1 0.500000 0.500000 0.876928
O O2 0.594810 0.572185 0.759721
O O3 0.546321 0.639990 0.909594
O O4 0.650606 0.519140 0.920707
O O5 0.660927 0.906731 0.653514
O O6 0.729027 0.848984 0.495890
O O7 0.724986 0.003883 0.530139
O O8 0.892513 0.466620 0.243110
O O9 0.912521 0.322346 0.166398
O O10 0.244619 0.250000 0.125000
O O11 0.373945 0.300822 0.047737
O O12 0.283835 0.200376 0.955056
#
# Coordination Sequence:
#
# PCOD8312086 Si02
#       6
#    16  16  16  16  16   8
#     4  12  23  42  70 103 144 186 237 298 379 451
#     4  12  26  45  72 104 144 197 239 315 377 445
#     4  11  28  52  75 108 151 199 260 313 381 464
#     4  12  24  44  71 106 144 187 251 304 378 450
#     4  12  23  43  69 107 144 183 239 307 379 450
#     4  12  26  48  80 106 146 204 252 320 378 460
#
# _framework density 22.077482
#
# number of rings (size 3 to 8) (size 9 to 14) (size 15 to 20)
#    0.000    0.182    5.455    3.818    2.545    2.909 
#    0.000    0.000    0.000    0.000    0.000    0.000 
#    0.000    0.000    0.000    0.000    0.000    0.000 
#
# Total GULP energy -545676.337549 kJ/mol
# GULP energy per Si atom -12401.734944 kJ/mol
# Density = 2.202723 g / cm^3
# Si number density = 22.077482 Si / 1000 Ang^3
#
#
#
# Elastic Constant Matrix: (Units=GPa)
#
#
# Indices 1 2 3 4 5 6 
#
# 1 97.1728 34.6919 37.1031 0.0000 0.0000 0.0000
# 2 34.6919 97.1728 37.1031 0.0000 0.0000 0.0000
# 3 37.1031 37.1031 133.3849 0.0000 0.0000 0.0000
# 4 0.0000 0.0000 0.0000 34.1669 0.0000 0.0000
# 5 0.0000 0.0000 0.0000 0.0000 34.1669 0.0000
# 6 0.0000 0.0000 0.0000 0.0000 0.0000 37.0078
#
#
#
# Elastic Compliance Matrix: (Units=1/GPa)
#
#
# Indices 1 2 3 4 5 6 
#
# 1 0.012498 -0.003507 -0.002501 0.000000 0.000000 0.000000
# 2 -0.003507 0.012498 -0.002501 0.000000 0.000000 0.000000
# 3 -0.002501 -0.002501 0.008888 0.000000 0.000000 0.000000
# 4 0.000000 0.000000 0.000000 0.029268 0.000000 0.000000
# 5 0.000000 0.000000 0.000000 0.000000 0.029268 0.000000
# 6 0.000000 0.000000 0.000000 0.000000 0.000000 0.027021
#
#
# Mechanical properties :
#
#
# Convention : Reuss Voigt Hill
#
# Bulk Modulus (GPa) = 59.28926 60.61409 59.95168
# Shear Modulus (GPa) = 35.19099 35.65714 35.42407
#
# Velocity S-wave (km/s) = 3.99680 4.02318 4.01001
# Velocity P-wave (km/s) = 6.94353 7.00686 6.97526
#
# Compressibility (1/GPa) = 0.01686646
#
# Stress axis : x y z
#
# Youngs Moduli (GPa) = 80.01338 80.01338 112.50529
#
# Poissons Ratio (x) = 0.28060 0.28137
# Poissons Ratio (y) = 0.28060 0.28137
# Poissons Ratio (z) = 0.20011 0.20011
#
# Static dielectric constant tensor:
#      x y z
#    x 3.991210 0.000000 0.000000 
#    y 0.000000 3.991210 0.000000 
#    z 0.000000 0.000000 4.032310 
# 
# 
# High freq. dielectric constant tensor:
#      x y z
#    x 1.875480 0.000000 0.000000 
#    y 0.000000 1.875480 0.000000 
#    z 0.000000 0.000000 1.873510 
# 
# From -- ./inp_files/5359.got.cif
#   From: 2010.03.12/outbox.cif.g09.slc.cpg/sg122_3_cif.got.tgz:5359.got - 2010.04.06 16:17:16.
