data_PCOD8312808
_publ_section_title
;
Structure prediction by ZEFSAII (Michael W. Deem and Ramdas Pophale) SiO2 
 PCOD8312808
Probable space group: P 4/M M M
;
_chemical_formula_sum "Si O2"
_cell_formula_units_Z 64
_cell_length_a 19.914853
_cell_length_b 19.914853
_cell_length_c 9.002330
_cell_angle_alpha 90.000000
_cell_angle_beta 90.000000
_cell_angle_gamma 90.000000
_cell_volume 3570.336411
_symmetry_space_group_name_H-M "P 4/M M M"
_symmetry_group_IT_number 123
_symmetry_cell_setting 'tetragonal'
loop_
_space_group_symop_operation_xyz
x,y,z
-y,x,z
-x,-y,z
y,-x,z
x,-y,-z
-x,y,-z
y,x,-z
-y,-x,-z
-x,-y,-z
y,-x,-z
x,y,-z
-y,x,-z
-x,y,z
x,-y,z
-y,-x,z
y,x,z
loop_
_atom_site_type_symbol
_atom_site_label
_atom_site_fract_x
_atom_site_fract_y
_atom_site_fract_z
Si Si1 0.000000 0.735692 0.676307
Si Si2 0.235345 0.423558 0.173523
Si Si3 0.776446 0.223555 0.333577
Si Si4 0.314622 0.872824 0.824576
Si Si5 0.664338 0.335663 0.336121
Si Si6 0.000000 0.891633 0.676170
O O1 0.058432 0.687958 0.737019
O O2 0.000000 0.736428 0.500000
O O3 0.000000 0.813818 0.736301
O O4 0.220993 0.500000 0.219721
O O5 0.170021 0.380621 0.220769
O O6 0.303881 0.399201 0.251689
O O7 0.248470 0.415123 0.000000
O O8 0.799331 0.200669 0.500000
O O9 0.837478 0.248261 0.235471
O O10 0.720469 0.279532 0.348163
O O11 0.310720 0.884168 0.000000
O O12 0.641255 0.358746 0.500000
O O13 0.066979 0.933022 0.729398
O O14 0.000000 0.889005 0.500000
#
# Coordination Sequence:
#
# PCOD8312808 Si02
#       6
#     8  16   8  16   8   8
#     4  11  22  33  51  75 102 136 174 216 268 323
#     4   9  18  34  56  78 102 138 180 216 253 303
#     4   9  17  31  51  73  99 129 167 209 255 312
#     4  10  20  34  51  74 103 133 170 218 265 307
#     4   9  17  29  49  80 110 134 162 207 260 305
#     4   8  16  32  51  71  95 127 170 214 255 307
#
# _framework density 17.925481000000001
#
# number of rings (size 3 to 8) (size 9 to 14) (size 15 to 20)
#    0.000    2.625    0.000    2.250    1.750    4.500 
#    0.000    0.625    0.000    4.125    0.000    6.125 
#    0.000    0.000    0.000    0.000    0.000    0.000 
#
# Total GULP energy -793006.698752 kJ/mol
# GULP energy per Si atom -12390.729668 kJ/mol
# Density = 1.788468 g / cm^3
# Si number density = 17.925481 Si / 1000 Ang^3
#
#
#
# Elastic Constant Matrix: (Units=GPa)
#
#
# Indices 1 2 3 4 5 6 
#
# 1 139.1885 33.3631 46.1529 0.0000 0.0000 0.0000
# 2 33.3631 139.1877 46.1528 0.0000 0.0000 0.0000
# 3 46.1529 46.1528 72.1997 0.0000 0.0000 0.0000
# 4 0.0000 0.0000 0.0000 21.7055 0.0000 0.0000
# 5 0.0000 0.0000 0.0000 0.0000 21.7051 0.0000
# 6 0.0000 0.0000 0.0000 0.0000 0.0000 20.7322
#
#
#
# Elastic Compliance Matrix: (Units=1/GPa)
#
#
# Indices 1 2 3 4 5 6 
#
# 1 0.009128 -0.000321 -0.005630 0.000000 0.000000 0.000000
# 2 -0.000321 0.009128 -0.005630 0.000000 0.000000 0.000000
# 3 -0.005630 -0.005630 0.021048 0.000000 0.000000 0.000000
# 4 0.000000 0.000000 0.000000 0.046071 0.000000 0.000000
# 5 0.000000 0.000000 0.000000 0.000000 0.046072 0.000000
# 6 0.000000 0.000000 0.000000 0.000000 0.000000 0.048234
#
#
# Mechanical properties :
#
#
# Convention : Reuss Voigt Hill
#
# Bulk Modulus (GPa) = 61.94666 66.87928 64.41297
# Shear Modulus (GPa) = 24.01252 27.82238 25.91745
#
# Velocity S-wave (km/s) = 3.66399 3.94396 3.80655
# Velocity P-wave (km/s) = 7.24794 7.62433 7.43852
#
# Compressibility (1/GPa) = 0.01614292
#
# Stress axis : x y z
#
# Youngs Moduli (GPa) = 109.54995 109.54928 47.51044
#
# Poissons Ratio (x) = 0.03520 0.26747
# Poissons Ratio (y) = 0.03520 0.26747
# Poissons Ratio (z) = 0.61674 0.61674
#
# Static dielectric constant tensor:
#      x y z
#    x 3.292150 0.000000 0.000000 
#    y 0.000000 3.292150 0.000000 
#    z 0.000000 0.000000 3.334770 
# 
# 
# High freq. dielectric constant tensor:
#      x y z
#    x 1.683020 0.000000 0.000000 
#    y 0.000000 1.683020 0.000000 
#    z 0.000000 0.000000 1.689010 
# 
# From -- ./inp_files/1018.got.cif
#   From: 2010.03.12/outbox.cif.g09.slc.cpg/sg123_1_cif.got.tgz:1018.got - 2010.04.06 16:26:55.
