data_PCOD8312877
_publ_section_title
;
Structure prediction by ZEFSAII (Michael W. Deem and Ramdas Pophale) SiO2 
 PCOD8312877
Probable space group: P 4/M M M
;
_chemical_formula_sum "Si O2"
_cell_formula_units_Z 56
_cell_length_a 13.430107
_cell_length_b 13.430107
_cell_length_c 18.011698
_cell_angle_alpha 90.000000
_cell_angle_beta 90.000000
_cell_angle_gamma 90.000000
_cell_volume 3248.729875
_symmetry_space_group_name_H-M "P 4/M M M"
_symmetry_group_IT_number 123
_symmetry_cell_setting 'tetragonal'
loop_
_space_group_symop_operation_xyz
x,y,z
-y,x,z
-x,-y,z
y,-x,z
x,-y,-z
-x,y,-z
y,x,-z
-y,-x,-z
-x,-y,-z
y,-x,-z
x,y,-z
-y,x,-z
-x,y,z
x,-y,z
-y,-x,z
y,x,z
loop_
_atom_site_type_symbol
_atom_site_label
_atom_site_fract_x
_atom_site_fract_y
_atom_site_fract_z
Si Si1 0.385832 0.774791 0.915068
Si Si2 0.383561 0.219373 0.338825
Si Si3 0.612313 0.229034 0.500000
Si Si4 0.721729 0.114711 0.790111
O O1 0.500000 0.755984 0.893550
O O2 0.328883 0.671118 0.900382
O O3 0.339946 0.861176 0.864436
O O4 0.374365 0.809946 0.000000
O O5 0.500000 0.242722 0.325835
O O6 0.321760 0.321760 0.327167
O O7 0.364103 0.172423 0.422038
O O8 0.347176 0.137055 0.280897
O O9 0.500000 0.263049 0.500000
O O10 0.667334 0.332667 0.500000
O O11 0.823616 0.176385 0.786666
O O12 0.751607 0.000000 0.790536
#
# Coordination Sequence:
#
# PCOD8312877 Si02
#       4
#    16  16   8  16
#     4   9  18  32  50  74 103 132 160 188 220 264
#     4   9  17  29  46  70  99 129 159 189 224 270
#     4   8  14  25  41  63  94 128 158 188 221 262
#     4  10  21  36  52  69  90 118 155 200 246 288
#
# _framework density 17.237507000000001
#
# number of rings (size 3 to 8) (size 9 to 14) (size 15 to 20)
#    0.000    2.857    0.000    0.857    0.000    3.857 
#    0.000    6.429    0.000    7.714    0.000    4.000 
#    0.000    5.714    0.000    0.000    0.000    0.000 
#
# Total GULP energy -693970.962122 kJ/mol
# GULP energy per Si atom -12392.338609 kJ/mol
# Density = 1.719827 g / cm^3
# Si number density = 17.237507 Si / 1000 Ang^3
#
#
#
# Elastic Constant Matrix: (Units=GPa)
#
#
# Indices 1 2 3 4 5 6 
#
# 1 103.6400 35.7499 53.8065 0.0000 0.0000 0.0000
# 2 35.7499 103.6395 53.8063 0.0000 0.0000 0.0000
# 3 53.8065 53.8063 124.3962 0.0000 0.0000 0.0000
# 4 0.0000 0.0000 0.0000 17.0143 0.0000 0.0000
# 5 0.0000 0.0000 0.0000 0.0000 17.0144 0.0000
# 6 0.0000 0.0000 0.0000 0.0000 0.0000 9.6004
#
#
#
# Elastic Compliance Matrix: (Units=1/GPa)
#
#
# Indices 1 2 3 4 5 6 
#
# 1 0.012750 -0.001979 -0.004659 0.000000 0.000000 0.000000
# 2 -0.001979 0.012750 -0.004659 0.000000 0.000000 0.000000
# 3 -0.004659 -0.004659 0.012069 0.000000 0.000000 0.000000
# 4 0.000000 0.000000 0.000000 0.058774 0.000000 0.000000
# 5 0.000000 0.000000 0.000000 0.000000 0.058774 0.000000
# 6 0.000000 0.000000 0.000000 0.000000 0.000000 0.104162
#
#
# Mechanical properties :
#
#
# Convention : Reuss Voigt Hill
#
# Bulk Modulus (GPa) = 66.77568 68.71123 67.74345
# Shear Modulus (GPa) = 17.42977 21.28003 19.35490
#
# Velocity S-wave (km/s) = 3.18331 3.51738 3.35451
# Velocity P-wave (km/s) = 7.23422 7.51292 7.37489
#
# Compressibility (1/GPa) = 0.01497551
#
# Stress axis : x y z
#
# Youngs Moduli (GPa) = 78.42957 78.42926 82.85617
#
# Poissons Ratio (x) = 0.15524 0.38601
# Poissons Ratio (y) = 0.15524 0.38601
# Poissons Ratio (z) = 0.36539 0.36539
#
# Static dielectric constant tensor:
#      x y z
#    x 2.945610 0.000000 0.000000 
#    y 0.000000 2.945610 0.000000 
#    z 0.000000 0.000000 3.776940 
# 
# 
# High freq. dielectric constant tensor:
#      x y z
#    x 1.642480 0.000000 0.000000 
#    y 0.000000 1.642480 0.000000 
#    z 0.000000 0.000000 1.693850 
# 
# From -- ./inp_files/6099.got.cif
#   From: 2010.03.12/outbox.cif.g09.slc.cpg/sg123_4_cif.got.tgz:6099.got - 2010.04.06 16:26:55.
