data_PCOD8312146
_publ_section_title
;
Structure prediction by ZEFSAII (Michael W. Deem and Ramdas Pophale) SiO2 
 PCOD8312146
Probable space group: P 4/M M M
;
_chemical_formula_sum "Si O2"
_cell_formula_units_Z 96
_cell_length_a 22.417480
_cell_length_b 22.417480
_cell_length_c 10.689319
_cell_angle_alpha 90.000000
_cell_angle_beta 90.000000
_cell_angle_gamma 90.000000
_cell_volume 5371.846816
_symmetry_space_group_name_H-M "P 4/M M M"
_symmetry_group_IT_number 123
_symmetry_cell_setting 'tetragonal'
loop_
_space_group_symop_operation_xyz
x,y,z
-y,x,z
-x,-y,z
y,-x,z
x,-y,-z
-x,y,-z
y,x,-z
-y,-x,-z
-x,-y,-z
y,-x,-z
x,y,-z
-y,x,-z
-x,y,z
x,-y,z
-y,-x,z
y,x,z
loop_
_atom_site_type_symbol
_atom_site_label
_atom_site_fract_x
_atom_site_fract_y
_atom_site_fract_z
Si Si1 0.221080 0.315063 0.736759
Si Si2 0.066382 0.567261 0.776003
Si Si3 0.185320 0.434337 0.644746
Si Si4 0.771420 0.128735 0.639146
Si Si5 0.932223 0.656717 0.000000
Si Si6 0.816957 0.724991 0.000000
Si Si7 0.068314 0.165519 0.857704
O O1 0.280806 0.280806 0.691022
O O2 0.226765 0.385418 0.711976
O O3 0.163088 0.290475 0.662582
O O4 0.213013 0.306363 0.883157
O O5 0.070385 0.500000 0.831860
O O6 0.114909 0.576651 0.667887
O O7 0.000000 0.578236 0.720461
O O8 0.080647 0.615288 0.881838
O O9 0.197769 0.429254 0.500000
O O10 0.203811 0.500000 0.694893
O O11 0.769468 0.098210 0.500000
O O12 0.823853 0.176148 0.643946
O O13 0.782771 0.083305 0.755001
O O14 0.888298 0.714069 0.000000
O O15 0.000000 0.681910 0.000000
O O16 0.796405 0.796405 0.000000
O O17 0.106556 0.106556 0.829391
O O18 0.000000 0.147012 0.839975
O O19 0.080234 0.188716 0.000000
#
# Coordination Sequence:
#
# PCOD8312146 Si02
#       7
#    16  16  16  16   8   8  16
#     4  10  20  35  55  76 102 135 171 210 260 315
#     4   9  17  29  46  68  96 132 172 213 255 300
#     4  10  20  33  50  74 105 140 179 218 255 301
#     4   9  18  32  51  71  91 121 162 207 253 304
#     4  10  17  30  50  71  95 127 172 217 259 312
#     4  10  20  33  51  78 106 134 169 215 268 325
#     4   9  18  32  50  73 100 130 163 204 258 317
#
# _framework density 17.870947999999999
#
# number of rings (size 3 to 8) (size 9 to 14) (size 15 to 20)
#    0.000    2.500    1.667    0.750    1.167    2.833 
#    0.000    4.583    0.000    2.000    0.000    2.333 
#    0.000    0.500    0.000    1.833    0.000    4.667 
#
# Total GULP energy -1189610.911849 kJ/mol
# GULP energy per Si atom -12391.780332 kJ/mol
# Density = 1.783027 g / cm^3
# Si number density = 17.870948 Si / 1000 Ang^3
#
#
#
# Elastic Constant Matrix: (Units=GPa)
#
#
# Indices 1 2 3 4 5 6 
#
# 1 104.3885 52.6616 30.2042 0.0000 0.0000 0.0000
# 2 52.6616 104.3885 30.2042 0.0000 0.0000 0.0000
# 3 30.2042 30.2042 98.4887 0.0000 0.0000 0.0000
# 4 0.0000 0.0000 0.0000 13.9594 0.0000 0.0000
# 5 0.0000 0.0000 0.0000 0.0000 13.9594 0.0000
# 6 0.0000 0.0000 0.0000 0.0000 0.0000 23.4408
#
#
#
# Elastic Compliance Matrix: (Units=1/GPa)
#
#
# Indices 1 2 3 4 5 6 
#
# 1 0.013276 -0.006057 -0.002214 0.000000 0.000000 0.000000
# 2 -0.006057 0.013276 -0.002214 0.000000 0.000000 0.000000
# 3 -0.002214 -0.002214 0.011511 0.000000 0.000000 0.000000
# 4 0.000000 0.000000 0.000000 0.071636 0.000000 0.000000
# 5 0.000000 0.000000 0.000000 0.000000 0.071636 0.000000
# 6 0.000000 0.000000 0.000000 0.000000 0.000000 0.042661
#
#
# Mechanical properties :
#
#
# Convention : Reuss Voigt Hill
#
# Bulk Modulus (GPa) = 58.50105 59.26729 58.88417
# Shear Modulus (GPa) = 19.94715 23.21831 21.58273
#
# Velocity S-wave (km/s) = 3.34455 3.60838 3.47897
# Velocity P-wave (km/s) = 6.90804 7.11313 7.01133
#
# Compressibility (1/GPa) = 0.01709371
#
# Stress axis : x y z
#
# Youngs Moduli (GPa) = 75.32597 75.32597 86.87078
#
# Poissons Ratio (x) = 0.45623 0.19232
# Poissons Ratio (y) = 0.45623 0.19232
# Poissons Ratio (z) = 0.16676 0.16676
#
# Static dielectric constant tensor:
#      x y z
#    x 3.306230 0.000000 0.000000 
#    y 0.000000 3.306230 0.000000 
#    z 0.000000 0.000000 3.740480 
# 
# 
# High freq. dielectric constant tensor:
#      x y z
#    x 1.670710 0.000000 0.000000 
#    y 0.000000 1.670710 0.000000 
#    z 0.000000 0.000000 1.696030 
# 
# From -- ./inp_files/3185.got.cif
#   From: 2010.03.12/outbox.cif.g09.slc.cpg/sg123_2_cif.got.tgz:3185.got - 2010.04.06 16:26:55.
