data_PCOD8312153
_publ_section_title
;
Structure prediction by ZEFSAII (Michael W. Deem and Ramdas Pophale) SiO2 
 PCOD8312153
Probable space group: P 4/M M M
;
_chemical_formula_sum "Si O2"
_cell_formula_units_Z 48
_cell_length_a 16.618447
_cell_length_b 16.618447
_cell_length_c 12.785988
_cell_angle_alpha 90.000000
_cell_angle_beta 90.000000
_cell_angle_gamma 90.000000
_cell_volume 3531.141860
_symmetry_space_group_name_H-M "P 4/M M M"
_symmetry_group_IT_number 123
_symmetry_cell_setting 'tetragonal'
loop_
_space_group_symop_operation_xyz
x,y,z
-y,x,z
-x,-y,z
y,-x,z
x,-y,-z
-x,y,-z
y,x,-z
-y,-x,-z
-x,-y,-z
y,-x,-z
x,y,-z
-y,x,-z
-x,y,z
x,-y,z
-y,-x,z
y,x,z
loop_
_atom_site_type_symbol
_atom_site_label
_atom_site_fract_x
_atom_site_fract_y
_atom_site_fract_z
Si Si1 0.723853 0.404996 0.500000
Si Si2 0.169031 0.595065 0.693619
Si Si3 0.000000 0.596049 0.619332
Si Si4 0.592735 0.723581 0.118498
O O1 0.708405 0.500000 0.500000
O O2 0.637269 0.362732 0.500000
O O3 0.773103 0.375367 0.601054
O O4 0.162620 0.500000 0.687884
O O5 0.205162 0.622842 0.805153
O O6 0.079159 0.630649 0.678206
O O7 0.000000 0.500000 0.620415
O O8 0.000000 0.626820 0.500000
O O9 0.500000 0.701308 0.141295
O O10 0.642909 0.642909 0.139966
O O11 0.604651 0.754540 0.000000
#
# Coordination Sequence:
#
# PCOD8312153 Si02
#       4
#     8  16   8  16
#     4  10  18  26  37  53  75 101 130 164 197 228
#     4   9  16  26  39  55  72  92 124 163 200 235
#     4   9  14  24  41  57  71  91 120 157 200 244
#     4   9  17  28  40  54  75 104 137 170 199 227
#
# _framework density 13.593337
#
# number of rings (size 3 to 8) (size 9 to 14) (size 15 to 20)
#    0.000    2.833    1.667    1.000    0.000    0.500 
#    0.000    2.500    0.000   11.000    0.000    0.000 
#    0.000    0.000    0.000    0.000    0.000   34.167 
#
# Total GULP energy -594958.686464 kJ/mol
# GULP energy per Si atom -12394.972635 kJ/mol
# Density = 1.356240 g / cm^3
# Si number density = 13.593337 Si / 1000 Ang^3
#
#
#
# Elastic Constant Matrix: (Units=GPa)
#
#
# Indices 1 2 3 4 5 6 
#
# 1 67.8088 35.2494 46.4100 0.0000 0.0000 0.0000
# 2 35.2494 67.8064 46.4095 0.0000 0.0000 0.0000
# 3 46.4100 46.4095 110.9828 0.0000 0.0000 0.0000
# 4 0.0000 0.0000 0.0000 19.1235 0.0000 0.0000
# 5 0.0000 0.0000 0.0000 0.0000 19.1236 0.0000
# 6 0.0000 0.0000 0.0000 0.0000 0.0000 2.0891
#
#
#
# Elastic Compliance Matrix: (Units=1/GPa)
#
#
# Indices 1 2 3 4 5 6 
#
# 1 0.023140 -0.007574 -0.006509 0.000000 0.000000 0.000000
# 2 -0.007574 0.023141 -0.006509 0.000000 0.000000 0.000000
# 3 -0.006509 -0.006509 0.014454 0.000000 0.000000 0.000000
# 4 0.000000 0.000000 0.000000 0.052292 0.000000 0.000000
# 5 0.000000 0.000000 0.000000 0.000000 0.052291 0.000000
# 6 0.000000 0.000000 0.000000 0.000000 0.000000 0.478675
#
#
# Mechanical properties :
#
#
# Convention : Reuss Voigt Hill
#
# Bulk Modulus (GPa) = 51.15253 55.85952 53.50603
# Shear Modulus (GPa) = 7.22863 15.96919 11.59891
#
# Velocity S-wave (km/s) = 2.30853 3.43123 2.92426
# Velocity P-wave (km/s) = 6.69463 7.54190 7.13086
#
# Compressibility (1/GPa) = 0.01954937
#
# Stress axis : x y z
#
# Youngs Moduli (GPa) = 43.21585 43.21411 69.18329
#
# Poissons Ratio (x) = 0.32731 0.45032
# Poissons Ratio (y) = 0.32732 0.45034
# Poissons Ratio (z) = 0.28130 0.28130
#
# Static dielectric constant tensor:
#      x y z
#    x 2.580870 0.000000 0.000000 
#    y 0.000000 2.580870 0.000000 
#    z 0.000000 0.000000 2.948140 
# 
# 
# High freq. dielectric constant tensor:
#      x y z
#    x 1.484180 0.000000 0.000000 
#    y 0.000000 1.484180 0.000000 
#    z 0.000000 0.000000 1.531520 
# 
# From -- ./inp_files/3621.got.cif
#   From: 2010.03.12/outbox.cif.g09.slc.cpg/sg123_2_cif.got.tgz:3621.got - 2010.04.06 16:26:55.
