data_PCOD8312361
_publ_section_title
;
Structure prediction by ZEFSAII (Michael W. Deem and Ramdas Pophale) SiO2 
 PCOD8312361
Probable space group: P 4/M M M
;
_chemical_formula_sum "Si O2"
_cell_formula_units_Z 64
_cell_length_a 12.937053
_cell_length_b 12.937053
_cell_length_c 22.258238
_cell_angle_alpha 90.000000
_cell_angle_beta 90.000000
_cell_angle_gamma 90.000000
_cell_volume 3725.302094
_symmetry_space_group_name_H-M "P 4/M M M"
_symmetry_group_IT_number 123
_symmetry_cell_setting 'tetragonal'
loop_
_space_group_symop_operation_xyz
x,y,z
-y,x,z
-x,-y,z
y,-x,z
x,-y,-z
-x,y,-z
y,x,-z
-y,-x,-z
-x,-y,-z
y,-x,-z
x,y,-z
-y,x,-z
-x,y,z
x,-y,z
-y,-x,z
y,x,z
loop_
_atom_site_type_symbol
_atom_site_label
_atom_site_fract_x
_atom_site_fract_y
_atom_site_fract_z
Si Si1 0.886500 0.378391 0.241204
Si Si2 0.780731 0.621581 0.878548
Si Si3 0.000000 0.377673 0.432346
Si Si4 0.790442 0.622383 0.365443
Si Si5 0.623006 0.885524 0.000000
O O1 0.898406 0.500000 0.235410
O O2 0.844857 0.334516 0.178111
O O3 0.808704 0.353070 0.295342
O O4 0.000000 0.330187 0.253886
O O5 0.771952 0.500000 0.877040
O O6 0.665022 0.665022 0.874780
O O7 0.831029 0.663412 0.939841
O O8 0.105604 0.340962 0.400057
O O9 0.000000 0.500000 0.431297
O O10 0.000000 0.333766 0.500000
O O11 0.766729 0.500000 0.376703
O O12 0.691907 0.691907 0.386626
O O13 0.500000 0.887225 0.000000
O O14 0.668959 0.000000 0.000000
#
# Coordination Sequence:
#
# PCOD8312361 Si02
#       5
#    16  16   8  16   8
#     4   9  16  29  48  69  94 126 167 211 247 282
#     4  10  19  29  43  65  94 126 157 191 235 290
#     4   9  18  34  54  75 101 136 178 215 243 285
#     4  10  19  32  52  79 109 138 170 209 255 307
#     4   9  17  30  45  61  83 113 153 203 247 278
#
# _framework density 17.179814
#
# number of rings (size 3 to 8) (size 9 to 14) (size 15 to 20)
#    0.000    2.500    1.250    1.875    0.000    4.000 
#    0.000    0.000    0.000    7.125    0.000    4.375 
#    0.000   19.000    0.000    0.000    0.000    0.000 
#
# Total GULP energy -793098.923971 kJ/mol
# GULP energy per Si atom -12392.170687 kJ/mol
# Density = 1.714071 g / cm^3
# Si number density = 17.179814 Si / 1000 Ang^3
#
#
#
# Elastic Constant Matrix: (Units=GPa)
#
#
# Indices 1 2 3 4 5 6 
#
# 1 70.8342 53.8225 30.9710 0.0000 0.0000 0.0000
# 2 53.8225 70.8342 30.9710 0.0000 0.0000 0.0000
# 3 30.9710 30.9710 118.3269 0.0000 0.0000 0.0000
# 4 0.0000 0.0000 0.0000 12.5452 0.0000 0.0000
# 5 0.0000 0.0000 0.0000 0.0000 12.5452 0.0000
# 6 0.0000 0.0000 0.0000 0.0000 0.0000 10.2683
#
#
#
# Elastic Compliance Matrix: (Units=1/GPa)
#
#
# Indices 1 2 3 4 5 6 
#
# 1 0.034002 -0.024781 -0.002414 0.000000 0.000000 0.000000
# 2 -0.024781 0.034002 -0.002414 0.000000 0.000000 0.000000
# 3 -0.002414 -0.002414 0.009715 0.000000 0.000000 0.000000
# 4 0.000000 0.000000 0.000000 0.079711 0.000000 0.000000
# 5 0.000000 0.000000 0.000000 0.000000 0.079711 0.000000
# 6 0.000000 0.000000 0.000000 0.000000 0.000000 0.097387
#
#
# Mechanical properties :
#
#
# Convention : Reuss Voigt Hill
#
# Bulk Modulus (GPa) = 54.04548 54.61378 54.32963
# Shear Modulus (GPa) = 12.50272 16.68715 14.59494
#
# Velocity S-wave (km/s) = 2.70062 3.11999 2.91785
# Velocity P-wave (km/s) = 6.42273 6.69609 6.56083
#
# Compressibility (1/GPa) = 0.01850294
#
# Stress axis : x y z
#
# Youngs Moduli (GPa) = 29.40980 29.40980 102.93746
#
# Poissons Ratio (x) = 0.72880 0.24845
# Poissons Ratio (y) = 0.72880 0.24845
# Poissons Ratio (z) = 0.07098 0.07098
#
# Static dielectric constant tensor:
#      x y z
#    x 3.002630 0.000000 0.000000 
#    y 0.000000 3.002630 0.000000 
#    z 0.000000 0.000000 3.576100 
# 
# 
# High freq. dielectric constant tensor:
#      x y z
#    x 1.634080 0.000000 0.000000 
#    y 0.000000 1.634080 0.000000 
#    z 0.000000 0.000000 1.679970 
# 
# From -- ./inp_files/7002.got.cif
#   From: 2010.03.12/outbox.cif.g09.slc.cpg/sg123_4_cif.got.tgz:7002.got - 2010.04.06 16:26:55.
