data_PCOD8312504
_publ_section_title
;
Structure prediction by ZEFSAII (Michael W. Deem and Ramdas Pophale) SiO2 
 PCOD8312504
Probable space group: P 4/M M M
;
_chemical_formula_sum "Si O2"
_cell_formula_units_Z 60
_cell_length_a 12.067540
_cell_length_b 12.067540
_cell_length_c 25.700410
_cell_angle_alpha 90.000000
_cell_angle_beta 90.000000
_cell_angle_gamma 90.000000
_cell_volume 3742.635613
_symmetry_space_group_name_H-M "P 4/M M M"
_symmetry_group_IT_number 123
_symmetry_cell_setting 'tetragonal'
loop_
_space_group_symop_operation_xyz
x,y,z
-y,x,z
-x,-y,z
y,-x,z
x,-y,-z
-x,y,-z
y,x,-z
-y,-x,-z
-x,-y,-z
y,-x,-z
x,y,-z
-y,x,-z
-x,y,z
x,-y,z
-y,-x,z
y,x,z
loop_
_atom_site_type_symbol
_atom_site_label
_atom_site_fract_x
_atom_site_fract_y
_atom_site_fract_z
Si Si1 0.194439 0.624229 0.830708
Si Si2 0.874889 0.305286 0.718485
Si Si3 0.500000 0.320393 0.439277
Si Si4 0.188455 0.000000 0.000000
Si Si5 0.129359 0.500000 0.358517
Si Si6 0.000000 0.372433 0.910677
O O1 0.239968 0.500000 0.833059
O O2 0.298354 0.701647 0.840198
O O3 0.136964 0.643465 0.775497
O O4 0.107487 0.646431 0.875962
O O5 0.802848 0.197153 0.710608
O O6 0.839075 0.393990 0.675650
O O7 0.000000 0.267513 0.709868
O O8 0.608850 0.391151 0.424363
O O9 0.500000 0.292637 0.500000
O O10 0.500000 0.203663 0.409897
O O11 0.273094 0.000000 0.951893
O O12 0.109783 0.890218 0.000000
O O13 0.000000 0.500000 0.374474
O O14 0.000000 0.500000 0.933457
#
# Coordination Sequence:
#
# PCOD8312504 Si02
#       6
#    16  16   8   4   8   8
#     4  10  19  32  50  71  98 131 163 202 244 291
#     4  10  19  31  47  68  97 129 166 204 242 290
#     4   9  18  33  51  71  99 134 169 207 251 297
#     4  11  23  38  54  78 109 129 160 212 256 295
#     4  10  19  30  50  72  99 128 167 206 251 291
#     4  10  20  35  58  75  97 131 169 204 241 296
#
# _framework density 16.031483999999999
#
# number of rings (size 3 to 8) (size 9 to 14) (size 15 to 20)
#    0.000    2.067    2.667    2.200    0.000    0.800 
#    0.000    0.000    0.000    0.000    0.000    0.000 
#    0.000    9.600    0.000   24.800    0.000    0.000 
#
# Total GULP energy -743863.306198 kJ/mol
# GULP energy per Si atom -12397.721770 kJ/mol
# Density = 1.599500 g / cm^3
# Si number density = 16.031484 Si / 1000 Ang^3
#
#
#
# Elastic Constant Matrix: (Units=GPa)
#
#
# Indices 1 2 3 4 5 6 
#
# 1 100.5396 67.2279 56.6188 0.0000 0.0000 0.0000
# 2 67.2279 100.5399 56.6189 0.0000 0.0000 0.0000
# 3 56.6188 56.6189 88.2349 0.0000 0.0000 0.0000
# 4 0.0000 0.0000 0.0000 25.8203 0.0000 0.0000
# 5 0.0000 0.0000 0.0000 0.0000 25.8201 0.0000
# 6 0.0000 0.0000 0.0000 0.0000 0.0000 536.2378
#
#
#
# Elastic Compliance Matrix: (Units=1/GPa)
#
#
# Indices 1 2 3 4 5 6 
#
# 1 0.020267 -0.009752 -0.006747 0.000000 0.000000 0.000000
# 2 -0.009752 0.020267 -0.006747 0.000000 0.000000 0.000000
# 3 -0.006747 -0.006747 0.019992 0.000000 0.000000 0.000000
# 4 0.000000 0.000000 0.000000 0.038729 0.000000 0.000000
# 5 0.000000 0.000000 0.000000 0.000000 0.038730 0.000000
# 6 0.000000 0.000000 0.000000 0.000000 0.000000 0.001865
#
#
# Mechanical properties :
#
#
# Convention : Reuss Voigt Hill
#
# Bulk Modulus (GPa) = 71.25874 72.24952 71.75413
# Shear Modulus (GPa) = 26.17515 124.83222 75.50369
#
# Velocity S-wave (km/s) = 4.04509 8.83380 6.87018
# Velocity P-wave (km/s) = 8.14634 12.21528 10.38210
#
# Compressibility (1/GPa) = 0.01403337
#
# Stress axis : x y z
#
# Youngs Moduli (GPa) = 49.34120 49.34132 50.01903
#
# Poissons Ratio (x) = 0.48119 0.33748
# Poissons Ratio (y) = 0.48119 0.33748
# Poissons Ratio (z) = 0.33291 0.33291
#
# Static dielectric constant tensor:
#      x y z
#    x 3.034870 0.000000 0.000000 
#    y 0.000000 3.034870 0.000000 
#    z 0.000000 0.000000 2.948680 
# 
# 
# High freq. dielectric constant tensor:
#      x y z
#    x 1.622090 0.000000 0.000000 
#    y 0.000000 1.622090 0.000000 
#    z 0.000000 0.000000 1.610130 
# 
# From -- ./inp_files/7775.got.cif
#   From: 2010.03.12/outbox.cif.g09.slc.cpg/sg123_4_cif.got.tgz:7775.got - 2010.04.06 16:26:55.
