data_PCOD8312133
_publ_section_title
;
Structure prediction by ZEFSAII (Michael W. Deem and Ramdas Pophale) SiO2 
 PCOD8312133
Probable space group: P 4/M M M
;
_chemical_formula_sum "Si O2"
_cell_formula_units_Z 104
_cell_length_a 18.188142
_cell_length_b 18.188142
_cell_length_c 21.341605
_cell_angle_alpha 90.000000
_cell_angle_beta 90.000000
_cell_angle_gamma 90.000000
_cell_volume 7059.984539
_symmetry_space_group_name_H-M "P 4/M M M"
_symmetry_group_IT_number 123
_symmetry_cell_setting 'tetragonal'
loop_
_space_group_symop_operation_xyz
x,y,z
-y,x,z
-x,-y,z
y,-x,z
x,-y,-z
-x,y,-z
y,x,-z
-y,-x,-z
-x,-y,-z
y,-x,-z
x,y,-z
-y,x,-z
-x,y,z
x,-y,z
-y,-x,z
y,x,z
loop_
_atom_site_type_symbol
_atom_site_label
_atom_site_fract_x
_atom_site_fract_y
_atom_site_fract_z
Si Si1 0.342931 0.774049 0.428114
Si Si2 0.583500 0.849804 0.246433
Si Si3 0.916356 0.649952 0.126849
Si Si4 0.414340 0.915441 0.377359
Si Si5 0.918984 0.197394 0.929399
Si Si6 0.916921 0.586231 0.000000
Si Si7 0.415752 0.298373 0.315422
O O1 0.364517 0.761827 0.500000
O O2 0.259094 0.740907 0.416359
O O3 0.356017 0.860822 0.411984
O O4 0.399060 0.726825 0.386344
O O5 0.500000 0.854364 0.223412
O O6 0.633569 0.868580 0.187599
O O7 0.596968 0.907022 0.302902
O O8 0.603691 0.768107 0.268869
O O9 0.913899 0.736915 0.119511
O O10 0.000000 0.620699 0.135950
O O11 0.879519 0.614051 0.064429
O O12 0.500000 0.895674 0.394229
O O13 0.397030 0.000000 0.396439
O O14 0.864438 0.135563 0.905335
O O15 0.000000 0.162672 0.928425
O O16 0.899957 0.224875 0.000000
O O17 0.915704 0.500000 0.000000
O O18 0.000000 0.618903 0.000000
O O19 0.500000 0.321848 0.310815
O O20 0.367904 0.367904 0.294672
#
# Coordination Sequence:
#
# PCOD8312133 Si02
#       7
#    16  16  16  16  16   8  16
#     4   9  17  29  44  61  85 117 145 170 208 256
#     4   9  17  28  42  60  84 113 139 165 200 244
#     4  10  17  26  40  59  82 107 134 164 197 237
#     4   9  17  28  42  63  89 114 144 180 213 248
#     4   9  17  29  42  56  76 100 129 166 203 238
#     4   9  16  24  35  54  79 105 131 156 185 228
#     4   9  18  31  45  62  83 107 139 176 209 245
#
# _framework density 14.73091
#
# number of rings (size 3 to 8) (size 9 to 14) (size 15 to 20)
#    0.000    2.846    0.769    2.308    0.000    4.000 
#    0.000    1.538    0.000    0.000    0.000    2.154 
#    0.000    0.308    0.000    1.692    0.000    7.077 
#
# Total GULP energy -1288809.665056 kJ/mol
# GULP energy per Si atom -12392.400626 kJ/mol
# Density = 1.469738 g / cm^3
# Si number density = 14.730910 Si / 1000 Ang^3
#
#
#
# Elastic Constant Matrix: (Units=GPa)
#
#
# Indices 1 2 3 4 5 6 
#
# 1 78.5488 54.0511 39.3364 0.0000 0.0000 0.0000
# 2 54.0511 78.5488 39.3364 0.0000 0.0000 0.0000
# 3 39.3364 39.3364 89.8549 0.0000 0.0000 0.0000
# 4 0.0000 0.0000 0.0000 15.4183 0.0000 0.0000
# 5 0.0000 0.0000 0.0000 0.0000 15.4183 0.0000
# 6 0.0000 0.0000 0.0000 0.0000 0.0000 25.7282
#
#
#
# Elastic Compliance Matrix: (Units=1/GPa)
#
#
# Indices 1 2 3 4 5 6 
#
# 1 0.025504 -0.015316 -0.004460 0.000000 0.000000 0.000000
# 2 -0.015316 0.025504 -0.004460 0.000000 0.000000 0.000000
# 3 -0.004460 -0.004460 0.015034 0.000000 0.000000 0.000000
# 4 0.000000 0.000000 0.000000 0.064858 0.000000 0.000000
# 5 0.000000 0.000000 0.000000 0.000000 0.064858 0.000000
# 6 0.000000 0.000000 0.000000 0.000000 0.000000 0.038868
#
#
# Mechanical properties :
#
#
# Convention : Reuss Voigt Hill
#
# Bulk Modulus (GPa) = 56.91674 56.93340 56.92507
# Shear Modulus (GPa) = 17.30376 18.92818 18.11597
#
# Velocity S-wave (km/s) = 3.43104 3.58848 3.51065
# Velocity P-wave (km/s) = 7.37683 7.47679 7.42698
#
# Compressibility (1/GPa) = 0.01756952
#
# Stress axis : x y z
#
# Youngs Moduli (GPa) = 39.20967 39.20967 66.51622
#
# Poissons Ratio (x) = 0.60055 0.29666
# Poissons Ratio (y) = 0.60055 0.29666
# Poissons Ratio (z) = 0.17487 0.17487
#
# Static dielectric constant tensor:
#      x y z
#    x 2.790680 0.000000 0.000000 
#    y 0.000000 2.790680 0.000000 
#    z 0.000000 0.000000 2.776320 
# 
# 
# High freq. dielectric constant tensor:
#      x y z
#    x 1.547080 0.000000 0.000000 
#    y 0.000000 1.547080 0.000000 
#    z 0.000000 0.000000 1.559230 
# 
# From -- ./inp_files/6721.got.cif
#   From: 2010.03.12/outbox.cif.g09.slc.cpg/sg123_4_cif.got.tgz:6721.got - 2010.04.06 16:26:55.
