data_PCOD8312320
_publ_section_title
;
Structure prediction by ZEFSAII (Michael W. Deem and Ramdas Pophale) SiO2 
 PCOD8312320
Probable space group: P 4/M M M
;
_chemical_formula_sum "Si O2"
_cell_formula_units_Z 112
_cell_length_a 21.840511
_cell_length_b 21.840511
_cell_length_c 15.645768
_cell_angle_alpha 90.000000
_cell_angle_beta 90.000000
_cell_angle_gamma 90.000000
_cell_volume 7463.155262
_symmetry_space_group_name_H-M "P 4/M M M"
_symmetry_group_IT_number 123
_symmetry_cell_setting 'tetragonal'
loop_
_space_group_symop_operation_xyz
x,y,z
-y,x,z
-x,-y,z
y,-x,z
x,-y,-z
-x,y,-z
y,x,-z
-y,-x,-z
-x,-y,-z
y,-x,-z
x,y,-z
-y,x,-z
-x,y,z
x,-y,z
-y,-x,z
y,x,z
loop_
_atom_site_type_symbol
_atom_site_label
_atom_site_fract_x
_atom_site_fract_y
_atom_site_fract_z
Si Si1 0.431775 0.336034 0.899356
Si Si2 0.070747 0.598879 0.903043
Si Si3 0.720565 0.137964 0.096432
Si Si4 0.932143 0.163638 0.101275
Si Si5 0.068025 0.427443 0.594182
Si Si6 0.656257 0.247187 0.190244
Si Si7 0.569210 0.847610 0.744719
O O1 0.500000 0.332663 0.858280
O O2 0.397963 0.397963 0.866888
O O3 0.391198 0.277102 0.876234
O O4 0.437733 0.336985 0.000000
O O5 0.083680 0.670983 0.899724
O O6 0.115747 0.566863 0.834915
O O7 0.000000 0.586025 0.878637
O O8 0.083968 0.574446 0.000000
O O9 0.781566 0.109623 0.138960
O O10 0.700092 0.198618 0.144992
O O11 0.733639 0.158898 0.000000
O O12 0.900881 0.099120 0.125054
O O13 0.000000 0.164511 0.141985
O O14 0.936694 0.172517 0.000000
O O15 0.092929 0.408216 0.500000
O O16 0.064835 0.500000 0.601189
O O17 0.110765 0.402236 0.669515
O O18 0.000000 0.400216 0.607281
O O19 0.699959 0.300042 0.231809
O O20 0.613376 0.211611 0.257486
O O21 0.500000 0.826491 0.724123
#
# Coordination Sequence:
#
# PCOD8312320 Si02
#       7
#    16  16  16  16  16  16  16
#     4   9  17  28  41  56  74  98 130 170 214 255
#     4   9  17  27  38  55  82 113 138 160 189 228
#     4   9  16  26  39  52  67  93 132 169 195 222
#     4   9  16  24  34  47  62  82 111 151 197 238
#     4   8  14  26  45  67  87 105 127 157 191 226
#     4  10  19  29  40  54  74 100 130 164 200 237
#     4  10  19  29  42  60  81 106 135 165 198 237
#
# _framework density 15.007058000000001
#
# number of rings (size 3 to 8) (size 9 to 14) (size 15 to 20)
#    0.000    2.857    0.000    2.571    0.000    5.143 
#    0.000    2.143    0.000    0.429    0.000    0.000 
#    0.000    0.000    0.000    0.000    0.000    0.000 
#
# Total GULP energy -1387771.955175 kJ/mol
# GULP energy per Si atom -12390.821028 kJ/mol
# Density = 1.497290 g / cm^3
# Si number density = 15.007058 Si / 1000 Ang^3
#
#
#
# Elastic Constant Matrix: (Units=GPa)
#
#
# Indices 1 2 3 4 5 6 
#
# 1 94.2357 48.5505 22.2624 0.0000 0.0000 0.0000
# 2 48.5505 94.2357 22.2624 0.0000 0.0000 0.0000
# 3 22.2624 22.2624 52.8410 0.0000 0.0000 0.0000
# 4 0.0000 0.0000 0.0000 10.6719 0.0000 0.0000
# 5 0.0000 0.0000 0.0000 0.0000 10.6719 0.0000
# 6 0.0000 0.0000 0.0000 0.0000 0.0000 22.1576
#
#
#
# Elastic Compliance Matrix: (Units=1/GPa)
#
#
# Indices 1 2 3 4 5 6 
#
# 1 0.014976 -0.006913 -0.003397 0.000000 0.000000 0.000000
# 2 -0.006913 0.014976 -0.003397 0.000000 0.000000 0.000000
# 3 -0.003397 -0.003397 0.021787 0.000000 0.000000 0.000000
# 4 0.000000 0.000000 0.000000 0.093704 0.000000 0.000000
# 5 0.000000 0.000000 0.000000 0.000000 0.093704 0.000000
# 6 0.000000 0.000000 0.000000 0.000000 0.000000 0.045131
#
#
# Mechanical properties :
#
#
# Convention : Reuss Voigt Hill
#
# Bulk Modulus (GPa) = 41.11021 47.49587 44.30304
# Shear Modulus (GPa) = 15.63481 18.58277 17.10879
#
# Velocity S-wave (km/s) = 3.23124 3.52272 3.38012
# Velocity P-wave (km/s) = 6.43231 6.94722 6.69472
#
# Compressibility (1/GPa) = 0.02432485
#
# Stress axis : x y z
#
# Youngs Moduli (GPa) = 66.77428 66.77428 45.89893
#
# Poissons Ratio (x) = 0.46162 0.15591
# Poissons Ratio (y) = 0.46162 0.15591
# Poissons Ratio (z) = 0.22683 0.22683
#
# Static dielectric constant tensor:
#      x y z
#    x 3.023660 0.000000 0.000000 
#    y 0.000000 3.023660 0.000000 
#    z 0.000000 0.000000 2.582280 
# 
# 
# High freq. dielectric constant tensor:
#      x y z
#    x 1.576000 0.000000 0.000000 
#    y 0.000000 1.576000 0.000000 
#    z 0.000000 0.000000 1.510540 
# 
# From -- ./inp_files/5899.got.cif
#   From: 2010.03.12/outbox.cif.g09.slc.cpg/sg123_3_cif.got.tgz:5899.got - 2010.04.06 16:26:55.
