data_PCOD8312066
_publ_section_title
;
Structure prediction by ZEFSAII (Michael W. Deem and Ramdas Pophale) SiO2 
 PCOD8312066
Probable space group: I -4 2 D
;
_chemical_formula_sum "Si O2"
_cell_formula_units_Z 56
_cell_length_a 13.671956
_cell_length_b 13.671956
_cell_length_c 14.120321
_cell_angle_alpha 90.000000
_cell_angle_beta 90.000000
_cell_angle_gamma 90.000000
_cell_volume 2639.404020
_symmetry_space_group_name_H-M "I -4 2 D"
_symmetry_group_IT_number 122
_symmetry_cell_setting 'tetragonal'
loop_
_space_group_symop_operation_xyz
x,y,z
y,-x,-z
-x,-y,z
-y,x,-z
x,1/2-y,1/4-z
-x,1/2+y,1/4-z
-y,1/2-x,1/4+z
y,1/2+x,1/4+z
1/2+x,1/2+y,1/2+z
1/2+y,1/2-x,1/2-z
1/2-x,1/2-y,1/2+z
1/2-y,1/2+x,1/2-z
1/2+x,-y,3/4-z
1/2-x,y,3/4-z
1/2-y,-x,3/4+z
1/2+y,x,3/4+z
loop_
_atom_site_type_symbol
_atom_site_label
_atom_site_fract_x
_atom_site_fract_y
_atom_site_fract_z
Si Si1 0.997362 0.613283 0.495184
Si Si2 0.804608 0.216891 0.731441
Si Si3 0.250000 0.622847 0.875000
Si Si4 0.917231 0.877668 0.961028
O O1 0.107796 0.649558 0.481743
O O2 0.000000 0.500000 0.520286
O O3 0.945420 0.666580 0.581814
O O4 0.937268 0.634552 0.399911
O O5 0.822954 0.250000 0.625000
O O6 0.801932 0.313144 0.795022
O O7 0.704202 0.157880 0.745062
O O8 0.016594 0.868366 0.021630
#
# Coordination Sequence:
#
# PCOD8312066 Si02
#       4
#    16  16   8  16
#     4  12  27  49  75 108 148 195 247 308 375 443
#     4  12  27  47  75 108 151 196 252 306 375 442
#     4  12  28  48  76 108 148 200 252 306 368 446
#     4  11  24  48  76 113 147 186 248 316 376 439
#
# _framework density 21.216911
#
# number of rings (size 3 to 8) (size 9 to 14) (size 15 to 20)
#    0.000    0.286    7.143    1.714    8.000    0.000 
#    0.000    0.000    0.000    0.000    0.000    0.000 
#    0.000    0.000    0.000    0.000    0.000    0.000 
#
# Total GULP energy -347458.582518 kJ/mol
# GULP energy per Si atom -12409.235090 kJ/mol
# Density = 2.116862 g / cm^3
# Si number density = 21.216911 Si / 1000 Ang^3
#
#
#
# Elastic Constant Matrix: (Units=GPa)
#
#
# Indices 1 2 3 4 5 6 
#
# 1 99.7220 45.4438 19.3220 0.0000 0.0000 0.0000
# 2 45.4438 99.7220 19.3220 0.0000 0.0000 0.0000
# 3 19.3220 19.3220 109.1749 0.0000 0.0000 0.0000
# 4 0.0000 0.0000 0.0000 39.2638 0.0000 0.0000
# 5 0.0000 0.0000 0.0000 0.0000 39.2638 0.0000
# 6 0.0000 0.0000 0.0000 0.0000 0.0000 45.0346
#
#
#
# Elastic Compliance Matrix: (Units=1/GPa)
#
#
# Indices 1 2 3 4 5 6 
#
# 1 0.012826 -0.005597 -0.001279 0.000000 0.000000 0.000000
# 2 -0.005597 0.012826 -0.001279 0.000000 0.000000 0.000000
# 3 -0.001279 -0.001279 0.009612 0.000000 0.000000 0.000000
# 4 0.000000 0.000000 0.000000 0.025469 0.000000 0.000000
# 5 0.000000 0.000000 0.000000 0.000000 0.025469 0.000000
# 6 0.000000 0.000000 0.000000 0.000000 0.000000 0.022205
#
#
# Mechanical properties :
#
#
# Convention : Reuss Voigt Hill
#
# Bulk Modulus (GPa) = 52.76147 52.97719 52.86933
# Shear Modulus (GPa) = 38.15692 39.68120 38.91906
#
# Velocity S-wave (km/s) = 4.24538 4.32935 4.28757
# Velocity P-wave (km/s) = 6.99662 7.07209 7.03446
#
# Compressibility (1/GPa) = 0.01895323
#
# Stress axis : x y z
#
# Youngs Moduli (GPa) = 77.96396 77.96396 104.03127
#
# Poissons Ratio (x) = 0.43638 0.13310
# Poissons Ratio (y) = 0.43638 0.13310
# Poissons Ratio (z) = 0.09975 0.09975
#
# Static dielectric constant tensor:
#      x y z
#    x 3.902270 0.000000 0.000000 
#    y 0.000000 3.902270 0.000000 
#    z 0.000000 0.000000 4.036330 
# 
# 
# High freq. dielectric constant tensor:
#      x y z
#    x 1.841220 0.000000 0.000000 
#    y 0.000000 1.841220 0.000000 
#    z 0.000000 0.000000 1.847970 
# 
# From -- ./inp_files/5078.got.cif
#   From: 2010.03.12/outbox.cif.g09.slc.cpg/sg122_3_cif.got.tgz:5078.got - 2010.04.06 16:17:16.
