data_PCOD8312473
_publ_section_title
;
Structure prediction by ZEFSAII (Michael W. Deem and Ramdas Pophale) SiO2 
 PCOD8312473
Probable space group: P 4/M M M
;
_chemical_formula_sum "Si O2"
_cell_formula_units_Z 56
_cell_length_a 12.705174
_cell_length_b 12.705174
_cell_length_c 19.741090
_cell_angle_alpha 90.000000
_cell_angle_beta 90.000000
_cell_angle_gamma 90.000000
_cell_volume 3186.635301
_symmetry_space_group_name_H-M "P 4/M M M"
_symmetry_group_IT_number 123
_symmetry_cell_setting 'tetragonal'
loop_
_space_group_symop_operation_xyz
x,y,z
-y,x,z
-x,-y,z
y,-x,z
x,-y,-z
-x,y,-z
y,x,-z
-y,-x,-z
-x,-y,-z
y,-x,-z
x,y,-z
-y,x,-z
-x,y,z
x,-y,z
-y,-x,z
y,x,z
loop_
_atom_site_type_symbol
_atom_site_label
_atom_site_fract_x
_atom_site_fract_y
_atom_site_fract_z
Si Si1 0.794859 0.621611 0.842928
Si Si2 0.875932 0.286037 0.711895
Si Si3 0.375127 0.000000 0.076379
Si Si4 0.382727 0.875312 0.426503
O O1 0.767342 0.500000 0.859440
O O2 0.692946 0.692946 0.859967
O O3 0.827903 0.629593 0.764175
O O4 0.893843 0.664400 0.886692
O O5 0.829232 0.170769 0.728844
O O6 0.835444 0.314602 0.636552
O O7 0.000000 0.282098 0.718976
O O8 0.500000 0.000000 0.077887
O O9 0.331025 0.000000 0.000000
O O10 0.334633 0.840878 0.500000
O O11 0.500000 0.828471 0.419859
O O12 0.388821 0.000000 0.422873
#
# Coordination Sequence:
#
# PCOD8312473 Si02
#       4
#    16  16   8  16
#     4  10  20  34  54  80 107 137 173 214 261 308
#     4  10  19  30  46  68  96 132 172 214 259 307
#     4   9  18  34  56  79 104 136 172 206 241 297
#     4   8  14  25  42  63  86 116 158 209 259 303
#
# _framework density 17.573395000000001
#
# number of rings (size 3 to 8) (size 9 to 14) (size 15 to 20)
#    0.000    2.714    1.429    1.714    0.000    2.857 
#    0.000    0.000    0.000    0.429    0.000    9.000 
#    0.000    0.000    0.000   26.571    0.000    1.429 
#
# Total GULP energy -693903.486166 kJ/mol
# GULP energy per Si atom -12391.133682 kJ/mol
# Density = 1.753340 g / cm^3
# Si number density = 17.573395 Si / 1000 Ang^3
#
#
#
# Elastic Constant Matrix: (Units=GPa)
#
#
# Indices 1 2 3 4 5 6 
#
# 1 79.1404 51.7577 31.8181 0.0000 0.0000 0.0000
# 2 51.7577 79.1404 31.8181 0.0000 0.0000 0.0000
# 3 31.8181 31.8181 112.0827 0.0000 0.0000 0.0000
# 4 0.0000 0.0000 0.0000 15.5747 0.0000 0.0000
# 5 0.0000 0.0000 0.0000 0.0000 15.5747 0.0000
# 6 0.0000 0.0000 0.0000 0.0000 0.0000 17.9166
#
#
#
# Elastic Compliance Matrix: (Units=1/GPa)
#
#
# Indices 1 2 3 4 5 6 
#
# 1 0.022691 -0.013828 -0.002516 0.000000 0.000000 0.000000
# 2 -0.013828 0.022691 -0.002516 0.000000 0.000000 0.000000
# 3 -0.002516 -0.002516 0.010350 0.000000 0.000000 0.000000
# 4 0.000000 0.000000 0.000000 0.064207 0.000000 0.000000
# 5 0.000000 0.000000 0.000000 0.000000 0.064207 0.000000
# 6 0.000000 0.000000 0.000000 0.000000 0.000000 0.055814
#
#
# Mechanical properties :
#
#
# Convention : Reuss Voigt Hill
#
# Bulk Modulus (GPa) = 55.51855 55.68348 55.60101
# Shear Modulus (GPa) = 17.62519 20.14449 18.88484
#
# Velocity S-wave (km/s) = 3.17037 3.38939 3.28171
# Velocity P-wave (km/s) = 6.71287 6.86092 6.78730
#
# Compressibility (1/GPa) = 0.01801200
#
# Stress axis : x y z
#
# Youngs Moduli (GPa) = 44.07036 44.07036 96.61429
#
# Poissons Ratio (x) = 0.60942 0.24308
# Poissons Ratio (y) = 0.60942 0.24308
# Poissons Ratio (z) = 0.11088 0.11088
#
# Static dielectric constant tensor:
#      x y z
#    x 3.017990 0.000000 0.000000 
#    y 0.000000 3.017990 0.000000 
#    z 0.000000 0.000000 3.640480 
# 
# 
# High freq. dielectric constant tensor:
#      x y z
#    x 1.654300 0.000000 0.000000 
#    y 0.000000 1.654300 0.000000 
#    z 0.000000 0.000000 1.694680 
# 
# From -- ./inp_files/6092.got.cif
#   From: 2010.03.12/outbox.cif.g09.slc.cpg/sg123_4_cif.got.tgz:6092.got - 2010.04.06 16:26:55.
