data_PCOD8312577
_publ_section_title
;
Structure prediction by ZEFSAII (Michael W. Deem and Ramdas Pophale) SiO2 
 PCOD8312577
Probable space group: P 4/M M M
;
_chemical_formula_sum "Si O2"
_cell_formula_units_Z 64
_cell_length_a 20.867403
_cell_length_b 20.867403
_cell_length_c 8.755157
_cell_angle_alpha 90.000000
_cell_angle_beta 90.000000
_cell_angle_gamma 90.000000
_cell_volume 3812.420053
_symmetry_space_group_name_H-M "P 4/M M M"
_symmetry_group_IT_number 123
_symmetry_cell_setting 'tetragonal'
loop_
_space_group_symop_operation_xyz
x,y,z
-y,x,z
-x,-y,z
y,-x,z
x,-y,-z
-x,y,-z
y,x,-z
-y,-x,-z
-x,-y,-z
y,-x,-z
x,y,-z
-y,x,-z
-x,y,z
x,-y,z
-y,-x,z
y,x,z
loop_
_atom_site_type_symbol
_atom_site_label
_atom_site_fract_x
_atom_site_fract_y
_atom_site_fract_z
Si Si1 0.500000 0.111554 0.322792
Si Si2 0.286220 0.185094 0.821581
Si Si3 0.244719 0.500000 0.827317
Si Si4 0.718514 0.617620 0.330389
Si Si5 0.640706 0.073399 0.321882
O O1 0.500000 0.094944 0.500000
O O2 0.500000 0.186316 0.290030
O O3 0.567704 0.084001 0.255721
O O4 0.213016 0.213016 0.793681
O O5 0.333622 0.228083 0.724498
O O6 0.302631 0.113263 0.764244
O O7 0.302618 0.189818 0.000000
O O8 0.287896 0.561172 0.791652
O O9 0.219886 0.500000 0.000000
O O10 0.737641 0.593376 0.500000
O O11 0.649329 0.649329 0.334761
O O12 0.642095 0.092092 0.500000
O O13 0.659561 0.000000 0.294867
#
# Coordination Sequence:
#
# PCOD8312577 Si02
#       5
#     8  16   8  16  16
#     4  10  19  32  48  68  98 136 171 202 237 285
#     4  10  20  33  49  71  99 129 163 206 251 289
#     4  12  22  31  49  74 100 125 157 202 250 295
#     4  10  20  34  52  71  92 123 162 203 248 296
#     4  10  20  33  50  72 100 136 173 207 245 289
#
# _framework density 16.787237000000001
#
# number of rings (size 3 to 8) (size 9 to 14) (size 15 to 20)
#    0.000    1.750    2.500    3.000    0.000    5.000 
#    0.000    0.000    0.000    2.625    0.000    2.625 
#    0.000    0.500    0.000    5.500    0.000    4.000 
#
# Total GULP energy -792906.894407 kJ/mol
# GULP energy per Si atom -12389.170225 kJ/mol
# Density = 1.674903 g / cm^3
# Si number density = 16.787237 Si / 1000 Ang^3
#
#
#
# Elastic Constant Matrix: (Units=GPa)
#
#
# Indices 1 2 3 4 5 6 
#
# 1 83.3505 45.4064 24.8187 0.0000 0.0000 0.0000
# 2 45.4064 83.3505 24.8187 0.0000 0.0000 0.0000
# 3 24.8187 24.8187 48.1365 0.0000 0.0000 0.0000
# 4 0.0000 0.0000 0.0000 16.4062 0.0000 0.0000
# 5 0.0000 0.0000 0.0000 0.0000 16.4062 0.0000
# 6 0.0000 0.0000 0.0000 0.0000 0.0000 16.9019
#
#
#
# Elastic Compliance Matrix: (Units=1/GPa)
#
#
# Indices 1 2 3 4 5 6 
#
# 1 0.018024 -0.008331 -0.004998 0.000000 0.000000 0.000000
# 2 -0.008331 0.018024 -0.004998 0.000000 0.000000 0.000000
# 3 -0.004998 -0.004998 0.025928 0.000000 0.000000 0.000000
# 4 0.000000 0.000000 0.000000 0.060953 0.000000 0.000000
# 5 0.000000 0.000000 0.000000 0.000000 0.060953 0.000000
# 6 0.000000 0.000000 0.000000 0.000000 0.000000 0.059165
#
#
# Mechanical properties :
#
#
# Convention : Reuss Voigt Hill
#
# Bulk Modulus (GPa) = 39.48920 44.99165 42.24043
# Shear Modulus (GPa) = 17.35272 17.92910 17.64091
#
# Velocity S-wave (km/s) = 3.21859 3.27160 3.24520
# Velocity P-wave (km/s) = 6.11447 6.41330 6.26567
#
# Compressibility (1/GPa) = 0.02532338
#
# Stress axis : x y z
#
# Youngs Moduli (GPa) = 55.48189 55.48189 38.56860
#
# Poissons Ratio (x) = 0.46220 0.19276
# Poissons Ratio (y) = 0.46220 0.19276
# Poissons Ratio (z) = 0.27728 0.27728
#
# Static dielectric constant tensor:
#      x y z
#    x 3.250870 0.000000 0.000000 
#    y 0.000000 3.250870 0.000000 
#    z 0.000000 0.000000 3.186180 
# 
# 
# High freq. dielectric constant tensor:
#      x y z
#    x 1.625980 0.000000 0.000000 
#    y 0.000000 1.625980 0.000000 
#    z 0.000000 0.000000 1.651640 
# 
# From -- ./inp_files/905.got.cif
#   From: 2010.03.12/outbox.cif.g09.slc.cpg/sg123_1_cif.got.tgz:905.got - 2010.04.06 16:26:55.
