data_PCOD8312224
_publ_section_title
;
Structure prediction by ZEFSAII (Michael W. Deem and Ramdas Pophale) SiO2 
 PCOD8312224
Probable space group: P 4/M M M
;
_chemical_formula_sum "Si O2"
_cell_formula_units_Z 112
_cell_length_a 17.102874
_cell_length_b 17.102874
_cell_length_c 24.504430
_cell_angle_alpha 90.000000
_cell_angle_beta 90.000000
_cell_angle_gamma 90.000000
_cell_volume 7167.749139
_symmetry_space_group_name_H-M "P 4/M M M"
_symmetry_group_IT_number 123
_symmetry_cell_setting 'tetragonal'
loop_
_space_group_symop_operation_xyz
x,y,z
-y,x,z
-x,-y,z
y,-x,z
x,-y,-z
-x,y,-z
y,x,-z
-y,-x,-z
-x,-y,-z
y,-x,-z
x,y,-z
-y,x,-z
-x,y,z
x,-y,z
-y,-x,z
y,x,z
loop_
_atom_site_type_symbol
_atom_site_label
_atom_site_fract_x
_atom_site_fract_y
_atom_site_fract_z
Si Si1 0.086266 0.792686 0.200002
Si Si2 0.086899 0.211019 0.671156
Si Si3 0.675779 0.197492 0.853622
Si Si4 0.716264 0.589450 0.561559
Si Si5 0.590551 0.911661 0.063600
Si Si6 0.280454 0.409653 0.240088
Si Si7 0.206101 0.663318 0.659425
O O1 0.131376 0.868625 0.176541
O O2 0.081981 0.798263 0.264468
O O3 0.132817 0.714797 0.184980
O O4 0.000000 0.790879 0.173829
O O5 0.141965 0.141965 0.646717
O O6 0.120454 0.297512 0.657907
O O7 0.000000 0.204025 0.645463
O O8 0.739409 0.260592 0.874562
O O9 0.639137 0.154406 0.905335
O O10 0.609935 0.240223 0.817661
O O11 0.747235 0.603156 0.500000
O O12 0.694294 0.500000 0.572078
O O13 0.637241 0.637241 0.572934
O O14 0.783684 0.616377 0.602971
O O15 0.500000 0.900775 0.078202
O O16 0.616694 0.000000 0.079873
O O17 0.605547 0.898019 0.000000
O O18 0.304955 0.500000 0.240394
O O19 0.358737 0.358737 0.248619
O O20 0.218781 0.393855 0.289047
O O21 0.266508 0.733493 0.665920
#
# Coordination Sequence:
#
# PCOD8312224 Si02
#       7
#    16  16  16  16  16  16  16
#     4   9  16  26  41  62  88 116 143 172 207 248
#     4   9  16  27  44  65  90 117 144 177 216 256
#     4  10  18  29  45  65  89 116 146 176 211 260
#     4   9  17  28  44  66  89 116 150 187 227 268
#     4   9  18  32  48  65  86 112 142 180 224 262
#     4  10  19  30  45  64  86 115 147 180 220 261
#     4   9  16  29  45  62  88 119 149 180 215 258
#
# _framework density 15.625546999999999
#
# number of rings (size 3 to 8) (size 9 to 14) (size 15 to 20)
#    0.000    2.714    1.429    1.714    0.000    0.857 
#    0.000    2.143    0.000    5.571    0.000    1.000 
#    0.000    0.000    0.000   32.143    0.000    0.286 
#
# Total GULP energy -1388357.888052 kJ/mol
# GULP energy per Si atom -12396.052572 kJ/mol
# Density = 1.558998 g / cm^3
# Si number density = 15.625547 Si / 1000 Ang^3
#
#
#
# Elastic Constant Matrix: (Units=GPa)
#
#
# Indices 1 2 3 4 5 6 
#
# 1 96.0085 54.4509 36.0935 0.0000 0.0000 0.0000
# 2 54.4509 96.0085 36.0935 0.0000 0.0000 0.0000
# 3 36.0935 36.0935 59.8033 0.0000 0.0000 0.0000
# 4 0.0000 0.0000 0.0000 19.4775 0.0000 0.0000
# 5 0.0000 0.0000 0.0000 0.0000 19.4775 0.0000
# 6 0.0000 0.0000 0.0000 0.0000 0.0000 19.4810
#
#
#
# Elastic Compliance Matrix: (Units=1/GPa)
#
#
# Indices 1 2 3 4 5 6 
#
# 1 0.016709 -0.007354 -0.005646 0.000000 0.000000 0.000000
# 2 -0.007354 0.016709 -0.005646 0.000000 0.000000 0.000000
# 3 -0.005646 -0.005646 0.023537 0.000000 0.000000 0.000000
# 4 0.000000 0.000000 0.000000 0.051341 0.000000 0.000000
# 5 0.000000 0.000000 0.000000 0.000000 0.051341 0.000000
# 6 0.000000 0.000000 0.000000 0.000000 0.000000 0.051332
#
#
# Mechanical properties :
#
#
# Convention : Reuss Voigt Hill
#
# Bulk Modulus (GPa) = 50.85838 56.12180 53.49009
# Shear Modulus (GPa) = 19.62195 20.03269 19.82732
#
# Velocity S-wave (km/s) = 3.54752 3.58445 3.56603
# Velocity P-wave (km/s) = 7.02842 7.28874 7.15976
#
# Compressibility (1/GPa) = 0.01966244
#
# Stress axis : x y z
#
# Youngs Moduli (GPa) = 59.84758 59.84758 42.48648
#
# Poissons Ratio (x) = 0.44011 0.23989
# Poissons Ratio (y) = 0.44011 0.23989
# Poissons Ratio (z) = 0.33791 0.33791
#
# Static dielectric constant tensor:
#      x y z
#    x 3.036680 0.000000 0.000000 
#    y 0.000000 3.036680 0.000000 
#    z 0.000000 0.000000 2.819520 
# 
# 
# High freq. dielectric constant tensor:
#      x y z
#    x 1.593890 0.000000 0.000000 
#    y 0.000000 1.593890 0.000000 
#    z 0.000000 0.000000 1.578110 
# 
# From -- ./inp_files/6661.got.cif
#   From: 2010.03.12/outbox.cif.g09.slc.cpg/sg123_4_cif.got.tgz:6661.got - 2010.04.06 16:26:55.
