data_PCOD8312775
_publ_section_title
;
Structure prediction by ZEFSAII (Michael W. Deem and Ramdas Pophale) SiO2 
 PCOD8312775
Probable space group: P 4/M M M
;
_chemical_formula_sum "Si O2"
_cell_formula_units_Z 72
_cell_length_a 13.560982
_cell_length_b 13.560982
_cell_length_c 23.229784
_cell_angle_alpha 90.000000
_cell_angle_beta 90.000000
_cell_angle_gamma 90.000000
_cell_volume 4271.962686
_symmetry_space_group_name_H-M "P 4/M M M"
_symmetry_group_IT_number 123
_symmetry_cell_setting 'tetragonal'
loop_
_space_group_symop_operation_xyz
x,y,z
-y,x,z
-x,-y,z
y,-x,z
x,-y,-z
-x,y,-z
y,x,-z
-y,-x,-z
-x,-y,-z
y,-x,-z
x,y,-z
-y,x,-z
-x,y,z
x,-y,z
-y,-x,z
y,x,z
loop_
_atom_site_type_symbol
_atom_site_label
_atom_site_fract_x
_atom_site_fract_y
_atom_site_fract_z
Si Si1 0.116545 0.610412 0.500000
Si Si2 0.113865 0.728437 0.063440
Si Si3 0.615758 0.889410 0.174237
Si Si4 0.616472 0.224357 0.712757
Si Si5 0.116419 0.722760 0.614297
O O1 0.162873 0.500000 0.500000
O O2 0.151735 0.669830 0.555929
O O3 0.000000 0.601018 0.500000
O O4 0.168084 0.831917 0.070184
O O5 0.151286 0.655181 0.113246
O O6 0.000000 0.752542 0.071273
O O7 0.134649 0.681398 0.000000
O O8 0.500000 0.891118 0.169195
O O9 0.649142 0.817640 0.225328
O O10 0.655415 0.000000 0.186852
O O11 0.500000 0.243128 0.708339
O O12 0.672158 0.327843 0.702299
O O13 0.648813 0.143665 0.665850
O O14 0.173435 0.826565 0.620611
O O15 0.000000 0.744935 0.614922
#
# Coordination Sequence:
#
# PCOD8312775 Si02
#       5
#     8  16  16  16  16
#     4   9  17  30  49  71  95 125 161 199 234 269
#     4   9  17  28  42  61  86 116 148 182 220 263
#     4   9  17  29  46  67  89 114 146 185 229 276
#     4  10  20  33  50  71  94 122 156 194 237 284
#     4  10  20  33  50  73 100 130 164 200 239 284
#
# _framework density 16.85408
#
# number of rings (size 3 to 8) (size 9 to 14) (size 15 to 20)
#    0.000    2.556    0.000    2.333    0.000    3.333 
#    0.000    3.333    0.000    2.000    0.000    3.111 
#    0.000    8.000    0.000   20.667    0.000    0.444 
#
# Total GULP energy -892605.272278 kJ/mol
# GULP energy per Si atom -12397.295448 kJ/mol
# Density = 1.681572 g / cm^3
# Si number density = 16.854080 Si / 1000 Ang^3
#
#
#
# Elastic Constant Matrix: (Units=GPa)
#
#
# Indices 1 2 3 4 5 6 
#
# 1 64.7969 35.2271 40.8327 0.0000 0.0000 0.0000
# 2 35.2271 64.7969 40.8327 0.0000 0.0000 0.0000
# 3 40.8327 40.8327 136.9413 0.0000 0.0000 0.0000
# 4 0.0000 0.0000 0.0000 25.2986 0.0000 0.0000
# 5 0.0000 0.0000 0.0000 0.0000 25.2986 0.0000
# 6 0.0000 0.0000 0.0000 0.0000 0.0000 18.0567
#
#
#
# Elastic Compliance Matrix: (Units=1/GPa)
#
#
# Indices 1 2 3 4 5 6 
#
# 1 0.023517 -0.010302 -0.003940 0.000000 0.000000 0.000000
# 2 -0.010302 0.023517 -0.003940 0.000000 0.000000 0.000000
# 3 -0.003940 -0.003940 0.009652 0.000000 0.000000 0.000000
# 4 0.000000 0.000000 0.000000 0.039528 0.000000 0.000000
# 5 0.000000 0.000000 0.000000 0.000000 0.039528 0.000000
# 6 0.000000 0.000000 0.000000 0.000000 0.000000 0.055381
#
#
# Mechanical properties :
#
#
# Convention : Reuss Voigt Hill
#
# Bulk Modulus (GPa) = 49.21171 55.59111 52.40141
# Shear Modulus (GPa) = 21.34377 23.70697 22.52537
#
# Velocity S-wave (km/s) = 3.56249 3.75454 3.65977
# Velocity P-wave (km/s) = 6.79587 7.20075 7.00124
#
# Compressibility (1/GPa) = 0.02032037
#
# Stress axis : x y z
#
# Youngs Moduli (GPa) = 42.52327 42.52327 103.60315
#
# Poissons Ratio (x) = 0.43807 0.40823
# Poissons Ratio (y) = 0.43807 0.40823
# Poissons Ratio (z) = 0.16756 0.16756
#
# Static dielectric constant tensor:
#      x y z
#    x 3.014240 0.000000 0.000000 
#    y 0.000000 3.014240 0.000000 
#    z 0.000000 0.000000 3.517470 
# 
# 
# High freq. dielectric constant tensor:
#      x y z
#    x 1.635520 0.000000 0.000000 
#    y 0.000000 1.635520 0.000000 
#    z 0.000000 0.000000 1.670750 
# 
# From -- ./inp_files/7784.got.cif
#   From: 2010.03.12/outbox.cif.g09.slc.cpg/sg123_4_cif.got.tgz:7784.got - 2010.04.06 16:26:55.
