data_PCOD8312456
_publ_section_title
;
Structure prediction by ZEFSAII (Michael W. Deem and Ramdas Pophale) SiO2 
 PCOD8312456
Probable space group: P 4/M M M
;
_chemical_formula_sum "Si O2"
_cell_formula_units_Z 64
_cell_length_a 13.514366
_cell_length_b 13.514366
_cell_length_c 20.844697
_cell_angle_alpha 90.000000
_cell_angle_beta 90.000000
_cell_angle_gamma 90.000000
_cell_volume 3807.035613
_symmetry_space_group_name_H-M "P 4/M M M"
_symmetry_group_IT_number 123
_symmetry_cell_setting 'tetragonal'
loop_
_space_group_symop_operation_xyz
x,y,z
-y,x,z
-x,-y,z
y,-x,z
x,-y,-z
-x,y,-z
y,x,-z
-y,-x,-z
-x,-y,-z
y,-x,-z
x,y,-z
-y,x,-z
-x,y,z
x,-y,z
-y,-x,z
y,x,z
loop_
_atom_site_type_symbol
_atom_site_label
_atom_site_fract_x
_atom_site_fract_y
_atom_site_fract_z
Si Si1 0.110405 0.382717 0.126331
Si Si2 0.111484 0.269063 0.500000
Si Si3 0.115785 0.279427 0.639400
Si Si4 0.384453 0.775685 0.747820
Si Si5 0.224969 0.383235 0.000000
O O1 0.103186 0.500000 0.127325
O O2 0.171417 0.345633 0.187746
O O3 0.164063 0.347285 0.061826
O O4 0.000000 0.336973 0.128264
O O5 0.166070 0.166070 0.500000
O O6 0.134868 0.325366 0.567309
O O7 0.000000 0.234952 0.500000
O O8 0.178409 0.178409 0.649978
O O9 0.151339 0.363266 0.688507
O O10 0.000000 0.255994 0.650651
O O11 0.500000 0.751168 0.750859
O O12 0.327743 0.672258 0.739240
O O13 0.244355 0.500000 0.000000
O O14 0.331837 0.331837 0.000000
#
# Coordination Sequence:
#
# PCOD8312456 Si02
#       5
#    16   8  16  16   8
#     4   9  17  30  48  68  90 117 149 187 231 276
#     4   8  14  25  41  63  92 122 152 188 229 276
#     4   9  17  29  46  69  96 125 156 190 231 279
#     4  10  20  33  49  69  93 122 156 194 236 282
#     4  10  19  30  45  67  96 128 161 195 230 271
#
# _framework density 16.810981000000002
#
# number of rings (size 3 to 8) (size 9 to 14) (size 15 to 20)
#    0.000    2.750    0.000    1.875    0.000    3.750 
#    0.000    3.125    0.000    6.750    0.000    0.000 
#    0.000   24.000    0.000    0.000    0.000    0.000 
#
# Total GULP energy -793137.535540 kJ/mol
# GULP energy per Si atom -12392.773993 kJ/mol
# Density = 1.677272 g / cm^3
# Si number density = 16.810981 Si / 1000 Ang^3
#
#
#
# Elastic Constant Matrix: (Units=GPa)
#
#
# Indices 1 2 3 4 5 6 
#
# 1 72.9260 32.8491 42.4006 0.0000 0.0000 0.0000
# 2 32.8491 72.9260 42.4006 0.0000 0.0000 0.0000
# 3 42.4006 42.4006 155.9966 0.0000 0.0000 0.0000
# 4 0.0000 0.0000 0.0000 24.9499 0.0000 0.0000
# 5 0.0000 0.0000 0.0000 0.0000 24.9499 0.0000
# 6 0.0000 0.0000 0.0000 0.0000 0.0000 11.8645
#
#
#
# Elastic Compliance Matrix: (Units=1/GPa)
#
#
# Indices 1 2 3 4 5 6 
#
# 1 0.018520 -0.006432 -0.003286 0.000000 0.000000 0.000000
# 2 -0.006432 0.018520 -0.003286 0.000000 0.000000 0.000000
# 3 -0.003286 -0.003286 0.008196 0.000000 0.000000 0.000000
# 4 0.000000 0.000000 0.000000 0.040080 0.000000 0.000000
# 5 0.000000 0.000000 0.000000 0.000000 0.040080 0.000000
# 6 0.000000 0.000000 0.000000 0.000000 0.000000 0.084285
#
#
# Mechanical properties :
#
#
# Convention : Reuss Voigt Hill
#
# Bulk Modulus (GPa) = 52.00123 59.68325 55.84224
# Shear Modulus (GPa) = 20.65273 24.63275 22.64274
#
# Velocity S-wave (km/s) = 3.50884 3.83205 3.67400
# Velocity P-wave (km/s) = 6.88592 7.42691 7.16153
#
# Compressibility (1/GPa) = 0.01923031
#
# Stress axis : x y z
#
# Youngs Moduli (GPa) = 53.99549 53.99549 122.00343
#
# Poissons Ratio (x) = 0.34729 0.40086
# Poissons Ratio (y) = 0.34729 0.40086
# Poissons Ratio (z) = 0.17741 0.17741
#
# Static dielectric constant tensor:
#      x y z
#    x 2.924100 0.000000 0.000000 
#    y 0.000000 2.924100 0.000000 
#    z 0.000000 0.000000 3.653070 
# 
# 
# High freq. dielectric constant tensor:
#      x y z
#    x 1.624890 0.000000 0.000000 
#    y 0.000000 1.624890 0.000000 
#    z 0.000000 0.000000 1.674730 
# 
# From -- ./inp_files/4954.got.cif
#   From: 2010.03.12/outbox.cif.g09.slc.cpg/sg123_3_cif.got.tgz:4954.got - 2010.04.06 16:26:55.
