data_PCOD8312921
_publ_section_title
;
Structure prediction by ZEFSAII (Michael W. Deem and Ramdas Pophale) SiO2 
 PCOD8312921
Probable space group: P 4/M M M
;
_chemical_formula_sum "Si O2"
_cell_formula_units_Z 56
_cell_length_a 19.461468
_cell_length_b 19.461468
_cell_length_c 7.715859
_cell_angle_alpha 90.000000
_cell_angle_beta 90.000000
_cell_angle_gamma 90.000000
_cell_volume 2922.371849
_symmetry_space_group_name_H-M "P 4/M M M"
_symmetry_group_IT_number 123
_symmetry_cell_setting 'tetragonal'
loop_
_space_group_symop_operation_xyz
x,y,z
-y,x,z
-x,-y,z
y,-x,z
x,-y,-z
-x,y,-z
y,x,-z
-y,-x,-z
-x,-y,-z
y,-x,-z
x,y,-z
-y,x,-z
-x,y,z
x,-y,z
-y,-x,z
y,x,z
loop_
_atom_site_type_symbol
_atom_site_label
_atom_site_fract_x
_atom_site_fract_y
_atom_site_fract_z
Si Si1 0.078603 0.706373 0.193642
Si Si2 0.837687 0.422283 0.295835
Si Si3 0.575627 0.317045 0.293877
Si Si4 0.194314 0.918344 0.500000
O O1 0.115751 0.633207 0.201571
O O2 0.105529 0.762395 0.331294
O O3 0.000000 0.690605 0.237309
O O4 0.087984 0.736835 0.000000
O O5 0.844466 0.412207 0.500000
O O6 0.859928 0.500000 0.244305
O O7 0.760046 0.408420 0.232446
O O8 0.577915 0.319797 0.500000
O O9 0.500000 0.339418 0.228927
O O10 0.631580 0.368421 0.211373
O O11 0.122131 0.877870 0.500000
O O12 0.178352 0.000000 0.500000
#
# Coordination Sequence:
#
# PCOD8312921 Si02
#       4
#    16  16  16   8
#     4  10  21  37  57  83 114 146 183 225 269 321
#     4   9  17  30  48  74 110 148 186 229 275 322
#     4   8  14  24  39  62  93 130 173 220 268 316
#     4  10  22  41  63  87 115 145 178 222 276 332
#
# _framework density 19.162517000000001
#
# number of rings (size 3 to 8) (size 9 to 14) (size 15 to 20)
#    0.000    2.857    1.429    1.714    0.000    3.286 
#    0.000    4.286    0.000    0.000    0.000    4.000 
#    0.000    0.000    0.000    6.286    0.000    6.286 
#
# Total GULP energy -694153.855921 kJ/mol
# GULP energy per Si atom -12395.604570 kJ/mol
# Density = 1.911890 g / cm^3
# Si number density = 19.162517 Si / 1000 Ang^3
#
#
#
# Elastic Constant Matrix: (Units=GPa)
#
#
# Indices 1 2 3 4 5 6 
#
# 1 94.6924 65.8077 34.1851 0.0000 0.0000 0.0000
# 2 65.8077 94.6879 34.1843 0.0000 0.0000 0.0000
# 3 34.1851 34.1843 79.5900 0.0000 0.0000 0.0000
# 4 0.0000 0.0000 0.0000 7.3504 0.0000 0.0000
# 5 0.0000 0.0000 0.0000 0.0000 7.3497 0.0000
# 6 0.0000 0.0000 0.0000 0.0000 0.0000 41.3836
#
#
#
# Elastic Compliance Matrix: (Units=1/GPa)
#
#
# Indices 1 2 3 4 5 6 
#
# 1 0.021124 -0.013499 -0.003275 0.000000 0.000000 0.000000
# 2 -0.013499 0.021125 -0.003275 0.000000 0.000000 0.000000
# 3 -0.003275 -0.003275 0.015378 0.000000 0.000000 0.000000
# 4 0.000000 0.000000 0.000000 0.136047 0.000000 0.000000
# 5 0.000000 0.000000 0.000000 0.000000 0.136061 0.000000
# 6 0.000000 0.000000 0.000000 0.000000 0.000000 0.024164
#
#
# Mechanical properties :
#
#
# Convention : Reuss Voigt Hill
#
# Bulk Modulus (GPa) = 57.05089 59.70272 58.37680
# Shear Modulus (GPa) = 12.50498 20.20295 16.35397
#
# Velocity S-wave (km/s) = 2.55733 3.25051 2.92453
# Velocity P-wave (km/s) = 6.20940 6.73138 6.47565
#
# Compressibility (1/GPa) = 0.01752821
#
# Stress axis : x y z
#
# Youngs Moduli (GPa) = 47.33961 47.33736 65.02789
#
# Poissons Ratio (x) = 0.63899 0.21299
# Poissons Ratio (y) = 0.63902 0.21299
# Poissons Ratio (z) = 0.15505 0.15505
#
# Static dielectric constant tensor:
#      x y z
#    x 3.560810 0.000000 0.000000 
#    y 0.000000 3.560810 0.000000 
#    z 0.000000 0.000000 3.385300 
# 
# 
# High freq. dielectric constant tensor:
#      x y z
#    x 1.737070 0.000000 0.000000 
#    y 0.000000 1.737070 0.000000 
#    z 0.000000 0.000000 1.733450 
# 
# From -- ./inp_files/585.got.cif
#   From: 2010.03.12/outbox.cif.g09.slc.cpg/sg123_1_cif.got.tgz:585.got - 2010.04.06 16:26:55.
