data_PCOD8312574
_publ_section_title
;
Structure prediction by ZEFSAII (Michael W. Deem and Ramdas Pophale) SiO2 
 PCOD8312574
Probable space group: P 4/M M M
;
_chemical_formula_sum "Si O2"
_cell_formula_units_Z 96
_cell_length_a 17.834392
_cell_length_b 17.834392
_cell_length_c 18.444212
_cell_angle_alpha 90.000000
_cell_angle_beta 90.000000
_cell_angle_gamma 90.000000
_cell_volume 5866.468213
_symmetry_space_group_name_H-M "P 4/M M M"
_symmetry_group_IT_number 123
_symmetry_cell_setting 'tetragonal'
loop_
_space_group_symop_operation_xyz
x,y,z
-y,x,z
-x,-y,z
y,-x,z
x,-y,-z
-x,y,-z
y,x,-z
-y,-x,-z
-x,-y,-z
y,-x,-z
x,y,-z
-y,x,-z
-x,y,z
x,-y,z
-y,-x,z
y,x,z
loop_
_atom_site_type_symbol
_atom_site_label
_atom_site_fract_x
_atom_site_fract_y
_atom_site_fract_z
Si Si1 0.856949 0.637937 0.417598
Si Si2 0.414963 0.084806 0.724450
Si Si3 0.294392 0.413121 0.356894
Si Si4 0.083561 0.200561 0.585591
Si Si5 0.294342 0.585840 0.081546
Si Si6 0.653038 0.772464 0.218018
O O1 0.882218 0.620844 0.500000
O O2 0.904200 0.586077 0.362721
O O3 0.768852 0.622403 0.408717
O O4 0.872955 0.723482 0.395141
O O5 0.500000 0.102718 0.750664
O O6 0.353478 0.139389 0.762248
O O7 0.392955 0.000000 0.744669
O O8 0.304484 0.500000 0.374168
O O9 0.372503 0.372503 0.374702
O O10 0.272165 0.401478 0.272819
O O11 0.077420 0.192090 0.500000
O O12 0.131034 0.131034 0.618114
O O13 0.000000 0.200616 0.619956
O O14 0.306619 0.500000 0.102111
O O15 0.375063 0.624938 0.089409
O O16 0.235731 0.623879 0.136125
O O17 0.262236 0.595305 0.000000
O O18 0.737797 0.737797 0.224989
#
# Coordination Sequence:
#
# PCOD8312574 Si02
#       6
#    16  16  16  16  16  16
#     4  10  19  32  47  62  83 109 141 178 216 264
#     4  10  20  32  47  67  89 113 141 178 225 267
#     4  10  20  32  47  65  84 111 145 181 222 263
#     4   9  17  28  42  60  81 104 129 160 199 244
#     4   9  16  25  40  63  90 121 154 187 222 257
#     4   9  17  31  48  65  88 117 151 183 212 258
#
# _framework density 16.364189
#
# number of rings (size 3 to 8) (size 9 to 14) (size 15 to 20)
#    0.000    2.500    0.000    4.000    0.000    4.500 
#    0.000    2.500    0.000    3.500    0.000    3.500 
#    0.000    0.333    0.000    0.000    0.000    0.000 
#
# Total GULP energy -1189902.920768 kJ/mol
# GULP energy per Si atom -12394.822091 kJ/mol
# Density = 1.632694 g / cm^3
# Si number density = 16.364189 Si / 1000 Ang^3
#
#
#
# Elastic Constant Matrix: (Units=GPa)
#
#
# Indices 1 2 3 4 5 6 
#
# 1 110.4788 70.7571 23.3395 0.0000 0.0000 0.0000
# 2 70.7571 110.4788 23.3395 0.0000 0.0000 0.0000
# 3 23.3395 23.3395 62.5818 0.0000 0.0000 0.0000
# 4 0.0000 0.0000 0.0000 12.5644 0.0000 0.0000
# 5 0.0000 0.0000 0.0000 0.0000 12.5644 0.0000
# 6 0.0000 0.0000 0.0000 0.0000 0.0000 23.8696
#
#
#
# Elastic Compliance Matrix: (Units=1/GPa)
#
#
# Indices 1 2 3 4 5 6 
#
# 1 0.015640 -0.009536 -0.002276 0.000000 0.000000 0.000000
# 2 -0.009536 0.015640 -0.002276 0.000000 0.000000 0.000000
# 3 -0.002276 -0.002276 0.017677 0.000000 0.000000 0.000000
# 4 0.000000 0.000000 0.000000 0.079590 0.000000 0.000000
# 5 0.000000 0.000000 0.000000 0.000000 0.079590 0.000000
# 6 0.000000 0.000000 0.000000 0.000000 0.000000 0.041894
#
#
# Mechanical properties :
#
#
# Convention : Reuss Voigt Hill
#
# Bulk Modulus (GPa) = 48.12490 57.60129 52.86309
# Shear Modulus (GPa) = 17.53563 20.87323 19.20443
#
# Velocity S-wave (km/s) = 3.27706 3.57535 3.42945
# Velocity P-wave (km/s) = 6.61750 7.23327 6.93223
#
# Compressibility (1/GPa) = 0.02077927
#
# Stress axis : x y z
#
# Youngs Moduli (GPa) = 63.94037 63.94037 56.57045
#
# Poissons Ratio (x) = 0.60971 0.12878
# Poissons Ratio (y) = 0.60971 0.12878
# Poissons Ratio (z) = 0.14556 0.14556
#
# Static dielectric constant tensor:
#      x y z
#    x 3.099650 0.000000 0.000000 
#    y 0.000000 3.099650 0.000000 
#    z 0.000000 0.000000 2.991100 
# 
# 
# High freq. dielectric constant tensor:
#      x y z
#    x 1.620960 0.000000 0.000000 
#    y 0.000000 1.620960 0.000000 
#    z 0.000000 0.000000 1.599600 
# 
# From -- ./inp_files/5469.got.cif
#   From: 2010.03.12/outbox.cif.g09.slc.cpg/sg123_3_cif.got.tgz:5469.got - 2010.04.06 16:26:55.
