data_PCOD8312710
_publ_section_title
;
Structure prediction by ZEFSAII (Michael W. Deem and Ramdas Pophale) SiO2 
 PCOD8312710
Probable space group: P 4/M M M
;
_chemical_formula_sum "Si O2"
_cell_formula_units_Z 120
_cell_length_a 28.094474
_cell_length_b 28.094474
_cell_length_c 8.251160
_cell_angle_alpha 90.000000
_cell_angle_beta 90.000000
_cell_angle_gamma 90.000000
_cell_volume 6512.636209
_symmetry_space_group_name_H-M "P 4/M M M"
_symmetry_group_IT_number 123
_symmetry_cell_setting 'tetragonal'
loop_
_space_group_symop_operation_xyz
x,y,z
-y,x,z
-x,-y,z
y,-x,z
x,-y,-z
-x,y,-z
y,x,-z
-y,-x,-z
-x,-y,-z
y,-x,-z
x,y,-z
-y,x,-z
-x,y,z
x,-y,z
-y,-x,z
y,x,z
loop_
_atom_site_type_symbol
_atom_site_label
_atom_site_fract_x
_atom_site_fract_y
_atom_site_fract_z
Si Si1 0.444748 0.369650 0.500000
Si Si2 0.788846 0.603997 0.182414
Si Si3 0.214099 0.140058 0.691185
Si Si4 0.552945 0.876656 0.687554
Si Si5 0.215998 0.292104 0.688419
Si Si6 0.733725 0.053290 0.810666
Si Si7 0.946694 0.367842 0.691487
Si Si8 0.444696 0.689776 0.183821
O O1 0.500000 0.379188 0.500000
O O2 0.420690 0.420690 0.500000
O O3 0.429228 0.344304 0.668354
O O4 0.824185 0.574805 0.296785
O O5 0.789200 0.660183 0.210517
O O6 0.736348 0.585706 0.215758
O O7 0.805171 0.593641 0.000000
O O8 0.213292 0.135181 0.500000
O O9 0.164041 0.164041 0.749904
O O10 0.256978 0.174226 0.745917
O O11 0.222297 0.087868 0.766324
O O12 0.547665 0.888499 0.500000
O O13 0.500000 0.880222 0.767834
O O14 0.590086 0.914232 0.767744
O O15 0.210789 0.304548 0.500000
O O16 0.266845 0.266845 0.722206
O O17 0.684307 0.073420 0.736966
O O18 0.744461 0.000000 0.742667
O O19 0.727298 0.051289 0.000000
O O20 0.946198 0.372142 0.500000
O O21 0.000000 0.373736 0.761720
O O22 0.500000 0.702813 0.199108
O O23 0.434470 0.669298 0.000000
#
# Coordination Sequence:
#
# PCOD8312710 Si02
#       8
#     8  16  16  16  16  16  16  16
#     4  10  22  39  62  88 110 138 167 197 245 297
#     4  11  22  34  50  73 101 131 164 206 250 295
#     4   9  18  33  51  71  98 133 170 207 249 296
#     4  10  21  34  50  72  95 125 168 215 261 312
#     4   9  19  34  50  70  98 130 163 200 242 292
#     4  10  20  32  48  73 102 131 167 209 250 297
#     4   9  18  33  51  70  95 129 169 216 269 315
#     4   9  20  38  56  77 107 139 171 208 249 298
#
# _framework density 18.425718
#
# number of rings (size 3 to 8) (size 9 to 14) (size 15 to 20)
#    0.000    2.400    0.000    2.800    1.867    7.533 
#    0.000    4.000    0.000    0.000    0.000    4.667 
#    0.000    0.267    0.000    2.933    0.000    2.133 
#
# Total GULP energy -1487458.338662 kJ/mol
# GULP energy per Si atom -12395.486156 kJ/mol
# Density = 1.838378 g / cm^3
# Si number density = 18.425718 Si / 1000 Ang^3
#
#
#
# Elastic Constant Matrix: (Units=GPa)
#
#
# Indices 1 2 3 4 5 6 
#
# 1 90.6215 70.9611 26.6204 0.0000 0.0000 0.0000
# 2 70.9611 90.6215 26.6204 0.0000 0.0000 0.0000
# 3 26.6204 26.6204 52.8999 0.0000 0.0000 0.0000
# 4 0.0000 0.0000 0.0000 13.2419 0.0000 0.0000
# 5 0.0000 0.0000 0.0000 0.0000 13.2419 0.0000
# 6 0.0000 0.0000 0.0000 0.0000 0.0000 23.7020
#
#
#
# Elastic Compliance Matrix: (Units=1/GPa)
#
#
# Indices 1 2 3 4 5 6 
#
# 1 0.029141 -0.021722 -0.003733 0.000000 0.000000 0.000000
# 2 -0.021722 0.029141 -0.003733 0.000000 0.000000 0.000000
# 3 -0.003733 -0.003733 0.022661 0.000000 0.000000 0.000000
# 4 0.000000 0.000000 0.000000 0.075518 0.000000 0.000000
# 5 0.000000 0.000000 0.000000 0.000000 0.075518 0.000000
# 6 0.000000 0.000000 0.000000 0.000000 0.000000 0.042191
#
#
# Mechanical properties :
#
#
# Convention : Reuss Voigt Hill
#
# Bulk Modulus (GPa) = 44.31558 53.61629 48.96594
# Shear Modulus (GPa) = 14.70287 17.36657 16.03472
#
# Velocity S-wave (km/s) = 2.82787 3.07338 2.95318
# Velocity P-wave (km/s) = 5.89624 6.46189 6.18553
#
# Compressibility (1/GPa) = 0.02256543
#
# Stress axis : x y z
#
# Youngs Moduli (GPa) = 34.31554 34.31554 44.12865
#
# Poissons Ratio (x) = 0.74542 0.16475
# Poissons Ratio (y) = 0.74542 0.16475
# Poissons Ratio (z) = 0.12811 0.12811
#
# Static dielectric constant tensor:
#      x y z
#    x 3.864860 0.000000 0.000000 
#    y 0.000000 3.864860 0.000000 
#    z 0.000000 0.000000 3.359940 
# 
# 
# High freq. dielectric constant tensor:
#      x y z
#    x 1.703320 0.000000 0.000000 
#    y 0.000000 1.703320 0.000000 
#    z 0.000000 0.000000 1.710390 
# 
# From -- ./inp_files/2037.got.cif
#   From: 2010.03.12/outbox.cif.g09.slc.cpg/sg123_2_cif.got.tgz:2037.got - 2010.04.06 16:26:55.
