data_PCOD8312964
_publ_section_title
;
Structure prediction by ZEFSAII (Michael W. Deem and Ramdas Pophale) SiO2 
 PCOD8312964
Probable space group: P 4/M M M
;
_chemical_formula_sum "Si O2"
_cell_formula_units_Z 92
_cell_length_a 19.017370
_cell_length_b 19.017370
_cell_length_c 15.975663
_cell_angle_alpha 90.000000
_cell_angle_beta 90.000000
_cell_angle_gamma 90.000000
_cell_volume 5777.764059
_symmetry_space_group_name_H-M "P 4/M M M"
_symmetry_group_IT_number 123
_symmetry_cell_setting 'tetragonal'
loop_
_space_group_symop_operation_xyz
x,y,z
-y,x,z
-x,-y,z
y,-x,z
x,-y,-z
-x,y,-z
y,x,-z
-y,-x,-z
-x,-y,-z
y,-x,-z
x,y,-z
-y,x,-z
-x,y,z
x,-y,z
-y,-x,z
y,x,z
loop_
_atom_site_type_symbol
_atom_site_label
_atom_site_fract_x
_atom_site_fract_y
_atom_site_fract_z
Si Si1 0.649451 0.916609 0.500000
Si Si2 0.287837 0.170352 0.092989
Si Si3 0.804779 0.919844 0.798997
Si Si4 0.742873 0.852160 0.355776
Si Si5 0.241591 0.647063 0.760999
Si Si6 0.500000 0.614186 0.592780
Si Si7 0.755722 0.500000 0.674174
Si Si8 0.500000 0.840737 0.500000
O O1 0.692420 0.890599 0.420287
O O2 0.570066 0.887707 0.500000
O O3 0.644696 0.000000 0.500000
O O4 0.223567 0.223567 0.088440
O O5 0.259057 0.100256 0.138292
O O6 0.350017 0.207079 0.146445
O O7 0.316232 0.152230 0.000000
O O8 0.873378 0.873378 0.817738
O O9 0.779747 0.909928 0.703126
O O10 0.825693 0.000000 0.814309
O O11 0.803643 0.803643 0.399425
O O12 0.697338 0.801307 0.299087
O O13 0.322514 0.677487 0.762563
O O14 0.229936 0.568376 0.729182
O O15 0.430818 0.569183 0.606104
O O16 0.500000 0.647282 0.500000
O O17 0.500000 0.673150 0.661203
O O18 0.795172 0.500000 0.585042
#
# Coordination Sequence:
#
# PCOD8312964 Si02
#       8
#     8  16  16  16  16   8   8   4
#     4  12  22  35  49  66  93 128 163 201 251 300
#     4   8  15  30  50  70  92 119 155 198 238 276
#     4   9  17  29  46  71 100 128 157 191 235 288
#     4   9  18  33  50  70  91 118 162 207 241 277
#     4   9  18  31  50  71  94 123 156 197 239 282
#     4   9  18  30  43  65  96 131 165 192 228 284
#     4  12  19  33  47  68 101 126 165 196 243 283
#     4  12  25  34  42  71  98 130 164 202 248 295
#
# _framework density 15.923114999999999
#
# number of rings (size 3 to 8) (size 9 to 14) (size 15 to 20)
#    0.000    2.522    2.174    3.783    0.000    0.522 
#    0.000    0.435    0.000    0.000    0.000    2.435 
#    0.000    9.391    0.000   10.609    0.000    0.000 
#
# Total GULP energy -1139997.369210 kJ/mol
# GULP energy per Si atom -12391.275752 kJ/mol
# Density = 1.588687 g / cm^3
# Si number density = 15.923115 Si / 1000 Ang^3
#
#
#
# Elastic Constant Matrix: (Units=GPa)
#
#
# Indices 1 2 3 4 5 6 
#
# 1 92.8302 34.8670 45.0477 0.0000 0.0000 0.0000
# 2 34.8670 92.8302 45.0477 0.0000 0.0000 0.0000
# 3 45.0477 45.0477 103.5559 0.0000 0.0000 0.0000
# 4 0.0000 0.0000 0.0000 10.7117 0.0000 0.0000
# 5 0.0000 0.0000 0.0000 0.0000 10.7117 0.0000
# 6 0.0000 0.0000 0.0000 0.0000 0.0000 19.9072
#
#
#
# Elastic Compliance Matrix: (Units=1/GPa)
#
#
# Indices 1 2 3 4 5 6 
#
# 1 0.014276 -0.002977 -0.004915 0.000000 0.000000 0.000000
# 2 -0.002977 0.014276 -0.004915 0.000000 0.000000 0.000000
# 3 -0.004915 -0.004915 0.013933 0.000000 0.000000 0.000000
# 4 0.000000 0.000000 0.000000 0.093356 0.000000 0.000000
# 5 0.000000 0.000000 0.000000 0.000000 0.093356 0.000000
# 6 0.000000 0.000000 0.000000 0.000000 0.000000 0.050233
#
#
# Mechanical properties :
#
#
# Convention : Reuss Voigt Hill
#
# Bulk Modulus (GPa) = 59.27639 59.90458 59.59049
# Shear Modulus (GPa) = 16.09448 19.21638 17.65543
#
# Velocity S-wave (km/s) = 3.18270 3.47770 3.33347
# Velocity P-wave (km/s) = 7.12836 7.33681 7.23333
#
# Compressibility (1/GPa) = 0.01687012
#
# Stress axis : x y z
#
# Youngs Moduli (GPa) = 70.04969 70.04969 71.77288
#
# Poissons Ratio (x) = 0.20852 0.35277
# Poissons Ratio (y) = 0.20852 0.35277
# Poissons Ratio (z) = 0.34430 0.34430
#
# Static dielectric constant tensor:
#      x y z
#    x 3.048560 0.000000 0.000000 
#    y 0.000000 3.048560 0.000000 
#    z 0.000000 0.000000 3.468210 
# 
# 
# High freq. dielectric constant tensor:
#      x y z
#    x 1.600860 0.000000 0.000000 
#    y 0.000000 1.600860 0.000000 
#    z 0.000000 0.000000 1.608430 
# 
# From -- ./inp_files/5562.got.cif
#   From: 2010.03.12/outbox.cif.g09.slc.cpg/sg123_3_cif.got.tgz:5562.got - 2010.04.06 16:26:55.
