data_PCOD8312770
_publ_section_title
;
Structure prediction by ZEFSAII (Michael W. Deem and Ramdas Pophale) SiO2 
 PCOD8312770
Probable space group: P 4/M M M
;
_chemical_formula_sum "Si O2"
_cell_formula_units_Z 96
_cell_length_a 18.428850
_cell_length_b 18.428850
_cell_length_c 16.080761
_cell_angle_alpha 90.000000
_cell_angle_beta 90.000000
_cell_angle_gamma 90.000000
_cell_volume 5461.388451
_symmetry_space_group_name_H-M "P 4/M M M"
_symmetry_group_IT_number 123
_symmetry_cell_setting 'tetragonal'
loop_
_space_group_symop_operation_xyz
x,y,z
-y,x,z
-x,-y,z
y,-x,z
x,-y,-z
-x,y,-z
y,x,-z
-y,-x,-z
-x,-y,-z
y,-x,-z
x,y,-z
-y,x,-z
-x,y,z
x,-y,z
-y,-x,z
y,x,z
loop_
_atom_site_type_symbol
_atom_site_label
_atom_site_fract_x
_atom_site_fract_y
_atom_site_fract_z
Si Si1 0.848937 0.415714 0.589848
Si Si2 0.580289 0.915267 0.753398
Si Si3 0.298436 0.585107 0.149307
Si Si4 0.918400 0.193976 0.902353
Si Si5 0.656209 0.846344 0.094409
Si Si6 0.419561 0.696461 0.340904
O O1 0.872151 0.381363 0.500000
O O2 0.871070 0.500000 0.588644
O O3 0.886860 0.377812 0.670109
O O4 0.763087 0.405771 0.598123
O O5 0.500000 0.880521 0.752344
O O6 0.612292 0.894623 0.841552
O O7 0.578128 0.000000 0.746937
O O8 0.301309 0.500000 0.120901
O O9 0.376847 0.623153 0.132052
O O10 0.237689 0.632120 0.101145
O O11 0.277717 0.591784 0.245990
O O12 0.878818 0.121183 0.867265
O O13 0.863296 0.260221 0.882858
O O14 0.000000 0.203029 0.863009
O O15 0.927879 0.186557 0.000000
O O16 0.639977 0.872076 0.000000
O O17 0.500000 0.664715 0.351337
O O18 0.366177 0.633824 0.368791
#
# Coordination Sequence:
#
# PCOD8312770 Si02
#       6
#    16  16  16  16  16  16
#     4   9  17  31  50  69  92 123 158 200 251 302
#     4  10  20  33  49  71  99 129 165 208 250 297
#     4  10  20  34  52  73  99 133 175 223 270 314
#     4   9  18  32  50  73 100 130 165 204 246 295
#     4  11  21  34  52  73 101 136 171 207 252 305
#     4   9  17  30  48  70  97 128 164 209 260 312
#
# _framework density 17.577947999999999
#
# number of rings (size 3 to 8) (size 9 to 14) (size 15 to 20)
#    0.000    2.333    1.667    1.500    0.000    4.500 
#    0.000    5.000    0.000    0.000    0.000    3.500 
#    0.000    0.000    0.000    0.000    0.000    0.167 
#
# Total GULP energy -1189343.582721 kJ/mol
# GULP energy per Si atom -12388.995653 kJ/mol
# Density = 1.753794 g / cm^3
# Si number density = 17.577948 Si / 1000 Ang^3
#
#
#
# Elastic Constant Matrix: (Units=GPa)
#
#
# Indices 1 2 3 4 5 6 
#
# 1 75.3195 53.4281 27.5289 0.0000 0.0000 0.0000
# 2 53.4281 75.3195 27.5289 0.0000 0.0000 0.0000
# 3 27.5289 27.5289 102.6680 0.0000 0.0000 0.0000
# 4 0.0000 0.0000 0.0000 3.8946 0.0000 0.0000
# 5 0.0000 0.0000 0.0000 0.0000 3.8946 0.0000
# 6 0.0000 0.0000 0.0000 0.0000 0.0000 23.4810
#
#
#
# Elastic Compliance Matrix: (Units=1/GPa)
#
#
# Indices 1 2 3 4 5 6 
#
# 1 0.027227 -0.018453 -0.002352 0.000000 0.000000 0.000000
# 2 -0.018453 0.027227 -0.002352 0.000000 0.000000 0.000000
# 3 -0.002352 -0.002352 0.011002 0.000000 0.000000 0.000000
# 4 0.000000 0.000000 0.000000 0.256765 0.000000 0.000000
# 5 0.000000 0.000000 0.000000 0.000000 0.256765 0.000000
# 6 0.000000 0.000000 0.000000 0.000000 0.000000 0.042588
#
#
# Mechanical properties :
#
#
# Convention : Reuss Voigt Hill
#
# Bulk Modulus (GPa) = 52.25111 52.25319 52.25215
# Shear Modulus (GPa) = 7.41544 15.90878 11.66211
#
# Velocity S-wave (km/s) = 2.05615 3.01166 2.57855
# Velocity P-wave (km/s) = 5.95205 6.47182 6.21737
#
# Compressibility (1/GPa) = 0.01913835
#
# Stress axis : x y z
#
# Youngs Moduli (GPa) = 36.72883 36.72883 90.89551
#
# Poissons Ratio (x) = 0.67777 0.21382
# Poissons Ratio (y) = 0.67777 0.21382
# Poissons Ratio (z) = 0.08640 0.08640
#
# Static dielectric constant tensor:
#      x y z
#    x 3.275990 0.000000 0.000000 
#    y 0.000000 3.275990 0.000000 
#    z 0.000000 0.000000 3.352070 
# 
# 
# High freq. dielectric constant tensor:
#      x y z
#    x 1.664130 0.000000 0.000000 
#    y 0.000000 1.664130 0.000000 
#    z 0.000000 0.000000 1.667300 
# 
# From -- ./inp_files/5450.got.cif
#   From: 2010.03.12/outbox.cif.g09.slc.cpg/sg123_3_cif.got.tgz:5450.got - 2010.04.06 16:26:55.
