data_PCOD8312761
_publ_section_title
;
Structure prediction by ZEFSAII (Michael W. Deem and Ramdas Pophale) SiO2 
 PCOD8312761
Probable space group: P 4/M M M
;
_chemical_formula_sum "Si O2"
_cell_formula_units_Z 88
_cell_length_a 13.482575
_cell_length_b 13.482575
_cell_length_c 27.734921
_cell_angle_alpha 90.000000
_cell_angle_beta 90.000000
_cell_angle_gamma 90.000000
_cell_volume 5041.649186
_symmetry_space_group_name_H-M "P 4/M M M"
_symmetry_group_IT_number 123
_symmetry_cell_setting 'tetragonal'
loop_
_space_group_symop_operation_xyz
x,y,z
-y,x,z
-x,-y,z
y,-x,z
x,-y,-z
-x,y,-z
y,x,-z
-y,-x,-z
-x,-y,-z
y,-x,-z
x,y,-z
-y,x,-z
-x,y,z
x,-y,z
-y,-x,z
y,x,z
loop_
_atom_site_type_symbol
_atom_site_label
_atom_site_fract_x
_atom_site_fract_y
_atom_site_fract_z
Si Si1 0.274421 0.886320 0.173850
Si Si2 0.777382 0.385243 0.635462
Si Si3 0.110802 0.617670 0.000000
Si Si4 0.615599 0.775966 0.905036
Si Si5 0.274080 0.886134 0.555171
Si Si6 0.274111 0.886054 0.715828
O O1 0.173742 0.826259 0.163065
O O2 0.363353 0.845914 0.140817
O O3 0.308786 0.873432 0.229036
O O4 0.252052 0.000000 0.161337
O O5 0.749646 0.500000 0.635484
O O6 0.674775 0.325226 0.635452
O O7 0.841781 0.360834 0.588121
O O8 0.841779 0.360759 0.682789
O O9 0.168330 0.654591 0.047293
O O10 0.104075 0.500000 0.000000
O O11 0.000000 0.663269 0.000000
O O12 0.500000 0.751536 0.907723
O O13 0.671807 0.671807 0.899888
O O14 0.308716 0.874037 0.500000
O O15 0.171413 0.828588 0.565161
O O16 0.254701 0.000000 0.568693
O O17 0.171321 0.828680 0.705833
O O18 0.254868 0.000000 0.702443
#
# Coordination Sequence:
#
# PCOD8312761 Si02
#       6
#    16  16   8  16  16  16
#     4   9  18  32  50  73 100 129 161 197 238 286
#     4  10  21  36  52  70  94 124 161 205 247 287
#     4   9  17  30  49  71  93 119 153 193 238 287
#     4  10  20  33  49  70  97 129 166 206 245 286
#     4   9  18  32  50  74 103 132 161 193 231 279
#     4   9  18  32  50  74 102 129 158 193 235 286
#
# _framework density 17.454605999999998
#
# number of rings (size 3 to 8) (size 9 to 14) (size 15 to 20)
#    0.000    2.636    0.000    1.364    0.000    4.545 
#    0.000    5.455    0.000    4.909    0.000    7.636 
#    0.000    6.545    0.000    0.000    0.000    0.000 
#
# Total GULP energy -1091350.392457 kJ/mol
# GULP energy per Si atom -12401.709005 kJ/mol
# Density = 1.741488 g / cm^3
# Si number density = 17.454606 Si / 1000 Ang^3
#
#
#
# Elastic Constant Matrix: (Units=GPa)
#
#
# Indices 1 2 3 4 5 6 
#
# 1 114.5642 43.7247 55.3035 0.0000 0.0000 0.0000
# 2 43.7247 114.5642 55.3035 0.0000 0.0000 0.0000
# 3 55.3035 55.3035 106.8044 0.0000 0.0000 0.0000
# 4 0.0000 0.0000 0.0000 26.0531 0.0000 0.0000
# 5 0.0000 0.0000 0.0000 0.0000 26.0531 0.0000
# 6 0.0000 0.0000 0.0000 0.0000 0.0000 11.6546
#
#
#
# Elastic Compliance Matrix: (Units=1/GPa)
#
#
# Indices 1 2 3 4 5 6 
#
# 1 0.012008 -0.002109 -0.005126 0.000000 0.000000 0.000000
# 2 -0.002109 0.012008 -0.005126 0.000000 0.000000 0.000000
# 3 -0.005126 -0.005126 0.014671 0.000000 0.000000 0.000000
# 4 0.000000 0.000000 0.000000 0.038383 0.000000 0.000000
# 5 0.000000 0.000000 0.000000 0.000000 0.038383 0.000000
# 6 0.000000 0.000000 0.000000 0.000000 0.000000 0.085803
#
#
# Mechanical properties :
#
#
# Convention : Reuss Voigt Hill
#
# Bulk Modulus (GPa) = 71.60028 71.62179 71.61103
# Shear Modulus (GPa) = 21.67950 24.85890 23.26920
#
# Velocity S-wave (km/s) = 3.52810 3.77796 3.65516
# Velocity P-wave (km/s) = 7.59648 7.75583 7.67657
#
# Compressibility (1/GPa) = 0.01396643
#
# Stress axis : x y z
#
# Youngs Moduli (GPa) = 83.27850 83.27850 68.16023
#
# Poissons Ratio (x) = 0.17559 0.34938
# Poissons Ratio (y) = 0.17559 0.34938
# Poissons Ratio (z) = 0.42688 0.42688
#
# Static dielectric constant tensor:
#      x y z
#    x 3.086490 0.000000 0.000000 
#    y 0.000000 3.086490 0.000000 
#    z 0.000000 0.000000 3.498240 
# 
# 
# High freq. dielectric constant tensor:
#      x y z
#    x 1.663360 0.000000 0.000000 
#    y 0.000000 1.663360 0.000000 
#    z 0.000000 0.000000 1.691690 
# 
# From -- ./inp_files/8477.got.cif
#   From: 2010.03.12/outbox.cif.g09.slc.cpg/sg123_5_cif.got.tgz:8477.got - 2010.04.06 16:26:55.
