data_PCOD8312229
_publ_section_title
;
Structure prediction by ZEFSAII (Michael W. Deem and Ramdas Pophale) SiO2 
 PCOD8312229
Probable space group: P 4/M M M
;
_chemical_formula_sum "Si O2"
_cell_formula_units_Z 128
_cell_length_a 18.725244
_cell_length_b 18.725244
_cell_length_c 23.574596
_cell_angle_alpha 90.000000
_cell_angle_beta 90.000000
_cell_angle_gamma 90.000000
_cell_volume 8266.072878
_symmetry_space_group_name_H-M "P 4/M M M"
_symmetry_group_IT_number 123
_symmetry_cell_setting 'tetragonal'
loop_
_space_group_symop_operation_xyz
x,y,z
-y,x,z
-x,-y,z
y,-x,z
x,-y,-z
-x,y,-z
y,x,-z
-y,-x,-z
-x,-y,-z
y,-x,-z
x,y,-z
-y,x,-z
-x,y,z
x,-y,z
-y,-x,z
y,x,z
loop_
_atom_site_type_symbol
_atom_site_label
_atom_site_fract_x
_atom_site_fract_y
_atom_site_fract_z
Si Si1 0.706789 0.917288 0.333130
Si Si2 0.917355 0.200602 0.224867
Si Si3 0.418888 0.695131 0.103656
Si Si4 0.198087 0.918085 0.564343
Si Si5 0.582061 0.849827 0.064332
Si Si6 0.152277 0.418523 0.272768
Si Si7 0.654621 0.917190 0.832510
Si Si8 0.420572 0.307399 0.234801
O O1 0.766703 0.899140 0.286382
O O2 0.737351 0.894906 0.394482
O O3 0.633206 0.875524 0.322382
O O4 0.686816 0.000000 0.330005
O O5 0.867761 0.132240 0.213020
O O6 0.900274 0.261743 0.178275
O O7 0.000000 0.176020 0.221524
O O8 0.500000 0.670629 0.092543
O O9 0.368226 0.631775 0.081797
O O10 0.400282 0.766110 0.068883
O O11 0.405156 0.712225 0.169566
O O12 0.224964 0.906990 0.500000
O O13 0.127990 0.872011 0.577221
O O14 0.176331 0.000000 0.576132
O O15 0.500000 0.863765 0.082582
O O16 0.634770 0.895167 0.103795
O O17 0.595398 0.874859 0.000000
O O18 0.128855 0.500000 0.285377
O O19 0.123532 0.395943 0.211392
O O20 0.237466 0.411490 0.272745
O O21 0.640028 0.000000 0.822668
O O22 0.500000 0.339120 0.240879
O O23 0.366359 0.366359 0.258147
#
# Coordination Sequence:
#
# PCOD8312229 Si02
#       8
#    16  16  16  16  16  16  16  16
#     4   9  18  30  43  64  93 121 151 186 222 259
#     4   9  18  31  47  68  92 117 144 176 215 259
#     4   9  17  30  45  62  85 110 139 173 207 247
#     4   9  17  29  45  65  91 123 157 192 227 263
#     4  10  20  33  47  63  85 112 141 174 214 261
#     4  10  18  29  46  67  89 115 148 183 218 259
#     4  10  20  32  46  66  89 111 139 176 217 261
#     4   9  17  28  43  63  86 112 141 173 211 253
#
# _framework density 15.484984000000001
#
# number of rings (size 3 to 8) (size 9 to 14) (size 15 to 20)
#    0.000    2.625    1.250    1.875    0.000    5.750 
#    0.000    2.500    0.000    2.625    0.000    3.500 
#    0.000    0.000    0.000    2.750    0.000    0.000 
#
# Total GULP energy -1587150.144201 kJ/mol
# GULP energy per Si atom -12399.610502 kJ/mol
# Density = 1.544974 g / cm^3
# Si number density = 15.484984 Si / 1000 Ang^3
#
#
#
# Elastic Constant Matrix: (Units=GPa)
#
#
# Indices 1 2 3 4 5 6 
#
# 1 85.7997 60.5748 39.9701 0.0000 0.0000 0.0000
# 2 60.5748 85.7997 39.9701 0.0000 0.0000 0.0000
# 3 39.9701 39.9701 74.3685 0.0000 0.0000 0.0000
# 4 0.0000 0.0000 0.0000 19.5004 0.0000 0.0000
# 5 0.0000 0.0000 0.0000 0.0000 19.5004 0.0000
# 6 0.0000 0.0000 0.0000 0.0000 0.0000 29.9983
#
#
#
# Elastic Compliance Matrix: (Units=1/GPa)
#
#
# Indices 1 2 3 4 5 6 
#
# 1 0.024657 -0.014987 -0.005197 0.000000 0.000000 0.000000
# 2 -0.014987 0.024657 -0.005197 0.000000 0.000000 0.000000
# 3 -0.005197 -0.005197 0.019033 0.000000 0.000000 0.000000
# 4 0.000000 0.000000 0.000000 0.051281 0.000000 0.000000
# 5 0.000000 0.000000 0.000000 0.000000 0.051281 0.000000
# 6 0.000000 0.000000 0.000000 0.000000 0.000000 0.033335
#
#
# Mechanical properties :
#
#
# Convention : Reuss Voigt Hill
#
# Bulk Modulus (GPa) = 56.86884 58.55534 57.71209
# Shear Modulus (GPa) = 19.16672 20.82998 19.99835
#
# Velocity S-wave (km/s) = 3.52200 3.67164 3.59760
# Velocity P-wave (km/s) = 7.30371 7.47469 7.38969
#
# Compressibility (1/GPa) = 0.01758432
#
# Stress axis : x y z
#
# Youngs Moduli (GPa) = 40.55664 40.55664 52.53936
#
# Poissons Ratio (x) = 0.60781 0.27307
# Poissons Ratio (y) = 0.60781 0.27307
# Poissons Ratio (z) = 0.21079 0.21079
#
# Static dielectric constant tensor:
#      x y z
#    x 2.935430 0.000000 0.000000 
#    y 0.000000 2.935430 0.000000 
#    z 0.000000 0.000000 2.862700 
# 
# 
# High freq. dielectric constant tensor:
#      x y z
#    x 1.590930 0.000000 0.000000 
#    y 0.000000 1.590930 0.000000 
#    z 0.000000 0.000000 1.566180 
# 
# From -- ./inp_files/7651.got.cif
#   From: 2010.03.12/outbox.cif.g09.slc.cpg/sg123_4_cif.got.tgz:7651.got - 2010.04.06 16:26:55.
