data_PCOD8312838
_publ_section_title
;
Structure prediction by ZEFSAII (Michael W. Deem and Ramdas Pophale) SiO2 
 PCOD8312838
Probable space group: P 4/M M M
;
_chemical_formula_sum "Si O2"
_cell_formula_units_Z 56
_cell_length_a 18.324806
_cell_length_b 18.324806
_cell_length_c 8.838782
_cell_angle_alpha 90.000000
_cell_angle_beta 90.000000
_cell_angle_gamma 90.000000
_cell_volume 2968.049869
_symmetry_space_group_name_H-M "P 4/M M M"
_symmetry_group_IT_number 123
_symmetry_cell_setting 'tetragonal'
loop_
_space_group_symop_operation_xyz
x,y,z
-y,x,z
-x,-y,z
y,-x,z
x,-y,-z
-x,y,-z
y,x,-z
-y,-x,-z
-x,-y,-z
y,-x,-z
x,y,-z
-y,x,-z
-x,y,z
x,-y,z
-y,-x,z
y,x,z
loop_
_atom_site_type_symbol
_atom_site_label
_atom_site_fract_x
_atom_site_fract_y
_atom_site_fract_z
Si Si1 0.859860 0.347463 0.321281
Si Si2 0.000000 0.274309 0.179574
Si Si3 0.699667 0.699667 0.680068
Si Si4 0.081803 0.500000 0.677442
Si Si5 0.582354 0.417647 0.320170
Si Si6 0.000000 0.886665 0.179924
O O1 0.866872 0.335467 0.500000
O O2 0.781062 0.320052 0.261890
O O3 0.869433 0.431494 0.273625
O O4 0.925824 0.307617 0.240322
O O5 0.000000 0.193370 0.246893
O O6 0.000000 0.278959 0.000000
O O7 0.697040 0.697040 0.500000
O O8 0.640905 0.640905 0.745264
O O9 0.069292 0.500000 0.500000
O O10 0.000000 0.500000 0.752290
O O11 0.602512 0.500000 0.265332
O O12 0.584639 0.415362 0.500000
O O13 0.071894 0.928107 0.239221
O O14 0.000000 0.885117 0.000000
#
# Coordination Sequence:
#
# PCOD8312838 Si02
#       6
#    16   8   8   8   8   8
#     4  10  20  35  52  74 104 136 173 212 253 303
#     4  11  22  34  53  78 102 133 166 208 264 309
#     4   9  19  30  48  75 102 141 180 212 258 314
#     4   9  16  30  52  72  93 133 177 206 243 301
#     4   8  14  25  42  71 111 143 169 213 267 309
#     4   8  16  32  52  71  91 121 162 199 234 291
#
# _framework density 18.867608000000001
#
# number of rings (size 3 to 8) (size 9 to 14) (size 15 to 20)
#    0.000    2.714    1.429    1.286    4.000    0.000 
#    0.000    1.429    0.000    0.000    0.000    4.000 
#    0.000    0.000    0.000    6.286    0.000    5.714 
#
# Total GULP energy -693959.555404 kJ/mol
# GULP energy per Si atom -12392.134918 kJ/mol
# Density = 1.882466 g / cm^3
# Si number density = 18.867608 Si / 1000 Ang^3
#
#
#
# Elastic Constant Matrix: (Units=GPa)
#
#
# Indices 1 2 3 4 5 6 
#
# 1 198.1268 113.7958 26.7091 0.0000 0.0000 0.0000
# 2 113.7958 198.1268 26.7090 0.0000 0.0000 0.0000
# 3 26.7091 26.7090 22.1943 0.0000 0.0000 0.0000
# 4 0.0000 0.0000 0.0000 4.7387 0.0000 0.0000
# 5 0.0000 0.0000 0.0000 0.0000 4.7387 0.0000
# 6 0.0000 0.0000 0.0000 0.0000 0.0000 34.7809
#
#
#
# Elastic Compliance Matrix: (Units=1/GPa)
#
#
# Indices 1 2 3 4 5 6 
#
# 1 0.007948 -0.003910 -0.004860 0.000000 0.000000 0.000000
# 2 -0.003910 0.007948 -0.004860 0.000000 0.000000 0.000000
# 3 -0.004860 -0.004860 0.056753 0.000000 0.000000 0.000000
# 4 0.000000 0.000000 0.000000 0.211030 0.000000 0.000000
# 5 0.000000 0.000000 0.000000 0.000000 0.211030 0.000000
# 6 0.000000 0.000000 0.000000 0.000000 0.000000 0.028751
#
#
# Mechanical properties :
#
#
# Convention : Reuss Voigt Hill
#
# Bulk Modulus (GPa) = 22.03085 83.65284 52.84184
# Shear Modulus (GPa) = 8.83629 25.60058 17.21843
#
# Velocity S-wave (km/s) = 2.16644 3.68755 3.02419
# Velocity P-wave (km/s) = 4.23791 7.90972 6.34522
#
# Compressibility (1/GPa) = 0.04539090
#
# Stress axis : x y z
#
# Youngs Moduli (GPa) = 125.81636 125.81639 17.62022
#
# Poissons Ratio (x) = 0.49193 0.08563
# Poissons Ratio (y) = 0.49193 0.08563
# Poissons Ratio (z) = 0.61142 0.61142
#
# Static dielectric constant tensor:
#      x y z
#    x 3.846600 0.000000 0.000000 
#    y 0.000000 3.846600 0.000000 
#    z 0.000000 0.000000 2.832090 
# 
# 
# High freq. dielectric constant tensor:
#      x y z
#    x 1.748480 0.000000 0.000000 
#    y 0.000000 1.748480 0.000000 
#    z 0.000000 0.000000 1.666560 
# 
# From -- ./inp_files/672.got.cif
#   From: 2010.03.12/outbox.cif.g09.slc.cpg/sg123_1_cif.got.tgz:672.got - 2010.04.06 16:26:55.
