data_PCOD8312077
_publ_section_title
;
Structure prediction by ZEFSAII (Michael W. Deem and Ramdas Pophale) SiO2 
 PCOD8312077
Probable space group: I -4 2 D
;
_chemical_formula_sum "Si O2"
_cell_formula_units_Z 88
_cell_length_a 13.200052
_cell_length_b 13.200052
_cell_length_c 22.096454
_cell_angle_alpha 90.000000
_cell_angle_beta 90.000000
_cell_angle_gamma 90.000000
_cell_volume 3850.116479
_symmetry_space_group_name_H-M "I -4 2 D"
_symmetry_group_IT_number 122
_symmetry_cell_setting 'tetragonal'
loop_
_space_group_symop_operation_xyz
x,y,z
y,-x,-z
-x,-y,z
-y,x,-z
x,1/2-y,1/4-z
-x,1/2+y,1/4-z
-y,1/2-x,1/4+z
y,1/2+x,1/4+z
1/2+x,1/2+y,1/2+z
1/2+y,1/2-x,1/2-z
1/2-x,1/2-y,1/2+z
1/2-y,1/2+x,1/2-z
1/2+x,-y,3/4-z
1/2-x,y,3/4-z
1/2-y,-x,3/4+z
1/2+y,x,3/4+z
loop_
_atom_site_type_symbol
_atom_site_label
_atom_site_fract_x
_atom_site_fract_y
_atom_site_fract_z
Si Si1 0.683847 0.919998 0.682407
Si Si2 0.500000 0.000000 0.250000
Si Si3 0.419998 0.683847 0.932407
Si Si4 0.047476 0.646998 0.019150
Si Si5 0.750000 0.443299 0.375000
Si Si6 0.500000 0.500000 0.500000
Si Si7 0.750000 0.056701 0.375000
Si Si8 0.452524 0.646998 0.230850
O O1 0.750000 0.960084 0.625000
O O2 0.760037 0.895963 0.737288
O O3 0.628096 0.814913 0.668453
O O4 0.599451 0.999766 0.706568
O O5 0.499766 0.900549 0.293432
O O6 0.314913 0.628096 0.918453
O O7 0.395963 0.760037 0.987288
O O8 0.013995 0.674699 0.086838
O O9 0.120994 0.550682 0.022359
O O10 0.949318 0.620994 0.977641
O O11 0.674699 0.986005 0.413162
#
# Coordination Sequence:
#
# PCOD8312077 Si02
#       8
#    16   4  16  16   8   4   8  16
#     4  12  26  44  77 105 148 193 248 308 370 446
#     4  12  28  48  72 122 148 196 252 312 386 444
#     4  12  26  44  77 105 148 193 248 308 370 446
#     4  11  26  45  72 106 146 191 241 301 372 437
#     4  12  25  46  72 105 144 192 245 300 363 442
#     4  12  28  48  72 122 148 196 252 312 386 444
#     4  12  25  46  72 105 144 192 245 300 363 442
#     4  11  26  45  72 106 146 191 241 301 372 437
#
# _framework density 22.856451
#
# number of rings (size 3 to 8) (size 9 to 14) (size 15 to 20)
#    0.000    0.364    7.273    0.545    5.091    0.000 
#    0.000    0.000    0.000    2.182    0.000    0.000 
#    0.000    0.000    0.000    0.000    0.000    0.000 
#
# Total GULP energy -545644.562169 kJ/mol
# GULP energy per Si atom -12401.012777 kJ/mol
# Density = 2.280443 g / cm^3
# Si number density = 22.856451 Si / 1000 Ang^3
#
#
#
# Elastic Constant Matrix: (Units=GPa)
#
#
# Indices 1 2 3 4 5 6 
#
# 1 78.2747 5.9929 44.0043 0.0000 0.0000 0.0000
# 2 5.9929 78.2747 44.0043 0.0000 0.0000 0.0000
# 3 44.0043 44.0043 82.9346 0.0000 0.0000 0.0000
# 4 0.0000 0.0000 0.0000 36.8639 0.0000 0.0000
# 5 0.0000 0.0000 0.0000 0.0000 36.8639 0.0000
# 6 0.0000 0.0000 0.0000 0.0000 0.0000 34.8962
#
#
#
# Elastic Compliance Matrix: (Units=1/GPa)
#
#
# Indices 1 2 3 4 5 6 
#
# 1 0.020225 0.006391 -0.014122 0.000000 0.000000 0.000000
# 2 0.006391 0.020225 -0.014122 0.000000 0.000000 0.000000
# 3 -0.014122 -0.014122 0.027044 0.000000 0.000000 0.000000
# 4 0.000000 0.000000 0.000000 0.027127 0.000000 0.000000
# 5 0.000000 0.000000 0.000000 0.000000 0.027127 0.000000
# 6 0.000000 0.000000 0.000000 0.000000 0.000000 0.028656
#
#
# Mechanical properties :
#
#
# Convention : Reuss Voigt Hill
#
# Bulk Modulus (GPa) = 42.03943 47.49858 44.76900
# Shear Modulus (GPa) = 24.74736 31.42365 28.08550
#
# Velocity S-wave (km/s) = 3.29406 3.71189 3.50920
# Velocity P-wave (km/s) = 5.73589 6.26077 6.00407
#
# Compressibility (1/GPa) = 0.02378719
#
# Stress axis : x y z
#
# Youngs Moduli (GPa) = 49.44262 49.44262 36.97677
#
# Poissons Ratio (x) = -0.31597 0.52220
# Poissons Ratio (y) = -0.31597 0.52220
# Poissons Ratio (z) = 0.69824 0.69824
#
# Static dielectric constant tensor:
#      x y z
#    x 4.115190 0.000000 0.000000 
#    y 0.000000 4.115190 0.000000 
#    z 0.000000 0.000000 4.189980 
# 
# 
# High freq. dielectric constant tensor:
#      x y z
#    x 1.900120 0.000000 0.000000 
#    y 0.000000 1.900120 0.000000 
#    z 0.000000 0.000000 1.901350 
# 
# From -- ./inp_files/7256.got.cif
#   From: 2010.03.12/outbox.cif.g09.slc.cpg/sg122_4_cif.got.tgz:7256.got - 2010.04.06 16:17:16.
