data_PCOD8312103
_publ_section_title
;
Structure prediction by ZEFSAII (Michael W. Deem and Ramdas Pophale) SiO2 
 PCOD8312103
Probable space group: I -4 2 D
;
_chemical_formula_sum "Si O2"
_cell_formula_units_Z 40
_cell_length_a 19.071057
_cell_length_b 19.071057
_cell_length_c 4.882473
_cell_angle_alpha 90.000000
_cell_angle_beta 90.000000
_cell_angle_gamma 90.000000
_cell_volume 1775.780893
_symmetry_space_group_name_H-M "I -4 2 D"
_symmetry_group_IT_number 122
_symmetry_cell_setting 'tetragonal'
loop_
_space_group_symop_operation_xyz
x,y,z
y,-x,-z
-x,-y,z
-y,x,-z
x,1/2-y,1/4-z
-x,1/2+y,1/4-z
-y,1/2-x,1/4+z
y,1/2+x,1/4+z
1/2+x,1/2+y,1/2+z
1/2+y,1/2-x,1/2-z
1/2-x,1/2-y,1/2+z
1/2-y,1/2+x,1/2-z
1/2+x,-y,3/4-z
1/2-x,y,3/4-z
1/2-y,-x,3/4+z
1/2+y,x,3/4+z
loop_
_atom_site_type_symbol
_atom_site_label
_atom_site_fract_x
_atom_site_fract_y
_atom_site_fract_z
Si Si1 0.100175 0.868801 0.178488
Si Si2 0.831962 0.986842 0.329808
Si Si3 0.250000 0.295778 0.375000
O O1 0.032777 0.864790 0.377063
O O2 0.158296 0.811742 0.260966
O O3 0.133022 0.945296 0.197577
O O4 0.077412 0.849568 0.871103
O O5 0.750000 0.999560 0.375000
O O6 0.280879 0.250000 0.625000
#
# Coordination Sequence:
#
# PCOD8312103 Si02
#       3
#    16  16   8
#     4  12  26  45  73 102 146 191 234 307 365 439
#     4  12  25  47  70 104 146 187 243 300 368 438
#     4  12  24  44  72 104 136 184 252 294 360 426
#
# _framework density 22.525303999999998
#
# number of rings (size 3 to 8) (size 9 to 14) (size 15 to 20)
#    0.000    0.000    4.000    6.000    0.000    8.000 
#    0.000    0.000    0.000    0.000    0.000    0.000 
#    0.000    0.000    0.000    0.000    0.000    0.000 
#
# Total GULP energy -248142.881564 kJ/mol
# GULP energy per Si atom -12407.144078 kJ/mol
# Density = 2.247404 g / cm^3
# Si number density = 22.525304 Si / 1000 Ang^3
#
#
#
# Elastic Constant Matrix: (Units=GPa)
#
#
# Indices 1 2 3 4 5 6 
#
# 1 117.9148 46.7421 21.9626 0.0000 0.0000 0.0000
# 2 46.7421 117.9148 21.9626 0.0000 0.0000 0.0000
# 3 21.9626 21.9626 100.0627 0.0000 0.0000 0.0000
# 4 0.0000 0.0000 0.0000 29.0292 0.0000 0.0000
# 5 0.0000 0.0000 0.0000 0.0000 29.0292 0.0000
# 6 0.0000 0.0000 0.0000 0.0000 0.0000 17.8773
#
#
#
# Elastic Compliance Matrix: (Units=1/GPa)
#
#
# Indices 1 2 3 4 5 6 
#
# 1 0.010251 -0.003800 -0.001416 0.000000 0.000000 0.000000
# 2 -0.003800 0.010251 -0.001416 0.000000 0.000000 0.000000
# 3 -0.001416 -0.001416 0.010615 0.000000 0.000000 0.000000
# 4 0.000000 0.000000 0.000000 0.034448 0.000000 0.000000
# 5 0.000000 0.000000 0.000000 0.000000 0.034448 0.000000
# 6 0.000000 0.000000 0.000000 0.000000 0.000000 0.055937
#
#
# Mechanical properties :
#
#
# Convention : Reuss Voigt Hill
#
# Bulk Modulus (GPa) = 56.01129 57.46969 56.74049
# Shear Modulus (GPa) = 28.54469 31.53546 30.04007
#
# Velocity S-wave (km/s) = 3.56368 3.74572 3.65583
# Velocity P-wave (km/s) = 6.46939 6.65402 6.56235
#
# Compressibility (1/GPa) = 0.01785354
#
# Stress axis : x y z
#
# Youngs Moduli (GPa) = 97.55492 97.55492 94.20380
#
# Poissons Ratio (x) = 0.37068 0.13338
# Poissons Ratio (y) = 0.37068 0.13338
# Poissons Ratio (z) = 0.13813 0.13813
#
# Static dielectric constant tensor:
#      x y z
#    x 4.016770 0.000000 0.000000 
#    y 0.000000 4.016770 0.000000 
#    z 0.000000 0.000000 4.072340 
# 
# 
# High freq. dielectric constant tensor:
#      x y z
#    x 1.892150 0.000000 0.000000 
#    y 0.000000 1.892150 0.000000 
#    z 0.000000 0.000000 1.903000 
# 
# From -- ./inp_files/403.got.cif
#   From: 2010.03.12/outbox.cif.g09.slc.cpg/sg122_1_cif.got.tgz:403.got - 2010.04.06 16:17:16.
