data_PCOD8312875
_publ_section_title
;
Structure prediction by ZEFSAII (Michael W. Deem and Ramdas Pophale) SiO2 
 PCOD8312875
Probable space group: P 4/M M M
;
_chemical_formula_sum "Si O2"
_cell_formula_units_Z 48
_cell_length_a 18.024774
_cell_length_b 18.024774
_cell_length_c 7.577028
_cell_angle_alpha 90.000000
_cell_angle_beta 90.000000
_cell_angle_gamma 90.000000
_cell_volume 2461.719401
_symmetry_space_group_name_H-M "P 4/M M M"
_symmetry_group_IT_number 123
_symmetry_cell_setting 'tetragonal'
loop_
_space_group_symop_operation_xyz
x,y,z
-y,x,z
-x,-y,z
y,-x,z
x,-y,-z
-x,y,-z
y,x,-z
-y,-x,-z
-x,-y,-z
y,-x,-z
x,y,-z
-y,x,-z
-x,y,z
x,-y,z
-y,-x,z
y,x,z
loop_
_atom_site_type_symbol
_atom_site_label
_atom_site_fract_x
_atom_site_fract_y
_atom_site_fract_z
Si Si1 0.296920 0.703081 0.800427
Si Si2 0.131855 0.688331 0.209913
Si Si3 0.416916 0.583085 0.291662
Si Si4 0.084903 0.200956 0.500000
Si Si5 0.418022 0.000000 0.791858
O O1 0.326692 0.782478 0.726378
O O2 0.359129 0.640872 0.784926
O O3 0.279727 0.720274 0.000000
O O4 0.106999 0.759272 0.318288
O O5 0.076050 0.622391 0.269262
O O6 0.124848 0.702901 0.000000
O O7 0.396531 0.500000 0.226359
O O8 0.413535 0.586466 0.500000
O O9 0.121407 0.121407 0.500000
O O10 0.000000 0.185202 0.500000
O O11 0.500000 0.000000 0.706610
O O12 0.423813 0.000000 0.000000
#
# Coordination Sequence:
#
# PCOD8312875 Si02
#       5
#     8  16   8   8   8
#     4  10  21  35  59  88 112 149 200 250 297 352
#     4  10  21  38  59  87 121 157 195 240 300 361
#     4   9  20  38  56  78 116 162 201 247 308 358
#     4  12  24  39  64  90 116 154 198 242 292 354
#     4   9  18  35  59  85 120 160 194 238 296 359
#
# _framework density 19.498567999999999
#
# number of rings (size 3 to 8) (size 9 to 14) (size 15 to 20)
#    0.000    2.000    3.333    0.500    2.333    2.167 
#    0.000    5.833    0.000    0.000    0.000    2.333 
#    0.000    0.000    0.000    0.000    0.000    0.000 
#
# Total GULP energy -594677.614621 kJ/mol
# GULP energy per Si atom -12389.116971 kJ/mol
# Density = 1.945419 g / cm^3
# Si number density = 19.498568 Si / 1000 Ang^3
#
#
#
# Elastic Constant Matrix: (Units=GPa)
#
#
# Indices 1 2 3 4 5 6 
#
# 1 173.3312 98.4467 16.7335 0.0000 0.0000 0.0000
# 2 98.4467 173.3315 16.7333 0.0000 0.0000 0.0000
# 3 16.7335 16.7333 52.0572 0.0000 0.0000 0.0000
# 4 0.0000 0.0000 0.0000 17.6983 0.0000 0.0000
# 5 0.0000 0.0000 0.0000 0.0000 17.6983 0.0000
# 6 0.0000 0.0000 0.0000 0.0000 0.0000 41.9503
#
#
#
# Elastic Compliance Matrix: (Units=1/GPa)
#
#
# Indices 1 2 3 4 5 6 
#
# 1 0.008593 -0.004761 -0.001232 0.000000 0.000000 0.000000
# 2 -0.004761 0.008592 -0.001231 0.000000 0.000000 0.000000
# 3 -0.001232 -0.001231 0.020001 0.000000 0.000000 0.000000
# 4 0.000000 0.000000 0.000000 0.056503 0.000000 0.000000
# 5 0.000000 0.000000 0.000000 0.000000 0.056503 0.000000
# 6 0.000000 0.000000 0.000000 0.000000 0.000000 0.023838
#
#
# Mechanical properties :
#
#
# Convention : Reuss Voigt Hill
#
# Bulk Modulus (GPa) = 43.97991 73.61631 58.79811
# Shear Modulus (GPa) = 25.50275 33.25648 29.37961
#
# Velocity S-wave (km/s) = 3.62045 4.13435 3.88591
# Velocity P-wave (km/s) = 6.33098 7.78635 7.09607
#
# Compressibility (1/GPa) = 0.02273765
#
# Stress axis : x y z
#
# Youngs Moduli (GPa) = 116.38054 116.38081 49.99661
#
# Poissons Ratio (x) = 0.55413 0.06157
# Poissons Ratio (y) = 0.55413 0.06157
# Poissons Ratio (z) = 0.14333 0.14332
#
# Static dielectric constant tensor:
#      x y z
#    x 4.051440 0.000000 0.000000 
#    y 0.000000 4.051370 0.000000 
#    z 0.000000 0.000000 2.060860 
# 
# 
# High freq. dielectric constant tensor:
#      x y z
#    x 1.759820 0.000000 0.000000 
#    y 0.000000 1.759820 0.000000 
#    z 0.000000 0.000000 1.756530 
# 
# From -- ./inp_files/499.got.cif
#   From: 2010.03.12/outbox.cif.g09.slc.cpg/sg123_1_cif.got.tgz:499.got - 2010.04.06 16:26:55.
