data_PCOD8312521
_publ_section_title
;
Structure prediction by ZEFSAII (Michael W. Deem and Ramdas Pophale) SiO2 
 PCOD8312521
Probable space group: P 4/M M M
;
_chemical_formula_sum "Si O2"
_cell_formula_units_Z 112
_cell_length_a 17.041251
_cell_length_b 17.041251
_cell_length_c 26.295269
_cell_angle_alpha 90.000000
_cell_angle_beta 90.000000
_cell_angle_gamma 90.000000
_cell_volume 7636.257495
_symmetry_space_group_name_H-M "P 4/M M M"
_symmetry_group_IT_number 123
_symmetry_cell_setting 'tetragonal'
loop_
_space_group_symop_operation_xyz
x,y,z
-y,x,z
-x,-y,z
y,-x,z
x,-y,-z
-x,y,-z
y,x,-z
-y,-x,-z
-x,-y,-z
y,-x,-z
x,y,-z
-y,x,-z
-x,y,z
x,-y,z
-y,-x,z
y,x,z
loop_
_atom_site_type_symbol
_atom_site_label
_atom_site_fract_x
_atom_site_fract_y
_atom_site_fract_z
Si Si1 0.162599 0.293710 0.258074
Si Si2 0.297443 0.165904 0.556613
Si Si3 0.783620 0.089692 0.053816
Si Si4 0.714112 0.588602 0.595344
Si Si5 0.714721 0.588898 0.284222
Si Si6 0.911035 0.779370 0.647489
Si Si7 0.778644 0.091388 0.835958
O O1 0.231381 0.231381 0.262524
O O2 0.203454 0.378971 0.260783
O O3 0.104117 0.278273 0.304916
O O4 0.116125 0.286736 0.204978
O O5 0.301573 0.129187 0.500000
O O6 0.234494 0.234494 0.559968
O O7 0.380784 0.204696 0.570962
O O8 0.272188 0.099243 0.596403
O O9 0.864770 0.135231 0.053888
O O10 0.740094 0.107986 0.107628
O O11 0.808178 0.000000 0.053733
O O12 0.737011 0.109297 0.000000
O O13 0.699857 0.500000 0.576934
O O14 0.639913 0.639913 0.576668
O O15 0.722775 0.594158 0.655553
O O16 0.702146 0.500000 0.265356
O O17 0.639921 0.639921 0.265662
O O18 0.855295 0.855295 0.648552
O O19 0.000000 0.810072 0.649725
O O20 0.858106 0.141895 0.827700
O O21 0.800467 0.000000 0.828900
#
# Coordination Sequence:
#
# PCOD8312521 Si02
#       7
#    16  16  16  16  16  16  16
#     4   9  16  28  43  59  81 109 138 162 191 237
#     4   9  17  30  46  61  78 105 139 165 190 235
#     4   8  13  20  29  44  69 100 134 171 208 243
#     4   9  16  27  44  66  89 111 134 159 189 226
#     4   9  16  27  45  66  88 111 132 157 189 227
#     4  10  19  31  47  64  81 101 127 165 210 251
#     4   9  16  24  36  54  76 106 142 178 212 244
#
# _framework density 14.666869999999999
#
# number of rings (size 3 to 8) (size 9 to 14) (size 15 to 20)
#    0.000    3.000    1.429    0.429    0.000    1.286 
#    0.000    3.571    0.000    5.571    0.000    5.000 
#    0.000    0.571    0.000    4.000    0.000    1.714 
#
# Total GULP energy -1387479.843509 kJ/mol
# GULP energy per Si atom -12388.212888 kJ/mol
# Density = 1.463349 g / cm^3
# Si number density = 14.666870 Si / 1000 Ang^3
#
#
#
# Elastic Constant Matrix: (Units=GPa)
#
#
# Indices 1 2 3 4 5 6 
#
# 1 58.3873 41.8094 37.5058 0.0000 0.0000 0.0000
# 2 41.8094 58.3873 37.5058 0.0000 0.0000 0.0000
# 3 37.5058 37.5058 109.8596 0.0000 0.0000 0.0000
# 4 0.0000 0.0000 0.0000 13.8442 0.0000 0.0000
# 5 0.0000 0.0000 0.0000 0.0000 13.8442 0.0000
# 6 0.0000 0.0000 0.0000 0.0000 0.0000 13.9472
#
#
#
# Elastic Compliance Matrix: (Units=1/GPa)
#
#
# Indices 1 2 3 4 5 6 
#
# 1 0.036864 -0.023457 -0.004577 0.000000 0.000000 0.000000
# 2 -0.023457 0.036864 -0.004577 0.000000 0.000000 0.000000
# 3 -0.004577 -0.004577 0.012228 0.000000 0.000000 0.000000
# 4 0.000000 0.000000 0.000000 0.072232 0.000000 0.000000
# 5 0.000000 0.000000 0.000000 0.000000 0.072232 0.000000
# 6 0.000000 0.000000 0.000000 0.000000 0.000000 0.071699
#
#
# Mechanical properties :
#
#
# Convention : Reuss Voigt Hill
#
# Bulk Modulus (GPa) = 48.23158 51.14177 49.68667
# Shear Modulus (GPa) = 13.35993 15.64800 14.50396
#
# Velocity S-wave (km/s) = 3.02137 3.26988 3.14808
# Velocity P-wave (km/s) = 6.71771 7.01432 6.86762
#
# Compressibility (1/GPa) = 0.02073330
#
# Stress axis : x y z
#
# Youngs Moduli (GPa) = 27.12665 27.12665 81.78113
#
# Poissons Ratio (x) = 0.63631 0.37432
# Poissons Ratio (y) = 0.63631 0.37432
# Poissons Ratio (z) = 0.12416 0.12416
#
# Static dielectric constant tensor:
#      x y z
#    x 2.682860 0.000000 0.000000 
#    y 0.000000 2.682860 0.000000 
#    z 0.000000 0.000000 3.251550 
# 
# 
# High freq. dielectric constant tensor:
#      x y z
#    x 1.532250 0.000000 0.000000 
#    y 0.000000 1.532250 0.000000 
#    z 0.000000 0.000000 1.565070 
# 
# From -- ./inp_files/7586.got.cif
#   From: 2010.03.12/outbox.cif.g09.slc.cpg/sg123_4_cif.got.tgz:7586.got - 2010.04.06 16:26:55.
