data_PCOD8312272
_publ_section_title
;
Structure prediction by ZEFSAII (Michael W. Deem and Ramdas Pophale) SiO2 
 PCOD8312272
Probable space group: P 4/M M M
;
_chemical_formula_sum "Si O2"
_cell_formula_units_Z 128
_cell_length_a 19.801748
_cell_length_b 19.801748
_cell_length_c 18.076303
_cell_angle_alpha 90.000000
_cell_angle_beta 90.000000
_cell_angle_gamma 90.000000
_cell_volume 7087.885140
_symmetry_space_group_name_H-M "P 4/M M M"
_symmetry_group_IT_number 123
_symmetry_cell_setting 'tetragonal'
loop_
_space_group_symop_operation_xyz
x,y,z
-y,x,z
-x,-y,z
y,-x,z
x,-y,-z
-x,y,-z
y,x,-z
-y,-x,-z
-x,-y,-z
y,-x,-z
x,y,-z
-y,x,-z
-x,y,z
x,-y,z
-y,-x,z
y,x,z
loop_
_atom_site_type_symbol
_atom_site_label
_atom_site_fract_x
_atom_site_fract_y
_atom_site_fract_z
Si Si1 0.577528 0.833449 0.083864
Si Si2 0.313940 0.425340 0.133595
Si Si3 0.620540 0.190205 0.418251
Si Si4 0.762219 0.128090 0.580398
Si Si5 0.574108 0.925328 0.332263
Si Si6 0.265758 0.372136 0.279752
Si Si7 0.921886 0.806596 0.731897
Si Si8 0.328705 0.130887 0.212276
O O1 0.500000 0.848185 0.110230
O O2 0.590787 0.753023 0.086844
O O3 0.632915 0.873295 0.133122
O O4 0.587799 0.858175 0.000000
O O5 0.341788 0.500000 0.114621
O O6 0.370560 0.370560 0.112976
O O7 0.295132 0.425182 0.220912
O O8 0.603887 0.218461 0.500000
O O9 0.700442 0.179502 0.405839
O O10 0.584663 0.118721 0.405942
O O11 0.591347 0.239557 0.354365
O O12 0.751916 0.090718 0.500000
O O13 0.829701 0.170300 0.575099
O O14 0.772391 0.078330 0.649945
O O15 0.500000 0.911827 0.297984
O O16 0.628569 0.913366 0.269044
O O17 0.582191 0.000000 0.362621
O O18 0.323278 0.323278 0.308218
O O19 0.207881 0.327976 0.239833
O O20 0.872501 0.872501 0.738244
O O21 0.897034 0.748499 0.790052
O O22 0.000000 0.827452 0.749072
#
# Coordination Sequence:
#
# PCOD8312272 Si02
#       8
#    16  16  16  16  16  16  16  16
#     4   9  18  33  54  83 117 144 166 201 253 307
#     4   9  18  31  48  71 100 137 176 212 251 297
#     4  10  19  28  43  66  94 128 165 208 253 305
#     4   9  17  30  49  73  99 128 167 216 267 319
#     4  10  20  32  45  63  92 129 166 203 241 284
#     4   9  16  28  46  68  95 122 156 205 257 302
#     4  11  22  36  55  78 104 136 176 223 272 321
#     4  10  18  31  54  77  98 131 171 204 240 299
#
# _framework density 18.058983999999999
#
# number of rings (size 3 to 8) (size 9 to 14) (size 15 to 20)
#    0.000    2.375    2.500    1.500    0.000    5.500 
#    0.000    1.875    0.000    1.500    0.000    7.875 
#    0.000    0.000    0.000    3.875    0.000    0.000 
#
# Total GULP energy -1585805.181028 kJ/mol
# GULP energy per Si atom -12389.102977 kJ/mol
# Density = 1.801788 g / cm^3
# Si number density = 18.058984 Si / 1000 Ang^3
#
#
#
# Elastic Constant Matrix: (Units=GPa)
#
#
# Indices 1 2 3 4 5 6 
#
# 1 67.5798 22.5390 20.0894 0.0000 0.0000 0.0000
# 2 22.5390 67.5798 20.0894 0.0000 0.0000 0.0000
# 3 20.0894 20.0894 82.5378 0.0000 0.0000 0.0000
# 4 0.0000 0.0000 0.0000 14.6198 0.0000 0.0000
# 5 0.0000 0.0000 0.0000 0.0000 14.6198 0.0000
# 6 0.0000 0.0000 0.0000 0.0000 0.0000 19.8000
#
#
#
# Elastic Compliance Matrix: (Units=1/GPa)
#
#
# Indices 1 2 3 4 5 6 
#
# 1 0.017325 -0.004877 -0.003030 0.000000 0.000000 0.000000
# 2 -0.004877 0.017325 -0.003030 0.000000 0.000000 0.000000
# 3 -0.003030 -0.003030 0.013590 0.000000 0.000000 0.000000
# 4 0.000000 0.000000 0.000000 0.068400 0.000000 0.000000
# 5 0.000000 0.000000 0.000000 0.000000 0.068400 0.000000
# 6 0.000000 0.000000 0.000000 0.000000 0.000000 0.050505
#
#
# Mechanical properties :
#
#
# Convention : Reuss Voigt Hill
#
# Bulk Modulus (GPa) = 37.92701 38.12588 38.02645
# Shear Modulus (GPa) = 18.78235 20.13990 19.46113
#
# Velocity S-wave (km/s) = 3.22849 3.34313 3.28631
# Velocity P-wave (km/s) = 5.91142 6.00497 5.95838
#
# Compressibility (1/GPa) = 0.02636643
#
# Stress axis : x y z
#
# Youngs Moduli (GPa) = 57.72130 57.72130 73.58109
#
# Poissons Ratio (x) = 0.28153 0.22292
# Poissons Ratio (y) = 0.28153 0.22292
# Poissons Ratio (z) = 0.17487 0.17487
#
# Static dielectric constant tensor:
#      x y z
#    x 3.229700 0.000000 0.000000 
#    y 0.000000 3.229700 0.000000 
#    z 0.000000 0.000000 3.377090 
# 
# 
# High freq. dielectric constant tensor:
#      x y z
#    x 1.680690 0.000000 0.000000 
#    y 0.000000 1.680690 0.000000 
#    z 0.000000 0.000000 1.684180 
# 
# From -- ./inp_files/6030.got.cif
#   From: 2010.03.12/outbox.cif.g09.slc.cpg/sg123_4_cif.got.tgz:6030.got - 2010.04.06 16:26:55.
