data_PCOD8312001
_publ_section_title
;
Structure prediction by ZEFSAII (Michael W. Deem and Ramdas Pophale) SiO2 
 PCOD8312001
Probable space group: I -4 2 D
;
_chemical_formula_sum "Si O2"
_cell_formula_units_Z 64
_cell_length_a 15.368968
_cell_length_b 15.368968
_cell_length_c 13.625202
_cell_angle_alpha 90.000000
_cell_angle_beta 90.000000
_cell_angle_gamma 90.000000
_cell_volume 3218.343255
_symmetry_space_group_name_H-M "I -4 2 D"
_symmetry_group_IT_number 122
_symmetry_cell_setting 'tetragonal'
loop_
_space_group_symop_operation_xyz
x,y,z
y,-x,-z
-x,-y,z
-y,x,-z
x,1/2-y,1/4-z
-x,1/2+y,1/4-z
-y,1/2-x,1/4+z
y,1/2+x,1/4+z
1/2+x,1/2+y,1/2+z
1/2+y,1/2-x,1/2-z
1/2-x,1/2-y,1/2+z
1/2-y,1/2+x,1/2-z
1/2+x,-y,3/4-z
1/2-x,y,3/4-z
1/2-y,-x,3/4+z
1/2+y,x,3/4+z
loop_
_atom_site_type_symbol
_atom_site_label
_atom_site_fract_x
_atom_site_fract_y
_atom_site_fract_z
Si Si1 0.150980 0.102985 0.386468
Si Si2 0.170640 0.003004 0.739350
Si Si3 0.100474 0.152887 0.603107
Si Si4 0.369610 0.004784 0.791461
O O1 0.250000 0.136572 0.375000
O O2 0.113893 0.131851 0.490145
O O3 0.090400 0.144298 0.303493
O O4 0.145923 0.000350 0.371310
O O5 0.151044 0.082861 0.667730
O O6 0.272427 0.000431 0.755109
O O7 0.121396 0.017862 0.841793
O O8 0.135688 0.250000 0.625000
O O9 0.414634 0.085266 0.737566
#
# Coordination Sequence:
#
# PCOD8312001 Si02
#       4
#    16  16  16  16
#     4  11  25  42  68  99 134 175 221 279 337 398
#     4  11  25  44  68  98 131 176 225 272 334 400
#     4  11  25  42  68  99 134 175 221 279 337 398
#     4  10  26  45  68  94 133 174 221 271 328 398
#
# _framework density 19.886006999999999
#
# number of rings (size 3 to 8) (size 9 to 14) (size 15 to 20)
#    0.000    1.250    2.500    0.750   14.000    2.000 
#    0.000    0.000    0.000    0.000    0.000    0.000 
#    0.000    0.000    0.000    0.000    0.000    0.000 
#
# Total GULP energy -396956.650197 kJ/mol
# GULP energy per Si atom -12404.895319 kJ/mol
# Density = 1.984075 g / cm^3
# Si number density = 19.886007 Si / 1000 Ang^3
#
#
#
# Elastic Constant Matrix: (Units=GPa)
#
#
# Indices 1 2 3 4 5 6 
#
# 1 92.1967 34.5278 31.0984 0.0000 0.0000 0.0000
# 2 34.5278 92.1967 31.0984 0.0000 0.0000 0.0000
# 3 31.0984 31.0984 60.9248 0.0000 0.0000 0.0000
# 4 0.0000 0.0000 0.0000 47.8652 0.0000 0.0000
# 5 0.0000 0.0000 0.0000 0.0000 47.8652 0.0000
# 6 0.0000 0.0000 0.0000 0.0000 0.0000 0.1171
#
#
#
# Elastic Compliance Matrix: (Units=1/GPa)
#
#
# Indices 1 2 3 4 5 6 
#
# 1 0.013935 -0.003406 -0.005374 0.000000 0.000000 0.000000
# 2 -0.003406 0.013935 -0.005374 0.000000 0.000000 0.000000
# 3 -0.005374 -0.005374 0.021900 0.000000 0.000000 0.000000
# 4 0.000000 0.000000 0.000000 0.020892 0.000000 0.000000
# 5 0.000000 0.000000 0.000000 0.000000 0.020892 0.000000
# 6 0.000000 0.000000 0.000000 0.000000 0.000000 8.539986
#
#
# Mechanical properties :
#
#
# Convention : Reuss Voigt Hill
#
# Bulk Modulus (GPa) = 46.59705 48.75194 47.67450
# Shear Modulus (GPa) = 0.57690 29.07574 14.82632
#
# Velocity S-wave (km/s) = 0.53920 3.82792 2.73347
# Velocity P-wave (km/s) = 4.88575 6.64125 5.82996
#
# Compressibility (1/GPa) = 0.02146059
#
# Stress axis : x y z
#
# Youngs Moduli (GPa) = 71.76364 71.76364 45.66162
#
# Poissons Ratio (x) = 0.24441 0.24540
# Poissons Ratio (y) = 0.24441 0.24540
# Poissons Ratio (z) = 0.38568 0.38568
#
# Static dielectric constant tensor:
#      x y z
#    x 3.753590 0.000000 0.000000 
#    y 0.000000 3.753590 0.000000 
#    z 0.000000 0.000000 5.184530 
# 
# 
# High freq. dielectric constant tensor:
#      x y z
#    x 1.785830 0.000000 0.000000 
#    y 0.000000 1.785830 0.000000 
#    z 0.000000 0.000000 1.792930 
# 
# From -- ./inp_files/5130.got.cif
#   From: 2010.03.12/outbox.cif.g09.slc.cpg/sg122_3_cif.got.tgz:5130.got - 2010.04.06 16:17:16.
