data_PCOD8312422
_publ_section_title
;
Structure prediction by ZEFSAII (Michael W. Deem and Ramdas Pophale) SiO2 
 PCOD8312422
Probable space group: P 4/M M M
;
_chemical_formula_sum "Si O2"
_cell_formula_units_Z 64
_cell_length_a 14.085149
_cell_length_b 14.085149
_cell_length_c 20.488118
_cell_angle_alpha 90.000000
_cell_angle_beta 90.000000
_cell_angle_gamma 90.000000
_cell_volume 4064.666871
_symmetry_space_group_name_H-M "P 4/M M M"
_symmetry_group_IT_number 123
_symmetry_cell_setting 'tetragonal'
loop_
_space_group_symop_operation_xyz
x,y,z
-y,x,z
-x,-y,z
y,-x,z
x,-y,-z
-x,y,-z
y,x,-z
-y,-x,-z
-x,-y,-z
y,-x,-z
x,y,-z
-y,x,-z
-x,y,z
x,-y,z
-y,-x,z
y,x,z
loop_
_atom_site_type_symbol
_atom_site_label
_atom_site_fract_x
_atom_site_fract_y
_atom_site_fract_z
Si Si1 0.891010 0.737782 0.114747
Si Si2 0.732232 0.112784 0.500000
Si Si3 0.604882 0.887332 0.000000
Si Si4 0.394307 0.887857 0.378346
Si Si5 0.109164 0.736379 0.262301
O O1 0.834917 0.834917 0.103606
O O2 0.877313 0.699124 0.188349
O O3 0.000000 0.762225 0.099863
O O4 0.852089 0.658417 0.065109
O O5 0.832828 0.167173 0.500000
O O6 0.671694 0.146275 0.437549
O O7 0.753135 0.000000 0.500000
O O8 0.500000 0.841830 0.000000
O O9 0.597497 0.000000 0.000000
O O10 0.500000 0.842589 0.383545
O O11 0.347300 0.855829 0.310006
O O12 0.404097 0.000000 0.381427
O O13 0.168763 0.831238 0.275569
O O14 0.000000 0.763470 0.276543
#
# Coordination Sequence:
#
# PCOD8312422 Si02
#       5
#    16   8   8  16  16
#     4   9  17  28  42  61  86 115 144 173 205 244
#     4  10  19  30  45  65  90 118 145 173 206 247
#     4   9  17  28  41  57  79 109 143 177 215 254
#     4   9  17  29  44  61  83 113 147 180 212 244
#     4   9  17  28  42  62  88 116 144 173 205 245
#
# _framework density 15.745447
#
# number of rings (size 3 to 8) (size 9 to 14) (size 15 to 20)
#    0.000    2.875    0.000    1.500    0.000    3.125 
#    0.000    7.500    0.000    6.750    0.000    0.000 
#    0.000   24.500    0.000   22.000    0.000    2.000 
#
# Total GULP energy -793410.205389 kJ/mol
# GULP energy per Si atom -12397.034459 kJ/mol
# Density = 1.570961 g / cm^3
# Si number density = 15.745447 Si / 1000 Ang^3
#
#
#
# Elastic Constant Matrix: (Units=GPa)
#
#
# Indices 1 2 3 4 5 6 
#
# 1 76.8288 40.9162 52.9767 0.0000 0.0000 0.0000
# 2 40.9162 76.8304 52.9773 0.0000 0.0000 0.0000
# 3 52.9767 52.9773 126.1934 0.0000 0.0000 0.0000
# 4 0.0000 0.0000 0.0000 21.8000 0.0000 0.0000
# 5 0.0000 0.0000 0.0000 0.0000 21.7998 0.0000
# 6 0.0000 0.0000 0.0000 0.0000 0.0000 4.1549
#
#
#
# Elastic Compliance Matrix: (Units=1/GPa)
#
#
# Indices 1 2 3 4 5 6 
#
# 1 0.020747 -0.007098 -0.005730 0.000000 0.000000 0.000000
# 2 -0.007098 0.020747 -0.005730 0.000000 0.000000 0.000000
# 3 -0.005730 -0.005730 0.012735 0.000000 0.000000 0.000000
# 4 0.000000 0.000000 0.000000 0.045872 0.000000 0.000000
# 5 0.000000 0.000000 0.000000 0.000000 0.045872 0.000000
# 6 0.000000 0.000000 0.000000 0.000000 0.000000 0.240677
#
#
# Mechanical properties :
#
#
# Convention : Reuss Voigt Hill
#
# Bulk Modulus (GPa) = 58.43349 63.73256 61.08302
# Shear Modulus (GPa) = 11.64226 18.41645 15.02936
#
# Velocity S-wave (km/s) = 2.72215 3.42371 3.09288
# Velocity P-wave (km/s) = 6.86091 7.49625 7.18560
#
# Compressibility (1/GPa) = 0.01711347
#
# Stress axis : x y z
#
# Youngs Moduli (GPa) = 48.19955 48.20056 78.52183
#
# Poissons Ratio (x) = 0.34212 0.44993
# Poissons Ratio (y) = 0.34211 0.44993
# Poissons Ratio (z) = 0.27618 0.27619
#
# Static dielectric constant tensor:
#      x y z
#    x 2.864360 0.000000 0.000000 
#    y 0.000000 2.864360 0.000000 
#    z 0.000000 0.000000 3.302590 
# 
# 
# High freq. dielectric constant tensor:
#      x y z
#    x 1.574230 0.000000 0.000000 
#    y 0.000000 1.574230 0.000000 
#    z 0.000000 0.000000 1.627040 
# 
# From -- ./inp_files/5062.got.cif
#   From: 2010.03.12/outbox.cif.g09.slc.cpg/sg123_3_cif.got.tgz:5062.got - 2010.04.06 16:26:55.
