data_PCOD8312776
_publ_section_title
;
Structure prediction by ZEFSAII (Michael W. Deem and Ramdas Pophale) SiO2 
 PCOD8312776
Probable space group: P 4/M M M
;
_chemical_formula_sum "Si O2"
_cell_formula_units_Z 80
_cell_length_a 13.512085
_cell_length_b 13.512085
_cell_length_c 25.530866
_cell_angle_alpha 90.000000
_cell_angle_beta 90.000000
_cell_angle_gamma 90.000000
_cell_volume 4661.334651
_symmetry_space_group_name_H-M "P 4/M M M"
_symmetry_group_IT_number 123
_symmetry_cell_setting 'tetragonal'
loop_
_space_group_symop_operation_xyz
x,y,z
-y,x,z
-x,-y,z
y,-x,z
x,-y,-z
-x,y,-z
y,x,-z
-y,-x,-z
-x,-y,-z
y,-x,-z
x,y,-z
-y,x,-z
-x,y,z
x,-y,z
-y,-x,z
y,x,z
loop_
_atom_site_type_symbol
_atom_site_label
_atom_site_fract_x
_atom_site_fract_y
_atom_site_fract_z
Si Si1 0.227463 0.385638 0.557667
Si Si2 0.116833 0.724128 0.238284
Si Si3 0.778412 0.384161 0.147428
Si Si4 0.726997 0.886473 0.939686
Si Si5 0.610952 0.883691 0.658911
O O1 0.179966 0.364646 0.500000
O O2 0.251193 0.500000 0.564736
O O3 0.331583 0.331583 0.563533
O O4 0.154467 0.347736 0.603194
O O5 0.171480 0.828521 0.228689
O O6 0.148826 0.644970 0.194716
O O7 0.151178 0.681785 0.294356
O O8 0.000000 0.742539 0.235018
O O9 0.754121 0.500000 0.149513
O O10 0.675106 0.324895 0.151444
O O11 0.835023 0.359560 0.093497
O O12 0.831151 0.831151 0.929245
O O13 0.741563 0.000000 0.922382
O O14 0.694739 0.878357 0.000000
O O15 0.500000 0.843458 0.669658
O O16 0.609471 0.000000 0.655492
#
# Coordination Sequence:
#
# PCOD8312776 Si02
#       5
#    16  16  16  16  16
#     4   9  17  28  42  61  86 116 148 183 224 269
#     4  10  20  33  50  72  97 125 156 190 230 277
#     4  10  21  36  53  73  97 125 159 199 240 283
#     4   9  18  32  50  74 103 133 165 200 238 281
#     4   9  17  29  46  67  89 115 149 188 229 272
#
# _framework density 17.162466999999999
#
# number of rings (size 3 to 8) (size 9 to 14) (size 15 to 20)
#    0.000    2.600    0.000    1.800    0.000    4.000 
#    0.000    5.000    0.000    3.600    0.000    5.600 
#    0.000    0.000    0.000   18.600    0.000    0.400 
#
# Total GULP energy -991824.868579 kJ/mol
# GULP energy per Si atom -12397.810857 kJ/mol
# Density = 1.712340 g / cm^3
# Si number density = 17.162467 Si / 1000 Ang^3
#
#
#
# Elastic Constant Matrix: (Units=GPa)
#
#
# Indices 1 2 3 4 5 6 
#
# 1 83.2515 39.4733 43.3248 0.0000 0.0000 0.0000
# 2 39.4733 83.2515 43.3248 0.0000 0.0000 0.0000
# 3 43.3248 43.3248 110.8746 0.0000 0.0000 0.0000
# 4 0.0000 0.0000 0.0000 25.2091 0.0000 0.0000
# 5 0.0000 0.0000 0.0000 0.0000 25.2091 0.0000
# 6 0.0000 0.0000 0.0000 0.0000 0.0000 17.5749
#
#
#
# Elastic Compliance Matrix: (Units=1/GPa)
#
#
# Indices 1 2 3 4 5 6 
#
# 1 0.017048 -0.005795 -0.004397 0.000000 0.000000 0.000000
# 2 -0.005795 0.017048 -0.004397 0.000000 0.000000 0.000000
# 3 -0.004397 -0.004397 0.012456 0.000000 0.000000 0.000000
# 4 0.000000 0.000000 0.000000 0.039668 0.000000 0.000000
# 5 0.000000 0.000000 0.000000 0.000000 0.039668 0.000000
# 6 0.000000 0.000000 0.000000 0.000000 0.000000 0.056899
#
#
# Mechanical properties :
#
#
# Convention : Reuss Voigt Hill
#
# Bulk Modulus (GPa) = 57.56097 58.84705 58.20401
# Shear Modulus (GPa) = 22.96150 23.68225 23.32188
#
# Velocity S-wave (km/s) = 3.66169 3.71871 3.69031
# Velocity P-wave (km/s) = 7.17558 7.26644 7.22115
#
# Compressibility (1/GPa) = 0.01737288
#
# Stress axis : x y z
#
# Youngs Moduli (GPa) = 58.65904 58.65904 80.28520
#
# Poissons Ratio (x) = 0.33992 0.35302
# Poissons Ratio (y) = 0.33992 0.35302
# Poissons Ratio (z) = 0.25793 0.25793
#
# Static dielectric constant tensor:
#      x y z
#    x 3.075400 0.000000 0.000000 
#    y 0.000000 3.075400 0.000000 
#    z 0.000000 0.000000 3.571730 
# 
# 
# High freq. dielectric constant tensor:
#      x y z
#    x 1.649330 0.000000 0.000000 
#    y 0.000000 1.649330 0.000000 
#    z 0.000000 0.000000 1.683300 
# 
# From -- ./inp_files/8318.got.cif
#   From: 2010.03.12/outbox.cif.g09.slc.cpg/sg123_5_cif.got.tgz:8318.got - 2010.04.06 16:26:55.
