data_PCOD8312180
_publ_section_title
;
Structure prediction by ZEFSAII (Michael W. Deem and Ramdas Pophale) SiO2 
 PCOD8312180
Probable space group: P 4/M M M
;
_chemical_formula_sum "Si O2"
_cell_formula_units_Z 72
_cell_length_a 20.700498
_cell_length_b 20.700498
_cell_length_c 10.488215
_cell_angle_alpha 90.000000
_cell_angle_beta 90.000000
_cell_angle_gamma 90.000000
_cell_volume 4494.311486
_symmetry_space_group_name_H-M "P 4/M M M"
_symmetry_group_IT_number 123
_symmetry_cell_setting 'tetragonal'
loop_
_space_group_symop_operation_xyz
x,y,z
-y,x,z
-x,-y,z
y,-x,z
x,-y,-z
-x,y,-z
y,x,-z
-y,-x,-z
-x,-y,-z
y,-x,-z
x,y,-z
-y,x,-z
-x,y,z
x,-y,z
-y,-x,z
y,x,z
loop_
_atom_site_type_symbol
_atom_site_label
_atom_site_fract_x
_atom_site_fract_y
_atom_site_fract_z
Si Si1 0.648386 0.925161 0.251960
Si Si2 0.814385 0.573591 0.358435
Si Si3 0.076017 0.428078 0.000000
Si Si4 0.253988 0.644337 0.858595
Si Si5 0.245958 0.146979 0.143640
O O1 0.617198 0.879707 0.358882
O O2 0.611603 0.902056 0.123378
O O3 0.725474 0.910960 0.231842
O O4 0.638231 0.000000 0.287024
O O5 0.784085 0.581544 0.500000
O O6 0.835003 0.500000 0.332550
O O7 0.761125 0.593592 0.253521
O O8 0.107129 0.500000 0.000000
O O9 0.000000 0.434480 0.000000
O O10 0.325165 0.674836 0.836543
O O11 0.202893 0.701524 0.852592
O O12 0.250800 0.611590 0.000000
O O13 0.177833 0.177833 0.194235
O O14 0.235425 0.121125 0.000000
#
# Coordination Sequence:
#
# PCOD8312180 Si02
#       5
#    16  16   8  16  16
#     4  10  18  28  41  57  80 113 151 187 221 263
#     4  10  21  32  41  60  91 124 154 181 214 260
#     4   9  16  24  35  54  76 100 138 183 216 247
#     4   8  15  29  48  66  82 106 145 190 230 263
#     4   8  13  23  39  58  79 100 127 174 231 273
#
# _framework density 16.020251999999999
#
# number of rings (size 3 to 8) (size 9 to 14) (size 15 to 20)
#    0.000    3.000    1.111    2.000    1.556    2.667 
#    0.000    1.111    0.000    0.000    0.000    0.000 
#    0.000    0.889    0.000    7.333    0.000    4.000 
#
# Total GULP energy -891940.959426 kJ/mol
# GULP energy per Si atom -12388.068881 kJ/mol
# Density = 1.598379 g / cm^3
# Si number density = 16.020252 Si / 1000 Ang^3
#
#
#
# Elastic Constant Matrix: (Units=GPa)
#
#
# Indices 1 2 3 4 5 6 
#
# 1 43.7075 36.3893 29.7131 0.0000 0.0000 0.0000
# 2 36.3893 43.7075 29.7131 0.0000 0.0000 0.0000
# 3 29.7131 29.7131 84.9466 0.0000 0.0000 0.0000
# 4 0.0000 0.0000 0.0000 17.2947 0.0000 0.0000
# 5 0.0000 0.0000 0.0000 0.0000 17.2947 0.0000
# 6 0.0000 0.0000 0.0000 0.0000 0.0000 19.2050
#
#
#
# Elastic Compliance Matrix: (Units=1/GPa)
#
#
# Indices 1 2 3 4 5 6 
#
# 1 0.076753 -0.059893 -0.005898 0.000000 0.000000 0.000000
# 2 -0.059893 0.076753 -0.005898 0.000000 0.000000 0.000000
# 3 -0.005898 -0.005898 0.015898 0.000000 0.000000 0.000000
# 4 0.000000 0.000000 0.000000 0.057821 0.000000 0.000000
# 5 0.000000 0.000000 0.000000 0.000000 0.057821 0.000000
# 6 0.000000 0.000000 0.000000 0.000000 0.000000 0.052070
#
#
# Mechanical properties :
#
#
# Convention : Reuss Voigt Hill
#
# Bulk Modulus (GPa) = 38.41931 40.44362 39.43146
# Shear Modulus (GPa) = 10.22142 15.86197 13.04169
#
# Velocity S-wave (km/s) = 2.52867 3.15003 2.85630
# Velocity P-wave (km/s) = 5.70608 6.20728 5.96195
#
# Compressibility (1/GPa) = 0.02602858
#
# Stress axis : x y z
#
# Youngs Moduli (GPa) = 13.02874 13.02874 62.90161
#
# Poissons Ratio (x) = 0.78033 0.37096
# Poissons Ratio (y) = 0.78033 0.37096
# Poissons Ratio (z) = 0.07684 0.07684
#
# Static dielectric constant tensor:
#      x y z
#    x 3.175560 0.000000 0.000000 
#    y 0.000000 3.175560 0.000000 
#    z 0.000000 0.000000 3.000960 
# 
# 
# High freq. dielectric constant tensor:
#      x y z
#    x 1.584390 0.000000 0.000000 
#    y 0.000000 1.584390 0.000000 
#    z 0.000000 0.000000 1.603430 
# 
# From -- ./inp_files/2953.got.cif
#   From: 2010.03.12/outbox.cif.g09.slc.cpg/sg123_2_cif.got.tgz:2953.got - 2010.04.06 16:26:55.
