data_PCOD8312691
_publ_section_title
;
Structure prediction by ZEFSAII (Michael W. Deem and Ramdas Pophale) SiO2 
 PCOD8312691
Probable space group: P 4/M M M
;
_chemical_formula_sum "Si O2"
_cell_formula_units_Z 80
_cell_length_a 13.592632
_cell_length_b 13.592632
_cell_length_c 25.744305
_cell_angle_alpha 90.000000
_cell_angle_beta 90.000000
_cell_angle_gamma 90.000000
_cell_volume 4756.508645
_symmetry_space_group_name_H-M "P 4/M M M"
_symmetry_group_IT_number 123
_symmetry_cell_setting 'tetragonal'
loop_
_space_group_symop_operation_xyz
x,y,z
-y,x,z
-x,-y,z
y,-x,z
x,-y,-z
-x,y,-z
y,x,-z
-y,-x,-z
-x,-y,-z
y,-x,-z
x,y,-z
-y,x,-z
-x,y,z
x,-y,z
-y,-x,z
y,x,z
loop_
_atom_site_type_symbol
_atom_site_label
_atom_site_fract_x
_atom_site_fract_y
_atom_site_fract_z
Si Si1 0.616186 0.225707 0.156816
Si Si2 0.391511 0.883537 0.344728
Si Si3 0.116012 0.724579 0.756417
Si Si4 0.109585 0.383411 0.057319
Si Si5 0.886980 0.728272 0.557978
O O1 0.500000 0.245013 0.158905
O O2 0.671196 0.328805 0.167313
O O3 0.645581 0.145066 0.199727
O O4 0.653105 0.184821 0.101150
O O5 0.500000 0.836810 0.337275
O O6 0.320188 0.849598 0.298568
O O7 0.349885 0.846865 0.400164
O O8 0.400406 0.000000 0.344205
O O9 0.172548 0.827453 0.765174
O O10 0.000000 0.745433 0.758813
O O11 0.103771 0.500000 0.059577
O O12 0.000000 0.340753 0.067887
O O13 0.146137 0.349229 0.000000
O O14 0.872557 0.683775 0.500000
O O15 0.830254 0.830254 0.564261
O O16 0.000000 0.753976 0.569146
#
# Coordination Sequence:
#
# PCOD8312691 Si02
#       5
#    16  16  16  16  16
#     4  10  20  32  47  68  94 126 164 203 241 282
#     4   9  17  29  45  64  87 117 151 185 222 266
#     4  10  20  33  50  72  96 122 153 189 232 284
#     4   8  14  26  45  67  89 115 150 193 239 284
#     4   9  17  28  42  62  89 120 153 189 230 278
#
# _framework density 16.819058999999999
#
# number of rings (size 3 to 8) (size 9 to 14) (size 15 to 20)
#    0.000    2.800    0.000    2.400    0.000    3.400 
#    0.000    3.000    0.000    3.600    0.000    2.800 
#    0.000    3.600    0.000   27.400    0.000    1.800 
#
# Total GULP energy -991657.169167 kJ/mol
# GULP energy per Si atom -12395.714615 kJ/mol
# Density = 1.678078 g / cm^3
# Si number density = 16.819059 Si / 1000 Ang^3
#
#
#
# Elastic Constant Matrix: (Units=GPa)
#
#
# Indices 1 2 3 4 5 6 
#
# 1 72.9001 32.8847 38.0780 0.0000 0.0000 0.0000
# 2 32.8847 72.9001 38.0780 0.0000 0.0000 0.0000
# 3 38.0780 38.0780 121.6338 0.0000 0.0000 0.0000
# 4 0.0000 0.0000 0.0000 23.7180 0.0000 0.0000
# 5 0.0000 0.0000 0.0000 0.0000 23.7180 0.0000
# 6 0.0000 0.0000 0.0000 0.0000 0.0000 12.7671
#
#
#
# Elastic Compliance Matrix: (Units=1/GPa)
#
#
# Indices 1 2 3 4 5 6 
#
# 1 0.018597 -0.006393 -0.003820 0.000000 0.000000 0.000000
# 2 -0.006393 0.018597 -0.003820 0.000000 0.000000 0.000000
# 3 -0.003820 -0.003820 0.010613 0.000000 0.000000 0.000000
# 4 0.000000 0.000000 0.000000 0.042162 0.000000 0.000000
# 5 0.000000 0.000000 0.000000 0.000000 0.042162 0.000000
# 6 0.000000 0.000000 0.000000 0.000000 0.000000 0.078326
#
#
# Mechanical properties :
#
#
# Convention : Reuss Voigt Hill
#
# Bulk Modulus (GPa) = 50.66138 53.94617 52.30378
# Shear Modulus (GPa) = 20.39937 22.60018 21.49978
#
# Velocity S-wave (km/s) = 3.48641 3.66966 3.57921
# Velocity P-wave (km/s) = 6.81128 7.07808 6.94596
#
# Compressibility (1/GPa) = 0.01973890
#
# Stress axis : x y z
#
# Youngs Moduli (GPa) = 53.77237 53.77237 94.22082
#
# Poissons Ratio (x) = 0.34379 0.35996
# Poissons Ratio (y) = 0.34379 0.35996
# Poissons Ratio (z) = 0.20543 0.20543
#
# Static dielectric constant tensor:
#      x y z
#    x 2.940330 0.000000 0.000000 
#    y 0.000000 2.940330 0.000000 
#    z 0.000000 0.000000 3.547490 
# 
# 
# High freq. dielectric constant tensor:
#      x y z
#    x 1.622960 0.000000 0.000000 
#    y 0.000000 1.622960 0.000000 
#    z 0.000000 0.000000 1.669870 
# 
# From -- ./inp_files/7107.got.cif
#   From: 2010.03.12/outbox.cif.g09.slc.cpg/sg123_4_cif.got.tgz:7107.got - 2010.04.06 16:26:55.
