data_PCOD8312235
_publ_section_title
;
Structure prediction by ZEFSAII (Michael W. Deem and Ramdas Pophale) SiO2 
 PCOD8312235
Probable space group: P 4/M M M
;
_chemical_formula_sum "Si O2"
_cell_formula_units_Z 48
_cell_length_a 16.700296
_cell_length_b 16.700296
_cell_length_c 10.353542
_cell_angle_alpha 90.000000
_cell_angle_beta 90.000000
_cell_angle_gamma 90.000000
_cell_volume 2887.601689
_symmetry_space_group_name_H-M "P 4/M M M"
_symmetry_group_IT_number 123
_symmetry_cell_setting 'tetragonal'
loop_
_space_group_symop_operation_xyz
x,y,z
-y,x,z
-x,-y,z
y,-x,z
x,-y,-z
-x,y,-z
y,x,-z
-y,-x,-z
-x,-y,-z
y,-x,-z
x,y,-z
-y,x,-z
-x,y,z
x,-y,z
-y,-x,z
y,x,z
loop_
_atom_site_type_symbol
_atom_site_label
_atom_site_fract_x
_atom_site_fract_y
_atom_site_fract_z
Si Si1 0.592629 0.727229 0.000000
Si Si2 0.908595 0.779242 0.651096
Si Si3 0.588515 0.722386 0.500000
Si Si4 0.208353 0.657803 0.743915
O O1 0.610096 0.783674 0.877462
O O2 0.500000 0.699841 0.000000
O O3 0.647009 0.647009 0.000000
O O4 0.898684 0.759485 0.500000
O O5 0.858839 0.858839 0.687291
O O6 0.877344 0.702120 0.731399
O O7 0.000000 0.795528 0.689821
O O8 0.500000 0.685324 0.500000
O O9 0.648420 0.648420 0.500000
O O10 0.597720 0.778587 0.625200
O O11 0.274637 0.725364 0.733753
#
# Coordination Sequence:
#
# PCOD8312235 Si02
#       4
#     8  16   8  16
#     4  10  20  33  51  73  96 124 160 202 246 290
#     4   9  16  28  49  75 101 128 159 197 238 282
#     4  10  18  29  47  67  90 120 154 196 242 286
#     4   9  17  31  48  68  94 128 163 191 230 287
#
# _framework density 16.622790999999999
#
# number of rings (size 3 to 8) (size 9 to 14) (size 15 to 20)
#    0.000    2.667    1.667    1.000    0.000    0.667 
#    0.000    2.500    0.000   12.000    0.000    0.000 
#    0.000    6.667    0.000    0.000    0.000    0.000 
#
# Total GULP energy -595041.241645 kJ/mol
# GULP energy per Si atom -12396.692534 kJ/mol
# Density = 1.658496 g / cm^3
# Si number density = 16.622791 Si / 1000 Ang^3
#
#
#
# Elastic Constant Matrix: (Units=GPa)
#
#
# Indices 1 2 3 4 5 6 
#
# 1 90.6509 64.7979 45.2049 0.0000 0.0000 0.0000
# 2 64.7979 90.6509 45.2049 0.0000 0.0000 0.0000
# 3 45.2049 45.2049 117.1738 0.0000 0.0000 0.0000
# 4 0.0000 0.0000 0.0000 14.8184 0.0000 0.0000
# 5 0.0000 0.0000 0.0000 0.0000 14.8184 0.0000
# 6 0.0000 0.0000 0.0000 0.0000 0.0000 16.5992
#
#
#
# Elastic Compliance Matrix: (Units=1/GPa)
#
#
# Indices 1 2 3 4 5 6 
#
# 1 0.023487 -0.015193 -0.003200 0.000000 0.000000 0.000000
# 2 -0.015193 0.023487 -0.003200 0.000000 0.000000 0.000000
# 3 -0.003200 -0.003200 0.011003 0.000000 0.000000 0.000000
# 4 0.000000 0.000000 0.000000 0.067484 0.000000 0.000000
# 5 0.000000 0.000000 0.000000 0.000000 0.067484 0.000000
# 6 0.000000 0.000000 0.000000 0.000000 0.000000 0.060244
#
#
# Mechanical properties :
#
#
# Convention : Reuss Voigt Hill
#
# Bulk Modulus (GPa) = 67.60349 67.65456 67.62902
# Shear Modulus (GPa) = 16.59448 18.79838 17.69643
#
# Velocity S-wave (km/s) = 3.16301 3.36650 3.26634
# Velocity P-wave (km/s) = 7.35506 7.47659 7.41607
#
# Compressibility (1/GPa) = 0.01479214
#
# Stress axis : x y z
#
# Youngs Moduli (GPa) = 42.57650 42.57650 90.88241
#
# Poissons Ratio (x) = 0.64687 0.29080
# Poissons Ratio (y) = 0.64687 0.29080
# Poissons Ratio (z) = 0.13623 0.13623
#
# Static dielectric constant tensor:
#      x y z
#    x 3.019750 0.000000 0.000000 
#    y 0.000000 3.019750 0.000000 
#    z 0.000000 0.000000 3.311860 
# 
# 
# High freq. dielectric constant tensor:
#      x y z
#    x 1.625240 0.000000 0.000000 
#    y 0.000000 1.625240 0.000000 
#    z 0.000000 0.000000 1.634890 
# 
# From -- ./inp_files/466.got.cif
#   From: 2010.03.12/outbox.cif.g09.slc.cpg/sg123_1_cif.got.tgz:466.got - 2010.04.06 16:26:55.
