data_PCOD8312634
_publ_section_title
;
Structure prediction by ZEFSAII (Michael W. Deem and Ramdas Pophale) SiO2 
 PCOD8312634
Probable space group: P 4/M M M
;
_chemical_formula_sum "Si O2"
_cell_formula_units_Z 72
_cell_length_a 15.705475
_cell_length_b 15.705475
_cell_length_c 15.766972
_cell_angle_alpha 90.000000
_cell_angle_beta 90.000000
_cell_angle_gamma 90.000000
_cell_volume 3889.111980
_symmetry_space_group_name_H-M "P 4/M M M"
_symmetry_group_IT_number 123
_symmetry_cell_setting 'tetragonal'
loop_
_space_group_symop_operation_xyz
x,y,z
-y,x,z
-x,-y,z
y,-x,z
x,-y,-z
-x,y,-z
y,x,-z
-y,-x,-z
-x,-y,-z
y,-x,-z
x,y,-z
-y,x,-z
-x,y,z
x,-y,z
-y,-x,z
y,x,z
loop_
_atom_site_type_symbol
_atom_site_label
_atom_site_fract_x
_atom_site_fract_y
_atom_site_fract_z
Si Si1 0.599107 0.599107 0.594760
Si Si2 0.597104 0.856934 0.210246
Si Si3 0.592093 0.000000 0.651528
Si Si4 0.134528 0.000000 0.100870
Si Si5 0.673888 0.000000 0.899549
Si Si6 0.821280 0.178721 0.397671
Si Si7 0.291056 0.708945 0.281107
Si Si8 0.000000 0.769273 0.407073
O O1 0.500000 0.618845 0.605063
O O2 0.628585 0.628585 0.500000
O O3 0.645860 0.645860 0.670992
O O4 0.500000 0.827369 0.193375
O O5 0.628009 0.913896 0.131228
O O6 0.656423 0.773957 0.221570
O O7 0.601664 0.915137 0.293298
O O8 0.666856 0.000000 0.583179
O O9 0.500000 0.000000 0.605620
O O10 0.084348 0.915653 0.132458
O O11 0.229874 0.000000 0.137921
O O12 0.137988 0.000000 0.000000
O O13 0.672024 0.000000 0.000000
O O14 0.813988 0.186013 0.500000
O O15 0.756346 0.243655 0.357004
O O16 0.801129 0.084884 0.360785
O O17 0.000000 0.809970 0.500000
#
# Coordination Sequence:
#
# PCOD8312634 Si02
#       8
#     8  16   8   8   8   8   8   8
#     4   9  19  36  57  82 113 150 191 232 280 341
#     4  10  22  36  54  81 107 140 184 226 281 339
#     4   9  17  34  51  71 106 138 170 220 272 324
#     4   8  15  29  51  81 116 146 171 208 262 318
#     4  10  21  38  62  82 110 150 189 228 272 332
#     4  10  21  34  54  77 103 142 185 223 265 319
#     4  12  20  34  58  79 114 144 178 234 285 326
#     4  10  19  34  50  73 103 137 182 223 262 313
#
# _framework density 18.513224000000001
#
# number of rings (size 3 to 8) (size 9 to 14) (size 15 to 20)
#    0.000    2.222    2.222    2.667    1.556    1.333 
#    0.000    1.111    0.000    0.000    0.000    0.000 
#    0.000    0.000    0.000    6.444    0.000    0.000 
#
# Total GULP energy -892411.211710 kJ/mol
# GULP energy per Si atom -12394.600163 kJ/mol
# Density = 1.847109 g / cm^3
# Si number density = 18.513224 Si / 1000 Ang^3
#
#
#
# Elastic Constant Matrix: (Units=GPa)
#
#
# Indices 1 2 3 4 5 6 
#
# 1 126.6108 75.6233 32.4774 0.0000 0.0000 0.0000
# 2 75.6233 126.6108 32.4774 0.0000 0.0000 0.0000
# 3 32.4774 32.4774 52.9999 0.0000 0.0000 0.0000
# 4 0.0000 0.0000 0.0000 21.0977 0.0000 0.0000
# 5 0.0000 0.0000 0.0000 0.0000 21.0977 0.0000
# 6 0.0000 0.0000 0.0000 0.0000 0.0000 35.5021
#
#
#
# Elastic Compliance Matrix: (Units=1/GPa)
#
#
# Indices 1 2 3 4 5 6 
#
# 1 0.012885 -0.006728 -0.003773 0.000000 0.000000 0.000000
# 2 -0.006728 0.012885 -0.003773 0.000000 0.000000 0.000000
# 3 -0.003773 -0.003773 0.023491 0.000000 0.000000 0.000000
# 4 0.000000 0.000000 0.000000 0.047398 0.000000 0.000000
# 5 0.000000 0.000000 0.000000 0.000000 0.047398 0.000000
# 6 0.000000 0.000000 0.000000 0.000000 0.000000 0.028167
#
#
# Mechanical properties :
#
#
# Convention : Reuss Voigt Hill
#
# Bulk Modulus (GPa) = 48.27625 65.26420 56.77023
# Shear Modulus (GPa) = 24.07595 26.58240 25.32917
#
# Velocity S-wave (km/s) = 3.61012 3.79339 3.70289
# Velocity P-wave (km/s) = 6.59625 7.38347 7.00093
#
# Compressibility (1/GPa) = 0.02071412
#
# Stress axis : x y z
#
# Youngs Moduli (GPa) = 77.61228 77.61230 42.56860
#
# Poissons Ratio (x) = 0.52218 0.16059
# Poissons Ratio (y) = 0.52218 0.16059
# Poissons Ratio (z) = 0.29280 0.29280
#
# Static dielectric constant tensor:
#      x y z
#    x 3.618280 0.000000 0.000000 
#    y 0.000000 3.618280 0.000000 
#    z 0.000000 0.000000 2.958990 
# 
# 
# High freq. dielectric constant tensor:
#      x y z
#    x 1.726190 0.000000 0.000000 
#    y 0.000000 1.726190 0.000000 
#    z 0.000000 0.000000 1.682030 
# 
# From -- ./inp_files/5276.got.cif
#   From: 2010.03.12/outbox.cif.g09.slc.cpg/sg123_3_cif.got.tgz:5276.got - 2010.04.06 16:26:55.
