data_PCOD8312401
_publ_section_title
;
Structure prediction by ZEFSAII (Michael W. Deem and Ramdas Pophale) SiO2 
 PCOD8312401
Probable space group: P 4/M M M
;
_chemical_formula_sum "Si O2"
_cell_formula_units_Z 96
_cell_length_a 18.298995
_cell_length_b 18.298995
_cell_length_c 18.160852
_cell_angle_alpha 90.000000
_cell_angle_beta 90.000000
_cell_angle_gamma 90.000000
_cell_volume 6081.219734
_symmetry_space_group_name_H-M "P 4/M M M"
_symmetry_group_IT_number 123
_symmetry_cell_setting 'tetragonal'
loop_
_space_group_symop_operation_xyz
x,y,z
-y,x,z
-x,-y,z
y,-x,z
x,-y,-z
-x,y,-z
y,x,-z
-y,-x,-z
-x,-y,-z
y,-x,-z
x,y,-z
-y,x,-z
-x,y,z
x,-y,z
-y,-x,z
y,x,z
loop_
_atom_site_type_symbol
_atom_site_label
_atom_site_fract_x
_atom_site_fract_y
_atom_site_fract_z
Si Si1 0.584427 0.296652 0.084794
Si Si2 0.414575 0.703313 0.655353
Si Si3 0.585457 0.849972 0.419965
Si Si4 0.776796 0.659515 0.789295
Si Si5 0.083874 0.200573 0.582599
Si Si6 0.916042 0.676833 0.696996
O O1 0.500000 0.309186 0.106613
O O2 0.627866 0.372135 0.101244
O O3 0.620924 0.230156 0.130960
O O4 0.591812 0.273587 0.000000
O O5 0.500000 0.683946 0.651251
O O6 0.369539 0.630462 0.635542
O O7 0.391032 0.766976 0.598838
O O8 0.395011 0.733096 0.735952
O O9 0.618968 0.870441 0.500000
O O10 0.500000 0.854575 0.423548
O O11 0.608005 0.907699 0.357261
O O12 0.739405 0.739405 0.789320
O O13 0.862019 0.669784 0.767055
O O14 0.098746 0.231766 0.500000
O O15 0.125715 0.125715 0.595752
O O16 0.109927 0.256640 0.645083
O O17 0.000000 0.181565 0.593725
O O18 0.000000 0.683107 0.724584
#
# Coordination Sequence:
#
# PCOD8312401 Si02
#       6
#    16  16  16  16  16  16
#     4   9  17  29  47  71  96 121 147 174 206 246
#     4   9  17  28  42  60  81 107 139 173 210 253
#     4   9  18  31  43  55  75 103 134 171 216 261
#     4   9  17  30  46  63  86 115 143 170 206 255
#     4   9  17  28  42  62  88 115 142 173 211 258
#     4  10  19  30  45  64  83 105 139 182 220 250
#
# _framework density 15.786307000000001
#
# number of rings (size 3 to 8) (size 9 to 14) (size 15 to 20)
#    0.000    2.833    0.000    1.500    0.000    3.500 
#    0.000    2.500    0.000    3.500    0.000    3.500 
#    0.000    0.000    0.000    0.000    0.000    0.000 
#
# Total GULP energy -1189791.893719 kJ/mol
# GULP energy per Si atom -12393.665560 kJ/mol
# Density = 1.575038 g / cm^3
# Si number density = 15.786307 Si / 1000 Ang^3
#
#
#
# Elastic Constant Matrix: (Units=GPa)
#
#
# Indices 1 2 3 4 5 6 
#
# 1 77.5302 40.0121 37.3726 0.0000 0.0000 0.0000
# 2 40.0121 77.5302 37.3726 0.0000 0.0000 0.0000
# 3 37.3726 37.3726 78.5637 0.0000 0.0000 0.0000
# 4 0.0000 0.0000 0.0000 18.3617 0.0000 0.0000
# 5 0.0000 0.0000 0.0000 0.0000 18.3617 0.0000
# 6 0.0000 0.0000 0.0000 0.0000 0.0000 21.6884
#
#
#
# Elastic Compliance Matrix: (Units=1/GPa)
#
#
# Indices 1 2 3 4 5 6 
#
# 1 0.019425 -0.007228 -0.005802 0.000000 0.000000 0.000000
# 2 -0.007228 0.019425 -0.005802 0.000000 0.000000 0.000000
# 3 -0.005802 -0.005802 0.018249 0.000000 0.000000 0.000000
# 4 0.000000 0.000000 0.000000 0.054461 0.000000 0.000000
# 5 0.000000 0.000000 0.000000 0.000000 0.054461 0.000000
# 6 0.000000 0.000000 0.000000 0.000000 0.000000 0.046108
#
#
# Mechanical properties :
#
#
# Convention : Reuss Voigt Hill
#
# Bulk Modulus (GPa) = 51.45530 51.45988 51.45759
# Shear Modulus (GPa) = 19.51044 19.60681 19.55863
#
# Velocity S-wave (km/s) = 3.51936 3.52805 3.52371
# Velocity P-wave (km/s) = 7.01286 7.01888 7.01587
#
# Compressibility (1/GPa) = 0.01943434
#
# Stress axis : x y z
#
# Youngs Moduli (GPa) = 51.47877 51.47877 54.79845
#
# Poissons Ratio (x) = 0.37210 0.31795
# Poissons Ratio (y) = 0.37210 0.31795
# Poissons Ratio (z) = 0.29869 0.29869
#
# Static dielectric constant tensor:
#      x y z
#    x 2.967530 0.000000 0.000000 
#    y 0.000000 2.967530 0.000000 
#    z 0.000000 0.000000 3.127400 
# 
# 
# High freq. dielectric constant tensor:
#      x y z
#    x 1.598540 0.000000 0.000000 
#    y 0.000000 1.598540 0.000000 
#    z 0.000000 0.000000 1.587030 
# 
# From -- ./inp_files/5465.got.cif
#   From: 2010.03.12/outbox.cif.g09.slc.cpg/sg123_3_cif.got.tgz:5465.got - 2010.04.06 16:26:55.
