data_PCOD8312686
_publ_section_title
;
Structure prediction by ZEFSAII (Michael W. Deem and Ramdas Pophale) SiO2 
 PCOD8312686
Probable space group: P 4/M M M
;
_chemical_formula_sum "Si O2"
_cell_formula_units_Z 72
_cell_length_a 14.918155
_cell_length_b 14.918155
_cell_length_c 19.489070
_cell_angle_alpha 90.000000
_cell_angle_beta 90.000000
_cell_angle_gamma 90.000000
_cell_volume 4337.318812
_symmetry_space_group_name_H-M "P 4/M M M"
_symmetry_group_IT_number 123
_symmetry_cell_setting 'tetragonal'
loop_
_space_group_symop_operation_xyz
x,y,z
-y,x,z
-x,-y,z
y,-x,z
x,-y,-z
-x,y,-z
y,x,-z
-y,-x,-z
-x,-y,-z
y,-x,-z
x,y,-z
-y,x,-z
-x,y,z
x,-y,z
-y,-x,z
y,x,z
loop_
_atom_site_type_symbol
_atom_site_label
_atom_site_fract_x
_atom_site_fract_y
_atom_site_fract_z
Si Si1 0.757660 0.100130 0.787979
Si Si2 0.500000 0.101022 0.920007
Si Si3 0.397577 0.747334 0.421074
Si Si4 0.398081 0.897742 0.686374
Si Si5 0.170375 0.310628 0.922071
O O1 0.834448 0.165553 0.760007
O O2 0.664704 0.125336 0.750799
O O3 0.745508 0.108586 0.870059
O O4 0.788322 0.000000 0.770296
O O5 0.585708 0.161376 0.899667
O O6 0.500000 0.000000 0.885468
O O7 0.500000 0.083914 0.000000
O O8 0.381316 0.773328 0.500000
O O9 0.500000 0.717455 0.408372
O O10 0.335558 0.664443 0.398320
O O11 0.372478 0.834854 0.377360
O O12 0.500000 0.881152 0.711033
O O13 0.384530 0.000000 0.661668
O O14 0.273270 0.273270 0.915725
O O15 0.135129 0.296238 0.000000
#
# Coordination Sequence:
#
# PCOD8312686 Si02
#       5
#    16   8  16  16  16
#     4  10  20  32  47  66  90 121 153 188 230 276
#     4   9  16  26  44  67  87 111 146 187 227 270
#     4   9  17  29  46  68  94 123 152 182 217 260
#     4   9  18  31  47  68  92 117 148 187 229 271
#     4   9  18  31  46  67  94 120 149 190 238 283
#
# _framework density 16.600116
#
# number of rings (size 3 to 8) (size 9 to 14) (size 15 to 20)
#    0.000    2.778    0.000    1.333    1.556    2.222 
#    0.000    3.333    0.000    0.333    0.000    5.444 
#    0.000    0.000    0.000   20.667    0.000    0.444 
#
# Total GULP energy -892335.351171 kJ/mol
# GULP energy per Si atom -12393.546544 kJ/mol
# Density = 1.656233 g / cm^3
# Si number density = 16.600116 Si / 1000 Ang^3
#
#
#
# Elastic Constant Matrix: (Units=GPa)
#
#
# Indices 1 2 3 4 5 6 
#
# 1 107.3182 76.3900 45.3626 0.0000 0.0000 0.0000
# 2 76.3900 107.3182 45.3626 0.0000 0.0000 0.0000
# 3 45.3626 45.3626 73.0717 0.0000 0.0000 0.0000
# 4 0.0000 0.0000 0.0000 21.3883 0.0000 0.0000
# 5 0.0000 0.0000 0.0000 0.0000 21.3883 0.0000
# 6 0.0000 0.0000 0.0000 0.0000 0.0000 28.9718
#
#
#
# Elastic Compliance Matrix: (Units=1/GPa)
#
#
# Indices 1 2 3 4 5 6 
#
# 1 0.020092 -0.012241 -0.004873 0.000000 0.000000 0.000000
# 2 -0.012241 0.020092 -0.004873 0.000000 0.000000 0.000000
# 3 -0.004873 -0.004873 0.019736 0.000000 0.000000 0.000000
# 4 0.000000 0.000000 0.000000 0.046754 0.000000 0.000000
# 5 0.000000 0.000000 0.000000 0.000000 0.046754 0.000000
# 6 0.000000 0.000000 0.000000 0.000000 0.000000 0.034516
#
#
# Mechanical properties :
#
#
# Convention : Reuss Voigt Hill
#
# Bulk Modulus (GPa) = 62.72415 69.10427 65.91421
# Shear Modulus (GPa) = 21.07618 22.38922 21.73270
#
# Velocity S-wave (km/s) = 3.56707 3.67650 3.62220
# Velocity P-wave (km/s) = 7.40491 7.72925 7.56882
#
# Compressibility (1/GPa) = 0.01594282
#
# Stress axis : x y z
#
# Youngs Moduli (GPa) = 49.77214 49.77214 50.66917
#
# Poissons Ratio (x) = 0.60928 0.24693
# Poissons Ratio (y) = 0.60928 0.24693
# Poissons Ratio (z) = 0.24256 0.24256
#
# Static dielectric constant tensor:
#      x y z
#    x 3.188410 0.000000 0.000000 
#    y 0.000000 3.188410 0.000000 
#    z 0.000000 0.000000 3.067560 
# 
# 
# High freq. dielectric constant tensor:
#      x y z
#    x 1.631830 0.000000 0.000000 
#    y 0.000000 1.631830 0.000000 
#    z 0.000000 0.000000 1.633300 
# 
# From -- ./inp_files/5111.got.cif
#   From: 2010.03.12/outbox.cif.g09.slc.cpg/sg123_3_cif.got.tgz:5111.got - 2010.04.06 16:26:55.
