data_PCOD8312132
_publ_section_title
;
Structure prediction by ZEFSAII (Michael W. Deem and Ramdas Pophale) SiO2 
 PCOD8312132
Probable space group: P 4/M M M
;
_chemical_formula_sum "Si O2"
_cell_formula_units_Z 104
_cell_length_a 17.789085
_cell_length_b 17.789085
_cell_length_c 22.450458
_cell_angle_alpha 90.000000
_cell_angle_beta 90.000000
_cell_angle_gamma 90.000000
_cell_volume 7104.482123
_symmetry_space_group_name_H-M "P 4/M M M"
_symmetry_group_IT_number 123
_symmetry_cell_setting 'tetragonal'
loop_
_space_group_symop_operation_xyz
x,y,z
-y,x,z
-x,-y,z
y,-x,z
x,-y,-z
-x,y,-z
y,x,-z
-y,-x,-z
-x,-y,-z
y,-x,-z
x,y,-z
-y,x,-z
-x,y,z
x,-y,z
-y,-x,z
y,x,z
loop_
_atom_site_type_symbol
_atom_site_label
_atom_site_fract_x
_atom_site_fract_y
_atom_site_fract_z
Si Si1 0.347157 0.771216 0.567440
Si Si2 0.585370 0.858610 0.257488
Si Si3 0.910967 0.644263 0.137804
Si Si4 0.412953 0.915238 0.384511
Si Si5 0.913856 0.207987 0.930960
Si Si6 0.910382 0.500000 0.932986
Si Si7 0.415834 0.296309 0.319728
O O1 0.373707 0.756108 0.500000
O O2 0.261579 0.738422 0.576383
O O3 0.354708 0.860343 0.581151
O O4 0.402276 0.727105 0.611787
O O5 0.500000 0.872049 0.235533
O O6 0.642085 0.878424 0.204509
O O7 0.602367 0.911732 0.313914
O O8 0.599138 0.773042 0.276153
O O9 0.884692 0.721435 0.107225
O O10 0.879271 0.574201 0.099894
O O11 0.000000 0.639755 0.140730
O O12 0.500000 0.891264 0.397159
O O13 0.398104 0.000000 0.406862
O O14 0.864360 0.135641 0.914289
O O15 0.000000 0.187847 0.915655
O O16 0.905501 0.230037 0.000000
O O17 0.000000 0.500000 0.933529
O O18 0.878640 0.500000 0.000000
O O19 0.500000 0.326160 0.314283
O O20 0.362510 0.362510 0.297977
#
# Coordination Sequence:
#
# PCOD8312132 Si02
#       7
#    16  16  16  16  16   8  16
#     4   9  17  29  43  58  80 111 141 167 203 252
#     4   9  16  27  41  59  84 111 137 160 195 245
#     4  10  17  25  41  62  83 108 135 162 194 237
#     4   9  17  27  41  62  87 111 137 173 209 243
#     4   9  18  31  44  59  80 105 136 173 207 238
#     4   9  16  24  36  58  86 112 134 156 188 233
#     4   9  18  30  43  59  79 105 137 174 209 242
#
# _framework density 14.638646
#
# number of rings (size 3 to 8) (size 9 to 14) (size 15 to 20)
#    0.000    2.846    0.769    2.308    0.000    4.923 
#    0.000    1.538    0.000    0.000    0.000    2.154 
#    0.000    0.308    0.000    1.692    0.000    0.769 
#
# Total GULP energy -1289200.525900 kJ/mol
# GULP energy per Si atom -12396.158903 kJ/mol
# Density = 1.460533 g / cm^3
# Si number density = 14.638646 Si / 1000 Ang^3
#
#
#
# Elastic Constant Matrix: (Units=GPa)
#
#
# Indices 1 2 3 4 5 6 
#
# 1 70.5154 42.4377 24.4140 0.0000 0.0000 0.0000
# 2 42.4377 70.5154 24.4140 0.0000 0.0000 0.0000
# 3 24.4140 24.4140 65.0707 0.0000 0.0000 0.0000
# 4 0.0000 0.0000 0.0000 16.7483 0.0000 0.0000
# 5 0.0000 0.0000 0.0000 0.0000 16.7483 0.0000
# 6 0.0000 0.0000 0.0000 0.0000 0.0000 22.6686
#
#
#
# Elastic Compliance Matrix: (Units=1/GPa)
#
#
# Indices 1 2 3 4 5 6 
#
# 1 0.023091 -0.012524 -0.003965 0.000000 0.000000 0.000000
# 2 -0.012524 0.023091 -0.003965 0.000000 0.000000 0.000000
# 3 -0.003965 -0.003965 0.018343 0.000000 0.000000 0.000000
# 4 0.000000 0.000000 0.000000 0.059707 0.000000 0.000000
# 5 0.000000 0.000000 0.000000 0.000000 0.059707 0.000000
# 6 0.000000 0.000000 0.000000 0.000000 0.000000 0.044114
#
#
# Mechanical properties :
#
#
# Convention : Reuss Voigt Hill
#
# Bulk Modulus (GPa) = 42.33988 43.18143 42.76066
# Shear Modulus (GPa) = 18.06135 18.88878 18.47506
#
# Velocity S-wave (km/s) = 3.51638 3.59602 3.55642
# Velocity P-wave (km/s) = 6.74335 6.84135 6.79253
#
# Compressibility (1/GPa) = 0.02361839
#
# Stress axis : x y z
#
# Youngs Moduli (GPa) = 43.30631 43.30631 54.51685
#
# Poissons Ratio (x) = 0.54238 0.21614
# Poissons Ratio (y) = 0.54238 0.21614
# Poissons Ratio (z) = 0.17170 0.17170
#
# Static dielectric constant tensor:
#      x y z
#    x 2.774640 0.000000 0.000000 
#    y 0.000000 2.774640 0.000000 
#    z 0.000000 0.000000 2.826230 
# 
# 
# High freq. dielectric constant tensor:
#      x y z
#    x 1.541320 0.000000 0.000000 
#    y 0.000000 1.541320 0.000000 
#    z 0.000000 0.000000 1.560410 
# 
# From -- ./inp_files/6720.got.cif
#   From: 2010.03.12/outbox.cif.g09.slc.cpg/sg123_4_cif.got.tgz:6720.got - 2010.04.06 16:26:55.
