data_PCOD8312979
_publ_section_title
;
Structure prediction by ZEFSAII (Michael W. Deem and Ramdas Pophale) SiO2 
 PCOD8312979
Probable space group: P 4/M M M
;
_chemical_formula_sum "Si O2"
_cell_formula_units_Z 112
_cell_length_a 19.851022
_cell_length_b 19.851022
_cell_length_c 19.016498
_cell_angle_alpha 90.000000
_cell_angle_beta 90.000000
_cell_angle_gamma 90.000000
_cell_volume 7493.699667
_symmetry_space_group_name_H-M "P 4/M M M"
_symmetry_group_IT_number 123
_symmetry_cell_setting 'tetragonal'
loop_
_space_group_symop_operation_xyz
x,y,z
-y,x,z
-x,-y,z
y,-x,z
x,-y,-z
-x,y,-z
y,x,-z
-y,-x,-z
-x,-y,-z
y,-x,-z
x,y,-z
-y,x,-z
-x,y,z
x,-y,z
-y,-x,z
y,x,z
loop_
_atom_site_type_symbol
_atom_site_label
_atom_site_fract_x
_atom_site_fract_y
_atom_site_fract_z
Si Si1 0.074506 0.183740 0.209166
Si Si2 0.834448 0.723205 0.715258
Si Si3 0.321596 0.573800 0.417503
Si Si4 0.321916 0.789700 0.858401
Si Si5 0.789117 0.324701 0.577358
Si Si6 0.727394 0.075753 0.080600
Si Si7 0.314241 0.422793 0.917420
O O1 0.120080 0.120080 0.224513
O O2 0.094498 0.247655 0.257844
O O3 0.081323 0.205510 0.127844
O O4 0.000000 0.161820 0.229665
O O5 0.785471 0.785471 0.703678
O O6 0.803351 0.673979 0.774701
O O7 0.843441 0.686369 0.639771
O O8 0.335236 0.568903 0.500000
O O9 0.323936 0.500000 0.382274
O O10 0.379838 0.620163 0.382626
O O11 0.247986 0.605312 0.404959
O O12 0.254654 0.745347 0.876699
O O13 0.321502 0.861847 0.898877
O O14 0.389011 0.749730 0.879455
O O15 0.824397 0.327418 0.500000
O O16 0.733087 0.266914 0.576409
O O17 0.695009 0.000000 0.092439
O O18 0.749216 0.084060 0.000000
O O19 0.321927 0.500000 0.892047
O O20 0.382708 0.382708 0.897875
O O21 0.300496 0.418997 0.000000
#
# Coordination Sequence:
#
# PCOD8312979 Si02
#       7
#    16  16  16  16  16  16  16
#     4   9  17  27  39  57  81 109 137 162 190 225
#     4   8  14  25  40  57  76  97 124 160 198 233
#     4   8  13  20  30  47  73 103 131 156 182 217
#     4   9  16  26  41  59  78 103 136 171 206 244
#     4   8  13  22  37  55  73  94 122 159 202 239
#     4   9  16  25  39  60  84 108 135 168 202 234
#     4   9  17  28  42  60  81 106 137 174 215 255
#
# _framework density 14.945888999999999
#
# number of rings (size 3 to 8) (size 9 to 14) (size 15 to 20)
#    0.000    3.429    0.000    2.571    0.000    2.143 
#    0.000    2.143    0.000    0.857    0.000    4.000 
#    0.000    7.429    0.000    9.429    0.000    0.286 
#
# Total GULP energy -1387472.565494 kJ/mol
# GULP energy per Si atom -12388.147906 kJ/mol
# Density = 1.491187 g / cm^3
# Si number density = 14.945889 Si / 1000 Ang^3
#
#
#
# Elastic Constant Matrix: (Units=GPa)
#
#
# Indices 1 2 3 4 5 6 
#
# 1 79.9050 48.5936 38.7466 0.0000 0.0000 0.0000
# 2 48.5936 79.9050 38.7466 0.0000 0.0000 0.0000
# 3 38.7466 38.7466 87.2846 0.0000 0.0000 0.0000
# 4 0.0000 0.0000 0.0000 12.9667 0.0000 0.0000
# 5 0.0000 0.0000 0.0000 0.0000 12.9667 0.0000
# 6 0.0000 0.0000 0.0000 0.0000 0.0000 13.6138
#
#
#
# Elastic Compliance Matrix: (Units=1/GPa)
#
#
# Indices 1 2 3 4 5 6 
#
# 1 0.021282 -0.010655 -0.004718 0.000000 0.000000 0.000000
# 2 -0.010655 0.021282 -0.004718 0.000000 0.000000 0.000000
# 3 -0.004718 -0.004718 0.015645 0.000000 0.000000 0.000000
# 4 0.000000 0.000000 0.000000 0.077121 0.000000 0.000000
# 5 0.000000 0.000000 0.000000 0.000000 0.077121 0.000000
# 6 0.000000 0.000000 0.000000 0.000000 0.000000 0.073455
#
#
# Mechanical properties :
#
#
# Convention : Reuss Voigt Hill
#
# Bulk Modulus (GPa) = 55.46511 55.47425 55.46968
# Shear Modulus (GPa) = 15.05588 15.97660 15.51624
#
# Velocity S-wave (km/s) = 3.17734 3.27305 3.22555
# Velocity P-wave (km/s) = 7.11701 7.17503 7.14608
#
# Compressibility (1/GPa) = 0.01802935
#
# Stress axis : x y z
#
# Youngs Moduli (GPa) = 46.98759 46.98759 63.91773
#
# Poissons Ratio (x) = 0.50065 0.30153
# Poissons Ratio (y) = 0.50065 0.30153
# Poissons Ratio (z) = 0.22167 0.22167
#
# Static dielectric constant tensor:
#      x y z
#    x 2.856050 0.000000 0.000000 
#    y 0.000000 2.856050 0.000000 
#    z 0.000000 0.000000 3.024160 
# 
# 
# High freq. dielectric constant tensor:
#      x y z
#    x 1.548080 0.000000 0.000000 
#    y 0.000000 1.548080 0.000000 
#    z 0.000000 0.000000 1.561100 
# 
# From -- ./inp_files/5918.got.cif
#   From: 2010.03.12/outbox.cif.g09.slc.cpg/sg123_3_cif.got.tgz:5918.got - 2010.04.06 16:26:55.
