data_PCOD8312711
_publ_section_title
;
Structure prediction by ZEFSAII (Michael W. Deem and Ramdas Pophale) SiO2 
 PCOD8312711
Probable space group: P 4/M M M
;
_chemical_formula_sum "Si O2"
_cell_formula_units_Z 88
_cell_length_a 17.639205
_cell_length_b 17.639205
_cell_length_c 16.047007
_cell_angle_alpha 90.000000
_cell_angle_beta 90.000000
_cell_angle_gamma 90.000000
_cell_volume 4992.890679
_symmetry_space_group_name_H-M "P 4/M M M"
_symmetry_group_IT_number 123
_symmetry_cell_setting 'tetragonal'
loop_
_space_group_symop_operation_xyz
x,y,z
-y,x,z
-x,-y,z
y,-x,z
x,-y,-z
-x,y,-z
y,x,-z
-y,-x,-z
-x,-y,-z
y,-x,-z
x,y,-z
-y,x,-z
-x,y,z
x,-y,z
-y,-x,z
y,x,z
loop_
_atom_site_type_symbol
_atom_site_label
_atom_site_fract_x
_atom_site_fract_y
_atom_site_fract_z
Si Si1 0.911878 0.585654 0.835035
Si Si2 0.732868 0.853316 0.905923
Si Si3 0.794749 0.913545 0.256003
Si Si4 0.582914 0.912995 0.500000
Si Si5 0.354842 0.144548 0.331919
Si Si6 0.587047 0.291741 0.404834
O O1 0.895829 0.500000 0.865414
O O2 0.856637 0.642790 0.885832
O O3 0.894176 0.591401 0.736946
O O4 0.000000 0.607206 0.850317
O O5 0.767946 0.767946 0.894533
O O6 0.775630 0.909752 0.842539
O O7 0.746793 0.881832 0.000000
O O8 0.876319 0.876319 0.274106
O O9 0.732454 0.865982 0.306842
O O10 0.796581 0.000000 0.285989
O O11 0.500000 0.870420 0.500000
O O12 0.631742 0.894796 0.419435
O O13 0.564930 0.000000 0.500000
O O14 0.374286 0.233234 0.340922
O O15 0.595782 0.260980 0.500000
O O16 0.500000 0.303790 0.380598
O O17 0.627413 0.372588 0.394996
#
# Coordination Sequence:
#
# PCOD8312711 Si02
#       6
#    16  16  16   8  16  16
#     4  10  20  32  48  73 105 136 164 200 248 300
#     4   9  18  33  52  73  99 132 168 204 244 296
#     4  10  21  36  54  75  99 129 165 206 253 303
#     4  11  20  28  45  72 100 130 161 199 246 290
#     4  11  19  33  50  71 100 130 166 205 244 294
#     4  10  20  33  49  70  96 127 163 202 243 286
#
# _framework density 17.625060999999999
#
# number of rings (size 3 to 8) (size 9 to 14) (size 15 to 20)
#    0.000    1.909    0.909    5.455    0.000    4.364 
#    0.000    1.818    0.000    0.000    0.000    2.545 
#    0.000    2.545    0.000    2.000    0.000    0.000 
#
# Total GULP energy -1090925.274839 kJ/mol
# GULP energy per Si atom -12396.878123 kJ/mol
# Density = 1.758495 g / cm^3
# Si number density = 17.625061 Si / 1000 Ang^3
#
#
#
# Elastic Constant Matrix: (Units=GPa)
#
#
# Indices 1 2 3 4 5 6 
#
# 1 106.0578 75.2771 31.2534 0.0000 0.0000 0.0000
# 2 75.2771 106.0578 31.2534 0.0000 0.0000 0.0000
# 3 31.2534 31.2534 85.4800 0.0000 0.0000 0.0000
# 4 0.0000 0.0000 0.0000 18.3970 0.0000 0.0000
# 5 0.0000 0.0000 0.0000 0.0000 18.3970 0.0000
# 6 0.0000 0.0000 0.0000 0.0000 0.0000 31.6714
#
#
#
# Elastic Compliance Matrix: (Units=1/GPa)
#
#
# Indices 1 2 3 4 5 6 
#
# 1 0.019399 -0.013089 -0.002307 0.000000 0.000000 0.000000
# 2 -0.013089 0.019399 -0.002307 0.000000 0.000000 0.000000
# 3 -0.002307 -0.002307 0.013386 0.000000 0.000000 0.000000
# 4 0.000000 0.000000 0.000000 0.054357 0.000000 0.000000
# 5 0.000000 0.000000 0.000000 0.000000 0.054357 0.000000
# 6 0.000000 0.000000 0.000000 0.000000 0.000000 0.031574
#
#
# Mechanical properties :
#
#
# Convention : Reuss Voigt Hill
#
# Bulk Modulus (GPa) = 59.60434 63.68480 61.64457
# Shear Modulus (GPa) = 21.41605 24.34718 22.88161
#
# Velocity S-wave (km/s) = 3.48960 3.72075 3.60702
# Velocity P-wave (km/s) = 7.08009 7.39393 7.23871
#
# Compressibility (1/GPa) = 0.01677730
#
# Stress axis : x y z
#
# Youngs Moduli (GPa) = 51.54933 51.54933 74.70685
#
# Poissons Ratio (x) = 0.67473 0.17235
# Poissons Ratio (y) = 0.67473 0.17235
# Poissons Ratio (z) = 0.11893 0.11893
#
# Static dielectric constant tensor:
#      x y z
#    x 3.260580 0.000000 0.000000 
#    y 0.000000 3.260580 0.000000 
#    z 0.000000 0.000000 3.186290 
# 
# 
# High freq. dielectric constant tensor:
#      x y z
#    x 1.676080 0.000000 0.000000 
#    y 0.000000 1.676080 0.000000 
#    z 0.000000 0.000000 1.671400 
# 
# From -- ./inp_files/4076.got.cif
#   From: 2010.03.12/outbox.cif.g09.slc.cpg/sg123_3_cif.got.tgz:4076.got - 2010.04.06 16:26:55.
