data_PCOD8312005
_publ_section_title
;
Structure prediction by ZEFSAII (Michael W. Deem and Ramdas Pophale) SiO2 
 PCOD8312005
Probable space group: I -4 2 D
;
_chemical_formula_sum "Si O2"
_cell_formula_units_Z 64
_cell_length_a 18.505018
_cell_length_b 18.505018
_cell_length_c 10.274317
_cell_angle_alpha 90.000000
_cell_angle_beta 90.000000
_cell_angle_gamma 90.000000
_cell_volume 3518.292843
_symmetry_space_group_name_H-M "I -4 2 D"
_symmetry_group_IT_number 122
_symmetry_cell_setting 'tetragonal'
loop_
_space_group_symop_operation_xyz
x,y,z
y,-x,-z
-x,-y,z
-y,x,-z
x,1/2-y,1/4-z
-x,1/2+y,1/4-z
-y,1/2-x,1/4+z
y,1/2+x,1/4+z
1/2+x,1/2+y,1/2+z
1/2+y,1/2-x,1/2-z
1/2-x,1/2-y,1/2+z
1/2-y,1/2+x,1/2-z
1/2+x,-y,3/4-z
1/2-x,y,3/4-z
1/2-y,-x,3/4+z
1/2+y,x,3/4+z
loop_
_atom_site_type_symbol
_atom_site_label
_atom_site_fract_x
_atom_site_fract_y
_atom_site_fract_z
Si Si1 0.580747 0.484398 0.304852
Si Si2 0.808873 0.726079 0.270959
Si Si3 0.350489 0.430777 0.535333
Si Si4 0.229366 0.534419 0.526252
O O1 0.500000 0.500000 0.248308
O O2 0.595578 0.534735 0.428924
O O3 0.589339 0.400340 0.342749
O O4 0.646688 0.494283 0.200661
O O5 0.787554 0.750000 0.125000
O O6 0.750000 0.752501 0.375000
O O7 0.814127 0.639658 0.275907
O O8 0.883418 0.761457 0.321730
O O9 0.288080 0.482734 0.594563
O O10 0.250000 0.528346 0.375000
#
# Coordination Sequence:
#
# PCOD8312005 Si02
#       4
#    16  16  16  16
#     4  11  16  26  46  73 104 130 160 217 274 303
#     4  11  20  33  51  75 106 142 173 215 261 309
#     4  11  16  28  46  73 104 127 166 212 269 308
#     4   9  18  29  43  73 102 131 164 212 261 307
#
# _framework density 18.190640999999999
#
# number of rings (size 3 to 8) (size 9 to 14) (size 15 to 20)
#    0.000    1.500   10.000    2.250    0.000    0.000 
#    0.000    0.000    0.000    1.500    0.000    0.000 
#    0.000    0.000    0.000    0.000    0.000    0.000 
#
# Total GULP energy -396543.377201 kJ/mol
# GULP energy per Si atom -12391.980538 kJ/mol
# Density = 1.814924 g / cm^3
# Si number density = 18.190641 Si / 1000 Ang^3
#
#
#
# Elastic Constant Matrix: (Units=GPa)
#
#
# Indices 1 2 3 4 5 6 
#
# 1 119.3347 26.3493 19.7667 0.0000 0.0000 0.0000
# 2 26.3493 119.3347 19.7667 0.0000 0.0000 0.0000
# 3 19.7667 19.7667 26.3660 0.0000 0.0000 0.0000
# 4 0.0000 0.0000 0.0000 13.2032 0.0000 0.0000
# 5 0.0000 0.0000 0.0000 0.0000 13.2032 0.0000
# 6 0.0000 0.0000 0.0000 0.0000 0.0000 27.3028
#
#
#
# Elastic Compliance Matrix: (Units=1/GPa)
#
#
# Indices 1 2 3 4 5 6 
#
# 1 0.009686 -0.001069 -0.006460 0.000000 0.000000 0.000000
# 2 -0.001069 0.009686 -0.006460 0.000000 0.000000 0.000000
# 3 -0.006460 -0.006460 0.047614 0.000000 0.000000 0.000000
# 4 0.000000 0.000000 0.000000 0.075739 0.000000 0.000000
# 5 0.000000 0.000000 0.000000 0.000000 0.075739 0.000000
# 6 0.000000 0.000000 0.000000 0.000000 0.000000 0.036626
#
#
# Mechanical properties :
#
#
# Convention : Reuss Voigt Hill
#
# Bulk Modulus (GPa) = 25.63622 44.08898 34.86260
# Shear Modulus (GPa) = 16.88775 24.01867 20.45321
#
# Velocity S-wave (km/s) = 3.05023 3.63765 3.35682
# Velocity P-wave (km/s) = 5.15062 6.47558 5.85073
#
# Compressibility (1/GPa) = 0.03900731
#
# Stress axis : x y z
#
# Youngs Moduli (GPa) = 103.24346 103.24346 21.00203
#
# Poissons Ratio (x) = 0.11032 0.13568
# Poissons Ratio (y) = 0.11032 0.13568
# Poissons Ratio (z) = 0.66700 0.66700
#
# Static dielectric constant tensor:
#      x y z
#    x 3.706700 0.000000 0.000000 
#    y 0.000000 3.706700 0.000000 
#    z 0.000000 0.000000 2.577640 
# 
# 
# High freq. dielectric constant tensor:
#      x y z
#    x 1.723950 0.000000 0.000000 
#    y 0.000000 1.723950 0.000000 
#    z 0.000000 0.000000 1.604010 
# 
# From -- ./inp_files/2546.got.cif
#   From: 2010.03.12/outbox.cif.g09.slc.cpg/sg122_2_cif.got.tgz:2546.got - 2010.04.06 16:17:16.
