data_PCOD8312971
_publ_section_title
;
Structure prediction by ZEFSAII (Michael W. Deem and Ramdas Pophale) SiO2 
 PCOD8312971
Probable space group: P 4/M M M
;
_chemical_formula_sum "Si O2"
_cell_formula_units_Z 64
_cell_length_a 25.109452
_cell_length_b 25.109452
_cell_length_c 10.093361
_cell_angle_alpha 90.000000
_cell_angle_beta 90.000000
_cell_angle_gamma 90.000000
_cell_volume 6363.708468
_symmetry_space_group_name_H-M "P 4/M M M"
_symmetry_group_IT_number 123
_symmetry_cell_setting 'tetragonal'
loop_
_space_group_symop_operation_xyz
x,y,z
-y,x,z
-x,-y,z
y,-x,z
x,-y,-z
-x,y,-z
y,x,-z
-y,-x,-z
-x,-y,-z
y,-x,-z
x,y,-z
-y,x,-z
-x,y,z
x,-y,z
-y,-x,z
y,x,z
loop_
_atom_site_type_symbol
_atom_site_label
_atom_site_fract_x
_atom_site_fract_y
_atom_site_fract_z
Si Si1 0.436627 0.145191 0.351663
Si Si2 0.059368 0.563376 0.148283
Si Si3 0.736238 0.563238 0.648232
Si Si4 0.438625 0.647582 0.151422
O O1 0.418138 0.129917 0.500000
O O2 0.500000 0.144199 0.343561
O O3 0.411755 0.102391 0.249679
O O4 0.415849 0.204514 0.315344
O O5 0.061325 0.500000 0.153370
O O6 0.000000 0.582779 0.188148
O O7 0.073372 0.582995 0.000000
O O8 0.720421 0.582384 0.500000
O O9 0.736710 0.500000 0.653400
O O10 0.694001 0.585116 0.754868
O O11 0.500000 0.634970 0.184957
O O12 0.406410 0.593590 0.178421
O O13 0.432146 0.666858 0.000000
#
# Coordination Sequence:
#
# PCOD8312971 Si02
#       4
#    16  16  16  16
#     4   8  13  20  29  40  52  66  84 103 120 137
#     4   8  13  19  25  35  52  71  88 104 120 136
#     4   8  14  24  35  45  56  68  82 100 120 142
#     4   9  17  27  37  48  59  69  81  97 119 150
#
# _framework density 10.057028000000001
#
# number of rings (size 3 to 8) (size 9 to 14) (size 15 to 20)
#    0.000    3.750    0.000    2.250    0.000    2.250 
#    0.000    8.750    0.000    0.000    0.000    3.500 
#    0.000    0.000    0.000    0.000    0.000    0.000 
#
# Total GULP energy -792981.713065 kJ/mol
# GULP energy per Si atom -12390.339267 kJ/mol
# Density = 1.003414 g / cm^3
# Si number density = 10.057028 Si / 1000 Ang^3
#
#
#
# Elastic Constant Matrix: (Units=GPa)
#
#
# Indices 1 2 3 4 5 6 
#
# 1 42.6162 17.3268 37.6004 0.0000 0.0000 0.0000
# 2 17.3268 42.6162 37.6004 0.0000 0.0000 0.0000
# 3 37.6004 37.6004 77.1696 0.0000 0.0000 0.0000
# 4 0.0000 0.0000 0.0000 14.5421 0.0000 0.0000
# 5 0.0000 0.0000 0.0000 0.0000 14.5421 0.0000
# 6 0.0000 0.0000 0.0000 0.0000 0.0000 0.3282
#
#
#
# Elastic Compliance Matrix: (Units=1/GPa)
#
#
# Indices 1 2 3 4 5 6 
#
# 1 0.041229 0.001686 -0.020910 0.000000 0.000000 0.000000
# 2 0.001686 0.041229 -0.020910 0.000000 0.000000 0.000000
# 3 -0.020910 -0.020910 0.033335 0.000000 0.000000 0.000000
# 4 0.000000 0.000000 0.000000 0.068766 0.000000 0.000000
# 5 0.000000 0.000000 0.000000 0.000000 0.068766 0.000000
# 6 0.000000 0.000000 0.000000 0.000000 0.000000 3.046680
#
#
# Mechanical properties :
#
#
# Convention : Reuss Voigt Hill
#
# Bulk Modulus (GPa) = 28.14940 38.60637 33.37788
# Shear Modulus (GPa) = 1.47401 10.54079 6.00740
#
# Velocity S-wave (km/s) = 1.21195 3.24095 2.44669
# Velocity P-wave (km/s) = 5.47805 7.24402 6.42202
#
# Compressibility (1/GPa) = 0.03552474
#
# Stress axis : x y z
#
# Youngs Moduli (GPa) = 24.25503 24.25503 29.99848
#
# Poissons Ratio (x) = -0.04090 0.62727
# Poissons Ratio (y) = -0.04090 0.62727
# Poissons Ratio (z) = 0.50717 0.50717
#
# Static dielectric constant tensor:
#      x y z
#    x 2.088800 0.000000 0.000000 
#    y 0.000000 2.088800 0.000000 
#    z 0.000000 0.000000 2.481200 
# 
# 
# High freq. dielectric constant tensor:
#      x y z
#    x 1.339370 0.000000 0.000000 
#    y 0.000000 1.339370 0.000000 
#    z 0.000000 0.000000 1.392560 
# 
# From -- ./inp_files/2828.got.cif
#   From: 2010.03.12/outbox.cif.g09.slc.cpg/sg123_2_cif.got.tgz:2828.got - 2010.04.06 16:26:55.
