data_PCOD8312818
_publ_section_title
;
Structure prediction by ZEFSAII (Michael W. Deem and Ramdas Pophale) SiO2 
 PCOD8312818
Probable space group: P 4/M M M
;
_chemical_formula_sum "Si O2"
_cell_formula_units_Z 84
_cell_length_a 12.555467
_cell_length_b 12.555467
_cell_length_c 29.029509
_cell_angle_alpha 90.000000
_cell_angle_beta 90.000000
_cell_angle_gamma 90.000000
_cell_volume 4576.204587
_symmetry_space_group_name_H-M "P 4/M M M"
_symmetry_group_IT_number 123
_symmetry_cell_setting 'tetragonal'
loop_
_space_group_symop_operation_xyz
x,y,z
-y,x,z
-x,-y,z
y,-x,z
x,-y,-z
-x,y,-z
y,x,-z
-y,-x,-z
-x,-y,-z
y,-x,-z
x,y,-z
-y,x,-z
-x,y,z
x,-y,z
-y,-x,z
y,x,z
loop_
_atom_site_type_symbol
_atom_site_label
_atom_site_fract_x
_atom_site_fract_y
_atom_site_fract_z
Si Si1 0.294790 0.880063 0.183456
Si Si2 0.205303 0.619608 0.091612
Si Si3 0.294871 0.119377 0.000000
Si Si4 0.123996 0.500000 0.574381
Si Si5 0.379099 0.790896 0.273766
Si Si6 0.880432 0.708015 0.364697
Si Si7 0.500000 0.685185 0.500000
O O1 0.188522 0.811479 0.185621
O O2 0.354302 0.868819 0.134954
O O3 0.374513 0.847931 0.224349
O O4 0.257154 0.000000 0.189759
O O5 0.246110 0.500000 0.094913
O O6 0.310534 0.689466 0.091723
O O7 0.138707 0.634371 0.045055
O O8 0.190630 0.190630 0.000000
O O9 0.252409 0.000000 0.000000
O O10 0.138673 0.604198 0.604916
O O11 0.227929 0.500000 0.541304
O O12 0.000000 0.500000 0.553445
O O13 0.500000 0.772680 0.288452
O O14 0.324663 0.675338 0.271329
O O15 0.320622 0.864036 0.311259
O O16 0.799910 0.799910 0.381272
O O17 0.000000 0.751651 0.370859
O O18 0.393673 0.606328 0.500000
#
# Coordination Sequence:
#
# PCOD8312818 Si02
#       7
#    16  16   8   8  16  16   4
#     4  10  21  35  52  75 102 133 172 216 262 315
#     4  10  21  36  53  76 102 130 167 209 255 310
#     4  10  21  36  54  76 102 130 165 208 254 308
#     4  10  20  37  60  83 111 149 193 233 273 326
#     4  10  20  34  52  76 106 140 180 223 267 320
#     4  10  20  34  54  80 110 145 185 229 276 327
#     4  11  23  38  58  86 121 153 184 232 286 331
#
# _framework density 18.355823999999998
#
# number of rings (size 3 to 8) (size 9 to 14) (size 15 to 20)
#    0.000    1.952    0.952    2.714    0.000    4.667 
#    0.000    0.000    0.000   12.000    0.000    0.000 
#    0.000    6.857    0.000    0.000    0.000    0.000 
#
# Total GULP energy -1041326.565065 kJ/mol
# GULP energy per Si atom -12396.744822 kJ/mol
# Density = 1.831404 g / cm^3
# Si number density = 18.355824 Si / 1000 Ang^3
#
#
#
# Elastic Constant Matrix: (Units=GPa)
#
#
# Indices 1 2 3 4 5 6 
#
# 1 114.3729 72.1223 36.5247 0.0000 0.0000 0.0000
# 2 72.1223 114.3727 36.5246 0.0000 0.0000 0.0000
# 3 36.5247 36.5246 90.6888 0.0000 0.0000 0.0000
# 4 0.0000 0.0000 0.0000 20.0042 0.0000 0.0000
# 5 0.0000 0.0000 0.0000 0.0000 20.0042 0.0000
# 6 0.0000 0.0000 0.0000 0.0000 0.0000 14.7357
#
#
#
# Elastic Compliance Matrix: (Units=1/GPa)
#
#
# Indices 1 2 3 4 5 6 
#
# 1 0.015017 -0.008651 -0.002564 0.000000 0.000000 0.000000
# 2 -0.008651 0.015017 -0.002564 0.000000 0.000000 0.000000
# 3 -0.002564 -0.002564 0.013092 0.000000 0.000000 0.000000
# 4 0.000000 0.000000 0.000000 0.049989 0.000000 0.000000
# 5 0.000000 0.000000 0.000000 0.000000 0.049990 0.000000
# 6 0.000000 0.000000 0.000000 0.000000 0.000000 0.067862
#
#
# Mechanical properties :
#
#
# Convention : Reuss Voigt Hill
#
# Bulk Modulus (GPa) = 64.23165 67.75307 65.99236
# Shear Modulus (GPa) = 20.51570 22.56634 21.54102
#
# Velocity S-wave (km/s) = 3.34678 3.51006 3.42939
# Velocity P-wave (km/s) = 7.07128 7.30879 7.19102
#
# Compressibility (1/GPa) = 0.01556865
#
# Stress axis : x y z
#
# Youngs Moduli (GPa) = 66.58952 66.58942 76.38221
#
# Poissons Ratio (x) = 0.57606 0.19585
# Poissons Ratio (y) = 0.57607 0.19585
# Poissons Ratio (z) = 0.17074 0.17074
#
# Static dielectric constant tensor:
#      x y z
#    x 3.357360 0.000000 0.000000 
#    y 0.000000 3.357360 0.000000 
#    z 0.000000 0.000000 3.659700 
# 
# 
# High freq. dielectric constant tensor:
#      x y z
#    x 1.712440 0.000000 0.000000 
#    y 0.000000 1.712440 0.000000 
#    z 0.000000 0.000000 1.719120 
# 
# From -- ./inp_files/8537.got.cif
#   From: 2010.03.12/outbox.cif.g09.slc.cpg/sg123_5_cif.got.tgz:8537.got - 2010.04.06 16:26:55.
