data_PCOD8312314
_publ_section_title
;
Structure prediction by ZEFSAII (Michael W. Deem and Ramdas Pophale) SiO2 
 PCOD8312314
Probable space group: P 4/M M M
;
_chemical_formula_sum "Si O2"
_cell_formula_units_Z 88
_cell_length_a 22.921118
_cell_length_b 22.921118
_cell_length_c 14.309511
_cell_angle_alpha 90.000000
_cell_angle_beta 90.000000
_cell_angle_gamma 90.000000
_cell_volume 7517.897267
_symmetry_space_group_name_H-M "P 4/M M M"
_symmetry_group_IT_number 123
_symmetry_cell_setting 'tetragonal'
loop_
_space_group_symop_operation_xyz
x,y,z
-y,x,z
-x,-y,z
y,-x,z
x,-y,-z
-x,y,-z
y,x,-z
-y,-x,-z
-x,-y,-z
y,-x,-z
x,y,-z
-y,x,-z
-x,y,z
x,-y,z
-y,-x,z
y,x,z
loop_
_atom_site_type_symbol
_atom_site_label
_atom_site_fract_x
_atom_site_fract_y
_atom_site_fract_z
Si Si1 0.000000 0.569689 0.392523
Si Si2 0.566129 0.341103 0.287028
Si Si3 0.114654 0.431375 0.291724
Si Si4 0.295766 0.387594 0.895381
Si Si5 0.432424 0.170741 0.895325
Si Si6 0.569516 0.228280 0.605000
O O1 0.056082 0.595372 0.337071
O O2 0.000000 0.500000 0.390979
O O3 0.000000 0.591806 0.500000
O O4 0.500000 0.354016 0.315720
O O5 0.603008 0.396993 0.318125
O O6 0.570293 0.329326 0.176229
O O7 0.592201 0.285125 0.340784
O O8 0.112316 0.500000 0.307701
O O9 0.120830 0.416701 0.180800
O O10 0.170686 0.405164 0.345089
O O11 0.321257 0.321257 0.883377
O O12 0.226303 0.390527 0.877478
O O13 0.308751 0.410764 0.000000
O O14 0.500000 0.190719 0.881583
O O15 0.422905 0.145384 0.000000
O O16 0.593622 0.229913 0.500000
O O17 0.500000 0.227158 0.607553
#
# Coordination Sequence:
#
# PCOD8312314 Si02
#       6
#     8  16  16  16  16  16
#     4   9  16  24  35  51  69  87 104 124 149 177
#     4  10  19  29  39  51  65  81 104 133 167 207
#     4   9  15  24  36  51  68  84 102 123 148 181
#     4   9  16  25  38  54  68  82 103 132 163 196
#     4   9  15  23  36  51  67  87 107 127 155 192
#     4   9  16  26  39  51  62  78 101 128 156 188
#
# _framework density 11.705401
#
# number of rings (size 3 to 8) (size 9 to 14) (size 15 to 20)
#    0.000    2.818    1.818    1.091    0.000    3.818 
#    0.000    0.455    0.000    2.727    0.000    5.091 
#    0.000    0.000    0.000    0.000    0.000    0.000 
#
# Total GULP energy -1090505.616477 kJ/mol
# GULP energy per Si atom -12392.109278 kJ/mol
# Density = 1.167876 g / cm^3
# Si number density = 11.705401 Si / 1000 Ang^3
#
#
#
# Elastic Constant Matrix: (Units=GPa)
#
#
# Indices 1 2 3 4 5 6 
#
# 1 52.3529 24.8022 33.6612 0.0000 0.0000 0.0000
# 2 24.8022 52.3529 33.6612 0.0000 0.0000 0.0000
# 3 33.6612 33.6612 91.4527 0.0000 0.0000 0.0000
# 4 0.0000 0.0000 0.0000 13.2588 0.0000 0.0000
# 5 0.0000 0.0000 0.0000 0.0000 13.2588 0.0000
# 6 0.0000 0.0000 0.0000 0.0000 0.0000 2.5638
#
#
#
# Elastic Compliance Matrix: (Units=1/GPa)
#
#
# Indices 1 2 3 4 5 6 
#
# 1 0.027695 -0.008602 -0.007028 0.000000 0.000000 0.000000
# 2 -0.008602 0.027695 -0.007028 0.000000 0.000000 0.000000
# 3 -0.007028 -0.007028 0.016108 0.000000 0.000000 0.000000
# 4 0.000000 0.000000 0.000000 0.075422 0.000000 0.000000
# 5 0.000000 0.000000 0.000000 0.000000 0.075422 0.000000
# 6 0.000000 0.000000 0.000000 0.000000 0.000000 0.390042
#
#
# Mechanical properties :
#
#
# Convention : Reuss Voigt Hill
#
# Bulk Modulus (GPa) = 38.19211 42.26754 40.22983
# Shear Modulus (GPa) = 7.50273 12.75189 10.12731
#
# Velocity S-wave (km/s) = 2.53447 3.30419 2.94459
# Velocity P-wave (km/s) = 6.42365 7.12353 6.78263
#
# Compressibility (1/GPa) = 0.02618342
#
# Stress axis : x y z
#
# Youngs Moduli (GPa) = 36.10790 36.10790 62.08135
#
# Poissons Ratio (x) = 0.31060 0.43628
# Poissons Ratio (y) = 0.31060 0.43628
# Poissons Ratio (z) = 0.25375 0.25375
#
# Static dielectric constant tensor:
#      x y z
#    x 2.253780 0.000000 0.000000 
#    y 0.000000 2.253780 0.000000 
#    z 0.000000 0.000000 2.690900 
# 
# 
# High freq. dielectric constant tensor:
#      x y z
#    x 1.400190 0.000000 0.000000 
#    y 0.000000 1.400190 0.000000 
#    z 0.000000 0.000000 1.465480 
# 
# From -- ./inp_files/4395.got.cif
#   From: 2010.03.12/outbox.cif.g09.slc.cpg/sg123_3_cif.got.tgz:4395.got - 2010.04.06 16:26:55.
