data_PCOD8312805
_publ_section_title
;
Structure prediction by ZEFSAII (Michael W. Deem and Ramdas Pophale) SiO2 
 PCOD8312805
Probable space group: P 4/M M M
;
_chemical_formula_sum "Si O2"
_cell_formula_units_Z 96
_cell_length_a 23.785579
_cell_length_b 23.785579
_cell_length_c 9.731606
_cell_angle_alpha 90.000000
_cell_angle_beta 90.000000
_cell_angle_gamma 90.000000
_cell_volume 5505.692767
_symmetry_space_group_name_H-M "P 4/M M M"
_symmetry_group_IT_number 123
_symmetry_cell_setting 'tetragonal'
loop_
_space_group_symop_operation_xyz
x,y,z
-y,x,z
-x,-y,z
y,-x,z
x,-y,-z
-x,y,-z
y,x,-z
-y,-x,-z
-x,-y,-z
y,-x,-z
x,y,-z
-y,x,-z
-x,y,z
x,-y,z
-y,-x,z
y,x,z
loop_
_atom_site_type_symbol
_atom_site_label
_atom_site_fract_x
_atom_site_fract_y
_atom_site_fract_z
Si Si1 0.138075 0.639000 0.840351
Si Si2 0.139852 0.231056 0.840725
Si Si3 0.563881 0.346015 0.657137
Si Si4 0.435581 0.755963 0.158134
Si Si5 0.066375 0.562833 0.345288
Si Si6 0.844224 0.935276 0.658705
O O1 0.147744 0.703918 0.800018
O O2 0.193392 0.604686 0.801470
O O3 0.088022 0.611675 0.754181
O O4 0.122744 0.632732 0.000000
O O5 0.197996 0.197996 0.809324
O O6 0.089239 0.205984 0.750823
O O7 0.123149 0.224689 0.000000
O O8 0.571355 0.326907 0.500000
O O9 0.500000 0.361375 0.691961
O O10 0.598713 0.401288 0.692091
O O11 0.585679 0.295802 0.751686
O O12 0.500000 0.772315 0.192869
O O13 0.428927 0.738924 0.000000
O O14 0.088724 0.573414 0.500000
O O15 0.085169 0.500000 0.296664
O O16 0.000000 0.566797 0.343036
O O17 0.826350 0.928954 0.500000
O O18 0.901992 0.901992 0.688856
O O19 0.854506 0.000000 0.698476
#
# Coordination Sequence:
#
# PCOD8312805 Si02
#       6
#    16  16  16  16  16  16
#     4  10  20  33  52  76  97 124 166 207 242 285
#     4   9  19  35  51  69  98 133 165 199 240 285
#     4   9  18  32  49  70  96 125 158 196 239 289
#     4   9  18  32  49  70  96 124 156 198 246 291
#     4   9  19  35  52  72 101 134 164 196 239 290
#     4   9  18  33  53  76 101 129 161 198 240 284
#
# _framework density 17.436499000000001
#
# number of rings (size 3 to 8) (size 9 to 14) (size 15 to 20)
#    0.000    2.833    0.000    1.000    0.000    5.000 
#    0.000    9.167    0.000    2.000    0.000    4.667 
#    0.000    0.000    0.000    0.000    0.000    0.000 
#
# Total GULP energy -1190414.991724 kJ/mol
# GULP energy per Si atom -12400.156164 kJ/mol
# Density = 1.739681 g / cm^3
# Si number density = 17.436499 Si / 1000 Ang^3
#
#
#
# Elastic Constant Matrix: (Units=GPa)
#
#
# Indices 1 2 3 4 5 6 
#
# 1 109.7051 58.2826 52.4309 0.0000 0.0000 0.0000
# 2 58.2826 109.7051 52.4309 0.0000 0.0000 0.0000
# 3 52.4309 52.4309 61.5938 0.0000 0.0000 0.0000
# 4 0.0000 0.0000 0.0000 31.3349 0.0000 0.0000
# 5 0.0000 0.0000 0.0000 0.0000 31.3349 0.0000
# 6 0.0000 0.0000 0.0000 0.0000 0.0000 9.1027
#
#
#
# Elastic Compliance Matrix: (Units=1/GPa)
#
#
# Indices 1 2 3 4 5 6 
#
# 1 0.016075 -0.003372 -0.010813 0.000000 0.000000 0.000000
# 2 -0.003372 0.016075 -0.010813 0.000000 0.000000 0.000000
# 3 -0.010813 -0.010813 0.034644 0.000000 0.000000 0.000000
# 4 0.000000 0.000000 0.000000 0.031913 0.000000 0.000000
# 5 0.000000 0.000000 0.000000 0.000000 0.031913 0.000000
# 6 0.000000 0.000000 0.000000 0.000000 0.000000 0.109858
#
#
# Mechanical properties :
#
#
# Convention : Reuss Voigt Hill
#
# Bulk Modulus (GPa) = 59.53224 67.47697 63.50460
# Shear Modulus (GPa) = 16.88780 22.21182 19.54981
#
# Velocity S-wave (km/s) = 3.11550 3.57300 3.35207
# Velocity P-wave (km/s) = 6.86718 7.47024 7.17505
#
# Compressibility (1/GPa) = 0.01679762
#
# Stress axis : x y z
#
# Youngs Moduli (GPa) = 62.21016 62.21016 28.86522
#
# Poissons Ratio (x) = 0.20978 0.31211
# Poissons Ratio (y) = 0.20978 0.31211
# Poissons Ratio (z) = 0.67266 0.67266
#
# Static dielectric constant tensor:
#      x y z
#    x 3.249050 0.000000 0.000000 
#    y 0.000000 3.249050 0.000000 
#    z 0.000000 0.000000 3.300590 
# 
# 
# High freq. dielectric constant tensor:
#      x y z
#    x 1.671210 0.000000 0.000000 
#    y 0.000000 1.671210 0.000000 
#    z 0.000000 0.000000 1.674340 
# 
# From -- ./inp_files/1554.got.cif
#   From: 2010.03.12/outbox.cif.g09.slc.cpg/sg123_1_cif.got.tgz:1554.got - 2010.04.06 16:26:55.
