data_PCOD8312472
_publ_section_title
;
Structure prediction by ZEFSAII (Michael W. Deem and Ramdas Pophale) SiO2 
 PCOD8312472
Probable space group: P 4/M M M
;
_chemical_formula_sum "Si O2"
_cell_formula_units_Z 112
_cell_length_a 18.816250
_cell_length_b 18.816250
_cell_length_c 18.763479
_cell_angle_alpha 90.000000
_cell_angle_beta 90.000000
_cell_angle_gamma 90.000000
_cell_volume 6643.233458
_symmetry_space_group_name_H-M "P 4/M M M"
_symmetry_group_IT_number 123
_symmetry_cell_setting 'tetragonal'
loop_
_space_group_symop_operation_xyz
x,y,z
-y,x,z
-x,-y,z
y,-x,z
x,-y,-z
-x,y,-z
y,x,-z
-y,-x,-z
-x,-y,-z
y,-x,-z
x,y,-z
-y,x,-z
-x,y,z
x,-y,z
-y,-x,z
y,x,z
loop_
_atom_site_type_symbol
_atom_site_label
_atom_site_fract_x
_atom_site_fract_y
_atom_site_fract_z
Si Si1 0.917954 0.801099 0.847480
Si Si2 0.156970 0.417728 0.791200
Si Si3 0.705198 0.919627 0.281422
Si Si4 0.344389 0.918010 0.081093
Si Si5 0.265301 0.148182 0.578534
Si Si6 0.738366 0.380436 0.423142
Si Si7 0.422928 0.304465 0.726429
O O1 0.868437 0.868437 0.865300
O O2 0.894490 0.767670 0.771619
O O3 0.906310 0.739675 0.906302
O O4 0.000000 0.827044 0.846627
O O5 0.134939 0.500000 0.779241
O O6 0.122623 0.367907 0.730750
O O7 0.132675 0.392103 0.869332
O O8 0.241815 0.408264 0.782989
O O9 0.734023 0.912572 0.361761
O O10 0.686347 0.000000 0.263534
O O11 0.363916 0.000000 0.097784
O O12 0.362272 0.898036 0.000000
O O13 0.253482 0.114376 0.500000
O O14 0.203134 0.203134 0.596836
O O15 0.341336 0.186269 0.581848
O O16 0.735055 0.422039 0.500000
O O17 0.677939 0.322062 0.423107
O O18 0.727244 0.429016 0.353980
O O19 0.500000 0.338916 0.742286
O O20 0.362965 0.362965 0.736344
#
# Coordination Sequence:
#
# PCOD8312472 Si02
#       7
#    16  16  16  16  16  16  16
#     4   9  18  31  48  71  98 129 162 195 234 282
#     4  10  20  33  50  73  97 126 162 193 228 281
#     4  10  19  30  46  68  96 128 161 202 246 284
#     4   9  19  35  53  75 102 128 155 191 237 283
#     4   9  16  27  45  67  90 120 161 206 247 286
#     4   8  14  26  45  67  89 117 155 196 238 283
#     4  10  20  33  50  72  97 126 161 203 247 291
#
# _framework density 16.859259000000002
#
# number of rings (size 3 to 8) (size 9 to 14) (size 15 to 20)
#    0.000    2.714    1.429    2.571    0.000    4.857 
#    0.000    0.714    0.000    0.429    0.000    5.000 
#    0.000    0.000    0.000   16.429    0.000    0.000 
#
# Total GULP energy -1387886.407651 kJ/mol
# GULP energy per Si atom -12391.842925 kJ/mol
# Density = 1.682089 g / cm^3
# Si number density = 16.859259 Si / 1000 Ang^3
#
#
#
# Elastic Constant Matrix: (Units=GPa)
#
#
# Indices 1 2 3 4 5 6 
#
# 1 66.6162 39.8786 31.2180 0.0000 0.0000 0.0000
# 2 39.8786 66.6162 31.2180 0.0000 0.0000 0.0000
# 3 31.2180 31.2180 113.4665 0.0000 0.0000 0.0000
# 4 0.0000 0.0000 0.0000 13.9931 0.0000 0.0000
# 5 0.0000 0.0000 0.0000 0.0000 13.9931 0.0000
# 6 0.0000 0.0000 0.0000 0.0000 0.0000 21.1912
#
#
#
# Elastic Compliance Matrix: (Units=1/GPa)
#
#
# Indices 1 2 3 4 5 6 
#
# 1 0.024298 -0.013102 -0.003080 0.000000 0.000000 0.000000
# 2 -0.013102 0.024298 -0.003080 0.000000 0.000000 0.000000
# 3 -0.003080 -0.003080 0.010508 0.000000 0.000000 0.000000
# 4 0.000000 0.000000 0.000000 0.071464 0.000000 0.000000
# 5 0.000000 0.000000 0.000000 0.000000 0.071464 0.000000
# 6 0.000000 0.000000 0.000000 0.000000 0.000000 0.047189
#
#
# Mechanical properties :
#
#
# Convention : Reuss Voigt Hill
#
# Bulk Modulus (GPa) = 48.59357 50.14759 49.37058
# Shear Modulus (GPa) = 16.97176 19.46110 18.21643
#
# Velocity S-wave (km/s) = 3.17625 3.40123 3.29066
# Velocity P-wave (km/s) = 6.50670 6.72561 6.61706
#
# Compressibility (1/GPa) = 0.02057885
#
# Stress axis : x y z
#
# Youngs Moduli (GPa) = 41.15516 41.15516 95.16388
#
# Poissons Ratio (x) = 0.53922 0.29314
# Poissons Ratio (y) = 0.53922 0.29314
# Poissons Ratio (z) = 0.12677 0.12677
#
# Static dielectric constant tensor:
#      x y z
#    x 2.947990 0.000000 0.000000 
#    y 0.000000 2.947990 0.000000 
#    z 0.000000 0.000000 3.616870 
# 
# 
# High freq. dielectric constant tensor:
#      x y z
#    x 1.632470 0.000000 0.000000 
#    y 0.000000 1.632470 0.000000 
#    z 0.000000 0.000000 1.651880 
# 
# From -- ./inp_files/6645.got.cif
#   From: 2010.03.12/outbox.cif.g09.slc.cpg/sg123_4_cif.got.tgz:6645.got - 2010.04.06 16:26:55.
