data_PCOD8312151
_publ_section_title
;
Structure prediction by ZEFSAII (Michael W. Deem and Ramdas Pophale) SiO2 
 PCOD8312151
Probable space group: P 4/M M M
;
_chemical_formula_sum "Si O2"
_cell_formula_units_Z 72
_cell_length_a 19.948997
_cell_length_b 19.948997
_cell_length_c 12.779183
_cell_angle_alpha 90.000000
_cell_angle_beta 90.000000
_cell_angle_gamma 90.000000
_cell_volume 5085.635376
_symmetry_space_group_name_H-M "P 4/M M M"
_symmetry_group_IT_number 123
_symmetry_cell_setting 'tetragonal'
loop_
_space_group_symop_operation_xyz
x,y,z
-y,x,z
-x,-y,z
y,-x,z
x,-y,-z
-x,y,-z
y,x,-z
-y,-x,-z
-x,-y,-z
y,-x,-z
x,y,-z
-y,x,-z
-x,y,z
x,-y,z
-y,-x,z
y,x,z
loop_
_atom_site_type_symbol
_atom_site_label
_atom_site_fract_x
_atom_site_fract_y
_atom_site_fract_z
Si Si1 0.575459 0.779331 0.305576
Si Si2 0.820031 0.925274 0.624462
Si Si3 0.426131 0.316619 0.500000
Si Si4 0.711294 0.820303 0.376478
Si Si5 0.424921 0.317142 0.118649
O O1 0.500000 0.811957 0.316144
O O2 0.586352 0.725458 0.396038
O O3 0.638840 0.829036 0.319423
O O4 0.583511 0.747215 0.191650
O O5 0.821002 0.928356 0.500000
O O6 0.886798 0.886798 0.664064
O O7 0.754435 0.884320 0.660763
O O8 0.818570 0.000000 0.672940
O O9 0.500000 0.346741 0.500000
O O10 0.378548 0.378548 0.500000
O O11 0.699489 0.821516 0.500000
O O12 0.751719 0.751719 0.346514
O O13 0.500000 0.346137 0.128330
O O14 0.375723 0.375723 0.155906
O O15 0.409347 0.294218 0.000000
#
# Coordination Sequence:
#
# PCOD8312151 Si02
#       5
#    16  16   8  16  16
#     4  10  18  26  37  52  69  92 124 161 194 224
#     4   8  14  23  35  54  78 104 131 154 179 213
#     4  10  18  25  34  48  65  87 116 152 192 230
#     4   9  15  23  37  53  71  97 127 158 189 224
#     4   9  17  27  37  49  66  89 118 154 197 243
#
# _framework density 14.157524
#
# number of rings (size 3 to 8) (size 9 to 14) (size 15 to 20)
#    0.000    2.889    1.111    3.333    0.000    0.556 
#    0.000    2.222    0.000    4.667    0.000    3.111 
#    0.000    0.889    0.000    6.222    0.000    1.556 
#
# Total GULP energy -892073.950717 kJ/mol
# GULP energy per Si atom -12389.915982 kJ/mol
# Density = 1.412530 g / cm^3
# Si number density = 14.157524 Si / 1000 Ang^3
#
#
#
# Elastic Constant Matrix: (Units=GPa)
#
#
# Indices 1 2 3 4 5 6 
#
# 1 100.2107 53.9365 15.0980 0.0000 0.0000 0.0000
# 2 53.9365 100.2107 15.0980 0.0000 0.0000 0.0000
# 3 15.0980 15.0980 38.9283 0.0000 0.0000 0.0000
# 4 0.0000 0.0000 0.0000 8.5275 0.0000 0.0000
# 5 0.0000 0.0000 0.0000 0.0000 8.5275 0.0000
# 6 0.0000 0.0000 0.0000 0.0000 0.0000 16.9019
#
#
#
# Elastic Compliance Matrix: (Units=1/GPa)
#
#
# Indices 1 2 3 4 5 6 
#
# 1 0.014316 -0.007295 -0.002723 0.000000 0.000000 0.000000
# 2 -0.007295 0.014316 -0.002723 0.000000 0.000000 0.000000
# 3 -0.002723 -0.002723 0.027800 0.000000 0.000000 0.000000
# 4 0.000000 0.000000 0.000000 0.117268 0.000000 0.000000
# 5 0.000000 0.000000 0.000000 0.000000 0.117268 0.000000
# 6 0.000000 0.000000 0.000000 0.000000 0.000000 0.059165
#
#
# Mechanical properties :
#
#
# Convention : Reuss Voigt Hill
#
# Bulk Modulus (GPa) = 32.31006 45.29052 38.80029
# Shear Modulus (GPa) = 12.95571 17.13918 15.04744
#
# Velocity S-wave (km/s) = 3.02836 3.48315 3.26369
# Velocity P-wave (km/s) = 5.92447 6.94524 6.45506
#
# Compressibility (1/GPa) = 0.03095011
#
# Stress axis : x y z
#
# Youngs Moduli (GPa) = 69.85426 69.85426 35.97072
#
# Poissons Ratio (x) = 0.50957 0.09795
# Poissons Ratio (y) = 0.50957 0.09795
# Poissons Ratio (z) = 0.19021 0.19021
#
# Static dielectric constant tensor:
#      x y z
#    x 2.848320 0.000000 0.000000 
#    y 0.000000 2.848320 0.000000 
#    z 0.000000 0.000000 2.575570 
# 
# 
# High freq. dielectric constant tensor:
#      x y z
#    x 1.526230 0.000000 0.000000 
#    y 0.000000 1.526230 0.000000 
#    z 0.000000 0.000000 1.506770 
# 
# From -- ./inp_files/2975.got.cif
#   From: 2010.03.12/outbox.cif.g09.slc.cpg/sg123_2_cif.got.tgz:2975.got - 2010.04.06 16:26:55.
