data_PCOD8312585
_publ_section_title
;
Structure prediction by ZEFSAII (Michael W. Deem and Ramdas Pophale) SiO2 
 PCOD8312585
Probable space group: P 4/M M M
;
_chemical_formula_sum "Si O2"
_cell_formula_units_Z 120
_cell_length_a 18.044475
_cell_length_b 18.044475
_cell_length_c 21.260568
_cell_angle_alpha 90.000000
_cell_angle_beta 90.000000
_cell_angle_gamma 90.000000
_cell_volume 6922.506381
_symmetry_space_group_name_H-M "P 4/M M M"
_symmetry_group_IT_number 123
_symmetry_cell_setting 'tetragonal'
loop_
_space_group_symop_operation_xyz
x,y,z
-y,x,z
-x,-y,z
y,-x,z
x,-y,-z
-x,y,-z
y,x,-z
-y,-x,-z
-x,-y,-z
y,-x,-z
x,y,-z
-y,x,-z
-x,y,z
x,-y,z
-y,-x,z
y,x,z
loop_
_atom_site_type_symbol
_atom_site_label
_atom_site_fract_x
_atom_site_fract_y
_atom_site_fract_z
Si Si1 0.698595 0.417014 0.074421
Si Si2 0.650981 0.853940 0.927513
Si Si3 0.914750 0.723233 0.743760
Si Si4 0.419914 0.914243 0.188965
Si Si5 0.914905 0.201445 0.500000
Si Si6 0.085137 0.584659 0.425940
Si Si7 0.202263 0.914470 0.125419
Si Si8 0.276128 0.841016 0.616466
O O1 0.701561 0.500000 0.103771
O O2 0.626314 0.373687 0.100627
O O3 0.770292 0.368957 0.093111
O O4 0.693756 0.423140 0.000000
O O5 0.601220 0.907294 0.884510
O O6 0.737258 0.870466 0.915698
O O7 0.630743 0.868736 0.000000
O O8 0.880358 0.644134 0.766706
O O9 0.907291 0.781052 0.800508
O O10 0.868263 0.751792 0.684433
O O11 0.000000 0.714446 0.723613
O O12 0.500000 0.876435 0.202358
O O13 0.425099 0.000000 0.204459
O O14 0.878596 0.121405 0.500000
O O15 0.893525 0.245486 0.437737
O O16 0.000000 0.186236 0.500000
O O17 0.095564 0.595512 0.500000
O O18 0.101259 0.500000 0.406446
O O19 0.146691 0.634888 0.389347
O O20 0.000000 0.605433 0.407224
O O21 0.122729 0.877272 0.112208
O O22 0.199937 0.000000 0.104139
O O23 0.243306 0.756695 0.607209
#
# Coordination Sequence:
#
# PCOD8312585 Si02
#       8
#    16  16  16  16   8  16  16  16
#     4   9  17  28  43  65  92 122 154 184 217 261
#     4  10  19  32  50  71  96 125 155 191 240 296
#     4   9  18  32  49  67  92 128 164 201 246 297
#     4   9  18  31  47  71 100 128 161 199 240 289
#     4  10  20  31  45  67  95 129 166 204 244 288
#     4   9  17  29  46  68  96 130 166 203 243 294
#     4  10  21  36  52  70  92 120 161 210 256 303
#     4  11  20  30  48  72  99 130 165 207 250 293
#
# _framework density 17.334761
#
# number of rings (size 3 to 8) (size 9 to 14) (size 15 to 20)
#    0.000    2.400    0.667    4.000    0.000    3.533 
#    0.000    2.667    0.000    0.000    0.000    2.800 
#    0.000    0.267    0.000    1.467    0.000    0.000 
#
# Total GULP energy -1487100.801820 kJ/mol
# GULP energy per Si atom -12392.506682 kJ/mol
# Density = 1.729531 g / cm^3
# Si number density = 17.334761 Si / 1000 Ang^3
#
#
#
# Elastic Constant Matrix: (Units=GPa)
#
#
# Indices 1 2 3 4 5 6 
#
# 1 96.0900 60.1432 14.2988 0.0000 0.0000 0.0000
# 2 60.1432 96.0900 14.2987 0.0000 0.0000 0.0000
# 3 14.2988 14.2987 60.9872 0.0000 0.0000 0.0000
# 4 0.0000 0.0000 0.0000 7.4052 0.0000 0.0000
# 5 0.0000 0.0000 0.0000 0.0000 7.4053 0.0000
# 6 0.0000 0.0000 0.0000 0.0000 0.0000 28.3625
#
#
#
# Elastic Compliance Matrix: (Units=1/GPa)
#
#
# Indices 1 2 3 4 5 6 
#
# 1 0.017253 -0.010566 -0.001568 0.000000 0.000000 0.000000
# 2 -0.010566 0.017253 -0.001568 0.000000 0.000000 0.000000
# 3 -0.001568 -0.001568 0.017132 0.000000 0.000000 0.000000
# 4 0.000000 0.000000 0.000000 0.135041 0.000000 0.000000
# 5 0.000000 0.000000 0.000000 0.000000 0.135038 0.000000
# 6 0.000000 0.000000 0.000000 0.000000 0.000000 0.035258
#
#
# Mechanical properties :
#
#
# Convention : Reuss Voigt Hill
#
# Bulk Modulus (GPa) = 41.26152 47.84984 44.55568
# Shear Modulus (GPa) = 12.74025 19.59636 16.16831
#
# Velocity S-wave (km/s) = 2.71394 3.36589 3.05734
# Velocity P-wave (km/s) = 5.80302 6.53980 6.18240
#
# Compressibility (1/GPa) = 0.02423566
#
# Stress axis : x y z
#
# Youngs Moduli (GPa) = 57.96003 57.95999 58.36985
#
# Poissons Ratio (x) = 0.61238 0.09152
# Poissons Ratio (y) = 0.61238 0.09152
# Poissons Ratio (z) = 0.09088 0.09088
#
# Static dielectric constant tensor:
#      x y z
#    x 3.307950 0.000000 0.000000 
#    y 0.000000 3.307950 0.000000 
#    z 0.000000 0.000000 3.115750 
# 
# 
# High freq. dielectric constant tensor:
#      x y z
#    x 1.655610 0.000000 0.000000 
#    y 0.000000 1.655610 0.000000 
#    z 0.000000 0.000000 1.656600 
# 
# From -- ./inp_files/6825.got.cif
#   From: 2010.03.12/outbox.cif.g09.slc.cpg/sg123_4_cif.got.tgz:6825.got - 2010.04.06 16:26:55.
