data_PCOD8312668
_publ_section_title
;
Structure prediction by ZEFSAII (Michael W. Deem and Ramdas Pophale) SiO2 
 PCOD8312668
Probable space group: P 4/M M M
;
_chemical_formula_sum "Si O2"
_cell_formula_units_Z 88
_cell_length_a 18.849226
_cell_length_b 18.849226
_cell_length_c 14.160545
_cell_angle_alpha 90.000000
_cell_angle_beta 90.000000
_cell_angle_gamma 90.000000
_cell_volume 5031.147057
_symmetry_space_group_name_H-M "P 4/M M M"
_symmetry_group_IT_number 123
_symmetry_cell_setting 'tetragonal'
loop_
_space_group_symop_operation_xyz
x,y,z
-y,x,z
-x,-y,z
y,-x,z
x,-y,-z
-x,y,-z
y,x,-z
-y,-x,-z
-x,-y,-z
y,-x,-z
x,y,-z
-y,x,-z
-x,y,z
x,-y,z
-y,-x,z
y,x,z
loop_
_atom_site_type_symbol
_atom_site_label
_atom_site_fract_x
_atom_site_fract_y
_atom_site_fract_z
Si Si1 0.301351 0.582123 0.270519
Si Si2 0.918407 0.197752 0.704803
Si Si3 0.917925 0.348574 0.229154
Si Si4 0.416825 0.832657 0.392813
Si Si5 0.803020 0.582810 0.106832
Si Si6 0.808691 0.919433 0.500000
O O1 0.324730 0.500000 0.271536
O O2 0.371339 0.628662 0.284992
O O3 0.246368 0.599031 0.354557
O O4 0.264356 0.602755 0.171267
O O5 0.866655 0.133346 0.734289
O O6 0.907225 0.263646 0.774445
O O7 0.899179 0.229183 0.599223
O O8 0.000000 0.170814 0.709150
O O9 0.891416 0.379138 0.328971
O O10 0.874099 0.378572 0.141282
O O11 0.000000 0.369384 0.217024
O O12 0.388399 0.838435 0.500000
O O13 0.500000 0.848097 0.387543
O O14 0.818994 0.500000 0.115864
O O15 0.785733 0.605780 0.000000
O O16 0.885790 0.885790 0.500000
O O17 0.826731 0.000000 0.500000
#
# Coordination Sequence:
#
# PCOD8312668 Si02
#       6
#    16  16  16  16  16   8
#     4   9  18  33  52  75 102 129 163 206 247 292
#     4   9  18  31  46  66  94 126 161 201 242 286
#     4  10  20  31  48  75 103 126 158 208 253 290
#     4   9  19  34  49  67  96 136 174 202 236 289
#     4   9  19  36  55  73  97 131 164 195 241 301
#     4   8  14  25  40  58  83 117 153 189 230 272
#
# _framework density 17.491042
#
# number of rings (size 3 to 8) (size 9 to 14) (size 15 to 20)
#    0.000    2.909    0.000    1.636    1.273    6.273 
#    0.000    3.636    0.000    0.000    0.000    5.091 
#    0.000    0.000    0.000    4.000    0.000    0.182 
#
# Total GULP energy -1090603.002085 kJ/mol
# GULP energy per Si atom -12393.215933 kJ/mol
# Density = 1.745123 g / cm^3
# Si number density = 17.491042 Si / 1000 Ang^3
#
#
#
# Elastic Constant Matrix: (Units=GPa)
#
#
# Indices 1 2 3 4 5 6 
#
# 1 56.7785 28.8736 0.9308 0.0000 0.0000 0.0000
# 2 28.8736 56.7785 0.9308 0.0000 0.0000 0.0000
# 3 0.9308 0.9308 56.4117 0.0000 0.0000 0.0000
# 4 0.0000 0.0000 0.0000 15.8754 0.0000 0.0000
# 5 0.0000 0.0000 0.0000 0.0000 15.8754 0.0000
# 6 0.0000 0.0000 0.0000 0.0000 0.0000 33.0709
#
#
#
# Elastic Compliance Matrix: (Units=1/GPa)
#
#
# Indices 1 2 3 4 5 6 
#
# 1 0.023758 -0.012078 -0.000193 0.000000 0.000000 0.000000
# 2 -0.012078 0.023758 -0.000193 0.000000 0.000000 0.000000
# 3 -0.000193 -0.000193 0.017733 0.000000 0.000000 0.000000
# 4 0.000000 0.000000 0.000000 0.062991 0.000000 0.000000
# 5 0.000000 0.000000 0.000000 0.000000 0.062991 0.000000
# 6 0.000000 0.000000 0.000000 0.000000 0.000000 0.030238
#
#
# Mechanical properties :
#
#
# Convention : Reuss Voigt Hill
#
# Bulk Modulus (GPa) = 24.80097 25.71545 25.25821
# Shear Modulus (GPa) = 19.24294 22.24658 20.74476
#
# Velocity S-wave (km/s) = 3.32046 3.57022 3.44760
# Velocity P-wave (km/s) = 5.37686 5.63287 5.50636
#
# Compressibility (1/GPa) = 0.04032100
#
# Stress axis : x y z
#
# Youngs Moduli (GPa) = 42.09172 42.09172 56.39145
#
# Poissons Ratio (x) = 0.50840 0.01087
# Poissons Ratio (y) = 0.50840 0.01087
# Poissons Ratio (z) = 0.00811 0.00811
#
# Static dielectric constant tensor:
#      x y z
#    x 3.103290 0.000000 0.000000 
#    y 0.000000 3.103290 0.000000 
#    z 0.000000 0.000000 3.443250 
# 
# 
# High freq. dielectric constant tensor:
#      x y z
#    x 1.669110 0.000000 0.000000 
#    y 0.000000 1.669110 0.000000 
#    z 0.000000 0.000000 1.664360 
# 
# From -- ./inp_files/4093.got.cif
#   From: 2010.03.12/outbox.cif.g09.slc.cpg/sg123_3_cif.got.tgz:4093.got - 2010.04.06 16:26:55.
