data_PCOD8312935
_publ_section_title
;
Structure prediction by ZEFSAII (Michael W. Deem and Ramdas Pophale) SiO2 
 PCOD8312935
Probable space group: P 4/M M M
;
_chemical_formula_sum "Si O2"
_cell_formula_units_Z 96
_cell_length_a 24.238359
_cell_length_b 24.238359
_cell_length_c 8.830473
_cell_angle_alpha 90.000000
_cell_angle_beta 90.000000
_cell_angle_gamma 90.000000
_cell_volume 5187.885642
_symmetry_space_group_name_H-M "P 4/M M M"
_symmetry_group_IT_number 123
_symmetry_cell_setting 'tetragonal'
loop_
_space_group_symop_operation_xyz
x,y,z
-y,x,z
-x,-y,z
y,-x,z
x,-y,-z
-x,y,-z
y,x,-z
-y,-x,-z
-x,-y,-z
y,-x,-z
x,y,-z
-y,x,-z
-x,y,z
x,-y,z
-y,-x,z
y,x,z
loop_
_atom_site_type_symbol
_atom_site_label
_atom_site_fract_x
_atom_site_fract_y
_atom_site_fract_z
Si Si1 0.231325 0.561028 0.180050
Si Si2 0.438343 0.934979 0.328040
Si Si3 0.765938 0.855278 0.321332
Si Si4 0.151975 0.936897 0.177007
Si Si5 0.858442 0.354547 0.821136
Si Si6 0.439092 0.646351 0.180305
O O1 0.213184 0.500000 0.237838
O O2 0.191728 0.608424 0.243502
O O3 0.292511 0.574628 0.239730
O O4 0.230012 0.561126 0.000000
O O5 0.429244 0.914650 0.500000
O O6 0.500000 0.916600 0.272379
O O7 0.389002 0.912677 0.223171
O O8 0.434024 0.000000 0.319192
O O9 0.760798 0.858518 0.500000
O O10 0.801021 0.801021 0.271330
O O11 0.796698 0.910181 0.264542
O O12 0.705222 0.853888 0.252486
O O13 0.095496 0.904505 0.216029
O O14 0.144628 0.000000 0.230382
O O15 0.165420 0.933375 0.000000
O O16 0.856713 0.346503 0.000000
O O17 0.500000 0.628437 0.233243
O O18 0.395597 0.604404 0.254183
O O19 0.435600 0.645270 0.000000
#
# Coordination Sequence:
#
# PCOD8312935 Si02
#       6
#    16  16  16  16  16  16
#     4   8  15  27  41  61  91 123 155 196 247 298
#     4   9  19  36  55  75 103 138 172 207 250 302
#     4  10  22  39  55  72 100 138 176 214 257 304
#     4   9  18  34  57  84 112 139 167 202 244 290
#     4  11  21  32  52  78 100 127 168 216 261 308
#     4   8  13  21  33  51  79 115 152 189 230 278
#
# _framework density 18.504649000000001
#
# number of rings (size 3 to 8) (size 9 to 14) (size 15 to 20)
#    0.000    2.833    0.000    3.000    0.000    4.333 
#    0.000    4.167    0.000    0.000    0.000    2.333 
#    0.000    0.000    0.000    0.000    0.000    0.500 
#
# Total GULP energy -1189895.590416 kJ/mol
# GULP energy per Si atom -12394.745733 kJ/mol
# Density = 1.846253 g / cm^3
# Si number density = 18.504649 Si / 1000 Ang^3
#
#
#
# Elastic Constant Matrix: (Units=GPa)
#
#
# Indices 1 2 3 4 5 6 
#
# 1 147.9916 82.9245 39.2734 0.0000 0.0000 0.0000
# 2 82.9245 147.9916 39.2734 0.0000 0.0000 0.0000
# 3 39.2734 39.2734 43.6460 0.0000 0.0000 0.0000
# 4 0.0000 0.0000 0.0000 16.7975 0.0000 0.0000
# 5 0.0000 0.0000 0.0000 0.0000 16.7975 0.0000
# 6 0.0000 0.0000 0.0000 0.0000 0.0000 -5.8664
#
#
#
# Elastic Compliance Matrix: (Units=1/GPa)
#
#
# Indices 1 2 3 4 5 6 
#
# 1 0.010805 -0.004564 -0.005615 0.000000 0.000000 0.000000
# 2 -0.004564 0.010805 -0.005615 0.000000 0.000000 0.000000
# 3 -0.005615 -0.005615 0.033017 0.000000 0.000000 0.000000
# 4 0.000000 0.000000 0.000000 0.059533 0.000000 0.000000
# 5 0.000000 0.000000 0.000000 0.000000 0.059533 0.000000
# 6 0.000000 0.000000 0.000000 0.000000 0.000000 -0.170463
#
#
# Mechanical properties :
#
#
# Convention : Reuss Voigt Hill
#
# Bulk Modulus (GPa) = 43.40870 73.61912 58.51391
# Shear Modulus (GPa) = 117.65188 17.42293 67.53740
#
# Velocity S-wave (km/s) = 7.98233 3.07179 6.04787
# Velocity P-wave (km/s) = 10.41470 7.24235 8.96989
#
# Compressibility (1/GPa) = 0.02303686
#
# Stress axis : x y z
#
# Youngs Moduli (GPa) = 92.55215 92.55215 30.28704
#
# Poissons Ratio (x) = 0.42241 0.17008
# Poissons Ratio (y) = 0.42241 0.17008
# Poissons Ratio (z) = 0.51973 0.51973
#
# Static dielectric constant tensor:
#      x y z
#    x 3.604580 0.000000 0.000000 
#    y 0.000000 3.604580 0.000000 
#    z 0.000000 0.000000 3.083790 
# 
# 
# High freq. dielectric constant tensor:
#      x y z
#    x 1.723620 0.000000 0.000000 
#    y 0.000000 1.723620 0.000000 
#    z 0.000000 0.000000 1.683920 
# 
# From -- ./inp_files/1618.got.cif
#   From: 2010.03.12/outbox.cif.g09.slc.cpg/sg123_1_cif.got.tgz:1618.got - 2010.04.06 16:26:55.
