data_PCOD8312115
_publ_section_title
;
Structure prediction by ZEFSAII (Michael W. Deem and Ramdas Pophale) SiO2 
 PCOD8312115
Probable space group: I -4 2 D
;
_chemical_formula_sum "Si O2"
_cell_formula_units_Z 44
_cell_length_a 18.476772
_cell_length_b 18.476772
_cell_length_c 5.056262
_cell_angle_alpha 90.000000
_cell_angle_beta 90.000000
_cell_angle_gamma 90.000000
_cell_volume 1726.162864
_symmetry_space_group_name_H-M "I -4 2 D"
_symmetry_group_IT_number 122
_symmetry_cell_setting 'tetragonal'
loop_
_space_group_symop_operation_xyz
x,y,z
y,-x,-z
-x,-y,z
-y,x,-z
x,1/2-y,1/4-z
-x,1/2+y,1/4-z
-y,1/2-x,1/4+z
y,1/2+x,1/4+z
1/2+x,1/2+y,1/2+z
1/2+y,1/2-x,1/2-z
1/2-x,1/2-y,1/2+z
1/2-y,1/2+x,1/2-z
1/2+x,-y,3/4-z
1/2-x,y,3/4-z
1/2-y,-x,3/4+z
1/2+y,x,3/4+z
loop_
_atom_site_type_symbol
_atom_site_label
_atom_site_fract_x
_atom_site_fract_y
_atom_site_fract_z
Si Si1 0.639829 0.433542 0.355094
Si Si2 0.330682 0.839133 0.391948
Si Si3 0.500000 0.000000 0.750000
Si Si4 0.750000 0.557159 0.375000
O O1 0.653403 0.372340 0.570613
O O2 0.556070 0.455411 0.319416
O O3 0.683387 0.504960 0.446441
O O4 0.663371 0.402302 0.073115
O O5 0.250000 0.805742 0.375000
O O6 0.390047 0.773957 0.377426
#
# Coordination Sequence:
#
# PCOD8312115 Si02
#       4
#    16  16   4   8
#     4  12  28  48  80 113 157 205 275 332 409 496
#     4  12  28  50  76 116 158 207 267 331 410 497
#     4  12  28  50  80 118 148 218 268 346 408 486
#     4  12  28  50  82 112 160 214 266 344 410 500
#
# _framework density 25.490062999999999
#
# number of rings (size 3 to 8) (size 9 to 14) (size 15 to 20)
#    0.000    0.000    7.273    0.000    5.091    8.727 
#    0.000    0.000    0.000    0.000    0.000    0.000 
#    0.000    0.000    0.000    0.000    0.000    0.000 
#
# Total GULP energy -272707.928910 kJ/mol
# GULP energy per Si atom -12395.814950 kJ/mol
# Density = 2.543205 g / cm^3
# Si number density = 25.490063 Si / 1000 Ang^3
#
#
#
# Elastic Constant Matrix: (Units=GPa)
#
#
# Indices 1 2 3 4 5 6 
#
# 1 144.0327 41.7505 33.6347 0.0000 0.0000 0.0000
# 2 41.7505 144.0327 33.6347 0.0000 0.0000 0.0000
# 3 33.6347 33.6347 89.9248 0.0000 0.0000 0.0000
# 4 0.0000 0.0000 0.0000 21.6079 0.0000 0.0000
# 5 0.0000 0.0000 0.0000 0.0000 21.6079 0.0000
# 6 0.0000 0.0000 0.0000 0.0000 0.0000 65.7564
#
#
#
# Elastic Compliance Matrix: (Units=1/GPa)
#
#
# Indices 1 2 3 4 5 6 
#
# 1 0.008001 -0.001776 -0.002329 0.000000 0.000000 0.000000
# 2 -0.001776 0.008001 -0.002329 0.000000 0.000000 0.000000
# 3 -0.002329 -0.002329 0.012862 0.000000 0.000000 0.000000
# 4 0.000000 0.000000 0.000000 0.046279 0.000000 0.000000
# 5 0.000000 0.000000 0.000000 0.000000 0.046279 0.000000
# 6 0.000000 0.000000 0.000000 0.000000 0.000000 0.015208
#
#
# Mechanical properties :
#
#
# Convention : Reuss Voigt Hill
#
# Bulk Modulus (GPa) = 62.50238 66.22553 64.36396
# Shear Modulus (GPa) = 32.29349 39.72581 36.00965
#
# Velocity S-wave (km/s) = 3.56322 3.95204 3.76266
# Velocity P-wave (km/s) = 6.44222 6.84560 6.64697
#
# Compressibility (1/GPa) = 0.01599939
#
# Stress axis : x y z
#
# Youngs Moduli (GPa) = 124.97931 124.97931 77.74615
#
# Poissons Ratio (x) = 0.22191 0.18104
# Poissons Ratio (y) = 0.22191 0.18104
# Poissons Ratio (z) = 0.29103 0.29103
#
# Static dielectric constant tensor:
#      x y z
#    x 5.032650 0.000000 0.000000 
#    y 0.000000 5.032650 0.000000 
#    z 0.000000 0.000000 4.074440 
# 
# 
# High freq. dielectric constant tensor:
#      x y z
#    x 2.043080 0.000000 0.000000 
#    y 0.000000 2.043080 0.000000 
#    z 0.000000 0.000000 1.984390 
# 
# From -- ./inp_files/598.got.cif
#   From: 2010.03.12/outbox.cif.g09.slc.cpg/sg122_1_cif.got.tgz:598.got - 2010.04.06 16:17:16.
