data_PCOD8312273
_publ_section_title
;
Structure prediction by ZEFSAII (Michael W. Deem and Ramdas Pophale) SiO2 
 PCOD8312273
Probable space group: P 4/M M M
;
_chemical_formula_sum "Si O2"
_cell_formula_units_Z 120
_cell_length_a 26.602092
_cell_length_b 26.602092
_cell_length_c 10.165909
_cell_angle_alpha 90.000000
_cell_angle_beta 90.000000
_cell_angle_gamma 90.000000
_cell_volume 7194.122025
_symmetry_space_group_name_H-M "P 4/M M M"
_symmetry_group_IT_number 123
_symmetry_cell_setting 'tetragonal'
loop_
_space_group_symop_operation_xyz
x,y,z
-y,x,z
-x,-y,z
y,-x,z
x,-y,-z
-x,y,-z
y,x,-z
-y,-x,-z
-x,-y,-z
y,-x,-z
x,y,-z
-y,x,-z
-x,y,z
x,-y,z
-y,-x,z
y,x,z
loop_
_atom_site_type_symbol
_atom_site_label
_atom_site_fract_x
_atom_site_fract_y
_atom_site_fract_z
Si Si1 0.189372 0.696061 0.643603
Si Si2 0.904714 0.243189 0.347748
Si Si3 0.782360 0.555504 0.153766
Si Si4 0.559179 0.056584 0.500000
Si Si5 0.656961 0.734706 0.151005
Si Si6 0.605216 0.124974 0.718363
Si Si7 0.943643 0.321673 0.854095
Si Si8 0.864650 0.943600 0.655968
O O1 0.215721 0.701481 0.500000
O O2 0.154603 0.744827 0.671187
O O3 0.229987 0.691641 0.758849
O O4 0.154082 0.647207 0.635038
O O5 0.920675 0.252181 0.500000
O O6 0.937499 0.279019 0.255596
O O7 0.915495 0.186477 0.302778
O O8 0.762673 0.500000 0.197158
O O9 0.740403 0.598075 0.191074
O O10 0.835069 0.565810 0.224312
O O11 0.792840 0.556595 0.000000
O O12 0.500000 0.054327 0.500000
O O13 0.576643 0.085355 0.629189
O O14 0.581682 0.000000 0.500000
O O15 0.677225 0.677225 0.168822
O O16 0.664278 0.752163 0.000000
O O17 0.632248 0.094827 0.835544
O O18 0.000000 0.342945 0.842564
O O19 0.933844 0.299187 0.000000
O O20 0.868098 0.946254 0.500000
O O21 0.911503 0.911503 0.712529
O O22 0.866428 0.000000 0.715375
#
# Coordination Sequence:
#
# PCOD8312273 Si02
#       8
#    16  16  16   8  16  16  16  16
#     4   9  17  29  46  68  90 118 157 187 223 277
#     4   9  18  31  48  69  93 119 151 187 230 280
#     4   9  17  30  50  70  88 119 162 199 233 278
#     4  11  22  32  44  64  89 122 164 208 247 284
#     4   9  18  31  47  69  99 128 153 188 233 275
#     4  10  18  32  46  63  91 121 156 200 241 275
#     4  10  20  31  46  68  93 122 154 191 236 283
#     4   9  17  29  45  66  91 118 149 186 230 281
#
# _framework density 16.680284
#
# number of rings (size 3 to 8) (size 9 to 14) (size 15 to 20)
#    0.000    2.600    0.667    1.600    0.933    4.933 
#    0.000    2.000    0.000    0.400    0.000    5.600 
#    0.000    0.267    0.000    6.533    0.000    2.667 
#
# Total GULP energy -1487169.488301 kJ/mol
# GULP energy per Si atom -12393.079069 kJ/mol
# Density = 1.664232 g / cm^3
# Si number density = 16.680284 Si / 1000 Ang^3
#
#
#
# Elastic Constant Matrix: (Units=GPa)
#
#
# Indices 1 2 3 4 5 6 
#
# 1 101.1865 67.8927 31.4992 0.0000 0.0000 0.0000
# 2 67.8927 101.1865 31.4992 0.0000 0.0000 0.0000
# 3 31.4992 31.4992 64.6932 0.0000 0.0000 0.0000
# 4 0.0000 0.0000 0.0000 16.4790 0.0000 0.0000
# 5 0.0000 0.0000 0.0000 0.0000 16.4790 0.0000
# 6 0.0000 0.0000 0.0000 0.0000 0.0000 26.0984
#
#
#
# Elastic Compliance Matrix: (Units=1/GPa)
#
#
# Indices 1 2 3 4 5 6 
#
# 1 0.018630 -0.011405 -0.003518 0.000000 0.000000 0.000000
# 2 -0.011405 0.018630 -0.003518 0.000000 0.000000 0.000000
# 3 -0.003518 -0.003518 0.018883 0.000000 0.000000 0.000000
# 4 0.000000 0.000000 0.000000 0.060683 0.000000 0.000000
# 5 0.000000 0.000000 0.000000 0.000000 0.060683 0.000000
# 6 0.000000 0.000000 0.000000 0.000000 0.000000 0.038317
#
#
# Mechanical properties :
#
#
# Convention : Reuss Voigt Hill
#
# Bulk Modulus (GPa) = 51.91589 58.76093 55.33841
# Shear Modulus (GPa) = 19.29535 20.88964 20.09250
#
# Velocity S-wave (km/s) = 3.40483 3.54270 3.47445
# Velocity P-wave (km/s) = 6.83000 7.21378 7.02451
#
# Compressibility (1/GPa) = 0.01926193
#
# Stress axis : x y z
#
# Youngs Moduli (GPa) = 53.67574 53.67574 52.95667
#
# Poissons Ratio (x) = 0.61218 0.18630
# Poissons Ratio (y) = 0.61218 0.18630
# Poissons Ratio (z) = 0.18883 0.18883
#
# Static dielectric constant tensor:
#      x y z
#    x 3.193910 0.000000 0.000000 
#    y 0.000000 3.193910 0.000000 
#    z 0.000000 0.000000 3.036520 
# 
# 
# High freq. dielectric constant tensor:
#      x y z
#    x 1.629210 0.000000 0.000000 
#    y 0.000000 1.629210 0.000000 
#    z 0.000000 0.000000 1.630870 
# 
# From -- ./inp_files/2071.got.cif
#   From: 2010.03.12/outbox.cif.g09.slc.cpg/sg123_2_cif.got.tgz:2071.got - 2010.04.06 16:26:55.
