data_PCOD8312455
_publ_section_title
;
Structure prediction by ZEFSAII (Michael W. Deem and Ramdas Pophale) SiO2 
 PCOD8312455
Probable space group: P 4/M M M
;
_chemical_formula_sum "Si O2"
_cell_formula_units_Z 88
_cell_length_a 13.593189
_cell_length_b 13.593189
_cell_length_c 28.246209
_cell_angle_alpha 90.000000
_cell_angle_beta 90.000000
_cell_angle_gamma 90.000000
_cell_volume 5219.187257
_symmetry_space_group_name_H-M "P 4/M M M"
_symmetry_group_IT_number 123
_symmetry_cell_setting 'tetragonal'
loop_
_space_group_symop_operation_xyz
x,y,z
-y,x,z
-x,-y,z
y,-x,z
x,-y,-z
-x,y,-z
y,x,-z
-y,-x,-z
-x,-y,-z
y,-x,-z
x,y,-z
-y,x,-z
-x,y,z
x,-y,z
-y,-x,z
y,x,z
loop_
_atom_site_type_symbol
_atom_site_label
_atom_site_fract_x
_atom_site_fract_y
_atom_site_fract_z
Si Si1 0.774515 0.615248 0.130096
Si Si2 0.616540 0.109849 0.222508
Si Si3 0.112849 0.272122 0.945575
Si Si4 0.773619 0.616189 0.500000
Si Si5 0.383449 0.890252 0.592416
Si Si6 0.383810 0.773834 0.315133
O O1 0.751722 0.500000 0.131487
O O2 0.670638 0.670638 0.125656
O O3 0.829402 0.653133 0.177179
O O4 0.844050 0.638934 0.085481
O O5 0.500000 0.102414 0.221757
O O6 0.651497 0.163644 0.270043
O O7 0.662070 0.000000 0.221180
O O8 0.171599 0.171599 0.934886
O O9 0.000000 0.252588 0.932062
O O10 0.124127 0.304299 0.000000
O O11 0.754526 0.500000 0.500000
O O12 0.667367 0.667367 0.500000
O O13 0.834029 0.652129 0.545653
O O14 0.500000 0.897721 0.592553
O O15 0.347696 0.832660 0.638760
O O16 0.337954 0.000000 0.592684
O O17 0.500000 0.754347 0.315101
O O18 0.332233 0.667768 0.314171
#
# Coordination Sequence:
#
# PCOD8312455 Si02
#       6
#    16  16  16   8  16  16
#     4  10  20  33  49  70  97 128 162 199 238 284
#     4   9  17  30  48  68  90 118 153 194 237 275
#     4   9  18  32  50  73  99 126 158 197 242 291
#     4  10  19  30  45  67  96 126 153 181 216 267
#     4   9  17  30  47  65  87 117 153 195 237 267
#     4  10  19  30  45  67  96 127 157 188 224 273
#
# _framework density 16.860862999999998
#
# number of rings (size 3 to 8) (size 9 to 14) (size 15 to 20)
#    0.000    2.545    0.000    2.455    0.000    5.364 
#    0.000    1.818    0.000    6.545    0.000    2.545 
#    0.000   39.273    0.000    0.000    0.000    0.000 
#
# Total GULP energy -1091237.715284 kJ/mol
# GULP energy per Si atom -12400.428583 kJ/mol
# Density = 1.682249 g / cm^3
# Si number density = 16.860863 Si / 1000 Ang^3
#
#
#
# Elastic Constant Matrix: (Units=GPa)
#
#
# Indices 1 2 3 4 5 6 
#
# 1 87.5026 45.2225 49.0951 0.0000 0.0000 0.0000
# 2 45.2225 87.5026 49.0951 0.0000 0.0000 0.0000
# 3 49.0951 49.0951 131.3372 0.0000 0.0000 0.0000
# 4 0.0000 0.0000 0.0000 20.6520 0.0000 0.0000
# 5 0.0000 0.0000 0.0000 0.0000 20.6520 0.0000
# 6 0.0000 0.0000 0.0000 0.0000 0.0000 10.3103
#
#
#
# Elastic Compliance Matrix: (Units=1/GPa)
#
#
# Indices 1 2 3 4 5 6 
#
# 1 0.017033 -0.006619 -0.003893 0.000000 0.000000 0.000000
# 2 -0.006619 0.017033 -0.003893 0.000000 0.000000 0.000000
# 3 -0.003893 -0.003893 0.010524 0.000000 0.000000 0.000000
# 4 0.000000 0.000000 0.000000 0.048421 0.000000 0.000000
# 5 0.000000 0.000000 0.000000 0.000000 0.048421 0.000000
# 6 0.000000 0.000000 0.000000 0.000000 0.000000 0.096991
#
#
# Mechanical properties :
#
#
# Convention : Reuss Voigt Hill
#
# Bulk Modulus (GPa) = 63.36618 65.90751 64.63685
# Shear Modulus (GPa) = 18.34901 21.18483 19.76692
#
# Velocity S-wave (km/s) = 3.30246 3.54849 3.42768
# Velocity P-wave (km/s) = 7.22531 7.48084 7.35418
#
# Compressibility (1/GPa) = 0.01578129
#
# Stress axis : x y z
#
# Youngs Moduli (GPa) = 58.70917 58.70917 95.01657
#
# Poissons Ratio (x) = 0.38858 0.36990
# Poissons Ratio (y) = 0.38858 0.36990
# Poissons Ratio (z) = 0.22856 0.22856
#
# Static dielectric constant tensor:
#      x y z
#    x 2.995240 0.000000 0.000000 
#    y 0.000000 2.995240 0.000000 
#    z 0.000000 0.000000 3.439790 
# 
# 
# High freq. dielectric constant tensor:
#      x y z
#    x 1.630650 0.000000 0.000000 
#    y 0.000000 1.630650 0.000000 
#    z 0.000000 0.000000 1.670520 
# 
# From -- ./inp_files/7220.got.cif
#   From: 2010.03.12/outbox.cif.g09.slc.cpg/sg123_4_cif.got.tgz:7220.got - 2010.04.06 16:26:55.
