data_PCOD8312579
_publ_section_title
;
Structure prediction by ZEFSAII (Michael W. Deem and Ramdas Pophale) SiO2 
 PCOD8312579
Probable space group: P 4/M M M
;
_chemical_formula_sum "Si O2"
_cell_formula_units_Z 120
_cell_length_a 18.835965
_cell_length_b 18.835965
_cell_length_c 20.538721
_cell_angle_alpha 90.000000
_cell_angle_beta 90.000000
_cell_angle_gamma 90.000000
_cell_volume 7287.006300
_symmetry_space_group_name_H-M "P 4/M M M"
_symmetry_group_IT_number 123
_symmetry_cell_setting 'tetragonal'
loop_
_space_group_symop_operation_xyz
x,y,z
-y,x,z
-x,-y,z
y,-x,z
x,-y,-z
-x,y,-z
y,x,-z
-y,-x,-z
-x,-y,-z
y,-x,-z
x,y,-z
-y,x,-z
-x,y,z
x,-y,z
-y,-x,z
y,x,z
loop_
_atom_site_type_symbol
_atom_site_label
_atom_site_fract_x
_atom_site_fract_y
_atom_site_fract_z
Si Si1 0.304853 0.417163 0.000000
Si Si2 0.580369 0.198349 0.107640
Si Si3 0.578277 0.784551 0.745932
Si Si4 0.419418 0.303962 0.626335
Si Si5 0.160469 0.722653 0.295188
Si Si6 0.917829 0.307688 0.075113
Si Si7 0.081976 0.802514 0.813202
Si Si8 0.685373 0.802885 0.570560
O O1 0.260267 0.390953 0.938172
O O2 0.319978 0.500000 0.000000
O O3 0.380836 0.380836 0.000000
O O4 0.500000 0.177224 0.089252
O O5 0.585790 0.233213 0.178469
O O6 0.625049 0.127041 0.098082
O O7 0.500000 0.819577 0.732535
O O8 0.584445 0.712297 0.703792
O O9 0.641979 0.837795 0.729615
O O10 0.500000 0.317320 0.602814
O O11 0.374098 0.374098 0.610208
O O12 0.389482 0.233154 0.590814
O O13 0.235842 0.764158 0.284971
O O14 0.099495 0.762039 0.254629
O O15 0.144153 0.715888 0.373129
O O16 0.897967 0.242945 0.122968
O O17 0.000000 0.328444 0.083628
O O18 0.901369 0.286437 0.000000
O O19 0.124586 0.875415 0.817320
O O20 0.000000 0.822655 0.812008
O O21 0.677441 0.842108 0.500000
O O22 0.738893 0.738893 0.562415
#
# Coordination Sequence:
#
# PCOD8312579 Si02
#       8
#     8  16  16  16  16  16  16  16
#     4  10  22  35  47  65  87 117 160 208 254 298
#     4  10  19  32  48  70  96 122 159 202 247 301
#     4   9  16  27  44  65  91 119 151 197 247 296
#     4   9  17  27  39  58  86 122 164 208 253 298
#     4   9  16  28  48  71  94 124 163 202 241 283
#     4  10  20  34  51  75 106 135 162 194 235 286
#     4  10  21  36  54  76 102 131 163 198 234 277
#     4   8  14  25  42  65  91 117 149 193 242 288
#
# _framework density 16.467666999999999
#
# number of rings (size 3 to 8) (size 9 to 14) (size 15 to 20)
#    0.000    2.667    2.000    1.200    0.000    2.733 
#    0.000    0.667    0.000    0.800    0.000    7.467 
#    0.000    0.000    0.000   11.867    0.000    0.800 
#
# Total GULP energy -1486853.820136 kJ/mol
# GULP energy per Si atom -12390.448501 kJ/mol
# Density = 1.643019 g / cm^3
# Si number density = 16.467667 Si / 1000 Ang^3
#
#
#
# Elastic Constant Matrix: (Units=GPa)
#
#
# Indices 1 2 3 4 5 6 
#
# 1 68.1507 38.5082 32.0932 0.0000 0.0000 0.0000
# 2 38.5082 68.1507 32.0932 0.0000 0.0000 0.0000
# 3 32.0932 32.0932 124.8321 0.0000 0.0000 0.0000
# 4 0.0000 0.0000 0.0000 16.3345 0.0000 0.0000
# 5 0.0000 0.0000 0.0000 0.0000 16.3345 0.0000
# 6 0.0000 0.0000 0.0000 0.0000 0.0000 20.1569
#
#
#
# Elastic Compliance Matrix: (Units=1/GPa)
#
#
# Indices 1 2 3 4 5 6 
#
# 1 0.022414 -0.011322 -0.002852 0.000000 0.000000 0.000000
# 2 -0.011322 0.022414 -0.002852 0.000000 0.000000 0.000000
# 3 -0.002852 -0.002852 0.009477 0.000000 0.000000 0.000000
# 4 0.000000 0.000000 0.000000 0.061220 0.000000 0.000000
# 5 0.000000 0.000000 0.000000 0.000000 0.061220 0.000000
# 6 0.000000 0.000000 0.000000 0.000000 0.000000 0.049611
#
#
# Mechanical properties :
#
#
# Convention : Reuss Voigt Hill
#
# Bulk Modulus (GPa) = 49.37267 51.83588 50.60427
# Shear Modulus (GPa) = 18.71563 21.12777 19.92170
#
# Velocity S-wave (km/s) = 3.37487 3.58576 3.48191
# Velocity P-wave (km/s) = 6.72555 6.97777 6.85282
#
# Compressibility (1/GPa) = 0.02025412
#
# Stress axis : x y z
#
# Youngs Moduli (GPa) = 44.61587 44.61587 105.51865
#
# Poissons Ratio (x) = 0.50513 0.30090
# Poissons Ratio (y) = 0.50513 0.30090
# Poissons Ratio (z) = 0.12723 0.12723
#
# Static dielectric constant tensor:
#      x y z
#    x 2.887140 0.000000 0.000000 
#    y 0.000000 2.887140 0.000000 
#    z 0.000000 0.000000 3.612950 
# 
# 
# High freq. dielectric constant tensor:
#      x y z
#    x 1.608500 0.000000 0.000000 
#    y 0.000000 1.608500 0.000000 
#    z 0.000000 0.000000 1.650100 
# 
# From -- ./inp_files/6785.got.cif
#   From: 2010.03.12/outbox.cif.g09.slc.cpg/sg123_4_cif.got.tgz:6785.got - 2010.04.06 16:26:55.
