data_PCOD8312644
_publ_section_title
;
Structure prediction by ZEFSAII (Michael W. Deem and Ramdas Pophale) SiO2 
 PCOD8312644
Probable space group: P 4/M M M
;
_chemical_formula_sum "Si O2"
_cell_formula_units_Z 72
_cell_length_a 20.975820
_cell_length_b 20.975820
_cell_length_c 7.690265
_cell_angle_alpha 90.000000
_cell_angle_beta 90.000000
_cell_angle_gamma 90.000000
_cell_volume 3383.601436
_symmetry_space_group_name_H-M "P 4/M M M"
_symmetry_group_IT_number 123
_symmetry_cell_setting 'tetragonal'
loop_
_space_group_symop_operation_xyz
x,y,z
-y,x,z
-x,-y,z
y,-x,z
x,-y,-z
-x,y,-z
y,x,-z
-y,-x,-z
-x,-y,-z
y,-x,-z
x,y,-z
-y,x,-z
-x,y,z
x,-y,z
-y,-x,z
y,x,z
loop_
_atom_site_type_symbol
_atom_site_label
_atom_site_fract_x
_atom_site_fract_y
_atom_site_fract_z
Si Si1 0.500000 0.686256 0.701381
Si Si2 0.730555 0.730555 0.800631
Si Si3 0.930439 0.602291 0.204214
Si Si4 0.370033 0.629968 0.697752
Si Si5 0.735974 0.876210 0.202393
Si Si6 0.924720 0.174596 0.500000
Si Si7 0.500000 0.167312 0.793427
O O1 0.500000 0.669975 0.500000
O O2 0.435765 0.655634 0.787491
O O3 0.500000 0.762270 0.718422
O O4 0.684204 0.684204 0.695991
O O5 0.803821 0.716151 0.754340
O O6 0.715969 0.715969 0.000000
O O7 0.920036 0.676010 0.247324
O O8 0.872449 0.560553 0.279923
O O9 0.000000 0.582761 0.281261
O O10 0.931379 0.590464 0.000000
O O11 0.385869 0.614132 0.500000
O O12 0.792354 0.899438 0.324854
O O13 0.757255 0.881972 0.000000
O O14 0.896823 0.103178 0.500000
O O15 0.000000 0.171029 0.500000
O O16 0.500000 0.173349 0.000000
#
# Coordination Sequence:
#
# PCOD8312644 Si02
#       7
#     8   8  16   8  16   8   8
#     4  10  22  40  55  81 110 151 200 248 311 358
#     4  10  20  36  61  93 121 153 198 248 308 364
#     4   9  17  31  54  82 114 155 196 236 288 355
#     4  10  22  37  60  84 118 158 201 255 305 364
#     4  10  21  39  62  91 125 160 205 257 305 360
#     4  12  26  43  66  93 121 159 203 249 313 373
#     4  10  19  34  55  81 115 151 192 240 295 361
#
# _framework density 21.279101000000001
#
# number of rings (size 3 to 8) (size 9 to 14) (size 15 to 20)
#    0.000    2.000    1.111    2.333    1.556    5.667 
#    2.000    1.111    0.000    0.667    0.000    3.111 
#    0.000    0.000    0.000    0.000    0.000    0.000 
#
# Total GULP energy -892430.825096 kJ/mol
# GULP energy per Si atom -12394.872571 kJ/mol
# Density = 2.123067 g / cm^3
# Si number density = 21.279101 Si / 1000 Ang^3
#
#
#
# Elastic Constant Matrix: (Units=GPa)
#
#
# Indices 1 2 3 4 5 6 
#
# 1 149.5437 95.2390 26.4929 0.0000 0.0000 0.0000
# 2 95.2390 149.5493 26.4944 0.0000 0.0000 0.0000
# 3 26.4929 26.4944 55.9952 0.0000 0.0000 0.0000
# 4 0.0000 0.0000 0.0000 16.4924 0.0000 0.0000
# 5 0.0000 0.0000 0.0000 0.0000 16.4922 0.0000
# 6 0.0000 0.0000 0.0000 0.0000 0.0000 32.6406
#
#
#
# Elastic Compliance Matrix: (Units=1/GPa)
#
#
# Indices 1 2 3 4 5 6 
#
# 1 0.011483 -0.006931 -0.002153 0.000000 0.000000 0.000000
# 2 -0.006931 0.011482 -0.002154 0.000000 0.000000 0.000000
# 3 -0.002153 -0.002154 0.019896 0.000000 0.000000 0.000000
# 4 0.000000 0.000000 0.000000 0.060634 0.000000 0.000000
# 5 0.000000 0.000000 0.000000 0.000000 0.060635 0.000000
# 6 0.000000 0.000000 0.000000 0.000000 0.000000 0.030637
#
#
# Mechanical properties :
#
#
# Convention : Reuss Voigt Hill
#
# Bulk Modulus (GPa) = 49.05473 72.39343 60.72408
# Shear Modulus (GPa) = 22.31762 26.91582 24.61672
#
# Velocity S-wave (km/s) = 3.24204 3.56039 3.40494
# Velocity P-wave (km/s) = 6.09241 7.14119 6.63755
#
# Compressibility (1/GPa) = 0.02038539
#
# Stress axis : x y z
#
# Youngs Moduli (GPa) = 87.08763 87.09031 50.26032
#
# Poissons Ratio (x) = 0.60364 0.10822
# Poissons Ratio (y) = 0.60362 0.10824
# Poissons Ratio (z) = 0.18752 0.18756
#
# Static dielectric constant tensor:
#      x y z
#    x 4.029990 0.000000 0.000000 
#    y 0.000000 4.029980 0.000000 
#    z 0.000000 0.000000 3.571380 
# 
# 
# High freq. dielectric constant tensor:
#      x y z
#    x 1.838610 0.000000 0.000000 
#    y 0.000000 1.838600 0.000000 
#    z 0.000000 0.000000 1.809300 
# 
# From -- ./inp_files/1259.got.cif
#   From: 2010.03.12/outbox.cif.g09.slc.cpg/sg123_1_cif.got.tgz:1259.got - 2010.04.06 16:26:55.
