data_PCOD8312844
_publ_section_title
;
Structure prediction by ZEFSAII (Michael W. Deem and Ramdas Pophale) SiO2 
 PCOD8312844
Probable space group: P 4/M M M
;
_chemical_formula_sum "Si O2"
_cell_formula_units_Z 72
_cell_length_a 21.087758
_cell_length_b 21.087758
_cell_length_c 8.846023
_cell_angle_alpha 90.000000
_cell_angle_beta 90.000000
_cell_angle_gamma 90.000000
_cell_volume 3933.769260
_symmetry_space_group_name_H-M "P 4/M M M"
_symmetry_group_IT_number 123
_symmetry_cell_setting 'tetragonal'
loop_
_space_group_symop_operation_xyz
x,y,z
-y,x,z
-x,-y,z
y,-x,z
x,-y,-z
-x,y,-z
y,x,-z
-y,-x,-z
-x,-y,-z
y,-x,-z
x,y,-z
-y,x,-z
-x,y,z
x,-y,z
-y,-x,z
y,x,z
loop_
_atom_site_type_symbol
_atom_site_label
_atom_site_fract_x
_atom_site_fract_y
_atom_site_fract_z
Si Si1 0.326202 0.097530 0.321651
Si Si2 0.000000 0.764134 0.822717
Si Si3 0.103654 0.000000 0.672737
Si Si4 0.232127 0.663333 0.825298
Si Si5 0.570167 0.000000 0.321604
Si Si6 0.674599 0.427644 0.324900
O O1 0.317103 0.092646 0.500000
O O2 0.266435 0.063450 0.245744
O O3 0.328350 0.169796 0.272921
O O4 0.391141 0.062503 0.270161
O O5 0.000000 0.838267 0.787333
O O6 0.000000 0.753085 0.000000
O O7 0.062333 0.937668 0.704440
O O8 0.128061 0.000000 0.500000
O O9 0.276100 0.723900 0.793936
O O10 0.267979 0.599819 0.773717
O O11 0.213873 0.657003 0.000000
O O12 0.500000 0.000000 0.246123
O O13 0.562638 0.000000 0.500000
O O14 0.693687 0.421361 0.500000
O O15 0.663097 0.500000 0.277287
O O16 0.609745 0.390256 0.290079
#
# Coordination Sequence:
#
# PCOD8312844 Si02
#       6
#    16   8   8  16   8  16
#     4  10  20  35  56  79 104 137 176 217 261 310
#     4  11  22  36  55  79 110 143 175 215 261 310
#     4   9  19  37  59  81 106 137 174 216 261 311
#     4  10  21  36  53  75 105 139 175 218 268 318
#     4   8  16  32  53  77 102 127 160 204 252 301
#     4   9  18  33  53  77 105 138 177 220 266 317
#
# _framework density 18.303056000000002
#
# number of rings (size 3 to 8) (size 9 to 14) (size 15 to 20)
#    0.000    2.444    0.000    3.333    0.000    4.222 
#    0.000    3.889    0.000   11.333    0.000    3.111 
#    0.000    0.000    0.000    0.000    0.000    0.000 
#
# Total GULP energy -892940.655529 kJ/mol
# GULP energy per Si atom -12401.953549 kJ/mol
# Density = 1.826140 g / cm^3
# Si number density = 18.303056 Si / 1000 Ang^3
#
#
#
# Elastic Constant Matrix: (Units=GPa)
#
#
# Indices 1 2 3 4 5 6 
#
# 1 130.1341 48.0613 46.7701 0.0000 0.0000 0.0000
# 2 48.0613 130.1341 46.7701 0.0000 0.0000 0.0000
# 3 46.7701 46.7701 87.7215 0.0000 0.0000 0.0000
# 4 0.0000 0.0000 0.0000 22.3952 0.0000 0.0000
# 5 0.0000 0.0000 0.0000 0.0000 22.3952 0.0000
# 6 0.0000 0.0000 0.0000 0.0000 0.0000 11.4575
#
#
#
# Elastic Compliance Matrix: (Units=1/GPa)
#
#
# Indices 1 2 3 4 5 6 
#
# 1 0.009989 -0.002196 -0.004155 0.000000 0.000000 0.000000
# 2 -0.002196 0.009989 -0.004155 0.000000 0.000000 0.000000
# 3 -0.004155 -0.004155 0.015830 0.000000 0.000000 0.000000
# 4 0.000000 0.000000 0.000000 0.044652 0.000000 0.000000
# 5 0.000000 0.000000 0.000000 0.000000 0.044652 0.000000
# 6 0.000000 0.000000 0.000000 0.000000 0.000000 0.087279
#
#
# Mechanical properties :
#
#
# Convention : Reuss Voigt Hill
#
# Bulk Modulus (GPa) = 67.58416 70.13252 68.85834
# Shear Modulus (GPa) = 20.97895 25.00880 22.99388
#
# Velocity S-wave (km/s) = 3.38923 3.70046 3.54826
# Velocity P-wave (km/s) = 7.23333 7.52718 7.38172
#
# Compressibility (1/GPa) = 0.01479637
#
# Stress axis : x y z
#
# Youngs Moduli (GPa) = 100.11450 100.11450 63.17048
#
# Poissons Ratio (x) = 0.21982 0.26247
# Poissons Ratio (y) = 0.21982 0.26247
# Poissons Ratio (z) = 0.41596 0.41596
#
# Static dielectric constant tensor:
#      x y z
#    x 3.435970 0.000000 0.000000 
#    y 0.000000 3.435970 0.000000 
#    z 0.000000 0.000000 3.303030 
# 
# 
# High freq. dielectric constant tensor:
#      x y z
#    x 1.711700 0.000000 0.000000 
#    y 0.000000 1.711700 0.000000 
#    z 0.000000 0.000000 1.704170 
# 
# From -- ./inp_files/1197.got.cif
#   From: 2010.03.12/outbox.cif.g09.slc.cpg/sg123_1_cif.got.tgz:1197.got - 2010.04.06 16:26:55.
