data_PCOD8312963
_publ_section_title
;
Structure prediction by ZEFSAII (Michael W. Deem and Ramdas Pophale) SiO2 
 PCOD8312963
Probable space group: P 4/M M M
;
_chemical_formula_sum "Si O2"
_cell_formula_units_Z 44
_cell_length_a 17.025461
_cell_length_b 17.025461
_cell_length_c 7.939944
_cell_angle_alpha 90.000000
_cell_angle_beta 90.000000
_cell_angle_gamma 90.000000
_cell_volume 2301.522366
_symmetry_space_group_name_H-M "P 4/M M M"
_symmetry_group_IT_number 123
_symmetry_cell_setting 'tetragonal'
loop_
_space_group_symop_operation_xyz
x,y,z
-y,x,z
-x,-y,z
y,-x,z
x,-y,-z
-x,y,-z
y,x,-z
-y,-x,-z
-x,-y,-z
y,-x,-z
x,y,-z
-y,x,-z
-x,y,z
x,-y,z
-y,-x,z
y,x,z
loop_
_atom_site_type_symbol
_atom_site_label
_atom_site_fract_x
_atom_site_fract_y
_atom_site_fract_z
Si Si1 0.412461 0.289039 0.299656
Si Si2 0.289417 0.837964 0.698343
Si Si3 0.241338 0.000000 0.812696
Si Si4 0.872131 0.000000 0.500000
O O1 0.415698 0.291735 0.500000
O O2 0.500000 0.288228 0.221793
O O3 0.365961 0.365961 0.233256
O O4 0.366004 0.210831 0.243638
O O5 0.290075 0.853931 0.500000
O O6 0.211015 0.788986 0.746969
O O7 0.293303 0.921320 0.792761
O O8 0.175399 0.000000 0.671622
O O9 0.204097 0.000000 0.000000
O O10 0.921591 0.078410 0.500000
#
# Coordination Sequence:
#
# PCOD8312963 Si02
#       4
#    16  16   8   4
#     4   8  14  25  45  75 108 143 182 222 269 326
#     4   9  17  32  52  72 102 144 184 223 270 323
#     4  12  23  35  56  81 105 141 187 228 271 325
#     4  11  24  40  56  78 111 142 172 224 283 330
#
# _framework density 19.117781000000001
#
# number of rings (size 3 to 8) (size 9 to 14) (size 15 to 20)
#    0.000    2.636    1.818    3.273    0.000    3.273 
#    0.000    3.636    0.000    6.545    0.000    0.000 
#    0.000    0.000    0.000    8.000    0.000    8.000 
#
# Total GULP energy -545356.666554 kJ/mol
# GULP energy per Si atom -12394.469694 kJ/mol
# Density = 1.907427 g / cm^3
# Si number density = 19.117781 Si / 1000 Ang^3
#
#
#
# Elastic Constant Matrix: (Units=GPa)
#
#
# Indices 1 2 3 4 5 6 
#
# 1 168.7196 82.0940 37.5422 0.0000 0.0000 0.0000
# 2 82.0940 168.7191 37.5422 0.0000 0.0000 0.0000
# 3 37.5422 37.5422 74.9247 0.0000 0.0000 0.0000
# 4 0.0000 0.0000 0.0000 -1.8767 0.0000 0.0000
# 5 0.0000 0.0000 0.0000 0.0000 -1.8737 0.0000
# 6 0.0000 0.0000 0.0000 0.0000 0.0000 23.3791
#
#
#
# Elastic Compliance Matrix: (Units=1/GPa)
#
#
# Indices 1 2 3 4 5 6 
#
# 1 0.008117 -0.003427 -0.002350 0.000000 0.000000 0.000000
# 2 -0.003427 0.008117 -0.002350 0.000000 0.000000 0.000000
# 3 -0.002350 -0.002350 0.015702 0.000000 0.000000 0.000000
# 4 0.000000 0.000000 0.000000 -0.532858 0.000000 0.000000
# 5 0.000000 0.000000 0.000000 0.000000 -0.533694 0.000000
# 6 0.000000 0.000000 0.000000 0.000000 0.000000 0.042773
#
#
# Mechanical properties :
#
#
# Convention : Reuss Voigt Hill
#
# Bulk Modulus (GPa) = 63.76715 80.74668 72.25692
# Shear Modulus (GPa) = -5.15273 20.93809 7.89268
#
# Velocity S-wave (km/s) = -1.64350 3.31299 2.03406
# Velocity P-wave (km/s) = 5.46130 7.54736 6.58743
#
# Compressibility (1/GPa) = 0.01568206
#
# Stress axis : x y z
#
# Youngs Moduli (GPa) = 123.19405 123.19358 63.68598
#
# Poissons Ratio (x) = 0.42214 0.14968
# Poissons Ratio (y) = 0.42214 0.14968
# Poissons Ratio (z) = 0.28954 0.28954
#
# Static dielectric constant tensor:
#      x y z
#    x 3.763380 0.000000 0.000000 
#    y 0.000000 3.763380 0.000000 
#    z 0.000000 0.000000 3.103700 
# 
# 
# High freq. dielectric constant tensor:
#      x y z
#    x 1.739360 0.000000 0.000000 
#    y 0.000000 1.739360 0.000000 
#    z 0.000000 0.000000 1.713990 
# 
# From -- ./inp_files/458.got.cif
#   From: 2010.03.12/outbox.cif.g09.slc.cpg/sg123_1_cif.got.tgz:458.got - 2010.04.06 16:26:55.
