data_PCOD8312759
_publ_section_title
;
Structure prediction by ZEFSAII (Michael W. Deem and Ramdas Pophale) SiO2 
 PCOD8312759
Probable space group: P 4/M M M
;
_chemical_formula_sum "Si O2"
_cell_formula_units_Z 112
_cell_length_a 13.619892
_cell_length_b 13.619892
_cell_length_c 35.220601
_cell_angle_alpha 90.000000
_cell_angle_beta 90.000000
_cell_angle_gamma 90.000000
_cell_volume 6533.472840
_symmetry_space_group_name_H-M "P 4/M M M"
_symmetry_group_IT_number 123
_symmetry_cell_setting 'tetragonal'
loop_
_space_group_symop_operation_xyz
x,y,z
-y,x,z
-x,-y,z
y,-x,z
x,-y,-z
-x,y,-z
y,x,-z
-y,-x,-z
-x,-y,-z
y,-x,-z
x,y,-z
-y,x,-z
-x,y,z
x,-y,z
-y,-x,z
y,x,z
loop_
_atom_site_type_symbol
_atom_site_label
_atom_site_fract_x
_atom_site_fract_y
_atom_site_fract_z
Si Si1 0.774759 0.615244 0.746984
Si Si2 0.270202 0.111346 0.599068
Si Si3 0.384776 0.774656 0.104278
Si Si4 0.388171 0.229257 0.456873
Si Si5 0.272231 0.113265 0.685906
Si Si6 0.616282 0.109912 0.821367
Si Si7 0.271446 0.112634 0.956267
O O1 0.752016 0.500000 0.747870
O O2 0.671028 0.671028 0.744376
O O3 0.842925 0.639712 0.710951
O O4 0.831925 0.652097 0.784320
O O5 0.173974 0.173974 0.589486
O O6 0.358679 0.141692 0.571372
O O7 0.305061 0.126467 0.642326
O O8 0.240862 0.000000 0.591045
O O9 0.500000 0.751995 0.105168
O O10 0.329216 0.670785 0.101879
O O11 0.347882 0.832240 0.141513
O O12 0.360197 0.842184 0.068071
O O13 0.370592 0.193360 0.500000
O O14 0.500000 0.258196 0.449654
O O15 0.326209 0.326209 0.447445
O O16 0.170977 0.170977 0.694262
O O17 0.254048 0.000000 0.696297
O O18 0.500000 0.102289 0.821372
O O19 0.661697 0.000000 0.821304
O O20 0.170543 0.170543 0.947784
O O21 0.253576 0.000000 0.944860
O O22 0.302815 0.122803 0.000000
#
# Coordination Sequence:
#
# PCOD8312759 Si02
#       7
#    16  16  16  16  16  16  16
#     4  10  20  33  49  70  97 129 165 202 238 279
#     4   9  18  32  49  70  96 124 155 192 233 279
#     4  10  20  33  49  70  97 129 166 205 242 283
#     4   9  18  32  49  69  93 121 154 193 235 278
#     4   9  18  32  50  72  96 123 156 194 237 284
#     4   9  17  30  49  71  93 119 153 193 237 282
#     4   9  18  32  50  73  99 126 158 197 242 293
#
# _framework density 17.142491
#
# number of rings (size 3 to 8) (size 9 to 14) (size 15 to 20)
#    0.000    2.714    0.000    1.286    0.000    4.000 
#    0.000    5.714    0.000    2.571    0.000    8.000 
#    0.000   10.286    0.000    0.000    0.000    0.000 
#
# Total GULP energy -1388917.741395 kJ/mol
# GULP energy per Si atom -12401.051262 kJ/mol
# Density = 1.710347 g / cm^3
# Si number density = 17.142491 Si / 1000 Ang^3
#
#
#
# Elastic Constant Matrix: (Units=GPa)
#
#
# Indices 1 2 3 4 5 6 
#
# 1 100.3645 43.5219 53.8556 0.0000 0.0000 0.0000
# 2 43.5219 100.3645 53.8556 0.0000 0.0000 0.0000
# 3 53.8556 53.8556 98.0448 0.0000 0.0000 0.0000
# 4 0.0000 0.0000 0.0000 27.4222 0.0000 0.0000
# 5 0.0000 0.0000 0.0000 0.0000 27.4222 0.0000
# 6 0.0000 0.0000 0.0000 0.0000 0.0000 12.3073
#
#
#
# Elastic Compliance Matrix: (Units=1/GPa)
#
#
# Indices 1 2 3 4 5 6 
#
# 1 0.014698 -0.002894 -0.006484 0.000000 0.000000 0.000000
# 2 -0.002894 0.014698 -0.006484 0.000000 0.000000 0.000000
# 3 -0.006484 -0.006484 0.017322 0.000000 0.000000 0.000000
# 4 0.000000 0.000000 0.000000 0.036467 0.000000 0.000000
# 5 0.000000 0.000000 0.000000 0.000000 0.036467 0.000000
# 6 0.000000 0.000000 0.000000 0.000000 0.000000 0.081253
#
#
# Mechanical properties :
#
#
# Convention : Reuss Voigt Hill
#
# Bulk Modulus (GPa) = 66.68987 66.80446 66.74717
# Shear Modulus (GPa) = 21.04149 23.26640 22.15394
#
# Velocity S-wave (km/s) = 3.50729 3.68806 3.59881
# Velocity P-wave (km/s) = 7.44239 7.56244 7.50265
#
# Compressibility (1/GPa) = 0.01499478
#
# Stress axis : x y z
#
# Youngs Moduli (GPa) = 68.03673 68.03673 57.72924
#
# Poissons Ratio (x) = 0.19693 0.37429
# Poissons Ratio (y) = 0.19693 0.37429
# Poissons Ratio (z) = 0.44112 0.44112
#
# Static dielectric constant tensor:
#      x y z
#    x 3.108890 0.000000 0.000000 
#    y 0.000000 3.108890 0.000000 
#    z 0.000000 0.000000 3.395890 
# 
# 
# High freq. dielectric constant tensor:
#      x y z
#    x 1.653340 0.000000 0.000000 
#    y 0.000000 1.653340 0.000000 
#    z 0.000000 0.000000 1.673370 
# 
# From -- ./inp_files/8198.got.cif
#   From: 2010.03.12/outbox.cif.g09.slc.cpg/sg123_5_cif.got.tgz:8198.got - 2010.04.06 16:26:55.
