data_PCOD8312206
_publ_section_title
;
Structure prediction by ZEFSAII (Michael W. Deem and Ramdas Pophale) SiO2 
 PCOD8312206
Probable space group: P 4/M M M
;
_chemical_formula_sum "Si O2"
_cell_formula_units_Z 128
_cell_length_a 17.638970
_cell_length_b 17.638970
_cell_length_c 23.129448
_cell_angle_alpha 90.000000
_cell_angle_beta 90.000000
_cell_angle_gamma 90.000000
_cell_volume 7196.340620
_symmetry_space_group_name_H-M "P 4/M M M"
_symmetry_group_IT_number 123
_symmetry_cell_setting 'tetragonal'
loop_
_space_group_symop_operation_xyz
x,y,z
-y,x,z
-x,-y,z
y,-x,z
x,-y,-z
-x,y,-z
y,x,-z
-y,-x,-z
-x,-y,-z
y,-x,-z
x,y,-z
-y,x,-z
-x,y,z
x,-y,z
-y,-x,z
y,x,z
loop_
_atom_site_type_symbol
_atom_site_label
_atom_site_fract_x
_atom_site_fract_y
_atom_site_fract_z
Si Si1 0.287520 0.413003 0.844313
Si Si2 0.916749 0.669977 0.673359
Si Si3 0.800517 0.326269 0.064404
Si Si4 0.295581 0.414601 0.600328
Si Si5 0.701667 0.825714 0.565243
Si Si6 0.634331 0.243816 0.281651
Si Si7 0.080328 0.802509 0.761356
Si Si8 0.911403 0.788485 0.891011
O O1 0.310490 0.500000 0.854584
O O2 0.362650 0.362650 0.853725
O O3 0.220946 0.391247 0.889524
O O4 0.254610 0.403470 0.780165
O O5 0.896885 0.697306 0.608419
O O6 0.845119 0.626344 0.701254
O O7 0.929518 0.739899 0.714137
O O8 0.000000 0.626900 0.671376
O O9 0.738728 0.261273 0.070407
O O10 0.881622 0.286579 0.076198
O O11 0.801388 0.361822 0.000000
O O12 0.299741 0.500000 0.577671
O O13 0.371999 0.371999 0.580445
O O14 0.223329 0.374735 0.571166
O O15 0.289381 0.412618 0.670139
O O16 0.708846 0.856546 0.500000
O O17 0.773178 0.773178 0.582196
O O18 0.721493 0.278508 0.281144
O O19 0.139149 0.860852 0.735603
O O20 0.104755 0.769798 0.823654
O O21 0.000000 0.844657 0.770519
O O22 0.864656 0.864656 0.908942
O O23 0.000000 0.800626 0.905950
#
# Coordination Sequence:
#
# PCOD8312206 Si02
#       8
#    16  16  16  16  16  16  16  16
#     4  10  20  34  55  80 103 129 160 196 241 293
#     4  10  18  28  47  71  92 118 157 206 246 272
#     4   9  18  32  49  69  95 131 172 206 239 289
#     4   9  17  29  47  71  96 122 151 183 224 278
#     4   9  18  32  48  65  89 124 161 195 237 291
#     4   9  17  31  50  71  98 131 162 190 230 290
#     4   9  16  25  39  62  91 120 150 186 233 287
#     4   9  17  29  47  72 101 133 170 214 261 305
#
# _framework density 17.786818
#
# number of rings (size 3 to 8) (size 9 to 14) (size 15 to 20)
#    0.000    2.750    0.000    3.000    0.000    3.500 
#    0.000    1.250    0.000   12.750    0.000    9.625 
#    0.000    0.000    0.000   19.500    0.000    0.125 
#
# Total GULP energy -1585841.648486 kJ/mol
# GULP energy per Si atom -12389.387879 kJ/mol
# Density = 1.774633 g / cm^3
# Si number density = 17.786818 Si / 1000 Ang^3
#
#
#
# Elastic Constant Matrix: (Units=GPa)
#
#
# Indices 1 2 3 4 5 6 
#
# 1 82.0423 17.5264 12.6828 0.0000 0.0000 0.0000
# 2 17.5264 82.0423 12.6828 0.0000 0.0000 0.0000
# 3 12.6828 12.6828 76.4045 0.0000 0.0000 0.0000
# 4 0.0000 0.0000 0.0000 11.6555 0.0000 0.0000
# 5 0.0000 0.0000 0.0000 0.0000 11.6555 0.0000
# 6 0.0000 0.0000 0.0000 0.0000 0.0000 11.9415
#
#
#
# Elastic Compliance Matrix: (Units=1/GPa)
#
#
# Indices 1 2 3 4 5 6 
#
# 1 0.012993 -0.002507 -0.001741 0.000000 0.000000 0.000000
# 2 -0.002507 0.012993 -0.001741 0.000000 0.000000 0.000000
# 3 -0.001741 -0.001741 0.013666 0.000000 0.000000 0.000000
# 4 0.000000 0.000000 0.000000 0.085796 0.000000 0.000000
# 5 0.000000 0.000000 0.000000 0.000000 0.085796 0.000000
# 6 0.000000 0.000000 0.000000 0.000000 0.000000 0.083741
#
#
# Mechanical properties :
#
#
# Convention : Reuss Voigt Hill
#
# Bulk Modulus (GPa) = 36.13151 36.25258 36.19205
# Shear Modulus (GPa) = 15.81334 20.22365 18.01850
#
# Velocity S-wave (km/s) = 2.98493 3.37560 3.18626
# Velocity P-wave (km/s) = 5.67780 5.96816 5.82479
#
# Compressibility (1/GPa) = 0.02767667
#
# Stress axis : x y z
#
# Youngs Moduli (GPa) = 76.96204 76.96204 73.17349
#
# Poissons Ratio (x) = 0.19292 0.12738
# Poissons Ratio (y) = 0.19292 0.12738
# Poissons Ratio (z) = 0.13397 0.13397
#
# Static dielectric constant tensor:
#      x y z
#    x 3.312140 0.000000 0.000000 
#    y 0.000000 3.312140 0.000000 
#    z 0.000000 0.000000 3.438160 
# 
# 
# High freq. dielectric constant tensor:
#      x y z
#    x 1.665290 0.000000 0.000000 
#    y 0.000000 1.665290 0.000000 
#    z 0.000000 0.000000 1.697670 
# 
# From -- ./inp_files/7692.got.cif
#   From: 2010.03.12/outbox.cif.g09.slc.cpg/sg123_4_cif.got.tgz:7692.got - 2010.04.06 16:26:55.
