data_PCOD8312788
_publ_section_title
;
Structure prediction by ZEFSAII (Michael W. Deem and Ramdas Pophale) SiO2 
 PCOD8312788
Probable space group: P 4/M M M
;
_chemical_formula_sum "Si O2"
_cell_formula_units_Z 88
_cell_length_a 19.134451
_cell_length_b 19.134451
_cell_length_c 13.060460
_cell_angle_alpha 90.000000
_cell_angle_beta 90.000000
_cell_angle_gamma 90.000000
_cell_volume 4781.789847
_symmetry_space_group_name_H-M "P 4/M M M"
_symmetry_group_IT_number 123
_symmetry_cell_setting 'tetragonal'
loop_
_space_group_symop_operation_xyz
x,y,z
-y,x,z
-x,-y,z
y,-x,z
x,-y,-z
-x,y,-z
y,x,-z
-y,-x,-z
-x,-y,-z
y,-x,-z
x,y,-z
-y,x,-z
-x,y,z
x,-y,z
-y,-x,z
y,x,z
loop_
_atom_site_type_symbol
_atom_site_label
_atom_site_fract_x
_atom_site_fract_y
_atom_site_fract_z
Si Si1 0.697076 0.582242 0.500000
Si Si2 0.789762 0.418275 0.695608
Si Si3 0.922132 0.750578 0.887355
Si Si4 0.921216 0.656193 0.382065
Si Si5 0.078738 0.188961 0.322506
Si Si6 0.328804 0.785383 0.114558
O O1 0.679158 0.500000 0.500000
O O2 0.624646 0.624646 0.500000
O O3 0.741466 0.603688 0.400010
O O4 0.788459 0.500000 0.712743
O O5 0.869200 0.394658 0.677359
O O6 0.760507 0.383916 0.800101
O O7 0.914596 0.809892 0.801041
O O8 0.867115 0.688391 0.868545
O O9 0.000000 0.717424 0.879831
O O10 0.909523 0.784294 0.000000
O O11 0.918403 0.635532 0.500000
O O12 0.897722 0.736451 0.367444
O O13 0.000000 0.646284 0.338781
O O14 0.129726 0.129726 0.367249
O O15 0.000000 0.170983 0.357639
O O16 0.257150 0.742851 0.129049
O O17 0.359590 0.772913 0.000000
#
# Coordination Sequence:
#
# PCOD8312788 Si02
#       6
#     8  16  16  16  16  16
#     4  10  22  39  59  85 113 141 172 210 262 320
#     4  11  22  36  55  83 114 141 175 221 273 317
#     4   9  17  29  47  72 101 131 169 218 263 308
#     4  10  21  37  54  75 105 142 183 220 264 326
#     4  10  20  33  50  73 101 135 178 225 271 319
#     4  10  20  34  54  78 106 146 188 219 259 318
#
# _framework density 18.403151000000001
#
# number of rings (size 3 to 8) (size 9 to 14) (size 15 to 20)
#    0.000    2.000    2.727    1.091    0.000    3.182 
#    0.000    0.909    0.000    0.000    0.000    8.909 
#    0.000    0.000    0.000   16.909    0.000    0.000 
#
# Total GULP energy -1090935.098474 kJ/mol
# GULP energy per Si atom -12396.989755 kJ/mol
# Density = 1.836126 g / cm^3
# Si number density = 18.403151 Si / 1000 Ang^3
#
#
#
# Elastic Constant Matrix: (Units=GPa)
#
#
# Indices 1 2 3 4 5 6 
#
# 1 78.5326 45.2827 36.3928 0.0000 0.0000 0.0000
# 2 45.2827 78.5326 36.3928 0.0000 0.0000 0.0000
# 3 36.3928 36.3928 99.2255 0.0000 0.0000 0.0000
# 4 0.0000 0.0000 0.0000 21.3641 0.0000 0.0000
# 5 0.0000 0.0000 0.0000 0.0000 21.3641 0.0000
# 6 0.0000 0.0000 0.0000 0.0000 0.0000 27.3869
#
#
#
# Elastic Compliance Matrix: (Units=1/GPa)
#
#
# Indices 1 2 3 4 5 6 
#
# 1 0.020186 -0.009889 -0.003776 0.000000 0.000000 0.000000
# 2 -0.009889 0.020186 -0.003776 0.000000 0.000000 0.000000
# 3 -0.003776 -0.003776 0.012848 0.000000 0.000000 0.000000
# 4 0.000000 0.000000 0.000000 0.046807 0.000000 0.000000
# 5 0.000000 0.000000 0.000000 0.000000 0.046807 0.000000
# 6 0.000000 0.000000 0.000000 0.000000 0.000000 0.036514
#
#
# Mechanical properties :
#
#
# Convention : Reuss Voigt Hill
#
# Bulk Modulus (GPa) = 54.53894 54.71415 54.62655
# Shear Modulus (GPa) = 22.28708 23.23785 22.76247
#
# Velocity S-wave (km/s) = 3.48379 3.55732 3.52074
# Velocity P-wave (km/s) = 6.77365 6.83140 6.80259
#
# Compressibility (1/GPa) = 0.01833552
#
# Stress axis : x y z
#
# Youngs Moduli (GPa) = 49.53941 49.53941 77.83171
#
# Poissons Ratio (x) = 0.48991 0.29393
# Poissons Ratio (y) = 0.48991 0.29393
# Poissons Ratio (z) = 0.18708 0.18708
#
# Static dielectric constant tensor:
#      x y z
#    x 3.181860 0.000000 0.000000 
#    y 0.000000 3.181860 0.000000 
#    z 0.000000 0.000000 3.687110 
# 
# 
# High freq. dielectric constant tensor:
#      x y z
#    x 1.691010 0.000000 0.000000 
#    y 0.000000 1.691010 0.000000 
#    z 0.000000 0.000000 1.732050 
# 
# From -- ./inp_files/4042.got.cif
#   From: 2010.03.12/outbox.cif.g09.slc.cpg/sg123_3_cif.got.tgz:4042.got - 2010.04.06 16:26:55.
