data_PCOD8312297
_publ_section_title
;
Structure prediction by ZEFSAII (Michael W. Deem and Ramdas Pophale) SiO2 
 PCOD8312297
Probable space group: P 4/M M M
;
_chemical_formula_sum "Si O2"
_cell_formula_units_Z 88
_cell_length_a 14.636996
_cell_length_b 14.636996
_cell_length_c 27.910384
_cell_angle_alpha 90.000000
_cell_angle_beta 90.000000
_cell_angle_gamma 90.000000
_cell_volume 5979.566773
_symmetry_space_group_name_H-M "P 4/M M M"
_symmetry_group_IT_number 123
_symmetry_cell_setting 'tetragonal'
loop_
_space_group_symop_operation_xyz
x,y,z
-y,x,z
-x,-y,z
y,-x,z
x,-y,-z
-x,y,-z
y,x,-z
-y,-x,-z
-x,-y,-z
y,-x,-z
x,y,-z
-y,x,-z
-x,y,z
x,-y,z
-y,-x,z
y,x,z
loop_
_atom_site_type_symbol
_atom_site_label
_atom_site_fract_x
_atom_site_fract_y
_atom_site_fract_z
Si Si1 0.891823 0.601940 0.918131
Si Si2 0.104966 0.747986 0.263283
Si Si3 0.252225 0.105014 0.628021
Si Si4 0.890613 0.260211 0.000000
Si Si5 0.398567 0.108428 0.553405
Si Si6 0.601186 0.891443 0.188953
O O1 0.854235 0.500000 0.931551
O O2 0.859509 0.629234 0.864560
O O3 0.000000 0.596930 0.920499
O O4 0.858360 0.680204 0.954306
O O5 0.157743 0.842258 0.255241
O O6 0.116022 0.711980 0.317610
O O7 0.147512 0.671817 0.227980
O O8 0.000000 0.768868 0.250934
O O9 0.158165 0.158165 0.619861
O O10 0.328889 0.147343 0.592912
O O11 0.231285 0.000000 0.615658
O O12 0.835911 0.164090 0.000000
O O13 0.000000 0.239831 0.000000
O O14 0.366954 0.138063 0.500000
O O15 0.500000 0.147406 0.563919
O O16 0.401530 0.000000 0.557153
O O17 0.500000 0.854107 0.201250
O O18 0.600552 0.000000 0.191748
#
# Coordination Sequence:
#
# PCOD8312297 Si02
#       6
#    16  16  16   8  16  16
#     4   8  14  26  43  59  74  95 127 168 208 238
#     4   9  17  27  38  54  78 108 139 166 190 221
#     4   9  17  27  38  54  77 106 138 167 192 220
#     4  10  19  28  39  57  82 112 141 165 190 223
#     4   8  14  25  40  56  73  94 122 158 200 242
#     4   8  14  25  41  59  76  95 123 163 209 245
#
# _framework density 14.716786000000001
#
# number of rings (size 3 to 8) (size 9 to 14) (size 15 to 20)
#    0.000    3.455    0.000    1.909    0.000    3.364 
#    0.000    5.455    0.000    0.000    0.000    7.636 
#    0.000    3.636    0.000   14.000    0.000    8.545 
#
# Total GULP energy -1090458.282094 kJ/mol
# GULP energy per Si atom -12391.571387 kJ/mol
# Density = 1.468329 g / cm^3
# Si number density = 14.716786 Si / 1000 Ang^3
#
#
#
# Elastic Constant Matrix: (Units=GPa)
#
#
# Indices 1 2 3 4 5 6 
#
# 1 59.7611 31.8117 50.4314 0.0000 0.0000 0.0000
# 2 31.8117 59.7621 50.4317 0.0000 0.0000 0.0000
# 3 50.4314 50.4317 108.3554 0.0000 0.0000 0.0000
# 4 0.0000 0.0000 0.0000 20.1218 0.0000 0.0000
# 5 0.0000 0.0000 0.0000 0.0000 20.1219 0.0000
# 6 0.0000 0.0000 0.0000 0.0000 0.0000 3.0259
#
#
#
# Elastic Compliance Matrix: (Units=1/GPa)
#
#
# Indices 1 2 3 4 5 6 
#
# 1 0.029093 -0.006686 -0.010429 0.000000 0.000000 0.000000
# 2 -0.006686 0.029092 -0.010429 0.000000 0.000000 0.000000
# 3 -0.010429 -0.010429 0.018937 0.000000 0.000000 0.000000
# 4 0.000000 0.000000 0.000000 0.049697 0.000000 0.000000
# 5 0.000000 0.000000 0.000000 0.000000 0.049697 0.000000
# 6 0.000000 0.000000 0.000000 0.000000 0.000000 0.330479
#
#
# Mechanical properties :
#
#
# Convention : Reuss Voigt Hill
#
# Bulk Modulus (GPa) = 45.38171 54.80313 50.09242
# Shear Modulus (GPa) = 8.78075 15.00084 11.89079
#
# Velocity S-wave (km/s) = 2.44529 3.19611 2.84557
# Velocity P-wave (km/s) = 6.23508 7.13719 6.70133
#
# Compressibility (1/GPa) = 0.02203531
#
# Stress axis : x y z
#
# Youngs Moduli (GPa) = 34.37267 34.37331 52.80784
#
# Poissons Ratio (x) = 0.22981 0.55073
# Poissons Ratio (y) = 0.22980 0.55072
# Poissons Ratio (z) = 0.35847 0.35847
#
# Static dielectric constant tensor:
#      x y z
#    x 2.692350 0.000000 0.000000 
#    y 0.000000 2.692350 0.000000 
#    z 0.000000 0.000000 3.207580 
# 
# 
# High freq. dielectric constant tensor:
#      x y z
#    x 1.528390 0.000000 0.000000 
#    y 0.000000 1.528390 0.000000 
#    z 0.000000 0.000000 1.578350 
# 
# From -- ./inp_files/7954.got.cif
#   From: 2010.03.12/outbox.cif.g09.slc.cpg/sg123_4_cif.got.tgz:7954.got - 2010.04.06 16:26:55.
