data_PCOD8312716
_publ_section_title
;
Structure prediction by ZEFSAII (Michael W. Deem and Ramdas Pophale) SiO2 
 PCOD8312716
Probable space group: P 4/M M M
;
_chemical_formula_sum "Si O2"
_cell_formula_units_Z 88
_cell_length_a 17.512460
_cell_length_b 17.512460
_cell_length_c 16.257448
_cell_angle_alpha 90.000000
_cell_angle_beta 90.000000
_cell_angle_gamma 90.000000
_cell_volume 4985.935847
_symmetry_space_group_name_H-M "P 4/M M M"
_symmetry_group_IT_number 123
_symmetry_cell_setting 'tetragonal'
loop_
_space_group_symop_operation_xyz
x,y,z
-y,x,z
-x,-y,z
y,-x,z
x,-y,-z
-x,y,-z
y,x,-z
-y,-x,-z
-x,-y,-z
y,-x,-z
x,y,-z
-y,x,-z
-x,y,z
x,-y,z
-y,-x,z
y,x,z
loop_
_atom_site_type_symbol
_atom_site_label
_atom_site_fract_x
_atom_site_fract_y
_atom_site_fract_z
Si Si1 0.797941 0.084914 0.596882
Si Si2 0.841032 0.353728 0.641103
Si Si3 0.850185 0.411651 0.185169
Si Si4 0.587442 0.000000 0.588121
Si Si5 0.591162 0.000000 0.906065
Si Si6 0.724769 0.592772 0.500000
Si Si7 0.299571 0.416952 0.903365
O O1 0.791812 0.078328 0.500000
O O2 0.880257 0.119744 0.622505
O O3 0.735427 0.146005 0.626321
O O4 0.787795 0.000000 0.635955
O O5 0.818052 0.366900 0.735359
O O6 0.776480 0.387909 0.580090
O O7 0.923382 0.393708 0.635813
O O8 0.861057 0.500000 0.209099
O O9 0.787740 0.398179 0.115152
O O10 0.927495 0.378232 0.145442
O O11 0.500000 0.000000 0.568906
O O12 0.632204 0.000000 0.500000
O O13 0.500000 0.000000 0.910230
O O14 0.623165 0.000000 0.000000
O O15 0.705503 0.500000 0.500000
O O16 0.646814 0.646814 0.500000
O O17 0.321456 0.500000 0.867102
O O18 0.355650 0.355650 0.861358
O O19 0.310023 0.416330 0.000000
#
# Coordination Sequence:
#
# PCOD8312716 Si02
#       7
#    16  16  16   8   8   8  16
#     4  10  20  35  53  75 104 140 178 216 261 314
#     4  12  21  35  53  81 108 139 180 227 278 329
#     4  10  20  32  50  75 105 136 172 215 259 318
#     4  11  19  29  49  75 106 133 162 207 263 321
#     4   9  17  31  51  76 107 142 172 199 248 323
#     4  12  26  42  59  77 104 148 198 248 297 340
#     4   9  18  33  52  74 100 130 166 211 265 322
#
# _framework density 17.649646000000001
#
# number of rings (size 3 to 8) (size 9 to 14) (size 15 to 20)
#    0.000    1.636    2.727    3.273    0.000    4.818 
#    0.000    1.818    0.000    0.000    0.000    2.545 
#    0.000    0.000    0.000    0.000    0.000    0.909 
#
# Total GULP energy -1090385.452012 kJ/mol
# GULP energy per Si atom -12390.743773 kJ/mol
# Density = 1.760947 g / cm^3
# Si number density = 17.649646 Si / 1000 Ang^3
#
#
#
# Elastic Constant Matrix: (Units=GPa)
#
#
# Indices 1 2 3 4 5 6 
#
# 1 93.0548 61.5112 22.6945 0.0000 0.0000 0.0000
# 2 61.5112 93.0548 22.6945 0.0000 0.0000 0.0000
# 3 22.6945 22.6945 67.8396 0.0000 0.0000 0.0000
# 4 0.0000 0.0000 0.0000 12.8181 0.0000 0.0000
# 5 0.0000 0.0000 0.0000 0.0000 12.8181 0.0000
# 6 0.0000 0.0000 0.0000 0.0000 0.0000 37.0334
#
#
#
# Elastic Compliance Matrix: (Units=1/GPa)
#
#
# Indices 1 2 3 4 5 6 
#
# 1 0.019438 -0.012264 -0.002400 0.000000 0.000000 0.000000
# 2 -0.012264 0.019438 -0.002400 0.000000 0.000000 0.000000
# 3 -0.002400 -0.002400 0.016346 0.000000 0.000000 0.000000
# 4 0.000000 0.000000 0.000000 0.078015 0.000000 0.000000
# 5 0.000000 0.000000 0.000000 0.000000 0.078015 0.000000
# 6 0.000000 0.000000 0.000000 0.000000 0.000000 0.027003
#
#
# Mechanical properties :
#
#
# Convention : Reuss Voigt Hill
#
# Bulk Modulus (GPa) = 47.40436 51.97218 49.68827
# Shear Modulus (GPa) = 17.89453 22.33718 20.11586
#
# Velocity S-wave (km/s) = 3.18759 3.56137 3.37965
# Velocity P-wave (km/s) = 6.36117 6.81334 6.59114
#
# Compressibility (1/GPa) = 0.02109511
#
# Stress axis : x y z
#
# Youngs Moduli (GPa) = 51.44479 51.44479 61.17526
#
# Poissons Ratio (x) = 0.63091 0.14683
# Poissons Ratio (y) = 0.63091 0.14683
# Poissons Ratio (z) = 0.12347 0.12347
#
# Static dielectric constant tensor:
#      x y z
#    x 3.442530 0.000000 0.000000 
#    y 0.000000 3.442530 0.000000 
#    z 0.000000 0.000000 3.159870 
# 
# 
# High freq. dielectric constant tensor:
#      x y z
#    x 1.676210 0.000000 0.000000 
#    y 0.000000 1.676210 0.000000 
#    z 0.000000 0.000000 1.663410 
# 
# From -- ./inp_files/4164.got.cif
#   From: 2010.03.12/outbox.cif.g09.slc.cpg/sg123_3_cif.got.tgz:4164.got - 2010.04.06 16:26:55.
