data_PCOD8312140
_publ_section_title
;
Structure prediction by ZEFSAII (Michael W. Deem and Ramdas Pophale) SiO2 
 PCOD8312140
Probable space group: P 4/M M M
;
_chemical_formula_sum "Si O2"
_cell_formula_units_Z 120
_cell_length_a 21.320713
_cell_length_b 21.320713
_cell_length_c 15.382299
_cell_angle_alpha 90.000000
_cell_angle_beta 90.000000
_cell_angle_gamma 90.000000
_cell_volume 6992.374770
_symmetry_space_group_name_H-M "P 4/M M M"
_symmetry_group_IT_number 123
_symmetry_cell_setting 'tetragonal'
loop_
_space_group_symop_operation_xyz
x,y,z
-y,x,z
-x,-y,z
y,-x,z
x,-y,-z
-x,y,-z
y,x,-z
-y,-x,-z
-x,-y,-z
y,-x,-z
x,y,-z
-y,x,-z
-x,y,z
x,-y,z
-y,-x,z
y,x,z
loop_
_atom_site_type_symbol
_atom_site_label
_atom_site_fract_x
_atom_site_fract_y
_atom_site_fract_z
Si Si1 0.651288 0.069624 0.100037
Si Si2 0.426550 0.185833 0.898934
Si Si3 0.199234 0.427950 0.399841
Si Si4 0.071087 0.237374 0.668036
Si Si5 0.751867 0.848274 0.179524
Si Si6 0.752819 0.651584 0.757041
Si Si7 0.170023 0.926207 0.500000
Si Si8 0.371798 0.931204 0.599191
O O1 0.596392 0.116553 0.133047
O O2 0.717459 0.105580 0.112227
O O3 0.649494 0.000000 0.146164
O O4 0.641197 0.056971 0.000000
O O5 0.500000 0.189185 0.884772
O O6 0.395241 0.239920 0.839710
O O7 0.407691 0.197176 0.000000
O O8 0.215085 0.409572 0.500000
O O9 0.216743 0.500000 0.381906
O O10 0.239317 0.384755 0.334554
O O11 0.124600 0.420520 0.381823
O O12 0.109084 0.212317 0.750552
O O13 0.100751 0.206693 0.582763
O O14 0.076014 0.312790 0.663139
O O15 0.000000 0.215109 0.679451
O O16 0.803213 0.803213 0.131997
O O17 0.703754 0.806081 0.234387
O O18 0.683925 0.683925 0.758974
O O19 0.099402 0.900599 0.500000
O O20 0.167876 0.000000 0.500000
O O21 0.346916 0.927694 0.500000
O O22 0.403434 0.000000 0.614886
#
# Coordination Sequence:
#
# PCOD8312140 Si02
#       8
#    16  16  16  16  16  16   8  16
#     4   9  18  32  49  70  97 129 162 196 237 286
#     4   9  18  33  53  76 103 133 163 199 241 287
#     4  10  20  33  48  68  99 135 170 209 247 284
#     4  10  17  28  44  62  86 115 151 198 243 289
#     4  10  19  30  45  66  90 121 160 203 248 285
#     4  10  20  33  49  70  98 131 169 206 239 283
#     4  10  20  31  44  62  83 113 153 199 254 306
#     4   9  16  28  45  64  90 125 163 203 245 285
#
# _framework density 17.161550999999999
#
# number of rings (size 3 to 8) (size 9 to 14) (size 15 to 20)
#    0.000    2.400    2.000    1.200    0.000    1.400 
#    0.000    5.333    0.000    1.600    0.000    0.000 
#    0.000    6.667    0.000   17.600    0.000    0.533 
#
# Total GULP energy -1487042.147510 kJ/mol
# GULP energy per Si atom -12392.017896 kJ/mol
# Density = 1.712249 g / cm^3
# Si number density = 17.161551 Si / 1000 Ang^3
#
#
#
# Elastic Constant Matrix: (Units=GPa)
#
#
# Indices 1 2 3 4 5 6 
#
# 1 48.1933 77.2742 33.0598 0.0000 0.0000 0.0000
# 2 77.2742 48.1836 33.0584 0.0000 0.0000 0.0000
# 3 33.0598 33.0584 56.5362 0.0000 0.0000 0.0000
# 4 0.0000 0.0000 0.0000 22.7804 0.0000 0.0000
# 5 0.0000 0.0000 0.0000 0.0000 22.7806 0.0000
# 6 0.0000 0.0000 0.0000 0.0000 0.0000 24.4416
#
#
#
# Elastic Compliance Matrix: (Units=1/GPa)
#
#
# Indices 1 2 3 4 5 6 
#
# 1 -0.011429 0.022951 -0.006737 0.000000 0.000000 0.000000
# 2 0.022951 -0.011432 -0.006736 0.000000 0.000000 0.000000
# 3 -0.006737 -0.006736 0.025566 0.000000 0.000000 0.000000
# 4 0.000000 0.000000 0.000000 0.043897 0.000000 0.000000
# 5 0.000000 0.000000 0.000000 0.000000 0.043897 0.000000
# 6 0.000000 0.000000 0.000000 0.000000 0.000000 0.040914
#
#
# Mechanical properties :
#
#
# Convention : Reuss Voigt Hill
#
# Bulk Modulus (GPa) = 46.16589 48.85532 47.51060
# Shear Modulus (GPa) = 41.77834 14.63522 28.20678
#
# Velocity S-wave (km/s) = 4.93933 2.92343 4.05854
# Velocity P-wave (km/s) = 7.71288 6.31862 7.05030
#
# Compressibility (1/GPa) = 0.02166101
#
# Stress axis : x y z
#
# Youngs Moduli (GPa) = -87.49994 -87.47532 39.11417
#
# Poissons Ratio (x) = 2.00763 0.26352
# Poissons Ratio (y) = 2.00820 0.26348
# Poissons Ratio (z) = -0.58950 -0.58924
#
# Static dielectric constant tensor:
#      x y z
#    x 3.114870 0.000000 0.000000 
#    y 0.000000 3.114870 0.000000 
#    z 0.000000 0.000000 3.203210 
# 
# 
# High freq. dielectric constant tensor:
#      x y z
#    x 1.639330 0.000000 0.000000 
#    y 0.000000 1.639330 0.000000 
#    z 0.000000 0.000000 1.662370 
# 
# From -- ./inp_files/4625.got.cif
#   From: 2010.03.12/outbox.cif.g09.slc.cpg/sg123_3_cif.got.tgz:4625.got - 2010.04.06 16:26:55.
