data_PCOD8312396
_publ_section_title
;
Structure prediction by ZEFSAII (Michael W. Deem and Ramdas Pophale) SiO2 
 PCOD8312396
Probable space group: P 4/M M M
;
_chemical_formula_sum "Si O2"
_cell_formula_units_Z 96
_cell_length_a 14.320707
_cell_length_b 14.320707
_cell_length_c 30.784416
_cell_angle_alpha 90.000000
_cell_angle_beta 90.000000
_cell_angle_gamma 90.000000
_cell_volume 6313.349581
_symmetry_space_group_name_H-M "P 4/M M M"
_symmetry_group_IT_number 123
_symmetry_cell_setting 'tetragonal'
loop_
_space_group_symop_operation_xyz
x,y,z
-y,x,z
-x,-y,z
y,-x,z
x,-y,-z
-x,y,-z
y,x,-z
-y,-x,-z
-x,-y,-z
y,-x,-z
x,y,-z
-y,x,-z
-x,y,z
x,-y,z
-y,-x,z
y,x,z
loop_
_atom_site_type_symbol
_atom_site_label
_atom_site_fract_x
_atom_site_fract_y
_atom_site_fract_z
Si Si1 0.605149 0.754326 0.500000
Si Si2 0.242793 0.393532 0.843560
Si Si3 0.107975 0.393362 0.919998
Si Si4 0.889994 0.263712 0.000000
Si Si5 0.763519 0.390581 0.594289
Si Si6 0.389461 0.103820 0.670729
Si Si7 0.759263 0.392211 0.745208
O O1 0.500000 0.721469 0.500000
O O2 0.657742 0.657742 0.500000
O O3 0.626474 0.807846 0.545605
O O4 0.273124 0.500000 0.850495
O O5 0.333993 0.333993 0.853989
O O6 0.160957 0.364276 0.876213
O O7 0.206107 0.376911 0.794583
O O8 0.130208 0.500000 0.934005
O O9 0.000000 0.381170 0.909236
O O10 0.138838 0.324772 0.958396
O O11 0.832845 0.167156 0.000000
O O12 0.000000 0.239702 0.000000
O O13 0.739637 0.500000 0.601975
O O14 0.668746 0.331255 0.600888
O O15 0.841013 0.354727 0.628108
O O16 0.500000 0.095451 0.670098
O O17 0.356576 0.158011 0.713985
O O18 0.344863 0.000000 0.670849
O O19 0.734453 0.500000 0.735870
O O20 0.665642 0.334359 0.735525
#
# Coordination Sequence:
#
# PCOD8312396 Si02
#       7
#     8  16  16   8  16  16  16
#     4   8  14  23  35  53  77 105 134 162 193 229
#     4   9  17  28  42  61  85 111 137 165 197 235
#     4   9  17  29  45  64  84 107 138 174 208 240
#     4  10  19  30  45  63  84 110 137 169 210 253
#     4   9  16  26  40  58  81 107 134 164 197 235
#     4   9  17  28  40  54  75 104 136 168 200 233
#     4   9  17  28  42  61  84 109 136 165 197 235
#
# _framework density 15.205875000000001
#
# number of rings (size 3 to 8) (size 9 to 14) (size 15 to 20)
#    0.000    3.000    0.000    1.250    0.000    2.333 
#    0.000    7.083    0.000    5.500    0.000    0.000 
#    0.000   11.333    0.000   12.333    0.000   19.667 
#
# Total GULP energy -1189724.615627 kJ/mol
# GULP energy per Si atom -12392.964746 kJ/mol
# Density = 1.517127 g / cm^3
# Si number density = 15.205875 Si / 1000 Ang^3
#
#
#
# Elastic Constant Matrix: (Units=GPa)
#
#
# Indices 1 2 3 4 5 6 
#
# 1 69.9109 40.6892 58.7586 0.0000 0.0000 0.0000
# 2 40.6892 69.9122 58.7591 0.0000 0.0000 0.0000
# 3 58.7586 58.7591 133.0634 0.0000 0.0000 0.0000
# 4 0.0000 0.0000 0.0000 22.0537 0.0000 0.0000
# 5 0.0000 0.0000 0.0000 0.0000 22.0538 0.0000
# 6 0.0000 0.0000 0.0000 0.0000 0.0000 14.6790
#
#
#
# Elastic Compliance Matrix: (Units=1/GPa)
#
#
# Indices 1 2 3 4 5 6 
#
# 1 0.025627 -0.008593 -0.007522 0.000000 0.000000 0.000000
# 2 -0.008593 0.025627 -0.007522 0.000000 0.000000 0.000000
# 3 -0.007522 -0.007522 0.014158 0.000000 0.000000 0.000000
# 4 0.000000 0.000000 0.000000 0.045344 0.000000 0.000000
# 5 0.000000 0.000000 0.000000 0.000000 0.045344 0.000000
# 6 0.000000 0.000000 0.000000 0.000000 0.000000 0.068124
#
#
# Mechanical properties :
#
#
# Convention : Reuss Voigt Hill
#
# Bulk Modulus (GPa) = 55.13157 65.47782 60.30469
# Shear Modulus (GPa) = 18.01512 19.40262 18.70887
#
# Velocity S-wave (km/s) = 3.44575 3.57598 3.51147
# Velocity P-wave (km/s) = 7.22263 7.75916 7.49570
#
# Compressibility (1/GPa) = 0.01813843
#
# Stress axis : x y z
#
# Youngs Moduli (GPa) = 39.02075 39.02158 70.62984
#
# Poissons Ratio (x) = 0.33532 0.53127
# Poissons Ratio (y) = 0.33532 0.53127
# Poissons Ratio (z) = 0.29351 0.29351
#
# Static dielectric constant tensor:
#      x y z
#    x 2.782510 0.000000 0.000000 
#    y 0.000000 2.782510 0.000000 
#    z 0.000000 0.000000 3.281360 
# 
# 
# High freq. dielectric constant tensor:
#      x y z
#    x 1.556930 0.000000 0.000000 
#    y 0.000000 1.556930 0.000000 
#    z 0.000000 0.000000 1.603930 
# 
# From -- ./inp_files/8055.got.cif
#   From: 2010.03.12/outbox.cif.g09.slc.cpg/sg123_5_cif.got.tgz:8055.got - 2010.04.06 16:26:55.
