data_PCOD8312461
_publ_section_title
;
Structure prediction by ZEFSAII (Michael W. Deem and Ramdas Pophale) SiO2 
 PCOD8312461
Probable space group: P 4/M M M
;
_chemical_formula_sum "Si O2"
_cell_formula_units_Z 88
_cell_length_a 13.323272
_cell_length_b 13.323272
_cell_length_c 28.440094
_cell_angle_alpha 90.000000
_cell_angle_beta 90.000000
_cell_angle_gamma 90.000000
_cell_volume 5048.389050
_symmetry_space_group_name_H-M "P 4/M M M"
_symmetry_group_IT_number 123
_symmetry_cell_setting 'tetragonal'
loop_
_space_group_symop_operation_xyz
x,y,z
-y,x,z
-x,-y,z
y,-x,z
x,-y,-z
-x,y,-z
y,x,-z
-y,-x,-z
-x,-y,-z
y,-x,-z
x,y,-z
-y,x,-z
-x,y,z
x,-y,z
-y,-x,z
y,x,z
loop_
_atom_site_type_symbol
_atom_site_label
_atom_site_fract_x
_atom_site_fract_y
_atom_site_fract_z
Si Si1 0.118894 0.611541 0.906553
Si Si2 0.611857 0.118940 0.551643
Si Si3 0.722409 0.118287 0.356366
Si Si4 0.881812 0.720714 0.187650
Si Si5 0.782654 0.383406 0.727520
Si Si6 0.118400 0.722665 0.000000
O O1 0.165656 0.500000 0.903176
O O2 0.154082 0.676461 0.862156
O O3 0.000000 0.603822 0.906975
O O4 0.156398 0.662313 0.954491
O O5 0.652265 0.152625 0.500000
O O6 0.500000 0.163123 0.559459
O O7 0.685033 0.156715 0.592640
O O8 0.605638 0.000000 0.554147
O O9 0.828281 0.171720 0.345426
O O10 0.640011 0.150821 0.318304
O O11 0.740453 0.000000 0.354111
O O12 0.826772 0.826772 0.196060
O O13 0.850582 0.641523 0.227366
O O14 0.000000 0.740979 0.189672
O O15 0.753804 0.500000 0.727963
O O16 0.679694 0.320307 0.727673
O O17 0.167720 0.832280 0.000000
O O18 0.000000 0.739813 0.000000
#
# Coordination Sequence:
#
# PCOD8312461 Si02
#       6
#    16  16  16  16  16   8
#     4   9  17  30  48  68  91 122 160 202 245 283
#     4   8  14  26  45  67  89 116 154 200 246 287
#     4  10  20  32  47  69  97 130 167 204 242 287
#     4  10  20  33  50  74 103 134 167 200 236 283
#     4  10  21  36  54  76  99 124 158 200 247 297
#     4  10  19  30  45  67  96 128 161 197 240 295
#
# _framework density 17.431303
#
# number of rings (size 3 to 8) (size 9 to 14) (size 15 to 20)
#    0.000    2.545    0.000    3.000    0.000    5.000 
#    0.000    0.000    0.000    6.545    0.000    2.545 
#    0.000   13.818    0.000   16.909    0.000    0.909 
#
# Total GULP energy -1091033.545045 kJ/mol
# GULP energy per Si atom -12398.108466 kJ/mol
# Density = 1.739163 g / cm^3
# Si number density = 17.431303 Si / 1000 Ang^3
#
#
#
# Elastic Constant Matrix: (Units=GPa)
#
#
# Indices 1 2 3 4 5 6 
#
# 1 88.7050 40.3443 39.8270 0.0000 0.0000 0.0000
# 2 40.3443 88.7040 39.8269 0.0000 0.0000 0.0000
# 3 39.8270 39.8269 140.6266 0.0000 0.0000 0.0000
# 4 0.0000 0.0000 0.0000 23.1660 0.0000 0.0000
# 5 0.0000 0.0000 0.0000 0.0000 23.1663 0.0000
# 6 0.0000 0.0000 0.0000 0.0000 0.0000 12.5362
#
#
#
# Elastic Compliance Matrix: (Units=1/GPa)
#
#
# Indices 1 2 3 4 5 6 
#
# 1 0.015034 -0.005644 -0.002659 0.000000 0.000000 0.000000
# 2 -0.005644 0.015034 -0.002660 0.000000 0.000000 0.000000
# 3 -0.002659 -0.002660 0.008617 0.000000 0.000000 0.000000
# 4 0.000000 0.000000 0.000000 0.043167 0.000000 0.000000
# 5 0.000000 0.000000 0.000000 0.000000 0.043166 0.000000
# 6 0.000000 0.000000 0.000000 0.000000 0.000000 0.079769
#
#
# Mechanical properties :
#
#
# Convention : Reuss Voigt Hill
#
# Bulk Modulus (GPa) = 59.66404 62.00357 60.83380
# Shear Modulus (GPa) = 21.52388 24.97621 23.25005
#
# Velocity S-wave (km/s) = 3.51776 3.78939 3.65610
# Velocity P-wave (km/s) = 7.12755 7.40226 7.26620
#
# Compressibility (1/GPa) = 0.01676052
#
# Stress axis : x y z
#
# Youngs Moduli (GPa) = 66.51468 66.51388 116.04382
#
# Poissons Ratio (x) = 0.37539 0.30862
# Poissons Ratio (y) = 0.37540 0.30862
# Poissons Ratio (z) = 0.17689 0.17690
#
# Static dielectric constant tensor:
#      x y z
#    x 3.011100 0.000000 0.000000 
#    y 0.000000 3.011100 0.000000 
#    z 0.000000 0.000000 3.634650 
# 
# 
# High freq. dielectric constant tensor:
#      x y z
#    x 1.652430 0.000000 0.000000 
#    y 0.000000 1.652430 0.000000 
#    z 0.000000 0.000000 1.698130 
# 
# From -- ./inp_files/8497.got.cif
#   From: 2010.03.12/outbox.cif.g09.slc.cpg/sg123_5_cif.got.tgz:8497.got - 2010.04.06 16:26:55.
