data_PCOD8312537
_publ_section_title
;
Structure prediction by ZEFSAII (Michael W. Deem and Ramdas Pophale) SiO2 
 PCOD8312537
Probable space group: P 4/M M M
;
_chemical_formula_sum "Si O2"
_cell_formula_units_Z 120
_cell_length_a 14.304231
_cell_length_b 14.304231
_cell_length_c 34.242210
_cell_angle_alpha 90.000000
_cell_angle_beta 90.000000
_cell_angle_gamma 90.000000
_cell_volume 7006.333669
_symmetry_space_group_name_H-M "P 4/M M M"
_symmetry_group_IT_number 123
_symmetry_cell_setting 'tetragonal'
loop_
_space_group_symop_operation_xyz
x,y,z
-y,x,z
-x,-y,z
y,-x,z
x,-y,-z
-x,y,-z
y,x,-z
-y,-x,-z
-x,-y,-z
y,-x,-z
x,y,-z
-y,x,-z
-x,y,z
x,-y,z
-y,-x,z
y,x,z
loop_
_atom_site_type_symbol
_atom_site_label
_atom_site_fract_x
_atom_site_fract_y
_atom_site_fract_z
Si Si1 0.393778 0.106387 0.170330
Si Si2 0.733152 0.889047 0.095892
Si Si3 0.106368 0.393064 0.686312
Si Si4 0.840449 0.303984 0.456439
Si Si5 0.100973 0.246814 0.623963
Si Si6 0.241430 0.607789 0.046032
Si Si7 0.500000 0.897393 0.454633
Si Si8 0.609339 0.763082 0.243318
O O1 0.500000 0.123787 0.155004
O O2 0.318490 0.126161 0.136894
O O3 0.369606 0.176018 0.205202
O O4 0.384754 0.000000 0.185550
O O5 0.831683 0.831683 0.095569
O O6 0.662029 0.848020 0.063607
O O7 0.751939 0.000000 0.087926
O O8 0.125840 0.500000 0.677233
O O9 0.126687 0.343622 0.644964
O O10 0.175947 0.356826 0.719748
O O11 0.000000 0.376343 0.700655
O O12 0.885424 0.290223 0.500000
O O13 0.734933 0.265068 0.456228
O O14 0.900360 0.252571 0.423295
O O15 0.835678 0.411165 0.443357
O O16 0.172011 0.172011 0.640352
O O17 0.000000 0.211921 0.637275
O O18 0.247792 0.500000 0.061142
O O19 0.337219 0.662782 0.057710
O O20 0.227045 0.608833 0.000000
O O21 0.500000 0.917802 0.500000
O O22 0.500000 0.000000 0.433605
O O23 0.500000 0.737374 0.246258
O O24 0.667196 0.667196 0.241680
#
# Coordination Sequence:
#
# PCOD8312537 Si02
#       8
#    16  16  16  16  16  16   8  16
#     4   9  17  30  50  74  96 120 154 196 242 288
#     4  10  20  33  49  70  97 129 167 209 250 293
#     4   9  18  32  50  71  92 114 146 190 235 273
#     4   9  18  31  46  67  95 122 149 187 233 276
#     4  10  20  32  47  67  92 122 153 185 224 272
#     4   9  18  32  50  73 100 129 162 202 249 301
#     4   9  16  26  44  67  87 111 147 186 222 262
#     4  10  19  31  48  69  96 127 155 185 223 270
#
# _framework density 17.127359999999999
#
# number of rings (size 3 to 8) (size 9 to 14) (size 15 to 20)
#    0.000    2.600    0.000    2.000    0.933    4.000 
#    0.000    1.333    0.000    0.200    0.000    7.000 
#    0.000    9.600    0.000    0.000    0.000    0.000 
#
# Total GULP energy -1486898.777548 kJ/mol
# GULP energy per Si atom -12390.823146 kJ/mol
# Density = 1.708838 g / cm^3
# Si number density = 17.127360 Si / 1000 Ang^3
#
#
#
# Elastic Constant Matrix: (Units=GPa)
#
#
# Indices 1 2 3 4 5 6 
#
# 1 110.0284 68.4524 38.8279 0.0000 0.0000 0.0000
# 2 68.4524 110.0284 38.8279 0.0000 0.0000 0.0000
# 3 38.8279 38.8279 67.3709 0.0000 0.0000 0.0000
# 4 0.0000 0.0000 0.0000 21.6200 0.0000 0.0000
# 5 0.0000 0.0000 0.0000 0.0000 21.6200 0.0000
# 6 0.0000 0.0000 0.0000 0.0000 0.0000 21.6402
#
#
#
# Elastic Compliance Matrix: (Units=1/GPa)
#
#
# Indices 1 2 3 4 5 6 
#
# 1 0.015765 -0.008287 -0.004310 0.000000 0.000000 0.000000
# 2 -0.008287 0.015765 -0.004310 0.000000 0.000000 0.000000
# 3 -0.004310 -0.004310 0.019811 0.000000 0.000000 0.000000
# 4 0.000000 0.000000 0.000000 0.046254 0.000000 0.000000
# 5 0.000000 0.000000 0.000000 0.000000 0.046254 0.000000
# 6 0.000000 0.000000 0.000000 0.000000 0.000000 0.046210
#
#
# Mechanical properties :
#
#
# Convention : Reuss Voigt Hill
#
# Bulk Modulus (GPa) = 57.05239 64.40489 60.72864
# Shear Modulus (GPa) = 21.76614 22.39734 22.08174
#
# Velocity S-wave (km/s) = 3.56875 3.62013 3.59453
# Velocity P-wave (km/s) = 7.09678 7.42691 7.26372
#
# Compressibility (1/GPa) = 0.01752775
#
# Stress axis : x y z
#
# Youngs Moduli (GPa) = 63.43096 63.43096 50.47717
#
# Poissons Ratio (x) = 0.52566 0.21755
# Poissons Ratio (y) = 0.52566 0.21755
# Poissons Ratio (z) = 0.27337 0.27337
#
# Static dielectric constant tensor:
#      x y z
#    x 3.252370 0.000000 0.000000 
#    y 0.000000 3.252370 0.000000 
#    z 0.000000 0.000000 3.204330 
# 
# 
# High freq. dielectric constant tensor:
#      x y z
#    x 1.654230 0.000000 0.000000 
#    y 0.000000 1.654230 0.000000 
#    z 0.000000 0.000000 1.661150 
# 
# From -- ./inp_files/8835.got.cif
#   From: 2010.03.12/outbox.cif.g09.slc.cpg/sg123_5_cif.got.tgz:8835.got - 2010.04.06 16:26:55.
