data_PCOD8312264
_publ_section_title
;
Structure prediction by ZEFSAII (Michael W. Deem and Ramdas Pophale) SiO2 
 PCOD8312264
Probable space group: P 4/M M M
;
_chemical_formula_sum "Si O2"
_cell_formula_units_Z 104
_cell_length_a 24.987276
_cell_length_b 24.987276
_cell_length_c 9.299402
_cell_angle_alpha 90.000000
_cell_angle_beta 90.000000
_cell_angle_gamma 90.000000
_cell_volume 5806.211476
_symmetry_space_group_name_H-M "P 4/M M M"
_symmetry_group_IT_number 123
_symmetry_cell_setting 'tetragonal'
loop_
_space_group_symop_operation_xyz
x,y,z
-y,x,z
-x,-y,z
y,-x,z
x,-y,-z
-x,y,-z
y,x,-z
-y,-x,-z
-x,-y,-z
y,-x,-z
x,y,-z
-y,x,-z
-x,y,z
x,-y,z
-y,-x,z
y,x,z
loop_
_atom_site_type_symbol
_atom_site_label
_atom_site_fract_x
_atom_site_fract_y
_atom_site_fract_z
Si Si1 0.632293 0.277483 0.161319
Si Si2 0.438188 0.000000 0.330959
Si Si3 0.788632 0.703578 0.342107
Si Si4 0.119280 0.745802 0.170718
Si Si5 0.358740 0.941220 0.157320
Si Si6 0.647674 0.438858 0.333823
Si Si7 0.146446 0.939488 0.170857
O O1 0.679650 0.320351 0.156669
O O2 0.650773 0.223814 0.246544
O O3 0.580839 0.302190 0.240173
O O4 0.616098 0.260401 0.000000
O O5 0.409955 0.053616 0.264602
O O6 0.500000 0.000000 0.286469
O O7 0.429996 0.000000 0.500000
O O8 0.812401 0.688077 0.500000
O O9 0.732397 0.732397 0.367551
O O10 0.825468 0.745943 0.256571
O O11 0.093982 0.689238 0.220288
O O12 0.083984 0.796348 0.221739
O O13 0.129162 0.748514 0.000000
O O14 0.332979 0.000000 0.138146
O O15 0.377622 0.919863 0.000000
O O16 0.663479 0.431541 0.500000
O O17 0.635150 0.500000 0.295042
O O18 0.594451 0.405550 0.295828
O O19 0.098272 0.901728 0.229427
O O20 0.139471 0.000000 0.231506
O O21 0.144774 0.940578 0.000000
#
# Coordination Sequence:
#
# PCOD8312264 Si02
#       7
#    16   8  16  16  16  16  16
#     4   9  17  30  48  68  90 120 160 201 241 293
#     4   9  17  29  47  71  97 125 158 193 230 280
#     4  10  20  32  47  69  97 125 154 195 248 304
#     4  10  18  30  49  72  99 130 166 209 257 305
#     4   8  16  29  46  69  96 128 163 199 240 287
#     4   9  17  29  46  69  98 132 169 209 253 299
#     4   9  17  28  45  70 101 138 177 217 260 308
#
# _framework density 17.911850999999999
#
# number of rings (size 3 to 8) (size 9 to 14) (size 15 to 20)
#    0.462    2.385    0.000    1.846    0.000    7.077 
#    0.000    1.538    0.000    0.923    0.000    6.462 
#    0.000    0.000    0.000    3.231    0.000    3.077 
#
# Total GULP energy -1288592.989403 kJ/mol
# GULP energy per Si atom -12390.317206 kJ/mol
# Density = 1.787108 g / cm^3
# Si number density = 17.911851 Si / 1000 Ang^3
#
#
#
# Elastic Constant Matrix: (Units=GPa)
#
#
# Indices 1 2 3 4 5 6 
#
# 1 101.2981 48.5302 46.5774 0.0000 0.0000 0.0000
# 2 48.5302 101.2981 46.5774 0.0000 0.0000 0.0000
# 3 46.5774 46.5774 85.0666 0.0000 0.0000 0.0000
# 4 0.0000 0.0000 0.0000 18.2968 0.0000 0.0000
# 5 0.0000 0.0000 0.0000 0.0000 18.2968 0.0000
# 6 0.0000 0.0000 0.0000 0.0000 0.0000 28.5345
#
#
#
# Elastic Compliance Matrix: (Units=1/GPa)
#
#
# Indices 1 2 3 4 5 6 
#
# 1 0.014535 -0.004416 -0.005541 0.000000 0.000000 0.000000
# 2 -0.004416 0.014535 -0.005541 0.000000 0.000000 0.000000
# 3 -0.005541 -0.005541 0.017823 0.000000 0.000000 0.000000
# 4 0.000000 0.000000 0.000000 0.054654 0.000000 0.000000
# 5 0.000000 0.000000 0.000000 0.000000 0.054654 0.000000
# 6 0.000000 0.000000 0.000000 0.000000 0.000000 0.035045
#
#
# Mechanical properties :
#
#
# Convention : Reuss Voigt Hill
#
# Bulk Modulus (GPa) = 62.89830 63.44810 63.17320
# Shear Modulus (GPa) = 21.97407 22.75747 22.36577
#
# Velocity S-wave (km/s) = 3.50635 3.56831 3.53747
# Velocity P-wave (km/s) = 7.18223 7.24406 7.21321
#
# Compressibility (1/GPa) = 0.01589868
#
# Stress axis : x y z
#
# Youngs Moduli (GPa) = 68.79924 68.79924 56.10742
#
# Poissons Ratio (x) = 0.30381 0.31087
# Poissons Ratio (y) = 0.30381 0.31087
# Poissons Ratio (z) = 0.38119 0.38119
#
# Static dielectric constant tensor:
#      x y z
#    x 3.183990 0.000000 0.000000 
#    y 0.000000 3.183990 0.000000 
#    z 0.000000 0.000000 3.273700 
# 
# 
# High freq. dielectric constant tensor:
#      x y z
#    x 1.674680 0.000000 0.000000 
#    y 0.000000 1.674680 0.000000 
#    z 0.000000 0.000000 1.680350 
# 
# From -- ./inp_files/1959.got.cif
#   From: 2010.03.12/outbox.cif.g09.slc.cpg/sg123_1_cif.got.tgz:1959.got - 2010.04.06 16:26:55.
