data_PCOD8312442
_publ_section_title
;
Structure prediction by ZEFSAII (Michael W. Deem and Ramdas Pophale) SiO2 
 PCOD8312442
Probable space group: P 4/M M M
;
_chemical_formula_sum "Si O2"
_cell_formula_units_Z 88
_cell_length_a 13.326080
_cell_length_b 13.326080
_cell_length_c 28.047688
_cell_angle_alpha 90.000000
_cell_angle_beta 90.000000
_cell_angle_gamma 90.000000
_cell_volume 4980.832074
_symmetry_space_group_name_H-M "P 4/M M M"
_symmetry_group_IT_number 123
_symmetry_cell_setting 'tetragonal'
loop_
_space_group_symop_operation_xyz
x,y,z
-y,x,z
-x,-y,z
y,-x,z
x,-y,-z
-x,y,-z
y,x,-z
-y,-x,-z
-x,-y,-z
y,-x,-z
x,y,-z
-y,x,-z
-x,y,z
x,-y,z
-y,-x,z
y,x,z
loop_
_atom_site_type_symbol
_atom_site_label
_atom_site_fract_x
_atom_site_fract_y
_atom_site_fract_z
Si Si1 0.117484 0.613525 0.905368
Si Si2 0.615169 0.223055 0.445391
Si Si3 0.719414 0.116782 0.363273
Si Si4 0.882276 0.721412 0.191034
Si Si5 0.781803 0.383241 0.723975
Si Si6 0.225463 0.618047 0.000000
O O1 0.153359 0.500000 0.895128
O O2 0.148950 0.681299 0.860809
O O3 0.167822 0.656606 0.953103
O O4 0.000000 0.616757 0.914090
O O5 0.625862 0.188079 0.500000
O O6 0.500000 0.240303 0.431036
O O7 0.671653 0.328348 0.436126
O O8 0.664535 0.136176 0.413568
O O9 0.824899 0.175102 0.360141
O O10 0.645053 0.152914 0.321962
O O11 0.743334 0.000000 0.357728
O O12 0.826590 0.826590 0.200657
O O13 0.848421 0.639409 0.229556
O O14 0.000000 0.741102 0.195547
O O15 0.754569 0.500000 0.722486
O O16 0.677715 0.322286 0.725050
O O17 0.235384 0.500000 0.000000
O O18 0.336471 0.663529 0.000000
#
# Coordination Sequence:
#
# PCOD8312442 Si02
#       6
#    16  16  16  16  16   8
#     4   9  17  30  49  71  92 117 154 199 244 287
#     4   9  18  32  50  74 103 133 166 204 246 294
#     4  10  21  36  53  74 100 130 166 207 248 291
#     4  10  20  33  50  73 100 130 164 201 241 286
#     4  10  21  36  54  77 103 130 162 199 240 288
#     4  10  19  30  45  65  92 124 155 191 234 281
#
# _framework density 17.667729999999999
#
# number of rings (size 3 to 8) (size 9 to 14) (size 15 to 20)
#    0.000    2.364    0.000    2.455    0.000    5.545 
#    0.000    1.818    0.000    6.545    0.000    5.091 
#    0.000    6.545    0.000    0.000    0.000    0.000 
#
# Total GULP energy -1091354.117692 kJ/mol
# GULP energy per Si atom -12401.751337 kJ/mol
# Density = 1.762752 g / cm^3
# Si number density = 17.667730 Si / 1000 Ang^3
#
#
#
# Elastic Constant Matrix: (Units=GPa)
#
#
# Indices 1 2 3 4 5 6 
#
# 1 102.2541 46.7012 49.1172 0.0000 0.0000 0.0000
# 2 46.7012 102.2556 49.1175 0.0000 0.0000 0.0000
# 3 49.1172 49.1175 114.6504 0.0000 0.0000 0.0000
# 4 0.0000 0.0000 0.0000 23.9872 0.0000 0.0000
# 5 0.0000 0.0000 0.0000 0.0000 23.9867 0.0000
# 6 0.0000 0.0000 0.0000 0.0000 0.0000 17.6783
#
#
#
# Elastic Compliance Matrix: (Units=1/GPa)
#
#
# Indices 1 2 3 4 5 6 
#
# 1 0.013679 -0.004322 -0.004009 0.000000 0.000000 0.000000
# 2 -0.004322 0.013679 -0.004009 0.000000 0.000000 0.000000
# 3 -0.004009 -0.004009 0.012157 0.000000 0.000000 0.000000
# 4 0.000000 0.000000 0.000000 0.041689 0.000000 0.000000
# 5 0.000000 0.000000 0.000000 0.000000 0.041690 0.000000
# 6 0.000000 0.000000 0.000000 0.000000 0.000000 0.056567
#
#
# Mechanical properties :
#
#
# Convention : Reuss Voigt Hill
#
# Bulk Modulus (GPa) = 67.40204 67.67022 67.53613
# Shear Modulus (GPa) = 23.91391 24.74538 24.32964
#
# Velocity S-wave (km/s) = 3.68303 3.74652 3.71491
# Velocity P-wave (km/s) = 7.50459 7.55645 7.53057
#
# Compressibility (1/GPa) = 0.01483635
#
# Stress axis : x y z
#
# Youngs Moduli (GPa) = 73.10504 73.10617 82.25806
#
# Poissons Ratio (x) = 0.31595 0.32975
# Poissons Ratio (y) = 0.31594 0.32974
# Poissons Ratio (z) = 0.29305 0.29306
#
# Static dielectric constant tensor:
#      x y z
#    x 3.121590 0.000000 0.000000 
#    y 0.000000 3.121590 0.000000 
#    z 0.000000 0.000000 3.544410 
# 
# 
# High freq. dielectric constant tensor:
#      x y z
#    x 1.674070 0.000000 0.000000 
#    y 0.000000 1.674070 0.000000 
#    z 0.000000 0.000000 1.703930 
# 
# From -- ./inp_files/8451.got.cif
#   From: 2010.03.12/outbox.cif.g09.slc.cpg/sg123_5_cif.got.tgz:8451.got - 2010.04.06 16:26:55.
