data_PCOD8312058
_publ_section_title
;
Structure prediction by ZEFSAII (Michael W. Deem and Ramdas Pophale) SiO2 
 PCOD8312058
Probable space group: I -4 2 D
;
_chemical_formula_sum "Si O2"
_cell_formula_units_Z 48
_cell_length_a 7.831546
_cell_length_b 7.831546
_cell_length_c 33.808397
_cell_angle_alpha 90.000000
_cell_angle_beta 90.000000
_cell_angle_gamma 90.000000
_cell_volume 2073.574225
_symmetry_space_group_name_H-M "I -4 2 D"
_symmetry_group_IT_number 122
_symmetry_cell_setting 'tetragonal'
loop_
_space_group_symop_operation_xyz
x,y,z
y,-x,-z
-x,-y,z
-y,x,-z
x,1/2-y,1/4-z
-x,1/2+y,1/4-z
-y,1/2-x,1/4+z
y,1/2+x,1/4+z
1/2+x,1/2+y,1/2+z
1/2+y,1/2-x,1/2-z
1/2-x,1/2-y,1/2+z
1/2-y,1/2+x,1/2-z
1/2+x,-y,3/4-z
1/2-x,y,3/4-z
1/2-y,-x,3/4+z
1/2+y,x,3/4+z
loop_
_atom_site_type_symbol
_atom_site_label
_atom_site_fract_x
_atom_site_fract_y
_atom_site_fract_z
Si Si1 0.062821 0.181765 0.711285
Si Si2 0.719920 0.381855 0.329546
Si Si3 0.770015 0.141261 0.201805
O O1 0.229832 0.154763 0.683892
O O2 0.118707 0.272467 0.751842
O O3 0.908728 0.275379 0.687121
O O4 0.000000 0.000000 0.725811
O O5 0.750000 0.425100 0.375000
O O6 0.755177 0.558973 0.305700
O O7 0.532439 0.303832 0.321856
#
# Coordination Sequence:
#
# PCOD8312058 Si02
#       3
#    16  16  16
#     4  12  23  42  76 105 136 196 248 290 364 435
#     4  11  26  44  68 107 149 185 234 303 373 426
#     4  11  23  46  72 100 146 189 243 305 352 440
#
# _framework density 23.148437000000001
#
# number of rings (size 3 to 8) (size 9 to 14) (size 15 to 20)
#    0.000    0.667    6.667    1.000    0.000   10.667 
#    0.000    3.333    0.000    0.000    0.000    0.000 
#    0.000    0.000    0.000    0.000    0.000    0.000 
#
# Total GULP energy -297465.876643 kJ/mol
# GULP energy per Si atom -12394.411527 kJ/mol
# Density = 2.309575 g / cm^3
# Si number density = 23.148437 Si / 1000 Ang^3
#
#
#
# Elastic Constant Matrix: (Units=GPa)
#
#
# Indices 1 2 3 4 5 6 
#
# 1 96.0340 28.4708 31.2646 0.0000 0.0000 0.0000
# 2 28.4708 96.0340 31.2646 0.0000 0.0000 0.0000
# 3 31.2646 31.2646 100.0698 0.0000 0.0000 0.0000
# 4 0.0000 0.0000 0.0000 29.8549 0.0000 0.0000
# 5 0.0000 0.0000 0.0000 0.0000 29.8549 0.0000
# 6 0.0000 0.0000 0.0000 0.0000 0.0000 34.3100
#
#
#
# Elastic Compliance Matrix: (Units=1/GPa)
#
#
# Indices 1 2 3 4 5 6 
#
# 1 0.012164 -0.002637 -0.002976 0.000000 0.000000 0.000000
# 2 -0.002637 0.012164 -0.002976 0.000000 0.000000 0.000000
# 3 -0.002976 -0.002976 0.011853 0.000000 0.000000 0.000000
# 4 0.000000 0.000000 0.000000 0.033495 0.000000 0.000000
# 5 0.000000 0.000000 0.000000 0.000000 0.033495 0.000000
# 6 0.000000 0.000000 0.000000 0.000000 0.000000 0.029146
#
#
# Mechanical properties :
#
#
# Convention : Reuss Voigt Hill
#
# Bulk Modulus (GPa) = 52.63004 52.68197 52.65600
# Shear Modulus (GPa) = 32.08614 32.21315 32.14965
#
# Velocity S-wave (km/s) = 3.72708 3.73445 3.73077
# Velocity P-wave (km/s) = 6.42703 6.43448 6.43076
#
# Compressibility (1/GPa) = 0.01900056
#
# Stress axis : x y z
#
# Youngs Moduli (GPa) = 82.21124 82.21125 84.36799
#
# Poissons Ratio (x) = 0.21680 0.25111
# Poissons Ratio (y) = 0.21680 0.25111
# Poissons Ratio (z) = 0.24469 0.24469
#
# Static dielectric constant tensor:
#      x y z
#    x 4.776160 0.000000 0.000000 
#    y 0.000000 4.776160 0.000000 
#    z 0.000000 0.000000 3.813920 
# 
# 
# High freq. dielectric constant tensor:
#      x y z
#    x 1.922910 0.000000 0.000000 
#    y 0.000000 1.922910 0.000000 
#    z 0.000000 0.000000 1.884970 
# 
# From -- ./inp_files/9011.got.cif
#   From: 2010.03.12/outbox.cif.g09.slc.cpg/sg122_5_cif.got.tgz:9011.got - 2010.04.06 16:17:16.
