data_PCOD8312941
_publ_section_title
;
Structure prediction by ZEFSAII (Michael W. Deem and Ramdas Pophale) SiO2 
 PCOD8312941
Probable space group: P 4/M M M
;
_chemical_formula_sum "Si O2"
_cell_formula_units_Z 96
_cell_length_a 24.724538
_cell_length_b 24.724538
_cell_length_c 7.928474
_cell_angle_alpha 90.000000
_cell_angle_beta 90.000000
_cell_angle_gamma 90.000000
_cell_volume 4846.698192
_symmetry_space_group_name_H-M "P 4/M M M"
_symmetry_group_IT_number 123
_symmetry_cell_setting 'tetragonal'
loop_
_space_group_symop_operation_xyz
x,y,z
-y,x,z
-x,-y,z
y,-x,z
x,-y,-z
-x,y,-z
y,x,-z
-y,-x,-z
-x,-y,-z
y,-x,-z
x,y,-z
-y,x,-z
-x,y,z
x,-y,z
-y,-x,z
y,x,z
loop_
_atom_site_type_symbol
_atom_site_label
_atom_site_fract_x
_atom_site_fract_y
_atom_site_fract_z
Si Si1 0.560821 0.647242 0.301356
Si Si2 0.356007 0.729767 0.800384
Si Si3 0.500000 0.063970 0.313377
Si Si4 0.155895 0.317586 0.198648
Si Si5 0.613601 0.940407 0.194493
Si Si6 0.938381 0.846969 0.500000
Si Si7 0.797144 0.113635 0.187672
O O1 0.557837 0.641400 0.500000
O O2 0.500000 0.642838 0.225058
O O3 0.598989 0.598989 0.226596
O O4 0.585718 0.706103 0.255044
O O5 0.310196 0.689805 0.727785
O O6 0.343271 0.789224 0.723307
O O7 0.352970 0.732364 0.000000
O O8 0.500000 0.089413 0.500000
O O9 0.446888 0.083033 0.214355
O O10 0.500000 0.000000 0.322216
O O11 0.103204 0.346575 0.279737
O O12 0.150109 0.254279 0.240215
O O13 0.157117 0.328192 0.000000
O O14 0.620432 0.000000 0.280759
O O15 0.627746 0.946594 0.000000
O O16 0.898687 0.898687 0.500000
O O17 0.930142 0.809859 0.332896
O O18 0.000000 0.868044 0.500000
O O19 0.847732 0.152269 0.175517
O O20 0.787977 0.086881 0.000000
#
# Coordination Sequence:
#
# PCOD8312941 Si02
#       7
#    16  16   8  16  16   8  16
#     4   9  18  33  51  72 100 133 170 213 263 318
#     4   9  17  31  51  73  99 131 166 207 256 311
#     4   9  17  31  47  61  83 119 159 199 246 293
#     4   9  17  31  52  78 103 132 173 213 259 320
#     4   9  17  30  48  68  91 122 162 206 249 299
#     4  10  22  39  58  86 118 151 195 235 278 336
#     4   9  18  35  58  82 113 149 183 227 278 329
#
# _framework density 19.807297999999999
#
# number of rings (size 3 to 8) (size 9 to 14) (size 15 to 20)
#    0.000    2.917    0.000    0.750    0.000    4.583 
#    4.500    2.500    0.000    0.000    0.000    4.667 
#    0.000    0.000    0.000    0.000    0.000    0.000 
#
# Total GULP energy -1189537.892970 kJ/mol
# GULP energy per Si atom -12391.019718 kJ/mol
# Density = 1.976222 g / cm^3
# Si number density = 19.807298 Si / 1000 Ang^3
#
#
#
# Elastic Constant Matrix: (Units=GPa)
#
#
# Indices 1 2 3 4 5 6 
#
# 1 109.4998 52.5501 25.7936 0.0000 0.0000 0.0000
# 2 52.5501 109.4998 25.7936 0.0000 0.0000 0.0000
# 3 25.7936 25.7936 48.1050 0.0000 0.0000 0.0000
# 4 0.0000 0.0000 0.0000 14.6567 0.0000 0.0000
# 5 0.0000 0.0000 0.0000 0.0000 14.6567 0.0000
# 6 0.0000 0.0000 0.0000 0.0000 0.0000 18.7793
#
#
#
# Elastic Compliance Matrix: (Units=1/GPa)
#
#
# Indices 1 2 3 4 5 6 
#
# 1 0.012500 -0.005059 -0.003990 0.000000 0.000000 0.000000
# 2 -0.005059 0.012500 -0.003990 0.000000 0.000000 0.000000
# 3 -0.003990 -0.003990 0.025067 0.000000 0.000000 0.000000
# 4 0.000000 0.000000 0.000000 0.068228 0.000000 0.000000
# 5 0.000000 0.000000 0.000000 0.000000 0.068228 0.000000
# 6 0.000000 0.000000 0.000000 0.000000 0.000000 0.053250
#
#
# Mechanical properties :
#
#
# Convention : Reuss Voigt Hill
#
# Bulk Modulus (GPa) = 41.68533 52.81992 47.25263
# Shear Modulus (GPa) = 18.25835 20.48304 19.37069
#
# Velocity S-wave (km/s) = 3.03941 3.21926 3.13062
# Velocity P-wave (km/s) = 5.78001 6.36733 6.08076
#
# Compressibility (1/GPa) = 0.02398925
#
# Stress axis : x y z
#
# Youngs Moduli (GPa) = 79.99865 79.99865 39.89378
#
# Poissons Ratio (x) = 0.40472 0.15917
# Poissons Ratio (y) = 0.40472 0.15917
# Poissons Ratio (z) = 0.31918 0.31918
#
# Static dielectric constant tensor:
#      x y z
#    x 3.761900 0.000000 0.000000 
#    y 0.000000 3.761900 0.000000 
#    z 0.000000 0.000000 3.530840 
# 
# 
# High freq. dielectric constant tensor:
#      x y z
#    x 1.762580 0.000000 0.000000 
#    y 0.000000 1.762580 0.000000 
#    z 0.000000 0.000000 1.750100 
# 
# From -- ./inp_files/1678.got.cif
#   From: 2010.03.12/outbox.cif.g09.slc.cpg/sg123_1_cif.got.tgz:1678.got - 2010.04.06 16:26:55.
