data_PCOD8312547
_publ_section_title
;
Structure prediction by ZEFSAII (Michael W. Deem and Ramdas Pophale) SiO2 
 PCOD8312547
Probable space group: P 4/M M M
;
_chemical_formula_sum "Si O2"
_cell_formula_units_Z 112
_cell_length_a 18.629537
_cell_length_b 18.629537
_cell_length_c 19.097582
_cell_angle_alpha 90.000000
_cell_angle_beta 90.000000
_cell_angle_gamma 90.000000
_cell_volume 6628.000103
_symmetry_space_group_name_H-M "P 4/M M M"
_symmetry_group_IT_number 123
_symmetry_cell_setting 'tetragonal'
loop_
_space_group_symop_operation_xyz
x,y,z
-y,x,z
-x,-y,z
y,-x,z
x,-y,-z
-x,y,-z
y,x,-z
-y,-x,-z
-x,-y,-z
y,-x,-z
x,y,-z
-y,x,-z
-x,y,z
x,-y,z
-y,-x,z
y,x,z
loop_
_atom_site_type_symbol
_atom_site_label
_atom_site_fract_x
_atom_site_fract_y
_atom_site_fract_z
Si Si1 0.713388 0.917932 0.077257
Si Si2 0.196274 0.687422 0.419440
Si Si3 0.417874 0.800895 0.228002
Si Si4 0.179145 0.581167 0.075586
Si Si5 0.194861 0.080484 0.202498
Si Si6 0.584292 0.300647 0.648417
Si Si7 0.082606 0.675626 0.698473
O O1 0.633417 0.887999 0.078811
O O2 0.765338 0.883044 0.135367
O O3 0.704097 0.000000 0.098576
O O4 0.747790 0.907545 0.000000
O O5 0.173646 0.692021 0.500000
O O6 0.242027 0.757974 0.396590
O O7 0.246326 0.617246 0.408827
O O8 0.122825 0.680034 0.375966
O O9 0.500000 0.821745 0.241181
O O10 0.404262 0.775587 0.146876
O O11 0.397243 0.732913 0.275498
O O12 0.374428 0.872742 0.248146
O O13 0.149695 0.500000 0.077764
O O14 0.220686 0.593495 0.000000
O O15 0.124605 0.124605 0.221219
O O16 0.245096 0.081481 0.270102
O O17 0.170127 0.000000 0.184205
O O18 0.500000 0.310423 0.634521
O O19 0.621409 0.378592 0.643863
O O20 0.000000 0.647780 0.689072
#
# Coordination Sequence:
#
# PCOD8312547 Si02
#       7
#    16  16  16  16  16  16  16
#     4   9  17  29  43  62  89 118 151 191 235 280
#     4   9  18  33  52  72  96 127 156 184 226 279
#     4   9  17  30  46  67  98 131 159 189 229 277
#     4   9  16  26  42  65  94 127 160 193 229 272
#     4  10  20  33  48  65  86 115 152 197 245 287
#     4   9  18  32  51  74  98 127 161 196 235 277
#     4  10  19  31  48  72  96 122 156 190 228 270
#
# _framework density 16.898008000000001
#
# number of rings (size 3 to 8) (size 9 to 14) (size 15 to 20)
#    0.000    2.714    1.429    0.429    0.000    2.286 
#    0.000    2.857    0.000    0.429    0.000    8.000 
#    0.000    0.000    0.000   18.857    0.000    0.000 
#
# Total GULP energy -1387655.798772 kJ/mol
# GULP energy per Si atom -12389.783918 kJ/mol
# Density = 1.685955 g / cm^3
# Si number density = 16.898008 Si / 1000 Ang^3
#
#
#
# Elastic Constant Matrix: (Units=GPa)
#
#
# Indices 1 2 3 4 5 6 
#
# 1 67.0981 26.8946 19.6990 0.0000 0.0000 0.0000
# 2 26.8946 67.0981 19.6990 0.0000 0.0000 0.0000
# 3 19.6990 19.6990 94.1880 0.0000 0.0000 0.0000
# 4 0.0000 0.0000 0.0000 18.3561 0.0000 0.0000
# 5 0.0000 0.0000 0.0000 0.0000 18.3561 0.0000
# 6 0.0000 0.0000 0.0000 0.0000 0.0000 20.5037
#
#
#
# Elastic Compliance Matrix: (Units=1/GPa)
#
#
# Indices 1 2 3 4 5 6 
#
# 1 0.018267 -0.006606 -0.002439 0.000000 0.000000 0.000000
# 2 -0.006606 0.018267 -0.002439 0.000000 0.000000 0.000000
# 3 -0.002439 -0.002439 0.011637 0.000000 0.000000 0.000000
# 4 0.000000 0.000000 0.000000 0.054478 0.000000 0.000000
# 5 0.000000 0.000000 0.000000 0.000000 0.054478 0.000000
# 6 0.000000 0.000000 0.000000 0.000000 0.000000 0.048772
#
#
# Mechanical properties :
#
#
# Convention : Reuss Voigt Hill
#
# Bulk Modulus (GPa) = 39.67565 40.10769 39.89167
# Shear Modulus (GPa) = 21.07318 22.24931 21.66124
#
# Velocity S-wave (km/s) = 3.53523 3.63255 3.58422
# Velocity P-wave (km/s) = 6.33990 6.43277 6.38650
#
# Compressibility (1/GPa) = 0.02520438
#
# Stress axis : x y z
#
# Youngs Moduli (GPa) = 54.74222 54.74222 85.93102
#
# Poissons Ratio (x) = 0.36163 0.20958
# Poissons Ratio (y) = 0.36163 0.20958
# Poissons Ratio (z) = 0.13351 0.13351
#
# Static dielectric constant tensor:
#      x y z
#    x 2.995500 0.000000 0.000000 
#    y 0.000000 2.995500 0.000000 
#    z 0.000000 0.000000 3.438440 
# 
# 
# High freq. dielectric constant tensor:
#      x y z
#    x 1.630960 0.000000 0.000000 
#    y 0.000000 1.630960 0.000000 
#    z 0.000000 0.000000 1.663280 
# 
# From -- ./inp_files/6644.got.cif
#   From: 2010.03.12/outbox.cif.g09.slc.cpg/sg123_4_cif.got.tgz:6644.got - 2010.04.06 16:26:55.
