data_PCOD8312191
_publ_section_title
;
Structure prediction by ZEFSAII (Michael W. Deem and Ramdas Pophale) SiO2 
 PCOD8312191
Probable space group: P 4/M M M
;
_chemical_formula_sum "Si O2"
_cell_formula_units_Z 96
_cell_length_a 23.912056
_cell_length_b 23.912056
_cell_length_c 10.158941
_cell_angle_alpha 90.000000
_cell_angle_beta 90.000000
_cell_angle_gamma 90.000000
_cell_volume 5808.744527
_symmetry_space_group_name_H-M "P 4/M M M"
_symmetry_group_IT_number 123
_symmetry_cell_setting 'tetragonal'
loop_
_space_group_symop_operation_xyz
x,y,z
-y,x,z
-x,-y,z
y,-x,z
x,-y,-z
-x,y,-z
y,x,-z
-y,-x,-z
-x,-y,-z
y,-x,-z
x,y,-z
-y,x,-z
-x,y,z
x,-y,z
-y,-x,z
y,x,z
loop_
_atom_site_type_symbol
_atom_site_label
_atom_site_fract_x
_atom_site_fract_y
_atom_site_fract_z
Si Si1 0.563992 0.655060 0.150214
Si Si2 0.133159 0.621035 0.651394
Si Si3 0.062497 0.274884 0.344311
Si Si4 0.564282 0.247954 0.649496
Si Si5 0.565176 0.061053 0.857630
Si Si6 0.937309 0.150711 0.343378
O O1 0.500000 0.637511 0.175100
O O2 0.600917 0.600917 0.181265
O O3 0.581968 0.704223 0.248668
O O4 0.572778 0.675828 0.000000
O O5 0.115966 0.611230 0.500000
O O6 0.111282 0.681983 0.700750
O O7 0.198971 0.609982 0.670477
O O8 0.103047 0.575750 0.739937
O O9 0.061003 0.272214 0.500000
O O10 0.077620 0.213002 0.290561
O O11 0.000000 0.292547 0.294292
O O12 0.569008 0.270685 0.500000
O O13 0.500000 0.227870 0.675893
O O14 0.500000 0.054825 0.870967
O O15 0.591275 0.000000 0.825565
O O16 0.588922 0.082277 0.000000
O O17 0.933630 0.149596 0.500000
O O18 0.893505 0.106496 0.281754
O O19 0.000000 0.134242 0.298324
#
# Coordination Sequence:
#
# PCOD8312191 Si02
#       6
#    16  16  16  16  16  16
#     4   9  18  33  53  75  96 118 145 177 216 265
#     4  10  18  28  44  64  84 113 156 194 221 259
#     4   8  14  24  37  55  80 108 140 182 227 263
#     4   9  18  31  45  64  92 121 148 183 223 259
#     4   9  18  30  41  57  84 114 144 185 237 283
#     4   8  13  21  33  50  75 107 140 175 217 264
#
# _framework density 16.526807999999999
#
# number of rings (size 3 to 8) (size 9 to 14) (size 15 to 20)
#    0.000    3.167    0.000    2.500    0.000    3.333 
#    0.000    5.000    0.000    3.000    0.000    2.333 
#    0.000    0.000    0.000    0.500    0.000    0.833 
#
# Total GULP energy -1189327.901629 kJ/mol
# GULP energy per Si atom -12388.832309 kJ/mol
# Density = 1.648919 g / cm^3
# Si number density = 16.526808 Si / 1000 Ang^3
#
#
#
# Elastic Constant Matrix: (Units=GPa)
#
#
# Indices 1 2 3 4 5 6 
#
# 1 99.0664 67.3485 41.7844 0.0000 0.0000 0.0000
# 2 67.3485 99.0664 41.7844 0.0000 0.0000 0.0000
# 3 41.7844 41.7844 66.3243 0.0000 0.0000 0.0000
# 4 0.0000 0.0000 0.0000 15.7716 0.0000 0.0000
# 5 0.0000 0.0000 0.0000 0.0000 15.7716 0.0000
# 6 0.0000 0.0000 0.0000 0.0000 0.0000 31.5562
#
#
#
# Elastic Compliance Matrix: (Units=1/GPa)
#
#
# Indices 1 2 3 4 5 6 
#
# 1 0.020159 -0.011369 -0.005538 0.000000 0.000000 0.000000
# 2 -0.011369 0.020159 -0.005538 0.000000 0.000000 0.000000
# 3 -0.005538 -0.005538 0.022055 0.000000 0.000000 0.000000
# 4 0.000000 0.000000 0.000000 0.063405 0.000000 0.000000
# 5 0.000000 0.000000 0.000000 0.000000 0.063405 0.000000
# 6 0.000000 0.000000 0.000000 0.000000 0.000000 0.031689
#
#
# Mechanical properties :
#
#
# Convention : Reuss Voigt Hill
#
# Bulk Modulus (GPa) = 57.19485 62.92130 60.05808
# Shear Modulus (GPa) = 18.41016 20.18921 19.29969
#
# Velocity S-wave (km/s) = 3.34122 3.49894 3.42099
# Velocity P-wave (km/s) = 7.04042 7.38094 7.21269
#
# Compressibility (1/GPa) = 0.01748409
#
# Stress axis : x y z
#
# Youngs Moduli (GPa) = 49.60580 49.60580 45.34141
#
# Poissons Ratio (x) = 0.56397 0.25109
# Poissons Ratio (y) = 0.56397 0.25109
# Poissons Ratio (z) = 0.27470 0.27470
#
# Static dielectric constant tensor:
#      x y z
#    x 3.169970 0.000000 0.000000 
#    y 0.000000 3.169970 0.000000 
#    z 0.000000 0.000000 2.923430 
# 
# 
# High freq. dielectric constant tensor:
#      x y z
#    x 1.626370 0.000000 0.000000 
#    y 0.000000 1.626370 0.000000 
#    z 0.000000 0.000000 1.606250 
# 
# From -- ./inp_files/1567.got.cif
#   From: 2010.03.12/outbox.cif.g09.slc.cpg/sg123_1_cif.got.tgz:1567.got - 2010.04.06 16:26:55.
