data_PCOD8312946
_publ_section_title
;
Structure prediction by ZEFSAII (Michael W. Deem and Ramdas Pophale) SiO2 
 PCOD8312946
Probable space group: P 4/M M M
;
_chemical_formula_sum "Si O2"
_cell_formula_units_Z 120
_cell_length_a 28.049911
_cell_length_b 28.049911
_cell_length_c 7.894837
_cell_angle_alpha 90.000000
_cell_angle_beta 90.000000
_cell_angle_gamma 90.000000
_cell_volume 6211.638071
_symmetry_space_group_name_H-M "P 4/M M M"
_symmetry_group_IT_number 123
_symmetry_cell_setting 'tetragonal'
loop_
_space_group_symop_operation_xyz
x,y,z
-y,x,z
-x,-y,z
y,-x,z
x,-y,-z
-x,y,-z
y,x,-z
-y,-x,-z
-x,-y,-z
y,-x,-z
x,y,-z
-y,x,-z
-x,y,z
x,-y,z
-y,-x,z
y,x,z
loop_
_atom_site_type_symbol
_atom_site_label
_atom_site_fract_x
_atom_site_fract_y
_atom_site_fract_z
Si Si1 0.873613 0.204997 0.306542
Si Si2 0.634630 0.443844 0.000000
Si Si3 0.392743 0.314676 0.697511
Si Si4 0.132934 0.307989 0.190017
Si Si5 0.553044 0.127282 0.702756
Si Si6 0.127928 0.053103 0.298040
Si Si7 0.627210 0.947542 0.303700
Si Si8 0.207965 0.378578 0.696405
O O1 0.881303 0.220964 0.500000
O O2 0.827043 0.172958 0.288607
O O3 0.866171 0.251159 0.193145
O O4 0.919555 0.175708 0.239449
O O5 0.663412 0.431491 0.173029
O O6 0.623719 0.500000 0.000000
O O7 0.584630 0.415370 0.000000
O O8 0.411152 0.315644 0.500000
O O9 0.343673 0.343673 0.711190
O O10 0.381146 0.261557 0.768244
O O11 0.084695 0.325826 0.280508
O O12 0.181714 0.328154 0.271751
O O13 0.131205 0.326583 0.000000
O O14 0.552977 0.127615 0.500000
O O15 0.500000 0.125769 0.777866
O O16 0.581618 0.080993 0.770940
O O17 0.579154 0.174878 0.772209
O O18 0.126731 0.052104 0.500000
O O19 0.081376 0.081376 0.230896
O O20 0.127732 0.000000 0.220795
O O21 0.619073 0.955599 0.500000
O O22 0.632265 0.000000 0.216646
O O23 0.213240 0.386530 0.500000
#
# Coordination Sequence:
#
# PCOD8312946 Si02
#       8
#    16   8  16  16  16  16  16  16
#     4   9  18  33  50  68  95 130 167 203 240 293
#     4  10  22  39  60  88 122 158 197 241 283 331
#     4   9  19  36  58  84 116 154 194 237 283 333
#     4  11  22  33  49  73 102 132 167 215 266 318
#     4   8  14  26  46  73 100 123 156 207 258 304
#     4   8  14  25  43  68  95 122 153 193 244 302
#     4   9  18  33  51  69  93 129 171 212 256 309
#     4   9  18  33  53  76 105 139 176 216 264 322
#
# _framework density 19.318577000000001
#
# number of rings (size 3 to 8) (size 9 to 14) (size 15 to 20)
#    0.000    2.933    0.000    2.800    0.933    2.867 
#    0.000    6.000    0.000    3.600    0.000    5.600 
#    0.000    0.000    0.000    2.933    0.000    2.933 
#
# Total GULP energy -1487155.163051 kJ/mol
# GULP energy per Si atom -12392.959692 kJ/mol
# Density = 1.927461 g / cm^3
# Si number density = 19.318577 Si / 1000 Ang^3
#
#
#
# Elastic Constant Matrix: (Units=GPa)
#
#
# Indices 1 2 3 4 5 6 
#
# 1 152.7335 59.6866 22.4732 0.0000 0.0000 0.0000
# 2 59.6866 152.7339 22.4731 0.0000 0.0000 0.0000
# 3 22.4732 22.4731 40.4439 0.0000 0.0000 0.0000
# 4 0.0000 0.0000 0.0000 8.3493 0.0000 0.0000
# 5 0.0000 0.0000 0.0000 0.0000 8.3495 0.0000
# 6 0.0000 0.0000 0.0000 0.0000 0.0000 5.0035
#
#
#
# Elastic Compliance Matrix: (Units=1/GPa)
#
#
# Indices 1 2 3 4 5 6 
#
# 1 0.008041 -0.002706 -0.002964 0.000000 0.000000 0.000000
# 2 -0.002706 0.008041 -0.002964 0.000000 0.000000 0.000000
# 3 -0.002964 -0.002964 0.028020 0.000000 0.000000 0.000000
# 4 0.000000 0.000000 0.000000 0.119771 0.000000 0.000000
# 5 0.000000 0.000000 0.000000 0.000000 0.119767 0.000000
# 6 0.000000 0.000000 0.000000 0.000000 0.000000 0.199860
#
#
# Mechanical properties :
#
#
# Convention : Reuss Voigt Hill
#
# Bulk Modulus (GPa) = 37.26863 61.68634 49.47749
# Shear Modulus (GPa) = 9.80943 20.42570 15.11757
#
# Velocity S-wave (km/s) = 2.25582 3.25516 2.80043
# Velocity P-wave (km/s) = 5.11062 6.79179 6.01028
#
# Compressibility (1/GPa) = 0.02683222
#
# Stress axis : x y z
#
# Youngs Moduli (GPa) = 124.36143 124.36185 35.68876
#
# Poissons Ratio (x) = 0.33655 0.10580
# Poissons Ratio (y) = 0.33654 0.10580
# Poissons Ratio (z) = 0.36866 0.36866
#
# Static dielectric constant tensor:
#      x y z
#    x 3.697220 0.000000 0.000000 
#    y 0.000000 3.697230 0.000000 
#    z 0.000000 0.000000 3.254490 
# 
# 
# High freq. dielectric constant tensor:
#      x y z
#    x 1.747900 0.000000 0.000000 
#    y 0.000000 1.747900 0.000000 
#    z 0.000000 0.000000 1.727710 
# 
# From -- ./inp_files/2000.got.cif
#   From: 2010.03.12/outbox.cif.g09.slc.cpg/sg123_1_cif.got.tgz:2000.got - 2010.04.06 16:26:55.
