data_PCOD8312346
_publ_section_title
;
Structure prediction by ZEFSAII (Michael W. Deem and Ramdas Pophale) SiO2 
 PCOD8312346
Probable space group: P 4/M M M
;
_chemical_formula_sum "Si O2"
_cell_formula_units_Z 112
_cell_length_a 13.886554
_cell_length_b 13.886554
_cell_length_c 35.493948
_cell_angle_alpha 90.000000
_cell_angle_beta 90.000000
_cell_angle_gamma 90.000000
_cell_volume 6844.524515
_symmetry_space_group_name_H-M "P 4/M M M"
_symmetry_group_IT_number 123
_symmetry_cell_setting 'tetragonal'
loop_
_space_group_symop_operation_xyz
x,y,z
-y,x,z
-x,-y,z
y,-x,z
x,-y,-z
-x,y,-z
y,x,-z
-y,-x,-z
-x,-y,-z
y,-x,-z
x,y,-z
-y,x,-z
-x,y,z
x,-y,z
-y,-x,z
y,x,z
loop_
_atom_site_type_symbol
_atom_site_label
_atom_site_fract_x
_atom_site_fract_y
_atom_site_fract_z
Si Si1 0.607445 0.885777 0.958259
Si Si2 0.388805 0.110637 0.817078
Si Si3 0.767565 0.387366 0.254865
Si Si4 0.112965 0.729778 0.400972
Si Si5 0.390060 0.888963 0.672667
Si Si6 0.113165 0.733467 0.110424
Si Si7 0.765767 0.389626 0.543789
O O1 0.500000 0.844453 0.951365
O O2 0.678962 0.845853 0.926474
O O3 0.603142 0.000000 0.954994
O O4 0.643991 0.855184 0.000000
O O5 0.500000 0.128697 0.826779
O O6 0.354605 0.172895 0.781651
O O7 0.328989 0.141996 0.853424
O O8 0.370149 0.000000 0.806500
O O9 0.745848 0.500000 0.254212
O O10 0.665765 0.334236 0.255349
O O11 0.827624 0.357302 0.291536
O O12 0.168971 0.831030 0.403326
O O13 0.138242 0.678868 0.361698
O O14 0.145590 0.658209 0.434156
O O15 0.000000 0.750830 0.405385
O O16 0.500000 0.865686 0.661019
O O17 0.379398 0.000000 0.684010
O O18 0.163114 0.836887 0.113154
O O19 0.000000 0.751971 0.107947
O O20 0.792012 0.382514 0.500000
O O21 0.751591 0.500000 0.556486
O O22 0.666615 0.333386 0.552998
#
# Coordination Sequence:
#
# PCOD8312346 Si02
#       7
#    16  16  16  16  16  16  16
#     4   8  14  26  44  63  81 103 135 177 220 252
#     4   9  17  30  48  67  84 105 140 187 232 263
#     4  10  19  30  45  65  91 120 146 175 213 261
#     4  10  20  33  49  69  94 124 158 196 235 274
#     4   9  17  30  49  71  91 113 146 187 229 270
#     4  10  19  29  42  61  87 118 147 174 207 252
#     4   9  18  32  50  73  99 125 154 189 230 277
#
# _framework density 16.363444000000001
#
# number of rings (size 3 to 8) (size 9 to 14) (size 15 to 20)
#    0.000    2.714    0.000    2.571    0.000    5.429 
#    0.000    1.429    0.000    0.000    0.000    6.000 
#    0.000   12.857    0.000    6.286    0.000    0.571 
#
# Total GULP energy -1388747.992259 kJ/mol
# GULP energy per Si atom -12399.535645 kJ/mol
# Density = 1.632620 g / cm^3
# Si number density = 16.363444 Si / 1000 Ang^3
#
#
#
# Elastic Constant Matrix: (Units=GPa)
#
#
# Indices 1 2 3 4 5 6 
#
# 1 83.0092 52.7557 56.8836 0.0000 0.0000 0.0000
# 2 52.7557 83.0092 56.8836 0.0000 0.0000 0.0000
# 3 56.8836 56.8836 110.5424 0.0000 0.0000 0.0000
# 4 0.0000 0.0000 0.0000 19.6815 0.0000 0.0000
# 5 0.0000 0.0000 0.0000 0.0000 19.6815 0.0000
# 6 0.0000 0.0000 0.0000 0.0000 0.0000 23.1798
#
#
#
# Elastic Compliance Matrix: (Units=1/GPa)
#
#
# Indices 1 2 3 4 5 6 
#
# 1 0.023002 -0.010052 -0.006664 0.000000 0.000000 0.000000
# 2 -0.010052 0.023002 -0.006664 0.000000 0.000000 0.000000
# 3 -0.006664 -0.006664 0.015904 0.000000 0.000000 0.000000
# 4 0.000000 0.000000 0.000000 0.050809 0.000000 0.000000
# 5 0.000000 0.000000 0.000000 0.000000 0.050809 0.000000
# 6 0.000000 0.000000 0.000000 0.000000 0.000000 0.043141
#
#
# Mechanical properties :
#
#
# Convention : Reuss Voigt Hill
#
# Bulk Modulus (GPa) = 66.01147 67.73410 66.87278
# Shear Modulus (GPa) = 19.34412 19.84441 19.59427
#
# Velocity S-wave (km/s) = 3.44198 3.48620 3.46416
# Velocity P-wave (km/s) = 7.49831 7.59528 7.54695
#
# Compressibility (1/GPa) = 0.01514888
#
# Stress axis : x y z
#
# Youngs Moduli (GPa) = 43.47473 43.47473 62.87546
#
# Poissons Ratio (x) = 0.43701 0.41899
# Poissons Ratio (y) = 0.43701 0.41899
# Poissons Ratio (z) = 0.28970 0.28970
#
# Static dielectric constant tensor:
#      x y z
#    x 2.927750 0.000000 0.000000 
#    y 0.000000 2.927750 0.000000 
#    z 0.000000 0.000000 3.284000 
# 
# 
# High freq. dielectric constant tensor:
#      x y z
#    x 1.614900 0.000000 0.000000 
#    y 0.000000 1.614900 0.000000 
#    z 0.000000 0.000000 1.644650 
# 
# From -- ./inp_files/8730.got.cif
#   From: 2010.03.12/outbox.cif.g09.slc.cpg/sg123_5_cif.got.tgz:8730.got - 2010.04.06 16:26:55.
