data_PCOD8312457
_publ_section_title
;
Structure prediction by ZEFSAII (Michael W. Deem and Ramdas Pophale) SiO2 
 PCOD8312457
Probable space group: P 4/M M M
;
_chemical_formula_sum "Si O2"
_cell_formula_units_Z 88
_cell_length_a 13.740448
_cell_length_b 13.740448
_cell_length_c 28.351563
_cell_angle_alpha 90.000000
_cell_angle_beta 90.000000
_cell_angle_gamma 90.000000
_cell_volume 5352.772578
_symmetry_space_group_name_H-M "P 4/M M M"
_symmetry_group_IT_number 123
_symmetry_cell_setting 'tetragonal'
loop_
_space_group_symop_operation_xyz
x,y,z
-y,x,z
-x,-y,z
y,-x,z
x,-y,-z
-x,y,-z
y,x,-z
-y,-x,-z
-x,-y,-z
y,-x,-z
x,y,-z
-y,x,-z
-x,y,z
x,-y,z
-y,-x,z
y,x,z
loop_
_atom_site_type_symbol
_atom_site_label
_atom_site_fract_x
_atom_site_fract_y
_atom_site_fract_z
Si Si1 0.273792 0.114859 0.316329
Si Si2 0.390945 0.115052 0.408178
Si Si3 0.891888 0.384560 0.051575
Si Si4 0.387125 0.772295 0.758955
Si Si5 0.726796 0.884763 0.500000
Si Si6 0.236383 0.610654 0.134967
O O1 0.170980 0.170980 0.313276
O O2 0.330063 0.150076 0.363062
O O3 0.342949 0.141300 0.272441
O O4 0.251880 0.000000 0.316275
O O5 0.500000 0.160417 0.407172
O O6 0.335161 0.149198 0.454926
O O7 0.399878 0.000000 0.407817
O O8 0.896833 0.500000 0.056919
O O9 0.831095 0.339693 0.094985
O O10 0.000000 0.340856 0.055277
O O11 0.847274 0.357005 0.000000
O O12 0.500000 0.753317 0.746086
O O13 0.328018 0.671983 0.750222
O O14 0.376819 0.809497 0.812939
O O15 0.830494 0.830494 0.500000
O O16 0.748470 0.000000 0.500000
O O17 0.254843 0.500000 0.121863
O O18 0.341615 0.658386 0.133561
#
# Coordination Sequence:
#
# PCOD8312457 Si02
#       6
#    16  16  16  16   8  16
#     4  10  20  33  49  70  96 124 154 189 230 279
#     4   9  17  30  48  68  90 118 152 190 231 271
#     4   8  14  25  40  57  78 106 141 180 219 256
#     4   9  18  31  46  66  91 119 153 191 231 275
#     4  10  19  30  45  67  96 128 161 195 232 279
#     4   9  17  28  42  62  88 116 145 177 215 263
#
# _framework density 16.440079000000001
#
# number of rings (size 3 to 8) (size 9 to 14) (size 15 to 20)
#    0.000    2.909    0.000    1.909    0.000    3.909 
#    0.000    3.636    0.000    3.273    0.000    2.545 
#    0.000   14.182    0.000    2.000    0.000    0.182 
#
# Total GULP energy -1090706.044159 kJ/mol
# GULP energy per Si atom -12394.386865 kJ/mol
# Density = 1.640266 g / cm^3
# Si number density = 16.440079 Si / 1000 Ang^3
#
#
#
# Elastic Constant Matrix: (Units=GPa)
#
#
# Indices 1 2 3 4 5 6 
#
# 1 75.8147 36.1795 48.9807 0.0000 0.0000 0.0000
# 2 36.1795 75.8147 48.9807 0.0000 0.0000 0.0000
# 3 48.9807 48.9807 134.1476 0.0000 0.0000 0.0000
# 4 0.0000 0.0000 0.0000 23.8001 0.0000 0.0000
# 5 0.0000 0.0000 0.0000 0.0000 23.8001 0.0000
# 6 0.0000 0.0000 0.0000 0.0000 0.0000 12.3905
#
#
#
# Elastic Compliance Matrix: (Units=1/GPa)
#
#
# Indices 1 2 3 4 5 6 
#
# 1 0.019174 -0.006056 -0.004790 0.000000 0.000000 0.000000
# 2 -0.006056 0.019174 -0.004790 0.000000 0.000000 0.000000
# 3 -0.004790 -0.004790 0.010952 0.000000 0.000000 0.000000
# 4 0.000000 0.000000 0.000000 0.042017 0.000000 0.000000
# 5 0.000000 0.000000 0.000000 0.000000 0.042017 0.000000
# 6 0.000000 0.000000 0.000000 0.000000 0.000000 0.080707
#
#
# Mechanical properties :
#
#
# Convention : Reuss Voigt Hill
#
# Bulk Modulus (GPa) = 55.46304 61.56209 58.51256
# Shear Modulus (GPa) = 19.89470 22.10720 21.00095
#
# Velocity S-wave (km/s) = 3.48247 3.67101 3.57798
# Velocity P-wave (km/s) = 7.06964 7.44957 7.26209
#
# Compressibility (1/GPa) = 0.01803003
#
# Stress axis : x y z
#
# Youngs Moduli (GPa) = 52.15263 52.15263 91.30403
#
# Poissons Ratio (x) = 0.31581 0.43735
# Poissons Ratio (y) = 0.31581 0.43735
# Poissons Ratio (z) = 0.24981 0.24981
#
# Static dielectric constant tensor:
#      x y z
#    x 2.940650 0.000000 0.000000 
#    y 0.000000 2.940650 0.000000 
#    z 0.000000 0.000000 3.456590 
# 
# 
# High freq. dielectric constant tensor:
#      x y z
#    x 1.608880 0.000000 0.000000 
#    y 0.000000 1.608880 0.000000 
#    z 0.000000 0.000000 1.653850 
# 
# From -- ./inp_files/7226.got.cif
#   From: 2010.03.12/outbox.cif.g09.slc.cpg/sg123_4_cif.got.tgz:7226.got - 2010.04.06 16:26:55.
