data_PCOD8312002
_publ_section_title
;
Structure prediction by ZEFSAII (Michael W. Deem and Ramdas Pophale) SiO2 
 PCOD8312002
Probable space group: I -4 2 D
;
_chemical_formula_sum "Si O2"
_cell_formula_units_Z 60
_cell_length_a 10.859433
_cell_length_b 10.859433
_cell_length_c 23.614365
_cell_angle_alpha 90.000000
_cell_angle_beta 90.000000
_cell_angle_gamma 90.000000
_cell_volume 2784.777953
_symmetry_space_group_name_H-M "I -4 2 D"
_symmetry_group_IT_number 122
_symmetry_cell_setting 'tetragonal'
loop_
_space_group_symop_operation_xyz
x,y,z
y,-x,-z
-x,-y,z
-y,x,-z
x,1/2-y,1/4-z
-x,1/2+y,1/4-z
-y,1/2-x,1/4+z
y,1/2+x,1/4+z
1/2+x,1/2+y,1/2+z
1/2+y,1/2-x,1/2-z
1/2-x,1/2-y,1/2+z
1/2-y,1/2+x,1/2-z
1/2+x,-y,3/4-z
1/2-x,y,3/4-z
1/2-y,-x,3/4+z
1/2+y,x,3/4+z
loop_
_atom_site_type_symbol
_atom_site_label
_atom_site_fract_x
_atom_site_fract_y
_atom_site_fract_z
Si Si1 0.141130 0.361319 0.658249
Si Si2 0.000000 0.500000 0.750000
Si Si3 0.250000 0.084971 0.875000
Si Si4 0.970564 0.725594 0.328427
Si Si5 0.876483 0.729414 0.208270
O O1 0.073806 0.250000 0.625000
O O2 0.159757 0.475291 0.614622
O O3 0.272480 0.313456 0.680343
O O4 0.057991 0.394717 0.711336
O O5 0.122758 0.160108 0.878422
O O6 0.231646 0.005222 0.818727
O O7 0.886700 0.762674 0.274588
O O8 0.084100 0.643844 0.304611
#
# Coordination Sequence:
#
# PCOD8312002 Si02
#       5
#    16   4   8  16  16
#     4  10  26  47  64  98 134 169 231 283 331 419
#     4  12  28  48  76  88 136 188 224 292 354 412
#     4  12  22  34  68  98 134 180 220 272 350 396
#     4  11  23  38  64  98 135 174 218 277 339 399
#     4  11  22  39  63  97 138 172 222 281 327 403
#
# _framework density 21.545703
#
# number of rings (size 3 to 8) (size 9 to 14) (size 15 to 20)
#    0.000    1.067    6.667    0.800    3.733    2.133 
#    0.000    0.000    0.000    0.000    0.000    0.000 
#    0.000    0.000    0.000    0.000    0.000    0.000 
#
# Total GULP energy -371942.697702 kJ/mol
# GULP energy per Si atom -12398.089923 kJ/mol
# Density = 2.149666 g / cm^3
# Si number density = 21.545703 Si / 1000 Ang^3
#
#
#
# Elastic Constant Matrix: (Units=GPa)
#
#
# Indices 1 2 3 4 5 6 
#
# 1 70.2331 34.4014 40.5763 0.0000 0.0000 0.0000
# 2 34.4014 70.2331 40.5763 0.0000 0.0000 0.0000
# 3 40.5763 40.5763 135.0411 0.0000 0.0000 0.0000
# 4 0.0000 0.0000 0.0000 38.7604 0.0000 0.0000
# 5 0.0000 0.0000 0.0000 0.0000 38.7604 0.0000
# 6 0.0000 0.0000 0.0000 0.0000 0.0000 16.3778
#
#
#
# Elastic Compliance Matrix: (Units=1/GPa)
#
#
# Indices 1 2 3 4 5 6 
#
# 1 0.020185 -0.007724 -0.003744 0.000000 0.000000 0.000000
# 2 -0.007724 0.020185 -0.003744 0.000000 0.000000 0.000000
# 3 -0.003744 -0.003744 0.009655 0.000000 0.000000 0.000000
# 4 0.000000 0.000000 0.000000 0.025800 0.000000 0.000000
# 5 0.000000 0.000000 0.000000 0.000000 0.025800 0.000000
# 6 0.000000 0.000000 0.000000 0.000000 0.000000 0.061058
#
#
# Mechanical properties :
#
#
# Convention : Reuss Voigt Hill
#
# Bulk Modulus (GPa) = 51.01929 56.29060 53.65494
# Shear Modulus (GPa) = 25.04515 29.44326 27.24420
#
# Velocity S-wave (km/s) = 3.41313 3.70070 3.55982
# Velocity P-wave (km/s) = 6.26606 6.66656 6.46941
#
# Compressibility (1/GPa) = 0.01960043
#
# Stress axis : x y z
#
# Youngs Moduli (GPa) = 49.54265 49.54265 103.57086
#
# Poissons Ratio (x) = 0.38265 0.38779
# Poissons Ratio (y) = 0.38265 0.38779
# Poissons Ratio (z) = 0.18550 0.18550
#
# Static dielectric constant tensor:
#      x y z
#    x 3.865330 0.000000 0.000000 
#    y 0.000000 3.865330 0.000000 
#    z 0.000000 0.000000 4.289690 
# 
# 
# High freq. dielectric constant tensor:
#      x y z
#    x 1.831140 0.000000 0.000000 
#    y 0.000000 1.831140 0.000000 
#    z 0.000000 0.000000 1.865630 
# 
# From -- ./inp_files/6953.got.cif
#   From: 2010.03.12/outbox.cif.g09.slc.cpg/sg122_4_cif.got.tgz:6953.got - 2010.04.06 16:17:16.
