data_PCOD8312446
_publ_section_title
;
Structure prediction by ZEFSAII (Michael W. Deem and Ramdas Pophale) SiO2 
 PCOD8312446
Probable space group: P 4/M M M
;
_chemical_formula_sum "Si O2"
_cell_formula_units_Z 88
_cell_length_a 14.047483
_cell_length_b 14.047483
_cell_length_c 28.400067
_cell_angle_alpha 90.000000
_cell_angle_beta 90.000000
_cell_angle_gamma 90.000000
_cell_volume 5604.235734
_symmetry_space_group_name_H-M "P 4/M M M"
_symmetry_group_IT_number 123
_symmetry_cell_setting 'tetragonal'
loop_
_space_group_symop_operation_xyz
x,y,z
-y,x,z
-x,-y,z
y,-x,z
x,-y,-z
-x,y,-z
y,x,-z
-y,-x,-z
-x,-y,-z
y,-x,-z
x,y,-z
-y,x,-z
-x,y,z
x,-y,z
-y,-x,z
y,x,z
loop_
_atom_site_type_symbol
_atom_site_label
_atom_site_fract_x
_atom_site_fract_y
_atom_site_fract_z
Si Si1 0.892953 0.612298 0.500000
Si Si2 0.390497 0.235104 0.761916
Si Si3 0.105811 0.612912 0.051836
Si Si4 0.760237 0.390979 0.132427
Si Si5 0.230954 0.386896 0.589214
Si Si6 0.387607 0.894088 0.322537
O O1 0.903299 0.500000 0.500000
O O2 0.834879 0.645128 0.545762
O O3 0.000000 0.656850 0.500000
O O4 0.500000 0.263072 0.751892
O O5 0.329825 0.329825 0.752755
O O6 0.377716 0.196190 0.815224
O O7 0.355978 0.151579 0.727164
O O8 0.101335 0.500000 0.056844
O O9 0.169761 0.655742 0.093747
O O10 0.000000 0.655241 0.057581
O O11 0.146402 0.640729 0.000000
O O12 0.740872 0.500000 0.120415
O O13 0.658534 0.341467 0.129065
O O14 0.253022 0.500000 0.588741
O O15 0.331362 0.331362 0.587043
O O16 0.173955 0.353378 0.635448
O O17 0.500000 0.904043 0.325221
O O18 0.342155 0.000000 0.326845
#
# Coordination Sequence:
#
# PCOD8312446 Si02
#       6
#     8  16  16  16  16  16
#     4   9  17  30  47  65  87 117 151 185 219 250
#     4   9  17  28  41  59  84 112 141 171 202 242
#     4   8  14  25  40  56  74  99 133 172 212 249
#     4   9  17  27  39  57  82 112 142 169 198 236
#     4  10  19  30  45  66  93 122 149 176 206 247
#     4   9  17  29  44  61  82 109 141 179 219 250
#
# _framework density 15.70241
#
# number of rings (size 3 to 8) (size 9 to 14) (size 15 to 20)
#    0.000    3.000    0.000    1.909    0.000    3.818 
#    0.000    5.455    0.000    4.909    0.000    2.545 
#    0.000   28.000    0.000   10.000    0.000    5.273 
#
# Total GULP energy -1090666.986683 kJ/mol
# GULP energy per Si atom -12393.943030 kJ/mol
# Density = 1.566667 g / cm^3
# Si number density = 15.702410 Si / 1000 Ang^3
#
#
#
# Elastic Constant Matrix: (Units=GPa)
#
#
# Indices 1 2 3 4 5 6 
#
# 1 65.6825 35.5466 47.3227 0.0000 0.0000 0.0000
# 2 35.5466 65.6825 47.3227 0.0000 0.0000 0.0000
# 3 47.3227 47.3227 132.6142 0.0000 0.0000 0.0000
# 4 0.0000 0.0000 0.0000 20.7809 0.0000 0.0000
# 5 0.0000 0.0000 0.0000 0.0000 20.7809 0.0000
# 6 0.0000 0.0000 0.0000 0.0000 0.0000 4.5543
#
#
#
# Elastic Compliance Matrix: (Units=1/GPa)
#
#
# Indices 1 2 3 4 5 6 
#
# 1 0.024004 -0.009179 -0.005290 0.000000 0.000000 0.000000
# 2 -0.009179 0.024004 -0.005290 0.000000 0.000000 0.000000
# 3 -0.005290 -0.005290 0.011316 0.000000 0.000000 0.000000
# 4 0.000000 0.000000 0.000000 0.048121 0.000000 0.000000
# 5 0.000000 0.000000 0.000000 0.000000 0.048121 0.000000
# 6 0.000000 0.000000 0.000000 0.000000 0.000000 0.219575
#
#
# Mechanical properties :
#
#
# Convention : Reuss Voigt Hill
#
# Bulk Modulus (GPa) = 50.49222 58.26258 54.37740
# Shear Modulus (GPa) = 11.86910 18.14233 15.00571
#
# Velocity S-wave (km/s) = 2.75231 3.40278 3.09468
# Velocity P-wave (km/s) = 6.50583 7.25420 6.89018
#
# Compressibility (1/GPa) = 0.01980503
#
# Stress axis : x y z
#
# Youngs Moduli (GPa) = 41.65996 41.65996 88.36921
#
# Poissons Ratio (x) = 0.38241 0.46748
# Poissons Ratio (y) = 0.38241 0.46748
# Poissons Ratio (z) = 0.22039 0.22039
#
# Static dielectric constant tensor:
#      x y z
#    x 2.824860 0.000000 0.000000 
#    y 0.000000 2.824860 0.000000 
#    z 0.000000 0.000000 3.362630 
# 
# 
# High freq. dielectric constant tensor:
#      x y z
#    x 1.569900 0.000000 0.000000 
#    y 0.000000 1.569900 0.000000 
#    z 0.000000 0.000000 1.626090 
# 
# From -- ./inp_files/8010.got.cif
#   From: 2010.03.12/outbox.cif.g09.slc.cpg/sg123_5_cif.got.tgz:8010.got - 2010.04.06 16:26:55.
