data_PCOD8312176
_publ_section_title
;
Structure prediction by ZEFSAII (Michael W. Deem and Ramdas Pophale) SiO2 
 PCOD8312176
Probable space group: P 4/M M M
;
_chemical_formula_sum "Si O2"
_cell_formula_units_Z 112
_cell_length_a 18.903642
_cell_length_b 18.903642
_cell_length_c 19.157929
_cell_angle_alpha 90.000000
_cell_angle_beta 90.000000
_cell_angle_gamma 90.000000
_cell_volume 6846.041498
_symmetry_space_group_name_H-M "P 4/M M M"
_symmetry_group_IT_number 123
_symmetry_cell_setting 'tetragonal'
loop_
_space_group_symop_operation_xyz
x,y,z
-y,x,z
-x,-y,z
y,-x,z
x,-y,-z
-x,y,-z
y,x,-z
-y,-x,-z
-x,-y,-z
y,-x,-z
x,y,-z
-y,x,-z
-x,y,z
x,-y,z
-y,-x,z
y,x,z
loop_
_atom_site_type_symbol
_atom_site_label
_atom_site_fract_x
_atom_site_fract_y
_atom_site_fract_z
Si Si1 0.917194 0.802928 0.173677
Si Si2 0.160698 0.580827 0.814757
Si Si3 0.671969 0.083126 0.078756
Si Si4 0.834378 0.718102 0.278888
Si Si5 0.693064 0.419588 0.367370
Si Si6 0.799553 0.682085 0.575492
Si Si7 0.686310 0.423520 0.795346
O O1 0.875339 0.875339 0.157975
O O2 0.896021 0.746342 0.114279
O O3 0.894192 0.770010 0.248096
O O4 0.000000 0.820593 0.174570
O O5 0.138301 0.500000 0.790939
O O6 0.114842 0.604771 0.880786
O O7 0.156410 0.640099 0.754198
O O8 0.241955 0.578827 0.839868
O O9 0.661746 0.000000 0.080561
O O10 0.672797 0.112397 0.000000
O O11 0.756155 0.756155 0.266964
O O12 0.850350 0.708297 0.361601
O O13 0.679518 0.500000 0.388846
O O14 0.624321 0.375680 0.391447
O O15 0.764344 0.393131 0.405138
O O16 0.705930 0.409043 0.285128
O O17 0.839492 0.676341 0.500000
O O18 0.736469 0.736469 0.567903
O O19 0.649365 0.500000 0.801810
O O20 0.633508 0.366493 0.827171
#
# Coordination Sequence:
#
# PCOD8312176 Si02
#       7
#    16  16  16  16  16  16  16
#     4   9  18  32  52  77 102 128 154 180 214 260
#     4  10  18  27  44  67  89 117 155 199 241 278
#     4   9  19  35  51  69  97 129 156 181 214 262
#     4   9  16  29  47  64  89 124 158 193 235 284
#     4   9  16  25  36  52  78 112 150 194 242 290
#     4   9  16  25  39  59  81 109 150 197 237 273
#     4   9  16  26  40  58  82 112 148 191 236 281
#
# _framework density 16.359819000000002
#
# number of rings (size 3 to 8) (size 9 to 14) (size 15 to 20)
#    0.000    2.857    1.429    0.429    0.000    2.143 
#    0.000    2.143    0.000    0.429    0.000    4.000 
#    0.000    0.000    0.000   17.143    0.000    1.000 
#
# Total GULP energy -1387527.632506 kJ/mol
# GULP energy per Si atom -12388.639576 kJ/mol
# Density = 1.632258 g / cm^3
# Si number density = 16.359819 Si / 1000 Ang^3
#
#
#
# Elastic Constant Matrix: (Units=GPa)
#
#
# Indices 1 2 3 4 5 6 
#
# 1 62.9282 31.7818 30.6001 0.0000 0.0000 0.0000
# 2 31.7818 62.9282 30.6001 0.0000 0.0000 0.0000
# 3 30.6001 30.6001 88.0896 0.0000 0.0000 0.0000
# 4 0.0000 0.0000 0.0000 16.0066 0.0000 0.0000
# 5 0.0000 0.0000 0.0000 0.0000 16.0066 0.0000
# 6 0.0000 0.0000 0.0000 0.0000 0.0000 21.8794
#
#
#
# Elastic Compliance Matrix: (Units=1/GPa)
#
#
# Indices 1 2 3 4 5 6 
#
# 1 0.022861 -0.009246 -0.004729 0.000000 0.000000 0.000000
# 2 -0.009246 0.022861 -0.004729 0.000000 0.000000 0.000000
# 3 -0.004729 -0.004729 0.014638 0.000000 0.000000 0.000000
# 4 0.000000 0.000000 0.000000 0.062474 0.000000 0.000000
# 5 0.000000 0.000000 0.000000 0.000000 0.062474 0.000000
# 6 0.000000 0.000000 0.000000 0.000000 0.000000 0.045705
#
#
# Mechanical properties :
#
#
# Convention : Reuss Voigt Hill
#
# Bulk Modulus (GPa) = 43.57390 44.43445 44.00417
# Shear Modulus (GPa) = 18.11127 18.84280 18.47703
#
# Velocity S-wave (km/s) = 3.33086 3.39746 3.36432
# Velocity P-wave (km/s) = 6.44091 6.52763 6.48442
#
# Compressibility (1/GPa) = 0.02294952
#
# Stress axis : x y z
#
# Youngs Moduli (GPa) = 43.74357 43.74357 68.31622
#
# Poissons Ratio (x) = 0.40445 0.32309
# Poissons Ratio (y) = 0.40445 0.32309
# Poissons Ratio (z) = 0.20688 0.20688
#
# Static dielectric constant tensor:
#      x y z
#    x 3.017580 0.000000 0.000000 
#    y 0.000000 3.017580 0.000000 
#    z 0.000000 0.000000 3.225860 
# 
# 
# High freq. dielectric constant tensor:
#      x y z
#    x 1.615550 0.000000 0.000000 
#    y 0.000000 1.615550 0.000000 
#    z 0.000000 0.000000 1.609220 
# 
# From -- ./inp_files/6672.got.cif
#   From: 2010.03.12/outbox.cif.g09.slc.cpg/sg123_4_cif.got.tgz:6672.got - 2010.04.06 16:26:55.
