data_PCOD8312583
_publ_section_title
;
Structure prediction by ZEFSAII (Michael W. Deem and Ramdas Pophale) SiO2 
 PCOD8312583
Probable space group: P 4/M M M
;
_chemical_formula_sum "Si O2"
_cell_formula_units_Z 88
_cell_length_a 17.703977
_cell_length_b 17.703977
_cell_length_c 15.315088
_cell_angle_alpha 90.000000
_cell_angle_beta 90.000000
_cell_angle_gamma 90.000000
_cell_volume 4800.220309
_symmetry_space_group_name_H-M "P 4/M M M"
_symmetry_group_IT_number 123
_symmetry_cell_setting 'tetragonal'
loop_
_space_group_symop_operation_xyz
x,y,z
-y,x,z
-x,-y,z
y,-x,z
x,-y,-z
-x,y,-z
y,x,-z
-y,-x,-z
-x,-y,-z
y,-x,-z
x,y,-z
-y,x,-z
-x,y,z
x,-y,z
-y,-x,z
y,x,z
loop_
_atom_site_type_symbol
_atom_site_label
_atom_site_fract_x
_atom_site_fract_y
_atom_site_fract_z
Si Si1 0.420696 0.297903 0.000000
Si Si2 0.286086 0.410269 0.662478
Si Si3 0.700616 0.826637 0.596080
Si Si4 0.790582 0.086914 0.267331
Si Si5 0.801417 0.583123 0.167765
Si Si6 0.297728 0.913310 0.099565
O O1 0.416433 0.244487 0.080753
O O2 0.500000 0.343454 0.000000
O O3 0.352983 0.352983 0.000000
O O4 0.300228 0.500000 0.646571
O O5 0.364454 0.364454 0.644336
O O6 0.215652 0.380607 0.604129
O O7 0.258226 0.390153 0.759721
O O8 0.703677 0.865307 0.500000
O O9 0.762154 0.762154 0.605375
O O10 0.719047 0.887550 0.672046
O O11 0.864718 0.135283 0.290659
O O12 0.774218 0.097005 0.163407
O O13 0.808035 0.000000 0.289097
O O14 0.832746 0.500000 0.191705
O O15 0.872374 0.636168 0.152204
O O16 0.321870 0.000000 0.093260
O O17 0.282121 0.882695 0.000000
#
# Coordination Sequence:
#
# PCOD8312583 Si02
#       6
#     8  16  16  16  16  16
#     4  10  20  31  45  67  95 131 176 222 270 322
#     4  10  20  34  53  78 109 144 184 228 273 322
#     4   9  18  34  57  82 107 139 179 222 267 315
#     4  10  21  37  57  83 113 143 178 219 265 320
#     4  10  19  32  49  73 102 136 179 225 273 323
#     4  10  20  34  53  80 111 142 178 219 265 318
#
# _framework density 18.332491000000001
#
# number of rings (size 3 to 8) (size 9 to 14) (size 15 to 20)
#    0.000    2.182    2.727    0.545    0.000    2.636 
#    0.000    0.909    0.000    3.818    0.000    8.909 
#    0.000    0.000    0.000    0.000    0.000    0.000 
#
# Total GULP energy -1090155.938529 kJ/mol
# GULP energy per Si atom -12388.135665 kJ/mol
# Density = 1.829077 g / cm^3
# Si number density = 18.332491 Si / 1000 Ang^3
#
#
#
# Elastic Constant Matrix: (Units=GPa)
#
#
# Indices 1 2 3 4 5 6 
#
# 1 84.7755 51.2488 24.2608 0.0000 0.0000 0.0000
# 2 51.2488 84.7755 24.2608 0.0000 0.0000 0.0000
# 3 24.2608 24.2608 91.8362 0.0000 0.0000 0.0000
# 4 0.0000 0.0000 0.0000 22.0368 0.0000 0.0000
# 5 0.0000 0.0000 0.0000 0.0000 22.0368 0.0000
# 6 0.0000 0.0000 0.0000 0.0000 0.0000 25.1369
#
#
#
# Elastic Compliance Matrix: (Units=1/GPa)
#
#
# Indices 1 2 3 4 5 6 
#
# 1 0.018972 -0.010855 -0.002144 0.000000 0.000000 0.000000
# 2 -0.010855 0.018972 -0.002144 0.000000 0.000000 0.000000
# 3 -0.002144 -0.002144 0.012022 0.000000 0.000000 0.000000
# 4 0.000000 0.000000 0.000000 0.045379 0.000000 0.000000
# 5 0.000000 0.000000 0.000000 0.000000 0.045379 0.000000
# 6 0.000000 0.000000 0.000000 0.000000 0.000000 0.039782
#
#
# Mechanical properties :
#
#
# Convention : Reuss Voigt Hill
#
# Bulk Modulus (GPa) = 50.81787 51.21420 51.01604
# Shear Modulus (GPa) = 23.00425 24.61658 23.81041
#
# Velocity S-wave (km/s) = 3.54621 3.66838 3.60781
# Velocity P-wave (km/s) = 6.67441 6.77788 6.72634
#
# Compressibility (1/GPa) = 0.01967812
#
# Stress axis : x y z
#
# Youngs Moduli (GPa) = 52.70993 52.70993 83.18213
#
# Poissons Ratio (x) = 0.57218 0.17836
# Poissons Ratio (y) = 0.57218 0.17836
# Poissons Ratio (z) = 0.11302 0.11302
#
# Static dielectric constant tensor:
#      x y z
#    x 3.465020 0.000000 0.000000 
#    y 0.000000 3.465020 0.000000 
#    z 0.000000 0.000000 3.570120 
# 
# 
# High freq. dielectric constant tensor:
#      x y z
#    x 1.695000 0.000000 0.000000 
#    y 0.000000 1.695000 0.000000 
#    z 0.000000 0.000000 1.724140 
# 
# From -- ./inp_files/4084.got.cif
#   From: 2010.03.12/outbox.cif.g09.slc.cpg/sg123_3_cif.got.tgz:4084.got - 2010.04.06 16:26:55.
