data_PCOD8312121
_publ_section_title
;
Structure prediction by ZEFSAII (Michael W. Deem and Ramdas Pophale) SiO2 
 PCOD8312121
Probable space group: P 4/M M M
;
_chemical_formula_sum "Si O2"
_cell_formula_units_Z 72
_cell_length_a 24.227505
_cell_length_b 24.227505
_cell_length_c 10.303780
_cell_angle_alpha 90.000000
_cell_angle_beta 90.000000
_cell_angle_gamma 90.000000
_cell_volume 6048.030339
_symmetry_space_group_name_H-M "P 4/M M M"
_symmetry_group_IT_number 123
_symmetry_cell_setting 'tetragonal'
loop_
_space_group_symop_operation_xyz
x,y,z
-y,x,z
-x,-y,z
y,-x,z
x,-y,-z
-x,y,-z
y,x,-z
-y,-x,-z
-x,-y,-z
y,-x,-z
x,y,-z
-y,x,-z
-x,y,z
x,-y,z
-y,-x,z
y,x,z
loop_
_atom_site_type_symbol
_atom_site_label
_atom_site_fract_x
_atom_site_fract_y
_atom_site_fract_z
Si Si1 0.000000 0.565758 0.648291
Si Si2 0.823237 0.434647 0.000000
Si Si3 0.883912 0.564577 0.263358
Si Si4 0.709214 0.621845 0.000000
Si Si5 0.400948 0.311761 0.500000
Si Si6 0.562145 0.351600 0.772407
Si Si7 0.566013 0.809185 0.500000
O O1 0.054695 0.590053 0.718930
O O2 0.000000 0.500000 0.655120
O O3 0.000000 0.585835 0.500000
O O4 0.860694 0.420611 0.123031
O O5 0.774556 0.389090 0.000000
O O6 0.803930 0.500000 0.000000
O O7 0.889238 0.500000 0.283727
O O8 0.842569 0.585994 0.373899
O O9 0.688749 0.593756 0.868661
O O10 0.685876 0.685876 0.000000
O O11 0.339966 0.339966 0.500000
O O12 0.434899 0.329668 0.373731
O O13 0.397249 0.245962 0.500000
O O14 0.500000 0.355230 0.820000
O O15 0.587347 0.412654 0.780783
O O16 0.500000 0.796396 0.500000
#
# Coordination Sequence:
#
# PCOD8312121 Si02
#       7
#     8   8  16   8   8  16   8
#     4   9  14  25  39  53  77  97 113 131 153 193
#     4  10  18  27  38  56  75  88 114 146 172 206
#     4   9  17  25  38  56  72  93 112 134 163 194
#     4  10  20  32  44  54  69  92 113 141 180 213
#     4  10  20  30  40  54  71  88 109 141 178 215
#     4  10  19  30  42  54  66  83 105 133 176 221
#     4  10  16  25  40  54  65  86 118 140 164 204
#
# _framework density 11.904702
#
# number of rings (size 3 to 8) (size 9 to 14) (size 15 to 20)
#    0.000    2.333    1.111    3.333    0.000    2.444 
#    0.000    2.222    0.000    4.000    0.000    0.000 
#    0.000    0.000    0.000    0.000    0.000    0.000 
#
# Total GULP energy -892303.347845 kJ/mol
# GULP energy per Si atom -12393.102053 kJ/mol
# Density = 1.187761 g / cm^3
# Si number density = 11.904702 Si / 1000 Ang^3
#
#
#
# Elastic Constant Matrix: (Units=GPa)
#
#
# Indices 1 2 3 4 5 6 
#
# 1 70.5437 24.2625 20.9927 0.0000 0.0000 0.0000
# 2 24.2625 70.5437 20.9927 0.0000 0.0000 0.0000
# 3 20.9927 20.9927 78.7199 0.0000 0.0000 0.0000
# 4 0.0000 0.0000 0.0000 13.0134 0.0000 0.0000
# 5 0.0000 0.0000 0.0000 0.0000 13.0134 0.0000
# 6 0.0000 0.0000 0.0000 0.0000 0.0000 5.2870
#
#
#
# Elastic Compliance Matrix: (Units=1/GPa)
#
#
# Indices 1 2 3 4 5 6 
#
# 1 0.016784 -0.004823 -0.003190 0.000000 0.000000 0.000000
# 2 -0.004823 0.016784 -0.003190 0.000000 0.000000 0.000000
# 3 -0.003190 -0.003190 0.014404 0.000000 0.000000 0.000000
# 4 0.000000 0.000000 0.000000 0.076844 0.000000 0.000000
# 5 0.000000 0.000000 0.000000 0.000000 0.076844 0.000000
# 6 0.000000 0.000000 0.000000 0.000000 0.000000 0.189144
#
#
# Mechanical properties :
#
#
# Convention : Reuss Voigt Hill
#
# Bulk Modulus (GPa) = 39.11300 39.14479 39.12890
# Shear Modulus (GPa) = 11.85589 16.50004 14.17797
#
# Velocity S-wave (km/s) = 3.15921 3.72696 3.45477
# Velocity P-wave (km/s) = 6.79955 7.17450 6.98954
#
# Compressibility (1/GPa) = 0.02556695
#
# Stress axis : x y z
#
# Youngs Moduli (GPa) = 59.58170 59.58170 69.42319
#
# Poissons Ratio (x) = 0.28738 0.22143
# Poissons Ratio (y) = 0.28738 0.22143
# Poissons Ratio (z) = 0.19004 0.19004
#
# Static dielectric constant tensor:
#      x y z
#    x 2.370120 0.000000 0.000000 
#    y 0.000000 2.370120 0.000000 
#    z 0.000000 0.000000 2.707450 
# 
# 
# High freq. dielectric constant tensor:
#      x y z
#    x 1.415700 0.000000 0.000000 
#    y 0.000000 1.415700 0.000000 
#    z 0.000000 0.000000 1.475280 
# 
# From -- ./inp_files/1424.got.cif
#   From: 2010.03.12/outbox.cif.g09.slc.cpg/sg123_1_cif.got.tgz:1424.got - 2010.04.06 16:26:55.
