data_PCOD8312373
_publ_section_title
;
Structure prediction by ZEFSAII (Michael W. Deem and Ramdas Pophale) SiO2 
 PCOD8312373
Probable space group: P 4/M M M
;
_chemical_formula_sum "Si O2"
_cell_formula_units_Z 80
_cell_length_a 18.401384
_cell_length_b 18.401384
_cell_length_c 13.320800
_cell_angle_alpha 90.000000
_cell_angle_beta 90.000000
_cell_angle_gamma 90.000000
_cell_volume 4510.568518
_symmetry_space_group_name_H-M "P 4/M M M"
_symmetry_group_IT_number 123
_symmetry_cell_setting 'tetragonal'
loop_
_space_group_symop_operation_xyz
x,y,z
-y,x,z
-x,-y,z
y,-x,z
x,-y,-z
-x,y,-z
y,x,-z
-y,-x,-z
-x,-y,-z
y,-x,-z
x,y,-z
-y,x,-z
-x,y,z
x,-y,z
-y,-x,z
y,x,z
loop_
_atom_site_type_symbol
_atom_site_label
_atom_site_fract_x
_atom_site_fract_y
_atom_site_fract_z
Si Si1 0.736535 0.852258 0.612918
Si Si2 0.354006 0.915801 0.114193
Si Si3 0.082844 0.800393 0.802647
Si Si4 0.693699 0.420753 0.387255
Si Si5 0.843075 0.581185 0.700870
O O1 0.752099 0.877766 0.500000
O O2 0.768795 0.768795 0.628364
O O3 0.781014 0.905352 0.685780
O O4 0.650231 0.864654 0.632048
O O5 0.269637 0.896085 0.130924
O O6 0.405904 0.868262 0.185155
O O7 0.367077 0.000000 0.140935
O O8 0.375469 0.898445 0.000000
O O9 0.133322 0.866679 0.838061
O O10 0.000000 0.824131 0.819986
O O11 0.722702 0.399820 0.500000
O O12 0.657755 0.500000 0.391923
O O13 0.633553 0.366448 0.347925
O O14 0.756429 0.419919 0.304461
O O15 0.871703 0.500000 0.665358
#
# Coordination Sequence:
#
# PCOD8312373 Si02
#       5
#    16  16  16  16  16
#     4   9  17  30  48  67  91 128 166 193 223 270
#     4   9  19  36  54  69  89 120 154 188 230 280
#     4   9  18  32  50  73  98 122 151 187 226 271
#     4   9  17  29  46  69  98 130 160 191 228 270
#     4  10  19  29  45  71  97 119 151 196 240 278
#
# _framework density 17.736122999999999
#
# number of rings (size 3 to 8) (size 9 to 14) (size 15 to 20)
#    0.000    2.800    0.000    1.200    0.000    5.600 
#    0.000    2.000    0.000    1.800    0.000   16.800 
#    0.000    0.000    0.000    4.400    0.000    0.200 
#
# Total GULP energy -991068.190713 kJ/mol
# GULP energy per Si atom -12388.352384 kJ/mol
# Density = 1.769575 g / cm^3
# Si number density = 17.736123 Si / 1000 Ang^3
#
#
#
# Elastic Constant Matrix: (Units=GPa)
#
#
# Indices 1 2 3 4 5 6 
#
# 1 76.4664 38.2106 22.6523 0.0000 0.0000 0.0000
# 2 38.2106 76.4664 22.6523 0.0000 0.0000 0.0000
# 3 22.6523 22.6523 77.6764 0.0000 0.0000 0.0000
# 4 0.0000 0.0000 0.0000 18.4475 0.0000 0.0000
# 5 0.0000 0.0000 0.0000 0.0000 18.4475 0.0000
# 6 0.0000 0.0000 0.0000 0.0000 0.0000 20.7414
#
#
#
# Elastic Compliance Matrix: (Units=1/GPa)
#
#
# Indices 1 2 3 4 5 6 
#
# 1 0.017998 -0.008142 -0.002874 0.000000 0.000000 0.000000
# 2 -0.008142 0.017998 -0.002874 0.000000 0.000000 0.000000
# 3 -0.002874 -0.002874 0.014550 0.000000 0.000000 0.000000
# 4 0.000000 0.000000 0.000000 0.054208 0.000000 0.000000
# 5 0.000000 0.000000 0.000000 0.000000 0.054208 0.000000
# 6 0.000000 0.000000 0.000000 0.000000 0.000000 0.048213
#
#
# Mechanical properties :
#
#
# Convention : Reuss Voigt Hill
#
# Bulk Modulus (GPa) = 43.92720 44.18218 44.05469
# Shear Modulus (GPa) = 20.61487 21.33354 20.97421
#
# Velocity S-wave (km/s) = 3.41297 3.47195 3.44258
# Velocity P-wave (km/s) = 6.35232 6.40605 6.37924
#
# Compressibility (1/GPa) = 0.02276494
#
# Stress axis : x y z
#
# Youngs Moduli (GPa) = 55.56262 55.56262 68.72731
#
# Poissons Ratio (x) = 0.45240 0.19753
# Poissons Ratio (y) = 0.45240 0.19753
# Poissons Ratio (z) = 0.15969 0.15969
#
# Static dielectric constant tensor:
#      x y z
#    x 3.340310 0.000000 0.000000 
#    y 0.000000 3.340310 0.000000 
#    z 0.000000 0.000000 3.187340 
# 
# 
# High freq. dielectric constant tensor:
#      x y z
#    x 1.679680 0.000000 0.000000 
#    y 0.000000 1.679680 0.000000 
#    z 0.000000 0.000000 1.667490 
# 
# From -- ./inp_files/3898.got.cif
#   From: 2010.03.12/outbox.cif.g09.slc.cpg/sg123_2_cif.got.tgz:3898.got - 2010.04.06 16:26:55.
