data_PCOD8312404
_publ_section_title
;
Structure prediction by ZEFSAII (Michael W. Deem and Ramdas Pophale) SiO2 
 PCOD8312404
Probable space group: P 4/M M M
;
_chemical_formula_sum "Si O2"
_cell_formula_units_Z 88
_cell_length_a 14.134480
_cell_length_b 14.134480
_cell_length_c 28.657862
_cell_angle_alpha 90.000000
_cell_angle_beta 90.000000
_cell_angle_gamma 90.000000
_cell_volume 5725.368686
_symmetry_space_group_name_H-M "P 4/M M M"
_symmetry_group_IT_number 123
_symmetry_cell_setting 'tetragonal'
loop_
_space_group_symop_operation_xyz
x,y,z
-y,x,z
-x,-y,z
y,-x,z
x,-y,-z
-x,y,-z
y,x,-z
-y,-x,-z
-x,-y,-z
y,-x,-z
x,y,-z
-y,x,-z
-x,y,z
x,-y,z
-y,-x,z
y,x,z
loop_
_atom_site_type_symbol
_atom_site_label
_atom_site_fract_x
_atom_site_fract_y
_atom_site_fract_z
Si Si1 0.108288 0.261218 0.950639
Si Si2 0.265029 0.110146 0.849766
Si Si3 0.608574 0.108700 0.411881
Si Si4 0.610094 0.108199 0.763610
Si Si5 0.110277 0.734850 0.500000
Si Si6 0.610828 0.234679 0.676658
O O1 0.163461 0.163461 0.950780
O O2 0.130392 0.313677 0.901177
O O3 0.000000 0.231893 0.950726
O O4 0.131730 0.317635 0.000000
O O5 0.168735 0.168735 0.843557
O O6 0.338959 0.142550 0.810662
O O7 0.239243 0.000000 0.844016
O O8 0.500000 0.124749 0.426787
O O9 0.673683 0.137982 0.455018
O O10 0.636870 0.173794 0.368620
O O11 0.624985 0.000000 0.397151
O O12 0.500000 0.119775 0.773211
O O13 0.643270 0.173798 0.721169
O O14 0.635484 0.000000 0.750884
O O15 0.167918 0.832083 0.500000
O O16 0.000000 0.761354 0.500000
O O17 0.500000 0.259017 0.678472
O O18 0.667072 0.332929 0.675668
#
# Coordination Sequence:
#
# PCOD8312404 Si02
#       6
#    16  16  16  16   8  16
#     4   8  13  20  30  46  69  97 127 156 187 225
#     4   9  16  25  38  56  78 103 129 159 195 235
#     4   9  17  30  48  68  87 108 138 175 210 239
#     4   9  17  29  44  60  77 100 133 170 203 233
#     4  10  19  30  45  65  90 118 145 173 204 239
#     4  10  19  30  45  64  86 110 134 163 200 243
#
# _framework density 15.370189999999999
#
# number of rings (size 3 to 8) (size 9 to 14) (size 15 to 20)
#    0.000    2.909    0.000    1.909    0.000    3.909 
#    0.000    2.727    0.000    0.545    0.000    3.818 
#    0.000   19.636    0.000    0.000    0.000    0.000 
#
# Total GULP energy -1090229.348535 kJ/mol
# GULP energy per Si atom -12388.969870 kJ/mol
# Density = 1.533521 g / cm^3
# Si number density = 15.370190 Si / 1000 Ang^3
#
#
#
# Elastic Constant Matrix: (Units=GPa)
#
#
# Indices 1 2 3 4 5 6 
#
# 1 54.6664 38.3649 55.8434 0.0000 0.0000 0.0000
# 2 38.3649 54.6650 55.8432 0.0000 0.0000 0.0000
# 3 55.8434 55.8432 158.7893 0.0000 0.0000 0.0000
# 4 0.0000 0.0000 0.0000 21.0700 0.0000 0.0000
# 5 0.0000 0.0000 0.0000 0.0000 21.0701 0.0000
# 6 0.0000 0.0000 0.0000 0.0000 0.0000 23.8221
#
#
#
# Elastic Compliance Matrix: (Units=1/GPa)
#
#
# Indices 1 2 3 4 5 6 
#
# 1 0.039975 -0.021371 -0.006542 0.000000 0.000000 0.000000
# 2 -0.021371 0.039976 -0.006543 0.000000 0.000000 0.000000
# 3 -0.006542 -0.006543 0.010899 0.000000 0.000000 0.000000
# 4 0.000000 0.000000 0.000000 0.047461 0.000000 0.000000
# 5 0.000000 0.000000 0.000000 0.000000 0.047461 0.000000
# 6 0.000000 0.000000 0.000000 0.000000 0.000000 0.041978
#
#
# Mechanical properties :
#
#
# Convention : Reuss Voigt Hill
#
# Bulk Modulus (GPa) = 45.58588 63.13597 54.36093
# Shear Modulus (GPa) = 16.44872 21.06372 18.75622
#
# Velocity S-wave (km/s) = 3.27489 3.70594 3.49707
# Velocity P-wave (km/s) = 6.63498 7.71220 7.19378
#
# Compressibility (1/GPa) = 0.02193662
#
# Stress axis : x y z
#
# Youngs Moduli (GPa) = 25.01590 25.01501 91.74741
#
# Poissons Ratio (x) = 0.53461 0.60025
# Poissons Ratio (y) = 0.53463 0.60029
# Poissons Ratio (z) = 0.16366 0.16367
#
# Static dielectric constant tensor:
#      x y z
#    x 2.723160 0.000000 0.000000 
#    y 0.000000 2.723160 0.000000 
#    z 0.000000 0.000000 3.440810 
# 
# 
# High freq. dielectric constant tensor:
#      x y z
#    x 1.564800 0.000000 0.000000 
#    y 0.000000 1.564800 0.000000 
#    z 0.000000 0.000000 1.616460 
# 
# From -- ./inp_files/7962.got.cif
#   From: 2010.03.12/outbox.cif.g09.slc.cpg/sg123_4_cif.got.tgz:7962.got - 2010.04.06 16:26:55.
