data_PCOD8312735
_publ_section_title
;
Structure prediction by ZEFSAII (Michael W. Deem and Ramdas Pophale) SiO2 
 PCOD8312735
Probable space group: P 4/M M M
;
_chemical_formula_sum "Si O2"
_cell_formula_units_Z 64
_cell_length_a 13.875998
_cell_length_b 13.875998
_cell_length_c 20.156601
_cell_angle_alpha 90.000000
_cell_angle_beta 90.000000
_cell_angle_gamma 90.000000
_cell_volume 3881.018886
_symmetry_space_group_name_H-M "P 4/M M M"
_symmetry_group_IT_number 123
_symmetry_cell_setting 'tetragonal'
loop_
_space_group_symop_operation_xyz
x,y,z
-y,x,z
-x,-y,z
y,-x,z
x,-y,-z
-x,y,-z
y,x,-z
-y,-x,-z
-x,-y,-z
y,-x,-z
x,y,-z
-y,x,-z
-x,y,z
x,-y,z
-y,-x,z
y,x,z
loop_
_atom_site_type_symbol
_atom_site_label
_atom_site_fract_x
_atom_site_fract_y
_atom_site_fract_z
Si Si1 0.266190 0.889467 0.077115
Si Si2 0.889133 0.265608 0.573680
Si Si3 0.229587 0.386233 0.174956
Si Si4 0.109211 0.387481 0.697406
O O1 0.167157 0.832844 0.093415
O O2 0.355260 0.841647 0.115801
O O3 0.252047 0.000000 0.099367
O O4 0.292348 0.882312 0.000000
O O5 0.869761 0.309168 0.500000
O O6 0.833627 0.166374 0.584034
O O7 0.854300 0.341424 0.628710
O O8 0.000000 0.239587 0.583331
O O9 0.248682 0.500000 0.170190
O O10 0.331796 0.331796 0.169412
O O11 0.179083 0.355295 0.243505
O O12 0.114650 0.500000 0.686040
O O13 0.000000 0.355513 0.714951
#
# Coordination Sequence:
#
# PCOD8312735 Si02
#       4
#    16  16  16  16
#     4   9  18  32  50  73  99 125 153 185 222 266
#     4   9  17  28  42  61  86 116 147 178 213 255
#     4  10  20  33  49  68  91 120 154 192 232 273
#     4   9  17  29  46  67  88 111 142 181 226 273
#
# _framework density 16.490516
#
# number of rings (size 3 to 8) (size 9 to 14) (size 15 to 20)
#    0.000    2.750    0.000    1.500    0.000    3.250 
#    0.000    6.250    0.000    0.000    0.000    7.000 
#    0.000    0.000    0.000   23.250    0.000    0.500 
#
# Total GULP energy -793498.978998 kJ/mol
# GULP energy per Si atom -12398.421547 kJ/mol
# Density = 1.645298 g / cm^3
# Si number density = 16.490516 Si / 1000 Ang^3
#
#
#
# Elastic Constant Matrix: (Units=GPa)
#
#
# Indices 1 2 3 4 5 6 
#
# 1 84.1404 47.8654 52.9151 0.0000 0.0000 0.0000
# 2 47.8654 84.1404 52.9151 0.0000 0.0000 0.0000
# 3 52.9151 52.9151 96.0663 0.0000 0.0000 0.0000
# 4 0.0000 0.0000 0.0000 26.4880 0.0000 0.0000
# 5 0.0000 0.0000 0.0000 0.0000 26.4880 0.0000
# 6 0.0000 0.0000 0.0000 0.0000 0.0000 19.5513
#
#
#
# Elastic Compliance Matrix: (Units=1/GPa)
#
#
# Indices 1 2 3 4 5 6 
#
# 1 0.020567 -0.007001 -0.007473 0.000000 0.000000 0.000000
# 2 -0.007001 0.020567 -0.007473 0.000000 0.000000 0.000000
# 3 -0.007473 -0.007473 0.018641 0.000000 0.000000 0.000000
# 4 0.000000 0.000000 0.000000 0.037753 0.000000 0.000000
# 5 0.000000 0.000000 0.000000 0.000000 0.037753 0.000000
# 6 0.000000 0.000000 0.000000 0.000000 0.000000 0.051148
#
#
# Mechanical properties :
#
#
# Convention : Reuss Voigt Hill
#
# Bulk Modulus (GPa) = 62.95712 63.52646 63.24179
# Shear Modulus (GPa) = 21.22117 21.88224 21.55170
#
# Velocity S-wave (km/s) = 3.59119 3.64670 3.61905
# Velocity P-wave (km/s) = 7.44689 7.50585 7.47643
#
# Compressibility (1/GPa) = 0.01588383
#
# Stress axis : x y z
#
# Youngs Moduli (GPa) = 48.62225 48.62225 53.64390
#
# Poissons Ratio (x) = 0.34038 0.40085
# Poissons Ratio (y) = 0.34038 0.40085
# Poissons Ratio (z) = 0.36333 0.36333
#
# Static dielectric constant tensor:
#      x y z
#    x 3.016410 0.000000 0.000000 
#    y 0.000000 3.016410 0.000000 
#    z 0.000000 0.000000 3.334600 
# 
# 
# High freq. dielectric constant tensor:
#      x y z
#    x 1.625840 0.000000 0.000000 
#    y 0.000000 1.625840 0.000000 
#    z 0.000000 0.000000 1.647470 
# 
# From -- ./inp_files/3772.got.cif
#   From: 2010.03.12/outbox.cif.g09.slc.cpg/sg123_2_cif.got.tgz:3772.got - 2010.04.06 16:26:55.
