data_PCOD8312312
_publ_section_title
;
Structure prediction by ZEFSAII (Michael W. Deem and Ramdas Pophale) SiO2 
 PCOD8312312
Probable space group: P 4/M M M
;
_chemical_formula_sum "Si O2"
_cell_formula_units_Z 88
_cell_length_a 19.530303
_cell_length_b 19.530303
_cell_length_c 15.193082
_cell_angle_alpha 90.000000
_cell_angle_beta 90.000000
_cell_angle_gamma 90.000000
_cell_volume 5795.138824
_symmetry_space_group_name_H-M "P 4/M M M"
_symmetry_group_IT_number 123
_symmetry_cell_setting 'tetragonal'
loop_
_space_group_symop_operation_xyz
x,y,z
-y,x,z
-x,-y,z
y,-x,z
x,-y,-z
-x,y,-z
y,x,-z
-y,-x,-z
-x,-y,-z
y,-x,-z
x,y,-z
-y,x,-z
-x,y,z
x,-y,z
-y,-x,z
y,x,z
loop_
_atom_site_type_symbol
_atom_site_label
_atom_site_fract_x
_atom_site_fract_y
_atom_site_fract_z
Si Si1 0.578657 0.837858 0.397243
Si Si2 0.076673 0.185309 0.000000
Si Si3 0.079622 0.193382 0.192139
Si Si4 0.918657 0.422593 0.903070
Si Si5 0.337328 0.919427 0.739838
Si Si6 0.683230 0.424352 0.604675
O O1 0.593972 0.846630 0.500000
O O2 0.500000 0.858019 0.376726
O O3 0.630849 0.886619 0.346888
O O4 0.593116 0.760281 0.365939
O O5 0.092442 0.223929 0.907594
O O6 0.113929 0.113929 0.000000
O O7 0.000000 0.161206 0.000000
O O8 0.128846 0.128846 0.213466
O O9 0.097370 0.256275 0.256731
O O10 0.000000 0.170783 0.203688
O O11 0.894323 0.500000 0.883821
O O12 0.888539 0.374107 0.826811
O O13 0.000000 0.418586 0.903068
O O14 0.891989 0.399123 0.000000
O O15 0.349934 0.000000 0.734371
O O16 0.679579 0.423474 0.500000
O O17 0.662460 0.500000 0.638848
O O18 0.631111 0.368890 0.645907
#
# Coordination Sequence:
#
# PCOD8312312 Si02
#       6
#    16   8  16  16  16  16
#     4   9  18  31  44  60  86 119 150 178 212 253
#     4   8  14  25  40  58  81 107 133 165 208 256
#     4   9  18  30  44  63  85 110 141 177 219 268
#     4   8  14  24  38  57  80 105 133 165 202 244
#     4  10  19  28  42  62  83 108 142 182 217 252
#     4   8  14  25  41  61  84 109 137 168 203 245
#
# _framework density 15.185141
#
# number of rings (size 3 to 8) (size 9 to 14) (size 15 to 20)
#    0.000    3.273    0.000    2.182    1.273    2.636 
#    0.000    3.636    0.000    0.000    0.000    0.000 
#    0.000    0.000    0.000    4.000    0.000    0.364 
#
# Total GULP energy -1090214.659304 kJ/mol
# GULP energy per Si atom -12388.802947 kJ/mol
# Density = 1.515058 g / cm^3
# Si number density = 15.185141 Si / 1000 Ang^3
#
#
#
# Elastic Constant Matrix: (Units=GPa)
#
#
# Indices 1 2 3 4 5 6 
#
# 1 75.2912 54.3031 39.7084 0.0000 0.0000 0.0000
# 2 54.3031 75.2912 39.7084 0.0000 0.0000 0.0000
# 3 39.7084 39.7084 56.9503 0.0000 0.0000 0.0000
# 4 0.0000 0.0000 0.0000 17.7080 0.0000 0.0000
# 5 0.0000 0.0000 0.0000 0.0000 17.7080 0.0000
# 6 0.0000 0.0000 0.0000 0.0000 0.0000 23.1701
#
#
#
# Elastic Compliance Matrix: (Units=1/GPa)
#
#
# Indices 1 2 3 4 5 6 
#
# 1 0.030560 -0.017086 -0.009394 0.000000 0.000000 0.000000
# 2 -0.017086 0.030560 -0.009394 0.000000 0.000000 0.000000
# 3 -0.009394 -0.009394 0.030659 0.000000 0.000000 0.000000
# 4 0.000000 0.000000 0.000000 0.056472 0.000000 0.000000
# 5 0.000000 0.000000 0.000000 0.000000 0.056472 0.000000
# 6 0.000000 0.000000 0.000000 0.000000 0.000000 0.043159
#
#
# Mechanical properties :
#
#
# Convention : Reuss Voigt Hill
#
# Bulk Modulus (GPa) = 49.92740 52.77471 51.35106
# Shear Modulus (GPa) = 15.32302 16.63809 15.98055
#
# Velocity S-wave (km/s) = 3.18005 3.31370 3.24756
# Velocity P-wave (km/s) = 6.81426 7.03352 6.92476
#
# Compressibility (1/GPa) = 0.02002908
#
# Stress axis : x y z
#
# Youngs Moduli (GPa) = 32.72294 32.72294 32.61663
#
# Poissons Ratio (x) = 0.55912 0.30641
# Poissons Ratio (y) = 0.55912 0.30641
# Poissons Ratio (z) = 0.30740 0.30740
#
# Static dielectric constant tensor:
#      x y z
#    x 2.868390 0.000000 0.000000 
#    y 0.000000 2.868390 0.000000 
#    z 0.000000 0.000000 2.824390 
# 
# 
# High freq. dielectric constant tensor:
#      x y z
#    x 1.567460 0.000000 0.000000 
#    y 0.000000 1.567460 0.000000 
#    z 0.000000 0.000000 1.556910 
# 
# From -- ./inp_files/4327.got.cif
#   From: 2010.03.12/outbox.cif.g09.slc.cpg/sg123_3_cif.got.tgz:4327.got - 2010.04.06 16:26:55.
