data_PCOD8312127
_publ_section_title
;
Structure prediction by ZEFSAII (Michael W. Deem and Ramdas Pophale) SiO2 
 PCOD8312127
Probable space group: P 4/M M M
;
_chemical_formula_sum "Si O2"
_cell_formula_units_Z 120
_cell_length_a 18.989445
_cell_length_b 18.989445
_cell_length_c 25.563655
_cell_angle_alpha 90.000000
_cell_angle_beta 90.000000
_cell_angle_gamma 90.000000
_cell_volume 9218.228977
_symmetry_space_group_name_H-M "P 4/M M M"
_symmetry_group_IT_number 123
_symmetry_cell_setting 'tetragonal'
loop_
_space_group_symop_operation_xyz
x,y,z
-y,x,z
-x,-y,z
y,-x,z
x,-y,-z
-x,y,-z
y,x,-z
-y,-x,-z
-x,-y,-z
y,-x,-z
x,y,-z
-y,x,-z
-x,y,z
x,-y,z
-y,-x,z
y,x,z
loop_
_atom_site_type_symbol
_atom_site_label
_atom_site_fract_x
_atom_site_fract_y
_atom_site_fract_z
Si Si1 0.579528 0.309197 0.582138
Si Si2 0.415909 0.079033 0.167000
Si Si3 0.309687 0.421429 0.293806
Si Si4 0.082716 0.366141 0.625854
Si Si5 0.416685 0.152201 0.728751
Si Si6 0.500000 0.917370 0.441798
Si Si7 0.083743 0.579048 0.055397
Si Si8 0.804687 0.690221 0.559163
O O1 0.500000 0.311452 0.559646
O O2 0.622967 0.377034 0.561029
O O3 0.578081 0.310633 0.644242
O O4 0.616692 0.237707 0.563523
O O5 0.500000 0.078862 0.163837
O O6 0.389742 0.127594 0.214400
O O7 0.385988 0.108883 0.110683
O O8 0.388339 0.000000 0.177587
O O9 0.325278 0.500000 0.272168
O O10 0.368629 0.368629 0.270983
O O11 0.233353 0.394830 0.275586
O O12 0.104759 0.377523 0.685712
O O13 0.105849 0.432787 0.591197
O O14 0.128962 0.304618 0.598926
O O15 0.000000 0.348562 0.622937
O O16 0.500000 0.141097 0.721359
O O17 0.500000 0.882846 0.500000
O O18 0.500000 0.000000 0.448380
O O19 0.113583 0.500000 0.052736
O O20 0.000000 0.576699 0.058546
O O21 0.106850 0.617178 0.000000
O O22 0.832503 0.698673 0.500000
O O23 0.753564 0.753564 0.575449
#
# Coordination Sequence:
#
# PCOD8312127 Si02
#       8
#    16  16  16  16  16   8  16  16
#     4   9  17  29  42  55  69  87 115 148 185 223
#     4   8  13  19  28  44  67  94 120 142 164 198
#     4   9  17  28  41  54  68  90 120 155 193 228
#     4  11  20  29  42  58  75  96 120 146 175 211
#     4  10  17  25  36  51  74  99 119 142 177 220
#     4   9  18  28  36  52  74  92 114 146 178 204
#     4   7   9  14  24  38  58  86 118 146 167 188
#     4  10  21  34  45  56  72  95 120 147 183 223
#
# _framework density 13.017685
#
# number of rings (size 3 to 8) (size 9 to 14) (size 15 to 20)
#    0.000    2.867    2.000    2.000    0.933    1.867 
#    0.000    1.333    0.000    0.000    0.000    1.867 
#    0.000    0.800    0.000    1.867    0.000    0.933 
#
# Total GULP energy -1486593.702587 kJ/mol
# GULP energy per Si atom -12388.280855 kJ/mol
# Density = 1.298806 g / cm^3
# Si number density = 13.017685 Si / 1000 Ang^3
#
#
#
# Elastic Constant Matrix: (Units=GPa)
#
#
# Indices 1 2 3 4 5 6 
#
# 1 58.6337 25.2195 28.1072 0.0000 0.0000 0.0000
# 2 25.2195 58.6337 28.1072 0.0000 0.0000 0.0000
# 3 28.1072 28.1072 94.1400 0.0000 0.0000 0.0000
# 4 0.0000 0.0000 0.0000 7.9844 0.0000 0.0000
# 5 0.0000 0.0000 0.0000 0.0000 7.9844 0.0000
# 6 0.0000 0.0000 0.0000 0.0000 0.0000 7.1067
#
#
#
# Elastic Compliance Matrix: (Units=1/GPa)
#
#
# Indices 1 2 3 4 5 6 
#
# 1 0.022419 -0.007509 -0.004452 0.000000 0.000000 0.000000
# 2 -0.007509 0.022419 -0.004452 0.000000 0.000000 0.000000
# 3 -0.004452 -0.004452 0.013281 0.000000 0.000000 0.000000
# 4 0.000000 0.000000 0.000000 0.125244 0.000000 0.000000
# 5 0.000000 0.000000 0.000000 0.000000 0.125244 0.000000
# 6 0.000000 0.000000 0.000000 0.000000 0.000000 0.140712
#
#
# Mechanical properties :
#
#
# Convention : Reuss Voigt Hill
#
# Bulk Modulus (GPa) = 39.53499 41.58613 40.56056
# Shear Modulus (GPa) = 10.19216 13.28001 11.73608
#
# Velocity S-wave (km/s) = 2.80115 3.19745 3.00584
# Velocity P-wave (km/s) = 6.39516 6.75624 6.57818
#
# Compressibility (1/GPa) = 0.02529405
#
# Stress axis : x y z
#
# Youngs Moduli (GPa) = 44.60565 44.60565 75.29722
#
# Poissons Ratio (x) = 0.33493 0.33519
# Poissons Ratio (y) = 0.33493 0.33519
# Poissons Ratio (z) = 0.19857 0.19857
#
# Static dielectric constant tensor:
#      x y z
#    x 2.438990 0.000000 0.000000 
#    y 0.000000 2.438990 0.000000 
#    z 0.000000 0.000000 2.905380 
# 
# 
# High freq. dielectric constant tensor:
#      x y z
#    x 1.458160 0.000000 0.000000 
#    y 0.000000 1.458160 0.000000 
#    z 0.000000 0.000000 1.496100 
# 
# From -- ./inp_files/8262.got.cif
#   From: 2010.03.12/outbox.cif.g09.slc.cpg/sg123_5_cif.got.tgz:8262.got - 2010.04.06 16:26:55.
