data_PCOD8312240
_publ_section_title
;
Structure prediction by ZEFSAII (Michael W. Deem and Ramdas Pophale) SiO2 
 PCOD8312240
Probable space group: P 4/M M M
;
_chemical_formula_sum "Si O2"
_cell_formula_units_Z 112
_cell_length_a 18.729775
_cell_length_b 18.729775
_cell_length_c 18.676888
_cell_angle_alpha 90.000000
_cell_angle_beta 90.000000
_cell_angle_gamma 90.000000
_cell_volume 6551.935825
_symmetry_space_group_name_H-M "P 4/M M M"
_symmetry_group_IT_number 123
_symmetry_cell_setting 'tetragonal'
loop_
_space_group_symop_operation_xyz
x,y,z
-y,x,z
-x,-y,z
y,-x,z
x,-y,-z
-x,y,-z
y,x,-z
-y,-x,-z
-x,-y,-z
y,-x,-z
x,y,-z
-y,x,-z
-x,y,z
x,-y,z
-y,-x,z
y,x,z
loop_
_atom_site_type_symbol
_atom_site_label
_atom_site_fract_x
_atom_site_fract_y
_atom_site_fract_z
Si Si1 0.805057 0.919010 0.630025
Si Si2 0.920566 0.192518 0.204357
Si Si3 0.350068 0.918062 0.581217
Si Si4 0.081289 0.652112 0.157484
Si Si5 0.299732 0.416989 0.213847
Si Si6 0.155020 0.582826 0.710905
Si Si7 0.582744 0.793242 0.080333
O O1 0.867899 0.867899 0.602069
O O2 0.788227 0.905156 0.713229
O O3 0.733812 0.901215 0.586293
O O4 0.830099 0.000000 0.616237
O O5 0.866362 0.133639 0.174694
O O6 0.911324 0.262697 0.156880
O O7 0.000000 0.160936 0.196417
O O8 0.375346 0.905353 0.500000
O O9 0.394330 0.863556 0.630331
O O10 0.364745 0.000000 0.604875
O O11 0.103024 0.623759 0.235341
O O12 0.133003 0.623338 0.095816
O O13 0.000000 0.628868 0.141056
O O14 0.323215 0.500000 0.216444
O O15 0.368522 0.368522 0.230780
O O16 0.238199 0.400478 0.272318
O O17 0.269234 0.395890 0.135457
O O18 0.140068 0.500000 0.721962
O O19 0.500000 0.811123 0.090442
O O20 0.600724 0.767302 0.000000
#
# Coordination Sequence:
#
# PCOD8312240 Si02
#       7
#    16  16  16  16  16  16  16
#     4   9  17  30  46  65  91 122 158 201 245 288
#     4   9  17  29  46  67  91 120 156 199 244 288
#     4  10  20  33  48  68  97 132 168 205 244 286
#     4  10  18  29  47  71  97 128 166 204 242 285
#     4   9  19  35  55  78 101 127 158 194 238 288
#     4  10  20  33  49  71  98 127 161 199 240 288
#     4   9  19  34  49  70 103 137 165 195 234 280
#
# _framework density 17.094183999999998
#
# number of rings (size 3 to 8) (size 9 to 14) (size 15 to 20)
#    0.000    2.571    1.429    1.714    0.000    6.429 
#    0.000    2.857    0.000    0.000    0.000    4.000 
#    0.000    0.000    0.000    6.286    0.000    0.143 
#
# Total GULP energy -1388759.975556 kJ/mol
# GULP energy per Si atom -12399.642639 kJ/mol
# Density = 1.705528 g / cm^3
# Si number density = 17.094184 Si / 1000 Ang^3
#
#
#
# Elastic Constant Matrix: (Units=GPa)
#
#
# Indices 1 2 3 4 5 6 
#
# 1 81.0281 56.0185 27.7219 0.0000 0.0000 0.0000
# 2 56.0185 81.0281 27.7219 0.0000 0.0000 0.0000
# 3 27.7219 27.7219 68.5323 0.0000 0.0000 0.0000
# 4 0.0000 0.0000 0.0000 17.0914 0.0000 0.0000
# 5 0.0000 0.0000 0.0000 0.0000 17.0914 0.0000
# 6 0.0000 0.0000 0.0000 0.0000 0.0000 32.3436
#
#
#
# Elastic Compliance Matrix: (Units=1/GPa)
#
#
# Indices 1 2 3 4 5 6 
#
# 1 0.024355 -0.015630 -0.003529 0.000000 0.000000 0.000000
# 2 -0.015630 0.024355 -0.003529 0.000000 0.000000 0.000000
# 3 -0.003529 -0.003529 0.017447 0.000000 0.000000 0.000000
# 4 0.000000 0.000000 0.000000 0.058509 0.000000 0.000000
# 5 0.000000 0.000000 0.000000 0.000000 0.058509 0.000000
# 6 0.000000 0.000000 0.000000 0.000000 0.000000 0.030918
#
#
# Mechanical properties :
#
#
# Convention : Reuss Voigt Hill
#
# Bulk Modulus (GPa) = 48.12485 50.39035 49.25760
# Shear Modulus (GPa) = 18.76914 21.24704 20.00809
#
# Velocity S-wave (km/s) = 3.31718 3.52936 3.42491
# Velocity P-wave (km/s) = 6.54870 6.79342 6.67218
#
# Compressibility (1/GPa) = 0.02077929
#
# Stress axis : x y z
#
# Youngs Moduli (GPa) = 41.06008 41.06008 57.31701
#
# Poissons Ratio (x) = 0.64177 0.20228
# Poissons Ratio (y) = 0.64177 0.20228
# Poissons Ratio (z) = 0.14491 0.14491
#
# Static dielectric constant tensor:
#      x y z
#    x 3.121130 0.000000 0.000000 
#    y 0.000000 3.121130 0.000000 
#    z 0.000000 0.000000 3.100420 
# 
# 
# High freq. dielectric constant tensor:
#      x y z
#    x 1.653890 0.000000 0.000000 
#    y 0.000000 1.653890 0.000000 
#    z 0.000000 0.000000 1.638640 
# 
# From -- ./inp_files/6671.got.cif
#   From: 2010.03.12/outbox.cif.g09.slc.cpg/sg123_4_cif.got.tgz:6671.got - 2010.04.06 16:26:55.
