data_PCOD8312543
_publ_section_title
;
Structure prediction by ZEFSAII (Michael W. Deem and Ramdas Pophale) SiO2 
 PCOD8312543
Probable space group: P 4/M M M
;
_chemical_formula_sum "Si O2"
_cell_formula_units_Z 68
_cell_length_a 12.016011
_cell_length_b 12.016011
_cell_length_c 28.359327
_cell_angle_alpha 90.000000
_cell_angle_beta 90.000000
_cell_angle_gamma 90.000000
_cell_volume 4094.647826
_symmetry_space_group_name_H-M "P 4/M M M"
_symmetry_group_IT_number 123
_symmetry_cell_setting 'tetragonal'
loop_
_space_group_symop_operation_xyz
x,y,z
-y,x,z
-x,-y,z
y,-x,z
x,-y,-z
-x,y,-z
y,x,-z
-y,-x,-z
-x,-y,-z
y,-x,-z
x,y,-z
-y,x,-z
-x,y,z
x,-y,z
-y,-x,z
y,x,z
loop_
_atom_site_type_symbol
_atom_site_label
_atom_site_fract_x
_atom_site_fract_y
_atom_site_fract_z
Si Si1 0.694722 0.874189 0.256554
Si Si2 0.371692 0.000000 0.081646
Si Si3 0.866964 0.500000 0.321791
Si Si4 0.131392 0.500000 0.427184
Si Si5 0.188903 0.000000 0.000000
Si Si6 0.684913 0.868073 0.500000
Si Si7 0.624954 0.807595 0.844899
O O1 0.808861 0.808861 0.260430
O O2 0.608130 0.822976 0.294121
O O3 0.644312 0.869334 0.204399
O O4 0.723499 0.000000 0.269597
O O5 0.351810 0.891834 0.112974
O O6 0.500000 0.000000 0.061436
O O7 0.273418 0.000000 0.043697
O O8 0.817178 0.500000 0.374687
O O9 0.000000 0.500000 0.321138
O O10 0.167415 0.612110 0.454438
O O11 0.000000 0.500000 0.424183
O O12 0.110206 0.110206 0.000000
O O13 0.800381 0.800381 0.500000
O O14 0.712359 0.000000 0.500000
O O15 0.500000 0.762563 0.846805
O O16 0.701951 0.701951 0.851562
#
# Coordination Sequence:
#
# PCOD8312543 Si02
#       7
#    16   8   8   8   4   8  16
#     4  10  19  31  48  71 100 131 166 207 249 299
#     4  10  20  35  58  77 101 135 175 212 255 301
#     4   9  17  30  51  69  94 128 176 211 246 292
#     4   8  16  31  48  70  94 132 172 210 242 293
#     4  11  23  38  54  78 113 141 168 212 260 311
#     4   9  17  30  50  74 103 131 166 208 256 305
#     4  10  19  32  51  74 100 132 169 210 254 302
#
# _framework density 16.607044999999999
#
# number of rings (size 3 to 8) (size 9 to 14) (size 15 to 20)
#    0.000    2.412    2.353    1.588    0.000    1.529 
#    0.000    0.000    0.000    3.176    0.000    9.882 
#    0.000    8.471    0.000    0.000    0.000    0.000 
#
# Total GULP energy -842907.655550 kJ/mol
# GULP energy per Si atom -12395.700817 kJ/mol
# Density = 1.656925 g / cm^3
# Si number density = 16.607045 Si / 1000 Ang^3
#
#
#
# Elastic Constant Matrix: (Units=GPa)
#
#
# Indices 1 2 3 4 5 6 
#
# 1 98.9392 57.3086 51.8940 0.0000 0.0000 0.0000
# 2 57.3086 98.9392 51.8940 0.0000 0.0000 0.0000
# 3 51.8940 51.8940 119.1846 0.0000 0.0000 0.0000
# 4 0.0000 0.0000 0.0000 10.5210 0.0000 0.0000
# 5 0.0000 0.0000 0.0000 0.0000 10.5210 0.0000
# 6 0.0000 0.0000 0.0000 0.0000 0.0000 4.6383
#
#
#
# Elastic Compliance Matrix: (Units=1/GPa)
#
#
# Indices 1 2 3 4 5 6 
#
# 1 0.016513 -0.007508 -0.003921 0.000000 0.000000 0.000000
# 2 -0.007508 0.016513 -0.003921 0.000000 0.000000 0.000000
# 3 -0.003921 -0.003921 0.011804 0.000000 0.000000 0.000000
# 4 0.000000 0.000000 0.000000 0.095048 0.000000 0.000000
# 5 0.000000 0.000000 0.000000 0.000000 0.095048 0.000000
# 6 0.000000 0.000000 0.000000 0.000000 0.000000 0.215597
#
#
# Mechanical properties :
#
#
# Convention : Reuss Voigt Hill
#
# Bulk Modulus (GPa) = 70.76715 71.02847 70.89781
# Shear Modulus (GPa) = 10.28951 15.53380 12.91166
#
# Velocity S-wave (km/s) = 2.49185 3.06171 2.79136
# Velocity P-wave (km/s) = 7.14033 7.44054 7.29198
#
# Compressibility (1/GPa) = 0.01413085
#
# Stress axis : x y z
#
# Youngs Moduli (GPa) = 60.55994 60.55994 84.71381
#
# Poissons Ratio (x) = 0.45470 0.33213
# Poissons Ratio (y) = 0.45470 0.33213
# Poissons Ratio (z) = 0.23743 0.23743
#
# Static dielectric constant tensor:
#      x y z
#    x 2.983570 0.000000 0.000000 
#    y 0.000000 2.983570 0.000000 
#    z 0.000000 0.000000 3.413290 
# 
# 
# High freq. dielectric constant tensor:
#      x y z
#    x 1.630780 0.000000 0.000000 
#    y 0.000000 1.630780 0.000000 
#    z 0.000000 0.000000 1.644480 
# 
# From -- ./inp_files/7940.got.cif
#   From: 2010.03.12/outbox.cif.g09.slc.cpg/sg123_4_cif.got.tgz:7940.got - 2010.04.06 16:26:55.
