data_PCOD8312339
_publ_section_title
;
Structure prediction by ZEFSAII (Michael W. Deem and Ramdas Pophale) SiO2 
 PCOD8312339
Probable space group: P 4/M M M
;
_chemical_formula_sum "Si O2"
_cell_formula_units_Z 72
_cell_length_a 14.020784
_cell_length_b 14.020784
_cell_length_c 23.496000
_cell_angle_alpha 90.000000
_cell_angle_beta 90.000000
_cell_angle_gamma 90.000000
_cell_volume 4618.899694
_symmetry_space_group_name_H-M "P 4/M M M"
_symmetry_group_IT_number 123
_symmetry_cell_setting 'tetragonal'
loop_
_space_group_symop_operation_xyz
x,y,z
-y,x,z
-x,-y,z
y,-x,z
x,-y,-z
-x,y,-z
y,x,-z
-y,-x,-z
-x,-y,-z
y,-x,-z
x,y,-z
-y,x,-z
-x,y,z
x,-y,z
-y,-x,z
y,x,z
loop_
_atom_site_type_symbol
_atom_site_label
_atom_site_fract_x
_atom_site_fract_y
_atom_site_fract_z
Si Si1 0.739859 0.892484 0.000000
Si Si2 0.393882 0.887122 0.772555
Si Si3 0.268368 0.888485 0.876649
Si Si4 0.886874 0.606315 0.436796
Si Si5 0.113051 0.733709 0.666734
O O1 0.685171 0.870868 0.059833
O O2 0.838309 0.838309 0.000000
O O3 0.773378 0.000000 0.000000
O O4 0.500000 0.842351 0.768351
O O5 0.345789 0.852195 0.831236
O O6 0.330984 0.853114 0.719425
O O7 0.401977 0.000000 0.771711
O O8 0.170918 0.829083 0.868890
O O9 0.243745 0.000000 0.866737
O O10 0.853835 0.638901 0.500000
O O11 0.847116 0.500000 0.423550
O O12 0.849952 0.681031 0.390237
O O13 0.000000 0.602340 0.433653
O O14 0.164000 0.836001 0.670695
O O15 0.000000 0.752086 0.666863
#
# Coordination Sequence:
#
# PCOD8312339 Si02
#       5
#     8  16  16  16  16
#     4   8  14  23  35  53  79 111 142 168 193 225
#     4   9  17  29  43  57  75 102 137 176 214 247
#     4   9  16  26  40  59  84 112 140 168 198 235
#     4   8  14  26  44  63  82 107 141 179 212 236
#     4  10  19  29  42  61  86 115 143 169 199 239
#
# _framework density 15.588127999999999
#
# number of rings (size 3 to 8) (size 9 to 14) (size 15 to 20)
#    0.000    3.111    0.000    2.000    0.000    3.667 
#    0.000    2.778    0.000    7.333    0.000    3.111 
#    0.000   20.889    0.000    9.778    0.000   25.778 
#
# Total GULP energy -891984.940119 kJ/mol
# GULP energy per Si atom -12388.679724 kJ/mol
# Density = 1.555265 g / cm^3
# Si number density = 15.588128 Si / 1000 Ang^3
#
#
#
# Elastic Constant Matrix: (Units=GPa)
#
#
# Indices 1 2 3 4 5 6 
#
# 1 58.7394 31.7126 46.6460 0.0000 0.0000 0.0000
# 2 31.7126 58.7394 46.6460 0.0000 0.0000 0.0000
# 3 46.6460 46.6460 149.5321 0.0000 0.0000 0.0000
# 4 0.0000 0.0000 0.0000 20.2055 0.0000 0.0000
# 5 0.0000 0.0000 0.0000 0.0000 20.2055 0.0000
# 6 0.0000 0.0000 0.0000 0.0000 0.0000 4.8569
#
#
#
# Elastic Compliance Matrix: (Units=1/GPa)
#
#
# Indices 1 2 3 4 5 6 
#
# 1 0.026650 -0.010350 -0.005085 0.000000 0.000000 0.000000
# 2 -0.010350 0.026650 -0.005085 0.000000 0.000000 0.000000
# 3 -0.005085 -0.005085 0.009860 0.000000 0.000000 0.000000
# 4 0.000000 0.000000 0.000000 0.049491 0.000000 0.000000
# 5 0.000000 0.000000 0.000000 0.000000 0.049491 0.000000
# 6 0.000000 0.000000 0.000000 0.000000 0.000000 0.205892
#
#
# Mechanical properties :
#
#
# Convention : Reuss Voigt Hill
#
# Bulk Modulus (GPa) = 45.20611 57.44668 51.32640
# Shear Modulus (GPa) = 12.00630 18.52066 15.26348
#
# Velocity S-wave (km/s) = 2.77830 3.45066 3.13257
# Velocity P-wave (km/s) = 6.27337 7.26697 6.78838
#
# Compressibility (1/GPa) = 0.02212090
#
# Stress axis : x y z
#
# Youngs Moduli (GPa) = 37.52329 37.52329 101.42141
#
# Poissons Ratio (x) = 0.38837 0.51570
# Poissons Ratio (y) = 0.38837 0.51570
# Poissons Ratio (z) = 0.19080 0.19080
#
# Static dielectric constant tensor:
#      x y z
#    x 2.716040 0.000000 0.000000 
#    y 0.000000 2.716040 0.000000 
#    z 0.000000 0.000000 3.555710 
# 
# 
# High freq. dielectric constant tensor:
#      x y z
#    x 1.558230 0.000000 0.000000 
#    y 0.000000 1.558230 0.000000 
#    z 0.000000 0.000000 1.627760 
# 
# From -- ./inp_files/7787.got.cif
#   From: 2010.03.12/outbox.cif.g09.slc.cpg/sg123_4_cif.got.tgz:7787.got - 2010.04.06 16:26:55.
