data_PCOD8312584
_publ_section_title
;
Structure prediction by ZEFSAII (Michael W. Deem and Ramdas Pophale) SiO2 
 PCOD8312584
Probable space group: P 4/M M M
;
_chemical_formula_sum "Si O2"
_cell_formula_units_Z 112
_cell_length_a 15.479195
_cell_length_b 15.479195
_cell_length_c 24.677663
_cell_angle_alpha 90.000000
_cell_angle_beta 90.000000
_cell_angle_gamma 90.000000
_cell_volume 5912.903235
_symmetry_space_group_name_H-M "P 4/M M M"
_symmetry_group_IT_number 123
_symmetry_cell_setting 'tetragonal'
loop_
_space_group_symop_operation_xyz
x,y,z
-y,x,z
-x,-y,z
y,-x,z
x,-y,-z
-x,y,-z
y,x,-z
-y,-x,-z
-x,-y,-z
y,-x,-z
x,y,-z
-y,x,-z
-x,y,z
x,-y,z
-y,-x,z
y,x,z
loop_
_atom_site_type_symbol
_atom_site_label
_atom_site_fract_x
_atom_site_fract_y
_atom_site_fract_z
Si Si1 0.904198 0.765078 0.606744
Si Si2 0.593714 0.158780 0.235936
Si Si3 0.904153 0.397563 0.939026
Si Si4 0.904711 0.766500 0.732543
Si Si5 0.402781 0.836736 0.438405
Si Si6 0.258648 0.400801 0.869370
Si Si7 0.727879 0.407452 0.662798
O O1 0.833840 0.833840 0.584113
O O2 0.885107 0.746577 0.669744
O O3 0.903740 0.674129 0.574390
O O4 0.000000 0.804841 0.599109
O O5 0.500000 0.112460 0.223730
O O6 0.677274 0.097141 0.232742
O O7 0.604424 0.238524 0.194522
O O8 0.591845 0.191248 0.297355
O O9 0.904763 0.500000 0.937979
O O10 0.826999 0.364810 0.900272
O O11 0.000000 0.364767 0.919838
O O12 0.886160 0.364174 0.000000
O O13 0.834795 0.834795 0.755252
O O14 0.000000 0.806824 0.739663
O O15 0.394488 0.804200 0.500000
O O16 0.500000 0.876210 0.428701
O O17 0.387287 0.756268 0.398585
O O18 0.280514 0.500000 0.886413
O O19 0.340690 0.340690 0.883581
O O20 0.680719 0.500000 0.663960
O O21 0.663306 0.336695 0.684790
#
# Coordination Sequence:
#
# PCOD8312584 Si02
#       7
#    16  16  16  16  16  16  16
#     4  10  21  36  55  78 103 133 166 201 246 303
#     4  10  20  34  52  75 103 136 175 220 267 311
#     4   8  15  30  51  73  99 133 175 224 272 311
#     4  10  20  34  53  76 104 136 168 207 256 312
#     4  10  21  36  55  78  99 124 163 210 260 313
#     4  10  20  32  49  75 108 146 184 221 262 314
#     4  10  19  32  50  70  96 129 164 208 259 311
#
# _framework density 18.941627
#
# number of rings (size 3 to 8) (size 9 to 14) (size 15 to 20)
#    0.000    2.286    1.429    2.143    0.000    3.429 
#    0.000    5.000    0.000    2.571    0.000    5.000 
#    0.000    0.286    0.000    1.571    0.000    0.143 
#
# Total GULP energy -1387615.056115 kJ/mol
# GULP energy per Si atom -12389.420144 kJ/mol
# Density = 1.889851 g / cm^3
# Si number density = 18.941627 Si / 1000 Ang^3
#
#
#
# Elastic Constant Matrix: (Units=GPa)
#
#
# Indices 1 2 3 4 5 6 
#
# 1 103.5034 61.8827 28.1209 0.0000 0.0000 0.0000
# 2 61.8827 103.5034 28.1209 0.0000 0.0000 0.0000
# 3 28.1209 28.1209 60.7334 0.0000 0.0000 0.0000
# 4 0.0000 0.0000 0.0000 18.0170 0.0000 0.0000
# 5 0.0000 0.0000 0.0000 0.0000 18.0170 0.0000
# 6 0.0000 0.0000 0.0000 0.0000 0.0000 14.5886
#
#
#
# Elastic Compliance Matrix: (Units=1/GPa)
#
#
# Indices 1 2 3 4 5 6 
#
# 1 0.015601 -0.008425 -0.003323 0.000000 0.000000 0.000000
# 2 -0.008425 0.015601 -0.003323 0.000000 0.000000 0.000000
# 3 -0.003323 -0.003323 0.019543 0.000000 0.000000 0.000000
# 4 0.000000 0.000000 0.000000 0.055503 0.000000 0.000000
# 5 0.000000 0.000000 0.000000 0.000000 0.055503 0.000000
# 6 0.000000 0.000000 0.000000 0.000000 0.000000 0.068547
#
#
# Mechanical properties :
#
#
# Convention : Reuss Voigt Hill
#
# Bulk Modulus (GPa) = 48.53432 55.99881 52.26656
# Shear Modulus (GPa) = 18.70502 20.09889 19.40196
#
# Velocity S-wave (km/s) = 3.14587 3.26098 3.20394
# Velocity P-wave (km/s) = 6.23491 6.61867 6.42965
#
# Compressibility (1/GPa) = 0.02060398
#
# Stress axis : x y z
#
# Youngs Moduli (GPa) = 64.09653 64.09653 51.17051
#
# Poissons Ratio (x) = 0.54001 0.17003
# Poissons Ratio (y) = 0.54001 0.17003
# Poissons Ratio (z) = 0.21298 0.21298
#
# Static dielectric constant tensor:
#      x y z
#    x 3.422150 0.000000 0.000000 
#    y 0.000000 3.422150 0.000000 
#    z 0.000000 0.000000 3.438800 
# 
# 
# High freq. dielectric constant tensor:
#      x y z
#    x 1.719250 0.000000 0.000000 
#    y 0.000000 1.719250 0.000000 
#    z 0.000000 0.000000 1.722170 
# 
# From -- ./inp_files/7501.got.cif
#   From: 2010.03.12/outbox.cif.g09.slc.cpg/sg123_4_cif.got.tgz:7501.got - 2010.04.06 16:26:55.
