data_PCOD8312616
_publ_section_title
;
Structure prediction by ZEFSAII (Michael W. Deem and Ramdas Pophale) SiO2 
 PCOD8312616
Probable space group: P 4/M M M
;
_chemical_formula_sum "Si O2"
_cell_formula_units_Z 80
_cell_length_a 12.600421
_cell_length_b 12.600421
_cell_length_c 29.189907
_cell_angle_alpha 90.000000
_cell_angle_beta 90.000000
_cell_angle_gamma 90.000000
_cell_volume 4634.499322
_symmetry_space_group_name_H-M "P 4/M M M"
_symmetry_group_IT_number 123
_symmetry_cell_setting 'tetragonal'
loop_
_space_group_symop_operation_xyz
x,y,z
-y,x,z
-x,-y,z
y,-x,z
x,-y,-z
-x,y,-z
y,x,-z
-y,-x,-z
-x,-y,-z
y,-x,-z
x,y,-z
-y,x,-z
-x,y,z
x,-y,z
-y,-x,z
y,x,z
loop_
_atom_site_type_symbol
_atom_site_label
_atom_site_fract_x
_atom_site_fract_y
_atom_site_fract_z
Si Si1 0.797404 0.623745 0.812065
Si Si2 0.114524 0.710029 0.000000
Si Si3 0.000000 0.625899 0.652588
Si Si4 0.000000 0.626050 0.244117
Si Si5 0.703454 0.125363 0.500000
Si Si6 0.789215 0.618485 0.084662
Si Si7 0.376604 0.201698 0.595084
O O1 0.771164 0.500000 0.802132
O O2 0.691950 0.691950 0.800968
O O3 0.893904 0.666776 0.781073
O O4 0.834856 0.641232 0.864581
O O5 0.123035 0.639013 0.954143
O O6 0.195627 0.804374 0.000000
O O7 0.000000 0.763349 0.000000
O O8 0.106745 0.665910 0.627545
O O9 0.000000 0.500000 0.651654
O O10 0.000000 0.670510 0.704236
O O11 0.000000 0.500000 0.243015
O O12 0.818778 0.181223 0.500000
O O13 0.634960 0.161919 0.456705
O O14 0.722174 0.000000 0.500000
O O15 0.747309 0.500000 0.081513
O O16 0.687565 0.687565 0.073228
O O17 0.500000 0.229606 0.604601
O O18 0.306502 0.306502 0.604838
#
# Coordination Sequence:
#
# PCOD8312616 Si02
#       7
#    16   8   8   8   8  16  16
#     4   9  18  32  51  75 102 132 166 205 250 301
#     4  10  21  34  48  68  94 124 161 202 242 286
#     4   9  18  33  52  72  97 132 175 214 249 300
#     4   9  18  32  51  74  98 129 167 210 258 301
#     4  10  19  32  52  78 108 143 180 217 256 298
#     4   9  18  31  47  71 100 128 159 193 234 287
#     4  10  20  33  52  78 107 139 174 212 255 304
#
# _framework density 17.261842000000001
#
# number of rings (size 3 to 8) (size 9 to 14) (size 15 to 20)
#    0.000    2.600    1.000    0.600    1.400    2.800 
#    0.000    2.000    0.000    4.200    0.000    7.000 
#    0.000    0.000    0.000    0.000    0.000    0.000 
#
# Total GULP energy -991733.331306 kJ/mol
# GULP energy per Si atom -12396.666641 kJ/mol
# Density = 1.722255 g / cm^3
# Si number density = 17.261842 Si / 1000 Ang^3
#
#
#
# Elastic Constant Matrix: (Units=GPa)
#
#
# Indices 1 2 3 4 5 6 
#
# 1 96.6982 46.0469 47.5243 0.0000 0.0000 0.0000
# 2 46.0469 96.6999 47.5249 0.0000 0.0000 0.0000
# 3 47.5243 47.5249 126.4928 0.0000 0.0000 0.0000
# 4 0.0000 0.0000 0.0000 19.4238 0.0000 0.0000
# 5 0.0000 0.0000 0.0000 0.0000 19.4238 0.0000
# 6 0.0000 0.0000 0.0000 0.0000 0.0000 11.0196
#
#
#
# Elastic Compliance Matrix: (Units=1/GPa)
#
#
# Indices 1 2 3 4 5 6 
#
# 1 0.014543 -0.005200 -0.003510 0.000000 0.000000 0.000000
# 2 -0.005200 0.014543 -0.003510 0.000000 0.000000 0.000000
# 3 -0.003510 -0.003510 0.010543 0.000000 0.000000 0.000000
# 4 0.000000 0.000000 0.000000 0.051483 0.000000 0.000000
# 5 0.000000 0.000000 0.000000 0.000000 0.051483 0.000000
# 6 0.000000 0.000000 0.000000 0.000000 0.000000 0.090747
#
#
# Mechanical properties :
#
#
# Convention : Reuss Voigt Hill
#
# Bulk Modulus (GPa) = 65.84132 66.89813 66.36973
# Shear Modulus (GPa) = 19.02260 21.89310 20.45785
#
# Velocity S-wave (km/s) = 3.32324 3.56518 3.44633
# Velocity P-wave (km/s) = 7.27673 7.46903 7.37350
#
# Compressibility (1/GPa) = 0.01518803
#
# Stress axis : x y z
#
# Youngs Moduli (GPa) = 68.76290 68.76397 94.84792
#
# Poissons Ratio (x) = 0.35756 0.33293
# Poissons Ratio (y) = 0.35756 0.33293
# Poissons Ratio (z) = 0.24137 0.24137
#
# Static dielectric constant tensor:
#      x y z
#    x 3.078220 0.000000 0.000000 
#    y 0.000000 3.078220 0.000000 
#    z 0.000000 0.000000 3.532520 
# 
# 
# High freq. dielectric constant tensor:
#      x y z
#    x 1.652170 0.000000 0.000000 
#    y 0.000000 1.652170 0.000000 
#    z 0.000000 0.000000 1.677400 
# 
# From -- ./inp_files/8427.got.cif
#   From: 2010.03.12/outbox.cif.g09.slc.cpg/sg123_5_cif.got.tgz:8427.got - 2010.04.06 16:26:55.
