data_PCOD8312482
_publ_section_title
;
Structure prediction by ZEFSAII (Michael W. Deem and Ramdas Pophale) SiO2 
 PCOD8312482
Probable space group: P 4/M M M
;
_chemical_formula_sum "Si O2"
_cell_formula_units_Z 72
_cell_length_a 12.454917
_cell_length_b 12.454917
_cell_length_c 28.021466
_cell_angle_alpha 90.000000
_cell_angle_beta 90.000000
_cell_angle_gamma 90.000000
_cell_volume 4346.828722
_symmetry_space_group_name_H-M "P 4/M M M"
_symmetry_group_IT_number 123
_symmetry_cell_setting 'tetragonal'
loop_
_space_group_symop_operation_xyz
x,y,z
-y,x,z
-x,-y,z
y,-x,z
x,-y,-z
-x,y,-z
y,x,-z
-y,-x,-z
-x,-y,-z
y,-x,-z
x,y,-z
-y,x,-z
-x,y,z
x,-y,z
-y,-x,z
y,x,z
loop_
_atom_site_type_symbol
_atom_site_label
_atom_site_fract_x
_atom_site_fract_y
_atom_site_fract_z
Si Si1 0.877824 0.297525 0.312201
Si Si2 0.500000 0.875805 0.377785
Si Si3 0.627759 0.000000 0.946092
Si Si4 0.205490 0.378267 0.110830
Si Si5 0.500000 0.673418 0.556232
Si Si6 0.293114 0.123175 0.795515
O O1 0.801181 0.198820 0.325835
O O2 0.851757 0.396098 0.346290
O O3 0.859781 0.338193 0.257937
O O4 0.000000 0.257224 0.318727
O O5 0.500000 0.791966 0.421141
O O6 0.500000 0.000000 0.396174
O O7 0.669795 0.105857 0.919096
O O8 0.500000 0.000000 0.944589
O O9 0.671943 0.000000 0.000000
O O10 0.230998 0.500000 0.096428
O O11 0.309629 0.309629 0.097664
O O12 0.178911 0.373846 0.167273
O O13 0.394117 0.605884 0.571618
O O14 0.500000 0.690902 0.500000
O O15 0.175276 0.175276 0.799919
O O16 0.280878 0.000000 0.809090
#
# Coordination Sequence:
#
# PCOD8312482 Si02
#       6
#    16   8   8  16   8  16
#     4   9  18  30  45  67  94 127 162 199 240 285
#     4  10  19  30  46  72 101 130 157 198 248 294
#     4   9  18  34  54  75  95 119 155 196 235 283
#     4  10  20  33  51  74  97 128 161 195 239 285
#     4   9  18  33  53  73  93 126 171 211 245 283
#     4   9  17  29  46  69  96 126 163 199 237 285
#
# _framework density 16.563798999999999
#
# number of rings (size 3 to 8) (size 9 to 14) (size 15 to 20)
#    0.000    2.667    1.111    1.000    1.556    1.333 
#    0.000    2.222    0.000    0.333    0.000    3.889 
#    0.000    0.000    0.000   20.667    0.000    0.222 
#
# Total GULP energy -892622.409433 kJ/mol
# GULP energy per Si atom -12397.533464 kJ/mol
# Density = 1.652610 g / cm^3
# Si number density = 16.563799 Si / 1000 Ang^3
#
#
#
# Elastic Constant Matrix: (Units=GPa)
#
#
# Indices 1 2 3 4 5 6 
#
# 1 99.9013 56.9341 42.7771 0.0000 0.0000 0.0000
# 2 56.9341 99.9013 42.7771 0.0000 0.0000 0.0000
# 3 42.7771 42.7771 73.1467 0.0000 0.0000 0.0000
# 4 0.0000 0.0000 0.0000 22.0614 0.0000 0.0000
# 5 0.0000 0.0000 0.0000 0.0000 22.0614 0.0000
# 6 0.0000 0.0000 0.0000 0.0000 0.0000 19.3131
#
#
#
# Elastic Compliance Matrix: (Units=1/GPa)
#
#
# Indices 1 2 3 4 5 6 
#
# 1 0.016318 -0.006955 -0.005476 0.000000 0.000000 0.000000
# 2 -0.006955 0.016318 -0.005476 0.000000 0.000000 0.000000
# 3 -0.005476 -0.005476 0.020076 0.000000 0.000000 0.000000
# 4 0.000000 0.000000 0.000000 0.045328 0.000000 0.000000
# 5 0.000000 0.000000 0.000000 0.000000 0.045328 0.000000
# 6 0.000000 0.000000 0.000000 0.000000 0.000000 0.051778
#
#
# Mechanical properties :
#
#
# Convention : Reuss Voigt Hill
#
# Bulk Modulus (GPa) = 59.17443 61.99178 60.58310
# Shear Modulus (GPa) = 21.13337 21.38460 21.25898
#
# Velocity S-wave (km/s) = 3.57582 3.59701 3.58643
# Velocity P-wave (km/s) = 7.26989 7.39991 7.33519
#
# Compressibility (1/GPa) = 0.01689919
#
# Stress axis : x y z
#
# Youngs Moduli (GPa) = 61.28080 61.28080 49.81163
#
# Poissons Ratio (x) = 0.42622 0.27275
# Poissons Ratio (y) = 0.42622 0.27275
# Poissons Ratio (z) = 0.33555 0.33555
#
# Static dielectric constant tensor:
#      x y z
#    x 3.043590 0.000000 0.000000 
#    y 0.000000 3.043590 0.000000 
#    z 0.000000 0.000000 3.073760 
# 
# 
# High freq. dielectric constant tensor:
#      x y z
#    x 1.631610 0.000000 0.000000 
#    y 0.000000 1.631610 0.000000 
#    z 0.000000 0.000000 1.630980 
# 
# From -- ./inp_files/8300.got.cif
#   From: 2010.03.12/outbox.cif.g09.slc.cpg/sg123_5_cif.got.tgz:8300.got - 2010.04.06 16:26:55.
