data_PCOD8312751
_publ_section_title
;
Structure prediction by ZEFSAII (Michael W. Deem and Ramdas Pophale) SiO2 
 PCOD8312751
Probable space group: P 4/M M M
;
_chemical_formula_sum "Si O2"
_cell_formula_units_Z 120
_cell_length_a 17.838623
_cell_length_b 17.838623
_cell_length_c 22.389215
_cell_angle_alpha 90.000000
_cell_angle_beta 90.000000
_cell_angle_gamma 90.000000
_cell_volume 7124.616975
_symmetry_space_group_name_H-M "P 4/M M M"
_symmetry_group_IT_number 123
_symmetry_cell_setting 'tetragonal'
loop_
_space_group_symop_operation_xyz
x,y,z
-y,x,z
-x,-y,z
y,-x,z
x,-y,-z
-x,y,-z
y,x,-z
-y,-x,-z
-x,-y,-z
y,-x,-z
x,y,-z
-y,x,-z
-x,y,z
x,-y,z
-y,-x,z
y,x,z
loop_
_atom_site_type_symbol
_atom_site_label
_atom_site_fract_x
_atom_site_fract_y
_atom_site_fract_z
Si Si1 0.085925 0.203362 0.431259
Si Si2 0.585409 0.000000 0.430704
Si Si3 0.799011 0.916738 0.825611
Si Si4 0.145136 0.655880 0.626502
Si Si5 0.650280 0.915626 0.247841
Si Si6 0.708224 0.586462 0.569513
Si Si7 0.585127 0.086986 0.875155
Si Si8 0.277083 0.841137 0.068678
O O1 0.089914 0.230511 0.500000
O O2 0.119673 0.119673 0.425158
O O3 0.137924 0.256730 0.390482
O O4 0.000000 0.203205 0.408534
O O5 0.617967 0.924643 0.404807
O O6 0.500000 0.000000 0.413821
O O7 0.602682 0.000000 0.500000
O O8 0.864823 0.864823 0.801815
O O9 0.731887 0.906418 0.779823
O O10 0.773471 0.897104 0.892669
O O11 0.830700 0.000000 0.826158
O O12 0.141857 0.642117 0.697634
O O13 0.223180 0.621254 0.605832
O O14 0.590320 0.897170 0.195879
O O15 0.638138 0.000000 0.272264
O O16 0.728662 0.592572 0.500000
O O17 0.695129 0.500000 0.588185
O O18 0.632520 0.632520 0.584262
O O19 0.500000 0.099669 0.896281
O O20 0.636521 0.146961 0.910870
O O21 0.610343 0.000000 0.887291
O O22 0.244514 0.755487 0.078001
O O23 0.269720 0.864699 0.000000
#
# Coordination Sequence:
#
# PCOD8312751 Si02
#       8
#    16   8  16  16  16  16  16  16
#     4  10  20  33  49  69  95 127 164 207 252 298
#     4  11  22  32  46  72 105 133 154 186 237 300
#     4   9  18  31  47  66  93 127 167 212 250 283
#     4  12  20  33  53  76 100 129 163 199 244 299
#     4   9  18  33  47  67  95 131 165 193 237 295
#     4  10  22  39  57  77 100 125 156 197 244 295
#     4   9  18  31  48  71 100 129 161 206 248 283
#     4   9  17  30  48  69  96 132 167 196 235 291
#
# _framework density 16.84301
#
# number of rings (size 3 to 8) (size 9 to 14) (size 15 to 20)
#    0.000    2.200    1.333    3.200    0.000    6.000 
#    0.000    2.000    0.000    0.000    0.000    3.733 
#    0.000    0.267    0.000    1.467    0.000    0.000 
#
# Total GULP energy -1487486.385296 kJ/mol
# GULP energy per Si atom -12395.719877 kJ/mol
# Density = 1.680468 g / cm^3
# Si number density = 16.843010 Si / 1000 Ang^3
#
#
#
# Elastic Constant Matrix: (Units=GPa)
#
#
# Indices 1 2 3 4 5 6 
#
# 1 93.8593 55.7778 30.2890 0.0000 0.0000 0.0000
# 2 55.7778 93.8593 30.2890 0.0000 0.0000 0.0000
# 3 30.2890 30.2890 82.0681 0.0000 0.0000 0.0000
# 4 0.0000 0.0000 0.0000 22.9488 0.0000 0.0000
# 5 0.0000 0.0000 0.0000 0.0000 22.9488 0.0000
# 6 0.0000 0.0000 0.0000 0.0000 0.0000 148.7636
#
#
#
# Elastic Compliance Matrix: (Units=1/GPa)
#
#
# Indices 1 2 3 4 5 6 
#
# 1 0.017058 -0.009201 -0.002900 0.000000 0.000000 0.000000
# 2 -0.009201 0.017058 -0.002900 0.000000 0.000000 0.000000
# 3 -0.002900 -0.002900 0.014325 0.000000 0.000000 0.000000
# 4 0.000000 0.000000 0.000000 0.043575 0.000000 0.000000
# 5 0.000000 0.000000 0.000000 0.000000 0.043575 0.000000
# 6 0.000000 0.000000 0.000000 0.000000 0.000000 0.006722
#
#
# Mechanical properties :
#
#
# Convention : Reuss Voigt Hill
#
# Bulk Modulus (GPa) = 54.22973 55.83314 55.03144
# Shear Modulus (GPa) = 28.01711 49.16096 38.58904
#
# Velocity S-wave (km/s) = 4.08294 5.40843 4.79174
# Velocity P-wave (km/s) = 7.38202 8.49839 7.95980
#
# Compressibility (1/GPa) = 0.01844007
#
# Stress axis : x y z
#
# Youngs Moduli (GPa) = 58.62326 58.62326 69.80618
#
# Poissons Ratio (x) = 0.53941 0.20242
# Poissons Ratio (y) = 0.53941 0.20242
# Poissons Ratio (z) = 0.16999 0.16999
#
# Static dielectric constant tensor:
#      x y z
#    x 3.188880 0.000000 0.000000 
#    y 0.000000 3.188880 0.000000 
#    z 0.000000 0.000000 3.141510 
# 
# 
# High freq. dielectric constant tensor:
#      x y z
#    x 1.639900 0.000000 0.000000 
#    y 0.000000 1.639900 0.000000 
#    z 0.000000 0.000000 1.642680 
# 
# From -- ./inp_files/6831.got.cif
#   From: 2010.03.12/outbox.cif.g09.slc.cpg/sg123_4_cif.got.tgz:6831.got - 2010.04.06 16:26:55.
