data_PCOD8312895
_publ_section_title
;
Structure prediction by ZEFSAII (Michael W. Deem and Ramdas Pophale) SiO2 
 PCOD8312895
Probable space group: P 4/M M M
;
_chemical_formula_sum "Si O2"
_cell_formula_units_Z 120
_cell_length_a 28.190407
_cell_length_b 28.190407
_cell_length_c 8.175731
_cell_angle_alpha 90.000000
_cell_angle_beta 90.000000
_cell_angle_gamma 90.000000
_cell_volume 6497.245633
_symmetry_space_group_name_H-M "P 4/M M M"
_symmetry_group_IT_number 123
_symmetry_cell_setting 'tetragonal'
loop_
_space_group_symop_operation_xyz
x,y,z
-y,x,z
-x,-y,z
y,-x,z
x,-y,-z
-x,y,-z
y,x,-z
-y,-x,-z
-x,-y,-z
y,-x,-z
x,y,-z
-y,x,-z
-x,y,z
x,-y,z
-y,-x,z
y,x,z
loop_
_atom_site_type_symbol
_atom_site_label
_atom_site_fract_x
_atom_site_fract_y
_atom_site_fract_z
Si Si1 0.102340 0.288805 0.815378
Si Si2 0.132304 0.446941 0.811756
Si Si3 0.716374 0.643538 0.694626
Si Si4 0.766585 0.552570 0.309110
Si Si5 0.055448 0.810463 0.814689
Si Si6 0.053804 0.378087 0.687188
Si Si7 0.205848 0.718677 0.689876
Si Si8 0.055290 0.870287 0.500000
O O1 0.082646 0.237411 0.775553
O O2 0.075667 0.325665 0.698863
O O3 0.158556 0.287400 0.793092
O O4 0.090993 0.304290 0.000000
O O5 0.119174 0.500000 0.752958
O O6 0.179519 0.429112 0.718066
O O7 0.086863 0.414361 0.784061
O O8 0.146051 0.445975 0.000000
O O9 0.715496 0.642139 0.500000
O O10 0.665668 0.665668 0.757167
O O11 0.728598 0.590806 0.764363
O O12 0.758173 0.678353 0.751342
O O13 0.757527 0.548815 0.500000
O O14 0.759133 0.500000 0.229065
O O15 0.071738 0.845106 0.668741
O O16 0.000000 0.799993 0.801757
O O17 0.067671 0.829413 0.000000
O O18 0.053445 0.393811 0.500000
O O19 0.000000 0.379300 0.757816
O O20 0.193396 0.712256 0.500000
O O21 0.229839 0.770162 0.720902
O O22 0.078253 0.921748 0.500000
O O23 0.000000 0.878307 0.500000
#
# Coordination Sequence:
#
# PCOD8312895 Si02
#       8
#    16  16  16  16  16  16  16   8
#     4  11  22  35  53  76 103 133 165 207 255 304
#     4  10  21  36  53  73  99 131 165 207 263 317
#     4   8  14  26  43  63  91 127 161 196 243 293
#     4   9  16  27  47  73  96 121 161 210 251 294
#     4   9  20  38  57  79 108 140 173 210 253 305
#     4  11  24  38  54  75  97 127 169 215 259 306
#     4   9  18  31  47  68  95 129 167 201 237 292
#     4  10  22  39  62  88 112 142 173 207 253 305
#
# _framework density 18.469363999999999
#
# number of rings (size 3 to 8) (size 9 to 14) (size 15 to 20)
#    0.000    2.400    0.000    3.200    1.867    4.867 
#    0.000    2.667    0.000    1.200    0.000    1.867 
#    0.000    0.267    0.000    3.733    0.000    0.000 
#
# Total GULP energy -1487283.181341 kJ/mol
# GULP energy per Si atom -12394.026511 kJ/mol
# Density = 1.842733 g / cm^3
# Si number density = 18.469364 Si / 1000 Ang^3
#
#
#
# Elastic Constant Matrix: (Units=GPa)
#
#
# Indices 1 2 3 4 5 6 
#
# 1 90.0719 81.4821 20.6023 0.0000 0.0000 0.0000
# 2 81.4821 90.0607 20.6003 0.0000 0.0000 0.0000
# 3 20.6023 20.6003 52.1123 0.0000 0.0000 0.0000
# 4 0.0000 0.0000 0.0000 13.9023 0.0000 0.0000
# 5 0.0000 0.0000 0.0000 0.0000 13.9024 0.0000
# 6 0.0000 0.0000 0.0000 0.0000 0.0000 9.3045
#
#
#
# Elastic Compliance Matrix: (Units=1/GPa)
#
#
# Indices 1 2 3 4 5 6 
#
# 1 0.061463 -0.055026 -0.002547 0.000000 0.000000 0.000000
# 2 -0.055026 0.061471 -0.002545 0.000000 0.000000 0.000000
# 3 -0.002547 -0.002545 0.021202 0.000000 0.000000 0.000000
# 4 0.000000 0.000000 0.000000 0.071931 0.000000 0.000000
# 5 0.000000 0.000000 0.000000 0.000000 0.071930 0.000000
# 6 0.000000 0.000000 0.000000 0.000000 0.000000 0.107475
#
#
# Mechanical properties :
#
#
# Convention : Reuss Voigt Hill
#
# Bulk Modulus (GPa) = 41.84233 53.06829 47.45531
# Shear Modulus (GPa) = 9.54789 14.72585 12.13687
#
# Velocity S-wave (km/s) = 2.27614 2.82673 2.56625
# Velocity P-wave (km/s) = 5.44168 6.28088 5.87628
#
# Compressibility (1/GPa) = 0.02389924
#
# Stress axis : x y z
#
# Youngs Moduli (GPa) = 16.26982 16.26791 47.16426
#
# Poissons Ratio (x) = 0.89516 0.12013
# Poissons Ratio (y) = 0.89527 0.12005
# Poissons Ratio (z) = 0.04144 0.04141
#
# Static dielectric constant tensor:
#      x y z
#    x 3.522140 0.000000 0.000000 
#    y 0.000000 3.522140 0.000000 
#    z 0.000000 0.000000 3.344120 
# 
# 
# High freq. dielectric constant tensor:
#      x y z
#    x 1.705630 0.000000 0.000000 
#    y 0.000000 1.705630 0.000000 
#    z 0.000000 0.000000 1.708770 
# 
# From -- ./inp_files/2063.got.cif
#   From: 2010.03.12/outbox.cif.g09.slc.cpg/sg123_2_cif.got.tgz:2063.got - 2010.04.06 16:26:55.
