data_PCOD8312271
_publ_section_title
;
Structure prediction by ZEFSAII (Michael W. Deem and Ramdas Pophale) SiO2 
 PCOD8312271
Probable space group: P 4/M M M
;
_chemical_formula_sum "Si O2"
_cell_formula_units_Z 120
_cell_length_a 22.596458
_cell_length_b 22.596458
_cell_length_c 13.706099
_cell_angle_alpha 90.000000
_cell_angle_beta 90.000000
_cell_angle_gamma 90.000000
_cell_volume 6998.332973
_symmetry_space_group_name_H-M "P 4/M M M"
_symmetry_group_IT_number 123
_symmetry_cell_setting 'tetragonal'
loop_
_space_group_symop_operation_xyz
x,y,z
-y,x,z
-x,-y,z
y,-x,z
x,-y,-z
-x,y,-z
y,x,-z
-y,-x,-z
-x,-y,-z
y,-x,-z
x,y,-z
-y,x,-z
-x,y,z
x,-y,z
-y,-x,z
y,x,z
loop_
_atom_site_type_symbol
_atom_site_label
_atom_site_fract_x
_atom_site_fract_y
_atom_site_fract_z
Si Si1 0.270450 0.825811 0.887616
Si Si2 0.344716 0.749773 0.747604
Si Si3 0.379910 0.934166 0.608986
Si Si4 0.564667 0.338329 0.500000
Si Si5 0.186711 0.565817 0.611665
Si Si6 0.661089 0.433163 0.285950
Si Si7 0.837905 0.932529 0.388085
Si Si8 0.270126 0.932060 0.252999
O O1 0.208060 0.791941 0.874556
O O2 0.323135 0.788499 0.838023
O O3 0.266655 0.890862 0.841913
O O4 0.287588 0.832874 0.000000
O O5 0.289516 0.710485 0.704340
O O6 0.375775 0.790876 0.667635
O O7 0.395570 0.703614 0.785183
O O8 0.351557 0.931463 0.500000
O O9 0.431039 0.884924 0.617177
O O10 0.330003 0.920920 0.688636
O O11 0.406820 0.000000 0.627103
O O12 0.500000 0.367820 0.500000
O O13 0.609360 0.390641 0.500000
O O14 0.571066 0.305256 0.605704
O O15 0.209769 0.569562 0.500000
O O16 0.204222 0.500000 0.654018
O O17 0.654391 0.500000 0.248755
O O18 0.595760 0.404241 0.291501
O O19 0.820006 0.921920 0.500000
O O20 0.894090 0.894090 0.356849
O O21 0.782653 0.912906 0.323815
O O22 0.855902 0.000000 0.368795
O O23 0.264307 0.000000 0.218556
#
# Coordination Sequence:
#
# PCOD8312271 Si02
#       8
#    16  16  16   8  16  16  16  16
#     4  10  21  37  55  74  97 125 162 212 263 306
#     4  10  20  34  50  69  97 130 164 203 248 296
#     4   9  17  30  48  72 103 135 166 200 238 285
#     4   8  14  23  36  58  88 124 159 187 219 259
#     4  10  20  32  49  74 102 133 167 202 241 289
#     4   9  17  28  44  66  94 128 162 195 231 275
#     4   9  17  28  44  69 103 143 181 212 242 281
#     4  10  18  31  52  75 101 131 163 205 255 303
#
# _framework density 17.146941000000002
#
# number of rings (size 3 to 8) (size 9 to 14) (size 15 to 20)
#    0.000    2.533    1.333    1.200    0.933    2.733 
#    0.000    3.333    0.000    1.600    0.000    0.000 
#    0.000    2.133    0.000   17.600    0.000    0.267 
#
# Total GULP energy -1486747.576907 kJ/mol
# GULP energy per Si atom -12389.563141 kJ/mol
# Density = 1.710791 g / cm^3
# Si number density = 17.146941 Si / 1000 Ang^3
#
#
#
# Elastic Constant Matrix: (Units=GPa)
#
#
# Indices 1 2 3 4 5 6 
#
# 1 80.3816 39.5854 46.0316 0.0000 0.0000 0.0000
# 2 39.5854 80.3813 46.0316 0.0000 0.0000 0.0000
# 3 46.0316 46.0316 78.2102 0.0000 0.0000 0.0000
# 4 0.0000 0.0000 0.0000 20.3629 0.0000 0.0000
# 5 0.0000 0.0000 0.0000 0.0000 20.3630 0.0000
# 6 0.0000 0.0000 0.0000 0.0000 0.0000 23.2861
#
#
#
# Elastic Compliance Matrix: (Units=1/GPa)
#
#
# Indices 1 2 3 4 5 6 
#
# 1 0.019857 -0.004655 -0.008947 0.000000 0.000000 0.000000
# 2 -0.004655 0.019857 -0.008947 0.000000 0.000000 0.000000
# 3 -0.008947 -0.008947 0.023318 0.000000 0.000000 0.000000
# 4 0.000000 0.000000 0.000000 0.049109 0.000000 0.000000
# 5 0.000000 0.000000 0.000000 0.000000 0.049109 0.000000
# 6 0.000000 0.000000 0.000000 0.000000 0.000000 0.042944
#
#
# Mechanical properties :
#
#
# Convention : Reuss Voigt Hill
#
# Bulk Modulus (GPa) = 55.76380 55.80782 55.78581
# Shear Modulus (GPa) = 19.58706 19.95735 19.77221
#
# Velocity S-wave (km/s) = 3.38347 3.41530 3.39942
# Velocity P-wave (km/s) = 6.91777 6.94045 6.92912
#
# Compressibility (1/GPa) = 0.01793278
#
# Stress axis : x y z
#
# Youngs Moduli (GPa) = 50.36027 50.36002 42.88532
#
# Poissons Ratio (x) = 0.23444 0.38370
# Poissons Ratio (y) = 0.23444 0.38370
# Poissons Ratio (z) = 0.45058 0.45058
#
# Static dielectric constant tensor:
#      x y z
#    x 3.345970 0.000000 0.000000 
#    y 0.000000 3.345940 0.000000 
#    z 0.000000 0.000000 2.897310 
# 
# 
# High freq. dielectric constant tensor:
#      x y z
#    x 1.671240 0.000000 0.000000 
#    y 0.000000 1.671240 0.000000 
#    z 0.000000 0.000000 1.613450 
# 
# From -- ./inp_files/3486.got.cif
#   From: 2010.03.12/outbox.cif.g09.slc.cpg/sg123_2_cif.got.tgz:3486.got - 2010.04.06 16:26:55.
