data_PCOD8312637
_publ_section_title
;
Structure prediction by ZEFSAII (Michael W. Deem and Ramdas Pophale) SiO2 
 PCOD8312637
Probable space group: P 4/M M M
;
_chemical_formula_sum "Si O2"
_cell_formula_units_Z 88
_cell_length_a 17.999047
_cell_length_b 17.999047
_cell_length_c 12.750564
_cell_angle_alpha 90.000000
_cell_angle_beta 90.000000
_cell_angle_gamma 90.000000
_cell_volume 4130.745301
_symmetry_space_group_name_H-M "P 4/M M M"
_symmetry_group_IT_number 123
_symmetry_cell_setting 'tetragonal'
loop_
_space_group_symop_operation_xyz
x,y,z
-y,x,z
-x,-y,z
y,-x,z
x,-y,-z
-x,y,-z
y,x,-z
-y,-x,-z
-x,-y,-z
y,-x,-z
x,y,-z
-y,x,-z
-x,y,z
x,-y,z
-y,-x,z
y,x,z
loop_
_atom_site_type_symbol
_atom_site_label
_atom_site_fract_x
_atom_site_fract_y
_atom_site_fract_z
Si Si1 0.417913 0.084488 0.374969
Si Si2 0.915321 0.199168 0.811176
Si Si3 0.652833 0.852178 0.879480
Si Si4 0.735211 0.147782 0.380649
Si Si5 0.413589 0.000000 0.118809
Si Si6 0.701051 0.583847 0.125096
O O1 0.416226 0.081129 0.500000
O O2 0.500000 0.113369 0.338431
O O3 0.350523 0.140707 0.339185
O O4 0.405891 0.000000 0.331112
O O5 0.882142 0.117859 0.838085
O O6 0.862140 0.258898 0.868740
O O7 0.909249 0.214636 0.686626
O O8 0.000000 0.203661 0.850737
O O9 0.623402 0.775428 0.830066
O O10 0.613940 0.924233 0.823355
O O11 0.628347 0.851861 0.000000
O O12 0.741525 0.121059 0.500000
O O13 0.768015 0.231986 0.367020
O O14 0.500000 0.000000 0.115374
O O15 0.380224 0.000000 0.000000
O O16 0.695726 0.500000 0.168741
O O17 0.630032 0.630032 0.166551
O O18 0.701909 0.584172 0.000000
#
# Coordination Sequence:
#
# PCOD8312637 Si02
#       6
#    16  16  16  16   8  16
#     4   8  13  23  42  67  95 126 155 188 235 287
#     4  11  23  37  54  75  99 129 169 212 258 312
#     4  10  19  34  53  74 100 132 172 214 257 303
#     4   9  18  33  53  75 100 131 165 203 249 304
#     4   9  16  28  50  76 102 130 158 201 256 302
#     4   9  17  29  47  72 103 140 177 212 253 300
#
# _framework density 21.303661999999999
#
# number of rings (size 3 to 8) (size 9 to 14) (size 15 to 20)
#    0.000    2.636    0.909    2.182    0.000    4.727 
#    0.000    2.727    0.000    0.000    0.000    3.818 
#    0.000    0.364    0.000    5.091    0.000    0.000 
#
# Total GULP energy -1090606.852219 kJ/mol
# GULP energy per Si atom -12393.259684 kJ/mol
# Density = 2.125517 g / cm^3
# Si number density = 21.303662 Si / 1000 Ang^3
#
#
#
# Elastic Constant Matrix: (Units=GPa)
#
#
# Indices 1 2 3 4 5 6 
#
# 1 152.1026 102.1941 11.3787 0.0000 0.0000 0.0000
# 2 102.1941 152.1026 11.3787 0.0000 0.0000 0.0000
# 3 11.3787 11.3787 15.2495 0.0000 0.0000 0.0000
# 4 0.0000 0.0000 0.0000 18.0220 0.0000 0.0000
# 5 0.0000 0.0000 0.0000 0.0000 18.0220 0.0000
# 6 0.0000 0.0000 0.0000 0.0000 0.0000 44.3286
#
#
#
# Elastic Compliance Matrix: (Units=1/GPa)
#
#
# Indices 1 2 3 4 5 6 
#
# 1 0.012125 -0.007911 -0.003144 0.000000 0.000000 0.000000
# 2 -0.007911 0.012125 -0.003144 0.000000 0.000000 0.000000
# 3 -0.003144 -0.003144 0.070268 0.000000 0.000000 0.000000
# 4 0.000000 0.000000 0.000000 0.055488 0.000000 0.000000
# 5 0.000000 0.000000 0.000000 0.000000 0.055488 0.000000
# 6 0.000000 0.000000 0.000000 0.000000 0.000000 0.022559
#
#
# Mechanical properties :
#
#
# Convention : Reuss Voigt Hill
#
# Bulk Modulus (GPa) = 15.12428 63.26198 39.19313
# Shear Modulus (GPa) = 17.95384 29.04141 23.49762
#
# Velocity S-wave (km/s) = 2.90618 3.69618 3.32472
# Velocity P-wave (km/s) = 4.28672 6.92643 5.75984
#
# Compressibility (1/GPa) = 0.06611887
#
# Stress axis : x y z
#
# Youngs Moduli (GPa) = 82.47258 82.47258 14.23121
#
# Poissons Ratio (x) = 0.65248 0.04475
# Poissons Ratio (y) = 0.65248 0.04475
# Poissons Ratio (z) = 0.25931 0.25931
#
# Static dielectric constant tensor:
#      x y z
#    x 3.996390 0.000000 0.000000 
#    y 0.000000 3.996390 0.000000 
#    z 0.000000 0.000000 3.959530 
# 
# 
# High freq. dielectric constant tensor:
#      x y z
#    x 1.823610 0.000000 0.000000 
#    y 0.000000 1.823610 0.000000 
#    z 0.000000 0.000000 1.835320 
# 
# From -- ./inp_files/4115.got.cif
#   From: 2010.03.12/outbox.cif.g09.slc.cpg/sg123_3_cif.got.tgz:4115.got - 2010.04.06 16:26:55.
