data_PCOD8312095
_publ_section_title
;
Structure prediction by ZEFSAII (Michael W. Deem and Ramdas Pophale) SiO2 
 PCOD8312095
Probable space group: I -4 2 D
;
_chemical_formula_sum "Si O2"
_cell_formula_units_Z 64
_cell_length_a 10.989931
_cell_length_b 10.989931
_cell_length_c 21.497422
_cell_angle_alpha 90.000000
_cell_angle_beta 90.000000
_cell_angle_gamma 90.000000
_cell_volume 2596.428176
_symmetry_space_group_name_H-M "I -4 2 D"
_symmetry_group_IT_number 122
_symmetry_cell_setting 'tetragonal'
loop_
_space_group_symop_operation_xyz
x,y,z
y,-x,-z
-x,-y,z
-y,x,-z
x,1/2-y,1/4-z
-x,1/2+y,1/4-z
-y,1/2-x,1/4+z
y,1/2+x,1/4+z
1/2+x,1/2+y,1/2+z
1/2+y,1/2-x,1/2-z
1/2-x,1/2-y,1/2+z
1/2-y,1/2+x,1/2-z
1/2+x,-y,3/4-z
1/2-x,y,3/4-z
1/2-y,-x,3/4+z
1/2+y,x,3/4+z
loop_
_atom_site_type_symbol
_atom_site_label
_atom_site_fract_x
_atom_site_fract_y
_atom_site_fract_z
Si Si1 0.610703 0.091051 0.165653
Si Si2 0.112082 0.243890 0.191601
Si Si3 0.298958 0.046508 0.050343
Si Si4 0.707528 0.988806 0.490726
O O1 0.565479 0.230778 0.177181
O O2 0.500000 0.000000 0.173161
O O3 0.681876 0.060941 0.101442
O O4 0.699291 0.075738 0.224313
O O5 0.042861 0.250000 0.125000
O O6 0.220882 0.338939 0.178737
O O7 0.165429 0.112886 0.210143
O O8 0.013840 0.277508 0.243980
O O9 0.433238 0.091553 0.031069
#
# Coordination Sequence:
#
# PCOD8312095 Si02
#       4
#    16  16  16  16
#     4  12  22  42  77 114 151 196 248 330 399 456
#     4  12  27  51  74 106 155 200 259 316 385 475
#     4  12  29  48  74 112 153 207 255 324 391 477
#     4  12  23  48  76 114 152 197 256 323 400 457
#
# _framework density 24.649246999999999
#
# number of rings (size 3 to 8) (size 9 to 14) (size 15 to 20)
#    0.000    0.000    7.500    2.250    0.000    5.500 
#    4.500    0.000    0.000    0.000    0.000    0.000 
#    0.000    0.000    0.000    0.000    0.000    0.000 
#
# Total GULP energy -396643.812324 kJ/mol
# GULP energy per Si atom -12395.119135 kJ/mol
# Density = 2.459314 g / cm^3
# Si number density = 24.649247 Si / 1000 Ang^3
#
#
#
# Elastic Constant Matrix: (Units=GPa)
#
#
# Indices 1 2 3 4 5 6 
#
# 1 74.6413 8.7604 33.2600 0.0000 0.0000 0.0000
# 2 8.7604 74.6413 33.2600 0.0000 0.0000 0.0000
# 3 33.2600 33.2600 194.3322 0.0000 0.0000 0.0000
# 4 0.0000 0.0000 0.0000 31.9702 0.0000 0.0000
# 5 0.0000 0.0000 0.0000 0.0000 31.9702 0.0000
# 6 0.0000 0.0000 0.0000 0.0000 0.0000 30.3216
#
#
#
# Elastic Compliance Matrix: (Units=1/GPa)
#
#
# Indices 1 2 3 4 5 6 
#
# 1 0.014532 -0.000647 -0.002377 0.000000 0.000000 0.000000
# 2 -0.000647 0.014532 -0.002377 0.000000 0.000000 0.000000
# 3 -0.002377 -0.002377 0.005959 0.000000 0.000000 0.000000
# 4 0.000000 0.000000 0.000000 0.031279 0.000000 0.000000
# 5 0.000000 0.000000 0.000000 0.000000 0.031279 0.000000
# 6 0.000000 0.000000 0.000000 0.000000 0.000000 0.032980
#
#
# Mechanical properties :
#
#
# Convention : Reuss Voigt Hill
#
# Bulk Modulus (GPa) = 41.28053 54.90841 48.09447
# Shear Modulus (GPa) = 33.45911 36.74136 35.10023
#
# Velocity S-wave (km/s) = 3.68830 3.86497 3.77767
# Velocity P-wave (km/s) = 5.90945 6.49936 6.21141
#
# Compressibility (1/GPa) = 0.02422449
#
# Stress axis : x y z
#
# Youngs Moduli (GPa) = 68.81235 68.81235 167.80447
#
# Poissons Ratio (x) = 0.04450 0.39879
# Poissons Ratio (y) = 0.04450 0.39879
# Poissons Ratio (z) = 0.16353 0.16353
#
# Static dielectric constant tensor:
#      x y z
#    x 4.439230 0.000000 0.000000 
#    y 0.000000 4.439230 0.000000 
#    z 0.000000 0.000000 4.764410 
# 
# 
# High freq. dielectric constant tensor:
#      x y z
#    x 1.977310 0.000000 0.000000 
#    y 0.000000 1.977310 0.000000 
#    z 0.000000 0.000000 2.003480 
# 
# From -- ./inp_files/6911.got.cif
#   From: 2010.03.12/outbox.cif.g09.slc.cpg/sg122_4_cif.got.tgz:6911.got - 2010.04.06 16:17:16.
