data_PCOD8312441
_publ_section_title
;
Structure prediction by ZEFSAII (Michael W. Deem and Ramdas Pophale) SiO2 
 PCOD8312441
Probable space group: P 4/M M M
;
_chemical_formula_sum "Si O2"
_cell_formula_units_Z 88
_cell_length_a 13.423426
_cell_length_b 13.423426
_cell_length_c 28.736544
_cell_angle_alpha 90.000000
_cell_angle_beta 90.000000
_cell_angle_gamma 90.000000
_cell_volume 5177.990896
_symmetry_space_group_name_H-M "P 4/M M M"
_symmetry_group_IT_number 123
_symmetry_cell_setting 'tetragonal'
loop_
_space_group_symop_operation_xyz
x,y,z
-y,x,z
-x,-y,z
y,-x,z
x,-y,-z
-x,y,-z
y,x,-z
-y,-x,-z
-x,-y,-z
y,-x,-z
x,y,-z
-y,x,-z
-x,y,z
x,-y,z
-y,-x,z
y,x,z
loop_
_atom_site_type_symbol
_atom_site_label
_atom_site_fract_x
_atom_site_fract_y
_atom_site_fract_z
Si Si1 0.225589 0.613507 0.049219
Si Si2 0.781345 0.617059 0.849650
Si Si3 0.222878 0.383054 0.314460
Si Si4 0.720117 0.115645 0.232687
Si Si5 0.616342 0.113003 0.591895
Si Si6 0.117087 0.273228 0.500000
O O1 0.258210 0.500000 0.049598
O O2 0.327856 0.672145 0.048614
O O3 0.170516 0.636324 0.098413
O O4 0.165561 0.636898 0.000000
O O5 0.760319 0.500000 0.840765
O O6 0.677336 0.677336 0.843242
O O7 0.862778 0.657490 0.813866
O O8 0.242335 0.500000 0.309808
O O9 0.327598 0.327598 0.306211
O O10 0.142808 0.349185 0.276341
O O11 0.180842 0.352879 0.364752
O O12 0.822761 0.177240 0.233716
O O13 0.748193 0.000000 0.234587
O O14 0.500000 0.117995 0.582262
O O15 0.668789 0.154376 0.545687
O O16 0.649821 0.000000 0.602697
O O17 0.163787 0.163787 0.500000
O O18 0.000000 0.260910 0.500000
#
# Coordination Sequence:
#
# PCOD8312441 Si02
#       6
#    16  16  16  16  16   8
#     4   8  13  21  34  54  83 119 155 189 223 259
#     4   9  17  28  43  66  95 126 159 191 224 266
#     4  10  20  33  50  73 100 129 159 189 223 267
#     4  10  21  36  53  72  92 115 148 190 235 282
#     4   9  17  30  49  71  92 117 154 198 239 275
#     4  10  19  30  45  65  92 124 155 191 234 279
#
# _framework density 16.995009
#
# number of rings (size 3 to 8) (size 9 to 14) (size 15 to 20)
#    0.000    2.727    0.000    1.909    0.000    4.091 
#    0.000    2.727    0.000    3.818    0.000    5.091 
#    0.000    6.545    0.000    7.091    0.000    0.000 
#
# Total GULP energy -1090308.060527 kJ/mol
# GULP energy per Si atom -12389.864324 kJ/mol
# Density = 1.695633 g / cm^3
# Si number density = 16.995009 Si / 1000 Ang^3
#
#
#
# Elastic Constant Matrix: (Units=GPa)
#
#
# Indices 1 2 3 4 5 6 
#
# 1 73.5568 33.0025 48.2817 0.0000 0.0000 0.0000
# 2 33.0025 73.5568 48.2817 0.0000 0.0000 0.0000
# 3 48.2817 48.2817 155.0593 0.0000 0.0000 0.0000
# 4 0.0000 0.0000 0.0000 17.2156 0.0000 0.0000
# 5 0.0000 0.0000 0.0000 0.0000 17.2156 0.0000
# 6 0.0000 0.0000 0.0000 0.0000 0.0000 15.7850
#
#
#
# Elastic Compliance Matrix: (Units=1/GPa)
#
#
# Indices 1 2 3 4 5 6 
#
# 1 0.018866 -0.005793 -0.004071 0.000000 0.000000 0.000000
# 2 -0.005793 0.018866 -0.004071 0.000000 0.000000 0.000000
# 3 -0.004071 -0.004071 0.008984 0.000000 0.000000 0.000000
# 4 0.000000 0.000000 0.000000 0.058087 0.000000 0.000000
# 5 0.000000 0.000000 0.000000 0.000000 0.058087 0.000000
# 6 0.000000 0.000000 0.000000 0.000000 0.000000 0.063351
#
#
# Mechanical properties :
#
#
# Convention : Reuss Voigt Hill
#
# Bulk Modulus (GPa) = 53.05618 62.36720 57.71169
# Shear Modulus (GPa) = 19.20187 21.55037 20.37612
#
# Velocity S-wave (km/s) = 3.36498 3.56482 3.46634
# Velocity P-wave (km/s) = 6.81057 7.32946 7.07477
#
# Compressibility (1/GPa) = 0.01884794
#
# Stress axis : x y z
#
# Youngs Moduli (GPa) = 53.00599 53.00599 111.30674
#
# Poissons Ratio (x) = 0.30704 0.45310
# Poissons Ratio (y) = 0.30704 0.45310
# Poissons Ratio (z) = 0.21577 0.21577
#
# Static dielectric constant tensor:
#      x y z
#    x 2.907350 0.000000 0.000000 
#    y 0.000000 2.907350 0.000000 
#    z 0.000000 0.000000 3.773960 
# 
# 
# High freq. dielectric constant tensor:
#      x y z
#    x 1.630930 0.000000 0.000000 
#    y 0.000000 1.630930 0.000000 
#    z 0.000000 0.000000 1.688070 
# 
# From -- ./inp_files/8494.got.cif
#   From: 2010.03.12/outbox.cif.g09.slc.cpg/sg123_5_cif.got.tgz:8494.got - 2010.04.06 16:26:55.
