data_PCOD8312217
_publ_section_title
;
Structure prediction by ZEFSAII (Michael W. Deem and Ramdas Pophale) SiO2 
 PCOD8312217
Probable space group: P 4/M M M
;
_chemical_formula_sum "Si O2"
_cell_formula_units_Z 72
_cell_length_a 19.373543
_cell_length_b 19.373543
_cell_length_c 12.522893
_cell_angle_alpha 90.000000
_cell_angle_beta 90.000000
_cell_angle_gamma 90.000000
_cell_volume 4700.269630
_symmetry_space_group_name_H-M "P 4/M M M"
_symmetry_group_IT_number 123
_symmetry_cell_setting 'tetragonal'
loop_
_space_group_symop_operation_xyz
x,y,z
-y,x,z
-x,-y,z
y,-x,z
x,-y,-z
-x,y,-z
y,x,-z
-y,-x,-z
-x,-y,-z
y,-x,-z
x,y,-z
-y,x,-z
-x,y,z
x,-y,z
-y,-x,z
y,x,z
loop_
_atom_site_type_symbol
_atom_site_label
_atom_site_fract_x
_atom_site_fract_y
_atom_site_fract_z
Si Si1 0.917722 0.578092 0.000000
Si Si2 0.661078 0.918569 0.203202
Si Si3 0.809426 0.078740 0.875057
Si Si4 0.840223 0.579339 0.624451
Si Si5 0.576074 0.315727 0.626980
O O1 0.888696 0.616671 0.104539
O O2 0.889716 0.500000 0.000000
O O3 0.000000 0.580148 0.000000
O O4 0.741257 0.898250 0.189268
O O5 0.632163 0.888416 0.312905
O O6 0.653044 0.000000 0.207897
O O7 0.872630 0.127370 0.839854
O O8 0.830212 0.000000 0.847782
O O9 0.792602 0.085912 0.000000
O O10 0.849453 0.595640 0.500000
O O11 0.861075 0.500000 0.648203
O O12 0.761977 0.593221 0.662397
O O13 0.577019 0.319549 0.500000
O O14 0.500000 0.337081 0.668533
O O15 0.632181 0.367820 0.677369
#
# Coordination Sequence:
#
# PCOD8312217 Si02
#       5
#     8  16  16  16  16
#     4   9  16  26  41  60  81 109 143 176 213 252
#     4  10  18  29  44  63  87 114 146 184 218 253
#     4   9  17  30  47  67  91 115 141 178 225 275
#     4   9  18  30  42  60  89 123 154 183 217 257
#     4   8  14  25  40  58  81 108 139 176 216 256
#
# _framework density 15.31827
#
# number of rings (size 3 to 8) (size 9 to 14) (size 15 to 20)
#    0.000    3.000    1.111    2.000    0.000    3.111 
#    0.000    3.333    0.000    0.000    0.000    0.000 
#    0.000    0.000    0.000    4.889    0.000   10.444 
#
# Total GULP energy -892575.780772 kJ/mol
# GULP energy per Si atom -12396.885844 kJ/mol
# Density = 1.528341 g / cm^3
# Si number density = 15.318270 Si / 1000 Ang^3
#
#
#
# Elastic Constant Matrix: (Units=GPa)
#
#
# Indices 1 2 3 4 5 6 
#
# 1 82.6579 64.6027 36.7712 0.0000 0.0000 0.0000
# 2 64.6027 82.6579 36.7712 0.0000 0.0000 0.0000
# 3 36.7712 36.7712 51.7086 0.0000 0.0000 0.0000
# 4 0.0000 0.0000 0.0000 18.0109 0.0000 0.0000
# 5 0.0000 0.0000 0.0000 0.0000 18.0109 0.0000
# 6 0.0000 0.0000 0.0000 0.0000 0.0000 28.6182
#
#
#
# Elastic Compliance Matrix: (Units=1/GPa)
#
#
# Indices 1 2 3 4 5 6 
#
# 1 0.032958 -0.022428 -0.007488 0.000000 0.000000 0.000000
# 2 -0.022428 0.032958 -0.007488 0.000000 0.000000 0.000000
# 3 -0.007488 -0.007488 0.029990 0.000000 0.000000 0.000000
# 4 0.000000 0.000000 0.000000 0.055522 0.000000 0.000000
# 5 0.000000 0.000000 0.000000 0.000000 0.055522 0.000000
# 6 0.000000 0.000000 0.000000 0.000000 0.000000 0.034943
#
#
# Mechanical properties :
#
#
# Convention : Reuss Voigt Hill
#
# Bulk Modulus (GPa) = 47.40083 54.81271 51.10677
# Shear Modulus (GPa) = 15.44483 18.18664 16.81574
#
# Velocity S-wave (km/s) = 3.17876 3.44939 3.31684
# Velocity P-wave (km/s) = 6.66962 7.19198 6.93572
#
# Compressibility (1/GPa) = 0.02109668
#
# Stress axis : x y z
#
# Youngs Moduli (GPa) = 30.34172 30.34172 33.34499
#
# Poissons Ratio (x) = 0.68049 0.24970
# Poissons Ratio (y) = 0.68049 0.24970
# Poissons Ratio (z) = 0.22721 0.22721
#
# Static dielectric constant tensor:
#      x y z
#    x 2.993600 0.000000 0.000000 
#    y 0.000000 2.993600 0.000000 
#    z 0.000000 0.000000 2.626010 
# 
# 
# High freq. dielectric constant tensor:
#      x y z
#    x 1.583550 0.000000 0.000000 
#    y 0.000000 1.583550 0.000000 
#    z 0.000000 0.000000 1.550660 
# 
# From -- ./inp_files/2738.got.cif
#   From: 2010.03.12/outbox.cif.g09.slc.cpg/sg123_2_cif.got.tgz:2738.got - 2010.04.06 16:26:55.
