data_PCOD8312612
_publ_section_title
;
Structure prediction by ZEFSAII (Michael W. Deem and Ramdas Pophale) SiO2 
 PCOD8312612
Probable space group: P 4/M M M
;
_chemical_formula_sum "Si O2"
_cell_formula_units_Z 56
_cell_length_a 12.879900
_cell_length_b 12.879900
_cell_length_c 19.668760
_cell_angle_alpha 90.000000
_cell_angle_beta 90.000000
_cell_angle_gamma 90.000000
_cell_volume 3262.886472
_symmetry_space_group_name_H-M "P 4/M M M"
_symmetry_group_IT_number 123
_symmetry_cell_setting 'tetragonal'
loop_
_space_group_symop_operation_xyz
x,y,z
-y,x,z
-x,-y,z
y,-x,z
x,-y,-z
-x,y,-z
y,x,-z
-y,-x,-z
-x,-y,-z
y,-x,-z
x,y,-z
-y,x,-z
-x,y,z
x,-y,z
-y,-x,z
y,x,z
loop_
_atom_site_type_symbol
_atom_site_label
_atom_site_fract_x
_atom_site_fract_y
_atom_site_fract_z
Si Si1 0.119419 0.284110 0.425618
Si Si2 0.877091 0.500000 0.923462
Si Si3 0.877817 0.387262 0.291397
Si Si4 0.710014 0.877435 0.847930
O O1 0.135479 0.338521 0.500000
O O2 0.172569 0.172569 0.425338
O O3 0.167601 0.352658 0.364646
O O4 0.000000 0.261845 0.410982
O O5 0.840022 0.394421 0.886592
O O6 0.000000 0.500000 0.922561
O O7 0.832829 0.500000 0.000000
O O8 0.829438 0.500000 0.273715
O O9 0.852424 0.306178 0.231764
O O10 0.000000 0.399576 0.297605
O O11 0.808694 0.808694 0.872915
O O12 0.733152 0.000000 0.860936
#
# Coordination Sequence:
#
# PCOD8312612 Si02
#       4
#    16   8  16  16
#     4   9  17  27  39  59  88 121 156 194 238 289
#     4   9  18  34  54  75 100 134 174 204 233 287
#     4   9  16  28  45  64  89 122 162 204 244 287
#     4  10  19  32  52  78 106 135 167 204 248 297
#
# _framework density 17.162717000000001
#
# number of rings (size 3 to 8) (size 9 to 14) (size 15 to 20)
#    0.000    2.714    1.429    0.857    0.000    1.714 
#    0.000    4.286    0.000    5.571    0.000    5.000 
#    0.000    0.000    0.000    6.857    0.000    0.571 
#
# Total GULP energy -693754.401518 kJ/mol
# GULP energy per Si atom -12388.471456 kJ/mol
# Density = 1.712365 g / cm^3
# Si number density = 17.162717 Si / 1000 Ang^3
#
#
#
# Elastic Constant Matrix: (Units=GPa)
#
#
# Indices 1 2 3 4 5 6 
#
# 1 71.3602 44.2043 30.5324 0.0000 0.0000 0.0000
# 2 44.2043 71.3602 30.5324 0.0000 0.0000 0.0000
# 3 30.5324 30.5324 112.5481 0.0000 0.0000 0.0000
# 4 0.0000 0.0000 0.0000 16.7276 0.0000 0.0000
# 5 0.0000 0.0000 0.0000 0.0000 16.7276 0.0000
# 6 0.0000 0.0000 0.0000 0.0000 0.0000 9.5332
#
#
#
# Elastic Compliance Matrix: (Units=1/GPa)
#
#
# Indices 1 2 3 4 5 6 
#
# 1 0.023463 -0.013362 -0.002740 0.000000 0.000000 0.000000
# 2 -0.013362 0.023463 -0.002740 0.000000 0.000000 0.000000
# 3 -0.002740 -0.002740 0.010372 0.000000 0.000000 0.000000
# 4 0.000000 0.000000 0.000000 0.059782 0.000000 0.000000
# 5 0.000000 0.000000 0.000000 0.000000 0.059782 0.000000
# 6 0.000000 0.000000 0.000000 0.000000 0.000000 0.104897
#
#
# Mechanical properties :
#
#
# Convention : Reuss Voigt Hill
#
# Bulk Modulus (GPa) = 50.98636 51.75627 51.37131
# Shear Modulus (GPa) = 15.33839 18.59763 16.96801
#
# Velocity S-wave (km/s) = 2.99273 3.29539 3.14770
# Velocity P-wave (km/s) = 6.45864 6.68589 6.57325
#
# Compressibility (1/GPa) = 0.01961309
#
# Stress axis : x y z
#
# Youngs Moduli (GPa) = 42.62073 42.62073 96.41470
#
# Poissons Ratio (x) = 0.56948 0.26420
# Poissons Ratio (y) = 0.56948 0.26420
# Poissons Ratio (z) = 0.11679 0.11679
#
# Static dielectric constant tensor:
#      x y z
#    x 3.011320 0.000000 0.000000 
#    y 0.000000 3.011320 0.000000 
#    z 0.000000 0.000000 3.632300 
# 
# 
# High freq. dielectric constant tensor:
#      x y z
#    x 1.629170 0.000000 0.000000 
#    y 0.000000 1.629170 0.000000 
#    z 0.000000 0.000000 1.680090 
# 
# From -- ./inp_files/6096.got.cif
#   From: 2010.03.12/outbox.cif.g09.slc.cpg/sg123_4_cif.got.tgz:6096.got - 2010.04.06 16:26:55.
