data_PCOD8312068
_publ_section_title
;
Structure prediction by ZEFSAII (Michael W. Deem and Ramdas Pophale) SiO2 
 PCOD8312068
Probable space group: I -4 2 D
;
_chemical_formula_sum "Si O2"
_cell_formula_units_Z 48
_cell_length_a 15.735344
_cell_length_b 15.735344
_cell_length_c 8.382449
_cell_angle_alpha 90.000000
_cell_angle_beta 90.000000
_cell_angle_gamma 90.000000
_cell_volume 2075.503181
_symmetry_space_group_name_H-M "I -4 2 D"
_symmetry_group_IT_number 122
_symmetry_cell_setting 'tetragonal'
loop_
_space_group_symop_operation_xyz
x,y,z
y,-x,-z
-x,-y,z
-y,x,-z
x,1/2-y,1/4-z
-x,1/2+y,1/4-z
-y,1/2-x,1/4+z
y,1/2+x,1/4+z
1/2+x,1/2+y,1/2+z
1/2+y,1/2-x,1/2-z
1/2-x,1/2-y,1/2+z
1/2-y,1/2+x,1/2-z
1/2+x,-y,3/4-z
1/2-x,y,3/4-z
1/2-y,-x,3/4+z
1/2+y,x,3/4+z
loop_
_atom_site_type_symbol
_atom_site_label
_atom_site_fract_x
_atom_site_fract_y
_atom_site_fract_z
Si Si1 0.576117 0.418743 0.594225
Si Si2 0.248252 0.840539 0.186093
Si Si3 0.536773 0.603434 0.902771
O O1 0.515329 0.391204 0.444415
O O2 0.654775 0.355212 0.613321
O O3 0.518572 0.417945 0.749878
O O4 0.281642 0.750000 0.125000
O O5 0.250000 0.841790 0.375000
O O6 0.308503 0.915403 0.123221
O O7 0.605215 0.528470 0.944450
#
# Coordination Sequence:
#
# PCOD8312068 Si02
#       3
#    16  16  16
#     4  11  26  48  79 111 151 205 258 313 390 462
#     4  12  30  51  76 120 158 203 259 329 389 464
#     4  11  24  50  78 111 150 209 256 314 387 459
#
# _framework density 23.126922
#
# number of rings (size 3 to 8) (size 9 to 14) (size 15 to 20)
#    0.000    0.667    3.333    4.000    9.333    1.333 
#    0.000    0.000    0.000    0.000    0.000    0.000 
#    0.000    0.000    0.000    0.000    0.000    0.000 
#
# Total GULP energy -297408.148922 kJ/mol
# GULP energy per Si atom -12392.006205 kJ/mol
# Density = 2.307428 g / cm^3
# Si number density = 23.126922 Si / 1000 Ang^3
#
#
#
# Elastic Constant Matrix: (Units=GPa)
#
#
# Indices 1 2 3 4 5 6 
#
# 1 117.6411 63.1842 66.4021 0.0000 0.0000 0.0000
# 2 63.1842 117.6411 66.4021 0.0000 0.0000 0.0000
# 3 66.4021 66.4021 121.9786 0.0000 0.0000 0.0000
# 4 0.0000 0.0000 0.0000 -15.6724 0.0000 0.0000
# 5 0.0000 0.0000 0.0000 0.0000 -15.6724 0.0000
# 6 0.0000 0.0000 0.0000 0.0000 0.0000 44.8780
#
#
#
# Elastic Compliance Matrix: (Units=1/GPa)
#
#
# Indices 1 2 3 4 5 6 
#
# 1 0.013789 -0.004575 -0.005016 0.000000 0.000000 0.000000
# 2 -0.004575 0.013789 -0.005016 0.000000 0.000000 0.000000
# 3 -0.005016 -0.005016 0.013659 0.000000 0.000000 0.000000
# 4 0.000000 0.000000 0.000000 -0.063806 0.000000 0.000000
# 5 0.000000 0.000000 0.000000 0.000000 -0.063806 0.000000
# 6 0.000000 0.000000 0.000000 0.000000 0.000000 0.022283
#
#
# Mechanical properties :
#
#
# Convention : Reuss Voigt Hill
#
# Bulk Modulus (GPa) = 83.16892 83.24862 83.20877
# Shear Modulus (GPa) = -161.95452 13.45812 -74.24820
#
# Velocity S-wave (km/s) = -8.37739 2.41493 -5.67224
# Velocity P-wave (km/s) = 7.58512 6.62196 2.61569
#
# Compressibility (1/GPa) = 0.01202372
#
# Stress axis : x y z
#
# Youngs Moduli (GPa) = 72.52368 72.52368 73.21062
#
# Poissons Ratio (x) = 0.33176 0.36722
# Poissons Ratio (y) = 0.33176 0.36722
# Poissons Ratio (z) = 0.36377 0.36377
#
# Static dielectric constant tensor:
#      x y z
#    x 4.349240 0.000000 0.000000 
#    y 0.000000 4.349240 0.000000 
#    z 0.000000 0.000000 4.667590 
# 
# 
# High freq. dielectric constant tensor:
#      x y z
#    x 1.905740 0.000000 0.000000 
#    y 0.000000 1.905740 0.000000 
#    z 0.000000 0.000000 1.932130 
# 
# From -- ./inp_files/2022.got.cif
#   From: 2010.03.12/outbox.cif.g09.slc.cpg/sg122_2_cif.got.tgz:2022.got - 2010.04.06 16:17:16.
