data_PCOD8312144
_publ_section_title
;
Structure prediction by ZEFSAII (Michael W. Deem and Ramdas Pophale) SiO2 
 PCOD8312144
Probable space group: P 4/M M M
;
_chemical_formula_sum "Si O2"
_cell_formula_units_Z 52
_cell_length_a 17.156586
_cell_length_b 17.156586
_cell_length_c 9.659385
_cell_angle_alpha 90.000000
_cell_angle_beta 90.000000
_cell_angle_gamma 90.000000
_cell_volume 2843.224937
_symmetry_space_group_name_H-M "P 4/M M M"
_symmetry_group_IT_number 123
_symmetry_cell_setting 'tetragonal'
loop_
_space_group_symop_operation_xyz
x,y,z
-y,x,z
-x,-y,z
y,-x,z
x,-y,-z
-x,y,-z
y,x,-z
-y,-x,-z
-x,-y,-z
y,-x,-z
x,y,-z
-y,x,-z
-x,y,z
x,-y,z
-y,-x,z
y,x,z
loop_
_atom_site_type_symbol
_atom_site_label
_atom_site_fract_x
_atom_site_fract_y
_atom_site_fract_z
Si Si1 0.205428 0.500000 0.500000
Si Si2 0.652449 0.153289 0.198756
Si Si3 0.500000 0.085443 0.253645
Si Si4 0.594661 0.718604 0.000000
Si Si5 0.779746 0.092221 0.000000
Si Si6 0.336500 0.791053 0.500000
O O1 0.151211 0.500000 0.367636
O O2 0.254841 0.420328 0.500000
O O3 0.578962 0.096823 0.164340
O O4 0.628949 0.237343 0.135393
O O5 0.669699 0.156385 0.362903
O O6 0.730197 0.117172 0.134064
O O7 0.500000 0.000000 0.320136
O O8 0.500000 0.714422 0.000000
O O9 0.631125 0.631125 0.000000
O O10 0.862025 0.137976 0.000000
O O11 0.797255 0.000000 0.000000
O O12 0.270366 0.729635 0.500000
#
# Coordination Sequence:
#
# PCOD8312144 Si02
#       6
#     4  16   8   8   8   8
#     4   8  19  28  42  73 108 134 172 208 263 328
#     4  10  20  36  55  84 110 141 184 225 277 337
#     4  10  17  29  50  77 110 136 162 209 271 333
#     4  11  21  36  53  75 108 145 190 233 271 317
#     4  11  23  39  58  82 111 146 187 230 275 327
#     4  10  18  33  55  77 106 145 181 224 275 325
#
# _framework density 18.289090999999999
#
# number of rings (size 3 to 8) (size 9 to 14) (size 15 to 20)
#    0.000    1.846    1.538    4.846    0.000    0.308 
#    0.000    4.615    0.000    0.231    0.000    0.000 
#    0.000    3.692    0.000    0.000    0.000    0.000 
#
# Total GULP energy -644212.011216 kJ/mol
# GULP energy per Si atom -12388.692523 kJ/mol
# Density = 1.824746 g / cm^3
# Si number density = 18.289091 Si / 1000 Ang^3
#
#
#
# Elastic Constant Matrix: (Units=GPa)
#
#
# Indices 1 2 3 4 5 6 
#
# 1 111.7395 68.9007 30.7372 0.0000 0.0000 0.0000
# 2 68.9007 111.7361 30.7371 0.0000 0.0000 0.0000
# 3 30.7372 30.7371 120.8230 0.0000 0.0000 0.0000
# 4 0.0000 0.0000 0.0000 24.0271 0.0000 0.0000
# 5 0.0000 0.0000 0.0000 0.0000 24.0314 0.0000
# 6 0.0000 0.0000 0.0000 0.0000 0.0000 20.6883
#
#
#
# Elastic Compliance Matrix: (Units=1/GPa)
#
#
# Indices 1 2 3 4 5 6 
#
# 1 0.014702 -0.008642 -0.001542 0.000000 0.000000 0.000000
# 2 -0.008642 0.014703 -0.001542 0.000000 0.000000 0.000000
# 3 -0.001542 -0.001542 0.009061 0.000000 0.000000 0.000000
# 4 0.000000 0.000000 0.000000 0.041620 0.000000 0.000000
# 5 0.000000 0.000000 0.000000 0.000000 0.041612 0.000000
# 6 0.000000 0.000000 0.000000 0.000000 0.000000 0.048336
#
#
# Mechanical properties :
#
#
# Convention : Reuss Voigt Hill
#
# Bulk Modulus (GPa) = 66.59990 67.22762 66.91376
# Shear Modulus (GPa) = 25.19017 28.01094 26.60055
#
# Velocity S-wave (km/s) = 3.71527 3.91777 3.81786
# Velocity P-wave (km/s) = 7.40935 7.56990 7.49005
#
# Compressibility (1/GPa) = 0.01501504
#
# Stress axis : x y z
#
# Youngs Moduli (GPa) = 68.01701 68.01481 110.36260
#
# Poissons Ratio (x) = 0.58777 0.17015
# Poissons Ratio (y) = 0.58779 0.17016
# Poissons Ratio (z) = 0.10487 0.10487
#
# Static dielectric constant tensor:
#      x y z
#    x 3.410370 0.000000 0.000000 
#    y 0.000000 3.410370 0.000000 
#    z 0.000000 0.000000 3.249600 
# 
# 
# High freq. dielectric constant tensor:
#      x y z
#    x 1.694650 0.000000 0.000000 
#    y 0.000000 1.694650 0.000000 
#    z 0.000000 0.000000 1.715940 
# 
# From -- ./inp_files/567.got.cif
#   From: 2010.03.12/outbox.cif.g09.slc.cpg/sg123_1_cif.got.tgz:567.got - 2010.04.06 16:26:55.
