data_PCOD8312522
_publ_section_title
;
Structure prediction by ZEFSAII (Michael W. Deem and Ramdas Pophale) SiO2 
 PCOD8312522
Probable space group: P 4/M M M
;
_chemical_formula_sum "Si O2"
_cell_formula_units_Z 112
_cell_length_a 19.480228
_cell_length_b 19.480228
_cell_length_c 18.328766
_cell_angle_alpha 90.000000
_cell_angle_beta 90.000000
_cell_angle_gamma 90.000000
_cell_volume 6955.386979
_symmetry_space_group_name_H-M "P 4/M M M"
_symmetry_group_IT_number 123
_symmetry_cell_setting 'tetragonal'
loop_
_space_group_symop_operation_xyz
x,y,z
-y,x,z
-x,-y,z
y,-x,z
x,-y,-z
-x,y,-z
y,x,-z
-y,-x,-z
-x,-y,-z
y,-x,-z
x,y,-z
-y,x,-z
-x,y,z
x,-y,z
-y,-x,z
y,x,z
loop_
_atom_site_type_symbol
_atom_site_label
_atom_site_fract_x
_atom_site_fract_y
_atom_site_fract_z
Si Si1 0.579755 0.078810 0.713412
Si Si2 0.837931 0.578955 0.142612
Si Si3 0.690644 0.578307 0.915387
Si Si4 0.330061 0.081461 0.419727
Si Si5 0.922024 0.306234 0.918699
Si Si6 0.921722 0.189031 0.645511
Si Si7 0.188435 0.078184 0.813723
O O1 0.500000 0.080166 0.695334
O O2 0.598235 0.131466 0.778112
O O3 0.617474 0.108062 0.641556
O O4 0.602651 0.000000 0.732861
O O5 0.853418 0.500000 0.123494
O O6 0.756464 0.593768 0.136036
O O7 0.877337 0.624894 0.083920
O O8 0.665473 0.500000 0.903301
O O9 0.629044 0.629044 0.892215
O O10 0.711300 0.589591 0.000000
O O11 0.350201 0.110280 0.500000
O O12 0.253002 0.105567 0.401246
O O13 0.332667 0.000000 0.420009
O O14 0.892232 0.250238 0.862541
O O15 0.000000 0.325044 0.897818
O O16 0.917200 0.275641 0.000000
O O17 0.877128 0.122873 0.625427
O O18 0.914579 0.210560 0.729883
O O19 0.000000 0.170060 0.626459
O O20 0.119874 0.119874 0.830949
O O21 0.172382 0.000000 0.835309
#
# Coordination Sequence:
#
# PCOD8312522 Si02
#       7
#    16  16  16  16  16  16  16
#     4   9  17  29  46  67  90 117 147 178 212 250
#     4  10  19  31  47  66  90 119 149 180 214 254
#     4   9  18  32  49  69  92 117 146 181 220 261
#     4   9  17  29  45  64  86 112 142 177 215 254
#     4  10  20  31  43  61  86 116 149 185 222 260
#     4   9  17  29  45  63  83 109 140 176 219 263
#     4   9  18  32  48  65  85 110 144 187 232 276
#
# _framework density 16.102626000000001
#
# number of rings (size 3 to 8) (size 9 to 14) (size 15 to 20)
#    0.000    2.714    0.000    1.714    0.000    5.857 
#    0.000    5.000    0.000    0.000    0.000    4.000 
#    0.000    0.000    0.000    0.000    0.000    0.143 
#
# Total GULP energy -1388565.343890 kJ/mol
# GULP energy per Si atom -12397.904856 kJ/mol
# Density = 1.606598 g / cm^3
# Si number density = 16.102626 Si / 1000 Ang^3
#
#
#
# Elastic Constant Matrix: (Units=GPa)
#
#
# Indices 1 2 3 4 5 6 
#
# 1 70.8462 43.0019 41.4973 0.0000 0.0000 0.0000
# 2 43.0019 70.8462 41.4973 0.0000 0.0000 0.0000
# 3 41.4973 41.4973 81.0992 0.0000 0.0000 0.0000
# 4 0.0000 0.0000 0.0000 17.1417 0.0000 0.0000
# 5 0.0000 0.0000 0.0000 0.0000 17.1417 0.0000
# 6 0.0000 0.0000 0.0000 0.0000 0.0000 22.1274
#
#
#
# Elastic Compliance Matrix: (Units=1/GPa)
#
#
# Indices 1 2 3 4 5 6 
#
# 1 0.024962 -0.010952 -0.007168 0.000000 0.000000 0.000000
# 2 -0.010952 0.024962 -0.007168 0.000000 0.000000 0.000000
# 3 -0.007168 -0.007168 0.019666 0.000000 0.000000 0.000000
# 4 0.000000 0.000000 0.000000 0.058337 0.000000 0.000000
# 5 0.000000 0.000000 0.000000 0.000000 0.058337 0.000000
# 6 0.000000 0.000000 0.000000 0.000000 0.000000 0.045193
#
#
# Mechanical properties :
#
#
# Convention : Reuss Voigt Hill
#
# Bulk Modulus (GPa) = 52.59932 52.75385 52.67658
# Shear Modulus (GPa) = 17.33867 17.73516 17.53691
#
# Velocity S-wave (km/s) = 3.28496 3.32231 3.30369
# Velocity P-wave (km/s) = 6.86469 6.89559 6.88016
#
# Compressibility (1/GPa) = 0.01901165
#
# Stress axis : x y z
#
# Youngs Moduli (GPa) = 40.06147 40.06147 50.84796
#
# Poissons Ratio (x) = 0.43877 0.36450
# Poissons Ratio (y) = 0.43877 0.36450
# Poissons Ratio (z) = 0.28718 0.28718
#
# Static dielectric constant tensor:
#      x y z
#    x 2.977600 0.000000 0.000000 
#    y 0.000000 2.977600 0.000000 
#    z 0.000000 0.000000 3.120650 
# 
# 
# High freq. dielectric constant tensor:
#      x y z
#    x 1.604930 0.000000 0.000000 
#    y 0.000000 1.604930 0.000000 
#    z 0.000000 0.000000 1.613310 
# 
# From -- ./inp_files/5881.got.cif
#   From: 2010.03.12/outbox.cif.g09.slc.cpg/sg123_3_cif.got.tgz:5881.got - 2010.04.06 16:26:55.
