data_PCOD8312821
_publ_section_title
;
Structure prediction by ZEFSAII (Michael W. Deem and Ramdas Pophale) SiO2 
 PCOD8312821
Probable space group: P 4/M M M
;
_chemical_formula_sum "Si O2"
_cell_formula_units_Z 64
_cell_length_a 12.650697
_cell_length_b 12.650697
_cell_length_c 22.121863
_cell_angle_alpha 90.000000
_cell_angle_beta 90.000000
_cell_angle_gamma 90.000000
_cell_volume 3540.385932
_symmetry_space_group_name_H-M "P 4/M M M"
_symmetry_group_IT_number 123
_symmetry_cell_setting 'tetragonal'
loop_
_space_group_symop_operation_xyz
x,y,z
-y,x,z
-x,-y,z
y,-x,z
x,-y,-z
-x,y,-z
y,x,-z
-y,-x,-z
-x,-y,-z
y,-x,-z
x,y,-z
-y,x,-z
-x,y,z
x,-y,z
-y,-x,z
y,x,z
loop_
_atom_site_type_symbol
_atom_site_label
_atom_site_fract_x
_atom_site_fract_y
_atom_site_fract_z
Si Si1 0.878745 0.291115 0.240083
Si Si2 0.793800 0.620375 0.879216
Si Si3 0.000000 0.374534 0.431833
Si Si4 0.794534 0.622340 0.359818
Si Si5 0.706099 0.879685 0.000000
O O1 0.823206 0.176795 0.239001
O O2 0.870549 0.346992 0.175303
O O3 0.823228 0.366260 0.289318
O O4 0.000000 0.273170 0.257010
O O5 0.759309 0.500000 0.872632
O O6 0.686346 0.686346 0.877550
O O7 0.856173 0.636022 0.941412
O O8 0.893965 0.334632 0.398597
O O9 0.000000 0.500000 0.430500
O O10 0.000000 0.330242 0.500000
O O11 0.768220 0.500000 0.373877
O O12 0.692175 0.692175 0.376971
O O13 0.812955 0.812955 0.000000
O O14 0.742678 0.000000 0.000000
#
# Coordination Sequence:
#
# PCOD8312821 Si02
#       5
#    16  16   8  16   8
#     4  10  20  34  53  78 106 138 177 220 266 316
#     4  10  21  35  52  75 102 134 173 216 262 313
#     4   9  18  34  56  79 105 140 180 219 257 305
#     4  10  20  34  54  81 111 143 180 221 267 319
#     4  10  21  36  52  74 102 132 171 214 258 310
#
# _framework density 18.077127000000001
#
# number of rings (size 3 to 8) (size 9 to 14) (size 15 to 20)
#    0.000    2.125    1.250    1.875    0.000    4.875 
#    0.000    0.000    0.000   11.625    0.000    4.375 
#    0.000    0.000    0.000    0.000    0.000    0.000 
#
# Total GULP energy -793773.225690 kJ/mol
# GULP energy per Si atom -12402.706651 kJ/mol
# Density = 1.803598 g / cm^3
# Si number density = 18.077127 Si / 1000 Ang^3
#
#
#
# Elastic Constant Matrix: (Units=GPa)
#
#
# Indices 1 2 3 4 5 6 
#
# 1 112.8905 55.5389 28.1018 0.0000 0.0000 0.0000
# 2 55.5389 112.8905 28.1018 0.0000 0.0000 0.0000
# 3 28.1018 28.1018 103.3650 0.0000 0.0000 0.0000
# 4 0.0000 0.0000 0.0000 22.0351 0.0000 0.0000
# 5 0.0000 0.0000 0.0000 0.0000 22.0351 0.0000
# 6 0.0000 0.0000 0.0000 0.0000 0.0000 14.7848
#
#
#
# Elastic Compliance Matrix: (Units=1/GPa)
#
#
# Indices 1 2 3 4 5 6 
#
# 1 0.011983 -0.005453 -0.001775 0.000000 0.000000 0.000000
# 2 -0.005453 0.011983 -0.001775 0.000000 0.000000 0.000000
# 3 -0.001775 -0.001775 0.010640 0.000000 0.000000 0.000000
# 4 0.000000 0.000000 0.000000 0.045382 0.000000 0.000000
# 5 0.000000 0.000000 0.000000 0.000000 0.045382 0.000000
# 6 0.000000 0.000000 0.000000 0.000000 0.000000 0.067637
#
#
# Mechanical properties :
#
#
# Convention : Reuss Voigt Hill
#
# Bulk Modulus (GPa) = 60.24795 61.40343 60.82569
# Shear Modulus (GPa) = 23.08965 26.26456 24.67711
#
# Velocity S-wave (km/s) = 3.57779 3.81585 3.69874
# Velocity P-wave (km/s) = 7.10409 7.31133 7.20845
#
# Compressibility (1/GPa) = 0.01659808
#
# Stress axis : x y z
#
# Youngs Moduli (GPa) = 83.45195 83.45195 93.98767
#
# Poissons Ratio (x) = 0.45509 0.16685
# Poissons Ratio (y) = 0.45509 0.16685
# Poissons Ratio (z) = 0.14814 0.14814
#
# Static dielectric constant tensor:
#      x y z
#    x 3.190550 0.000000 0.000000 
#    y 0.000000 3.190550 0.000000 
#    z 0.000000 0.000000 3.595420 
# 
# 
# High freq. dielectric constant tensor:
#      x y z
#    x 1.691740 0.000000 0.000000 
#    y 0.000000 1.691740 0.000000 
#    z 0.000000 0.000000 1.712460 
# 
# From -- ./inp_files/7004.got.cif
#   From: 2010.03.12/outbox.cif.g09.slc.cpg/sg123_4_cif.got.tgz:7004.got - 2010.04.06 16:26:55.
