data_PCOD8312317
_publ_section_title
;
Structure prediction by ZEFSAII (Michael W. Deem and Ramdas Pophale) SiO2 
 PCOD8312317
Probable space group: P 4/M M M
;
_chemical_formula_sum "Si O2"
_cell_formula_units_Z 96
_cell_length_a 22.671296
_cell_length_b 22.671296
_cell_length_c 12.261848
_cell_angle_alpha 90.000000
_cell_angle_beta 90.000000
_cell_angle_gamma 90.000000
_cell_volume 6302.438589
_symmetry_space_group_name_H-M "P 4/M M M"
_symmetry_group_IT_number 123
_symmetry_cell_setting 'tetragonal'
loop_
_space_group_symop_operation_xyz
x,y,z
-y,x,z
-x,-y,z
y,-x,z
x,-y,-z
-x,y,-z
y,x,-z
-y,-x,-z
-x,-y,-z
y,-x,-z
x,y,-z
-y,x,-z
-x,y,z
x,-y,z
-y,-x,z
y,x,z
loop_
_atom_site_type_symbol
_atom_site_label
_atom_site_fract_x
_atom_site_fract_y
_atom_site_fract_z
Si Si1 0.672415 0.228139 0.500000
Si Si2 0.663985 0.567594 0.124738
Si Si3 0.066988 0.839006 0.337238
Si Si4 0.815681 0.720037 0.123854
Si Si5 0.065230 0.221503 0.121120
Si Si6 0.232848 0.135118 0.500000
Si Si7 0.357257 0.258272 0.732064
O O1 0.724469 0.275531 0.500000
O O2 0.700614 0.161763 0.500000
O O3 0.631495 0.238205 0.393031
O O4 0.646980 0.500000 0.145369
O O5 0.605584 0.605584 0.148736
O O6 0.716442 0.584460 0.208933
O O7 0.685551 0.577864 0.000000
O O8 0.102873 0.897128 0.372999
O O9 0.071124 0.831397 0.207210
O O10 0.095143 0.780677 0.393587
O O11 0.000000 0.847025 0.377100
O O12 0.780116 0.780116 0.154147
O O13 0.885216 0.729398 0.142398
O O14 0.798040 0.666223 0.201491
O O15 0.801453 0.701742 0.000000
O O16 0.000000 0.250855 0.132386
O O17 0.074019 0.194320 0.000000
O O18 0.191231 0.191231 0.500000
O O19 0.308107 0.308107 0.739171
#
# Coordination Sequence:
#
# PCOD8312317 Si02
#       7
#     8  16  16  16  16   8  16
#     4   9  16  25  40  59  79 102 126 158 203 255
#     4   9  17  29  45  65  91 122 153 183 208 228
#     4  10  19  29  40  52  69  96 131 172 213 253
#     4   9  15  23  38  57  76 100 130 166 210 260
#     4   9  17  27  38  54  76 101 129 163 207 260
#     4   9  17  29  42  56  72  92 122 159 203 255
#     4   9  16  26  40  61  85 107 135 171 211 250
#
# _framework density 15.232199
#
# number of rings (size 3 to 8) (size 9 to 14) (size 15 to 20)
#    0.000    2.833    0.000    2.250    0.000    6.000 
#    0.000    1.250    0.000    1.500    0.000    2.333 
#    0.000    4.000    0.000    6.167    0.000   16.167 
#
# Total GULP energy -1189696.434943 kJ/mol
# GULP energy per Si atom -12392.671197 kJ/mol
# Density = 1.519753 g / cm^3
# Si number density = 15.232199 Si / 1000 Ang^3
#
#
#
# Elastic Constant Matrix: (Units=GPa)
#
#
# Indices 1 2 3 4 5 6 
#
# 1 58.2566 44.6267 40.6042 0.0000 0.0000 0.0000
# 2 44.6267 58.2565 40.6039 0.0000 0.0000 0.0000
# 3 40.6042 40.6039 106.1298 0.0000 0.0000 0.0000
# 4 0.0000 0.0000 0.0000 16.9345 0.0000 0.0000
# 5 0.0000 0.0000 0.0000 0.0000 16.9344 0.0000
# 6 0.0000 0.0000 0.0000 0.0000 0.0000 15.5000
#
#
#
# Elastic Compliance Matrix: (Units=1/GPa)
#
#
# Indices 1 2 3 4 5 6 
#
# 1 0.043647 -0.029722 -0.005328 0.000000 0.000000 0.000000
# 2 -0.029722 0.043647 -0.005327 0.000000 0.000000 0.000000
# 3 -0.005328 -0.005327 0.013499 0.000000 0.000000 0.000000
# 4 0.000000 0.000000 0.000000 0.059051 0.000000 0.000000
# 5 0.000000 0.000000 0.000000 0.000000 0.059051 0.000000
# 6 0.000000 0.000000 0.000000 0.000000 0.000000 0.064516
#
#
# Mechanical properties :
#
#
# Convention : Reuss Voigt Hill
#
# Bulk Modulus (GPa) = 49.90356 52.70140 51.30248
# Shear Modulus (GPa) = 13.48274 16.32763 14.90519
#
# Velocity S-wave (km/s) = 2.97837 3.27756 3.13154
# Velocity P-wave (km/s) = 6.68286 6.99979 6.84316
#
# Compressibility (1/GPa) = 0.02003865
#
# Stress axis : x y z
#
# Youngs Moduli (GPa) = 22.91120 22.91128 74.08011
#
# Poissons Ratio (x) = 0.68097 0.39467
# Poissons Ratio (y) = 0.68096 0.39465
# Poissons Ratio (z) = 0.12206 0.12206
#
# Static dielectric constant tensor:
#      x y z
#    x 2.713820 0.000000 0.000000 
#    y 0.000000 2.713820 0.000000 
#    z 0.000000 0.000000 3.212880 
# 
# 
# High freq. dielectric constant tensor:
#      x y z
#    x 1.546900 0.000000 0.000000 
#    y 0.000000 1.546900 0.000000 
#    z 0.000000 0.000000 1.603210 
# 
# From -- ./inp_files/3322.got.cif
#   From: 2010.03.12/outbox.cif.g09.slc.cpg/sg123_2_cif.got.tgz:3322.got - 2010.04.06 16:26:55.
