data_PCOD8312463
_publ_section_title
;
Structure prediction by ZEFSAII (Michael W. Deem and Ramdas Pophale) SiO2 
 PCOD8312463
Probable space group: P 4/M M M
;
_chemical_formula_sum "Si O2"
_cell_formula_units_Z 88
_cell_length_a 13.266327
_cell_length_b 13.266327
_cell_length_c 28.147996
_cell_angle_alpha 90.000000
_cell_angle_beta 90.000000
_cell_angle_gamma 90.000000
_cell_volume 4953.918718
_symmetry_space_group_name_H-M "P 4/M M M"
_symmetry_group_IT_number 123
_symmetry_cell_setting 'tetragonal'
loop_
_space_group_symop_operation_xyz
x,y,z
-y,x,z
-x,-y,z
y,-x,z
x,-y,-z
-x,y,-z
y,x,-z
-y,-x,-z
-x,-y,-z
y,-x,-z
x,y,-z
-y,x,-z
-x,y,z
x,-y,z
-y,-x,z
y,x,z
loop_
_atom_site_type_symbol
_atom_site_label
_atom_site_fract_x
_atom_site_fract_y
_atom_site_fract_z
Si Si1 0.119529 0.611951 0.905325
Si Si2 0.615713 0.221749 0.554309
Si Si3 0.718685 0.117033 0.362976
Si Si4 0.881804 0.720235 0.189892
Si Si5 0.782872 0.383041 0.724692
Si Si6 0.118801 0.722215 0.000000
O O1 0.166211 0.500000 0.901931
O O2 0.155681 0.676515 0.860380
O O3 0.000000 0.604988 0.905509
O O4 0.157309 0.662226 0.953908
O O5 0.627164 0.185828 0.500000
O O6 0.500000 0.239800 0.568175
O O7 0.672558 0.327443 0.563407
O O8 0.664456 0.134859 0.586549
O O9 0.824788 0.175213 0.359928
O O10 0.643463 0.155177 0.322420
O O11 0.742440 0.000000 0.356389
O O12 0.825745 0.825745 0.199547
O O13 0.853929 0.640050 0.230378
O O14 0.000000 0.742582 0.190578
O O15 0.754244 0.500000 0.724178
O O16 0.679151 0.320850 0.727550
O O17 0.167310 0.832691 0.000000
O O18 0.000000 0.738491 0.000000
#
# Coordination Sequence:
#
# PCOD8312463 Si02
#       6
#    16  16  16  16  16   8
#     4   9  17  30  48  68  91 122 160 202 246 287
#     4   9  18  32  50  74 103 133 166 204 246 294
#     4  10  21  36  53  74 100 130 166 207 249 295
#     4  10  20  33  50  74 103 134 168 204 243 291
#     4  10  21  36  54  77 103 131 165 204 247 295
#     4  10  19  30  45  67  96 128 161 197 240 295
#
# _framework density 17.763715000000001
#
# number of rings (size 3 to 8) (size 9 to 14) (size 15 to 20)
#    0.000    2.364    0.000    2.455    0.000    5.545 
#    0.000    1.818    0.000    9.818    0.000    2.545 
#    0.000   13.818    0.000    0.000    0.000    0.000 
#
# Total GULP energy -1091359.653125 kJ/mol
# GULP energy per Si atom -12401.814240 kJ/mol
# Density = 1.772328 g / cm^3
# Si number density = 17.763715 Si / 1000 Ang^3
#
#
#
# Elastic Constant Matrix: (Units=GPa)
#
#
# Indices 1 2 3 4 5 6 
#
# 1 106.8980 45.9506 41.2332 0.0000 0.0000 0.0000
# 2 45.9506 106.8970 41.2332 0.0000 0.0000 0.0000
# 3 41.2332 41.2332 114.8444 0.0000 0.0000 0.0000
# 4 0.0000 0.0000 0.0000 24.9750 0.0000 0.0000
# 5 0.0000 0.0000 0.0000 0.0000 24.9751 0.0000
# 6 0.0000 0.0000 0.0000 0.0000 0.0000 12.5637
#
#
#
# Elastic Compliance Matrix: (Units=1/GPa)
#
#
# Indices 1 2 3 4 5 6 
#
# 1 0.012261 -0.004147 -0.002913 0.000000 0.000000 0.000000
# 2 -0.004147 0.012261 -0.002913 0.000000 0.000000 0.000000
# 3 -0.002913 -0.002913 0.010799 0.000000 0.000000 0.000000
# 4 0.000000 0.000000 0.000000 0.040040 0.000000 0.000000
# 5 0.000000 0.000000 0.000000 0.000000 0.040040 0.000000
# 6 0.000000 0.000000 0.000000 0.000000 0.000000 0.079595
#
#
# Mechanical properties :
#
#
# Convention : Reuss Voigt Hill
#
# Bulk Modulus (GPa) = 65.04195 65.05260 65.04728
# Shear Modulus (GPa) = 22.72031 25.85092 24.28561
#
# Velocity S-wave (km/s) = 3.58023 3.81893 3.70151
# Velocity P-wave (km/s) = 7.33385 7.49308 7.41389
#
# Compressibility (1/GPa) = 0.01537469
#
# Stress axis : x y z
#
# Youngs Moduli (GPa) = 81.55991 81.55902 92.59777
#
# Poissons Ratio (x) = 0.33820 0.26976
# Poissons Ratio (y) = 0.33821 0.26977
# Poissons Ratio (z) = 0.23761 0.23761
#
# Static dielectric constant tensor:
#      x y z
#    x 3.117440 0.000000 0.000000 
#    y 0.000000 3.117440 0.000000 
#    z 0.000000 0.000000 3.591090 
# 
# 
# High freq. dielectric constant tensor:
#      x y z
#    x 1.673820 0.000000 0.000000 
#    y 0.000000 1.673820 0.000000 
#    z 0.000000 0.000000 1.709400 
# 
# From -- ./inp_files/8449.got.cif
#   From: 2010.03.12/outbox.cif.g09.slc.cpg/sg123_5_cif.got.tgz:8449.got - 2010.04.06 16:26:55.
