data_PCOD8312782
_publ_section_title
;
Structure prediction by ZEFSAII (Michael W. Deem and Ramdas Pophale) SiO2 
 PCOD8312782
Probable space group: P 4/M M M
;
_chemical_formula_sum "Si O2"
_cell_formula_units_Z 80
_cell_length_a 13.466522
_cell_length_b 13.466522
_cell_length_c 25.504059
_cell_angle_alpha 90.000000
_cell_angle_beta 90.000000
_cell_angle_gamma 90.000000
_cell_volume 4625.090065
_symmetry_space_group_name_H-M "P 4/M M M"
_symmetry_group_IT_number 123
_symmetry_cell_setting 'tetragonal'
loop_
_space_group_symop_operation_xyz
x,y,z
-y,x,z
-x,-y,z
y,-x,z
x,-y,-z
-x,y,-z
y,x,-z
-y,-x,-z
-x,-y,-z
y,-x,-z
x,y,-z
-y,x,-z
-x,y,z
x,-y,z
-y,-x,z
y,x,z
loop_
_atom_site_type_symbol
_atom_site_label
_atom_site_fract_x
_atom_site_fract_y
_atom_site_fract_z
Si Si1 0.385942 0.773795 0.441731
Si Si2 0.386125 0.773867 0.060273
Si Si3 0.278981 0.115849 0.148306
Si Si4 0.109279 0.382312 0.657658
Si Si5 0.383071 0.776553 0.239595
O O1 0.371315 0.820406 0.500000
O O2 0.500000 0.748599 0.430488
O O3 0.330022 0.669979 0.436694
O O4 0.344409 0.849972 0.398401
O O5 0.500000 0.758662 0.077305
O O6 0.330666 0.669335 0.070464
O O7 0.335156 0.860254 0.094058
O O8 0.377482 0.807085 0.000000
O O9 0.175910 0.175910 0.152737
O O10 0.352743 0.144288 0.195475
O O11 0.253494 0.000000 0.150520
O O12 0.101226 0.500000 0.657815
O O13 0.180489 0.347786 0.704513
O O14 0.000000 0.335514 0.665578
O O15 0.500000 0.756537 0.237142
O O16 0.327820 0.672181 0.229887
#
# Coordination Sequence:
#
# PCOD8312782 Si02
#       5
#    16  16  16  16  16
#     4   9  17  28  42  62  89 120 153 189 230 280
#     4   9  18  32  50  74 103 133 165 200 239 287
#     4  10  21  36  53  73  97 126 163 206 248 290
#     4   9  17  29  45  64  87 118 155 192 230 272
#     4  10  20  33  50  73 100 129 160 193 232 282
#
# _framework density 17.296961
#
# number of rings (size 3 to 8) (size 9 to 14) (size 15 to 20)
#    0.000    2.600    0.000    1.800    0.000    4.000 
#    0.000    5.000    0.000    7.200    0.000    2.800 
#    0.000    3.600    0.000    8.800    0.000    0.800 
#
# Total GULP energy -991909.858126 kJ/mol
# GULP energy per Si atom -12398.873227 kJ/mol
# Density = 1.725759 g / cm^3
# Si number density = 17.296961 Si / 1000 Ang^3
#
#
#
# Elastic Constant Matrix: (Units=GPa)
#
#
# Indices 1 2 3 4 5 6 
#
# 1 97.8338 41.0470 42.5782 0.0000 0.0000 0.0000
# 2 41.0470 97.8338 42.5782 0.0000 0.0000 0.0000
# 3 42.5782 42.5782 107.9885 0.0000 0.0000 0.0000
# 4 0.0000 0.0000 0.0000 22.1518 0.0000 0.0000
# 5 0.0000 0.0000 0.0000 0.0000 22.1518 0.0000
# 6 0.0000 0.0000 0.0000 0.0000 0.0000 10.9747
#
#
#
# Elastic Compliance Matrix: (Units=1/GPa)
#
#
# Indices 1 2 3 4 5 6 
#
# 1 0.013553 -0.004057 -0.003744 0.000000 0.000000 0.000000
# 2 -0.004057 0.013553 -0.003744 0.000000 0.000000 0.000000
# 3 -0.003744 -0.003744 0.012213 0.000000 0.000000 0.000000
# 4 0.000000 0.000000 0.000000 0.045143 0.000000 0.000000
# 5 0.000000 0.000000 0.000000 0.000000 0.045143 0.000000
# 6 0.000000 0.000000 0.000000 0.000000 0.000000 0.091118
#
#
# Mechanical properties :
#
#
# Convention : Reuss Voigt Hill
#
# Bulk Modulus (GPa) = 61.62033 61.78477 61.70255
# Shear Modulus (GPa) = 20.06235 22.88585 21.47410
#
# Velocity S-wave (km/s) = 3.40939 3.64141 3.52731
# Velocity P-wave (km/s) = 7.15548 7.31282 7.23458
#
# Compressibility (1/GPa) = 0.01622841
#
# Stress axis : x y z
#
# Youngs Moduli (GPa) = 73.78454 73.78454 81.88118
#
# Poissons Ratio (x) = 0.29932 0.30658
# Poissons Ratio (y) = 0.29932 0.30658
# Poissons Ratio (z) = 0.27627 0.27627
#
# Static dielectric constant tensor:
#      x y z
#    x 3.065700 0.000000 0.000000 
#    y 0.000000 3.065700 0.000000 
#    z 0.000000 0.000000 3.554530 
# 
# 
# High freq. dielectric constant tensor:
#      x y z
#    x 1.648760 0.000000 0.000000 
#    y 0.000000 1.648760 0.000000 
#    z 0.000000 0.000000 1.689660 
# 
# From -- ./inp_files/8315.got.cif
#   From: 2010.03.12/outbox.cif.g09.slc.cpg/sg123_5_cif.got.tgz:8315.got - 2010.04.06 16:26:55.
