data_PCOD8312525
_publ_section_title
;
Structure prediction by ZEFSAII (Michael W. Deem and Ramdas Pophale) SiO2 
 PCOD8312525
Probable space group: P 4/M M M
;
_chemical_formula_sum "Si O2"
_cell_formula_units_Z 96
_cell_length_a 20.676367
_cell_length_b 20.676367
_cell_length_c 12.920951
_cell_angle_alpha 90.000000
_cell_angle_beta 90.000000
_cell_angle_gamma 90.000000
_cell_volume 5523.863572
_symmetry_space_group_name_H-M "P 4/M M M"
_symmetry_group_IT_number 123
_symmetry_cell_setting 'tetragonal'
loop_
_space_group_symop_operation_xyz
x,y,z
-y,x,z
-x,-y,z
y,-x,z
x,-y,-z
-x,y,-z
y,x,-z
-y,-x,-z
-x,-y,-z
y,-x,-z
x,y,-z
-y,x,-z
-x,y,z
x,-y,z
-y,-x,z
y,x,z
loop_
_atom_site_type_symbol
_atom_site_label
_atom_site_fract_x
_atom_site_fract_y
_atom_site_fract_z
Si Si1 0.764782 0.126788 0.387107
Si Si2 0.760549 0.347838 0.000000
Si Si3 0.231469 0.662112 0.617942
Si Si4 0.757472 0.865258 0.000000
Si Si5 0.423625 0.205211 0.803187
Si Si6 0.070230 0.576521 0.115956
Si Si7 0.181459 0.072878 0.811297
O O1 0.762537 0.092147 0.500000
O O2 0.818938 0.181063 0.388447
O O3 0.697261 0.162735 0.365149
O O4 0.781363 0.075529 0.298348
O O5 0.829067 0.310649 0.000000
O O6 0.755832 0.392244 0.101621
O O7 0.700835 0.299166 0.000000
O O8 0.237991 0.637291 0.500000
O O9 0.289763 0.710238 0.645995
O O10 0.234099 0.601452 0.695033
O O11 0.765373 0.908881 0.102352
O O12 0.813611 0.813611 0.000000
O O13 0.500000 0.215091 0.808422
O O14 0.402894 0.129399 0.810375
O O15 0.068929 0.500000 0.108405
O O16 0.000000 0.601301 0.158424
O O17 0.081662 0.604418 0.000000
O O18 0.119035 0.119035 0.815760
O O19 0.156799 0.000000 0.829198
#
# Coordination Sequence:
#
# PCOD8312525 Si02
#       7
#    16   8  16   8  16  16  16
#     4   8  15  30  51  69  85 114 157 200 242 287
#     4  11  21  34  52  72  99 133 165 202 252 299
#     4   9  18  34  54  73  97 132 170 206 249 298
#     4   9  19  34  49  64  85 119 162 202 240 283
#     4  11  20  31  50  78 109 135 165 204 246 295
#     4   8  14  27  45  63  90 130 168 196 229 282
#     4  10  19  31  47  67  94 125 158 201 252 302
#
# _framework density 17.37914
#
# number of rings (size 3 to 8) (size 9 to 14) (size 15 to 20)
#    0.000    2.667    0.833    3.500    0.000    3.500 
#    0.000    4.167    0.000    3.000    0.000    4.667 
#    0.000   13.667    0.000    7.333    0.000    0.000 
#
# Total GULP energy -1189788.395639 kJ/mol
# GULP energy per Si atom -12393.629121 kJ/mol
# Density = 1.733958 g / cm^3
# Si number density = 17.379140 Si / 1000 Ang^3
#
#
#
# Elastic Constant Matrix: (Units=GPa)
#
#
# Indices 1 2 3 4 5 6 
#
# 1 78.7017 29.2709 47.1834 0.0000 0.0000 0.0000
# 2 29.2709 78.7018 47.1836 0.0000 0.0000 0.0000
# 3 47.1834 47.1836 126.3401 0.0000 0.0000 0.0000
# 4 0.0000 0.0000 0.0000 17.9221 0.0000 0.0000
# 5 0.0000 0.0000 0.0000 0.0000 17.9218 0.0000
# 6 0.0000 0.0000 0.0000 0.0000 0.0000 18.7979
#
#
#
# Elastic Compliance Matrix: (Units=1/GPa)
#
#
# Indices 1 2 3 4 5 6 
#
# 1 0.016990 -0.003240 -0.005135 0.000000 0.000000 0.000000
# 2 -0.003240 0.016990 -0.005135 0.000000 0.000000 0.000000
# 3 -0.005135 -0.005135 0.011751 0.000000 0.000000 0.000000
# 4 0.000000 0.000000 0.000000 0.055797 0.000000 0.000000
# 5 0.000000 0.000000 0.000000 0.000000 0.055798 0.000000
# 6 0.000000 0.000000 0.000000 0.000000 0.000000 0.053197
#
#
# Mechanical properties :
#
#
# Convention : Reuss Voigt Hill
#
# Bulk Modulus (GPa) = 53.44794 59.00214 56.22504
# Shear Modulus (GPa) = 20.51033 21.60210 21.05621
#
# Velocity S-wave (km/s) = 3.43909 3.52943 3.48455
# Velocity P-wave (km/s) = 6.82573 7.11568 6.97221
#
# Compressibility (1/GPa) = 0.01870980
#
# Stress axis : x y z
#
# Youngs Moduli (GPa) = 58.85860 58.85859 85.10228
#
# Poissons Ratio (x) = 0.19072 0.43699
# Poissons Ratio (y) = 0.19072 0.43700
# Poissons Ratio (z) = 0.30223 0.30224
#
# Static dielectric constant tensor:
#      x y z
#    x 3.037980 0.000000 0.000000 
#    y 0.000000 3.037980 0.000000 
#    z 0.000000 0.000000 3.526890 
# 
# 
# High freq. dielectric constant tensor:
#      x y z
#    x 1.649690 0.000000 0.000000 
#    y 0.000000 1.649690 0.000000 
#    z 0.000000 0.000000 1.674830 
# 
# From -- ./inp_files/3205.got.cif
#   From: 2010.03.12/outbox.cif.g09.slc.cpg/sg123_2_cif.got.tgz:3205.got - 2010.04.06 16:26:55.
