data_PCOD8312793
_publ_section_title
;
Structure prediction by ZEFSAII (Michael W. Deem and Ramdas Pophale) SiO2 
 PCOD8312793
Probable space group: P 4/M M M
;
_chemical_formula_sum "Si O2"
_cell_formula_units_Z 88
_cell_length_a 13.149848
_cell_length_b 13.149848
_cell_length_c 28.124871
_cell_angle_alpha 90.000000
_cell_angle_beta 90.000000
_cell_angle_gamma 90.000000
_cell_volume 4863.310574
_symmetry_space_group_name_H-M "P 4/M M M"
_symmetry_group_IT_number 123
_symmetry_cell_setting 'tetragonal'
loop_
_space_group_symop_operation_xyz
x,y,z
-y,x,z
-x,-y,z
y,-x,z
x,-y,-z
-x,y,-z
y,x,-z
-y,-x,-z
-x,-y,-z
y,-x,-z
x,y,-z
-y,x,-z
-x,y,z
x,-y,z
-y,-x,z
y,x,z
loop_
_atom_site_type_symbol
_atom_site_label
_atom_site_fract_x
_atom_site_fract_y
_atom_site_fract_z
Si Si1 0.280645 0.116726 0.445877
Si Si2 0.382686 0.784882 0.183320
Si Si3 0.118864 0.718192 0.096323
Si Si4 0.783150 0.617401 0.638765
Si Si5 0.386840 0.120601 0.000000
Si Si6 0.715774 0.117976 0.727100
O O1 0.318711 0.129311 0.500000
O O2 0.173851 0.173851 0.437337
O O3 0.366998 0.164834 0.412534
O O4 0.261455 0.000000 0.432647
O O5 0.500000 0.753727 0.184317
O O6 0.318964 0.681037 0.181006
O O7 0.361302 0.855505 0.137794
O O8 0.356722 0.849074 0.230000
O O9 0.175530 0.824471 0.105862
O O10 0.158128 0.671891 0.046708
O O11 0.000000 0.742054 0.095508
O O12 0.758067 0.500000 0.646374
O O13 0.676855 0.676855 0.642867
O O14 0.861504 0.656536 0.678286
O O15 0.500000 0.167988 0.000000
O O16 0.394427 0.000000 0.000000
O O17 0.821905 0.178096 0.728983
O O18 0.742583 0.000000 0.731179
#
# Coordination Sequence:
#
# PCOD8312793 Si02
#       6
#    16  16  16  16   8  16
#     4   9  18  32  50  74 103 133 166 204 246 295
#     4  10  21  36  54  77 103 132 169 211 254 301
#     4  10  20  33  50  74 103 135 172 211 252 302
#     4  10  21  36  53  74 100 130 167 210 253 298
#     4   9  17  30  49  71  95 127 167 209 252 295
#     4  10  21  36  54  78 106 135 168 204 244 294
#
# _framework density 18.094669
#
# number of rings (size 3 to 8) (size 9 to 14) (size 15 to 20)
#    0.000    2.273    0.000    2.455    0.000    5.636 
#    0.000    1.818    0.000   11.455    0.000    2.545 
#    0.000    6.545    0.000    0.000    0.000    0.000 
#
# Total GULP energy -1091483.177154 kJ/mol
# GULP energy per Si atom -12403.217922 kJ/mol
# Density = 1.805348 g / cm^3
# Si number density = 18.094669 Si / 1000 Ang^3
#
#
#
# Elastic Constant Matrix: (Units=GPa)
#
#
# Indices 1 2 3 4 5 6 
#
# 1 115.2065 44.9567 38.2308 0.0000 0.0000 0.0000
# 2 44.9567 115.2065 38.2308 0.0000 0.0000 0.0000
# 3 38.2308 38.2308 108.1971 0.0000 0.0000 0.0000
# 4 0.0000 0.0000 0.0000 19.5174 0.0000 0.0000
# 5 0.0000 0.0000 0.0000 0.0000 19.5174 0.0000
# 6 0.0000 0.0000 0.0000 0.0000 0.0000 11.2330
#
#
#
# Elastic Compliance Matrix: (Units=1/GPa)
#
#
# Indices 1 2 3 4 5 6 
#
# 1 0.010873 -0.003362 -0.002654 0.000000 0.000000 0.000000
# 2 -0.003362 0.010873 -0.002654 0.000000 0.000000 0.000000
# 3 -0.002654 -0.002654 0.011118 0.000000 0.000000 0.000000
# 4 0.000000 0.000000 0.000000 0.051236 0.000000 0.000000
# 5 0.000000 0.000000 0.000000 0.000000 0.051236 0.000000
# 6 0.000000 0.000000 0.000000 0.000000 0.000000 0.089023
#
#
# Mechanical properties :
#
#
# Convention : Reuss Voigt Hill
#
# Bulk Modulus (GPa) = 64.41770 64.60517 64.51143
# Shear Modulus (GPa) = 20.25333 24.53303 22.39318
#
# Velocity S-wave (km/s) = 3.34922 3.68613 3.52171
# Velocity P-wave (km/s) = 7.11576 7.34154 7.22953
#
# Compressibility (1/GPa) = 0.01552368
#
# Stress axis : x y z
#
# Youngs Moduli (GPa) = 91.97314 91.97314 89.94579
#
# Poissons Ratio (x) = 0.30923 0.23870
# Poissons Ratio (y) = 0.30923 0.23870
# Poissons Ratio (z) = 0.24408 0.24408
#
# Static dielectric constant tensor:
#      x y z
#    x 3.166220 0.000000 0.000000 
#    y 0.000000 3.166220 0.000000 
#    z 0.000000 0.000000 3.634200 
# 
# 
# High freq. dielectric constant tensor:
#      x y z
#    x 1.691610 0.000000 0.000000 
#    y 0.000000 1.691610 0.000000 
#    z 0.000000 0.000000 1.723200 
# 
# From -- ./inp_files/8522.got.cif
#   From: 2010.03.12/outbox.cif.g09.slc.cpg/sg123_5_cif.got.tgz:8522.got - 2010.04.06 16:26:55.
