data_PCOD8312307
_publ_section_title
;
Structure prediction by ZEFSAII (Michael W. Deem and Ramdas Pophale) SiO2 
 PCOD8312307
Probable space group: P 4/M M M
;
_chemical_formula_sum "Si O2"
_cell_formula_units_Z 88
_cell_length_a 13.650220
_cell_length_b 13.650220
_cell_length_c 28.446875
_cell_angle_alpha 90.000000
_cell_angle_beta 90.000000
_cell_angle_gamma 90.000000
_cell_volume 5300.463720
_symmetry_space_group_name_H-M "P 4/M M M"
_symmetry_group_IT_number 123
_symmetry_cell_setting 'tetragonal'
loop_
_space_group_symop_operation_xyz
x,y,z
-y,x,z
-x,-y,z
y,-x,z
x,-y,-z
-x,y,-z
y,x,-z
-y,-x,-z
-x,-y,-z
y,-x,-z
x,y,-z
-y,x,-z
-x,y,z
x,-y,z
-y,-x,z
y,x,z
loop_
_atom_site_type_symbol
_atom_site_label
_atom_site_fract_x
_atom_site_fract_y
_atom_site_fract_z
Si Si1 0.115659 0.267317 0.000000
Si Si2 0.609218 0.116055 0.190932
Si Si3 0.883708 0.390593 0.912713
Si Si4 0.890918 0.383919 0.551918
Si Si5 0.384091 0.226274 0.641613
Si Si6 0.726168 0.115907 0.719183
O O1 0.157307 0.321764 0.046222
O O2 0.158008 0.158008 0.000000
O O3 0.000000 0.258737 0.000000
O O4 0.500000 0.158960 0.200252
O O5 0.646786 0.149484 0.139138
O O6 0.684484 0.151951 0.230530
O O7 0.602276 0.000000 0.192875
O O8 0.843058 0.500000 0.920979
O O9 0.000000 0.392202 0.915848
O O10 0.855391 0.349370 0.500000
O O11 0.896717 0.500000 0.553692
O O12 0.814985 0.347997 0.591235
O O13 0.000000 0.341615 0.562002
O O14 0.500000 0.245057 0.643936
O O15 0.329142 0.329142 0.650661
O O16 0.353842 0.146056 0.680340
O O17 0.829034 0.170966 0.710266
O O18 0.745085 0.000000 0.716920
#
# Coordination Sequence:
#
# PCOD8312307 Si02
#       6
#     8  16  16  16  16  16
#     4  10  19  28  39  57  84 118 151 181 216 265
#     4   8  14  26  45  66  85 107 138 178 223 268
#     4   8  14  26  44  63  81 104 139 184 228 261
#     4   8  14  26  45  67  89 115 149 188 227 266
#     4  10  20  32  47  68  93 122 157 196 238 285
#     4  10  20  32  47  68  93 122 156 191 227 270
#
# _framework density 16.602322000000001
#
# number of rings (size 3 to 8) (size 9 to 14) (size 15 to 20)
#    0.000    3.091    0.000    3.000    0.000    4.455 
#    0.000    0.000    0.000    0.000    0.000    7.636 
#    0.000    2.909    0.000   30.364    0.000    2.000 
#
# Total GULP energy -1090488.943857 kJ/mol
# GULP energy per Si atom -12391.919817 kJ/mol
# Density = 1.656453 g / cm^3
# Si number density = 16.602322 Si / 1000 Ang^3
#
#
#
# Elastic Constant Matrix: (Units=GPa)
#
#
# Indices 1 2 3 4 5 6 
#
# 1 62.3688 31.8619 40.0150 0.0000 0.0000 0.0000
# 2 31.8619 62.3688 40.0150 0.0000 0.0000 0.0000
# 3 40.0150 40.0150 127.9398 0.0000 0.0000 0.0000
# 4 0.0000 0.0000 0.0000 17.0781 0.0000 0.0000
# 5 0.0000 0.0000 0.0000 0.0000 17.0781 0.0000
# 6 0.0000 0.0000 0.0000 0.0000 0.0000 11.9186
#
#
#
# Elastic Compliance Matrix: (Units=1/GPa)
#
#
# Indices 1 2 3 4 5 6 
#
# 1 0.023615 -0.009164 -0.004520 0.000000 0.000000 0.000000
# 2 -0.009164 0.023615 -0.004520 0.000000 0.000000 0.000000
# 3 -0.004520 -0.004520 0.010643 0.000000 0.000000 0.000000
# 4 0.000000 0.000000 0.000000 0.058554 0.000000 0.000000
# 5 0.000000 0.000000 0.000000 0.000000 0.058554 0.000000
# 6 0.000000 0.000000 0.000000 0.000000 0.000000 0.083902
#
#
# Mechanical properties :
#
#
# Convention : Reuss Voigt Hill
#
# Bulk Modulus (GPa) = 46.58480 52.94013 49.76247
# Shear Modulus (GPa) = 16.53177 18.60067 17.56622
#
# Velocity S-wave (km/s) = 3.15898 3.35082 3.25631
# Velocity P-wave (km/s) = 6.43627 6.85033 6.64653
#
# Compressibility (1/GPa) = 0.02146623
#
# Stress axis : x y z
#
# Youngs Moduli (GPa) = 42.34562 42.34562 93.95516
#
# Poissons Ratio (x) = 0.38807 0.42465
# Poissons Ratio (y) = 0.38807 0.42465
# Poissons Ratio (z) = 0.19139 0.19139
#
# Static dielectric constant tensor:
#      x y z
#    x 2.816010 0.000000 0.000000 
#    y 0.000000 2.816010 0.000000 
#    z 0.000000 0.000000 3.634970 
# 
# 
# High freq. dielectric constant tensor:
#      x y z
#    x 1.606570 0.000000 0.000000 
#    y 0.000000 1.606570 0.000000 
#    z 0.000000 0.000000 1.662620 
# 
# From -- ./inp_files/8509.got.cif
#   From: 2010.03.12/outbox.cif.g09.slc.cpg/sg123_5_cif.got.tgz:8509.got - 2010.04.06 16:26:55.
