data_PCOD8312345
_publ_section_title
;
Structure prediction by ZEFSAII (Michael W. Deem and Ramdas Pophale) SiO2 
 PCOD8312345
Probable space group: P 4/M M M
;
_chemical_formula_sum "Si O2"
_cell_formula_units_Z 104
_cell_length_a 13.969715
_cell_length_b 13.969715
_cell_length_c 33.325130
_cell_angle_alpha 90.000000
_cell_angle_beta 90.000000
_cell_angle_gamma 90.000000
_cell_volume 6503.497001
_symmetry_space_group_name_H-M "P 4/M M M"
_symmetry_group_IT_number 123
_symmetry_cell_setting 'tetragonal'
loop_
_space_group_symop_operation_xyz
x,y,z
-y,x,z
-x,-y,z
y,-x,z
x,-y,-z
-x,y,-z
y,x,-z
-y,-x,-z
-x,-y,-z
y,-x,-z
x,y,-z
-y,x,-z
-x,y,z
x,-y,z
-y,-x,z
y,x,z
loop_
_atom_site_type_symbol
_atom_site_label
_atom_site_fract_x
_atom_site_fract_y
_atom_site_fract_z
Si Si1 0.890353 0.610069 0.346877
Si Si2 0.892680 0.613357 0.500000
Si Si3 0.612384 0.231496 0.424605
Si Si4 0.386462 0.893231 0.955460
Si Si5 0.733334 0.888150 0.729807
Si Si6 0.609846 0.889676 0.193946
Si Si7 0.387572 0.234317 0.117080
O O1 0.876903 0.500000 0.334431
O O2 0.823433 0.637693 0.383868
O O3 0.858941 0.673070 0.309179
O O4 0.000000 0.629933 0.359408
O O5 0.901077 0.500000 0.500000
O O6 0.835876 0.647999 0.460763
O O7 0.000000 0.657698 0.500000
O O8 0.500000 0.255064 0.428126
O O9 0.668356 0.331645 0.425974
O O10 0.500000 0.897523 0.952029
O O11 0.347058 0.820807 0.922036
O O12 0.345502 0.000000 0.947633
O O13 0.355810 0.857925 0.000000
O O14 0.833678 0.833678 0.729472
O O15 0.673252 0.856842 0.768614
O O16 0.756542 0.000000 0.730343
O O17 0.500000 0.872107 0.205947
O O18 0.639586 0.828316 0.155590
O O19 0.627580 0.000000 0.182838
O O20 0.500000 0.254218 0.114171
O O21 0.336413 0.336413 0.120075
#
# Coordination Sequence:
#
# PCOD8312345 Si02
#       7
#    16   8  16  16  16  16  16
#     4   9  17  30  48  68  88 112 146 188 227 255
#     4   9  17  30  47  65  85 111 145 185 223 252
#     4  10  19  30  45  66  93 122 149 178 214 260
#     4   8  14  26  44  63  81 103 135 177 220 252
#     4  10  19  30  45  65  90 117 143 174 214 264
#     4   9  17  30  48  67  84 105 139 184 229 263
#     4  10  19  29  42  61  87 118 147 174 206 249
#
# _framework density 15.991396999999999
#
# number of rings (size 3 to 8) (size 9 to 14) (size 15 to 20)
#    0.000    2.692    0.000    3.000    0.000    6.308 
#    0.000    0.000    0.000    1.385    0.000    2.154 
#    0.000   25.538    0.000    6.769    0.000    0.615 
#
# Total GULP energy -1289516.653714 kJ/mol
# GULP energy per Si atom -12399.198593 kJ/mol
# Density = 1.595500 g / cm^3
# Si number density = 15.991397 Si / 1000 Ang^3
#
#
#
# Elastic Constant Matrix: (Units=GPa)
#
#
# Indices 1 2 3 4 5 6 
#
# 1 71.0503 50.1703 57.3935 0.0000 0.0000 0.0000
# 2 50.1703 71.0503 57.3935 0.0000 0.0000 0.0000
# 3 57.3935 57.3935 137.6831 0.0000 0.0000 0.0000
# 4 0.0000 0.0000 0.0000 14.9878 0.0000 0.0000
# 5 0.0000 0.0000 0.0000 0.0000 14.9878 0.0000
# 6 0.0000 0.0000 0.0000 0.0000 0.0000 25.6244
#
#
#
# Elastic Compliance Matrix: (Units=1/GPa)
#
#
# Indices 1 2 3 4 5 6 
#
# 1 0.030761 -0.017132 -0.005681 0.000000 0.000000 0.000000
# 2 -0.017132 0.030761 -0.005681 0.000000 0.000000 0.000000
# 3 -0.005681 -0.005681 0.012000 0.000000 0.000000 0.000000
# 4 0.000000 0.000000 0.000000 0.066721 0.000000 0.000000
# 5 0.000000 0.000000 0.000000 0.000000 0.066721 0.000000
# 6 0.000000 0.000000 0.000000 0.000000 0.000000 0.039025
#
#
# Mechanical properties :
#
#
# Convention : Reuss Voigt Hill
#
# Bulk Modulus (GPa) = 60.48638 67.74427 64.11533
# Shear Modulus (GPa) = 16.20806 18.77510 17.49158
#
# Velocity S-wave (km/s) = 3.18708 3.43019 3.31087
# Velocity P-wave (km/s) = 7.17285 7.62517 7.40247
#
# Compressibility (1/GPa) = 0.01653265
#
# Stress axis : x y z
#
# Youngs Moduli (GPa) = 32.50871 32.50871 83.33561
#
# Poissons Ratio (x) = 0.55693 0.47346
# Poissons Ratio (y) = 0.55693 0.47346
# Poissons Ratio (z) = 0.18470 0.18470
#
# Static dielectric constant tensor:
#      x y z
#    x 2.841180 0.000000 0.000000 
#    y 0.000000 2.841180 0.000000 
#    z 0.000000 0.000000 3.260770 
# 
# 
# High freq. dielectric constant tensor:
#      x y z
#    x 1.594680 0.000000 0.000000 
#    y 0.000000 1.594680 0.000000 
#    z 0.000000 0.000000 1.633230 
# 
# From -- ./inp_files/8775.got.cif
#   From: 2010.03.12/outbox.cif.g09.slc.cpg/sg123_5_cif.got.tgz:8775.got - 2010.04.06 16:26:55.
