data_PCOD8312539
_publ_section_title
;
Structure prediction by ZEFSAII (Michael W. Deem and Ramdas Pophale) SiO2 
 PCOD8312539
Probable space group: P 4/M M M
;
_chemical_formula_sum "Si O2"
_cell_formula_units_Z 64
_cell_length_a 12.584883
_cell_length_b 12.584883
_cell_length_c 23.852295
_cell_angle_alpha 90.000000
_cell_angle_beta 90.000000
_cell_angle_gamma 90.000000
_cell_volume 3777.709311
_symmetry_space_group_name_H-M "P 4/M M M"
_symmetry_group_IT_number 123
_symmetry_cell_setting 'tetragonal'
loop_
_space_group_symop_operation_xyz
x,y,z
-y,x,z
-x,-y,z
y,-x,z
x,-y,-z
-x,y,-z
y,x,-z
-y,-x,-z
-x,-y,-z
y,-x,-z
x,y,-z
-y,x,-z
-x,y,z
x,-y,z
-y,-x,z
y,x,z
loop_
_atom_site_type_symbol
_atom_site_label
_atom_site_fract_x
_atom_site_fract_y
_atom_site_fract_z
Si Si1 0.000000 0.626364 0.630558
Si Si2 0.625792 0.000000 0.243318
Si Si3 0.625489 0.882038 0.939013
Si Si4 0.206268 0.621745 0.565243
Si Si5 0.208224 0.625161 0.176996
O O1 0.000000 0.671775 0.693696
O O2 0.105432 0.667258 0.599141
O O3 0.000000 0.500000 0.629407
O O4 0.664424 0.105378 0.211344
O O5 0.500000 0.000000 0.244352
O O6 0.500000 0.893271 0.937419
O O7 0.659419 0.806959 0.887933
O O8 0.674430 0.000000 0.930819
O O9 0.661849 0.835774 0.000000
O O10 0.178030 0.631230 0.500000
O O11 0.232053 0.500000 0.581661
O O12 0.309254 0.690747 0.581241
O O13 0.229391 0.500000 0.184801
O O14 0.311183 0.688818 0.199370
#
# Coordination Sequence:
#
# PCOD8312539 Si02
#       5
#     8   8  16  16  16
#     4   9  17  30  49  68  90 123 164 205 238 270
#     4   9  18  33  49  66  88 121 166 205 235 272
#     4   8  13  24  44  67  90 118 155 195 230 270
#     4   9  17  29  47  73 103 132 160 191 230 276
#     4  10  19  31  48  70  97 125 155 193 236 284
#
# _framework density 16.941483000000002
#
# number of rings (size 3 to 8) (size 9 to 14) (size 15 to 20)
#    0.000    3.000    1.250    1.125    0.000    3.500 
#    0.000    1.250    0.000    0.750    0.000   14.000 
#    0.000    2.000    0.000    0.000    0.000    0.000 
#
# Total GULP energy -793109.439723 kJ/mol
# GULP energy per Si atom -12392.334996 kJ/mol
# Density = 1.690292 g / cm^3
# Si number density = 16.941483 Si / 1000 Ang^3
#
#
#
# Elastic Constant Matrix: (Units=GPa)
#
#
# Indices 1 2 3 4 5 6 
#
# 1 82.6010 54.7361 44.3142 0.0000 0.0000 0.0000
# 2 54.7361 82.6010 44.3142 0.0000 0.0000 0.0000
# 3 44.3142 44.3142 98.9872 0.0000 0.0000 0.0000
# 4 0.0000 0.0000 0.0000 11.2946 0.0000 0.0000
# 5 0.0000 0.0000 0.0000 0.0000 11.2946 0.0000
# 6 0.0000 0.0000 0.0000 0.0000 0.0000 8.4154
#
#
#
# Elastic Compliance Matrix: (Units=1/GPa)
#
#
# Indices 1 2 3 4 5 6 
#
# 1 0.023064 -0.012824 -0.004584 0.000000 0.000000 0.000000
# 2 -0.012824 0.023064 -0.004584 0.000000 0.000000 0.000000
# 3 -0.004584 -0.004584 0.014207 0.000000 0.000000 0.000000
# 4 0.000000 0.000000 0.000000 0.088538 0.000000 0.000000
# 5 0.000000 0.000000 0.000000 0.000000 0.088538 0.000000
# 6 0.000000 0.000000 0.000000 0.000000 0.000000 0.118830
#
#
# Mechanical properties :
#
#
# Convention : Reuss Voigt Hill
#
# Bulk Modulus (GPa) = 61.16311 61.21312 61.18812
# Shear Modulus (GPa) = 12.32516 14.25588 13.29052
#
# Velocity S-wave (km/s) = 2.70017 2.90397 2.80392
# Velocity P-wave (km/s) = 6.77512 6.88873 6.83216
#
# Compressibility (1/GPa) = 0.01634973
#
# Stress axis : x y z
#
# Youngs Moduli (GPa) = 43.35853 43.35853 70.38975
#
# Poissons Ratio (x) = 0.55603 0.32267
# Poissons Ratio (y) = 0.55603 0.32267
# Poissons Ratio (z) = 0.19876 0.19876
#
# Static dielectric constant tensor:
#      x y z
#    x 2.915900 0.000000 0.000000 
#    y 0.000000 2.915900 0.000000 
#    z 0.000000 0.000000 3.502110 
# 
# 
# High freq. dielectric constant tensor:
#      x y z
#    x 1.624040 0.000000 0.000000 
#    y 0.000000 1.624040 0.000000 
#    z 0.000000 0.000000 1.662630 
# 
# From -- ./inp_files/7053.got.cif
#   From: 2010.03.12/outbox.cif.g09.slc.cpg/sg123_4_cif.got.tgz:7053.got - 2010.04.06 16:26:55.
