data_PCOD8312944
_publ_section_title
;
Structure prediction by ZEFSAII (Michael W. Deem and Ramdas Pophale) SiO2 
 PCOD8312944
Probable space group: P 4/M M M
;
_chemical_formula_sum "Si O2"
_cell_formula_units_Z 64
_cell_length_a 20.863257
_cell_length_b 20.863257
_cell_length_c 7.788839
_cell_angle_alpha 90.000000
_cell_angle_beta 90.000000
_cell_angle_gamma 90.000000
_cell_volume 3390.290733
_symmetry_space_group_name_H-M "P 4/M M M"
_symmetry_group_IT_number 123
_symmetry_cell_setting 'tetragonal'
loop_
_space_group_symop_operation_xyz
x,y,z
-y,x,z
-x,-y,z
y,-x,z
x,-y,-z
-x,y,-z
y,x,-z
-y,-x,-z
-x,-y,-z
y,-x,-z
x,y,-z
-y,x,-z
-x,y,z
x,-y,z
-y,-x,z
y,x,z
loop_
_atom_site_type_symbol
_atom_site_label
_atom_site_fract_x
_atom_site_fract_y
_atom_site_fract_z
Si Si1 0.500000 0.930507 0.203697
Si Si2 0.146272 0.748631 0.801278
Si Si3 0.832501 0.396902 0.202071
Si Si4 0.596896 0.500000 0.194981
Si Si5 0.500000 0.265555 0.310163
Si Si6 0.818036 0.924022 0.500000
O O1 0.564674 0.895297 0.265179
O O2 0.500000 0.000000 0.290543
O O3 0.500000 0.935239 0.000000
O O4 0.211959 0.788042 0.785581
O O5 0.162058 0.676647 0.738310
O O6 0.093408 0.778363 0.672872
O O7 0.120999 0.749904 0.000000
O O8 0.772715 0.434005 0.281743
O O9 0.824446 0.400817 0.000000
O O10 0.564016 0.564016 0.278858
O O11 0.672888 0.500000 0.193809
O O12 0.577586 0.500000 0.000000
O O13 0.500000 0.292329 0.500000
O O14 0.885542 0.885542 0.500000
O O15 0.832169 0.000000 0.500000
#
# Coordination Sequence:
#
# PCOD8312944 Si02
#       6
#     8  16  16   8   8   8
#     4   8  14  26  45  69  96 127 166 210 254 302
#     4   9  19  36  58  83 111 146 187 233 283 331
#     4   9  18  33  52  73 103 141 181 225 270 321
#     4   9  19  37  57  73  94 129 176 230 282 334
#     4  11  22  32  49  77 110 145 180 226 281 334
#     4  10  22  39  60  87 119 151 184 226 270 326
#
# _framework density 18.877437
#
# number of rings (size 3 to 8) (size 9 to 14) (size 15 to 20)
#    0.000    2.750    0.000    2.250    1.750    3.125 
#    0.000    5.625    0.000    1.500    0.000    3.500 
#    0.000    0.000    0.000    0.000    0.000    0.000 
#
# Total GULP energy -792958.400432 kJ/mol
# GULP energy per Si atom -12389.975007 kJ/mol
# Density = 1.883447 g / cm^3
# Si number density = 18.877437 Si / 1000 Ang^3
#
#
#
# Elastic Constant Matrix: (Units=GPa)
#
#
# Indices 1 2 3 4 5 6 
#
# 1 153.6016 62.9057 35.1939 0.0000 0.0000 0.0000
# 2 62.9057 153.6016 35.1939 0.0000 0.0000 0.0000
# 3 35.1939 35.1939 67.1513 0.0000 0.0000 0.0000
# 4 0.0000 0.0000 0.0000 -10.9532 0.0000 0.0000
# 5 0.0000 0.0000 0.0000 0.0000 -10.9532 0.0000
# 6 0.0000 0.0000 0.0000 0.0000 0.0000 25.1100
#
#
#
# Elastic Compliance Matrix: (Units=1/GPa)
#
#
# Indices 1 2 3 4 5 6 
#
# 1 0.008297 -0.002729 -0.002918 0.000000 0.000000 0.000000
# 2 -0.002729 0.008297 -0.002918 0.000000 0.000000 0.000000
# 3 -0.002918 -0.002918 0.017950 0.000000 0.000000 0.000000
# 4 0.000000 0.000000 0.000000 -0.091298 0.000000 0.000000
# 5 0.000000 0.000000 0.000000 0.000000 -0.091298 0.000000
# 6 0.000000 0.000000 0.000000 0.000000 0.000000 0.039825
#
#
# Mechanical properties :
#
#
# Convention : Reuss Voigt Hill
#
# Bulk Modulus (GPa) = 57.42650 71.21575 64.32112
# Shear Modulus (GPa) = -58.62191 16.71145 -20.95523
#
# Velocity S-wave (km/s) = -5.57865 2.97856 -3.33538
# Velocity P-wave (km/s) = 3.31789 7.04530 4.39476
#
# Compressibility (1/GPa) = 0.01741356
#
# Stress axis : x y z
#
# Youngs Moduli (GPa) = 120.53085 120.53085 55.70957
#
# Poissons Ratio (x) = 0.32896 0.16255
# Poissons Ratio (y) = 0.32896 0.16255
# Poissons Ratio (z) = 0.35169 0.35169
#
# Static dielectric constant tensor:
#      x y z
#    x 3.513640 0.000000 0.000000 
#    y 0.000000 3.513640 0.000000 
#    z 0.000000 0.000000 3.408990 
# 
# 
# High freq. dielectric constant tensor:
#      x y z
#    x 1.728110 0.000000 0.000000 
#    y 0.000000 1.728110 0.000000 
#    z 0.000000 0.000000 1.729220 
# 
# From -- ./inp_files/998.got.cif
#   From: 2010.03.12/outbox.cif.g09.slc.cpg/sg123_1_cif.got.tgz:998.got - 2010.04.06 16:26:55.
