data_PCOD8312416
_publ_section_title
;
Structure prediction by ZEFSAII (Michael W. Deem and Ramdas Pophale) SiO2 
 PCOD8312416
Probable space group: P 4/M M M
;
_chemical_formula_sum "Si O2"
_cell_formula_units_Z 112
_cell_length_a 18.129766
_cell_length_b 18.129766
_cell_length_c 20.833054
_cell_angle_alpha 90.000000
_cell_angle_beta 90.000000
_cell_angle_gamma 90.000000
_cell_volume 6847.583503
_symmetry_space_group_name_H-M "P 4/M M M"
_symmetry_group_IT_number 123
_symmetry_cell_setting 'tetragonal'
loop_
_space_group_symop_operation_xyz
x,y,z
-y,x,z
-x,-y,z
y,-x,z
x,-y,-z
-x,y,-z
y,x,-z
-y,-x,-z
-x,-y,-z
y,-x,-z
x,y,-z
-y,x,-z
-x,y,z
x,-y,z
-y,-x,z
y,x,z
loop_
_atom_site_type_symbol
_atom_site_label
_atom_site_fract_x
_atom_site_fract_y
_atom_site_fract_z
Si Si1 0.585260 0.224488 0.068862
Si Si2 0.699773 0.413728 0.804857
Si Si3 0.084630 0.586585 0.266616
Si Si4 0.340895 0.777574 0.313375
Si Si5 0.638858 0.082949 0.877791
Si Si6 0.583790 0.700513 0.427138
Si Si7 0.202942 0.083613 0.074249
O O1 0.500000 0.244204 0.068045
O O2 0.621510 0.264034 0.130594
O O3 0.595860 0.136742 0.074568
O O4 0.619687 0.250279 0.000000
O O5 0.694722 0.500000 0.809200
O O6 0.617434 0.382567 0.798780
O O7 0.745580 0.391606 0.742773
O O8 0.107075 0.500000 0.277049
O O9 0.134155 0.645907 0.307156
O O10 0.095691 0.607077 0.192777
O O11 0.000000 0.598678 0.288030
O O12 0.256797 0.743204 0.306855
O O13 0.372121 0.757132 0.382880
O O14 0.726413 0.100020 0.881021
O O15 0.623746 0.000000 0.901515
O O16 0.588958 0.730235 0.500000
O O17 0.500000 0.693684 0.403738
O O18 0.619381 0.619381 0.421286
O O19 0.137442 0.137442 0.096343
O O20 0.175002 0.000000 0.084242
O O21 0.224749 0.097182 0.000000
#
# Coordination Sequence:
#
# PCOD8312416 Si02
#       7
#    16  16  16  16  16  16  16
#     4  10  20  32  45  61  83 110 140 178 223 272
#     4  10  20  33  48  65  85 112 148 189 231 274
#     4  10  19  31  50  73  97 126 158 194 236 284
#     4  10  19  32  51  72  96 125 158 197 235 278
#     4  10  19  30  45  65  87 111 140 177 224 276
#     4   9  17  28  44  68  97 130 165 200 240 283
#     4   9  18  31  45  61  82 108 139 179 226 277
#
# _framework density 16.356134000000001
#
# number of rings (size 3 to 8) (size 9 to 14) (size 15 to 20)
#    0.000    2.286    1.429    2.143    0.000    3.571 
#    0.000    2.143    0.000    3.000    0.000    4.000 
#    0.000    0.286    0.000    0.000    0.000    0.000 
#
# Total GULP energy -1387793.788128 kJ/mol
# GULP energy per Si atom -12391.015965 kJ/mol
# Density = 1.631891 g / cm^3
# Si number density = 16.356134 Si / 1000 Ang^3
#
#
#
# Elastic Constant Matrix: (Units=GPa)
#
#
# Indices 1 2 3 4 5 6 
#
# 1 63.9047 34.3816 18.9459 0.0000 0.0000 0.0000
# 2 34.3816 63.9047 18.9459 0.0000 0.0000 0.0000
# 3 18.9459 18.9459 63.2455 0.0000 0.0000 0.0000
# 4 0.0000 0.0000 0.0000 15.7526 0.0000 0.0000
# 5 0.0000 0.0000 0.0000 0.0000 15.7526 0.0000
# 6 0.0000 0.0000 0.0000 0.0000 0.0000 25.6762
#
#
#
# Elastic Compliance Matrix: (Units=1/GPa)
#
#
# Indices 1 2 3 4 5 6 
#
# 1 0.022687 -0.011185 -0.003446 0.000000 0.000000 0.000000
# 2 -0.011185 0.022687 -0.003446 0.000000 0.000000 0.000000
# 3 -0.003446 -0.003446 0.017876 0.000000 0.000000 0.000000
# 4 0.000000 0.000000 0.000000 0.063482 0.000000 0.000000
# 5 0.000000 0.000000 0.000000 0.000000 0.063482 0.000000
# 6 0.000000 0.000000 0.000000 0.000000 0.000000 0.038947
#
#
# Mechanical properties :
#
#
# Convention : Reuss Voigt Hill
#
# Bulk Modulus (GPa) = 36.90273 37.28910 37.09592
# Shear Modulus (GPa) = 18.22522 19.35505 18.79014
#
# Velocity S-wave (km/s) = 3.34170 3.44372 3.39309
# Velocity P-wave (km/s) = 6.12374 6.21772 6.17091
#
# Compressibility (1/GPa) = 0.02709826
#
# Stress axis : x y z
#
# Youngs Moduli (GPa) = 44.07753 44.07753 55.94141
#
# Poissons Ratio (x) = 0.49299 0.19276
# Poissons Ratio (y) = 0.49299 0.19276
# Poissons Ratio (z) = 0.15188 0.15188
#
# Static dielectric constant tensor:
#      x y z
#    x 3.113340 0.000000 0.000000 
#    y 0.000000 3.113340 0.000000 
#    z 0.000000 0.000000 3.170320 
# 
# 
# High freq. dielectric constant tensor:
#      x y z
#    x 1.618250 0.000000 0.000000 
#    y 0.000000 1.618250 0.000000 
#    z 0.000000 0.000000 1.615110 
# 
# From -- ./inp_files/6658.got.cif
#   From: 2010.03.12/outbox.cif.g09.slc.cpg/sg123_4_cif.got.tgz:6658.got - 2010.04.06 16:26:55.
