data_PCOD8312717
_publ_section_title
;
Structure prediction by ZEFSAII (Michael W. Deem and Ramdas Pophale) SiO2 
 PCOD8312717
Probable space group: P 4/M M M
;
_chemical_formula_sum "Si O2"
_cell_formula_units_Z 72
_cell_length_a 24.444013
_cell_length_b 24.444013
_cell_length_c 8.176685
_cell_angle_alpha 90.000000
_cell_angle_beta 90.000000
_cell_angle_gamma 90.000000
_cell_volume 4885.649186
_symmetry_space_group_name_H-M "P 4/M M M"
_symmetry_group_IT_number 123
_symmetry_cell_setting 'tetragonal'
loop_
_space_group_symop_operation_xyz
x,y,z
-y,x,z
-x,-y,z
y,-x,z
x,-y,-z
-x,y,-z
y,x,-z
-y,-x,-z
-x,-y,-z
y,-x,-z
x,y,-z
-y,x,-z
-x,y,z
x,-y,z
-y,-x,z
y,x,z
loop_
_atom_site_type_symbol
_atom_site_label
_atom_site_fract_x
_atom_site_fract_y
_atom_site_fract_z
Si Si1 0.390551 0.701271 0.818466
Si Si2 0.146751 0.060634 0.691146
Si Si3 0.218973 0.310957 0.317022
Si Si4 0.653656 0.438308 0.500000
Si Si5 0.860990 0.230853 0.183157
O O1 0.345256 0.654745 0.813910
O O2 0.361214 0.760210 0.794597
O O3 0.430974 0.689865 0.665663
O O4 0.419155 0.701321 0.000000
O O5 0.137182 0.056335 0.500000
O O6 0.099023 0.099023 0.769321
O O7 0.206519 0.086822 0.721676
O O8 0.143729 0.000000 0.770196
O O9 0.213224 0.333478 0.500000
O O10 0.262531 0.262531 0.308898
O O11 0.160065 0.288024 0.259336
O O12 0.631103 0.500000 0.500000
O O13 0.602138 0.397863 0.500000
O O14 0.812223 0.187778 0.191902
O O15 0.879876 0.242576 0.000000
#
# Coordination Sequence:
#
# PCOD8312717 Si02
#       5
#    16  16  16   8  16
#     4   9  16  27  43  62  83 106 134 170 211 253
#     4   9  17  28  39  50  66  92 130 175 218 255
#     4   9  14  22  38  59  81 100 120 151 195 248
#     4  10  20  33  46  62  84 112 149 187 218 244
#     4   9  16  24  35  53  74  95 120 153 197 249
#
# _framework density 14.737038999999999
#
# number of rings (size 3 to 8) (size 9 to 14) (size 15 to 20)
#    0.000    2.889    1.111    1.333    0.000    6.556 
#    0.000    1.111    0.000    0.000    0.000    6.222 
#    0.000    0.000    0.000    0.000    0.000    2.222 
#
# Total GULP energy -892003.970554 kJ/mol
# GULP energy per Si atom -12388.944035 kJ/mol
# Density = 1.470350 g / cm^3
# Si number density = 14.737039 Si / 1000 Ang^3
#
#
#
# Elastic Constant Matrix: (Units=GPa)
#
#
# Indices 1 2 3 4 5 6 
#
# 1 44.4152 41.0992 24.4085 0.0000 0.0000 0.0000
# 2 41.0992 44.4143 24.4083 0.0000 0.0000 0.0000
# 3 24.4085 24.4083 88.2453 0.0000 0.0000 0.0000
# 4 0.0000 0.0000 0.0000 9.5921 0.0000 0.0000
# 5 0.0000 0.0000 0.0000 0.0000 9.5923 0.0000
# 6 0.0000 0.0000 0.0000 0.0000 0.0000 10.4938
#
#
#
# Elastic Compliance Matrix: (Units=1/GPa)
#
#
# Indices 1 2 3 4 5 6 
#
# 1 0.157750 -0.143864 -0.003841 0.000000 0.000000 0.000000
# 2 -0.143864 0.157753 -0.003841 0.000000 0.000000 0.000000
# 3 -0.003841 -0.003841 0.013457 0.000000 0.000000 0.000000
# 4 0.000000 0.000000 0.000000 0.104253 0.000000 0.000000
# 5 0.000000 0.000000 0.000000 0.000000 0.104250 0.000000
# 6 0.000000 0.000000 0.000000 0.000000 0.000000 0.095294
#
#
# Mechanical properties :
#
#
# Convention : Reuss Voigt Hill
#
# Bulk Modulus (GPa) = 38.66052 39.65632 39.15842
# Shear Modulus (GPa) = 5.29396 11.74621 8.52009
#
# Velocity S-wave (km/s) = 1.89739 2.82628 2.40706
# Velocity P-wave (km/s) = 5.57590 6.13336 5.86126
#
# Compressibility (1/GPa) = 0.02586618
#
# Stress axis : x y z
#
# Youngs Moduli (GPa) = 6.33916 6.33903 74.31141
#
# Poissons Ratio (x) = 0.91196 0.28542
# Poissons Ratio (y) = 0.91198 0.28544
# Poissons Ratio (z) = 0.02435 0.02435
#
# Static dielectric constant tensor:
#      x y z
#    x 2.667990 0.000000 0.000000 
#    y 0.000000 2.667990 0.000000 
#    z 0.000000 0.000000 3.077140 
# 
# 
# High freq. dielectric constant tensor:
#      x y z
#    x 1.520720 0.000000 0.000000 
#    y 0.000000 1.520720 0.000000 
#    z 0.000000 0.000000 1.578980 
# 
# From -- ./inp_files/1290.got.cif
#   From: 2010.03.12/outbox.cif.g09.slc.cpg/sg123_1_cif.got.tgz:1290.got - 2010.04.06 16:26:55.
