data_PCOD8312313
_publ_section_title
;
Structure prediction by ZEFSAII (Michael W. Deem and Ramdas Pophale) SiO2 
 PCOD8312313
Probable space group: P 4/M M M
;
_chemical_formula_sum "Si O2"
_cell_formula_units_Z 96
_cell_length_a 22.960083
_cell_length_b 22.960083
_cell_length_c 12.777068
_cell_angle_alpha 90.000000
_cell_angle_beta 90.000000
_cell_angle_gamma 90.000000
_cell_volume 6735.628308
_symmetry_space_group_name_H-M "P 4/M M M"
_symmetry_group_IT_number 123
_symmetry_cell_setting 'tetragonal'
loop_
_space_group_symop_operation_xyz
x,y,z
-y,x,z
-x,-y,z
y,-x,z
x,-y,-z
-x,y,-z
y,x,-z
-y,-x,-z
-x,-y,-z
y,-x,-z
x,y,-z
-y,x,-z
-x,y,z
x,-y,z
-y,-x,z
y,x,z
loop_
_atom_site_type_symbol
_atom_site_label
_atom_site_fract_x
_atom_site_fract_y
_atom_site_fract_z
Si Si1 0.695554 0.205816 0.500000
Si Si2 0.661135 0.566737 0.621602
Si Si3 0.064245 0.840973 0.306952
Si Si4 0.809117 0.713437 0.119982
Si Si5 0.065401 0.241102 0.119304
Si Si6 0.212760 0.114678 0.500000
Si Si7 0.349073 0.251909 0.702263
O O1 0.744354 0.255647 0.500000
O O2 0.723492 0.142075 0.500000
O O3 0.655838 0.208939 0.396625
O O4 0.678965 0.575089 0.500000
O O5 0.648705 0.500000 0.649581
O O6 0.602177 0.602177 0.645904
O O7 0.714452 0.589107 0.695073
O O8 0.104705 0.895296 0.324070
O O9 0.072559 0.814740 0.192050
O O10 0.076335 0.792329 0.395176
O O11 0.000000 0.865403 0.322002
O O12 0.774410 0.774410 0.145417
O O13 0.878701 0.717733 0.143068
O O14 0.784049 0.660504 0.190429
O O15 0.798250 0.695815 0.000000
O O16 0.000000 0.269650 0.137942
O O17 0.070184 0.219342 0.000000
O O18 0.164683 0.164683 0.500000
O O19 0.299833 0.299833 0.690714
#
# Coordination Sequence:
#
# PCOD8312313 Si02
#       7
#     8  16  16  16  16   8  16
#     4   9  14  21  36  55  73  94 118 150 195 241
#     4   9  16  26  40  60  89 122 152 178 201 225
#     4  10  19  29  39  50  66  91 124 162 200 239
#     4   9  16  25  39  58  79 104 133 164 202 253
#     4   9  17  28  41  57  77 100 125 157 200 249
#     4   9  17  27  38  52  68  88 118 153 193 243
#     4   9  15  24  38  58  83 107 134 169 206 239
#
# _framework density 14.252568
#
# number of rings (size 3 to 8) (size 9 to 14) (size 15 to 20)
#    0.000    2.833    0.833    1.750    0.000    4.000 
#    0.000    0.833    0.000    2.000    0.000    2.333 
#    0.000    0.667    0.000   12.500    0.000    0.167 
#
# Total GULP energy -1189459.484667 kJ/mol
# GULP energy per Si atom -12390.202965 kJ/mol
# Density = 1.422013 g / cm^3
# Si number density = 14.252568 Si / 1000 Ang^3
#
#
#
# Elastic Constant Matrix: (Units=GPa)
#
#
# Indices 1 2 3 4 5 6 
#
# 1 71.3720 52.8706 39.8783 0.0000 0.0000 0.0000
# 2 52.8706 71.3721 39.8782 0.0000 0.0000 0.0000
# 3 39.8783 39.8782 74.3585 0.0000 0.0000 0.0000
# 4 0.0000 0.0000 0.0000 16.9604 0.0000 0.0000
# 5 0.0000 0.0000 0.0000 0.0000 16.9604 0.0000
# 6 0.0000 0.0000 0.0000 0.0000 0.0000 14.3864
#
#
#
# Elastic Compliance Matrix: (Units=1/GPa)
#
#
# Indices 1 2 3 4 5 6 
#
# 1 0.033162 -0.020888 -0.006583 0.000000 0.000000 0.000000
# 2 -0.020888 0.033162 -0.006583 0.000000 0.000000 0.000000
# 3 -0.006583 -0.006583 0.020509 0.000000 0.000000 0.000000
# 4 0.000000 0.000000 0.000000 0.058961 0.000000 0.000000
# 5 0.000000 0.000000 0.000000 0.000000 0.058961 0.000000
# 6 0.000000 0.000000 0.000000 0.000000 0.000000 0.069510
#
#
# Mechanical properties :
#
#
# Convention : Reuss Voigt Hill
#
# Bulk Modulus (GPa) = 53.39911 53.59523 53.49717
# Shear Modulus (GPa) = 14.34252 15.29315 14.81783
#
# Velocity S-wave (km/s) = 3.17568 3.27924 3.22787
# Velocity P-wave (km/s) = 7.14103 7.21273 7.17697
#
# Compressibility (1/GPa) = 0.01872690
#
# Stress axis : x y z
#
# Youngs Moduli (GPa) = 30.15473 30.15488 48.75896
#
# Poissons Ratio (x) = 0.62987 0.32097
# Poissons Ratio (y) = 0.62986 0.32097
# Poissons Ratio (z) = 0.19851 0.19850
#
# Static dielectric constant tensor:
#      x y z
#    x 2.666570 0.000000 0.000000 
#    y 0.000000 2.666570 0.000000 
#    z 0.000000 0.000000 2.929890 
# 
# 
# High freq. dielectric constant tensor:
#      x y z
#    x 1.514230 0.000000 0.000000 
#    y 0.000000 1.514230 0.000000 
#    z 0.000000 0.000000 1.550850 
# 
# From -- ./inp_files/3321.got.cif
#   From: 2010.03.12/outbox.cif.g09.slc.cpg/sg123_2_cif.got.tgz:3321.got - 2010.04.06 16:26:55.
