data_PCOD8312315
_publ_section_title
;
Structure prediction by ZEFSAII (Michael W. Deem and Ramdas Pophale) SiO2 
 PCOD8312315
Probable space group: P 4/M M M
;
_chemical_formula_sum "Si O2"
_cell_formula_units_Z 96
_cell_length_a 21.452975
_cell_length_b 21.452975
_cell_length_c 14.622814
_cell_angle_alpha 90.000000
_cell_angle_beta 90.000000
_cell_angle_gamma 90.000000
_cell_volume 6729.859681
_symmetry_space_group_name_H-M "P 4/M M M"
_symmetry_group_IT_number 123
_symmetry_cell_setting 'tetragonal'
loop_
_space_group_symop_operation_xyz
x,y,z
-y,x,z
-x,-y,z
y,-x,z
x,-y,-z
-x,y,-z
y,x,-z
-y,-x,-z
-x,-y,-z
y,-x,-z
x,y,-z
-y,x,-z
-x,y,z
x,-y,z
-y,-x,z
y,x,z
loop_
_atom_site_type_symbol
_atom_site_label
_atom_site_fract_x
_atom_site_fract_y
_atom_site_fract_z
Si Si1 0.290580 0.814249 0.400418
Si Si2 0.715196 0.611037 0.400366
Si Si3 0.928792 0.172109 0.106067
Si Si4 0.259842 0.845126 0.790304
Si Si5 0.344727 0.759890 0.897184
Si Si6 0.430281 0.326381 0.785612
O O1 0.287634 0.848655 0.500000
O O2 0.239694 0.760307 0.398173
O O3 0.358788 0.783587 0.386941
O O4 0.277576 0.860694 0.315458
O O5 0.711480 0.577236 0.500000
O O6 0.667115 0.667115 0.396416
O O7 0.698639 0.564379 0.318576
O O8 0.888906 0.111094 0.132460
O O9 0.907237 0.232545 0.163382
O O10 0.000000 0.156910 0.130411
O O11 0.919971 0.188885 0.000000
O O12 0.208227 0.791774 0.796397
O O13 0.321497 0.821458 0.843557
O O14 0.289644 0.710357 0.898278
O O15 0.404113 0.729595 0.847545
O O16 0.363781 0.778927 0.000000
O O17 0.500000 0.343389 0.818321
O O18 0.388089 0.388089 0.794471
#
# Coordination Sequence:
#
# PCOD8312315 Si02
#       6
#    16  16  16  16  16  16
#     4   8  12  19  35  58  79  96 117 150 197 251
#     4   8  13  23  38  54  72  94 121 154 196 245
#     4   9  17  27  39  58  85 117 149 175 196 221
#     4   9  14  23  40  60  80 100 126 162 203 241
#     4   9  16  26  40  56  72  92 121 161 210 253
#     4  10  19  29  39  52  72 100 134 168 201 241
#
# _framework density 14.264784000000001
#
# number of rings (size 3 to 8) (size 9 to 14) (size 15 to 20)
#    0.000    3.167    1.667    1.500    0.000    3.000 
#    0.000    0.833    0.000    0.500    0.000    4.667 
#    0.000    0.667    0.000   10.000    0.000    5.833 
#
# Total GULP energy -1189426.664230 kJ/mol
# GULP energy per Si atom -12389.861086 kJ/mol
# Density = 1.423232 g / cm^3
# Si number density = 14.264784 Si / 1000 Ang^3
#
#
#
# Elastic Constant Matrix: (Units=GPa)
#
#
# Indices 1 2 3 4 5 6 
#
# 1 46.7218 42.8410 36.5673 0.0000 0.0000 0.0000
# 2 42.8410 46.7218 36.5673 0.0000 0.0000 0.0000
# 3 36.5673 36.5673 106.9192 0.0000 0.0000 0.0000
# 4 0.0000 0.0000 0.0000 13.5589 0.0000 0.0000
# 5 0.0000 0.0000 0.0000 0.0000 13.5589 0.0000
# 6 0.0000 0.0000 0.0000 0.0000 0.0000 10.8287
#
#
#
# Elastic Compliance Matrix: (Units=1/GPa)
#
#
# Indices 1 2 3 4 5 6 
#
# 1 0.136583 -0.121091 -0.005298 0.000000 0.000000 0.000000
# 2 -0.121091 0.136583 -0.005298 0.000000 0.000000 0.000000
# 3 -0.005298 -0.005298 0.012977 0.000000 0.000000 0.000000
# 4 0.000000 0.000000 0.000000 0.073752 0.000000 0.000000
# 5 0.000000 0.000000 0.000000 0.000000 0.073752 0.000000
# 6 0.000000 0.000000 0.000000 0.000000 0.000000 0.092347
#
#
# Mechanical properties :
#
#
# Convention : Reuss Voigt Hill
#
# Bulk Modulus (GPa) = 43.92262 48.03491 45.97877
# Shear Modulus (GPa) = 6.27386 13.21512 9.74449
#
# Velocity S-wave (km/s) = 2.09945 3.04701 2.61648
# Velocity P-wave (km/s) = 6.06092 6.79161 6.43664
#
# Compressibility (1/GPa) = 0.02276731
#
# Stress axis : x y z
#
# Youngs Moduli (GPa) = 7.32158 7.32158 77.05928
#
# Poissons Ratio (x) = 0.88658 0.40829
# Poissons Ratio (y) = 0.88658 0.40829
# Poissons Ratio (z) = 0.03879 0.03879
#
# Static dielectric constant tensor:
#      x y z
#    x 2.469330 0.000000 0.000000 
#    y 0.000000 2.469330 0.000000 
#    z 0.000000 0.000000 3.236610 
# 
# 
# High freq. dielectric constant tensor:
#      x y z
#    x 1.500390 0.000000 0.000000 
#    y 0.000000 1.500390 0.000000 
#    z 0.000000 0.000000 1.562660 
# 
# From -- ./inp_files/4345.got.cif
#   From: 2010.03.12/outbox.cif.g09.slc.cpg/sg123_3_cif.got.tgz:4345.got - 2010.04.06 16:26:55.
