data_PCOD8312823
_publ_section_title
;
Structure prediction by ZEFSAII (Michael W. Deem and Ramdas Pophale) SiO2 
 PCOD8312823
Probable space group: P 4/M M M
;
_chemical_formula_sum "Si O2"
_cell_formula_units_Z 96
_cell_length_a 19.771211
_cell_length_b 19.771211
_cell_length_c 13.746688
_cell_angle_alpha 90.000000
_cell_angle_beta 90.000000
_cell_angle_gamma 90.000000
_cell_volume 5373.591122
_symmetry_space_group_name_H-M "P 4/M M M"
_symmetry_group_IT_number 123
_symmetry_cell_setting 'tetragonal'
loop_
_space_group_symop_operation_xyz
x,y,z
-y,x,z
-x,-y,z
y,-x,z
x,-y,-z
-x,y,-z
y,x,-z
-y,-x,-z
-x,-y,-z
y,-x,-z
x,y,-z
-y,x,-z
-x,y,z
x,-y,z
-y,-x,z
y,x,z
loop_
_atom_site_type_symbol
_atom_site_label
_atom_site_fract_x
_atom_site_fract_y
_atom_site_fract_z
Si Si1 0.331751 0.221012 0.110626
Si Si2 0.074564 0.812741 0.690843
Si Si3 0.775441 0.112096 0.104263
Si Si4 0.330634 0.921032 0.387797
Si Si5 0.578538 0.185078 0.717484
Si Si6 0.574464 0.319995 0.614497
O O1 0.281370 0.281370 0.144172
O O2 0.296428 0.147919 0.120395
O O3 0.396735 0.215930 0.179863
O O4 0.355760 0.233761 0.000000
O O5 0.126608 0.873393 0.671805
O O6 0.065174 0.793997 0.804873
O O7 0.100726 0.746994 0.632921
O O8 0.000000 0.835028 0.653815
O O9 0.828724 0.171277 0.096353
O O10 0.775160 0.072028 0.000000
O O11 0.347654 0.905493 0.500000
O O12 0.380996 0.880782 0.317580
O O13 0.339846 0.000000 0.363549
O O14 0.500000 0.165469 0.726585
O O15 0.592514 0.242841 0.638072
O O16 0.575337 0.328111 0.500000
O O17 0.500000 0.338002 0.656247
O O18 0.628608 0.371393 0.662129
#
# Coordination Sequence:
#
# PCOD8312823 Si02
#       6
#    16  16  16  16  16  16
#     4   9  17  31  52  77 106 139 174 211 252 303
#     4  10  20  34  53  78 107 137 173 217 264 317
#     4   8  14  27  49  74  98 128 168 210 250 296
#     4  10  22  39  56  74  98 134 180 221 262 321
#     4  11  21  33  53  79 107 134 167 219 271 310
#     4   9  18  31  47  71 102 134 168 205 249 303
#
# _framework density 17.865148000000001
#
# number of rings (size 3 to 8) (size 9 to 14) (size 15 to 20)
#    0.000    2.500    1.667    2.000    0.000    3.333 
#    0.000    1.667    0.000    0.500    0.000    5.833 
#    0.000    0.000    0.000   15.500    0.000    0.167 
#
# Total GULP energy -1189788.009883 kJ/mol
# GULP energy per Si atom -12393.625103 kJ/mol
# Density = 1.782449 g / cm^3
# Si number density = 17.865148 Si / 1000 Ang^3
#
#
#
# Elastic Constant Matrix: (Units=GPa)
#
#
# Indices 1 2 3 4 5 6 
#
# 1 95.3118 59.9400 30.9558 0.0000 0.0000 0.0000
# 2 59.9400 95.3118 30.9558 0.0000 0.0000 0.0000
# 3 30.9558 30.9558 63.2359 0.0000 0.0000 0.0000
# 4 0.0000 0.0000 0.0000 21.1017 0.0000 0.0000
# 5 0.0000 0.0000 0.0000 0.0000 21.1017 0.0000
# 6 0.0000 0.0000 0.0000 0.0000 0.0000 27.0245
#
#
#
# Elastic Compliance Matrix: (Units=1/GPa)
#
#
# Indices 1 2 3 4 5 6 
#
# 1 0.018137 -0.010134 -0.003918 0.000000 0.000000 0.000000
# 2 -0.010134 0.018137 -0.003918 0.000000 0.000000 0.000000
# 3 -0.003918 -0.003918 0.019650 0.000000 0.000000 0.000000
# 4 0.000000 0.000000 0.000000 0.047390 0.000000 0.000000
# 5 0.000000 0.000000 0.000000 0.000000 0.047390 0.000000
# 6 0.000000 0.000000 0.000000 0.000000 0.000000 0.037003
#
#
# Mechanical properties :
#
#
# Convention : Reuss Voigt Hill
#
# Bulk Modulus (GPa) = 50.03766 55.28476 52.66121
# Shear Modulus (GPa) = 21.71004 22.64609 22.17806
#
# Velocity S-wave (km/s) = 3.48978 3.56422 3.52719
# Velocity P-wave (km/s) = 6.65638 6.92466 6.79185
#
# Compressibility (1/GPa) = 0.01998495
#
# Stress axis : x y z
#
# Youngs Moduli (GPa) = 55.13480 55.13480 50.89124
#
# Poissons Ratio (x) = 0.55872 0.19939
# Poissons Ratio (y) = 0.55872 0.19939
# Poissons Ratio (z) = 0.21602 0.21602
#
# Static dielectric constant tensor:
#      x y z
#    x 3.251170 0.000000 0.000000 
#    y 0.000000 3.251170 0.000000 
#    z 0.000000 0.000000 1.339540 
# 
# 
# High freq. dielectric constant tensor:
#      x y z
#    x 1.679140 0.000000 0.000000 
#    y 0.000000 1.679140 0.000000 
#    z 0.000000 0.000000 1.690600 
# 
# From -- ./inp_files/3148.got.cif
#   From: 2010.03.12/outbox.cif.g09.slc.cpg/sg123_2_cif.got.tgz:3148.got - 2010.04.06 16:26:55.
