data_PCOD8312932
_publ_section_title
;
Structure prediction by ZEFSAII (Michael W. Deem and Ramdas Pophale) SiO2 
 PCOD8312932
Probable space group: P 4/M M M
;
_chemical_formula_sum "Si O2"
_cell_formula_units_Z 56
_cell_length_a 18.204068
_cell_length_b 18.204068
_cell_length_c 7.837976
_cell_angle_alpha 90.000000
_cell_angle_beta 90.000000
_cell_angle_gamma 90.000000
_cell_volume 2597.411910
_symmetry_space_group_name_H-M "P 4/M M M"
_symmetry_group_IT_number 123
_symmetry_cell_setting 'tetragonal'
loop_
_space_group_symop_operation_xyz
x,y,z
-y,x,z
-x,-y,z
y,-x,z
x,-y,-z
-x,y,-z
y,x,-z
-y,-x,-z
-x,-y,-z
y,-x,-z
x,y,-z
-y,x,-z
-x,y,z
x,-y,z
-y,-x,z
y,x,z
loop_
_atom_site_type_symbol
_atom_site_label
_atom_site_fract_x
_atom_site_fract_y
_atom_site_fract_z
Si Si1 0.196668 0.917518 0.201732
Si Si2 0.921786 0.583953 0.500000
Si Si3 0.583786 0.300493 0.698263
Si Si4 0.347158 0.843057 0.806632
O O1 0.123335 0.876666 0.271199
O O2 0.265393 0.865970 0.253078
O O3 0.202264 0.000000 0.280612
O O4 0.192619 0.923757 0.000000
O O5 0.939165 0.500000 0.500000
O O6 0.879395 0.597842 0.674673
O O7 0.000000 0.627110 0.500000
O O8 0.584180 0.278363 0.500000
O O9 0.500000 0.300387 0.768674
O O10 0.618505 0.381496 0.725268
O O11 0.636615 0.243861 0.798755
O O12 0.361249 0.871039 0.000000
#
# Coordination Sequence:
#
# PCOD8312932 Si02
#       4
#    16   8  16  16
#     4   9  18  33  55  85 120 158 201 248 299 357
#     4  11  24  40  59  88 124 160 205 257 306 364
#     4  10  21  38  61  90 124 161 204 254 308 368
#     4  11  22  39  63  89 121 161 204 252 307 365
#
# _framework density 21.559923999999999
#
# number of rings (size 3 to 8) (size 9 to 14) (size 15 to 20)
#    0.000    1.857    1.429    2.571    0.000    6.286 
#    0.000    4.286    0.000    0.000    0.000    2.000 
#    0.000    3.429    0.000    0.286    0.000    0.000 
#
# Total GULP energy -694022.112270 kJ/mol
# GULP energy per Si atom -12393.252005 kJ/mol
# Density = 2.151085 g / cm^3
# Si number density = 21.559924 Si / 1000 Ang^3
#
#
#
# Elastic Constant Matrix: (Units=GPa)
#
#
# Indices 1 2 3 4 5 6 
#
# 1 147.4630 87.2170 19.8959 0.0000 0.0000 0.0000
# 2 87.2170 147.4630 19.8959 0.0000 0.0000 0.0000
# 3 19.8959 19.8959 79.0701 0.0000 0.0000 0.0000
# 4 0.0000 0.0000 0.0000 16.8840 0.0000 0.0000
# 5 0.0000 0.0000 0.0000 0.0000 16.8840 0.0000
# 6 0.0000 0.0000 0.0000 0.0000 0.0000 32.0528
#
#
#
# Elastic Compliance Matrix: (Units=1/GPa)
#
#
# Indices 1 2 3 4 5 6 
#
# 1 0.010525 -0.006074 -0.001120 0.000000 0.000000 0.000000
# 2 -0.006074 0.010525 -0.001120 0.000000 0.000000 0.000000
# 3 -0.001120 -0.001120 0.013211 0.000000 0.000000 0.000000
# 4 0.000000 0.000000 0.000000 0.059228 0.000000 0.000000
# 5 0.000000 0.000000 0.000000 0.000000 0.059228 0.000000
# 6 0.000000 0.000000 0.000000 0.000000 0.000000 0.031199
#
#
# Mechanical properties :
#
#
# Convention : Reuss Voigt Hill
#
# Bulk Modulus (GPa) = 56.71266 69.77930 63.24598
# Shear Modulus (GPa) = 24.22256 29.62998 26.92627
#
# Velocity S-wave (km/s) = 3.35550 3.71119 3.53782
# Velocity P-wave (km/s) = 6.43228 7.12737 6.78873
#
# Compressibility (1/GPa) = 0.01763275
#
# Stress axis : x y z
#
# Youngs Moduli (GPa) = 95.01348 95.01348 75.69664
#
# Poissons Ratio (x) = 0.57709 0.08478
# Poissons Ratio (y) = 0.57709 0.08478
# Poissons Ratio (z) = 0.10641 0.10641
#
# Static dielectric constant tensor:
#      x y z
#    x 3.997600 0.000000 0.000000 
#    y 0.000000 3.997600 0.000000 
#    z 0.000000 0.000000 3.746770 
# 
# 
# High freq. dielectric constant tensor:
#      x y z
#    x 1.847700 0.000000 0.000000 
#    y 0.000000 1.847700 0.000000 
#    z 0.000000 0.000000 1.823270 
# 
# From -- ./inp_files/596.got.cif
#   From: 2010.03.12/outbox.cif.g09.slc.cpg/sg123_1_cif.got.tgz:596.got - 2010.04.06 16:26:55.
