data_PCOD8312781
_publ_section_title
;
Structure prediction by ZEFSAII (Michael W. Deem and Ramdas Pophale) SiO2 
 PCOD8312781
Probable space group: P 4/M M M
;
_chemical_formula_sum "Si O2"
_cell_formula_units_Z 96
_cell_length_a 13.435659
_cell_length_b 13.435659
_cell_length_c 31.382412
_cell_angle_alpha 90.000000
_cell_angle_beta 90.000000
_cell_angle_gamma 90.000000
_cell_volume 5665.056757
_symmetry_space_group_name_H-M "P 4/M M M"
_symmetry_group_IT_number 123
_symmetry_cell_setting 'tetragonal'
loop_
_space_group_symop_operation_xyz
x,y,z
-y,x,z
-x,-y,z
y,-x,z
x,-y,-z
-x,y,-z
y,x,-z
-y,-x,-z
-x,-y,-z
y,-x,-z
x,y,-z
-y,x,-z
-x,y,z
x,-y,z
-y,-x,z
y,x,z
loop_
_atom_site_type_symbol
_atom_site_label
_atom_site_fract_x
_atom_site_fract_y
_atom_site_fract_z
Si Si1 0.725878 0.113349 0.454932
Si Si2 0.609450 0.117948 0.871714
Si Si3 0.780088 0.384212 0.286823
Si Si4 0.723111 0.117215 0.211988
Si Si5 0.281191 0.882916 0.637703
Si Si6 0.885678 0.725679 0.952689
O O1 0.665832 0.136565 0.500000
O O2 0.827947 0.172054 0.455531
O O3 0.670853 0.136052 0.409888
O O4 0.758679 0.000000 0.454547
O O5 0.500000 0.164855 0.865085
O O6 0.681066 0.152150 0.833660
O O7 0.649922 0.156228 0.917294
O O8 0.601313 0.000000 0.871771
O O9 0.752577 0.500000 0.284851
O O10 0.677527 0.322474 0.285201
O O11 0.851169 0.356544 0.247453
O O12 0.841275 0.362555 0.329805
O O13 0.827994 0.172007 0.220010
O O14 0.742590 0.000000 0.214457
O O15 0.176933 0.823068 0.643462
O O16 0.260939 0.000000 0.646114
O O17 0.829928 0.829928 0.948838
O O18 0.000000 0.750734 0.943539
O O19 0.871021 0.678606 0.000000
#
# Coordination Sequence:
#
# PCOD8312781 Si02
#       6
#    16  16  16  16  16  16
#     4   8  13  21  34  54  83 119 155 189 223 260
#     4   9  17  29  45  64  87 118 155 192 229 267
#     4  10  21  36  53  72  92 116 151 194 238 283
#     4  10  20  33  50  73 100 129 159 188 221 267
#     4   9  17  28  43  66  95 126 159 191 225 270
#     4   9  17  28  42  62  89 120 153 189 230 280
#
# _framework density 16.945990999999999
#
# number of rings (size 3 to 8) (size 9 to 14) (size 15 to 20)
#    0.000    2.833    0.000    1.500    0.000    3.167 
#    0.000    5.000    0.000    6.500    0.000    2.333 
#    0.000    3.000    0.000   13.833    0.000    0.667 
#
# Total GULP energy -1189299.679150 kJ/mol
# GULP energy per Si atom -12388.538324 kJ/mol
# Density = 1.690742 g / cm^3
# Si number density = 16.945991 Si / 1000 Ang^3
#
#
#
# Elastic Constant Matrix: (Units=GPa)
#
#
# Indices 1 2 3 4 5 6 
#
# 1 76.7297 30.9516 41.2671 0.0000 0.0000 0.0000
# 2 30.9516 76.7297 41.2671 0.0000 0.0000 0.0000
# 3 41.2671 41.2671 148.2211 0.0000 0.0000 0.0000
# 4 0.0000 0.0000 0.0000 15.1584 0.0000 0.0000
# 5 0.0000 0.0000 0.0000 0.0000 15.1584 0.0000
# 6 0.0000 0.0000 0.0000 0.0000 0.0000 9.1356
#
#
#
# Elastic Compliance Matrix: (Units=1/GPa)
#
#
# Indices 1 2 3 4 5 6 
#
# 1 0.016825 -0.005019 -0.003287 0.000000 0.000000 0.000000
# 2 -0.005019 0.016825 -0.003287 0.000000 0.000000 0.000000
# 3 -0.003287 -0.003287 0.008577 0.000000 0.000000 0.000000
# 4 0.000000 0.000000 0.000000 0.065970 0.000000 0.000000
# 5 0.000000 0.000000 0.000000 0.000000 0.065970 0.000000
# 6 0.000000 0.000000 0.000000 0.000000 0.000000 0.109462
#
#
# Mechanical properties :
#
#
# Convention : Reuss Voigt Hill
#
# Bulk Modulus (GPa) = 52.51801 58.73915 55.62858
# Shear Modulus (GPa) = 15.96613 20.43680 18.20146
#
# Velocity S-wave (km/s) = 3.07282 3.47651 3.28088
# Velocity P-wave (km/s) = 6.60669 7.13111 6.87390
#
# Compressibility (1/GPa) = 0.01904109
#
# Stress axis : x y z
#
# Youngs Moduli (GPa) = 59.43439 59.43439 116.59114
#
# Poissons Ratio (x) = 0.29832 0.38323
# Poissons Ratio (y) = 0.29832 0.38323
# Poissons Ratio (z) = 0.19536 0.19536
#
# Static dielectric constant tensor:
#      x y z
#    x 2.902590 0.000000 0.000000 
#    y 0.000000 2.902590 0.000000 
#    z 0.000000 0.000000 3.821980 
# 
# 
# High freq. dielectric constant tensor:
#      x y z
#    x 1.622410 0.000000 0.000000 
#    y 0.000000 1.622410 0.000000 
#    z 0.000000 0.000000 1.686940 
# 
# From -- ./inp_files/8600.got.cif
#   From: 2010.03.12/outbox.cif.g09.slc.cpg/sg123_5_cif.got.tgz:8600.got - 2010.04.06 16:26:55.
