data_PCOD8312454
_publ_section_title
;
Structure prediction by ZEFSAII (Michael W. Deem and Ramdas Pophale) SiO2 
 PCOD8312454
Probable space group: P 4/M M M
;
_chemical_formula_sum "Si O2"
_cell_formula_units_Z 88
_cell_length_a 13.507801
_cell_length_b 13.507801
_cell_length_c 28.000444
_cell_angle_alpha 90.000000
_cell_angle_beta 90.000000
_cell_angle_gamma 90.000000
_cell_volume 5108.980273
_symmetry_space_group_name_H-M "P 4/M M M"
_symmetry_group_IT_number 123
_symmetry_cell_setting 'tetragonal'
loop_
_space_group_symop_operation_xyz
x,y,z
-y,x,z
-x,-y,z
y,-x,z
x,-y,-z
-x,y,-z
y,x,-z
-y,-x,-z
-x,-y,-z
y,-x,-z
x,y,-z
-y,x,-z
-x,y,z
x,-y,z
-y,-x,z
y,x,z
loop_
_atom_site_type_symbol
_atom_site_label
_atom_site_fract_x
_atom_site_fract_y
_atom_site_fract_z
Si Si1 0.110165 0.617725 0.000000
Si Si2 0.615663 0.221875 0.634375
Si Si3 0.387565 0.885078 0.812923
Si Si4 0.383733 0.772696 0.092334
Si Si5 0.883781 0.276047 0.282884
Si Si6 0.886419 0.726830 0.445052
O O1 0.164989 0.655856 0.952655
O O2 0.105687 0.500000 0.000000
O O3 0.000000 0.662568 0.000000
O O4 0.500000 0.246630 0.636015
O O5 0.674712 0.325289 0.637254
O O6 0.644216 0.151011 0.678248
O O7 0.640175 0.163781 0.585601
O O8 0.500000 0.855880 0.799770
O O9 0.350725 0.827813 0.859554
O O10 0.318317 0.856017 0.768889
O O11 0.380060 0.000000 0.825196
O O12 0.500000 0.756434 0.089663
O O13 0.335049 0.664952 0.091319
O O14 0.827847 0.172154 0.290732
O O15 0.000000 0.256743 0.288603
O O16 0.877582 0.694253 0.500000
O O17 0.830711 0.830711 0.435418
O O18 0.000000 0.742229 0.429669
#
# Coordination Sequence:
#
# PCOD8312454 Si02
#       6
#     8  16  16  16  16  16
#     4   9  17  30  47  65  85 111 147 191 233 268
#     4  10  21  36  53  73  97 125 160 202 245 290
#     4   9  17  30  49  71  93 120 157 200 241 276
#     4  10  19  30  45  66  94 125 154 186 225 272
#     4  10  20  33  50  73 100 129 161 197 238 286
#     4   9  18  32  50  74 103 133 165 200 238 282
#
# _framework density 17.224571000000001
#
# number of rings (size 3 to 8) (size 9 to 14) (size 15 to 20)
#    0.000    2.455    0.000    2.455    0.000    5.455 
#    0.000    1.818    0.000    4.909    0.000    5.091 
#    0.000   13.818    0.000    0.000    0.000    0.000 
#
# Total GULP energy -1091308.573168 kJ/mol
# GULP energy per Si atom -12401.233786 kJ/mol
# Density = 1.718537 g / cm^3
# Si number density = 17.224571 Si / 1000 Ang^3
#
#
#
# Elastic Constant Matrix: (Units=GPa)
#
#
# Indices 1 2 3 4 5 6 
#
# 1 97.5625 48.8506 52.2644 0.0000 0.0000 0.0000
# 2 48.8506 97.5625 52.2644 0.0000 0.0000 0.0000
# 3 52.2644 52.2644 114.9168 0.0000 0.0000 0.0000
# 4 0.0000 0.0000 0.0000 23.5361 0.0000 0.0000
# 5 0.0000 0.0000 0.0000 0.0000 23.5361 0.0000
# 6 0.0000 0.0000 0.0000 0.0000 0.0000 18.9696
#
#
#
# Elastic Compliance Matrix: (Units=1/GPa)
#
#
# Indices 1 2 3 4 5 6 
#
# 1 0.015321 -0.005207 -0.004600 0.000000 0.000000 0.000000
# 2 -0.005207 0.015321 -0.004600 0.000000 0.000000 0.000000
# 3 -0.004600 -0.004600 0.012886 0.000000 0.000000 0.000000
# 4 0.000000 0.000000 0.000000 0.042488 0.000000 0.000000
# 5 0.000000 0.000000 0.000000 0.000000 0.042488 0.000000
# 6 0.000000 0.000000 0.000000 0.000000 0.000000 0.052716
#
#
# Mechanical properties :
#
#
# Convention : Reuss Voigt Hill
#
# Bulk Modulus (GPa) = 67.96009 68.53338 68.24674
# Shear Modulus (GPa) = 23.26233 23.65252 23.45743
#
# Velocity S-wave (km/s) = 3.67894 3.70967 3.69434
# Velocity P-wave (km/s) = 7.58862 7.63043 7.60955
#
# Compressibility (1/GPa) = 0.01471452
#
# Stress axis : x y z
#
# Youngs Moduli (GPa) = 65.26808 65.26808 77.60371
#
# Poissons Ratio (x) = 0.33988 0.35696
# Poissons Ratio (y) = 0.33988 0.35696
# Poissons Ratio (z) = 0.30022 0.30022
#
# Static dielectric constant tensor:
#      x y z
#    x 3.054630 0.000000 0.000000 
#    y 0.000000 3.054630 0.000000 
#    z 0.000000 0.000000 3.437220 
# 
# 
# High freq. dielectric constant tensor:
#      x y z
#    x 1.652680 0.000000 0.000000 
#    y 0.000000 1.652680 0.000000 
#    z 0.000000 0.000000 1.684880 
# 
# From -- ./inp_files/8455.got.cif
#   From: 2010.03.12/outbox.cif.g09.slc.cpg/sg123_5_cif.got.tgz:8455.got - 2010.04.06 16:26:55.
