data_PCOD8312516
_publ_section_title
;
Structure prediction by ZEFSAII (Michael W. Deem and Ramdas Pophale) SiO2 
 PCOD8312516
Probable space group: P 4/M M M
;
_chemical_formula_sum "Si O2"
_cell_formula_units_Z 80
_cell_length_a 24.419793
_cell_length_b 24.419793
_cell_length_c 8.764978
_cell_angle_alpha 90.000000
_cell_angle_beta 90.000000
_cell_angle_gamma 90.000000
_cell_volume 5226.786814
_symmetry_space_group_name_H-M "P 4/M M M"
_symmetry_group_IT_number 123
_symmetry_cell_setting 'tetragonal'
loop_
_space_group_symop_operation_xyz
x,y,z
-y,x,z
-x,-y,z
y,-x,z
x,-y,-z
-x,y,-z
y,x,-z
-y,-x,-z
-x,-y,-z
y,-x,-z
x,y,-z
-y,x,-z
-x,y,z
x,-y,z
-y,-x,z
y,x,z
loop_
_atom_site_type_symbol
_atom_site_label
_atom_site_fract_x
_atom_site_fract_y
_atom_site_fract_z
Si Si1 0.700136 0.000000 0.673908
Si Si2 0.115432 0.561948 0.674215
Si Si3 0.653131 0.811876 0.172171
Si Si4 0.000000 0.587283 0.822171
Si Si5 0.176865 0.823136 0.327482
Si Si6 0.099065 0.252253 0.828383
Si Si7 0.730958 0.269042 0.671155
O O1 0.651762 0.000000 0.796303
O O2 0.736274 0.947273 0.705108
O O3 0.678702 0.000000 0.500000
O O4 0.107254 0.580665 0.500000
O O5 0.137475 0.500000 0.686135
O O6 0.162372 0.600133 0.746117
O O7 0.055735 0.563381 0.752222
O O8 0.699299 0.857565 0.175320
O O9 0.676402 0.755856 0.248352
O O10 0.636422 0.796989 0.000000
O O11 0.000000 0.573626 0.000000
O O12 0.160745 0.839256 0.500000
O O13 0.124942 0.803550 0.231824
O O14 0.223025 0.776976 0.329747
O O15 0.076262 0.244336 0.000000
O O16 0.714307 0.285693 0.500000
#
# Coordination Sequence:
#
# PCOD8312516 Si02
#       7
#     8  16  16   8   8  16   8
#     4  12  22  31  47  66  88 116 147 184 223 268
#     4  11  23  36  49  65  87 118 157 198 236 273
#     4  10  19  31  48  67  89 114 147 186 227 272
#     4  12  23  35  48  63  84 116 155 197 237 274
#     4   9  17  29  45  65  87 112 140 171 213 265
#     4  10  19  31  46  65  88 113 142 178 220 267
#     4   9  17  29  47  67  89 113 142 179 223 272
#
# _framework density 15.305771
#
# number of rings (size 3 to 8) (size 9 to 14) (size 15 to 20)
#    0.000    1.600    2.000    4.500    0.000    6.800 
#    0.000    0.000    0.000    0.000    0.000    0.000 
#    0.000    0.400    0.000    4.000    0.000    2.900 
#
# Total GULP energy -991734.031799 kJ/mol
# GULP energy per Si atom -12396.675397 kJ/mol
# Density = 1.527093 g / cm^3
# Si number density = 15.305771 Si / 1000 Ang^3
#
#
#
# Elastic Constant Matrix: (Units=GPa)
#
#
# Indices 1 2 3 4 5 6 
#
# 1 58.1486 43.0426 38.6868 0.0000 0.0000 0.0000
# 2 43.0426 58.1485 38.6868 0.0000 0.0000 0.0000
# 3 38.6868 38.6868 135.0568 0.0000 0.0000 0.0000
# 4 0.0000 0.0000 0.0000 21.4830 0.0000 0.0000
# 5 0.0000 0.0000 0.0000 0.0000 21.4830 0.0000
# 6 0.0000 0.0000 0.0000 0.0000 0.0000 37.7250
#
#
#
# Elastic Compliance Matrix: (Units=1/GPa)
#
#
# Indices 1 2 3 4 5 6 
#
# 1 0.039426 -0.026773 -0.003625 0.000000 0.000000 0.000000
# 2 -0.026773 0.039427 -0.003625 0.000000 0.000000 0.000000
# 3 -0.003625 -0.003625 0.009481 0.000000 0.000000 0.000000
# 4 0.000000 0.000000 0.000000 0.046548 0.000000 0.000000
# 5 0.000000 0.000000 0.000000 0.000000 0.046548 0.000000
# 6 0.000000 0.000000 0.000000 0.000000 0.000000 0.026508
#
#
# Mechanical properties :
#
#
# Convention : Reuss Voigt Hill
#
# Bulk Modulus (GPa) = 49.28579 54.68735 51.98657
# Shear Modulus (GPa) = 17.68376 24.86740 21.27558
#
# Velocity S-wave (km/s) = 3.40275 4.03514 3.73236
# Velocity P-wave (km/s) = 6.90717 7.58401 7.25349
#
# Compressibility (1/GPa) = 0.02028982
#
# Stress axis : x y z
#
# Youngs Moduli (GPa) = 25.36370 25.36364 105.47584
#
# Poissons Ratio (x) = 0.67905 0.38231
# Poissons Ratio (y) = 0.67905 0.38232
# Poissons Ratio (z) = 0.09193 0.09193
#
# Static dielectric constant tensor:
#      x y z
#    x 2.806350 0.000000 0.000000 
#    y 0.000000 2.806350 0.000000 
#    z 0.000000 0.000000 3.192170 
# 
# 
# High freq. dielectric constant tensor:
#      x y z
#    x 1.555940 0.000000 0.000000 
#    y 0.000000 1.555940 0.000000 
#    z 0.000000 0.000000 1.611350 
# 
# From -- ./inp_files/1531.got.cif
#   From: 2010.03.12/outbox.cif.g09.slc.cpg/sg123_1_cif.got.tgz:1531.got - 2010.04.06 16:26:55.
