data_PCOD8312477
_publ_section_title
;
Structure prediction by ZEFSAII (Michael W. Deem and Ramdas Pophale) SiO2 
 PCOD8312477
Probable space group: P 4/M M M
;
_chemical_formula_sum "Si O2"
_cell_formula_units_Z 96
_cell_length_a 17.000481
_cell_length_b 17.000481
_cell_length_c 21.961899
_cell_angle_alpha 90.000000
_cell_angle_beta 90.000000
_cell_angle_gamma 90.000000
_cell_volume 6347.347981
_symmetry_space_group_name_H-M "P 4/M M M"
_symmetry_group_IT_number 123
_symmetry_cell_setting 'tetragonal'
loop_
_space_group_symop_operation_xyz
x,y,z
-y,x,z
-x,-y,z
y,-x,z
x,-y,-z
-x,y,-z
y,x,-z
-y,-x,-z
-x,-y,-z
y,-x,-z
x,y,-z
-y,x,-z
-x,y,z
x,-y,z
-y,-x,z
y,x,z
loop_
_atom_site_type_symbol
_atom_site_label
_atom_site_fract_x
_atom_site_fract_y
_atom_site_fract_z
Si Si1 0.000000 0.297975 0.567776
Si Si2 0.724072 0.408661 0.500000
Si Si3 0.910501 0.785284 0.068456
Si Si4 0.644050 0.906333 0.146528
Si Si5 0.590095 0.143197 0.403752
Si Si6 0.500000 0.906023 0.068743
Si Si7 0.089281 0.589923 0.725274
Si Si8 0.000000 0.875235 0.572571
O O1 0.077158 0.349685 0.576234
O O2 0.000000 0.213280 0.602910
O O3 0.000000 0.267440 0.500000
O O4 0.696181 0.500000 0.500000
O O5 0.647877 0.352124 0.500000
O O6 0.775806 0.391135 0.560742
O O7 0.867146 0.867146 0.076012
O O8 0.874765 0.724140 0.116844
O O9 0.000000 0.803516 0.083931
O O10 0.901389 0.750771 0.000000
O O11 0.574659 0.871964 0.104936
O O12 0.639360 0.879091 0.217025
O O13 0.639385 0.000000 0.144481
O O14 0.500000 0.117328 0.418576
O O15 0.600839 0.150458 0.330548
O O16 0.500000 0.000000 0.067307
O O17 0.500000 0.872753 0.000000
O O18 0.086019 0.500000 0.747028
O O19 0.000000 0.615834 0.705097
O O20 0.078143 0.921858 0.595361
O O21 0.000000 0.874388 0.500000
#
# Coordination Sequence:
#
# PCOD8312477 Si02
#       8
#     8   8  16  16  16   8  16   8
#     4  11  18  26  44  71  93 121 149 176 216 271
#     4  10  22  38  53  69  90 114 144 186 233 274
#     4   9  17  28  41  57  78 107 145 191 233 259
#     4   9  15  24  38  60  85 111 143 172 207 255
#     4  10  19  30  46  69  96 119 141 178 223 269
#     4   9  14  20  34  58  88 113 137 170 207 247
#     4   9  15  25  42  63  91 122 146 164 197 259
#     4   8  16  30  44  60  85 117 152 186 220 258
#
# _framework density 15.124427000000001
#
# number of rings (size 3 to 8) (size 9 to 14) (size 15 to 20)
#    0.000    2.667    2.500    1.000    0.000    3.250 
#    0.000    1.667    0.000    0.000    0.000    0.000 
#    0.000    0.000    0.000    0.000    0.000    0.417 
#
# Total GULP energy -1189418.695474 kJ/mol
# GULP energy per Si atom -12389.778078 kJ/mol
# Density = 1.509000 g / cm^3
# Si number density = 15.124427 Si / 1000 Ang^3
#
#
#
# Elastic Constant Matrix: (Units=GPa)
#
#
# Indices 1 2 3 4 5 6 
#
# 1 77.8794 48.8029 34.6348 0.0000 0.0000 0.0000
# 2 48.8029 77.8785 34.6345 0.0000 0.0000 0.0000
# 3 34.6348 34.6345 103.9853 0.0000 0.0000 0.0000
# 4 0.0000 0.0000 0.0000 13.5149 0.0000 0.0000
# 5 0.0000 0.0000 0.0000 0.0000 13.5147 0.0000
# 6 0.0000 0.0000 0.0000 0.0000 0.0000 21.8504
#
#
#
# Elastic Compliance Matrix: (Units=1/GPa)
#
#
# Indices 1 2 3 4 5 6 
#
# 1 0.022022 -0.012370 -0.003215 0.000000 0.000000 0.000000
# 2 -0.012370 0.022022 -0.003215 0.000000 0.000000 0.000000
# 3 -0.003215 -0.003215 0.011758 0.000000 0.000000 0.000000
# 4 0.000000 0.000000 0.000000 0.073993 0.000000 0.000000
# 5 0.000000 0.000000 0.000000 0.000000 0.073994 0.000000
# 6 0.000000 0.000000 0.000000 0.000000 0.000000 0.045766
#
#
# Mechanical properties :
#
#
# Convention : Reuss Voigt Hill
#
# Bulk Modulus (GPa) = 54.93713 55.09863 55.01788
# Shear Modulus (GPa) = 17.05196 19.22073 18.13635
#
# Velocity S-wave (km/s) = 3.36139 3.56875 3.46662
# Velocity P-wave (km/s) = 7.17409 7.31373 7.24424
#
# Compressibility (1/GPa) = 0.01820262
#
# Stress axis : x y z
#
# Youngs Moduli (GPa) = 45.40926 45.40877 85.04718
#
# Poissons Ratio (x) = 0.56173 0.27340
# Poissons Ratio (y) = 0.56173 0.27340
# Poissons Ratio (z) = 0.14598 0.14597
#
# Static dielectric constant tensor:
#      x y z
#    x 2.682710 0.000000 0.000000 
#    y 0.000000 2.682700 0.000000 
#    z 0.000000 0.000000 3.083980 
# 
# 
# High freq. dielectric constant tensor:
#      x y z
#    x 1.549280 0.000000 0.000000 
#    y 0.000000 1.549280 0.000000 
#    z 0.000000 0.000000 1.581490 
# 
# From -- ./inp_files/6623.got.cif
#   From: 2010.03.12/outbox.cif.g09.slc.cpg/sg123_4_cif.got.tgz:6623.got - 2010.04.06 16:26:55.
