data_PCOD8312013
_publ_section_title
;
Structure prediction by ZEFSAII (Michael W. Deem and Ramdas Pophale) SiO2 
 PCOD8312013
Probable space group: I -4 2 D
;
_chemical_formula_sum "Si O2"
_cell_formula_units_Z 72
_cell_length_a 16.435473
_cell_length_b 16.435473
_cell_length_c 14.394719
_cell_angle_alpha 90.000000
_cell_angle_beta 90.000000
_cell_angle_gamma 90.000000
_cell_volume 3888.370198
_symmetry_space_group_name_H-M "I -4 2 D"
_symmetry_group_IT_number 122
_symmetry_cell_setting 'tetragonal'
loop_
_space_group_symop_operation_xyz
x,y,z
y,-x,-z
-x,-y,z
-y,x,-z
x,1/2-y,1/4-z
-x,1/2+y,1/4-z
-y,1/2-x,1/4+z
y,1/2+x,1/4+z
1/2+x,1/2+y,1/2+z
1/2+y,1/2-x,1/2-z
1/2-x,1/2-y,1/2+z
1/2-y,1/2+x,1/2-z
1/2+x,-y,3/4-z
1/2-x,y,3/4-z
1/2-y,-x,3/4+z
1/2+y,x,3/4+z
loop_
_atom_site_type_symbol
_atom_site_label
_atom_site_fract_x
_atom_site_fract_y
_atom_site_fract_z
Si Si1 0.262743 0.516813 0.774363
Si Si2 0.671331 0.750000 0.125000
Si Si3 0.041756 0.619855 0.226765
Si Si4 0.779668 0.573838 0.594636
Si Si5 0.434368 0.930390 0.528516
O O1 0.250000 0.472338 0.875000
O O2 0.233591 0.611481 0.785962
O O3 0.215513 0.469896 0.694026
O O4 0.356257 0.516588 0.745822
O O5 0.727397 0.828643 0.108086
O O6 0.093343 0.552642 0.283018
O O7 0.046766 0.705621 0.279138
O O8 0.077236 0.622522 0.122545
O O9 0.865381 0.546665 0.551203
O O10 0.500000 0.000000 0.540895
#
# Coordination Sequence:
#
# PCOD8312013 Si02
#       5
#    16   8  16  16  16
#     4   9  20  41  59  82 126 162 196 256 305 360
#     4   8  22  40  58  88 124 152 208 254 298 366
#     4  11  20  39  63  88 128 161 203 262 313 367
#     4  11  21  40  64  88 125 163 207 253 315 368
#     4  11  21  39  61  92 122 158 205 255 310 375
#
# _framework density 18.516755
#
# number of rings (size 3 to 8) (size 9 to 14) (size 15 to 20)
#    0.667    1.111    4.444    0.667    0.000    1.778 
#    8.000    4.444    0.000    0.000    0.000    0.000 
#    0.000    0.000    0.000    0.000    0.000    0.000 
#
# Total GULP energy -446089.027572 kJ/mol
# GULP energy per Si atom -12391.361877 kJ/mol
# Density = 1.847461 g / cm^3
# Si number density = 18.516755 Si / 1000 Ang^3
#
#
#
# Elastic Constant Matrix: (Units=GPa)
#
#
# Indices 1 2 3 4 5 6 
#
# 1 65.7196 29.0350 35.5763 0.0000 0.0000 0.0000
# 2 29.0350 65.7196 35.5763 0.0000 0.0000 0.0000
# 3 35.5763 35.5763 149.0191 0.0000 0.0000 0.0000
# 4 0.0000 0.0000 0.0000 26.7764 0.0000 0.0000
# 5 0.0000 0.0000 0.0000 0.0000 26.7764 0.0000
# 6 0.0000 0.0000 0.0000 0.0000 0.0000 24.2004
#
#
#
# Elastic Compliance Matrix: (Units=1/GPa)
#
#
# Indices 1 2 3 4 5 6 
#
# 1 0.020059 -0.007200 -0.003070 0.000000 0.000000 0.000000
# 2 -0.007200 0.020059 -0.003070 0.000000 0.000000 0.000000
# 3 -0.003070 -0.003070 0.008176 0.000000 0.000000 0.000000
# 4 0.000000 0.000000 0.000000 0.037346 0.000000 0.000000
# 5 0.000000 0.000000 0.000000 0.000000 0.037346 0.000000
# 6 0.000000 0.000000 0.000000 0.000000 0.000000 0.041322
#
#
# Mechanical properties :
#
#
# Convention : Reuss Voigt Hill
#
# Bulk Modulus (GPa) = 46.26533 53.42591 49.84562
# Shear Modulus (GPa) = 25.22785 27.56869 26.39827
#
# Velocity S-wave (km/s) = 3.69512 3.86275 3.77986
# Velocity P-wave (km/s) = 6.57610 6.98640 6.78435
#
# Compressibility (1/GPa) = 0.02161446
#
# Stress axis : x y z
#
# Youngs Moduli (GPa) = 49.85270 49.85270 122.30440
#
# Poissons Ratio (x) = 0.35895 0.37546
# Poissons Ratio (y) = 0.35895 0.37546
# Poissons Ratio (z) = 0.15304 0.15304
#
# Static dielectric constant tensor:
#      x y z
#    x 3.278900 0.000000 0.000000 
#    y 0.000000 3.278900 0.000000 
#    z 0.000000 0.000000 3.609870 
# 
# 
# High freq. dielectric constant tensor:
#      x y z
#    x 1.708150 0.000000 0.000000 
#    y 0.000000 1.708150 0.000000 
#    z 0.000000 0.000000 1.727840 
# 
# From -- ./inp_files/4190.got.cif
#   From: 2010.03.12/outbox.cif.g09.slc.cpg/sg122_3_cif.got.tgz:4190.got - 2010.04.06 16:17:16.
