data_PCOD8312542
_publ_section_title
;
Structure prediction by ZEFSAII (Michael W. Deem and Ramdas Pophale) SiO2 
 PCOD8312542
Probable space group: P 4/M M M
;
_chemical_formula_sum "Si O2"
_cell_formula_units_Z 80
_cell_length_a 12.789397
_cell_length_b 12.789397
_cell_length_c 28.579216
_cell_angle_alpha 90.000000
_cell_angle_beta 90.000000
_cell_angle_gamma 90.000000
_cell_volume 4674.664511
_symmetry_space_group_name_H-M "P 4/M M M"
_symmetry_group_IT_number 123
_symmetry_cell_setting 'tetragonal'
loop_
_space_group_symop_operation_xyz
x,y,z
-y,x,z
-x,-y,z
y,-x,z
x,-y,-z
-x,y,-z
y,x,-z
-y,-x,-z
-x,-y,-z
y,-x,-z
x,y,-z
-y,x,-z
-x,y,z
x,-y,z
-y,-x,z
y,x,z
loop_
_atom_site_type_symbol
_atom_site_label
_atom_site_fract_x
_atom_site_fract_y
_atom_site_fract_z
Si Si1 0.377543 0.117036 0.268612
Si Si2 0.831037 0.000000 0.055341
Si Si3 0.282904 0.881878 0.635618
Si Si4 0.211221 0.620441 0.171385
Si Si5 0.000000 0.379623 0.886859
Si Si6 0.787594 0.381857 0.448156
O O1 0.500000 0.111043 0.275385
O O2 0.331107 0.164515 0.316484
O O3 0.348797 0.191048 0.225253
O O4 0.334129 0.000000 0.259034
O O5 0.712148 0.000000 0.074510
O O6 0.896439 0.103562 0.071389
O O7 0.820506 0.000000 0.000000
O O8 0.177684 0.822317 0.622447
O O9 0.362072 0.874068 0.591752
O O10 0.251822 0.000000 0.643973
O O11 0.248817 0.500000 0.166432
O O12 0.302946 0.697055 0.152204
O O13 0.103461 0.636891 0.143781
O O14 0.000000 0.500000 0.907434
O O15 0.833577 0.355987 0.500000
O O16 0.749448 0.500000 0.445694
O O17 0.685909 0.314092 0.436771
#
# Coordination Sequence:
#
# PCOD8312542 Si02
#       6
#    16   8  16  16   8  16
#     4   9  16  29  48  69  91 117 155 195 233 281
#     4   9  18  33  53  77 105 136 169 208 256 304
#     4  10  20  32  47  66  88 119 154 189 231 273
#     4  10  19  31  48  70  98 131 166 206 248 293
#     4  10  19  32  50  74 101 134 174 210 248 290
#     4   9  18  32  49  70  93 113 138 175 221 277
#
# _framework density 17.113527999999999
#
# number of rings (size 3 to 8) (size 9 to 14) (size 15 to 20)
#    0.000    2.500    1.000    2.100    0.000    2.400 
#    0.000    2.000    0.000    0.000    0.000    5.600 
#    0.000    0.000    0.000   18.600    0.000    0.000 
#
# Total GULP energy -991394.641335 kJ/mol
# GULP energy per Si atom -12392.433017 kJ/mol
# Density = 1.707458 g / cm^3
# Si number density = 17.113528 Si / 1000 Ang^3
#
#
#
# Elastic Constant Matrix: (Units=GPa)
#
#
# Indices 1 2 3 4 5 6 
#
# 1 86.6628 46.3070 34.8514 0.0000 0.0000 0.0000
# 2 46.3070 86.6628 34.8514 0.0000 0.0000 0.0000
# 3 34.8514 34.8514 68.8405 0.0000 0.0000 0.0000
# 4 0.0000 0.0000 0.0000 23.4581 0.0000 0.0000
# 5 0.0000 0.0000 0.0000 0.0000 23.4581 0.0000
# 6 0.0000 0.0000 0.0000 0.0000 0.0000 22.2824
#
#
#
# Elastic Compliance Matrix: (Units=1/GPa)
#
#
# Indices 1 2 3 4 5 6 
#
# 1 0.017508 -0.007271 -0.005183 0.000000 0.000000 0.000000
# 2 -0.007271 0.017508 -0.005183 0.000000 0.000000 0.000000
# 3 -0.005183 -0.005183 0.019774 0.000000 0.000000 0.000000
# 4 0.000000 0.000000 0.000000 0.042629 0.000000 0.000000
# 5 0.000000 0.000000 0.000000 0.000000 0.042629 0.000000
# 6 0.000000 0.000000 0.000000 0.000000 0.000000 0.044879
#
#
# Mechanical properties :
#
#
# Convention : Reuss Voigt Hill
#
# Bulk Modulus (GPa) = 51.23589 52.68728 51.96159
# Shear Modulus (GPa) = 22.05489 22.25013 22.15251
#
# Velocity S-wave (km/s) = 3.59380 3.60967 3.60174
# Velocity P-wave (km/s) = 6.87200 6.94454 6.90837
#
# Compressibility (1/GPa) = 0.01951757
#
# Stress axis : x y z
#
# Youngs Moduli (GPa) = 57.11532 57.11532 50.57140
#
# Poissons Ratio (x) = 0.41529 0.26210
# Poissons Ratio (y) = 0.41529 0.26210
# Poissons Ratio (z) = 0.29602 0.29602
#
# Static dielectric constant tensor:
#      x y z
#    x 3.123230 0.000000 0.000000 
#    y 0.000000 3.123230 0.000000 
#    z 0.000000 0.000000 3.248190 
# 
# 
# High freq. dielectric constant tensor:
#      x y z
#    x 1.651890 0.000000 0.000000 
#    y 0.000000 1.651890 0.000000 
#    z 0.000000 0.000000 1.655900 
# 
# From -- ./inp_files/8384.got.cif
#   From: 2010.03.12/outbox.cif.g09.slc.cpg/sg123_5_cif.got.tgz:8384.got - 2010.04.06 16:26:55.
