data_PCOD8312000
_publ_section_title
;
Structure prediction by ZEFSAII (Michael W. Deem and Ramdas Pophale) SiO2 
 PCOD8312000
Probable space group: I -4 2 D
;
_chemical_formula_sum "Si O2"
_cell_formula_units_Z 64
_cell_length_a 11.194566
_cell_length_b 11.194566
_cell_length_c 26.129270
_cell_angle_alpha 90.000000
_cell_angle_beta 90.000000
_cell_angle_gamma 90.000000
_cell_volume 3274.475904
_symmetry_space_group_name_H-M "I -4 2 D"
_symmetry_group_IT_number 122
_symmetry_cell_setting 'tetragonal'
loop_
_space_group_symop_operation_xyz
x,y,z
y,-x,-z
-x,-y,z
-y,x,-z
x,1/2-y,1/4-z
-x,1/2+y,1/4-z
-y,1/2-x,1/4+z
y,1/2+x,1/4+z
1/2+x,1/2+y,1/2+z
1/2+y,1/2-x,1/2-z
1/2-x,1/2-y,1/2+z
1/2-y,1/2+x,1/2-z
1/2+x,-y,3/4-z
1/2-x,y,3/4-z
1/2-y,-x,3/4+z
1/2+y,x,3/4+z
loop_
_atom_site_type_symbol
_atom_site_label
_atom_site_fract_x
_atom_site_fract_y
_atom_site_fract_z
Si Si1 0.212401 0.891912 0.275927
Si Si2 0.051667 0.750000 0.625000
Si Si3 0.307860 0.332655 0.670852
Si Si4 0.500000 0.000000 0.527487
Si Si5 0.364829 0.966473 0.179705
O O1 0.245734 0.752617 0.286175
O O2 0.304427 0.940883 0.234056
O O3 0.077808 0.908181 0.256084
O O4 0.220508 0.969725 0.326874
O O5 0.141134 0.642450 0.639704
O O6 0.354152 0.250000 0.625000
O O7 0.418629 0.411543 0.689280
O O8 0.201933 0.422101 0.652657
O O9 0.500000 0.000000 0.190871
#
# Coordination Sequence:
#
# PCOD8312000 Si02
#       5
#    16   8  16   8  16
#     4  11  23  40  64  97 132 168 214 278 333 403
#     4  12  24  34  68 102 132 168 210 266 364 398
#     4  11  23  43  65  90 127 173 219 268 317 394
#     4  10  26  44  62  92 138 172 216 268 324 390
#     4  11  22  38  62 102 134 163 209 280 348 407
#
# _framework density 19.545114000000002
#
# number of rings (size 3 to 8) (size 9 to 14) (size 15 to 20)
#    0.000    1.000    3.750    3.000    8.750    0.000 
#    9.000    0.000    0.000    0.000    0.000    0.000 
#    0.000    0.000    0.000    0.000    0.000    0.000 
#
# Total GULP energy -396658.757873 kJ/mol
# GULP energy per Si atom -12395.586184 kJ/mol
# Density = 1.950063 g / cm^3
# Si number density = 19.545114 Si / 1000 Ang^3
#
#
#
# Elastic Constant Matrix: (Units=GPa)
#
#
# Indices 1 2 3 4 5 6 
#
# 1 142.0560 63.8479 56.6614 0.0000 0.0000 0.0000
# 2 63.8479 142.0560 56.6614 0.0000 0.0000 0.0000
# 3 56.6614 56.6614 107.4860 0.0000 0.0000 0.0000
# 4 0.0000 0.0000 0.0000 18.9818 0.0000 0.0000
# 5 0.0000 0.0000 0.0000 0.0000 18.9818 0.0000
# 6 0.0000 0.0000 0.0000 0.0000 0.0000 40.1252
#
#
#
# Elastic Compliance Matrix: (Units=1/GPa)
#
#
# Indices 1 2 3 4 5 6 
#
# 1 0.009814 -0.002972 -0.003607 0.000000 0.000000 0.000000
# 2 -0.002972 0.009814 -0.003607 0.000000 0.000000 0.000000
# 3 -0.003607 -0.003607 0.013106 0.000000 0.000000 0.000000
# 4 0.000000 0.000000 0.000000 0.052682 0.000000 0.000000
# 5 0.000000 0.000000 0.000000 0.000000 0.052682 0.000000
# 6 0.000000 0.000000 0.000000 0.000000 0.000000 0.024922
#
#
# Mechanical properties :
#
#
# Convention : Reuss Voigt Hill
#
# Bulk Modulus (GPa) = 80.88727 82.88215 81.88471
# Shear Modulus (GPa) = 26.66500 29.91293 28.28897
#
# Velocity S-wave (km/s) = 3.69762 3.91635 3.80856
# Velocity P-wave (km/s) = 7.72688 7.93398 7.83111
#
# Compressibility (1/GPa) = 0.01236288
#
# Stress axis : x y z
#
# Youngs Moduli (GPa) = 101.89549 101.89548 76.30147
#
# Poissons Ratio (x) = 0.30288 0.27518
# Poissons Ratio (y) = 0.30288 0.27518
# Poissons Ratio (z) = 0.36749 0.36749
#
# Static dielectric constant tensor:
#      x y z
#    x 3.932130 0.000000 0.000000 
#    y 0.000000 3.932130 0.000000 
#    z 0.000000 0.000000 3.575870 
# 
# 
# High freq. dielectric constant tensor:
#      x y z
#    x 1.760450 0.000000 0.000000 
#    y 0.000000 1.760450 0.000000 
#    z 0.000000 0.000000 1.758440 
# 
# From -- ./inp_files/7907.got.cif
#   From: 2010.03.12/outbox.cif.g09.slc.cpg/sg122_4_cif.got.tgz:7907.got - 2010.04.06 16:17:16.
