data_PCOD8312607
_publ_section_title
;
Structure prediction by ZEFSAII (Michael W. Deem and Ramdas Pophale) SiO2 
 PCOD8312607
Probable space group: P 4/M M M
;
_chemical_formula_sum "Si O2"
_cell_formula_units_Z 80
_cell_length_a 12.281164
_cell_length_b 12.281164
_cell_length_c 31.214367
_cell_angle_alpha 90.000000
_cell_angle_beta 90.000000
_cell_angle_gamma 90.000000
_cell_volume 4707.968994
_symmetry_space_group_name_H-M "P 4/M M M"
_symmetry_group_IT_number 123
_symmetry_cell_setting 'tetragonal'
loop_
_space_group_symop_operation_xyz
x,y,z
-y,x,z
-x,-y,z
y,-x,z
x,-y,-z
-x,y,-z
y,x,-z
-y,-x,-z
-x,-y,-z
y,-x,-z
x,y,-z
-y,x,-z
-x,y,z
x,-y,z
-y,-x,z
y,x,z
loop_
_atom_site_type_symbol
_atom_site_label
_atom_site_fract_x
_atom_site_fract_y
_atom_site_fract_z
Si Si1 0.804314 0.626387 0.800652
Si Si2 0.870624 0.500000 0.048140
Si Si3 0.000000 0.629740 0.645602
Si Si4 0.000000 0.629329 0.257925
Si Si5 0.697741 0.126040 0.500000
Si Si6 0.873622 0.695678 0.106773
Si Si7 0.376327 0.199368 0.589870
O O1 0.775942 0.500000 0.793543
O O2 0.693243 0.693243 0.795041
O O3 0.891519 0.670316 0.766064
O O4 0.857146 0.642892 0.846934
O O5 0.829783 0.608447 0.072195
O O6 0.000000 0.500000 0.048388
O O7 0.823433 0.500000 0.000000
O O8 0.106860 0.672620 0.621080
O O9 0.000000 0.500000 0.644570
O O10 0.000000 0.675817 0.693866
O O11 0.000000 0.500000 0.257507
O O12 0.812874 0.187127 0.500000
O O13 0.627233 0.157812 0.458788
O O14 0.725679 0.000000 0.500000
O O15 0.806732 0.806732 0.101140
O O16 0.000000 0.724134 0.099663
O O17 0.500000 0.227483 0.601945
O O18 0.308410 0.308410 0.596796
#
# Coordination Sequence:
#
# PCOD8312607 Si02
#       7
#    16   8   8   8   8  16  16
#     4  10  19  32  52  77 103 134 170 212 258 307
#     4   9  18  32  52  75 101 135 173 210 247 295
#     4   9  18  33  52  74  98 132 176 213 250 302
#     4   9  18  32  53  75  98 132 170 212 258 306
#     4  10  19  32  52  78 104 137 176 215 262 308
#     4  10  19  32  52  76 104 136 172 213 257 302
#     4  10  20  33  52  77 106 138 173 214 258 307
#
# _framework density 16.992466
#
# number of rings (size 3 to 8) (size 9 to 14) (size 15 to 20)
#    0.000    2.300    3.000    0.300    0.000    2.300 
#    0.000    0.000    0.000    2.700    0.000   10.500 
#    0.000    0.000    0.000    0.000    0.000    0.000 
#
# Total GULP energy -992068.727685 kJ/mol
# GULP energy per Si atom -12400.859096 kJ/mol
# Density = 1.695379 g / cm^3
# Si number density = 16.992466 Si / 1000 Ang^3
#
#
#
# Elastic Constant Matrix: (Units=GPa)
#
#
# Indices 1 2 3 4 5 6 
#
# 1 95.8995 52.2161 39.5246 0.0000 0.0000 0.0000
# 2 52.2161 95.8990 39.5249 0.0000 0.0000 0.0000
# 3 39.5246 39.5249 135.7765 0.0000 0.0000 0.0000
# 4 0.0000 0.0000 0.0000 11.2776 0.0000 0.0000
# 5 0.0000 0.0000 0.0000 0.0000 11.2776 0.0000
# 6 0.0000 0.0000 0.0000 0.0000 0.0000 9.2707
#
#
#
# Elastic Compliance Matrix: (Units=1/GPa)
#
#
# Indices 1 2 3 4 5 6 
#
# 1 0.015443 -0.007449 -0.002327 0.000000 0.000000 0.000000
# 2 -0.007449 0.015443 -0.002327 0.000000 0.000000 0.000000
# 3 -0.002327 -0.002327 0.008720 0.000000 0.000000 0.000000
# 4 0.000000 0.000000 0.000000 0.088671 0.000000 0.000000
# 5 0.000000 0.000000 0.000000 0.000000 0.088671 0.000000
# 6 0.000000 0.000000 0.000000 0.000000 0.000000 0.107866
#
#
# Mechanical properties :
#
#
# Convention : Reuss Voigt Hill
#
# Bulk Modulus (GPa) = 64.93945 65.56735 65.25340
# Shear Modulus (GPa) = 14.11820 19.45250 16.78535
#
# Velocity S-wave (km/s) = 2.88557 3.38712 3.14636
# Velocity P-wave (km/s) = 7.02863 7.34620 7.18917
#
# Compressibility (1/GPa) = 0.01539896
#
# Stress axis : x y z
#
# Youngs Moduli (GPa) = 64.75557 64.75505 114.68212
#
# Poissons Ratio (x) = 0.48239 0.26685
# Poissons Ratio (y) = 0.48239 0.26686
# Poissons Ratio (z) = 0.15068 0.15068
#
# Static dielectric constant tensor:
#      x y z
#    x 3.000700 0.000000 0.000000 
#    y 0.000000 3.000700 0.000000 
#    z 0.000000 0.000000 3.433290 
# 
# 
# High freq. dielectric constant tensor:
#      x y z
#    x 1.642460 0.000000 0.000000 
#    y 0.000000 1.642460 0.000000 
#    z 0.000000 0.000000 1.663760 
# 
# From -- ./inp_files/8425.got.cif
#   From: 2010.03.12/outbox.cif.g09.slc.cpg/sg123_5_cif.got.tgz:8425.got - 2010.04.06 16:26:55.
