data_PCOD8312334
_publ_section_title
;
Structure prediction by ZEFSAII (Michael W. Deem and Ramdas Pophale) SiO2 
 PCOD8312334
Probable space group: P 4/M M M
;
_chemical_formula_sum "Si O2"
_cell_formula_units_Z 96
_cell_length_a 14.147995
_cell_length_b 14.147995
_cell_length_c 30.031154
_cell_angle_alpha 90.000000
_cell_angle_beta 90.000000
_cell_angle_gamma 90.000000
_cell_volume 6011.208840
_symmetry_space_group_name_H-M "P 4/M M M"
_symmetry_group_IT_number 123
_symmetry_cell_setting 'tetragonal'
loop_
_space_group_symop_operation_xyz
x,y,z
-y,x,z
-x,-y,z
y,-x,z
x,-y,-z
-x,y,-z
y,x,-z
-y,-x,-z
-x,-y,-z
y,-x,-z
x,y,-z
-y,x,-z
-x,y,z
x,-y,z
-y,-x,z
y,x,z
loop_
_atom_site_type_symbol
_atom_site_label
_atom_site_fract_x
_atom_site_fract_y
_atom_site_fract_z
Si Si1 0.761023 0.608235 0.551957
Si Si2 0.258931 0.107475 0.708812
Si Si3 0.235841 0.388213 0.128958
Si Si4 0.390740 0.108080 0.788129
Si Si5 0.894653 0.612103 0.950413
Si Si6 0.109643 0.736475 0.607465
O O1 0.784210 0.615729 0.500000
O O2 0.745361 0.500000 0.566679
O O3 0.665823 0.665823 0.564053
O O4 0.850598 0.651380 0.577639
O O5 0.165083 0.165083 0.718876
O O6 0.339809 0.140042 0.742849
O O7 0.295638 0.123252 0.658602
O O8 0.230029 0.000000 0.716866
O O9 0.254884 0.500000 0.127179
O O10 0.336650 0.336650 0.131177
O O11 0.174051 0.358387 0.171469
O O12 0.179964 0.350260 0.085581
O O13 0.500000 0.121403 0.778034
O O14 0.367267 0.000000 0.801208
O O15 0.898676 0.500000 0.947190
O O16 0.000000 0.651817 0.940190
O O17 0.862545 0.643712 0.000000
O O18 0.166372 0.833629 0.597726
O O19 0.000000 0.754243 0.595723
#
# Coordination Sequence:
#
# PCOD8312334 Si02
#       6
#    16  16  16  16  16  16
#     4   9  18  32  49  69  92 117 146 182 224 268
#     4   9  17  29  45  65  89 115 142 174 213 258
#     4  10  19  29  42  60  84 115 146 174 206 246
#     4   9  17  29  45  64  84 107 139 180 223 260
#     4   8  14  26  44  63  81 102 131 170 213 249
#     4   9  18  31  46  66  92 121 152 184 218 259
#
# _framework density 15.970166000000001
#
# number of rings (size 3 to 8) (size 9 to 14) (size 15 to 20)
#    0.000    3.000    0.000    1.500    0.000    4.333 
#    0.000    5.000    0.000    0.000    0.000    4.667 
#    0.000    7.000    0.000    7.333    0.000    0.667 
#
# Total GULP energy -1190159.007766 kJ/mol
# GULP energy per Si atom -12397.489664 kJ/mol
# Density = 1.593382 g / cm^3
# Si number density = 15.970166 Si / 1000 Ang^3
#
#
#
# Elastic Constant Matrix: (Units=GPa)
#
#
# Indices 1 2 3 4 5 6 
#
# 1 86.1826 49.6540 54.0991 0.0000 0.0000 0.0000
# 2 49.6540 86.1826 54.0991 0.0000 0.0000 0.0000
# 3 54.0991 54.0991 86.9500 0.0000 0.0000 0.0000
# 4 0.0000 0.0000 0.0000 23.4237 0.0000 0.0000
# 5 0.0000 0.0000 0.0000 0.0000 23.4237 0.0000
# 6 0.0000 0.0000 0.0000 0.0000 0.0000 20.2364
#
#
#
# Elastic Compliance Matrix: (Units=1/GPa)
#
#
# Indices 1 2 3 4 5 6 
#
# 1 0.020985 -0.006390 -0.009081 0.000000 0.000000 0.000000
# 2 -0.006390 0.020985 -0.009081 0.000000 0.000000 0.000000
# 3 -0.009081 -0.009081 0.022801 0.000000 0.000000 0.000000
# 4 0.000000 0.000000 0.000000 0.042692 0.000000 0.000000
# 5 0.000000 0.000000 0.000000 0.000000 0.042692 0.000000
# 6 0.000000 0.000000 0.000000 0.000000 0.000000 0.049416
#
#
# Mechanical properties :
#
#
# Convention : Reuss Voigt Hill
#
# Bulk Modulus (GPa) = 63.82637 63.89105 63.85871
# Shear Modulus (GPa) = 19.69302 20.18098 19.93700
#
# Velocity S-wave (km/s) = 3.51538 3.55867 3.53709
# Velocity P-wave (km/s) = 7.51864 7.54843 7.53355
#
# Compressibility (1/GPa) = 0.01566751
#
# Stress axis : x y z
#
# Youngs Moduli (GPa) = 47.65228 47.65228 43.85842
#
# Poissons Ratio (x) = 0.30452 0.39827
# Poissons Ratio (y) = 0.30452 0.39827
# Poissons Ratio (z) = 0.43272 0.43272
#
# Static dielectric constant tensor:
#      x y z
#    x 2.928010 0.000000 0.000000 
#    y 0.000000 2.928010 0.000000 
#    z 0.000000 0.000000 3.240750 
# 
# 
# High freq. dielectric constant tensor:
#      x y z
#    x 1.599290 0.000000 0.000000 
#    y 0.000000 1.599290 0.000000 
#    z 0.000000 0.000000 1.623180 
# 
# From -- ./inp_files/8577.got.cif
#   From: 2010.03.12/outbox.cif.g09.slc.cpg/sg123_5_cif.got.tgz:8577.got - 2010.04.06 16:26:55.
