data_PCOD8312257
_publ_section_title
;
Structure prediction by ZEFSAII (Michael W. Deem and Ramdas Pophale) SiO2 
 PCOD8312257
Probable space group: P 4/M M M
;
_chemical_formula_sum "Si O2"
_cell_formula_units_Z 88
_cell_length_a 18.283137
_cell_length_b 18.283137
_cell_length_c 15.656527
_cell_angle_alpha 90.000000
_cell_angle_beta 90.000000
_cell_angle_gamma 90.000000
_cell_volume 5233.555793
_symmetry_space_group_name_H-M "P 4/M M M"
_symmetry_group_IT_number 123
_symmetry_cell_setting 'tetragonal'
loop_
_space_group_symop_operation_xyz
x,y,z
-y,x,z
-x,-y,z
y,-x,z
x,-y,-z
-x,y,-z
y,x,-z
-y,-x,-z
-x,-y,-z
y,-x,-z
x,y,-z
-y,x,-z
-x,y,z
x,-y,z
-y,-x,z
y,x,z
loop_
_atom_site_type_symbol
_atom_site_label
_atom_site_fract_x
_atom_site_fract_y
_atom_site_fract_z
Si Si1 0.862912 0.627320 0.819699
Si Si2 0.418831 0.296777 0.762670
Si Si3 0.142967 0.263806 0.316685
Si Si4 0.246212 0.633990 0.593044
Si Si5 0.000000 0.578767 0.716115
Si Si6 0.414167 0.086325 0.000000
Si Si7 0.000000 0.281635 0.398821
O O1 0.780821 0.596515 0.807162
O O2 0.868020 0.709938 0.781391
O O3 0.927138 0.581223 0.774443
O O4 0.878105 0.627143 0.919940
O O5 0.500000 0.324634 0.789228
O O6 0.357408 0.357408 0.788352
O O7 0.420534 0.284471 0.659989
O O8 0.197136 0.197136 0.318515
O O9 0.170307 0.336097 0.368044
O O10 0.069548 0.237223 0.363227
O O11 0.233627 0.596059 0.500000
O O12 0.295298 0.704703 0.580124
O O13 0.000000 0.637673 0.641292
O O14 0.000000 0.500000 0.670713
O O15 0.500000 0.106908 0.000000
O O16 0.402784 0.000000 0.000000
O O17 0.000000 0.285733 0.500000
#
# Coordination Sequence:
#
# PCOD8312257 Si02
#       7
#    16  16  16  16   8   8   8
#     4  10  19  33  51  75 101 131 166 197 241 307
#     4  10  20  33  48  66  93 130 174 221 261 295
#     4   9  18  33  50  69  99 135 169 208 251 297
#     4   8  14  26  45  66  88 119 158 201 251 302
#     4  10  18  30  48  70 106 140 159 191 241 309
#     4  11  20  30  51  82 113 136 153 182 238 310
#     4  10  20  29  45  74  98 128 172 210 251 300
#
# _framework density 16.814571000000001
#
# number of rings (size 3 to 8) (size 9 to 14) (size 15 to 20)
#    0.000    2.455    0.909    3.818    0.000    1.818 
#    0.000    1.818    0.000    6.818    0.000    3.182 
#    0.000    2.182    0.000    0.818    0.000    0.000 
#
# Total GULP energy -1090332.769950 kJ/mol
# GULP energy per Si atom -12390.145113 kJ/mol
# Density = 1.677630 g / cm^3
# Si number density = 16.814571 Si / 1000 Ang^3
#
#
#
# Elastic Constant Matrix: (Units=GPa)
#
#
# Indices 1 2 3 4 5 6 
#
# 1 97.9618 47.6072 38.8945 0.0000 0.0000 0.0000
# 2 47.6072 97.9618 38.8945 0.0000 0.0000 0.0000
# 3 38.8945 38.8945 128.3349 0.0000 0.0000 0.0000
# 4 0.0000 0.0000 0.0000 15.4782 0.0000 0.0000
# 5 0.0000 0.0000 0.0000 0.0000 15.4782 0.0000
# 6 0.0000 0.0000 0.0000 0.0000 0.0000 12.4488
#
#
#
# Elastic Compliance Matrix: (Units=1/GPa)
#
#
# Indices 1 2 3 4 5 6 
#
# 1 0.014028 -0.005831 -0.002484 0.000000 0.000000 0.000000
# 2 -0.005831 0.014028 -0.002484 0.000000 0.000000 0.000000
# 3 -0.002484 -0.002484 0.009298 0.000000 0.000000 0.000000
# 4 0.000000 0.000000 0.000000 0.064607 0.000000 0.000000
# 5 0.000000 0.000000 0.000000 0.000000 0.064607 0.000000
# 6 0.000000 0.000000 0.000000 0.000000 0.000000 0.080329
#
#
# Mechanical properties :
#
#
# Convention : Reuss Voigt Hill
#
# Bulk Modulus (GPa) = 63.47186 63.89455 63.68321
# Shear Modulus (GPa) = 18.26499 21.93855 20.10177
#
# Velocity S-wave (km/s) = 3.29942 3.61603 3.46135
# Velocity P-wave (km/s) = 7.23498 7.45092 7.34375
#
# Compressibility (1/GPa) = 0.01575501
#
# Stress axis : x y z
#
# Youngs Moduli (GPa) = 71.28524 71.28524 107.55047
#
# Poissons Ratio (x) = 0.41566 0.26719
# Poissons Ratio (y) = 0.41566 0.26719
# Poissons Ratio (z) = 0.17710 0.17710
#
# Static dielectric constant tensor:
#      x y z
#    x 3.077550 0.000000 0.000000 
#    y 0.000000 3.077550 0.000000 
#    z 0.000000 0.000000 3.248140 
# 
# 
# High freq. dielectric constant tensor:
#      x y z
#    x 1.633750 0.000000 0.000000 
#    y 0.000000 1.633750 0.000000 
#    z 0.000000 0.000000 1.639550 
# 
# From -- ./inp_files/4143.got.cif
#   From: 2010.03.12/outbox.cif.g09.slc.cpg/sg123_3_cif.got.tgz:4143.got - 2010.04.06 16:26:55.
