data_PCOD8312593
_publ_section_title
;
Structure prediction by ZEFSAII (Michael W. Deem and Ramdas Pophale) SiO2 
 PCOD8312593
Probable space group: P 4/M M M
;
_chemical_formula_sum "Si O2"
_cell_formula_units_Z 64
_cell_length_a 22.270266
_cell_length_b 22.270266
_cell_length_c 7.636980
_cell_angle_alpha 90.000000
_cell_angle_beta 90.000000
_cell_angle_gamma 90.000000
_cell_volume 3787.672859
_symmetry_space_group_name_H-M "P 4/M M M"
_symmetry_group_IT_number 123
_symmetry_cell_setting 'tetragonal'
loop_
_space_group_symop_operation_xyz
x,y,z
-y,x,z
-x,-y,z
y,-x,z
x,-y,-z
-x,y,-z
y,x,-z
-y,-x,-z
-x,-y,-z
y,-x,-z
x,y,-z
-y,x,-z
-x,y,z
x,-y,z
-y,-x,z
y,x,z
loop_
_atom_site_type_symbol
_atom_site_label
_atom_site_fract_x
_atom_site_fract_y
_atom_site_fract_z
Si Si1 0.431183 0.104700 0.701379
Si Si2 0.655363 0.934098 0.000000
Si Si3 0.717661 0.188920 0.000000
Si Si4 0.776634 0.366134 0.692510
Si Si5 0.432863 0.662135 0.797419
O O1 0.419417 0.085150 0.500000
O O2 0.500000 0.091389 0.753912
O O3 0.386258 0.069118 0.827766
O O4 0.418839 0.175313 0.729583
O O5 0.708377 0.883549 0.000000
O O6 0.686213 0.000000 0.000000
O O7 0.687224 0.217401 0.170213
O O8 0.787581 0.212420 0.000000
O O9 0.787328 0.338119 0.500000
O O10 0.711499 0.395412 0.694047
O O11 0.500000 0.658122 0.722148
O O12 0.402504 0.597497 0.768324
O O13 0.432902 0.680724 0.000000
#
# Coordination Sequence:
#
# PCOD8312593 Si02
#       5
#    16   8   8  16  16
#     4   9  18  31  47  69  96 127 161 193 226 268
#     4  10  21  34  48  69  97 128 159 191 227 265
#     4  10  20  35  53  74  97 120 149 185 223 267
#     4  10  19  32  51  72  93 116 146 189 238 279
#     4  10  20  32  45  61  82 109 143 187 239 292
#
# _framework density 16.896917999999999
#
# number of rings (size 3 to 8) (size 9 to 14) (size 15 to 20)
#    0.000    2.250    1.250    1.875    0.000    5.250 
#    0.000    2.500    0.000    0.000    0.000    1.750 
#    0.000    0.250    0.000    0.000    0.000    0.000 
#
# Total GULP energy -793376.696312 kJ/mol
# GULP energy per Si atom -12396.510880 kJ/mol
# Density = 1.685846 g / cm^3
# Si number density = 16.896918 Si / 1000 Ang^3
#
#
#
# Elastic Constant Matrix: (Units=GPa)
#
#
# Indices 1 2 3 4 5 6 
#
# 1 86.6649 46.3223 25.2613 0.0000 0.0000 0.0000
# 2 46.3223 86.6666 25.2618 0.0000 0.0000 0.0000
# 3 25.2613 25.2618 81.8363 0.0000 0.0000 0.0000
# 4 0.0000 0.0000 0.0000 5.6135 0.0000 0.0000
# 5 0.0000 0.0000 0.0000 0.0000 5.6149 0.0000
# 6 0.0000 0.0000 0.0000 0.0000 0.0000 13.0355
#
#
#
# Elastic Compliance Matrix: (Units=1/GPa)
#
#
# Indices 1 2 3 4 5 6 
#
# 1 0.016653 -0.008134 -0.002629 0.000000 0.000000 0.000000
# 2 -0.008134 0.016653 -0.002630 0.000000 0.000000 0.000000
# 3 -0.002629 -0.002630 0.013843 0.000000 0.000000 0.000000
# 4 0.000000 0.000000 0.000000 0.178140 0.000000 0.000000
# 5 0.000000 0.000000 0.000000 0.000000 0.178098 0.000000
# 6 0.000000 0.000000 0.000000 0.000000 0.000000 0.076714
#
#
# Mechanical properties :
#
#
# Convention : Reuss Voigt Hill
#
# Bulk Modulus (GPa) = 49.11170 49.87317 49.49243
# Shear Modulus (GPa) = 9.73380 15.40761 12.57070
#
# Velocity S-wave (km/s) = 2.40275 3.02298 2.73053
# Velocity P-wave (km/s) = 6.06846 6.46256 6.26861
#
# Compressibility (1/GPa) = 0.02036175
#
# Stress axis : x y z
#
# Youngs Moduli (GPa) = 60.04938 60.05053 72.23925
#
# Poissons Ratio (x) = 0.48847 0.18995
# Poissons Ratio (y) = 0.48846 0.18995
# Poissons Ratio (z) = 0.15790 0.15790
#
# Static dielectric constant tensor:
#      x y z
#    x 2.979960 0.000000 0.000000 
#    y 0.000000 2.979950 0.000000 
#    z 0.000000 0.000000 3.363750 
# 
# 
# High freq. dielectric constant tensor:
#      x y z
#    x 1.618430 0.000000 0.000000 
#    y 0.000000 1.618430 0.000000 
#    z 0.000000 0.000000 1.669500 
# 
# From -- ./inp_files/951.got.cif
#   From: 2010.03.12/outbox.cif.g09.slc.cpg/sg123_1_cif.got.tgz:951.got - 2010.04.06 16:26:55.
