data_PCOD8312741
_publ_section_title
;
Structure prediction by ZEFSAII (Michael W. Deem and Ramdas Pophale) SiO2 
 PCOD8312741
Probable space group: P 4/M M M
;
_chemical_formula_sum "Si O2"
_cell_formula_units_Z 112
_cell_length_a 13.972846
_cell_length_b 13.972846
_cell_length_c 35.677960
_cell_angle_alpha 90.000000
_cell_angle_beta 90.000000
_cell_angle_gamma 90.000000
_cell_volume 6965.780086
_symmetry_space_group_name_H-M "P 4/M M M"
_symmetry_group_IT_number 123
_symmetry_cell_setting 'tetragonal'
loop_
_space_group_symop_operation_xyz
x,y,z
-y,x,z
-x,-y,z
y,-x,z
x,-y,-z
-x,y,-z
y,x,-z
-y,-x,-z
-x,-y,-z
y,-x,-z
x,y,-z
-y,x,-z
-x,y,z
x,-y,z
-y,-x,z
y,x,z
loop_
_atom_site_type_symbol
_atom_site_label
_atom_site_fract_x
_atom_site_fract_y
_atom_site_fract_z
Si Si1 0.612951 0.106326 0.890246
Si Si2 0.389922 0.110994 0.609938
Si Si3 0.771003 0.613992 0.181003
Si Si4 0.610379 0.236203 0.541709
Si Si5 0.111757 0.268187 0.762176
Si Si6 0.234658 0.610006 0.957601
Si Si7 0.261485 0.109041 0.677053
O O1 0.500000 0.095978 0.888975
O O2 0.646244 0.176135 0.857071
O O3 0.645989 0.151211 0.929877
O O4 0.658937 0.000000 0.886139
O O5 0.500000 0.134650 0.616477
O O6 0.350635 0.161816 0.572505
O O7 0.337906 0.149382 0.647280
O O8 0.371187 0.000000 0.603557
O O9 0.752092 0.500000 0.183153
O O10 0.669375 0.669375 0.183404
O O11 0.841559 0.645518 0.214412
O O12 0.627658 0.192867 0.500000
O O13 0.500000 0.259244 0.548383
O O14 0.663955 0.336046 0.546679
O O15 0.168476 0.168476 0.769743
O O16 0.122689 0.301287 0.719082
O O17 0.000000 0.253379 0.772897
O O18 0.261437 0.500000 0.949377
O O19 0.330976 0.669025 0.950304
O O20 0.196849 0.623927 0.000000
O O21 0.162134 0.162134 0.671506
O O22 0.237955 0.000000 0.668479
#
# Coordination Sequence:
#
# PCOD8312741 Si02
#       7
#    16  16  16  16  16  16  16
#     4   9  17  29  45  64  86 114 147 182 222 266
#     4   9  17  28  42  61  84 110 140 173 210 252
#     4  10  20  33  49  69  93 121 153 188 226 270
#     4   9  17  28  42  60  81 106 136 170 209 252
#     4   9  18  31  47  69  94 120 152 187 224 267
#     4   9  17  28  42  62  89 120 153 188 225 268
#     4   9  17  29  45  65  89 115 143 177 215 255
#
# _framework density 16.078600999999999
#
# number of rings (size 3 to 8) (size 9 to 14) (size 15 to 20)
#    0.000    2.857    0.000    1.286    0.000    2.714 
#    0.000    7.143    0.000    2.571    0.000    0.000 
#    0.000    6.000    0.000   19.571    0.000    1.000 
#
# Total GULP energy -1388359.709307 kJ/mol
# GULP energy per Si atom -12396.068833 kJ/mol
# Density = 1.604201 g / cm^3
# Si number density = 16.078601 Si / 1000 Ang^3
#
#
#
# Elastic Constant Matrix: (Units=GPa)
#
#
# Indices 1 2 3 4 5 6 
#
# 1 76.3285 41.9992 53.7493 0.0000 0.0000 0.0000
# 2 41.9992 76.3285 53.7493 0.0000 0.0000 0.0000
# 3 53.7493 53.7493 119.6570 0.0000 0.0000 0.0000
# 4 0.0000 0.0000 0.0000 25.5855 0.0000 0.0000
# 5 0.0000 0.0000 0.0000 0.0000 25.5855 0.0000
# 6 0.0000 0.0000 0.0000 0.0000 0.0000 17.4678
#
#
#
# Elastic Compliance Matrix: (Units=1/GPa)
#
#
# Indices 1 2 3 4 5 6 
#
# 1 0.021704 -0.007426 -0.006413 0.000000 0.000000 0.000000
# 2 -0.007426 0.021704 -0.006413 0.000000 0.000000 0.000000
# 3 -0.006413 -0.006413 0.014119 0.000000 0.000000 0.000000
# 4 0.000000 0.000000 0.000000 0.039085 0.000000 0.000000
# 5 0.000000 0.000000 0.000000 0.000000 0.039085 0.000000
# 6 0.000000 0.000000 0.000000 0.000000 0.000000 0.057248
#
#
# Mechanical properties :
#
#
# Convention : Reuss Voigt Hill
#
# Bulk Modulus (GPa) = 58.75279 63.47885 61.11582
# Shear Modulus (GPa) = 20.90974 21.91549 21.41261
#
# Velocity S-wave (km/s) = 3.61012 3.69592 3.65327
# Velocity P-wave (km/s) = 7.34830 7.60126 7.47585
#
# Compressibility (1/GPa) = 0.01702047
#
# Stress axis : x y z
#
# Youngs Moduli (GPa) = 46.07531 46.07531 70.82663
#
# Poissons Ratio (x) = 0.34216 0.45424
# Poissons Ratio (y) = 0.34216 0.45424
# Poissons Ratio (z) = 0.29550 0.29550
#
# Static dielectric constant tensor:
#      x y z
#    x 2.970550 0.000000 0.000000 
#    y 0.000000 2.970550 0.000000 
#    z 0.000000 0.000000 3.364050 
# 
# 
# High freq. dielectric constant tensor:
#      x y z
#    x 1.603460 0.000000 0.000000 
#    y 0.000000 1.603460 0.000000 
#    z 0.000000 0.000000 1.633690 
# 
# From -- ./inp_files/8726.got.cif
#   From: 2010.03.12/outbox.cif.g09.slc.cpg/sg123_5_cif.got.tgz:8726.got - 2010.04.06 16:26:55.
