data_PCOD8312499
_publ_section_title
;
Structure prediction by ZEFSAII (Michael W. Deem and Ramdas Pophale) SiO2 
 PCOD8312499
Probable space group: P 4/M M M
;
_chemical_formula_sum "Si O2"
_cell_formula_units_Z 80
_cell_length_a 12.833484
_cell_length_b 12.833484
_cell_length_c 28.561477
_cell_angle_alpha 90.000000
_cell_angle_beta 90.000000
_cell_angle_gamma 90.000000
_cell_volume 4704.027038
_symmetry_space_group_name_H-M "P 4/M M M"
_symmetry_group_IT_number 123
_symmetry_cell_setting 'tetragonal'
loop_
_space_group_symop_operation_xyz
x,y,z
-y,x,z
-x,-y,z
y,-x,z
x,-y,-z
-x,y,-z
y,x,-z
-y,-x,-z
-x,-y,-z
y,-x,-z
x,y,-z
-y,x,-z
-x,y,z
x,-y,z
-y,-x,z
y,x,z
loop_
_atom_site_type_symbol
_atom_site_label
_atom_site_fract_x
_atom_site_fract_y
_atom_site_fract_z
Si Si1 0.617556 0.215623 0.278440
Si Si2 0.831402 0.000000 0.055382
Si Si3 0.286255 0.885777 0.637458
Si Si4 0.208316 0.619616 0.171982
Si Si5 0.000000 0.378637 0.886848
Si Si6 0.787096 0.381691 0.447934
O O1 0.500000 0.250551 0.284653
O O2 0.682137 0.317864 0.290807
O O3 0.645002 0.126214 0.315606
O O4 0.639745 0.176218 0.225821
O O5 0.896706 0.896706 0.071480
O O6 0.712140 0.000000 0.074045
O O7 0.821519 0.000000 0.000000
O O8 0.189387 0.810614 0.637249
O O9 0.356191 0.873087 0.591019
O O10 0.238627 0.000000 0.637305
O O11 0.246978 0.500000 0.164654
O O12 0.301927 0.698074 0.156636
O O13 0.103896 0.640862 0.143026
O O14 0.000000 0.500000 0.906088
O O15 0.832669 0.358419 0.500000
O O16 0.751871 0.500000 0.443245
O O17 0.683987 0.316014 0.437834
#
# Coordination Sequence:
#
# PCOD8312499 Si02
#       6
#    16   8  16  16   8  16
#     4   9  18  31  47  69  95 122 154 189 226 274
#     4   9  18  33  53  75  99 132 173 212 250 294
#     4  10  21  35  50  67  87 116 152 191 235 278
#     4   9  18  31  47  69  97 130 166 203 244 291
#     4  10  19  30  48  74 103 134 164 204 254 296
#     4   9  18  32  49  71  97 120 145 178 218 271
#
# _framework density 17.006703999999999
#
# number of rings (size 3 to 8) (size 9 to 14) (size 15 to 20)
#    0.000    2.700    0.000    1.500    1.400    3.000 
#    0.000    4.000    0.000    3.600    0.000    2.800 
#    0.000    0.000    0.000   18.600    0.000    0.200 
#
# Total GULP energy -991446.305824 kJ/mol
# GULP energy per Si atom -12393.078823 kJ/mol
# Density = 1.696800 g / cm^3
# Si number density = 17.006704 Si / 1000 Ang^3
#
#
#
# Elastic Constant Matrix: (Units=GPa)
#
#
# Indices 1 2 3 4 5 6 
#
# 1 103.4540 40.5037 42.7069 0.0000 0.0000 0.0000
# 2 40.5037 103.4540 42.7069 0.0000 0.0000 0.0000
# 3 42.7069 42.7069 69.7397 0.0000 0.0000 0.0000
# 4 0.0000 0.0000 0.0000 18.7961 0.0000 0.0000
# 5 0.0000 0.0000 0.0000 0.0000 18.7961 0.0000
# 6 0.0000 0.0000 0.0000 0.0000 0.0000 13.3447
#
#
#
# Elastic Compliance Matrix: (Units=1/GPa)
#
#
# Indices 1 2 3 4 5 6 
#
# 1 0.013398 -0.002487 -0.006682 0.000000 0.000000 0.000000
# 2 -0.002487 0.013398 -0.006682 0.000000 0.000000 0.000000
# 3 -0.006682 -0.006682 0.022522 0.000000 0.000000 0.000000
# 4 0.000000 0.000000 0.000000 0.053202 0.000000 0.000000
# 5 0.000000 0.000000 0.000000 0.000000 0.053202 0.000000
# 6 0.000000 0.000000 0.000000 0.000000 0.000000 0.074936
#
#
# Mechanical properties :
#
#
# Convention : Reuss Voigt Hill
#
# Bulk Modulus (GPa) = 56.76085 58.72032 57.74058
# Shear Modulus (GPa) = 18.64052 20.23608 19.43830
#
# Velocity S-wave (km/s) = 3.31429 3.45322 3.38446
# Velocity P-wave (km/s) = 6.93498 7.10650 7.02127
#
# Compressibility (1/GPa) = 0.01761778
#
# Stress axis : x y z
#
# Youngs Moduli (GPa) = 74.63709 74.63709 44.40058
#
# Poissons Ratio (x) = 0.18565 0.29666
# Poissons Ratio (y) = 0.18565 0.29666
# Poissons Ratio (z) = 0.49869 0.49869
#
# Static dielectric constant tensor:
#      x y z
#    x 3.138860 0.000000 0.000000 
#    y 0.000000 3.138860 0.000000 
#    z 0.000000 0.000000 3.304910 
# 
# 
# High freq. dielectric constant tensor:
#      x y z
#    x 1.652410 0.000000 0.000000 
#    y 0.000000 1.652410 0.000000 
#    z 0.000000 0.000000 1.652220 
# 
# From -- ./inp_files/8382.got.cif
#   From: 2010.03.12/outbox.cif.g09.slc.cpg/sg123_5_cif.got.tgz:8382.got - 2010.04.06 16:26:55.
