data_PCOD8312391
_publ_section_title
;
Structure prediction by ZEFSAII (Michael W. Deem and Ramdas Pophale) SiO2 
 PCOD8312391
Probable space group: P 4/M M M
;
_chemical_formula_sum "Si O2"
_cell_formula_units_Z 96
_cell_length_a 14.313152
_cell_length_b 14.313152
_cell_length_c 31.077263
_cell_angle_alpha 90.000000
_cell_angle_beta 90.000000
_cell_angle_gamma 90.000000
_cell_volume 6366.684512
_symmetry_space_group_name_H-M "P 4/M M M"
_symmetry_group_IT_number 123
_symmetry_cell_setting 'tetragonal'
loop_
_space_group_symop_operation_xyz
x,y,z
-y,x,z
-x,-y,z
y,-x,z
x,-y,-z
-x,y,-z
y,x,-z
-y,-x,-z
-x,-y,-z
y,-x,-z
x,y,-z
-y,x,-z
-x,y,z
x,-y,z
-y,-x,z
y,x,z
loop_
_atom_site_type_symbol
_atom_site_label
_atom_site_fract_x
_atom_site_fract_y
_atom_site_fract_z
Si Si1 0.762227 0.608692 0.861335
Si Si2 0.606889 0.108165 0.783434
Si Si3 0.606707 0.891901 0.375603
Si Si4 0.890055 0.263883 0.703749
Si Si5 0.757620 0.606944 0.451526
Si Si6 0.757744 0.393091 0.045515
O O1 0.735260 0.500000 0.856259
O O2 0.668412 0.668412 0.854639
O O3 0.837522 0.638820 0.826022
O O4 0.809412 0.628712 0.908889
O O5 0.500000 0.131297 0.770295
O O6 0.674411 0.137958 0.744841
O O7 0.618068 0.000000 0.794339
O O8 0.500000 0.869263 0.361867
O O9 0.675256 0.861109 0.337522
O O10 0.636302 0.839051 0.418950
O O11 0.618560 0.000000 0.386178
O O12 0.832474 0.167527 0.704031
O O13 0.000000 0.239284 0.703577
O O14 0.794313 0.625517 0.500000
O O15 0.728354 0.500000 0.445144
O O16 0.665683 0.665683 0.441120
O O17 0.729028 0.500000 0.045235
O O18 0.660966 0.339035 0.045568
O O19 0.813288 0.369446 0.000000
#
# Coordination Sequence:
#
# PCOD8312391 Si02
#       6
#    16  16  16  16  16  16
#     4   9  16  25  38  56  78 103 129 158 192 230
#     4   9  17  29  44  60  77  99 130 165 197 229
#     4   9  17  29  45  64  84 106 134 167 201 235
#     4  10  19  30  45  63  83 106 130 159 196 237
#     4   9  17  28  42  61  85 112 140 169 200 234
#     4   8  13  20  30  46  69  97 127 156 186 221
#
# _framework density 15.078492000000001
#
# number of rings (size 3 to 8) (size 9 to 14) (size 15 to 20)
#    0.000    3.000    0.000    1.500    0.000    3.000 
#    0.000    5.000    0.000    0.500    0.000    3.500 
#    0.000   12.000    0.000   15.500    0.000    0.333 
#
# Total GULP energy -1189330.668516 kJ/mol
# GULP energy per Si atom -12388.861130 kJ/mol
# Density = 1.504417 g / cm^3
# Si number density = 15.078492 Si / 1000 Ang^3
#
#
#
# Elastic Constant Matrix: (Units=GPa)
#
#
# Indices 1 2 3 4 5 6 
#
# 1 56.8318 38.8051 58.2041 0.0000 0.0000 0.0000
# 2 38.8051 56.8318 58.2041 0.0000 0.0000 0.0000
# 3 58.2041 58.2041 146.2722 0.0000 0.0000 0.0000
# 4 0.0000 0.0000 0.0000 21.8336 0.0000 0.0000
# 5 0.0000 0.0000 0.0000 0.0000 21.8336 0.0000
# 6 0.0000 0.0000 0.0000 0.0000 0.0000 22.5928
#
#
#
# Elastic Compliance Matrix: (Units=1/GPa)
#
#
# Indices 1 2 3 4 5 6 
#
# 1 0.037875 -0.017598 -0.008069 0.000000 0.000000 0.000000
# 2 -0.017598 0.037875 -0.008069 0.000000 0.000000 0.000000
# 3 -0.008069 -0.008069 0.013258 0.000000 0.000000 0.000000
# 4 0.000000 0.000000 0.000000 0.045801 0.000000 0.000000
# 5 0.000000 0.000000 0.000000 0.000000 0.045801 0.000000
# 6 0.000000 0.000000 0.000000 0.000000 0.000000 0.044262
#
#
# Mechanical properties :
#
#
# Convention : Reuss Voigt Hill
#
# Bulk Modulus (GPa) = 46.42991 63.37358 54.90175
# Shear Modulus (GPa) = 16.69325 20.23350 18.46338
#
# Velocity S-wave (km/s) = 3.33091 3.66714 3.50306
# Velocity P-wave (km/s) = 6.75664 7.74925 7.26991
#
# Compressibility (1/GPa) = 0.02153784
#
# Stress axis : x y z
#
# Youngs Moduli (GPa) = 26.40244 26.40244 75.42682
#
# Poissons Ratio (x) = 0.46463 0.60859
# Poissons Ratio (y) = 0.46463 0.60859
# Poissons Ratio (z) = 0.21303 0.21303
#
# Static dielectric constant tensor:
#      x y z
#    x 2.719880 0.000000 0.000000 
#    y 0.000000 2.719880 0.000000 
#    z 0.000000 0.000000 3.356850 
# 
# 
# High freq. dielectric constant tensor:
#      x y z
#    x 1.555310 0.000000 0.000000 
#    y 0.000000 1.555310 0.000000 
#    z 0.000000 0.000000 1.600830 
# 
# From -- ./inp_files/8632.got.cif
#   From: 2010.03.12/outbox.cif.g09.slc.cpg/sg123_5_cif.got.tgz:8632.got - 2010.04.06 16:26:55.
