data_PCOD8312740
_publ_section_title
;
Structure prediction by ZEFSAII (Michael W. Deem and Ramdas Pophale) SiO2 
 PCOD8312740
Probable space group: P 4/M M M
;
_chemical_formula_sum "Si O2"
_cell_formula_units_Z 104
_cell_length_a 18.251091
_cell_length_b 18.251091
_cell_length_c 19.607041
_cell_angle_alpha 90.000000
_cell_angle_beta 90.000000
_cell_angle_gamma 90.000000
_cell_volume 6531.150898
_symmetry_space_group_name_H-M "P 4/M M M"
_symmetry_group_IT_number 123
_symmetry_cell_setting 'tetragonal'
loop_
_space_group_symop_operation_xyz
x,y,z
-y,x,z
-x,-y,z
y,-x,z
x,-y,-z
-x,y,-z
y,x,-z
-y,-x,-z
-x,-y,-z
y,-x,-z
x,y,-z
-y,x,-z
-x,y,z
x,-y,z
-y,-x,z
y,x,z
loop_
_atom_site_type_symbol
_atom_site_label
_atom_site_fract_x
_atom_site_fract_y
_atom_site_fract_z
Si Si1 0.730569 0.151535 0.366036
Si Si2 0.417772 0.699027 0.199443
Si Si3 0.583050 0.162835 0.291745
Si Si4 0.585959 0.797594 0.923019
Si Si5 0.647702 0.083417 0.833780
Si Si6 0.916293 0.798506 0.233807
Si Si7 0.086404 0.207747 0.500000
O O1 0.767437 0.232564 0.369420
O O2 0.643093 0.157181 0.352180
O O3 0.770158 0.104256 0.308382
O O4 0.742590 0.107775 0.435623
O O5 0.500000 0.670411 0.191520
O O6 0.369478 0.630523 0.219990
O O7 0.410474 0.756810 0.260023
O O8 0.390097 0.732579 0.127631
O O9 0.500000 0.149265 0.319639
O O10 0.599389 0.105009 0.231954
O O11 0.500000 0.812467 0.915419
O O12 0.627118 0.871342 0.900966
O O13 0.608003 0.776490 0.000000
O O14 0.733409 0.096772 0.819705
O O15 0.630473 0.000000 0.850679
O O16 0.866746 0.866746 0.211068
O O17 0.000000 0.825003 0.234427
O O18 0.130748 0.130748 0.500000
O O19 0.000000 0.189686 0.500000
#
# Coordination Sequence:
#
# PCOD8312740 Si02
#       7
#    16  16  16  16  16  16   8
#     4   9  17  30  47  65  88 118 148 179 216 256
#     4   9  17  29  45  65  88 113 143 179 216 255
#     4   9  17  29  46  66  87 114 147 180 214 255
#     4   9  18  30  42  59  84 113 143 174 210 252
#     4   9  17  28  42  62  86 109 137 174 214 258
#     4   9  17  29  45  64  85 109 138 174 215 257
#     4  10  20  33  49  69  93 121 152 184 218 256
#
# _framework density 15.923686999999999
#
# number of rings (size 3 to 8) (size 9 to 14) (size 15 to 20)
#    0.000    2.923    0.000    2.308    0.000    6.538 
#    0.000    1.154    0.000    3.231    0.000    2.154 
#    0.000    0.000    0.000    3.385    0.000   46.154 
#
# Total GULP energy -1289369.587387 kJ/mol
# GULP energy per Si atom -12397.784494 kJ/mol
# Density = 1.588744 g / cm^3
# Si number density = 15.923687 Si / 1000 Ang^3
#
#
#
# Elastic Constant Matrix: (Units=GPa)
#
#
# Indices 1 2 3 4 5 6 
#
# 1 94.3573 48.2162 18.7728 0.0000 0.0000 0.0000
# 2 48.2162 94.3573 18.7728 0.0000 0.0000 0.0000
# 3 18.7728 18.7728 50.0801 0.0000 0.0000 0.0000
# 4 0.0000 0.0000 0.0000 16.5197 0.0000 0.0000
# 5 0.0000 0.0000 0.0000 0.0000 16.5197 0.0000
# 6 0.0000 0.0000 0.0000 0.0000 0.0000 22.3743
#
#
#
# Elastic Compliance Matrix: (Units=1/GPa)
#
#
# Indices 1 2 3 4 5 6 
#
# 1 0.014727 -0.006945 -0.002917 0.000000 0.000000 0.000000
# 2 -0.006945 0.014727 -0.002917 0.000000 0.000000 0.000000
# 3 -0.002917 -0.002917 0.022155 0.000000 0.000000 0.000000
# 4 0.000000 0.000000 0.000000 0.060534 0.000000 0.000000
# 5 0.000000 0.000000 0.000000 0.000000 0.060534 0.000000
# 6 0.000000 0.000000 0.000000 0.000000 0.000000 0.044694
#
#
# Mechanical properties :
#
#
# Convention : Reuss Voigt Hill
#
# Bulk Modulus (GPa) = 38.38678 45.59091 41.98884
# Shear Modulus (GPa) = 19.87169 21.28494 20.57831
#
# Velocity S-wave (km/s) = 3.53644 3.66004 3.59877
# Velocity P-wave (km/s) = 6.39017 6.82306 6.61016
#
# Compressibility (1/GPa) = 0.02605064
#
# Stress axis : x y z
#
# Youngs Moduli (GPa) = 67.90068 67.90068 45.13640
#
# Poissons Ratio (x) = 0.47159 0.13167
# Poissons Ratio (y) = 0.47159 0.13167
# Poissons Ratio (z) = 0.19808 0.19808
#
# Static dielectric constant tensor:
#      x y z
#    x 3.034490 0.000000 0.000000 
#    y 0.000000 3.034490 0.000000 
#    z 0.000000 0.000000 2.871830 
# 
# 
# High freq. dielectric constant tensor:
#      x y z
#    x 1.609860 0.000000 0.000000 
#    y 0.000000 1.609860 0.000000 
#    z 0.000000 0.000000 1.587530 
# 
# From -- ./inp_files/5597.got.cif
#   From: 2010.03.12/outbox.cif.g09.slc.cpg/sg123_3_cif.got.tgz:5597.got - 2010.04.06 16:26:55.
