data_PCOD8312676
_publ_section_title
;
Structure prediction by ZEFSAII (Michael W. Deem and Ramdas Pophale) SiO2 
 PCOD8312676
Probable space group: P 4/M M M
;
_chemical_formula_sum "Si O2"
_cell_formula_units_Z 80
_cell_length_a 13.918645
_cell_length_b 13.918645
_cell_length_c 25.569239
_cell_angle_alpha 90.000000
_cell_angle_beta 90.000000
_cell_angle_gamma 90.000000
_cell_volume 4953.494885
_symmetry_space_group_name_H-M "P 4/M M M"
_symmetry_group_IT_number 123
_symmetry_cell_setting 'tetragonal'
loop_
_space_group_symop_operation_xyz
x,y,z
-y,x,z
-x,-y,z
y,-x,z
x,-y,-z
-x,y,-z
y,x,-z
-y,-x,-z
-x,-y,-z
y,-x,-z
x,y,-z
-y,x,-z
-x,y,z
x,-y,z
-y,-x,z
y,x,z
loop_
_atom_site_type_symbol
_atom_site_label
_atom_site_fract_x
_atom_site_fract_y
_atom_site_fract_z
Si Si1 0.106712 0.386040 0.442592
Si Si2 0.269735 0.114032 0.155188
Si Si3 0.760860 0.609272 0.352327
Si Si4 0.113873 0.393019 0.942025
Si Si5 0.388410 0.230861 0.765931
O O1 0.149101 0.358441 0.500000
O O2 0.101805 0.500000 0.436849
O O3 0.169187 0.342279 0.395289
O O4 0.000000 0.342923 0.437230
O O5 0.167723 0.167723 0.161904
O O6 0.316153 0.149258 0.100465
O O7 0.343995 0.144204 0.200473
O O8 0.251761 0.000000 0.157666
O O9 0.742048 0.500000 0.366991
O O10 0.657744 0.657744 0.355720
O O11 0.803935 0.621137 0.294152
O O12 0.154226 0.500000 0.929191
O O13 0.000000 0.397594 0.940454
O O14 0.148802 0.361006 0.000000
O O15 0.500000 0.248564 0.780752
O O16 0.329778 0.329778 0.776159
#
# Coordination Sequence:
#
# PCOD8312676 Si02
#       5
#    16  16  16  16  16
#     4   8  14  25  40  57  78 106 141 179 214 244
#     4  10  20  32  46  65  90 120 154 192 231 271
#     4   9  17  28  42  62  88 115 141 170 207 256
#     4   8  14  26  45  67  88 111 142 180 220 260
#     4   9  18  31  46  66  90 115 146 183 224 272
#
# _framework density 16.150213999999998
#
# number of rings (size 3 to 8) (size 9 to 14) (size 15 to 20)
#    0.000    3.200    0.000    1.800    0.000    3.400 
#    0.000    4.000    0.000    0.000    0.000    5.600 
#    0.000    0.400    0.000   20.800    0.000    1.400 
#
# Total GULP energy -991346.898630 kJ/mol
# GULP energy per Si atom -12391.836233 kJ/mol
# Density = 1.611346 g / cm^3
# Si number density = 16.150214 Si / 1000 Ang^3
#
#
#
# Elastic Constant Matrix: (Units=GPa)
#
#
# Indices 1 2 3 4 5 6 
#
# 1 71.5962 33.0295 48.3095 0.0000 0.0000 0.0000
# 2 33.0295 71.5962 48.3095 0.0000 0.0000 0.0000
# 3 48.3095 48.3095 115.4435 0.0000 0.0000 0.0000
# 4 0.0000 0.0000 0.0000 23.5506 0.0000 0.0000
# 5 0.0000 0.0000 0.0000 0.0000 23.5506 0.0000
# 6 0.0000 0.0000 0.0000 0.0000 0.0000 11.3895
#
#
#
# Elastic Compliance Matrix: (Units=1/GPa)
#
#
# Indices 1 2 3 4 5 6 
#
# 1 0.020753 -0.005176 -0.006519 0.000000 0.000000 0.000000
# 2 -0.005176 0.020753 -0.006519 0.000000 0.000000 0.000000
# 3 -0.006519 -0.006519 0.014118 0.000000 0.000000 0.000000
# 4 0.000000 0.000000 0.000000 0.042462 0.000000 0.000000
# 5 0.000000 0.000000 0.000000 0.000000 0.042462 0.000000
# 6 0.000000 0.000000 0.000000 0.000000 0.000000 0.087800
#
#
# Mechanical properties :
#
#
# Convention : Reuss Voigt Hill
#
# Bulk Modulus (GPa) = 52.08754 57.54809 54.81781
# Shear Modulus (GPa) = 18.43832 20.29733 19.36782
#
# Velocity S-wave (km/s) = 3.38254 3.54896 3.46675
# Velocity P-wave (km/s) = 6.89763 7.24596 7.07394
#
# Compressibility (1/GPa) = 0.01919845
#
# Stress axis : x y z
#
# Youngs Moduli (GPa) = 48.18471 48.18471 70.83097
#
# Poissons Ratio (x) = 0.24938 0.46174
# Poissons Ratio (y) = 0.24938 0.46174
# Poissons Ratio (z) = 0.31411 0.31411
#
# Static dielectric constant tensor:
#      x y z
#    x 2.876900 0.000000 0.000000 
#    y 0.000000 2.876900 0.000000 
#    z 0.000000 0.000000 3.449640 
# 
# 
# High freq. dielectric constant tensor:
#      x y z
#    x 1.594080 0.000000 0.000000 
#    y 0.000000 1.594080 0.000000 
#    z 0.000000 0.000000 1.638870 
# 
# From -- ./inp_files/6252.got.cif
#   From: 2010.03.12/outbox.cif.g09.slc.cpg/sg123_4_cif.got.tgz:6252.got - 2010.04.06 16:26:55.
