data_PCOD8312772
_publ_section_title
;
Structure prediction by ZEFSAII (Michael W. Deem and Ramdas Pophale) SiO2 
 PCOD8312772
Probable space group: P 4/M M M
;
_chemical_formula_sum "Si O2"
_cell_formula_units_Z 72
_cell_length_a 19.086806
_cell_length_b 19.086806
_cell_length_c 10.645643
_cell_angle_alpha 90.000000
_cell_angle_beta 90.000000
_cell_angle_gamma 90.000000
_cell_volume 3878.273357
_symmetry_space_group_name_H-M "P 4/M M M"
_symmetry_group_IT_number 123
_symmetry_cell_setting 'tetragonal'
loop_
_space_group_symop_operation_xyz
x,y,z
-y,x,z
-x,-y,z
y,-x,z
x,-y,-z
-x,y,-z
y,x,-z
-y,-x,-z
-x,-y,-z
y,-x,-z
x,y,-z
-y,x,-z
-x,y,z
x,-y,z
-y,-x,z
y,x,z
loop_
_atom_site_type_symbol
_atom_site_label
_atom_site_fract_x
_atom_site_fract_y
_atom_site_fract_z
Si Si1 0.579311 0.810277 0.295582
Si Si2 0.422223 0.312416 0.854680
Si Si3 0.420732 0.305089 0.500000
Si Si4 0.696749 0.081479 0.356049
Si Si5 0.080662 0.194615 0.858316
O O1 0.500000 0.838204 0.309842
O O2 0.594645 0.771429 0.162773
O O3 0.595603 0.743784 0.382222
O O4 0.626582 0.876493 0.326313
O O5 0.500000 0.327807 0.796717
O O6 0.364807 0.364807 0.791907
O O7 0.423332 0.327749 0.000000
O O8 0.500000 0.332277 0.500000
O O9 0.371970 0.371970 0.500000
O O10 0.722377 0.096392 0.500000
O O11 0.753074 0.105648 0.251953
O O12 0.678900 0.000000 0.338848
O O13 0.123425 0.123425 0.842444
O O14 0.000000 0.174867 0.837723
O O15 0.092153 0.226182 0.000000
#
# Coordination Sequence:
#
# PCOD8312772 Si02
#       5
#    16  16   8  16  16
#     4  10  20  35  52  73 100 132 173 219 265 314
#     4   9  18  32  50  73 102 136 174 217 264 316
#     4  10  20  33  49  71  99 131 168 210 254 304
#     4  10  21  37  56  80 108 138 177 224 272 318
#     4   9  19  36  57  82 112 144 177 214 258 312
#
# _framework density 18.564962000000001
#
# number of rings (size 3 to 8) (size 9 to 14) (size 15 to 20)
#    0.000    2.444    1.111    0.667    0.000    4.111 
#    0.000    5.556    0.000    4.000    0.000    9.333 
#    0.000    0.000    0.000    0.000    0.000    0.000 
#
# Total GULP energy -891966.454601 kJ/mol
# GULP energy per Si atom -12388.422981 kJ/mol
# Density = 1.852271 g / cm^3
# Si number density = 18.564962 Si / 1000 Ang^3
#
#
#
# Elastic Constant Matrix: (Units=GPa)
#
#
# Indices 1 2 3 4 5 6 
#
# 1 88.2528 62.8600 46.0861 0.0000 0.0000 0.0000
# 2 62.8600 88.2528 46.0861 0.0000 0.0000 0.0000
# 3 46.0861 46.0861 93.0846 0.0000 0.0000 0.0000
# 4 0.0000 0.0000 0.0000 30.3490 0.0000 0.0000
# 5 0.0000 0.0000 0.0000 0.0000 30.3490 0.0000
# 6 0.0000 0.0000 0.0000 0.0000 0.0000 39.0010
#
#
#
# Elastic Compliance Matrix: (Units=1/GPa)
#
#
# Indices 1 2 3 4 5 6 
#
# 1 0.024431 -0.014950 -0.004694 0.000000 0.000000 0.000000
# 2 -0.014950 0.024431 -0.004694 0.000000 0.000000 0.000000
# 3 -0.004694 -0.004694 0.015391 0.000000 0.000000 0.000000
# 4 0.000000 0.000000 0.000000 0.032950 0.000000 0.000000
# 5 0.000000 0.000000 0.000000 0.000000 0.032950 0.000000
# 6 0.000000 0.000000 0.000000 0.000000 0.000000 0.025640
#
#
# Mechanical properties :
#
#
# Convention : Reuss Voigt Hill
#
# Bulk Modulus (GPa) = 64.19884 64.40605 64.30245
# Shear Modulus (GPa) = 23.84798 27.57699 25.71248
#
# Velocity S-wave (km/s) = 3.58798 3.85831 3.72560
# Velocity P-wave (km/s) = 7.19864 7.39029 7.29509
#
# Compressibility (1/GPa) = 0.01557661
#
# Stress axis : x y z
#
# Youngs Moduli (GPa) = 40.93167 40.93167 64.97414
#
# Poissons Ratio (x) = 0.61194 0.30498
# Poissons Ratio (y) = 0.61194 0.30498
# Poissons Ratio (z) = 0.19213 0.19213
#
# Static dielectric constant tensor:
#      x y z
#    x 3.377590 0.000000 0.000000 
#    y 0.000000 3.377590 0.000000 
#    z 0.000000 0.000000 2.877140 
# 
# 
# High freq. dielectric constant tensor:
#      x y z
#    x 1.709610 0.000000 0.000000 
#    y 0.000000 1.709610 0.000000 
#    z 0.000000 0.000000 1.738110 
# 
# From -- ./inp_files/2733.got.cif
#   From: 2010.03.12/outbox.cif.g09.slc.cpg/sg123_2_cif.got.tgz:2733.got - 2010.04.06 16:26:55.
