data_PCOD8312171
_publ_section_title
;
Structure prediction by ZEFSAII (Michael W. Deem and Ramdas Pophale) SiO2 
 PCOD8312171
Probable space group: P 4/M M M
;
_chemical_formula_sum "Si O2"
_cell_formula_units_Z 128
_cell_length_a 19.649284
_cell_length_b 19.649284
_cell_length_c 23.617256
_cell_angle_alpha 90.000000
_cell_angle_beta 90.000000
_cell_angle_gamma 90.000000
_cell_volume 9118.489381
_symmetry_space_group_name_H-M "P 4/M M M"
_symmetry_group_IT_number 123
_symmetry_cell_setting 'tetragonal'
loop_
_space_group_symop_operation_xyz
x,y,z
-y,x,z
-x,-y,z
y,-x,z
x,-y,-z
-x,y,-z
y,x,-z
-y,-x,-z
-x,-y,-z
y,-x,-z
x,y,-z
-y,x,-z
-x,y,z
x,-y,z
-y,-x,z
y,x,z
loop_
_atom_site_type_symbol
_atom_site_label
_atom_site_fract_x
_atom_site_fract_y
_atom_site_fract_z
Si Si1 0.295782 0.185148 0.566564
Si Si2 0.686988 0.578162 0.854494
Si Si3 0.418792 0.803897 0.063515
Si Si4 0.075549 0.418932 0.861303
Si Si5 0.077165 0.185402 0.432695
Si Si6 0.419385 0.924121 0.735833
Si Si7 0.313600 0.423735 0.273244
Si Si8 0.814004 0.579433 0.352382
O O1 0.308428 0.182695 0.500000
O O2 0.252385 0.252385 0.582975
O O3 0.253353 0.118185 0.586274
O O4 0.370728 0.187430 0.593992
O O5 0.671950 0.500000 0.867625
O O6 0.616355 0.616355 0.863980
O O7 0.741850 0.607877 0.898350
O O8 0.714401 0.589158 0.790456
O O9 0.500000 0.805112 0.062895
O O10 0.389887 0.872798 0.091891
O O11 0.389596 0.797454 0.000000
O O12 0.078314 0.500000 0.860437
O O13 0.095243 0.391738 0.798495
O O14 0.000000 0.393924 0.877803
O O15 0.074433 0.183660 0.500000
O O16 0.118235 0.118235 0.411196
O O17 0.000000 0.185864 0.407706
O O18 0.500000 0.919000 0.737507
O O19 0.392289 0.873721 0.687941
O O20 0.395512 0.000000 0.719659
O O21 0.342312 0.500000 0.277529
O O22 0.375034 0.375034 0.289516
O O23 0.254699 0.411556 0.317786
O O24 0.824284 0.500000 0.370969
#
# Coordination Sequence:
#
# PCOD8312171 Si02
#       8
#    16  16  16  16  16  16  16  16
#     4   9  18  31  43  55  76 105 130 153 187 230
#     4   9  17  28  40  53  70  92 119 154 195 236
#     4   9  16  24  34  49  69  92 118 148 180 213
#     4   8  13  22  36  52  71  94 116 140 174 216
#     4   8  14  25  41  60  80 102 127 153 182 214
#     4   8  14  24  37  54  75  96 117 143 177 213
#     4   9  17  28  42  59  75  91 115 151 197 244
#     4  10  18  27  42  60  76  96 125 160 190 223
#
# _framework density 14.037413000000001
#
# number of rings (size 3 to 8) (size 9 to 14) (size 15 to 20)
#    0.000    3.250    0.000    2.625    0.000    4.625 
#    0.000    3.125    0.000    0.000    0.000    5.250 
#    0.000    0.000    0.000   11.625    0.000    0.125 
#
# Total GULP energy -1586164.044191 kJ/mol
# GULP energy per Si atom -12391.906595 kJ/mol
# Density = 1.400546 g / cm^3
# Si number density = 14.037413 Si / 1000 Ang^3
#
#
#
# Elastic Constant Matrix: (Units=GPa)
#
#
# Indices 1 2 3 4 5 6 
#
# 1 72.5402 37.1216 35.5262 0.0000 0.0000 0.0000
# 2 37.1216 72.5402 35.5262 0.0000 0.0000 0.0000
# 3 35.5262 35.5262 56.8324 0.0000 0.0000 0.0000
# 4 0.0000 0.0000 0.0000 14.5663 0.0000 0.0000
# 5 0.0000 0.0000 0.0000 0.0000 14.5663 0.0000
# 6 0.0000 0.0000 0.0000 0.0000 0.0000 7.9169
#
#
#
# Elastic Compliance Matrix: (Units=1/GPa)
#
#
# Indices 1 2 3 4 5 6 
#
# 1 0.021780 -0.006454 -0.009581 0.000000 0.000000 0.000000
# 2 -0.006454 0.021780 -0.009581 0.000000 0.000000 0.000000
# 3 -0.009581 -0.009581 0.029573 0.000000 0.000000 0.000000
# 4 0.000000 0.000000 0.000000 0.068652 0.000000 0.000000
# 5 0.000000 0.000000 0.000000 0.000000 0.068652 0.000000
# 6 0.000000 0.000000 0.000000 0.000000 0.000000 0.126313
#
#
# Mechanical properties :
#
#
# Convention : Reuss Voigt Hill
#
# Bulk Modulus (GPa) = 45.65427 46.47342 46.06384
# Shear Modulus (GPa) = 12.64924 13.65913 13.15419
#
# Velocity S-wave (km/s) = 3.00510 3.12276 3.06450
# Velocity P-wave (km/s) = 6.68092 6.79565 6.73853
#
# Compressibility (1/GPa) = 0.02190376
#
# Stress axis : x y z
#
# Youngs Moduli (GPa) = 45.91341 45.91341 33.81408
#
# Poissons Ratio (x) = 0.29631 0.32396
# Poissons Ratio (y) = 0.29631 0.32396
# Poissons Ratio (z) = 0.43988 0.43988
#
# Static dielectric constant tensor:
#      x y z
#    x 2.712370 0.000000 0.000000 
#    y 0.000000 2.712370 0.000000 
#    z 0.000000 0.000000 2.755460 
# 
# 
# High freq. dielectric constant tensor:
#      x y z
#    x 1.516600 0.000000 0.000000 
#    y 0.000000 1.516600 0.000000 
#    z 0.000000 0.000000 1.522360 
# 
# From -- ./inp_files/7747.got.cif
#   From: 2010.03.12/outbox.cif.g09.slc.cpg/sg123_4_cif.got.tgz:7747.got - 2010.04.06 16:26:55.
