data_PCOD8312789
_publ_section_title
;
Structure prediction by ZEFSAII (Michael W. Deem and Ramdas Pophale) SiO2 
 PCOD8312789
Probable space group: P 4/M M M
;
_chemical_formula_sum "Si O2"
_cell_formula_units_Z 64
_cell_length_a 19.894053
_cell_length_b 19.894053
_cell_length_c 8.917648
_cell_angle_alpha 90.000000
_cell_angle_beta 90.000000
_cell_angle_gamma 90.000000
_cell_volume 3529.367376
_symmetry_space_group_name_H-M "P 4/M M M"
_symmetry_group_IT_number 123
_symmetry_cell_setting 'tetragonal'
loop_
_space_group_symop_operation_xyz
x,y,z
-y,x,z
-x,-y,z
y,-x,z
x,-y,-z
-x,y,-z
y,x,-z
-y,-x,-z
-x,-y,-z
y,-x,-z
x,y,-z
-y,x,-z
-x,y,z
x,-y,z
-y,-x,z
y,x,z
loop_
_atom_site_type_symbol
_atom_site_label
_atom_site_fract_x
_atom_site_fract_y
_atom_site_fract_z
Si Si1 0.356068 0.115350 0.679918
Si Si2 0.106540 0.500000 0.336658
Si Si3 0.744711 0.367008 0.828204
Si Si4 0.000000 0.893380 0.678381
Si Si5 0.500000 0.265842 0.333989
Si Si6 0.000000 0.257549 0.678211
O O1 0.359472 0.120974 0.500000
O O2 0.428882 0.086793 0.741639
O O3 0.341301 0.188287 0.746065
O O4 0.297082 0.065954 0.734619
O O5 0.072514 0.500000 0.500000
O O6 0.186340 0.500000 0.348986
O O7 0.691907 0.308094 0.811638
O O8 0.711916 0.433283 0.754475
O O9 0.762042 0.383239 0.000000
O O10 0.000000 0.817947 0.746094
O O11 0.066576 0.933425 0.733273
O O12 0.000000 0.890098 0.500000
O O13 0.500000 0.298715 0.500000
O O14 0.000000 0.254681 0.500000
#
# Coordination Sequence:
#
# PCOD8312789 Si02
#       6
#    16   8  16   8   8   8
#     4   9  17  29  45  67  95 126 162 202 244 290
#     4   7  12  24  41  61  87 119 149 180 225 282
#     4  10  20  33  50  73 102 135 168 202 245 299
#     4   8  14  25  39  55  81 118 154 191 244 303
#     4   9  17  31  52  75  98 128 168 210 250 291
#     4   9  17  27  42  68  95 120 159 210 254 289
#
# _framework density 18.133562999999999
#
# number of rings (size 3 to 8) (size 9 to 14) (size 15 to 20)
#    0.000    3.125    0.000    3.000    0.000    3.500 
#    0.000    5.625    0.000    0.375    0.000    7.875 
#    0.000    0.000    0.000    5.500    0.000    4.500 
#
# Total GULP energy -792938.219706 kJ/mol
# GULP energy per Si atom -12389.659683 kJ/mol
# Density = 1.809229 g / cm^3
# Si number density = 18.133563 Si / 1000 Ang^3
#
#
#
# Elastic Constant Matrix: (Units=GPa)
#
#
# Indices 1 2 3 4 5 6 
#
# 1 124.4129 60.6756 31.6235 0.0000 0.0000 0.0000
# 2 60.6756 124.4129 31.6235 0.0000 0.0000 0.0000
# 3 31.6235 31.6235 59.5475 0.0000 0.0000 0.0000
# 4 0.0000 0.0000 0.0000 14.1343 0.0000 0.0000
# 5 0.0000 0.0000 0.0000 0.0000 14.1343 0.0000
# 6 0.0000 0.0000 0.0000 0.0000 0.0000 -32.0862
#
#
#
# Elastic Compliance Matrix: (Units=1/GPa)
#
#
# Indices 1 2 3 4 5 6 
#
# 1 0.011145 -0.004544 -0.003505 0.000000 0.000000 0.000000
# 2 -0.004544 0.011145 -0.003505 0.000000 0.000000 0.000000
# 3 -0.003505 -0.003505 0.020516 0.000000 0.000000 0.000000
# 4 0.000000 0.000000 0.000000 0.070750 0.000000 0.000000
# 5 0.000000 0.000000 0.000000 0.000000 0.070750 0.000000
# 6 0.000000 0.000000 0.000000 0.000000 0.000000 -0.031166
#
#
# Mechanical properties :
#
#
# Convention : Reuss Voigt Hill
#
# Bulk Modulus (GPa) = 50.77096 61.80205 56.28651
# Shear Modulus (GPa) = 27.34990 11.53318 19.44154
#
# Velocity S-wave (km/s) = 3.88783 2.52467 3.27789
# Velocity P-wave (km/s) = 6.94354 6.53101 6.74043
#
# Compressibility (1/GPa) = 0.01969630
#
# Stress axis : x y z
#
# Youngs Moduli (GPa) = 89.72612 89.72612 48.74134
#
# Poissons Ratio (x) = 0.40775 0.17086
# Poissons Ratio (y) = 0.40775 0.17086
# Poissons Ratio (z) = 0.31452 0.31452
#
# Static dielectric constant tensor:
#      x y z
#    x 3.488680 0.000000 0.000000 
#    y 0.000000 3.488680 0.000000 
#    z 0.000000 0.000000 3.081670 
# 
# 
# High freq. dielectric constant tensor:
#      x y z
#    x 1.698970 0.000000 0.000000 
#    y 0.000000 1.698970 0.000000 
#    z 0.000000 0.000000 1.661390 
# 
# From -- ./inp_files/1009.got.cif
#   From: 2010.03.12/outbox.cif.g09.slc.cpg/sg123_1_cif.got.tgz:1009.got - 2010.04.06 16:26:55.
