data_PCOD8312029
_publ_section_title
;
Structure prediction by ZEFSAII (Michael W. Deem and Ramdas Pophale) SiO2 
 PCOD8312029
Probable space group: I -4 2 D
;
_chemical_formula_sum "Si O2"
_cell_formula_units_Z 64
_cell_length_a 26.058571
_cell_length_b 26.058571
_cell_length_c 5.116991
_cell_angle_alpha 90.000000
_cell_angle_beta 90.000000
_cell_angle_gamma 90.000000
_cell_volume 3474.688249
_symmetry_space_group_name_H-M "I -4 2 D"
_symmetry_group_IT_number 122
_symmetry_cell_setting 'tetragonal'
loop_
_space_group_symop_operation_xyz
x,y,z
y,-x,-z
-x,-y,z
-y,x,-z
x,1/2-y,1/4-z
-x,1/2+y,1/4-z
-y,1/2-x,1/4+z
y,1/2+x,1/4+z
1/2+x,1/2+y,1/2+z
1/2+y,1/2-x,1/2-z
1/2-x,1/2-y,1/2+z
1/2-y,1/2+x,1/2-z
1/2+x,-y,3/4-z
1/2-x,y,3/4-z
1/2-y,-x,3/4+z
1/2+y,x,3/4+z
loop_
_atom_site_type_symbol
_atom_site_label
_atom_site_fract_x
_atom_site_fract_y
_atom_site_fract_z
Si Si1 0.938968 0.720469 0.875335
Si Si2 0.106272 0.559560 0.508141
Si Si3 0.559538 0.106279 0.492007
Si Si4 0.220469 0.438997 0.624664
O O1 0.915781 0.750000 0.625000
O O2 0.920920 0.661592 0.890741
O O3 0.999986 0.722693 0.865332
O O4 0.917161 0.750000 0.125000
O O5 0.106974 0.500015 0.428624
O O6 0.067583 0.567565 0.750147
O O7 0.090577 0.590626 0.250148
O O8 0.579051 0.161592 0.390753
O O9 0.250000 0.417190 0.375000
O O10 0.250000 0.415810 0.875000
#
# Coordination Sequence:
#
# PCOD8312029 Si02
#       4
#    16  16  16  16
#     4   9  17  31  50  69  91 123 165 214 259 287
#     4  11  22  34  49  72 104 140 174 205 242 300
#     4  11  22  34  49  72 104 140 174 205 242 300
#     4   9  17  31  50  69  91 123 165 214 259 287
#
# _framework density 18.41892
#
# number of rings (size 3 to 8) (size 9 to 14) (size 15 to 20)
#    0.000    2.000    0.000    4.500    0.000   11.000 
#    0.000    0.000    0.000    0.000    0.000    0.000 
#    0.000   56.000    0.000    0.000    0.000    0.000 
#
# Total GULP energy -396781.555425 kJ/mol
# GULP energy per Si atom -12399.423607 kJ/mol
# Density = 1.837700 g / cm^3
# Si number density = 18.418920 Si / 1000 Ang^3
#
#
#
# Elastic Constant Matrix: (Units=GPa)
#
#
# Indices 1 2 3 4 5 6 
#
# 1 72.6681 42.1487 47.4924 0.0000 0.0000 0.0000
# 2 42.1487 72.6681 47.4924 0.0000 0.0000 0.0000
# 3 47.4924 47.4924 175.7311 0.0000 0.0000 0.0000
# 4 0.0000 0.0000 0.0000 33.1837 0.0000 0.0000
# 5 0.0000 0.0000 0.0000 0.0000 33.1837 0.0000
# 6 0.0000 0.0000 0.0000 0.0000 0.0000 3.6003
#
#
#
# Elastic Compliance Matrix: (Units=1/GPa)
#
#
# Indices 1 2 3 4 5 6 
#
# 1 0.021992 -0.010774 -0.003032 0.000000 0.000000 0.000000
# 2 -0.010774 0.021992 -0.003032 0.000000 0.000000 0.000000
# 3 -0.003032 -0.003032 0.007329 0.000000 0.000000 0.000000
# 4 0.000000 0.000000 0.000000 0.030135 0.000000 0.000000
# 5 0.000000 0.000000 0.000000 0.000000 0.030135 0.000000
# 6 0.000000 0.000000 0.000000 0.000000 0.000000 0.277755
#
#
# Mechanical properties :
#
#
# Convention : Reuss Voigt Hill
#
# Bulk Modulus (GPa) = 56.69665 66.14822 61.42243
# Shear Modulus (GPa) = 11.65794 26.25579 18.95686
#
# Velocity S-wave (km/s) = 2.51855 3.77965 3.21160
# Velocity P-wave (km/s) = 6.26945 7.41881 6.86822
#
# Compressibility (1/GPa) = 0.01763773
#
# Stress axis : x y z
#
# Youngs Moduli (GPa) = 45.47158 45.47158 136.44194
#
# Poissons Ratio (x) = 0.48992 0.41364
# Poissons Ratio (y) = 0.48992 0.41364
# Poissons Ratio (z) = 0.13785 0.13785
#
# Static dielectric constant tensor:
#      x y z
#    x 3.236340 0.000000 0.000000 
#    y 0.000000 3.236340 0.000000 
#    z 0.000000 0.000000 3.625950 
# 
# 
# High freq. dielectric constant tensor:
#      x y z
#    x 1.685360 0.000000 0.000000 
#    y 0.000000 1.685360 0.000000 
#    z 0.000000 0.000000 1.738530 
# 
# From -- ./inp_files/1059.got.cif
#   From: 2010.03.12/outbox.cif.g09.slc.cpg/sg122_1_cif.got.tgz:1059.got - 2010.04.06 16:17:16.
