data_PCOD8312852
_publ_section_title
;
Structure prediction by ZEFSAII (Michael W. Deem and Ramdas Pophale) SiO2 
 PCOD8312852
Probable space group: P 4/M M M
;
_chemical_formula_sum "Si O2"
_cell_formula_units_Z 56
_cell_length_a 17.972230
_cell_length_b 17.972230
_cell_length_c 9.212695
_cell_angle_alpha 90.000000
_cell_angle_beta 90.000000
_cell_angle_gamma 90.000000
_cell_volume 2975.710169
_symmetry_space_group_name_H-M "P 4/M M M"
_symmetry_group_IT_number 123
_symmetry_cell_setting 'tetragonal'
loop_
_space_group_symop_operation_xyz
x,y,z
-y,x,z
-x,-y,z
y,-x,z
x,-y,-z
-x,y,-z
y,x,-z
-y,-x,-z
-x,-y,-z
y,-x,-z
x,y,-z
-y,x,-z
-x,y,z
x,-y,z
-y,-x,z
y,x,z
loop_
_atom_site_type_symbol
_atom_site_label
_atom_site_fract_x
_atom_site_fract_y
_atom_site_fract_z
Si Si1 0.000000 0.413264 0.328572
Si Si2 0.187162 0.812838 0.162365
Si Si3 0.417397 0.700258 0.172278
Si Si4 0.917806 0.917806 0.328666
Si Si5 0.643201 0.855283 0.832231
O O1 0.073005 0.374837 0.263284
O O2 0.000000 0.500000 0.287793
O O3 0.000000 0.400181 0.500000
O O4 0.140785 0.859216 0.275246
O O5 0.272599 0.830189 0.189963
O O6 0.164063 0.835938 0.000000
O O7 0.500000 0.675181 0.220597
O O8 0.357586 0.642415 0.240455
O O9 0.404704 0.785019 0.224717
O O10 0.408667 0.699169 0.000000
O O11 0.917139 0.917139 0.500000
O O12 0.000000 0.896310 0.271542
O O13 0.625766 0.874259 0.000000
#
# Coordination Sequence:
#
# PCOD8312852 Si02
#       5
#     8   8  16   8  16
#     4  11  25  41  57  83 116 147 186 235 281 332
#     4  10  21  35  55  82 111 140 182 235 276 324
#     4   9  16  28  49  77 109 144 181 223 271 324
#     4   9  20  38  56  76 106 143 181 220 268 332
#     4  10  20  37  58  82 112 147 188 230 278 337
#
# _framework density 18.819036000000001
#
# number of rings (size 3 to 8) (size 9 to 14) (size 15 to 20)
#    0.000    2.286    1.429    1.714    2.000    4.286 
#    0.000    2.143    0.000    0.000    0.000    0.000 
#    0.000    0.000    0.000    6.000    0.000    5.714 
#
# Total GULP energy -694277.828237 kJ/mol
# GULP energy per Si atom -12397.818361 kJ/mol
# Density = 1.877620 g / cm^3
# Si number density = 18.819036 Si / 1000 Ang^3
#
#
#
# Elastic Constant Matrix: (Units=GPa)
#
#
# Indices 1 2 3 4 5 6 
#
# 1 117.8118 73.1375 37.8317 0.0000 0.0000 0.0000
# 2 73.1375 117.8118 37.8318 0.0000 0.0000 0.0000
# 3 37.8317 37.8318 47.1665 0.0000 0.0000 0.0000
# 4 0.0000 0.0000 0.0000 34.4858 0.0000 0.0000
# 5 0.0000 0.0000 0.0000 0.0000 34.4826 0.0000
# 6 0.0000 0.0000 0.0000 0.0000 0.0000 34.7344
#
#
#
# Elastic Compliance Matrix: (Units=1/GPa)
#
#
# Indices 1 2 3 4 5 6 
#
# 1 0.015031 -0.007354 -0.006158 0.000000 0.000000 0.000000
# 2 -0.007354 0.015031 -0.006158 0.000000 0.000000 0.000000
# 3 -0.006158 -0.006158 0.031079 0.000000 0.000000 0.000000
# 4 0.000000 0.000000 0.000000 0.028997 0.000000 0.000000
# 5 0.000000 0.000000 0.000000 0.000000 0.029000 0.000000
# 6 0.000000 0.000000 0.000000 0.000000 0.000000 0.028790
#
#
# Mechanical properties :
#
#
# Convention : Reuss Voigt Hill
#
# Bulk Modulus (GPa) = 45.86548 64.48802 55.17675
# Shear Modulus (GPa) = 25.70251 29.67314 27.68783
#
# Velocity S-wave (km/s) = 3.69964 3.97515 3.83987
# Velocity P-wave (km/s) = 6.53258 7.44385 7.00305
#
# Compressibility (1/GPa) = 0.02180289
#
# Stress axis : x y z
#
# Youngs Moduli (GPa) = 66.53099 66.53086 32.17563
#
# Poissons Ratio (x) = 0.48925 0.19812
# Poissons Ratio (y) = 0.48925 0.19813
# Poissons Ratio (z) = 0.40967 0.40967
#
# Static dielectric constant tensor:
#      x y z
#    x 3.602170 0.000000 0.000000 
#    y 0.000000 3.602170 0.000000 
#    z 0.000000 0.000000 3.081340 
# 
# 
# High freq. dielectric constant tensor:
#      x y z
#    x 1.745410 0.000000 0.000000 
#    y 0.000000 1.745410 0.000000 
#    z 0.000000 0.000000 1.686410 
# 
# From -- ./inp_files/631.got.cif
#   From: 2010.03.12/outbox.cif.g09.slc.cpg/sg123_1_cif.got.tgz:631.got - 2010.04.06 16:26:55.
