data_PCOD8312984
_publ_section_title
;
Structure prediction by ZEFSAII (Michael W. Deem and Ramdas Pophale) SiO2 
 PCOD8312984
Probable space group: P 4/M M M
;
_chemical_formula_sum "Si O2"
_cell_formula_units_Z 96
_cell_length_a 24.260959
_cell_length_b 24.260959
_cell_length_c 9.470228
_cell_angle_alpha 90.000000
_cell_angle_beta 90.000000
_cell_angle_gamma 90.000000
_cell_volume 5574.120626
_symmetry_space_group_name_H-M "P 4/M M M"
_symmetry_group_IT_number 123
_symmetry_cell_setting 'tetragonal'
loop_
_space_group_symop_operation_xyz
x,y,z
-y,x,z
-x,-y,z
y,-x,z
x,-y,-z
-x,y,-z
y,x,-z
-y,-x,-z
-x,-y,-z
y,-x,-z
x,y,-z
-y,x,-z
-x,y,z
x,-y,z
-y,-x,z
y,x,z
loop_
_atom_site_type_symbol
_atom_site_label
_atom_site_fract_x
_atom_site_fract_y
_atom_site_fract_z
Si Si1 0.938706 0.439302 0.331912
Si Si2 0.349664 0.562407 0.160605
Si Si3 0.140719 0.769333 0.665486
Si Si4 0.153212 0.063746 0.164350
Si Si5 0.437358 0.243944 0.333757
Si Si6 0.149916 0.355815 0.332167
O O1 0.938224 0.437227 0.500000
O O2 0.916449 0.500000 0.284847
O O3 0.902676 0.389049 0.271374
O O4 0.000000 0.430687 0.272734
O O5 0.367838 0.500000 0.185726
O O6 0.402042 0.597959 0.203049
O O7 0.300484 0.579643 0.261939
O O8 0.330637 0.572593 0.000000
O O9 0.126095 0.769434 0.500000
O O10 0.196507 0.803494 0.695694
O O11 0.089312 0.796357 0.747047
O O12 0.150173 0.707129 0.723548
O O13 0.096673 0.096673 0.198429
O O14 0.144627 0.000000 0.208088
O O15 0.168383 0.069026 0.000000
O O16 0.433300 0.251590 0.500000
O O17 0.500000 0.225815 0.291770
O O18 0.391511 0.201437 0.277879
O O19 0.149506 0.354732 0.500000
#
# Coordination Sequence:
#
# PCOD8312984 Si02
#       6
#    16  16  16  16  16  16
#     4   8  13  21  34  55  84 113 140 176 220 259
#     4   9  18  32  48  66  89 116 147 185 229 277
#     4   9  18  31  45  64  92 123 153 185 220 258
#     4   9  18  33  52  72  94 120 149 183 224 268
#     4   9  17  29  46  68  93 120 150 187 230 271
#     4   9  16  26  42  63  87 118 154 185 216 262
#
# _framework density 17.222446999999999
#
# number of rings (size 3 to 8) (size 9 to 14) (size 15 to 20)
#    0.000    3.167    0.000    1.000    0.000    4.333 
#    0.000    5.833    0.000    2.000    0.000    4.667 
#    0.000    0.000    0.000   11.500    0.000   10.333 
#
# Total GULP energy -1189816.275776 kJ/mol
# GULP energy per Si atom -12393.919539 kJ/mol
# Density = 1.718325 g / cm^3
# Si number density = 17.222447 Si / 1000 Ang^3
#
#
#
# Elastic Constant Matrix: (Units=GPa)
#
#
# Indices 1 2 3 4 5 6 
#
# 1 142.9905 85.6389 31.9999 0.0000 0.0000 0.0000
# 2 85.6389 142.9905 31.9999 0.0000 0.0000 0.0000
# 3 31.9999 31.9999 23.2337 0.0000 0.0000 0.0000
# 4 0.0000 0.0000 0.0000 18.0272 0.0000 0.0000
# 5 0.0000 0.0000 0.0000 0.0000 18.0272 0.0000
# 6 0.0000 0.0000 0.0000 0.0000 0.0000 16.8833
#
#
#
# Elastic Compliance Matrix: (Units=1/GPa)
#
#
# Indices 1 2 3 4 5 6 
#
# 1 0.012277 -0.005159 -0.009804 0.000000 0.000000 0.000000
# 2 -0.005159 0.012277 -0.009804 0.000000 0.000000 0.000000
# 3 -0.009804 -0.009804 0.070047 0.000000 0.000000 0.000000
# 4 0.000000 0.000000 0.000000 0.055472 0.000000 0.000000
# 5 0.000000 0.000000 0.000000 0.000000 0.055472 0.000000
# 6 0.000000 0.000000 0.000000 0.000000 0.000000 0.059230
#
#
# Mechanical properties :
#
#
# Convention : Reuss Voigt Hill
#
# Bulk Modulus (GPa) = 22.18888 67.61025 44.89957
# Shear Modulus (GPa) = 15.18223 21.22595 18.20409
#
# Velocity S-wave (km/s) = 2.97229 3.51445 3.25468
# Velocity P-wave (km/s) = 4.96901 7.47066 6.34436
#
# Compressibility (1/GPa) = 0.04506762
#
# Stress axis : x y z
#
# Youngs Moduli (GPa) = 81.45094 81.45094 14.27604
#
# Poissons Ratio (x) = 0.42020 0.13996
# Poissons Ratio (y) = 0.42020 0.13996
# Poissons Ratio (z) = 0.79856 0.79856
#
# Static dielectric constant tensor:
#      x y z
#    x 3.404820 0.000000 0.000000 
#    y 0.000000 3.404820 0.000000 
#    z 0.000000 0.000000 2.856690 
# 
# 
# High freq. dielectric constant tensor:
#      x y z
#    x 1.669610 0.000000 0.000000 
#    y 0.000000 1.669610 0.000000 
#    z 0.000000 0.000000 1.621390 
# 
# From -- ./inp_files/1619.got.cif
#   From: 2010.03.12/outbox.cif.g09.slc.cpg/sg123_1_cif.got.tgz:1619.got - 2010.04.06 16:26:55.
