data_PCOD8312011
_publ_section_title
;
Structure prediction by ZEFSAII (Michael W. Deem and Ramdas Pophale) SiO2 
 PCOD8312011
Probable space group: I -4 2 D
;
_chemical_formula_sum "Si O2"
_cell_formula_units_Z 68
_cell_length_a 18.426764
_cell_length_b 18.426764
_cell_length_c 10.472215
_cell_angle_alpha 90.000000
_cell_angle_beta 90.000000
_cell_angle_gamma 90.000000
_cell_volume 3555.794856
_symmetry_space_group_name_H-M "I -4 2 D"
_symmetry_group_IT_number 122
_symmetry_cell_setting 'tetragonal'
loop_
_space_group_symop_operation_xyz
x,y,z
y,-x,-z
-x,-y,z
-y,x,-z
x,1/2-y,1/4-z
-x,1/2+y,1/4-z
-y,1/2-x,1/4+z
y,1/2+x,1/4+z
1/2+x,1/2+y,1/2+z
1/2+y,1/2-x,1/2-z
1/2-x,1/2-y,1/2+z
1/2-y,1/2+x,1/2-z
1/2+x,-y,3/4-z
1/2-x,y,3/4-z
1/2-y,-x,3/4+z
1/2+y,x,3/4+z
loop_
_atom_site_type_symbol
_atom_site_label
_atom_site_fract_x
_atom_site_fract_y
_atom_site_fract_z
Si Si1 0.574484 0.770965 0.926952
Si Si2 0.000000 0.500000 0.750000
Si Si3 0.370797 0.903098 0.343992
Si Si4 0.925914 0.253391 0.484361
Si Si5 0.695443 0.774770 0.488475
O O1 0.489428 0.782498 0.891111
O O2 0.619976 0.765152 0.795437
O O3 0.600158 0.838625 0.012744
O O4 0.579355 0.692533 0.994403
O O5 0.038511 0.436864 0.664971
O O6 0.397416 0.822984 0.313210
O O7 0.963361 0.250000 0.625000
O O8 0.861591 0.312152 0.499377
O O9 0.726257 0.750000 0.625000
O O10 0.750000 0.753419 0.375000
#
# Coordination Sequence:
#
# PCOD8312011 Si02
#       5
#    16   4  16  16  16
#     4  11  21  35  55  85 123 144 201 258 310 357
#     4  12  20  32  60  92 126 160 212 256 322 372
#     4  11  20  32  54  89 118 156 197 257 300 367
#     4  11  19  32  57  84 112 151 196 249 297 361
#     4  11  23  39  62  86 118 164 206 253 314 377
#
# _framework density 19.123712000000001
#
# number of rings (size 3 to 8) (size 9 to 14) (size 15 to 20)
#    0.000    0.941    9.412    1.412    0.000    0.000 
#    0.000    3.529    0.000    0.000    0.000    1.647 
#    0.000    0.000    0.000    0.000    0.000    0.000 
#
# Total GULP energy -421290.612200 kJ/mol
# GULP energy per Si atom -12390.900359 kJ/mol
# Density = 1.908019 g / cm^3
# Si number density = 19.123712 Si / 1000 Ang^3
#
#
#
# Elastic Constant Matrix: (Units=GPa)
#
#
# Indices 1 2 3 4 5 6 
#
# 1 102.4156 40.9008 44.5960 0.0000 0.0000 0.0000
# 2 40.9008 102.4156 44.5960 0.0000 0.0000 0.0000
# 3 44.5960 44.5960 94.4823 0.0000 0.0000 0.0000
# 4 0.0000 0.0000 0.0000 25.3356 0.0000 0.0000
# 5 0.0000 0.0000 0.0000 0.0000 25.3356 0.0000
# 6 0.0000 0.0000 0.0000 0.0000 0.0000 27.5159
#
#
#
# Elastic Compliance Matrix: (Units=1/GPa)
#
#
# Indices 1 2 3 4 5 6 
#
# 1 0.013068 -0.003188 -0.004663 0.000000 0.000000 0.000000
# 2 -0.003188 0.013068 -0.004663 0.000000 0.000000 0.000000
# 3 -0.004663 -0.004663 0.014986 0.000000 0.000000 0.000000
# 4 0.000000 0.000000 0.000000 0.039470 0.000000 0.000000
# 5 0.000000 0.000000 0.000000 0.000000 0.039470 0.000000
# 6 0.000000 0.000000 0.000000 0.000000 0.000000 0.036343
#
#
# Mechanical properties :
#
#
# Convention : Reuss Voigt Hill
#
# Bulk Modulus (GPa) = 62.14063 62.16657 62.15360
# Shear Modulus (GPa) = 26.76674 26.91878 26.84276
#
# Velocity S-wave (km/s) = 3.74526 3.75589 3.75058
# Velocity P-wave (km/s) = 7.16011 7.16848 7.16430
#
# Compressibility (1/GPa) = 0.01609253
#
# Stress axis : x y z
#
# Youngs Moduli (GPa) = 76.52295 76.52295 66.72828
#
# Poissons Ratio (x) = 0.24397 0.31117
# Poissons Ratio (y) = 0.24397 0.31117
# Poissons Ratio (z) = 0.35685 0.35685
#
# Static dielectric constant tensor:
#      x y z
#    x 3.808770 0.000000 0.000000 
#    y 0.000000 3.808770 0.000000 
#    z 0.000000 0.000000 3.364790 
# 
# 
# High freq. dielectric constant tensor:
#      x y z
#    x 1.748650 0.000000 0.000000 
#    y 0.000000 1.748650 0.000000 
#    z 0.000000 0.000000 1.700390 
# 
# From -- ./inp_files/4178.got.cif
#   From: 2010.03.12/outbox.cif.g09.slc.cpg/sg122_3_cif.got.tgz:4178.got - 2010.04.06 16:17:16.
