data_PCOD8312734
_publ_section_title
;
Structure prediction by ZEFSAII (Michael W. Deem and Ramdas Pophale) SiO2 
 PCOD8312734
Probable space group: P 4/M M M
;
_chemical_formula_sum "Si O2"
_cell_formula_units_Z 112
_cell_length_a 14.125340
_cell_length_b 14.125340
_cell_length_c 35.262975
_cell_angle_alpha 90.000000
_cell_angle_beta 90.000000
_cell_angle_gamma 90.000000
_cell_volume 7035.853201
_symmetry_space_group_name_H-M "P 4/M M M"
_symmetry_group_IT_number 123
_symmetry_cell_setting 'tetragonal'
loop_
_space_group_symop_operation_xyz
x,y,z
-y,x,z
-x,-y,z
y,-x,z
x,-y,-z
-x,y,-z
y,x,-z
-y,-x,-z
-x,-y,-z
y,-x,-z
x,y,-z
-y,x,-z
-x,y,z
x,-y,z
-y,-x,z
y,x,z
loop_
_atom_site_type_symbol
_atom_site_label
_atom_site_fract_x
_atom_site_fract_y
_atom_site_fract_z
Si Si1 0.609641 0.892643 0.831428
Si Si2 0.238799 0.608980 0.457590
Si Si3 0.738960 0.108448 0.237269
Si Si4 0.738438 0.891159 0.955499
Si Si5 0.109269 0.609232 0.610212
Si Si6 0.109095 0.261077 0.677911
Si Si7 0.612600 0.768394 0.096292
O O1 0.500000 0.886998 0.822201
O O2 0.660430 0.860239 0.792924
O O3 0.637407 0.819969 0.864371
O O4 0.638075 0.000000 0.843408
O O5 0.197694 0.625764 0.500000
O O6 0.263193 0.500000 0.450768
O O7 0.336199 0.663802 0.451477
O O8 0.162321 0.645908 0.427332
O O9 0.833849 0.166152 0.229637
O O10 0.698376 0.126784 0.279656
O O11 0.767702 0.000000 0.231858
O O12 0.835755 0.835755 0.945039
O O13 0.648961 0.838796 0.936535
O O14 0.747322 0.000000 0.941400
O O15 0.719276 0.887937 0.000000
O O16 0.129688 0.500000 0.617883
O O17 0.146269 0.662511 0.647661
O O18 0.000000 0.629657 0.602637
O O19 0.163327 0.163327 0.671693
O O20 0.000000 0.237456 0.671127
O O21 0.500000 0.750672 0.091285
O O22 0.667779 0.667779 0.094705
#
# Coordination Sequence:
#
# PCOD8312734 Si02
#       7
#    16  16  16  16  16  16  16
#     4   9  17  29  46  67  88 111 141 177 218 263
#     4   9  17  28  42  60  81 105 132 162 197 238
#     4   9  17  28  42  61  85 112 140 170 205 246
#     4   9  18  32  50  73  99 125 153 185 222 266
#     4   9  17  28  42  60  81 105 133 166 204 243
#     4   9  17  28  42  60  82 109 139 170 204 242
#     4  10  20  33  49  68  91 120 154 192 231 269
#
# _framework density 15.918467
#
# number of rings (size 3 to 8) (size 9 to 14) (size 15 to 20)
#    0.000    2.857    0.000    1.286    0.000    2.714 
#    0.000    7.857    0.000    0.000    0.000    4.000 
#    0.000    0.000    0.000   39.857    0.000    1.143 
#
# Total GULP energy -1388452.189326 kJ/mol
# GULP energy per Si atom -12396.894548 kJ/mol
# Density = 1.588224 g / cm^3
# Si number density = 15.918467 Si / 1000 Ang^3
#
#
#
# Elastic Constant Matrix: (Units=GPa)
#
#
# Indices 1 2 3 4 5 6 
#
# 1 79.1272 48.9415 53.3743 0.0000 0.0000 0.0000
# 2 48.9415 79.1272 53.3743 0.0000 0.0000 0.0000
# 3 53.3743 53.3743 95.3396 0.0000 0.0000 0.0000
# 4 0.0000 0.0000 0.0000 26.5301 0.0000 0.0000
# 5 0.0000 0.0000 0.0000 0.0000 26.5301 0.0000
# 6 0.0000 0.0000 0.0000 0.0000 0.0000 22.1896
#
#
#
# Elastic Compliance Matrix: (Units=1/GPa)
#
#
# Indices 1 2 3 4 5 6 
#
# 1 0.023884 -0.009244 -0.008196 0.000000 0.000000 0.000000
# 2 -0.009244 0.023884 -0.008196 0.000000 0.000000 0.000000
# 3 -0.008196 -0.008196 0.019665 0.000000 0.000000 0.000000
# 4 0.000000 0.000000 0.000000 0.037693 0.000000 0.000000
# 5 0.000000 0.000000 0.000000 0.000000 0.037693 0.000000
# 6 0.000000 0.000000 0.000000 0.000000 0.000000 0.045066
#
#
# Mechanical properties :
#
#
# Convention : Reuss Voigt Hill
#
# Bulk Modulus (GPa) = 61.87501 62.77491 62.32496
# Shear Modulus (GPa) = 20.44619 21.57691 21.01155
#
# Velocity S-wave (km/s) = 3.58779 3.68566 3.63705
# Velocity P-wave (km/s) = 7.49115 7.59164 7.54156
#
# Compressibility (1/GPa) = 0.01616161
#
# Stress axis : x y z
#
# Youngs Moduli (GPa) = 41.86907 41.86907 50.85084
#
# Poissons Ratio (x) = 0.38705 0.41676
# Poissons Ratio (y) = 0.38705 0.41676
# Poissons Ratio (z) = 0.34315 0.34315
#
# Static dielectric constant tensor:
#      x y z
#    x 2.976290 0.000000 0.000000 
#    y 0.000000 2.976290 0.000000 
#    z 0.000000 0.000000 3.250300 
# 
# 
# High freq. dielectric constant tensor:
#      x y z
#    x 1.602660 0.000000 0.000000 
#    y 0.000000 1.602660 0.000000 
#    z 0.000000 0.000000 1.622320 
# 
# From -- ./inp_files/8710.got.cif
#   From: 2010.03.12/outbox.cif.g09.slc.cpg/sg123_5_cif.got.tgz:8710.got - 2010.04.06 16:26:55.
