data_PCOD8312646
_publ_section_title
;
Structure prediction by ZEFSAII (Michael W. Deem and Ramdas Pophale) SiO2 
 PCOD8312646
Probable space group: P 4/M M M
;
_chemical_formula_sum "Si O2"
_cell_formula_units_Z 120
_cell_length_a 26.714296
_cell_length_b 26.714296
_cell_length_c 8.165374
_cell_angle_alpha 90.000000
_cell_angle_beta 90.000000
_cell_angle_gamma 90.000000
_cell_volume 5827.248638
_symmetry_space_group_name_H-M "P 4/M M M"
_symmetry_group_IT_number 123
_symmetry_cell_setting 'tetragonal'
loop_
_space_group_symop_operation_xyz
x,y,z
-y,x,z
-x,-y,z
y,-x,z
x,-y,-z
-x,y,-z
y,x,-z
-y,-x,-z
-x,-y,-z
y,-x,-z
x,y,-z
-y,x,-z
-x,y,z
x,-y,z
-y,-x,z
y,x,z
loop_
_atom_site_type_symbol
_atom_site_label
_atom_site_fract_x
_atom_site_fract_y
_atom_site_fract_z
Si Si1 0.321294 0.596816 0.817997
Si Si2 0.648924 0.944754 0.192332
Si Si3 0.244741 0.091915 0.808897
Si Si4 0.554442 0.363438 0.500000
Si Si5 0.614295 0.205099 0.814208
Si Si6 0.137674 0.943309 0.194730
Si Si7 0.119659 0.443990 0.311583
Si Si8 0.723849 0.199292 0.192295
O O1 0.351998 0.648003 0.793949
O O2 0.332113 0.559617 0.668029
O O3 0.263814 0.609254 0.805432
O O4 0.333231 0.573702 0.000000
O O5 0.702678 0.927937 0.269691
O O6 0.600721 0.911381 0.230938
O O7 0.636922 0.000000 0.258778
O O8 0.656114 0.943571 0.000000
O O9 0.193612 0.068463 0.733791
O O10 0.242158 0.150995 0.774393
O O11 0.245469 0.079238 0.000000
O O12 0.500000 0.387133 0.500000
O O13 0.591019 0.408982 0.500000
O O14 0.570194 0.178068 0.713094
O O15 0.668348 0.192015 0.733432
O O16 0.610965 0.185083 0.000000
O O17 0.095982 0.904019 0.263706
O O18 0.122959 0.000000 0.247565
O O19 0.139178 0.938486 0.000000
O O20 0.105774 0.446012 0.500000
O O21 0.109470 0.500000 0.236847
O O22 0.753077 0.246924 0.269325
O O23 0.716472 0.208460 0.000000
#
# Coordination Sequence:
#
# PCOD8312646 Si02
#       8
#    16  16  16   8  16  16  16  16
#     4   9  19  36  58  85 118 154 191 233 283 342
#     4  10  20  36  59  82 102 130 175 231 283 330
#     4   9  15  26  44  70 100 128 165 217 272 321
#     4  10  22  39  60  86 116 152 195 243 289 337
#     4  10  19  34  56  82 111 142 181 227 273 325
#     4   9  16  24  35  56  91 135 179 221 265 315
#     4  11  25  41  55  75 107 144 180 222 271 330
#     4   9  15  24  45  76 106 134 165 208 264 323
#
# _framework density 20.59291
#
# number of rings (size 3 to 8) (size 9 to 14) (size 15 to 20)
#    0.000    2.400    1.333    1.600    0.933    7.400 
#    0.000    3.333    0.000    0.000    0.000    1.867 
#    0.000    0.000    0.000    0.000    0.000    0.133 
#
# Total GULP energy -1486741.782472 kJ/mol
# GULP energy per Si atom -12389.514854 kJ/mol
# Density = 2.054604 g / cm^3
# Si number density = 20.592910 Si / 1000 Ang^3
#
#
#
# Elastic Constant Matrix: (Units=GPa)
#
#
# Indices 1 2 3 4 5 6 
#
# 1 131.4358 69.1063 19.3387 0.0000 0.0000 0.0000
# 2 69.1063 131.4346 19.3386 0.0000 0.0000 0.0000
# 3 19.3387 19.3386 48.5269 0.0000 0.0000 0.0000
# 4 0.0000 0.0000 0.0000 6.4098 0.0000 0.0000
# 5 0.0000 0.0000 0.0000 0.0000 6.4096 0.0000
# 6 0.0000 0.0000 0.0000 0.0000 0.0000 -209.7275
#
#
#
# Elastic Compliance Matrix: (Units=1/GPa)
#
#
# Indices 1 2 3 4 5 6 
#
# 1 0.010723 -0.005321 -0.002153 0.000000 0.000000 0.000000
# 2 -0.005321 0.010723 -0.002153 0.000000 0.000000 0.000000
# 3 -0.002153 -0.002153 0.022323 0.000000 0.000000 0.000000
# 4 0.000000 0.000000 0.000000 0.156012 0.000000 0.000000
# 5 0.000000 0.000000 0.000000 0.000000 0.156017 0.000000
# 6 0.000000 0.000000 0.000000 0.000000 0.000000 -0.004768
#
#
# Mechanical properties :
#
#
# Convention : Reuss Voigt Hill
#
# Bulk Modulus (GPa) = 40.79029 58.55160 49.67095
# Shear Modulus (GPa) = 13.21163 -25.80740 -6.29789
#
# Velocity S-wave (km/s) = 2.53566 -3.54392 -1.75069
# Velocity P-wave (km/s) = 5.33138 3.42765 4.48177
#
# Compressibility (1/GPa) = 0.02451564
#
# Stress axis : x y z
#
# Youngs Moduli (GPa) = 93.25963 93.25885 44.79714
#
# Poissons Ratio (x) = 0.49624 0.09643
# Poissons Ratio (y) = 0.49625 0.09643
# Poissons Ratio (z) = 0.20075 0.20075
#
# Static dielectric constant tensor:
#      x y z
#    x 3.934860 0.000000 0.000000 
#    y 0.000000 3.934850 0.000000 
#    z 0.000000 0.000000 4.389520 
# 
# 
# High freq. dielectric constant tensor:
#      x y z
#    x 1.809460 0.000000 0.000000 
#    y 0.000000 1.809460 0.000000 
#    z 0.000000 0.000000 1.755360 
# 
# From -- ./inp_files/2016.got.cif
#   From: 2010.03.12/outbox.cif.g09.slc.cpg/sg123_2_cif.got.tgz:2016.got - 2010.04.06 16:26:55.
