data_PCOD8312350
_publ_section_title
;
Structure prediction by ZEFSAII (Michael W. Deem and Ramdas Pophale) SiO2 
 PCOD8312350
Probable space group: P 4/M M M
;
_chemical_formula_sum "Si O2"
_cell_formula_units_Z 112
_cell_length_a 13.886323
_cell_length_b 13.886323
_cell_length_c 34.990722
_cell_angle_alpha 90.000000
_cell_angle_beta 90.000000
_cell_angle_gamma 90.000000
_cell_volume 6747.259750
_symmetry_space_group_name_H-M "P 4/M M M"
_symmetry_group_IT_number 123
_symmetry_cell_setting 'tetragonal'
loop_
_space_group_symop_operation_xyz
x,y,z
-y,x,z
-x,-y,z
y,-x,z
x,-y,-z
-x,y,-z
y,x,-z
-y,-x,-z
-x,-y,-z
y,-x,-z
x,y,-z
-y,x,-z
-x,y,z
x,-y,z
-y,-x,z
y,x,z
loop_
_atom_site_type_symbol
_atom_site_label
_atom_site_fract_x
_atom_site_fract_y
_atom_site_fract_z
Si Si1 0.112991 0.270228 0.759917
Si Si2 0.265746 0.109961 0.043953
Si Si3 0.609534 0.110964 0.314553
Si Si4 0.390455 0.234765 0.904845
Si Si5 0.612896 0.766291 0.611829
Si Si6 0.614225 0.107443 0.542332
Si Si7 0.610863 0.233540 0.183538
O O1 0.169103 0.169103 0.762654
O O2 0.138311 0.320222 0.719880
O O3 0.145539 0.342602 0.793311
O O4 0.000000 0.249339 0.764409
O O5 0.169452 0.169452 0.053502
O O6 0.353800 0.145685 0.069925
O O7 0.242688 0.000000 0.053951
O O8 0.296628 0.122890 0.000000
O O9 0.500000 0.133999 0.302022
O O10 0.640113 0.172013 0.351146
O O11 0.620051 0.000000 0.326166
O O12 0.500000 0.257527 0.915640
O O13 0.330472 0.330472 0.914675
O O14 0.379647 0.205496 0.860731
O O15 0.500000 0.747135 0.608656
O O16 0.663095 0.663095 0.614677
O O17 0.654542 0.821437 0.574658
O O18 0.644534 0.144324 0.500000
O O19 0.500000 0.103175 0.545765
O O20 0.655678 0.000000 0.549126
O O21 0.500000 0.248527 0.195574
O O22 0.667034 0.332967 0.192624
#
# Coordination Sequence:
#
# PCOD8312350 Si02
#       7
#    16  16  16  16  16  16  16
#     4  10  20  33  49  69  94 123 154 189 228 272
#     4   9  18  32  49  69  93 121 154 193 235 277
#     4   9  17  30  49  70  88 109 143 188 235 275
#     4   9  18  32  49  70  96 124 154 189 228 271
#     4  10  19  29  42  61  88 121 151 178 210 253
#     4   8  14  26  44  63  81 103 136 181 227 260
#     4   9  18  32  50  72  96 122 153 189 229 272
#
# _framework density 16.599332
#
# number of rings (size 3 to 8) (size 9 to 14) (size 15 to 20)
#    0.000    2.857    0.000    1.714    0.000    4.714 
#    0.000    4.286    0.000    0.000    0.000   10.000 
#    0.000    2.571    0.000    6.286    0.000    0.571 
#
# Total GULP energy -1388739.136949 kJ/mol
# GULP energy per Si atom -12399.456580 kJ/mol
# Density = 1.656155 g / cm^3
# Si number density = 16.599332 Si / 1000 Ang^3
#
#
#
# Elastic Constant Matrix: (Units=GPa)
#
#
# Indices 1 2 3 4 5 6 
#
# 1 96.6249 52.1049 56.0986 0.0000 0.0000 0.0000
# 2 52.1049 96.6249 56.0986 0.0000 0.0000 0.0000
# 3 56.0986 56.0986 87.5252 0.0000 0.0000 0.0000
# 4 0.0000 0.0000 0.0000 23.3678 0.0000 0.0000
# 5 0.0000 0.0000 0.0000 0.0000 23.3678 0.0000
# 6 0.0000 0.0000 0.0000 0.0000 0.0000 17.3013
#
#
#
# Elastic Compliance Matrix: (Units=1/GPa)
#
#
# Indices 1 2 3 4 5 6 
#
# 1 0.017740 -0.004722 -0.008344 0.000000 0.000000 0.000000
# 2 -0.004722 0.017740 -0.008344 0.000000 0.000000 0.000000
# 3 -0.008344 -0.008344 0.022121 0.000000 0.000000 0.000000
# 4 0.000000 0.000000 0.000000 0.042794 0.000000 0.000000
# 5 0.000000 0.000000 0.000000 0.000000 0.042794 0.000000
# 6 0.000000 0.000000 0.000000 0.000000 0.000000 0.057799
#
#
# Mechanical properties :
#
#
# Convention : Reuss Voigt Hill
#
# Bulk Modulus (GPa) = 67.65051 67.70880 67.67965
# Shear Modulus (GPa) = 20.10186 20.57225 20.33706
#
# Velocity S-wave (km/s) = 3.48372 3.52425 3.50404
# Velocity P-wave (km/s) = 7.55150 7.57886 7.56519
#
# Compressibility (1/GPa) = 0.01478186
#
# Stress axis : x y z
#
# Youngs Moduli (GPa) = 56.37039 56.37039 45.20614
#
# Poissons Ratio (x) = 0.26618 0.37718
# Poissons Ratio (y) = 0.26618 0.37718
# Poissons Ratio (z) = 0.47034 0.47034
#
# Static dielectric constant tensor:
#      x y z
#    x 3.011200 0.000000 0.000000 
#    y 0.000000 3.011200 0.000000 
#    z 0.000000 0.000000 3.278840 
# 
# 
# High freq. dielectric constant tensor:
#      x y z
#    x 1.626700 0.000000 0.000000 
#    y 0.000000 1.626700 0.000000 
#    z 0.000000 0.000000 1.649840 
# 
# From -- ./inp_files/8762.got.cif
#   From: 2010.03.12/outbox.cif.g09.slc.cpg/sg123_5_cif.got.tgz:8762.got - 2010.04.06 16:26:55.
