data_PCOD8312020
_publ_section_title
;
Structure prediction by ZEFSAII (Michael W. Deem and Ramdas Pophale) SiO2 
 PCOD8312020
Probable space group: I -4 2 D
;
_chemical_formula_sum "Si O2"
_cell_formula_units_Z 88
_cell_length_a 17.577108
_cell_length_b 17.577108
_cell_length_c 13.301234
_cell_angle_alpha 90.000000
_cell_angle_beta 90.000000
_cell_angle_gamma 90.000000
_cell_volume 4109.479101
_symmetry_space_group_name_H-M "I -4 2 D"
_symmetry_group_IT_number 122
_symmetry_cell_setting 'tetragonal'
loop_
_space_group_symop_operation_xyz
x,y,z
y,-x,-z
-x,-y,z
-y,x,-z
x,1/2-y,1/4-z
-x,1/2+y,1/4-z
-y,1/2-x,1/4+z
y,1/2+x,1/4+z
1/2+x,1/2+y,1/2+z
1/2+y,1/2-x,1/2-z
1/2-x,1/2-y,1/2+z
1/2-y,1/2+x,1/2-z
1/2+x,-y,3/4-z
1/2-x,y,3/4-z
1/2-y,-x,3/4+z
1/2+y,x,3/4+z
loop_
_atom_site_type_symbol
_atom_site_label
_atom_site_fract_x
_atom_site_fract_y
_atom_site_fract_z
Si Si1 0.114649 0.799211 0.494471
Si Si2 0.750000 0.626005 0.375000
Si Si3 0.919928 0.845270 0.362933
Si Si4 0.780922 0.466964 0.979747
Si Si5 0.921053 0.134617 0.284720
Si Si6 0.756430 0.194897 0.757216
O O1 0.095529 0.871070 0.567963
O O2 0.115582 0.820831 0.377896
O O3 0.199808 0.773009 0.522814
O O4 0.058852 0.727565 0.518569
O O5 0.807850 0.574476 0.439858
O O6 0.801514 0.676067 0.299189
O O7 0.940612 0.773628 0.431789
O O8 0.876088 0.809124 0.270197
O O9 0.993667 0.889570 0.318423
O O10 0.750000 0.433071 0.875000
O O11 0.868288 0.438442 0.993857
O O12 0.750000 0.188438 0.875000
#
# Coordination Sequence:
#
# PCOD8312020 Si02
#       6
#    16   8  16  16  16  16
#     4  11  22  40  65  96 126 174 226 288 339 409
#     4  12  22  40  64  94 138 182 228 280 346 410
#     4  11  23  39  64  98 135 171 233 284 342 411
#     4  11  21  39  64  90 135 176 214 277 358 409
#     4  11  24  40  64  98 135 182 222 278 354 422
#     4  12  22  37  64  94 129 172 236 288 334 399
#
# _framework density 21.413906000000001
#
# number of rings (size 3 to 8) (size 9 to 14) (size 15 to 20)
#    0.000    0.727    7.273    1.091    1.273    0.000 
#    0.000    3.636    0.000    0.000    0.000    0.000 
#    0.000    0.000    0.000    0.000    0.000    0.000 
#
# Total GULP energy -545343.024567 kJ/mol
# GULP energy per Si atom -12394.159649 kJ/mol
# Density = 2.136517 g / cm^3
# Si number density = 21.413906 Si / 1000 Ang^3
#
#
#
# Elastic Constant Matrix: (Units=GPa)
#
#
# Indices 1 2 3 4 5 6 
#
# 1 91.5091 28.6679 33.4551 0.0000 0.0000 0.0000
# 2 28.6679 91.5091 33.4551 0.0000 0.0000 0.0000
# 3 33.4551 33.4551 116.9439 0.0000 0.0000 0.0000
# 4 0.0000 0.0000 0.0000 23.0885 0.0000 0.0000
# 5 0.0000 0.0000 0.0000 0.0000 23.0885 0.0000
# 6 0.0000 0.0000 0.0000 0.0000 0.0000 31.1580
#
#
#
# Elastic Compliance Matrix: (Units=1/GPa)
#
#
# Indices 1 2 3 4 5 6 
#
# 1 0.012905 -0.003008 -0.002831 0.000000 0.000000 0.000000
# 2 -0.003008 0.012905 -0.002831 0.000000 0.000000 0.000000
# 3 -0.002831 -0.002831 0.010171 0.000000 0.000000 0.000000
# 4 0.000000 0.000000 0.000000 0.043312 0.000000 0.000000
# 5 0.000000 0.000000 0.000000 0.000000 0.043312 0.000000
# 6 0.000000 0.000000 0.000000 0.000000 0.000000 0.032094
#
#
# Mechanical properties :
#
#
# Convention : Reuss Voigt Hill
#
# Bulk Modulus (GPa) = 53.64716 54.56873 54.10794
# Shear Modulus (GPa) = 28.04981 29.09261 28.57121
#
# Velocity S-wave (km/s) = 3.62316 3.68990 3.65668
# Velocity P-wave (km/s) = 6.52763 6.60999 6.56894
#
# Compressibility (1/GPa) = 0.01864032
#
# Stress axis : x y z
#
# Youngs Moduli (GPa) = 77.48743 77.48743 98.31732
#
# Poissons Ratio (x) = 0.23307 0.27838
# Poissons Ratio (y) = 0.23307 0.27838
# Poissons Ratio (z) = 0.21940 0.21940
#
# Static dielectric constant tensor:
#      x y z
#    x 3.896780 0.000000 0.000000 
#    y 0.000000 3.896780 0.000000 
#    z 0.000000 0.000000 4.001950 
# 
# 
# High freq. dielectric constant tensor:
#      x y z
#    x 1.822660 0.000000 0.000000 
#    y 0.000000 1.822660 0.000000 
#    z 0.000000 0.000000 1.855510 
# 
# From -- ./inp_files/5373.got.cif
#   From: 2010.03.12/outbox.cif.g09.slc.cpg/sg122_3_cif.got.tgz:5373.got - 2010.04.06 16:17:16.
