data_PCOD8312410
_publ_section_title
;
Structure prediction by ZEFSAII (Michael W. Deem and Ramdas Pophale) SiO2 
 PCOD8312410
Probable space group: P 4/M M M
;
_chemical_formula_sum "Si O2"
_cell_formula_units_Z 112
_cell_length_a 14.086361
_cell_length_b 14.086361
_cell_length_c 35.154266
_cell_angle_alpha 90.000000
_cell_angle_beta 90.000000
_cell_angle_gamma 90.000000
_cell_volume 6975.505136
_symmetry_space_group_name_H-M "P 4/M M M"
_symmetry_group_IT_number 123
_symmetry_cell_setting 'tetragonal'
loop_
_space_group_symop_operation_xyz
x,y,z
-y,x,z
-x,-y,z
y,-x,z
x,-y,-z
-x,y,-z
y,x,-z
-y,-x,-z
-x,-y,-z
y,-x,-z
x,y,-z
-y,x,-z
-x,y,z
x,-y,z
-y,-x,z
y,x,z
loop_
_atom_site_type_symbol
_atom_site_label
_atom_site_fract_x
_atom_site_fract_y
_atom_site_fract_z
Si Si1 0.612249 0.766607 0.816554
Si Si2 0.236287 0.609409 0.592471
Si Si3 0.261740 0.108970 0.957503
Si Si4 0.737874 0.108647 0.455771
Si Si5 0.610107 0.108312 0.888389
Si Si6 0.391541 0.761913 0.679631
Si Si7 0.387827 0.894495 0.253437
O O1 0.500000 0.745831 0.814667
O O2 0.666195 0.666195 0.816189
O O3 0.641541 0.824281 0.854089
O O4 0.648204 0.829233 0.781036
O O5 0.255225 0.500000 0.581969
O O6 0.333184 0.666817 0.583976
O O7 0.150257 0.648782 0.567199
O O8 0.204896 0.621384 0.636228
O O9 0.165496 0.165496 0.950412
O O10 0.339509 0.141958 0.927021
O O11 0.234620 0.000000 0.951742
O O12 0.302617 0.127556 0.000000
O O13 0.712514 0.117458 0.500000
O O14 0.833483 0.166518 0.445773
O O15 0.755133 0.000000 0.443759
O O16 0.500000 0.118647 0.896764
O O17 0.636086 0.000000 0.877403
O O18 0.500000 0.734254 0.688508
O O19 0.331598 0.668403 0.688804
O O20 0.357282 0.847888 0.706457
O O21 0.500000 0.903875 0.250636
O O22 0.342334 0.000000 0.250909
#
# Coordination Sequence:
#
# PCOD8312410 Si02
#       7
#    16  16  16  16  16  16  16
#     4  10  19  30  45  64  87 114 142 174 212 255
#     4   9  18  31  46  66  93 124 157 191 225 264
#     4   9  17  28  42  61  85 112 141 174 212 254
#     4   9  18  32  49  69  92 117 147 186 232 281
#     4   9  17  29  45  64  85 110 141 176 213 252
#     4   9  17  29  45  66  92 120 149 181 217 258
#     4   9  17  29  44  62  85 112 142 176 212 249
#
# _framework density 16.056186
#
# number of rings (size 3 to 8) (size 9 to 14) (size 15 to 20)
#    0.000    2.857    0.000    1.286    0.000    3.857 
#    0.000    6.429    0.000    2.571    0.000    2.000 
#    0.000   12.571    0.000   13.286    0.000    0.429 
#
# Total GULP energy -1388670.063342 kJ/mol
# GULP energy per Si atom -12398.839851 kJ/mol
# Density = 1.601964 g / cm^3
# Si number density = 16.056186 Si / 1000 Ang^3
#
#
#
# Elastic Constant Matrix: (Units=GPa)
#
#
# Indices 1 2 3 4 5 6 
#
# 1 89.3104 49.1950 54.6998 0.0000 0.0000 0.0000
# 2 49.1950 89.3104 54.6998 0.0000 0.0000 0.0000
# 3 54.6998 54.6998 92.1097 0.0000 0.0000 0.0000
# 4 0.0000 0.0000 0.0000 25.3484 0.0000 0.0000
# 5 0.0000 0.0000 0.0000 0.0000 25.3484 0.0000
# 6 0.0000 0.0000 0.0000 0.0000 0.0000 19.8877
#
#
#
# Elastic Compliance Matrix: (Units=1/GPa)
#
#
# Indices 1 2 3 4 5 6 
#
# 1 0.019263 -0.005665 -0.008075 0.000000 0.000000 0.000000
# 2 -0.005665 0.019263 -0.008075 0.000000 0.000000 0.000000
# 3 -0.008075 -0.008075 0.020448 0.000000 0.000000 0.000000
# 4 0.000000 0.000000 0.000000 0.039450 0.000000 0.000000
# 5 0.000000 0.000000 0.000000 0.000000 0.039450 0.000000
# 6 0.000000 0.000000 0.000000 0.000000 0.000000 0.050282
#
#
# Mechanical properties :
#
#
# Convention : Reuss Voigt Hill
#
# Bulk Modulus (GPa) = 65.17696 65.32441 65.25068
# Shear Modulus (GPa) = 21.10568 21.59264 21.34916
#
# Velocity S-wave (km/s) = 3.62952 3.67115 3.65040
# Velocity P-wave (km/s) = 7.63189 7.66440 7.64816
#
# Compressibility (1/GPa) = 0.01534285
#
# Stress axis : x y z
#
# Youngs Moduli (GPa) = 51.91231 51.91231 48.90463
#
# Poissons Ratio (x) = 0.29407 0.39493
# Poissons Ratio (y) = 0.29407 0.39493
# Poissons Ratio (z) = 0.41922 0.41922
#
# Static dielectric constant tensor:
#      x y z
#    x 2.972240 0.000000 0.000000 
#    y 0.000000 2.972240 0.000000 
#    z 0.000000 0.000000 3.227890 
# 
# 
# High freq. dielectric constant tensor:
#      x y z
#    x 1.603770 0.000000 0.000000 
#    y 0.000000 1.603770 0.000000 
#    z 0.000000 0.000000 1.628820 
# 
# From -- ./inp_files/8717.got.cif
#   From: 2010.03.12/outbox.cif.g09.slc.cpg/sg123_5_cif.got.tgz:8717.got - 2010.04.06 16:26:55.
