data_PCOD8312039
_publ_section_title
;
Structure prediction by ZEFSAII (Michael W. Deem and Ramdas Pophale) SiO2 
 PCOD8312039
Probable space group: I -4 2 D
;
_chemical_formula_sum "Si O2"
_cell_formula_units_Z 88
_cell_length_a 13.926046
_cell_length_b 13.926046
_cell_length_c 20.055777
_cell_angle_alpha 90.000000
_cell_angle_beta 90.000000
_cell_angle_gamma 90.000000
_cell_volume 3889.512243
_symmetry_space_group_name_H-M "I -4 2 D"
_symmetry_group_IT_number 122
_symmetry_cell_setting 'tetragonal'
loop_
_space_group_symop_operation_xyz
x,y,z
y,-x,-z
-x,-y,z
-y,x,-z
x,1/2-y,1/4-z
-x,1/2+y,1/4-z
-y,1/2-x,1/4+z
y,1/2+x,1/4+z
1/2+x,1/2+y,1/2+z
1/2+y,1/2-x,1/2-z
1/2-x,1/2-y,1/2+z
1/2-y,1/2+x,1/2-z
1/2+x,-y,3/4-z
1/2-x,y,3/4-z
1/2-y,-x,3/4+z
1/2+y,x,3/4+z
loop_
_atom_site_type_symbol
_atom_site_label
_atom_site_fract_x
_atom_site_fract_y
_atom_site_fract_z
Si Si1 0.767288 0.884112 0.041538
Si Si2 0.500000 0.000000 0.377720
Si Si3 0.301619 0.241280 0.932782
Si Si4 0.987223 0.201711 0.421243
Si Si5 0.094696 0.658667 0.526694
Si Si6 0.750060 0.053408 0.948936
O O1 0.730643 0.914028 0.113359
O O2 0.858607 0.820898 0.053006
O O3 0.688115 0.820341 0.000832
O O4 0.794563 0.976968 0.999290
O O5 0.527394 0.086394 0.326895
O O6 0.408024 0.030604 0.423827
O O7 0.250000 0.176430 0.875000
O O8 0.402526 0.277728 0.904414
O O9 0.224223 0.327587 0.936834
O O10 0.967510 0.260339 0.488383
O O11 0.144324 0.585321 0.474175
O O12 0.750000 0.009305 0.875000
#
# Coordination Sequence:
#
# PCOD8312039 Si02
#       6
#    16   8  16  16  16  16
#     4  11  23  42  69 102 141 191 234 293 359 429
#     4  12  24  48  75 102 149 190 246 298 370 448
#     4  11  23  46  68  98 147 184 230 305 360 421
#     4  12  24  43  73 104 138 183 245 295 360 433
#     4  11  25  45  72 104 140 190 244 295 369 432
#     4  11  22  43  67 101 146 185 240 294 353 430
#
# _framework density 22.624946000000001
#
# number of rings (size 3 to 8) (size 9 to 14) (size 15 to 20)
#    0.000    0.727    5.455    2.727    0.000    1.818 
#    0.000    1.818    0.000    0.000    0.000    0.000 
#    0.000    0.000    0.000    0.000    0.000    0.000 
#
# Total GULP energy -545109.502140 kJ/mol
# GULP energy per Si atom -12388.852321 kJ/mol
# Density = 2.257345 g / cm^3
# Si number density = 22.624946 Si / 1000 Ang^3
#
#
#
# Elastic Constant Matrix: (Units=GPa)
#
#
# Indices 1 2 3 4 5 6 
#
# 1 94.9774 28.6108 18.8400 0.0000 0.0000 0.0000
# 2 28.6108 94.9774 18.8400 0.0000 0.0000 0.0000
# 3 18.8400 18.8400 51.5071 0.0000 0.0000 0.0000
# 4 0.0000 0.0000 0.0000 0.3909 0.0000 0.0000
# 5 0.0000 0.0000 0.0000 0.0000 0.3909 0.0000
# 6 0.0000 0.0000 0.0000 0.0000 0.0000 132.6638
#
#
#
# Elastic Compliance Matrix: (Units=1/GPa)
#
#
# Indices 1 2 3 4 5 6 
#
# 1 0.012087 -0.002980 -0.003331 0.000000 0.000000 0.000000
# 2 -0.002980 0.012087 -0.003331 0.000000 0.000000 0.000000
# 3 -0.003331 -0.003331 0.021852 0.000000 0.000000 0.000000
# 4 0.000000 0.000000 0.000000 2.557996 -0.000017 0.000000
# 5 0.000000 0.000000 0.000000 -0.000017 2.558017 0.000000
# 6 0.000000 0.000000 0.000000 0.000000 0.000000 0.007538
#
#
# Mechanical properties :
#
#
# Convention : Reuss Voigt Hill
#
# Bulk Modulus (GPa) = 37.39546 41.56040 39.47793
# Shear Modulus (GPa) = 0.96195 38.36720 19.66457
#
# Velocity S-wave (km/s) = 0.65276 4.12247 2.95134
# Velocity P-wave (km/s) = 4.13913 6.40849 5.39450
#
# Compressibility (1/GPa) = 0.02674122
#
# Stress axis : x y z
#
# Youngs Moduli (GPa) = 82.73075 82.73076 45.76310
#
# Poissons Ratio (x) = 0.24657 0.15244
# Poissons Ratio (y) = 0.24657 0.15244
# Poissons Ratio (z) = 0.27558 0.27558
#
# Static dielectric constant tensor:
#      x y z
#    x 4.265560 0.000000 0.000000 
#    y 0.000000 4.265560 0.000000 
#    z 0.000000 0.000000 4.233350 
# 
# 
# High freq. dielectric constant tensor:
#      x y z
#    x 1.893770 0.000000 0.000000 
#    y 0.000000 1.893770 0.000000 
#    z 0.000000 0.000000 1.906450 
# 
# From -- ./inp_files/7201.got.cif
#   From: 2010.03.12/outbox.cif.g09.slc.cpg/sg122_4_cif.got.tgz:7201.got - 2010.04.06 16:17:16.
