data_PCOD8312439
_publ_section_title
;
Structure prediction by ZEFSAII (Michael W. Deem and Ramdas Pophale) SiO2 
 PCOD8312439
Probable space group: P 4/M M M
;
_chemical_formula_sum "Si O2"
_cell_formula_units_Z 72
_cell_length_a 13.598855
_cell_length_b 13.598855
_cell_length_c 23.079330
_cell_angle_alpha 90.000000
_cell_angle_beta 90.000000
_cell_angle_gamma 90.000000
_cell_volume 4268.034124
_symmetry_space_group_name_H-M "P 4/M M M"
_symmetry_group_IT_number 123
_symmetry_cell_setting 'tetragonal'
loop_
_space_group_symop_operation_xyz
x,y,z
-y,x,z
-x,-y,z
y,-x,z
x,-y,-z
-x,y,-z
y,x,-z
-y,-x,-z
-x,-y,-z
y,-x,-z
x,y,-z
-y,x,-z
-x,y,z
x,-y,z
-y,-x,z
y,x,z
loop_
_atom_site_type_symbol
_atom_site_label
_atom_site_fract_x
_atom_site_fract_y
_atom_site_fract_z
Si Si1 0.615285 0.771013 0.000000
Si Si2 0.275222 0.884656 0.770972
Si Si3 0.388166 0.885721 0.886657
Si Si4 0.890422 0.616560 0.436054
Si Si5 0.226189 0.615986 0.674685
O O1 0.650031 0.829751 0.056686
O O2 0.500000 0.754188 0.000000
O O3 0.664606 0.664606 0.000000
O O4 0.173195 0.826806 0.761735
O O5 0.319102 0.856932 0.833321
O O6 0.355387 0.853122 0.723340
O O7 0.253688 0.000000 0.764976
O O8 0.500000 0.855795 0.871200
O O9 0.381527 0.000000 0.901074
O O10 0.853695 0.650454 0.500000
O O11 0.895991 0.500000 0.433296
O O12 0.815634 0.653546 0.387069
O O13 0.000000 0.659128 0.424471
O O14 0.245762 0.500000 0.676417
O O15 0.329509 0.670492 0.686035
#
# Coordination Sequence:
#
# PCOD8312439 Si02
#       5
#     8  16  16  16  16
#     4  10  19  30  45  65  92 124 155 189 226 265
#     4  10  20  33  50  72  96 122 153 190 234 284
#     4   9  17  30  49  71  92 116 150 191 232 273
#     4   8  14  26  45  67  89 115 150 192 234 273
#     4  10  20  32  47  68  94 125 161 199 238 281
#
# _framework density 16.869593999999999
#
# number of rings (size 3 to 8) (size 9 to 14) (size 15 to 20)
#    0.000    2.667    0.000    3.000    0.000    4.556 
#    0.000    0.000    0.000    0.000    0.000    6.222 
#    0.000    8.000    0.000   20.667    0.000    1.111 
#
# Total GULP energy -892657.774614 kJ/mol
# GULP energy per Si atom -12398.024647 kJ/mol
# Density = 1.683120 g / cm^3
# Si number density = 16.869594 Si / 1000 Ang^3
#
#
#
# Elastic Constant Matrix: (Units=GPa)
#
#
# Indices 1 2 3 4 5 6 
#
# 1 70.4431 37.6681 44.4828 0.0000 0.0000 0.0000
# 2 37.6681 70.4431 44.4828 0.0000 0.0000 0.0000
# 3 44.4828 44.4828 123.5940 0.0000 0.0000 0.0000
# 4 0.0000 0.0000 0.0000 21.8461 0.0000 0.0000
# 5 0.0000 0.0000 0.0000 0.0000 21.8461 0.0000
# 6 0.0000 0.0000 0.0000 0.0000 0.0000 18.8267
#
#
#
# Elastic Compliance Matrix: (Units=1/GPa)
#
#
# Indices 1 2 3 4 5 6 
#
# 1 0.021827 -0.008684 -0.004730 0.000000 0.000000 0.000000
# 2 -0.008684 0.021827 -0.004730 0.000000 0.000000 0.000000
# 3 -0.004730 -0.004730 0.011496 0.000000 0.000000 0.000000
# 4 0.000000 0.000000 0.000000 0.045775 0.000000 0.000000
# 5 0.000000 0.000000 0.000000 0.000000 0.045775 0.000000
# 6 0.000000 0.000000 0.000000 0.000000 0.000000 0.053116
#
#
# Mechanical properties :
#
#
# Convention : Reuss Voigt Hill
#
# Bulk Modulus (GPa) = 53.02228 57.52750 55.27489
# Shear Modulus (GPa) = 20.62792 21.69355 21.16073
#
# Velocity S-wave (km/s) = 3.50063 3.58991 3.54555
# Velocity P-wave (km/s) = 6.91651 7.16649 7.04261
#
# Compressibility (1/GPa) = 0.01886000
#
# Stress axis : x y z
#
# Youngs Moduli (GPa) = 45.81581 45.81581 86.98877
#
# Poissons Ratio (x) = 0.39789 0.41145
# Poissons Ratio (y) = 0.39789 0.41145
# Poissons Ratio (z) = 0.21671 0.21671
#
# Static dielectric constant tensor:
#      x y z
#    x 2.943440 0.000000 0.000000 
#    y 0.000000 2.943440 0.000000 
#    z 0.000000 0.000000 3.456220 
# 
# 
# High freq. dielectric constant tensor:
#      x y z
#    x 1.632720 0.000000 0.000000 
#    y 0.000000 1.632720 0.000000 
#    z 0.000000 0.000000 1.669370 
# 
# From -- ./inp_files/7089.got.cif
#   From: 2010.03.12/outbox.cif.g09.slc.cpg/sg123_4_cif.got.tgz:7089.got - 2010.04.06 16:26:55.
