data_PCOD8312990
_publ_section_title
;
Structure prediction by ZEFSAII (Michael W. Deem and Ramdas Pophale) SiO2 
 PCOD8312990
Probable space group: P 4/M M M
;
_chemical_formula_sum "Si O2"
_cell_formula_units_Z 80
_cell_length_a 20.089160
_cell_length_b 20.089160
_cell_length_c 13.949556
_cell_angle_alpha 90.000000
_cell_angle_beta 90.000000
_cell_angle_gamma 90.000000
_cell_volume 5629.682989
_symmetry_space_group_name_H-M "P 4/M M M"
_symmetry_group_IT_number 123
_symmetry_cell_setting 'tetragonal'
loop_
_space_group_symop_operation_xyz
x,y,z
-y,x,z
-x,-y,z
y,-x,z
x,-y,-z
-x,y,-z
y,x,-z
-y,-x,-z
-x,-y,-z
y,-x,-z
x,y,-z
-y,x,-z
-x,y,z
x,-y,z
-y,-x,z
y,x,z
loop_
_atom_site_type_symbol
_atom_site_label
_atom_site_fract_x
_atom_site_fract_y
_atom_site_fract_z
Si Si1 0.076048 0.184139 0.111042
Si Si2 0.330843 0.219271 0.394289
Si Si3 0.629705 0.740929 0.105248
Si Si4 0.720298 0.167545 0.789251
Si Si5 0.685306 0.575318 0.289360
O O1 0.118593 0.118593 0.136511
O O2 0.098678 0.247405 0.174899
O O3 0.000000 0.167625 0.136002
O O4 0.085388 0.203516 0.000000
O O5 0.343342 0.188175 0.500000
O O6 0.272875 0.272875 0.398933
O O7 0.308493 0.161501 0.319490
O O8 0.397162 0.256591 0.358236
O O9 0.690330 0.690330 0.099400
O O10 0.659318 0.811467 0.141543
O O11 0.576082 0.712117 0.179942
O O12 0.596838 0.750258 0.000000
O O13 0.775965 0.224036 0.793803
O O14 0.668537 0.500000 0.318801
O O15 0.618323 0.618323 0.300618
#
# Coordination Sequence:
#
# PCOD8312990 Si02
#       5
#    16  16  16  16  16
#     4   9  16  24  35  54  82 114 141 159 174 199
#     4   8  14  25  40  55  69  86 112 153 203 241
#     4   8  13  22  36  51  67  89 119 159 203 235
#     4   8  13  22  37  55  72  92 122 158 194 228
#     4   9  17  26  35  50  72  99 129 155 181 219
#
# _framework density 14.210392000000001
#
# number of rings (size 3 to 8) (size 9 to 14) (size 15 to 20)
#    0.000    3.600    0.000    3.000    0.000    3.600 
#    0.000    1.000    0.000    0.600    0.000    5.600 
#    0.000   12.800    0.000   59.000    0.000    5.000 
#
# Total GULP energy -991173.408418 kJ/mol
# GULP energy per Si atom -12389.667605 kJ/mol
# Density = 1.417805 g / cm^3
# Si number density = 14.210392 Si / 1000 Ang^3
#
#
#
# Elastic Constant Matrix: (Units=GPa)
#
#
# Indices 1 2 3 4 5 6 
#
# 1 48.7187 43.6354 26.6108 0.0000 0.0000 0.0000
# 2 43.6354 48.7187 26.6108 0.0000 0.0000 0.0000
# 3 26.6108 26.6108 97.2930 0.0000 0.0000 0.0000
# 4 0.0000 0.0000 0.0000 11.9421 0.0000 0.0000
# 5 0.0000 0.0000 0.0000 0.0000 11.9421 0.0000
# 6 0.0000 0.0000 0.0000 0.0000 0.0000 10.7483
#
#
#
# Elastic Compliance Matrix: (Units=1/GPa)
#
#
# Indices 1 2 3 4 5 6 
#
# 1 0.104789 -0.091935 -0.003516 0.000000 0.000000 0.000000
# 2 -0.091935 0.104789 -0.003516 0.000000 0.000000 0.000000
# 3 -0.003516 -0.003516 0.012201 0.000000 0.000000 0.000000
# 4 0.000000 0.000000 0.000000 0.083737 0.000000 0.000000
# 5 0.000000 0.000000 0.000000 0.000000 0.083737 0.000000
# 6 0.000000 0.000000 0.000000 0.000000 0.000000 0.093038
#
#
# Mechanical properties :
#
#
# Convention : Reuss Voigt Hill
#
# Bulk Modulus (GPa) = 41.93500 43.16048 42.54774
# Shear Modulus (GPa) = 7.26560 13.45139 10.35849
#
# Velocity S-wave (km/s) = 2.26362 3.08001 2.70281
# Velocity P-wave (km/s) = 6.03375 6.56407 6.30449
#
# Compressibility (1/GPa) = 0.02384643
#
# Stress axis : x y z
#
# Youngs Moduli (GPa) = 9.54297 9.54297 81.95777
#
# Poissons Ratio (x) = 0.87734 0.28814
# Poissons Ratio (y) = 0.87734 0.28814
# Poissons Ratio (z) = 0.03355 0.03355
#
# Static dielectric constant tensor:
#      x y z
#    x 2.508320 0.000000 0.000000 
#    y 0.000000 2.508320 0.000000 
#    z 0.000000 0.000000 3.311020 
# 
# 
# High freq. dielectric constant tensor:
#      x y z
#    x 1.505710 0.000000 0.000000 
#    y 0.000000 1.505710 0.000000 
#    z 0.000000 0.000000 1.548740 
# 
# From -- ./inp_files/4208.got.cif
#   From: 2010.03.12/outbox.cif.g09.slc.cpg/sg123_3_cif.got.tgz:4208.got - 2010.04.06 16:26:55.
