data_PCOD8312152
_publ_section_title
;
Structure prediction by ZEFSAII (Michael W. Deem and Ramdas Pophale) SiO2 
 PCOD8312152
Probable space group: P 4/M M M
;
_chemical_formula_sum "Si O2"
_cell_formula_units_Z 112
_cell_length_a 18.006734
_cell_length_b 18.006734
_cell_length_c 25.534726
_cell_angle_alpha 90.000000
_cell_angle_beta 90.000000
_cell_angle_gamma 90.000000
_cell_volume 8279.442612
_symmetry_space_group_name_H-M "P 4/M M M"
_symmetry_group_IT_number 123
_symmetry_cell_setting 'tetragonal'
loop_
_space_group_symop_operation_xyz
x,y,z
-y,x,z
-x,-y,z
y,-x,z
x,-y,-z
-x,y,-z
y,x,-z
-y,-x,-z
-x,-y,-z
y,-x,-z
x,y,-z
-y,x,-z
-x,y,z
x,-y,z
-y,-x,z
y,x,z
loop_
_atom_site_type_symbol
_atom_site_label
_atom_site_fract_x
_atom_site_fract_y
_atom_site_fract_z
Si Si1 0.202303 0.084568 0.059249
Si Si2 0.584358 0.915070 0.809716
Si Si3 0.914501 0.799250 0.747764
Si Si4 0.915709 0.201863 0.559403
Si Si5 0.720315 0.837085 0.651424
Si Si6 0.084408 0.584448 0.686127
Si Si7 0.156383 0.724665 0.154668
O O1 0.120859 0.120859 0.063918
O O2 0.259121 0.127780 0.096432
O O3 0.194310 0.000000 0.077297
O O4 0.233048 0.090979 0.000000
O O5 0.500000 0.897985 0.826822
O O6 0.593446 0.906904 0.747920
O O7 0.635885 0.851959 0.837367
O O8 0.605493 0.000000 0.826217
O O9 0.881770 0.881770 0.749141
O O10 0.880919 0.754576 0.699741
O O11 0.898581 0.759810 0.802730
O O12 0.000000 0.806273 0.737717
O O13 0.910181 0.231994 0.500000
O O14 0.879628 0.120373 0.564205
O O15 0.872255 0.258864 0.595942
O O16 0.000000 0.194415 0.578256
O O17 0.751206 0.751206 0.653299
O O18 0.631991 0.850314 0.657558
O O19 0.097903 0.500000 0.668746
O O20 0.000000 0.608937 0.670173
O O21 0.240042 0.759959 0.161956
#
# Coordination Sequence:
#
# PCOD8312152 Si02
#       7
#    16  16  16  16  16  16  16
#     4   9  17  27  38  52  70  97 133 167 196 223
#     4   9  16  25  39  58  78 100 125 154 188 227
#     4  10  18  25  35  51  71  97 124 150 184 222
#     4   9  17  27  38  52  70  97 133 167 196 223
#     4  10  18  27  40  56  75  98 123 155 193 232
#     4   9  16  25  39  58  78 100 125 154 188 227
#     4  10  18  27  40  56  75  98 123 155 193 232
#
# _framework density 13.527480000000001
#
# number of rings (size 3 to 8) (size 9 to 14) (size 15 to 20)
#    0.000    2.571    1.429    3.429    0.000    0.429 
#    0.000    1.429    0.000    6.000    0.000    4.000 
#    0.000    0.571    0.000    3.143    0.000    0.000 
#
# Total GULP energy -1387746.673039 kJ/mol
# GULP energy per Si atom -12390.595295 kJ/mol
# Density = 1.349669 g / cm^3
# Si number density = 13.527480 Si / 1000 Ang^3
#
#
#
# Elastic Constant Matrix: (Units=GPa)
#
#
# Indices 1 2 3 4 5 6 
#
# 1 82.0669 36.6660 17.1330 0.0000 0.0000 0.0000
# 2 36.6660 82.0669 17.1330 0.0000 0.0000 0.0000
# 3 17.1330 17.1330 47.5664 0.0000 0.0000 0.0000
# 4 0.0000 0.0000 0.0000 14.4575 0.0000 0.0000
# 5 0.0000 0.0000 0.0000 0.0000 14.4575 0.0000
# 6 0.0000 0.0000 0.0000 0.0000 0.0000 17.9315
#
#
#
# Elastic Compliance Matrix: (Units=1/GPa)
#
#
# Indices 1 2 3 4 5 6 
#
# 1 0.015713 -0.006313 -0.003386 0.000000 0.000000 0.000000
# 2 -0.006313 0.015713 -0.003386 0.000000 0.000000 0.000000
# 3 -0.003386 -0.003386 0.023462 0.000000 0.000000 0.000000
# 4 0.000000 0.000000 0.000000 0.069168 0.000000 0.000000
# 5 0.000000 0.000000 0.000000 0.000000 0.069168 0.000000
# 6 0.000000 0.000000 0.000000 0.000000 0.000000 0.055768
#
#
# Mechanical properties :
#
#
# Convention : Reuss Voigt Hill
#
# Bulk Modulus (GPa) = 34.82066 39.28490 37.05278
# Shear Modulus (GPa) = 17.56027 18.75384 18.15706
#
# Velocity S-wave (km/s) = 3.60685 3.72741 3.66763
# Velocity P-wave (km/s) = 6.56829 6.90135 6.73688
#
# Compressibility (1/GPa) = 0.02871858
#
# Stress axis : x y z
#
# Youngs Moduli (GPa) = 63.64298 63.64298 42.62186
#
# Poissons Ratio (x) = 0.40180 0.14430
# Poissons Ratio (y) = 0.40180 0.14430
# Poissons Ratio (z) = 0.21547 0.21547
#
# Static dielectric constant tensor:
#      x y z
#    x 2.669470 0.000000 0.000000 
#    y 0.000000 2.669470 0.000000 
#    z 0.000000 0.000000 2.752870 
# 
# 
# High freq. dielectric constant tensor:
#      x y z
#    x 1.490240 0.000000 0.000000 
#    y 0.000000 1.490240 0.000000 
#    z 0.000000 0.000000 1.515290 
# 
# From -- ./inp_files/7559.got.cif
#   From: 2010.03.12/outbox.cif.g09.slc.cpg/sg123_4_cif.got.tgz:7559.got - 2010.04.06 16:26:55.
