data_PCOD8312901
_publ_section_title
;
Structure prediction by ZEFSAII (Michael W. Deem and Ramdas Pophale) SiO2 
 PCOD8312901
Probable space group: P 4/M M M
;
_chemical_formula_sum "Si O2"
_cell_formula_units_Z 96
_cell_length_a 24.311308
_cell_length_b 24.311308
_cell_length_c 8.745435
_cell_angle_alpha 90.000000
_cell_angle_beta 90.000000
_cell_angle_gamma 90.000000
_cell_volume 5168.899250
_symmetry_space_group_name_H-M "P 4/M M M"
_symmetry_group_IT_number 123
_symmetry_cell_setting 'tetragonal'
loop_
_space_group_symop_operation_xyz
x,y,z
-y,x,z
-x,-y,z
y,-x,z
x,-y,-z
-x,y,-z
y,x,-z
-y,-x,-z
-x,-y,-z
y,-x,-z
x,y,-z
-y,x,-z
-x,y,z
x,-y,z
-y,-x,z
y,x,z
loop_
_atom_site_type_symbol
_atom_site_label
_atom_site_fract_x
_atom_site_fract_y
_atom_site_fract_z
Si Si1 0.730923 0.642695 0.178066
Si Si2 0.562478 0.649829 0.325812
Si Si3 0.437182 0.062430 0.180361
Si Si4 0.355612 0.152089 0.319258
Si Si5 0.233100 0.146753 0.318102
Si Si6 0.060454 0.853505 0.682019
O O1 0.699061 0.699061 0.229298
O O2 0.692208 0.591069 0.211371
O O3 0.786098 0.630344 0.271364
O O4 0.745123 0.645075 0.000000
O O5 0.567696 0.671711 0.500000
O O6 0.500000 0.643487 0.273711
O O7 0.590132 0.590132 0.310730
O O8 0.500000 0.074674 0.231165
O O9 0.397434 0.106953 0.255802
O O10 0.421101 0.000000 0.230661
O O11 0.431731 0.068102 0.000000
O O12 0.357337 0.147493 0.500000
O O13 0.294453 0.141156 0.252428
O O14 0.234233 0.147581 0.500000
O O15 0.202745 0.202745 0.260455
O O16 0.199280 0.094072 0.258220
O O17 0.057271 0.851855 0.500000
O O18 0.090916 0.909085 0.735463
O O19 0.000000 0.852408 0.755919
#
# Coordination Sequence:
#
# PCOD8312901 Si02
#       6
#    16  16  16  16  16  16
#     4  10  21  36  53  74 103 139 176 213 254 302
#     4   9  18  33  53  77 105 136 170 210 255 300
#     4   9  20  40  60  75  98 133 167 202 250 307
#     4  11  21  32  53  81 103 127 164 210 256 305
#     4   8  15  27  41  61  93 129 159 192 241 294
#     4   8  13  21  33  51  80 119 159 196 232 271
#
# _framework density 18.572619
#
# number of rings (size 3 to 8) (size 9 to 14) (size 15 to 20)
#    0.000    2.833    0.000    3.000    0.000    4.333 
#    0.000    4.167    0.000    0.000    0.000    2.333 
#    0.000    0.000    0.000    0.000    0.000    0.500 
#
# Total GULP energy -1189859.060700 kJ/mol
# GULP energy per Si atom -12394.365216 kJ/mol
# Density = 1.853035 g / cm^3
# Si number density = 18.572619 Si / 1000 Ang^3
#
#
#
# Elastic Constant Matrix: (Units=GPa)
#
#
# Indices 1 2 3 4 5 6 
#
# 1 141.4960 99.2344 29.6585 0.0000 0.0000 0.0000
# 2 99.2344 141.4960 29.6585 0.0000 0.0000 0.0000
# 3 29.6585 29.6585 30.5318 0.0000 0.0000 0.0000
# 4 0.0000 0.0000 0.0000 19.3922 0.0000 0.0000
# 5 0.0000 0.0000 0.0000 0.0000 19.3922 0.0000
# 6 0.0000 0.0000 0.0000 0.0000 0.0000 27.2372
#
#
#
# Elastic Compliance Matrix: (Units=1/GPa)
#
#
# Indices 1 2 3 4 5 6 
#
# 1 0.014562 -0.009100 -0.005305 0.000000 0.000000 0.000000
# 2 -0.009100 0.014562 -0.005305 0.000000 0.000000 0.000000
# 3 -0.005305 -0.005305 0.043059 0.000000 0.000000 0.000000
# 4 0.000000 0.000000 0.000000 0.051567 0.000000 0.000000
# 5 0.000000 0.000000 0.000000 0.000000 0.051567 0.000000
# 6 0.000000 0.000000 0.000000 0.000000 0.000000 0.036714
#
#
# Mechanical properties :
#
#
# Convention : Reuss Voigt Hill
#
# Bulk Modulus (GPa) = 30.52343 70.06961 50.29652
# Shear Modulus (GPa) = 19.05685 23.53582 21.29634
#
# Velocity S-wave (km/s) = 3.20671 3.56368 3.38990
# Velocity P-wave (km/s) = 5.49372 7.39881 6.51626
#
# Compressibility (1/GPa) = 0.03276171
#
# Stress axis : x y z
#
# Youngs Moduli (GPa) = 68.67341 68.67341 23.22378
#
# Poissons Ratio (x) = 0.62496 0.12320
# Poissons Ratio (y) = 0.62496 0.12320
# Poissons Ratio (z) = 0.36431 0.36431
#
# Static dielectric constant tensor:
#      x y z
#    x 3.615370 0.000000 0.000000 
#    y 0.000000 3.615370 0.000000 
#    z 0.000000 0.000000 3.028660 
# 
# 
# High freq. dielectric constant tensor:
#      x y z
#    x 1.725850 0.000000 0.000000 
#    y 0.000000 1.725850 0.000000 
#    z 0.000000 0.000000 1.684680 
# 
# From -- ./inp_files/1654.got.cif
#   From: 2010.03.12/outbox.cif.g09.slc.cpg/sg123_1_cif.got.tgz:1654.got - 2010.04.06 16:26:55.
