data_PCOD8312407
_publ_section_title
;
Structure prediction by ZEFSAII (Michael W. Deem and Ramdas Pophale) SiO2 
 PCOD8312407
Probable space group: P 4/M M M
;
_chemical_formula_sum "Si O2"
_cell_formula_units_Z 72
_cell_length_a 14.164636
_cell_length_b 14.164636
_cell_length_c 22.878871
_cell_angle_alpha 90.000000
_cell_angle_beta 90.000000
_cell_angle_gamma 90.000000
_cell_volume 4590.346051
_symmetry_space_group_name_H-M "P 4/M M M"
_symmetry_group_IT_number 123
_symmetry_cell_setting 'tetragonal'
loop_
_space_group_symop_operation_xyz
x,y,z
-y,x,z
-x,-y,z
y,-x,z
x,-y,-z
-x,y,-z
y,x,-z
-y,-x,-z
-x,-y,-z
y,-x,-z
x,y,-z
-y,x,-z
-x,y,z
x,-y,z
-y,-x,z
y,x,z
loop_
_atom_site_type_symbol
_atom_site_label
_atom_site_fract_x
_atom_site_fract_y
_atom_site_fract_z
Si Si1 0.891709 0.260436 0.934471
Si Si2 0.264843 0.109995 0.500000
Si Si3 0.610613 0.235036 0.279213
Si Si4 0.892085 0.609683 0.829190
Si Si5 0.608283 0.108431 0.610127
O O1 0.834263 0.165738 0.922322
O O2 0.859919 0.339904 0.888735
O O3 0.000000 0.232499 0.925610
O O4 0.873249 0.299680 0.000000
O O5 0.168154 0.168154 0.500000
O O6 0.326144 0.137267 0.443700
O O7 0.237853 0.000000 0.500000
O O8 0.500000 0.259520 0.276766
O O9 0.667076 0.332925 0.280719
O O10 0.643189 0.174415 0.223411
O O11 0.636104 0.173869 0.335831
O O12 0.879725 0.500000 0.841316
O O13 0.000000 0.634127 0.812383
O O14 0.500000 0.124323 0.591141
O O15 0.624411 0.000000 0.628855
#
# Coordination Sequence:
#
# PCOD8312407 Si02
#       5
#    16   8  16  16  16
#     4   9  17  28  42  61  85 112 140 170 205 247
#     4  10  19  30  45  65  90 118 145 173 206 247
#     4  10  19  30  45  64  87 114 141 171 208 251
#     4   9  17  29  45  64  84 107 138 176 215 250
#     4   9  17  30  48  68  87 108 139 179 218 250
#
# _framework density 15.685091999999999
#
# number of rings (size 3 to 8) (size 9 to 14) (size 15 to 20)
#    0.000    2.667    0.000    2.333    0.000    5.000 
#    0.000    3.333    0.000    0.000    0.000    0.000 
#    0.000   24.000    0.000   20.667    0.000    0.444 
#
# Total GULP energy -892801.932760 kJ/mol
# GULP energy per Si atom -12400.026844 kJ/mol
# Density = 1.564939 g / cm^3
# Si number density = 15.685092 Si / 1000 Ang^3
#
#
#
# Elastic Constant Matrix: (Units=GPa)
#
#
# Indices 1 2 3 4 5 6 
#
# 1 73.2274 53.8231 63.2298 0.0000 0.0000 0.0000
# 2 53.8231 73.2274 63.2298 0.0000 0.0000 0.0000
# 3 63.2298 63.2298 131.2936 0.0000 0.0000 0.0000
# 4 0.0000 0.0000 0.0000 22.4136 0.0000 0.0000
# 5 0.0000 0.0000 0.0000 0.0000 22.4136 0.0000
# 6 0.0000 0.0000 0.0000 0.0000 0.0000 30.0610
#
#
#
# Elastic Compliance Matrix: (Units=1/GPa)
#
#
# Indices 1 2 3 4 5 6 
#
# 1 0.033326 -0.018209 -0.007280 0.000000 0.000000 0.000000
# 2 -0.018209 0.033326 -0.007280 0.000000 0.000000 0.000000
# 3 -0.007280 -0.007280 0.014629 0.000000 0.000000 0.000000
# 4 0.000000 0.000000 0.000000 0.044616 0.000000 0.000000
# 5 0.000000 0.000000 0.000000 0.000000 0.044616 0.000000
# 6 0.000000 0.000000 0.000000 0.000000 0.000000 0.033266
#
#
# Mechanical properties :
#
#
# Convention : Reuss Voigt Hill
#
# Bulk Modulus (GPa) = 63.52397 70.92375 67.22386
# Shear Modulus (GPa) = 18.21063 21.47538 19.84300
#
# Velocity S-wave (km/s) = 3.41106 3.70423 3.56066
# Velocity P-wave (km/s) = 7.49008 7.97562 7.73666
#
# Compressibility (1/GPa) = 0.01574209
#
# Stress axis : x y z
#
# Youngs Moduli (GPa) = 30.00641 30.00641 68.35795
#
# Poissons Ratio (x) = 0.54638 0.49767
# Poissons Ratio (y) = 0.54638 0.49767
# Poissons Ratio (z) = 0.21846 0.21846
#
# Static dielectric constant tensor:
#      x y z
#    x 2.879050 0.000000 0.000000 
#    y 0.000000 2.879050 0.000000 
#    z 0.000000 0.000000 3.165070 
# 
# 
# High freq. dielectric constant tensor:
#      x y z
#    x 1.592410 0.000000 0.000000 
#    y 0.000000 1.592410 0.000000 
#    z 0.000000 0.000000 1.615420 
# 
# From -- ./inp_files/5130.got.cif
#   From: 2010.03.12/outbox.cif.g09.slc.cpg/sg123_3_cif.got.tgz:5130.got - 2010.04.06 16:26:55.
