data_PCOD8312261
_publ_section_title
;
Structure prediction by ZEFSAII (Michael W. Deem and Ramdas Pophale) SiO2 
 PCOD8312261
Probable space group: P 4/M M M
;
_chemical_formula_sum "Si O2"
_cell_formula_units_Z 120
_cell_length_a 18.420607
_cell_length_b 18.420607
_cell_length_c 21.089869
_cell_angle_alpha 90.000000
_cell_angle_beta 90.000000
_cell_angle_gamma 90.000000
_cell_volume 7156.188245
_symmetry_space_group_name_H-M "P 4/M M M"
_symmetry_group_IT_number 123
_symmetry_cell_setting 'tetragonal'
loop_
_space_group_symop_operation_xyz
x,y,z
-y,x,z
-x,-y,z
y,-x,z
x,-y,-z
-x,y,-z
y,x,-z
-y,-x,-z
-x,-y,-z
y,-x,-z
x,y,-z
-y,x,-z
-x,y,z
x,-y,z
-y,-x,z
y,x,z
loop_
_atom_site_type_symbol
_atom_site_label
_atom_site_fract_x
_atom_site_fract_y
_atom_site_fract_z
Si Si1 0.264940 0.852609 0.373360
Si Si2 0.915987 0.350491 0.805826
Si Si3 0.856437 0.416092 0.070560
Si Si4 0.301165 0.417063 0.890265
Si Si5 0.799571 0.916227 0.749836
Si Si6 0.914180 0.795690 0.500000
Si Si7 0.157434 0.581458 0.312057
Si Si8 0.578772 0.308017 0.745985
O O1 0.229171 0.770830 0.371659
O O2 0.223595 0.901922 0.322338
O O3 0.252260 0.890443 0.440290
O O4 0.352210 0.856285 0.360990
O O5 0.899303 0.368577 0.878581
O O6 0.892219 0.267250 0.794620
O O7 0.877333 0.404354 0.756701
O O8 0.000000 0.359436 0.791429
O O9 0.869336 0.500000 0.087865
O O10 0.770996 0.398287 0.070913
O O11 0.886039 0.398304 0.000000
O O12 0.325358 0.500000 0.901424
O O13 0.366423 0.366423 0.914671
O O14 0.282328 0.400732 0.816836
O O15 0.869045 0.869045 0.769843
O O16 0.820799 0.000000 0.758357
O O17 0.873553 0.873553 0.500000
O O18 0.000000 0.810570 0.500000
O O19 0.132159 0.500000 0.336004
O O20 0.242954 0.579567 0.302972
O O21 0.500000 0.345288 0.747904
O O22 0.634148 0.365853 0.718529
#
# Coordination Sequence:
#
# PCOD8312261 Si02
#       8
#    16  16  16  16  16   8  16  16
#     4   9  18  32  50  72 100 133 164 197 237 279
#     4  10  20  33  48  68  93 118 149 190 234 282
#     4  10  20  33  47  64  88 118 153 193 237 282
#     4   9  17  29  44  63  88 117 150 188 229 272
#     4   9  18  32  51  75  99 123 151 185 228 278
#     4  10  20  35  55  77 103 133 162 194 234 280
#     4  10  18  30  49  71  94 125 165 202 235 276
#     4   9  16  26  43  66  92 121 153 192 235 277
#
# _framework density 16.768702999999999
#
# number of rings (size 3 to 8) (size 9 to 14) (size 15 to 20)
#    0.000    2.533    1.333    1.200    0.000    3.667 
#    0.000    2.333    0.000    2.800    0.000    1.867 
#    0.000    0.000    0.000    2.933    0.000   40.000 
#
# Total GULP energy -1487396.445854 kJ/mol
# GULP energy per Si atom -12394.970382 kJ/mol
# Density = 1.673054 g / cm^3
# Si number density = 16.768703 Si / 1000 Ang^3
#
#
#
# Elastic Constant Matrix: (Units=GPa)
#
#
# Indices 1 2 3 4 5 6 
#
# 1 87.1076 45.6111 33.9040 0.0000 0.0000 0.0000
# 2 45.6111 87.1076 33.9040 0.0000 0.0000 0.0000
# 3 33.9040 33.9040 82.8019 0.0000 0.0000 0.0000
# 4 0.0000 0.0000 0.0000 16.4892 0.0000 0.0000
# 5 0.0000 0.0000 0.0000 0.0000 16.4892 0.0000
# 6 0.0000 0.0000 0.0000 0.0000 0.0000 22.2272
#
#
#
# Elastic Compliance Matrix: (Units=1/GPa)
#
#
# Indices 1 2 3 4 5 6 
#
# 1 0.016813 -0.007285 -0.003901 0.000000 0.000000 0.000000
# 2 -0.007285 0.016813 -0.003901 0.000000 0.000000 0.000000
# 3 -0.003901 -0.003901 0.015272 0.000000 0.000000 0.000000
# 4 0.000000 0.000000 0.000000 0.060646 0.000000 0.000000
# 5 0.000000 0.000000 0.000000 0.000000 0.060646 0.000000
# 6 0.000000 0.000000 0.000000 0.000000 0.000000 0.044990
#
#
# Mechanical properties :
#
#
# Convention : Reuss Voigt Hill
#
# Bulk Modulus (GPa) = 53.41152 53.76172 53.58662
# Shear Modulus (GPa) = 19.87308 20.61430 20.24369
#
# Velocity S-wave (km/s) = 3.44631 3.50999 3.47829
# Velocity P-wave (km/s) = 6.91065 6.96829 6.93953
#
# Compressibility (1/GPa) = 0.01872255
#
# Stress axis : x y z
#
# Youngs Moduli (GPa) = 59.47712 59.47712 65.47988
#
# Poissons Ratio (x) = 0.43330 0.25546
# Poissons Ratio (y) = 0.43330 0.25546
# Poissons Ratio (z) = 0.23204 0.23204
#
# Static dielectric constant tensor:
#      x y z
#    x 3.189150 0.000000 0.000000 
#    y 0.000000 3.189150 0.000000 
#    z 0.000000 0.000000 2.982540 
# 
# 
# High freq. dielectric constant tensor:
#      x y z
#    x 1.644080 0.000000 0.000000 
#    y 0.000000 1.644080 0.000000 
#    z 0.000000 0.000000 1.620430 
# 
# From -- ./inp_files/6771.got.cif
#   From: 2010.03.12/outbox.cif.g09.slc.cpg/sg123_4_cif.got.tgz:6771.got - 2010.04.06 16:26:55.
