data_PCOD8312502
_publ_section_title
;
Structure prediction by ZEFSAII (Michael W. Deem and Ramdas Pophale) SiO2 
 PCOD8312502
Probable space group: P 4/M M M
;
_chemical_formula_sum "Si O2"
_cell_formula_units_Z 96
_cell_length_a 24.085566
_cell_length_b 24.085566
_cell_length_c 9.711982
_cell_angle_alpha 90.000000
_cell_angle_beta 90.000000
_cell_angle_gamma 90.000000
_cell_volume 5634.061480
_symmetry_space_group_name_H-M "P 4/M M M"
_symmetry_group_IT_number 123
_symmetry_cell_setting 'tetragonal'
loop_
_space_group_symop_operation_xyz
x,y,z
-y,x,z
-x,-y,z
y,-x,z
x,-y,-z
-x,y,-z
y,x,-z
-y,-x,-z
-x,-y,-z
y,-x,-z
x,y,-z
-y,x,-z
-x,y,z
x,-y,z
-y,-x,z
y,x,z
loop_
_atom_site_type_symbol
_atom_site_label
_atom_site_fract_x
_atom_site_fract_y
_atom_site_fract_z
Si Si1 0.140269 0.636572 0.838072
Si Si2 0.150363 0.237891 0.836492
Si Si3 0.563200 0.347599 0.658135
Si Si4 0.436349 0.753953 0.158282
Si Si5 0.065477 0.562561 0.344253
Si Si6 0.850022 0.937924 0.836254
O O1 0.148291 0.699191 0.781102
O O2 0.195080 0.602395 0.802534
O O3 0.089932 0.607833 0.759088
O O4 0.126631 0.635750 0.000000
O O5 0.205643 0.205643 0.782548
O O6 0.095535 0.204636 0.785999
O O7 0.152058 0.238758 0.000000
O O8 0.570333 0.329772 0.500000
O O9 0.500000 0.362700 0.693663
O O10 0.598260 0.401741 0.694985
O O11 0.584554 0.297054 0.750429
O O12 0.500000 0.769822 0.192336
O O13 0.429382 0.736778 0.000000
O O14 0.086157 0.574089 0.500000
O O15 0.083074 0.500000 0.300140
O O16 0.000000 0.568657 0.336412
O O17 0.905265 0.905265 0.786420
O O18 0.849635 0.000000 0.772511
O O19 0.849851 0.941114 0.000000
#
# Coordination Sequence:
#
# PCOD8312502 Si02
#       6
#    16  16  16  16  16  16
#     4  10  19  30  49  74  93 116 156 198 231 269
#     4   8  15  27  40  58  88 120 147 182 231 279
#     4   9  18  32  49  69  92 118 150 188 230 277
#     4   9  18  31  45  64  91 118 145 183 230 275
#     4   9  19  35  51  68  95 129 158 186 229 283
#     4   8  13  21  33  50  76 111 147 182 219 258
#
# _framework density 17.039217000000001
#
# number of rings (size 3 to 8) (size 9 to 14) (size 15 to 20)
#    0.000    3.167    0.000    2.000    0.000    4.000 
#    0.000    7.500    0.000    0.500    0.000    2.333 
#    0.000    0.000    0.000    0.000    0.000    0.000 
#
# Total GULP energy -1190059.911669 kJ/mol
# GULP energy per Si atom -12396.457413 kJ/mol
# Density = 1.700044 g / cm^3
# Si number density = 17.039217 Si / 1000 Ang^3
#
#
#
# Elastic Constant Matrix: (Units=GPa)
#
#
# Indices 1 2 3 4 5 6 
#
# 1 121.2672 67.0054 34.4524 0.0000 0.0000 0.0000
# 2 67.0054 121.2672 34.4524 0.0000 0.0000 0.0000
# 3 34.4524 34.4524 34.5397 0.0000 0.0000 0.0000
# 4 0.0000 0.0000 0.0000 19.9224 0.0000 0.0000
# 5 0.0000 0.0000 0.0000 0.0000 19.9224 0.0000
# 6 0.0000 0.0000 0.0000 0.0000 0.0000 9.9799
#
#
#
# Elastic Compliance Matrix: (Units=1/GPa)
#
#
# Indices 1 2 3 4 5 6 
#
# 1 0.013397 -0.005032 -0.008344 0.000000 0.000000 0.000000
# 2 -0.005032 0.013397 -0.008344 0.000000 0.000000 0.000000
# 3 -0.008344 -0.008344 0.045598 0.000000 0.000000 0.000000
# 4 0.000000 0.000000 0.000000 0.050195 0.000000 0.000000
# 5 0.000000 0.000000 0.000000 0.000000 0.050195 0.000000
# 6 0.000000 0.000000 0.000000 0.000000 0.000000 0.100202
#
#
# Mechanical properties :
#
#
# Convention : Reuss Voigt Hill
#
# Bulk Modulus (GPa) = 34.53954 60.98826 47.76390
# Shear Modulus (GPa) = 15.33387 19.37584 17.35486
#
# Velocity S-wave (km/s) = 3.00312 3.37580 3.19490
# Velocity P-wave (km/s) = 5.68679 7.14600 6.45774
#
# Compressibility (1/GPa) = 0.02895232
#
# Stress axis : x y z
#
# Youngs Moduli (GPa) = 74.64231 74.64231 21.93062
#
# Poissons Ratio (x) = 0.37560 0.18299
# Poissons Ratio (y) = 0.37560 0.18299
# Poissons Ratio (z) = 0.62283 0.62283
#
# Static dielectric constant tensor:
#      x y z
#    x 3.340280 0.000000 0.000000 
#    y 0.000000 3.340280 0.000000 
#    z 0.000000 0.000000 2.865090 
# 
# 
# High freq. dielectric constant tensor:
#      x y z
#    x 1.660430 0.000000 0.000000 
#    y 0.000000 1.660430 0.000000 
#    z 0.000000 0.000000 1.616170 
# 
# From -- ./inp_files/1634.got.cif
#   From: 2010.03.12/outbox.cif.g09.slc.cpg/sg123_1_cif.got.tgz:1634.got - 2010.04.06 16:26:55.
