data_PCOD8312757
_publ_section_title
;
Structure prediction by ZEFSAII (Michael W. Deem and Ramdas Pophale) SiO2 
 PCOD8312757
Probable space group: P 4/M M M
;
_chemical_formula_sum "Si O2"
_cell_formula_units_Z 88
_cell_length_a 13.654941
_cell_length_b 13.654941
_cell_length_c 28.359161
_cell_angle_alpha 90.000000
_cell_angle_beta 90.000000
_cell_angle_gamma 90.000000
_cell_volume 5287.775815
_symmetry_space_group_name_H-M "P 4/M M M"
_symmetry_group_IT_number 123
_symmetry_cell_setting 'tetragonal'
loop_
_space_group_symop_operation_xyz
x,y,z
-y,x,z
-x,-y,z
y,-x,z
x,-y,-z
-x,y,-z
y,x,-z
-y,-x,-z
-x,-y,-z
y,-x,-z
x,y,-z
-y,x,-z
-x,y,z
x,-y,z
-y,-x,z
y,x,z
loop_
_atom_site_type_symbol
_atom_site_label
_atom_site_fract_x
_atom_site_fract_y
_atom_site_fract_z
Si Si1 0.724679 0.886435 0.847877
Si Si2 0.730020 0.111910 0.049867
Si Si3 0.115151 0.725535 0.407736
Si Si4 0.612989 0.228513 0.667598
Si Si5 0.115920 0.609701 0.500000
Si Si6 0.230300 0.611313 0.775663
O O1 0.823319 0.823319 0.840382
O O2 0.676054 0.865435 0.900173
O O3 0.644277 0.858540 0.809049
O O4 0.752280 0.000000 0.841554
O O5 0.831252 0.168749 0.049732
O O6 0.760687 0.000000 0.049709
O O7 0.671538 0.136270 0.000000
O O8 0.170850 0.829151 0.404977
O O9 0.140477 0.657902 0.362984
O O10 0.151443 0.667890 0.454008
O O11 0.000000 0.747905 0.408460
O O12 0.500000 0.245749 0.654251
O O13 0.670283 0.329718 0.657182
O O14 0.625442 0.196396 0.721802
O O15 0.161316 0.500000 0.500000
O O16 0.000000 0.601755 0.500000
O O17 0.257707 0.500000 0.786453
O O18 0.327093 0.672908 0.787375
#
# Coordination Sequence:
#
# PCOD8312757 Si02
#       6
#    16  16  16  16   8  16
#     4   9  17  28  42  62  89 119 150 183 217 258
#     4   8  13  21  34  53  78 109 143 178 216 256
#     4  10  20  33  49  70  97 129 165 201 233 268
#     4   9  18  32  50  72  95 118 146 183 229 280
#     4   9  17  30  49  71  93 119 153 193 236 277
#     4   9  18  32  49  69  91 114 144 184 229 276
#
# _framework density 16.642158999999999
#
# number of rings (size 3 to 8) (size 9 to 14) (size 15 to 20)
#    0.000    3.000    0.000    0.818    0.000    3.091 
#    0.000    6.364    0.000    2.182    0.000    7.636 
#    0.000    6.545    0.000    7.091    0.000    0.182 
#
# Total GULP energy -1090267.119843 kJ/mol
# GULP energy per Si atom -12389.399089 kJ/mol
# Density = 1.660428 g / cm^3
# Si number density = 16.642159 Si / 1000 Ang^3
#
#
#
# Elastic Constant Matrix: (Units=GPa)
#
#
# Indices 1 2 3 4 5 6 
#
# 1 79.6917 31.9449 52.4129 0.0000 0.0000 0.0000
# 2 31.9449 79.6917 52.4129 0.0000 0.0000 0.0000
# 3 52.4129 52.4129 120.7095 0.0000 0.0000 0.0000
# 4 0.0000 0.0000 0.0000 21.4694 0.0000 0.0000
# 5 0.0000 0.0000 0.0000 0.0000 21.4694 0.0000
# 6 0.0000 0.0000 0.0000 0.0000 0.0000 11.0273
#
#
#
# Elastic Compliance Matrix: (Units=1/GPa)
#
#
# Indices 1 2 3 4 5 6 
#
# 1 0.018034 -0.002910 -0.006567 0.000000 0.000000 0.000000
# 2 -0.002910 0.018034 -0.006567 0.000000 0.000000 0.000000
# 3 -0.006567 -0.006567 0.013987 0.000000 0.000000 0.000000
# 4 0.000000 0.000000 0.000000 0.046578 0.000000 0.000000
# 5 0.000000 0.000000 0.000000 0.000000 0.046578 0.000000
# 6 0.000000 0.000000 0.000000 0.000000 0.000000 0.090684
#
#
# Mechanical properties :
#
#
# Convention : Reuss Voigt Hill
#
# Bulk Modulus (GPa) = 55.65655 61.51492 58.58573
# Shear Modulus (GPa) = 18.38425 20.34800 19.36613
#
# Velocity S-wave (km/s) = 3.32728 3.50047 3.41497
# Velocity P-wave (km/s) = 6.94815 7.30625 7.12945
#
# Compressibility (1/GPa) = 0.01796734
#
# Stress axis : x y z
#
# Youngs Moduli (GPa) = 55.45123 55.45123 71.49414
#
# Poissons Ratio (x) = 0.16136 0.46950
# Poissons Ratio (y) = 0.16136 0.46950
# Poissons Ratio (z) = 0.36414 0.36414
#
# Static dielectric constant tensor:
#      x y z
#    x 2.930250 0.000000 0.000000 
#    y 0.000000 2.930250 0.000000 
#    z 0.000000 0.000000 3.662420 
# 
# 
# High freq. dielectric constant tensor:
#      x y z
#    x 1.619120 0.000000 0.000000 
#    y 0.000000 1.619120 0.000000 
#    z 0.000000 0.000000 1.665720 
# 
# From -- ./inp_files/8011.got.cif
#   From: 2010.03.12/outbox.cif.g09.slc.cpg/sg123_5_cif.got.tgz:8011.got - 2010.04.06 16:26:55.
