data_PCOD8312538
_publ_section_title
;
Structure prediction by ZEFSAII (Michael W. Deem and Ramdas Pophale) SiO2 
 PCOD8312538
Probable space group: P 4/M M M
;
_chemical_formula_sum "Si O2"
_cell_formula_units_Z 104
_cell_length_a 26.758209
_cell_length_b 26.758209
_cell_length_c 8.845720
_cell_angle_alpha 90.000000
_cell_angle_beta 90.000000
_cell_angle_gamma 90.000000
_cell_volume 6333.550990
_symmetry_space_group_name_H-M "P 4/M M M"
_symmetry_group_IT_number 123
_symmetry_cell_setting 'tetragonal'
loop_
_space_group_symop_operation_xyz
x,y,z
-y,x,z
-x,-y,z
y,-x,z
x,-y,-z
-x,y,-z
y,x,-z
-y,-x,-z
-x,-y,-z
y,-x,-z
x,y,-z
-y,x,-z
-x,y,z
x,-y,z
-y,-x,z
y,x,z
loop_
_atom_site_type_symbol
_atom_site_label
_atom_site_fract_x
_atom_site_fract_y
_atom_site_fract_z
Si Si1 0.558658 0.000000 0.323372
Si Si2 0.372279 0.291982 0.676569
Si Si3 0.946652 0.264812 0.821800
Si Si4 0.375494 0.916539 0.821105
Si Si5 0.181699 0.657075 0.678460
Si Si6 0.159101 0.238968 0.821132
Si Si7 0.555928 0.364619 0.820957
O O1 0.581130 0.050008 0.250092
O O2 0.500000 0.000000 0.290428
O O3 0.570821 0.000000 0.500000
O O4 0.381911 0.297383 0.500000
O O5 0.322704 0.322704 0.724918
O O6 0.366315 0.234626 0.724166
O O7 0.420687 0.313030 0.761847
O O8 0.939585 0.322252 0.773631
O O9 0.898903 0.232191 0.767404
O O10 0.000000 0.245759 0.752692
O O11 0.949902 0.261455 0.000000
O O12 0.377492 0.860387 0.755760
O O13 0.382777 0.914934 0.000000
O O14 0.173077 0.658033 0.500000
O O15 0.182309 0.713628 0.738406
O O16 0.189308 0.189308 0.774887
O O17 0.161686 0.249174 0.000000
O O18 0.500000 0.370539 0.756771
O O19 0.588573 0.411428 0.761153
O O20 0.555691 0.363045 0.000000
#
# Coordination Sequence:
#
# PCOD8312538 Si02
#       7
#     8  16  16  16  16  16  16
#     4  11  23  37  53  73  97 123 155 201 250 291
#     4   9  18  32  49  69  95 127 159 188 224 277
#     4   8  13  24  43  64  86 116 152 191 233 277
#     4  10  19  33  52  72  93 120 158 201 240 284
#     4  10  19  31  48  70  95 125 157 192 237 289
#     4   9  17  27  41  65  95 124 157 198 240 285
#     4   9  18  32  50  72  95 118 146 182 225 273
#
# _framework density 16.420489
#
# number of rings (size 3 to 8) (size 9 to 14) (size 15 to 20)
#    0.000    2.692    0.769    2.538    0.000    3.231 
#    0.000    3.077    0.000    0.923    0.000    2.154 
#    0.000    0.308    0.000    4.308    0.000    0.000 
#
# Total GULP energy -1289126.550323 kJ/mol
# GULP energy per Si atom -12395.447599 kJ/mol
# Density = 1.638311 g / cm^3
# Si number density = 16.420489 Si / 1000 Ang^3
#
#
#
# Elastic Constant Matrix: (Units=GPa)
#
#
# Indices 1 2 3 4 5 6 
#
# 1 134.6335 77.9754 37.4302 0.0000 0.0000 0.0000
# 2 77.9754 134.6335 37.4302 0.0000 0.0000 0.0000
# 3 37.4302 37.4302 43.2335 0.0000 0.0000 0.0000
# 4 0.0000 0.0000 0.0000 21.3686 0.0000 0.0000
# 5 0.0000 0.0000 0.0000 0.0000 21.3686 0.0000
# 6 0.0000 0.0000 0.0000 0.0000 0.0000 23.5766
#
#
#
# Elastic Compliance Matrix: (Units=1/GPa)
#
#
# Indices 1 2 3 4 5 6 
#
# 1 0.012208 -0.005442 -0.005858 0.000000 0.000000 0.000000
# 2 -0.005442 0.012208 -0.005858 0.000000 0.000000 0.000000
# 3 -0.005858 -0.005858 0.033273 0.000000 0.000000 0.000000
# 4 0.000000 0.000000 0.000000 0.046798 0.000000 0.000000
# 5 0.000000 0.000000 0.000000 0.000000 0.046798 0.000000
# 6 0.000000 0.000000 0.000000 0.000000 0.000000 0.042415
#
#
# Mechanical properties :
#
#
# Convention : Reuss Voigt Hill
#
# Bulk Modulus (GPa) = 42.78252 68.68579 55.73415
# Shear Modulus (GPa) = 21.20392 23.90708 22.55550
#
# Velocity S-wave (km/s) = 3.59738 3.81980 3.71026
# Velocity P-wave (km/s) = 6.58527 7.83420 7.23673
#
# Compressibility (1/GPa) = 0.02337403
#
# Stress axis : x y z
#
# Youngs Moduli (GPa) = 81.91432 81.91432 30.05421
#
# Poissons Ratio (x) = 0.44577 0.17605
# Poissons Ratio (y) = 0.44577 0.17605
# Poissons Ratio (z) = 0.47984 0.47984
#
# Static dielectric constant tensor:
#      x y z
#    x 3.256190 0.000000 0.000000 
#    y 0.000000 3.256190 0.000000 
#    z 0.000000 0.000000 2.982570 
# 
# 
# High freq. dielectric constant tensor:
#      x y z
#    x 1.623130 0.000000 0.000000 
#    y 0.000000 1.623130 0.000000 
#    z 0.000000 0.000000 1.623700 
# 
# From -- ./inp_files/1948.got.cif
#   From: 2010.03.12/outbox.cif.g09.slc.cpg/sg123_1_cif.got.tgz:1948.got - 2010.04.06 16:26:55.
