data_PCOD8312265
_publ_section_title
;
Structure prediction by ZEFSAII (Michael W. Deem and Ramdas Pophale) SiO2 
 PCOD8312265
Probable space group: P 4/M M M
;
_chemical_formula_sum "Si O2"
_cell_formula_units_Z 92
_cell_length_a 22.525396
_cell_length_b 22.525396
_cell_length_c 10.022845
_cell_angle_alpha 90.000000
_cell_angle_beta 90.000000
_cell_angle_gamma 90.000000
_cell_volume 5085.526053
_symmetry_space_group_name_H-M "P 4/M M M"
_symmetry_group_IT_number 123
_symmetry_cell_setting 'tetragonal'
loop_
_space_group_symop_operation_xyz
x,y,z
-y,x,z
-x,-y,z
y,-x,z
x,-y,-z
-x,y,-z
y,x,-z
-y,-x,-z
-x,-y,-z
y,-x,-z
x,y,-z
-y,x,-z
-x,y,z
x,-y,z
-y,-x,z
y,x,z
loop_
_atom_site_type_symbol
_atom_site_label
_atom_site_fract_x
_atom_site_fract_y
_atom_site_fract_z
Si Si1 0.135210 0.384373 0.342198
Si Si2 0.565518 0.259080 0.655874
Si Si3 0.066679 0.839539 0.157956
Si Si4 0.429227 0.570774 0.000000
Si Si5 0.934996 0.500000 0.342958
Si Si6 0.358290 0.641711 0.221980
Si Si7 0.282070 0.131403 0.158017
Si Si8 0.737787 0.737787 0.150079
O O1 0.129259 0.369689 0.500000
O O2 0.203602 0.394770 0.297161
O O3 0.100546 0.442642 0.297712
O O4 0.104620 0.333628 0.251416
O O5 0.556713 0.253549 0.500000
O O6 0.500000 0.257762 0.723642
O O7 0.597164 0.320849 0.687824
O O8 0.105787 0.894213 0.215479
O O9 0.097862 0.778072 0.197428
O O10 0.000000 0.842470 0.218133
O O11 0.063823 0.844456 0.000000
O O12 0.416858 0.500000 0.000000
O O13 0.398104 0.601897 0.874894
O O14 0.941305 0.500000 0.500000
O O15 0.000000 0.500000 0.275763
O O16 0.312653 0.687348 0.152403
O O17 0.280953 0.199306 0.211840
O O18 0.296475 0.124989 0.000000
O O19 0.753988 0.753988 0.000000
#
# Coordination Sequence:
#
# PCOD8312265 Si02
#       8
#    16  16  16   4   8   8  16   8
#     4  10  19  33  54  79 106 137 179 226 267 311
#     4  10  20  34  52  75 102 129 163 215 269 315
#     4   9  17  30  50  75 106 145 186 226 271 322
#     4  11  26  44  56  74 108 144 180 226 271 314
#     4   9  18  34  55  75 103 147 187 214 256 322
#     4  12  20  34  55  79  97 132 172 215 258 332
#     4  10  19  33  51  76 109 143 172 213 270 329
#     4  10  18  30  49  74 102 132 168 205 247 315
#
# _framework density 18.090558000000001
#
# number of rings (size 3 to 8) (size 9 to 14) (size 15 to 20)
#    0.000    2.043    3.913    0.783    0.000    0.870 
#    0.000    1.739    0.000    0.522    0.000    3.652 
#    0.000    0.000    0.000    1.565    0.000    1.739 
#
# Total GULP energy -1140085.727363 kJ/mol
# GULP energy per Si atom -12392.236167 kJ/mol
# Density = 1.804938 g / cm^3
# Si number density = 18.090558 Si / 1000 Ang^3
#
#
#
# Elastic Constant Matrix: (Units=GPa)
#
#
# Indices 1 2 3 4 5 6 
#
# 1 143.1661 65.6280 32.0392 0.0000 0.0000 0.0000
# 2 65.6280 143.1654 32.0392 0.0000 0.0000 0.0000
# 3 32.0392 32.0392 32.3882 0.0000 0.0000 0.0000
# 4 0.0000 0.0000 0.0000 12.6092 0.0000 0.0000
# 5 0.0000 0.0000 0.0000 0.0000 12.6096 0.0000
# 6 0.0000 0.0000 0.0000 0.0000 0.0000 18.2458
#
#
#
# Elastic Compliance Matrix: (Units=1/GPa)
#
#
# Indices 1 2 3 4 5 6 
#
# 1 0.009887 -0.003010 -0.006803 0.000000 0.000000 0.000000
# 2 -0.003010 0.009887 -0.006803 0.000000 0.000000 0.000000
# 3 -0.006803 -0.006803 0.044335 0.000000 0.000000 0.000000
# 4 0.000000 0.000000 0.000000 0.079307 0.000000 0.000000
# 5 0.000000 0.000000 0.000000 0.000000 0.079305 0.000000
# 6 0.000000 0.000000 0.000000 0.000000 0.000000 0.054807
#
#
# Mechanical properties :
#
#
# Convention : Reuss Voigt Hill
#
# Bulk Modulus (GPa) = 32.38649 64.23695 48.31172
# Shear Modulus (GPa) = 15.57372 21.29380 18.43376
#
# Velocity S-wave (km/s) = 2.93725 3.43456 3.19560
# Velocity P-wave (km/s) = 5.42628 7.16337 6.35447
#
# Compressibility (1/GPa) = 0.03087707
#
# Stress axis : x y z
#
# Youngs Moduli (GPa) = 101.14195 101.14132 22.55539
#
# Poissons Ratio (x) = 0.30442 0.15345
# Poissons Ratio (y) = 0.30442 0.15345
# Poissons Ratio (z) = 0.68809 0.68809
#
# Static dielectric constant tensor:
#      x y z
#    x 3.591590 0.000000 0.000000 
#    y 0.000000 3.591600 0.000000 
#    z 0.000000 0.000000 2.854020 
# 
# 
# High freq. dielectric constant tensor:
#      x y z
#    x 1.711090 0.000000 0.000000 
#    y 0.000000 1.711090 0.000000 
#    z 0.000000 0.000000 1.652080 
# 
# From -- ./inp_files/1756.got.cif
#   From: 2010.03.12/outbox.cif.g09.slc.cpg/sg123_1_cif.got.tgz:1756.got - 2010.04.06 16:26:55.
