data_PCOD8312736
_publ_section_title
;
Structure prediction by ZEFSAII (Michael W. Deem and Ramdas Pophale) SiO2 
 PCOD8312736
Probable space group: P 4/M M M
;
_chemical_formula_sum "Si O2"
_cell_formula_units_Z 88
_cell_length_a 13.647531
_cell_length_b 13.647531
_cell_length_c 28.043451
_cell_angle_alpha 90.000000
_cell_angle_beta 90.000000
_cell_angle_gamma 90.000000
_cell_volume 5223.235838
_symmetry_space_group_name_H-M "P 4/M M M"
_symmetry_group_IT_number 123
_symmetry_cell_setting 'tetragonal'
loop_
_space_group_symop_operation_xyz
x,y,z
-y,x,z
-x,-y,z
y,-x,z
x,-y,-z
-x,y,-z
y,x,-z
-y,-x,-z
-x,-y,-z
y,-x,-z
x,y,-z
-y,x,-z
-x,y,z
x,-y,z
-y,-x,z
y,x,z
loop_
_atom_site_type_symbol
_atom_site_label
_atom_site_fract_x
_atom_site_fract_y
_atom_site_fract_z
Si Si1 0.387242 0.887463 0.276267
Si Si2 0.773299 0.614181 0.181665
Si Si3 0.114701 0.276658 0.103660
Si Si4 0.110327 0.733707 0.000000
Si Si5 0.114099 0.727128 0.629203
Si Si6 0.387750 0.229238 0.554786
O O1 0.500000 0.870493 0.290188
O O2 0.356110 0.821304 0.231800
O O3 0.322283 0.855719 0.321043
O O4 0.368330 0.000000 0.262250
O O5 0.748831 0.500000 0.178962
O O6 0.672024 0.672024 0.175082
O O7 0.849701 0.640567 0.140059
O O8 0.176308 0.176308 0.111448
O O9 0.133425 0.322014 0.050033
O O10 0.000000 0.253774 0.112274
O O11 0.164331 0.835670 0.000000
O O12 0.000000 0.767633 0.000000
O O13 0.170922 0.829079 0.623518
O O14 0.140743 0.653204 0.586557
O O15 0.000000 0.751010 0.626611
O O16 0.375677 0.197068 0.500000
O O17 0.500000 0.250203 0.567914
O O18 0.328918 0.328918 0.565870
#
# Coordination Sequence:
#
# PCOD8312736 Si02
#       6
#    16  16  16   8  16  16
#     4   9  17  30  50  74  95 116 146 185 231 283
#     4  10  20  33  49  68  91 121 156 194 234 274
#     4   9  17  29  46  69  96 124 153 185 224 272
#     4   8  14  25  41  63  92 122 150 182 221 268
#     4  10  20  33  49  69  95 127 162 198 232 268
#     4   9  18  32  50  73  99 125 154 190 234 284
#
# _framework density 16.847795000000001
#
# number of rings (size 3 to 8) (size 9 to 14) (size 15 to 20)
#    0.000    2.727    0.000    1.636    0.000    3.364 
#    0.000    4.091    0.000    1.636    0.000    7.636 
#    0.000    3.636    0.000    0.000    0.000    0.000 
#
# Total GULP energy -1090873.159730 kJ/mol
# GULP energy per Si atom -12396.285906 kJ/mol
# Density = 1.680945 g / cm^3
# Si number density = 16.847795 Si / 1000 Ang^3
#
#
#
# Elastic Constant Matrix: (Units=GPa)
#
#
# Indices 1 2 3 4 5 6 
#
# 1 84.1426 38.6920 54.9250 0.0000 0.0000 0.0000
# 2 38.6920 84.1424 54.9249 0.0000 0.0000 0.0000
# 3 54.9250 54.9249 116.2211 0.0000 0.0000 0.0000
# 4 0.0000 0.0000 0.0000 25.6990 0.0000 0.0000
# 5 0.0000 0.0000 0.0000 0.0000 25.6991 0.0000
# 6 0.0000 0.0000 0.0000 0.0000 0.0000 15.0537
#
#
#
# Elastic Compliance Matrix: (Units=1/GPa)
#
#
# Indices 1 2 3 4 5 6 
#
# 1 0.018051 -0.003951 -0.006664 0.000000 0.000000 0.000000
# 2 -0.003951 0.018051 -0.006664 0.000000 0.000000 0.000000
# 3 -0.006664 -0.006664 0.014903 0.000000 0.000000 0.000000
# 4 0.000000 0.000000 0.000000 0.038912 0.000000 0.000000
# 5 0.000000 0.000000 0.000000 0.000000 0.038912 0.000000
# 6 0.000000 0.000000 0.000000 0.000000 0.000000 0.066429
#
#
# Mechanical properties :
#
#
# Convention : Reuss Voigt Hill
#
# Bulk Modulus (GPa) = 60.79546 64.62110 62.70828
# Shear Modulus (GPa) = 21.24977 22.35465 21.80221
#
# Velocity S-wave (km/s) = 3.55530 3.64656 3.60122
# Velocity P-wave (km/s) = 7.28128 7.49459 7.38871
#
# Compressibility (1/GPa) = 0.01644860
#
# Stress axis : x y z
#
# Youngs Moduli (GPa) = 55.39833 55.39815 67.10219
#
# Poissons Ratio (x) = 0.21887 0.44715
# Poissons Ratio (y) = 0.21887 0.44715
# Poissons Ratio (z) = 0.36916 0.36915
#
# Static dielectric constant tensor:
#      x y z
#    x 2.991300 0.000000 0.000000 
#    y 0.000000 2.991300 0.000000 
#    z 0.000000 0.000000 3.467600 
# 
# 
# High freq. dielectric constant tensor:
#      x y z
#    x 1.637790 0.000000 0.000000 
#    y 0.000000 1.637790 0.000000 
#    z 0.000000 0.000000 1.667240 
# 
# From -- ./inp_files/7999.got.cif
#   From: 2010.03.12/outbox.cif.g09.slc.cpg/sg123_4_cif.got.tgz:7999.got - 2010.04.06 16:26:55.
