data_PCOD8312109
_publ_section_title
;
Structure prediction by ZEFSAII (Michael W. Deem and Ramdas Pophale) SiO2 
 PCOD8312109
Probable space group: I -4 2 D
;
_chemical_formula_sum "Si O2"
_cell_formula_units_Z 52
_cell_length_a 18.841076
_cell_length_b 18.841076
_cell_length_c 6.567008
_cell_angle_alpha 90.000000
_cell_angle_beta 90.000000
_cell_angle_gamma 90.000000
_cell_volume 2331.196853
_symmetry_space_group_name_H-M "I -4 2 D"
_symmetry_group_IT_number 122
_symmetry_cell_setting 'tetragonal'
loop_
_space_group_symop_operation_xyz
x,y,z
y,-x,-z
-x,-y,z
-y,x,-z
x,1/2-y,1/4-z
-x,1/2+y,1/4-z
-y,1/2-x,1/4+z
y,1/2+x,1/4+z
1/2+x,1/2+y,1/2+z
1/2+y,1/2-x,1/2-z
1/2-x,1/2-y,1/2+z
1/2-y,1/2+x,1/2-z
1/2+x,-y,3/4-z
1/2-x,y,3/4-z
1/2-y,-x,3/4+z
1/2+y,x,3/4+z
loop_
_atom_site_type_symbol
_atom_site_label
_atom_site_fract_x
_atom_site_fract_y
_atom_site_fract_z
Si Si1 0.901259 0.915635 0.749261
Si Si2 0.827796 0.055474 0.870244
Si Si3 0.500000 0.000000 0.250000
Si Si4 0.316120 0.826671 0.225041
O O1 0.838036 0.887603 0.605073
O O2 0.883010 0.993715 0.826801
O O3 0.910246 0.855676 0.920824
O O4 0.975126 0.930349 0.628905
O O5 0.750000 0.020068 0.875000
O O6 0.819296 0.116222 0.703249
O O7 0.314404 0.750000 0.125000
O O8 0.250000 0.838572 0.375000
#
# Coordination Sequence:
#
# PCOD8312109 Si02
#       4
#    16  16   4  16
#     4  12  27  46  75 110 149 201 254 315 383 457
#     4  12  27  47  74 108 150 199 254 314 382 462
#     4  12  24  50  72 108 158 196 252 326 384 444
#     4  12  28  49  76 109 151 196 254 317 389 455
#
# _framework density 22.306139000000002
#
# number of rings (size 3 to 8) (size 9 to 14) (size 15 to 20)
#    0.000    0.000    6.154    2.769    4.308    1.231 
#    0.000    0.000    0.000    0.000    0.000    0.000 
#    0.000    0.000    0.000    0.000    0.000    0.000 
#
# Total GULP energy -322294.547667 kJ/mol
# GULP energy per Si atom -12395.944141 kJ/mol
# Density = 2.225537 g / cm^3
# Si number density = 22.306139 Si / 1000 Ang^3
#
#
#
# Elastic Constant Matrix: (Units=GPa)
#
#
# Indices 1 2 3 4 5 6 
#
# 1 121.6830 22.7012 57.9546 0.0000 0.0000 0.0000
# 2 22.7012 121.6830 57.9546 0.0000 0.0000 0.0000
# 3 57.9546 57.9546 144.0943 0.0000 0.0000 0.0000
# 4 0.0000 0.0000 0.0000 35.3435 0.0000 0.0000
# 5 0.0000 0.0000 0.0000 0.0000 35.3435 0.0000
# 6 0.0000 0.0000 0.0000 0.0000 0.0000 42.4183
#
#
#
# Elastic Compliance Matrix: (Units=1/GPa)
#
#
# Indices 1 2 3 4 5 6 
#
# 1 0.010166 0.000063 -0.004114 0.000000 0.000000 0.000000
# 2 0.000063 0.010166 -0.004114 0.000000 0.000000 0.000000
# 3 -0.004114 -0.004114 0.010249 0.000000 0.000000 0.000000
# 4 0.000000 0.000000 0.000000 0.028294 0.000000 0.000000
# 5 0.000000 0.000000 0.000000 0.000000 0.028294 0.000000
# 6 0.000000 0.000000 0.000000 0.000000 0.000000 0.023575
#
#
# Mechanical properties :
#
#
# Convention : Reuss Voigt Hill
#
# Bulk Modulus (GPa) = 70.17264 73.85345 72.01305
# Shear Modulus (GPa) = 37.92966 39.21104 38.57035
#
# Velocity S-wave (km/s) = 4.12808 4.19723 4.16280
# Velocity P-wave (km/s) = 7.36536 7.52794 7.44710
#
# Compressibility (1/GPa) = 0.01425057
#
# Stress axis : x y z
#
# Youngs Moduli (GPa) = 98.36988 98.36988 97.56923
#
# Poissons Ratio (x) = -0.00618 0.40139
# Poissons Ratio (y) = -0.00618 0.40139
# Poissons Ratio (z) = 0.40469 0.40469
#
# Static dielectric constant tensor:
#      x y z
#    x 4.109340 0.000000 0.000000 
#    y 0.000000 4.109340 0.000000 
#    z 0.000000 0.000000 4.422020 
# 
# 
# High freq. dielectric constant tensor:
#      x y z
#    x 1.883410 0.000000 0.000000 
#    y 0.000000 1.883410 0.000000 
#    z 0.000000 0.000000 1.899960 
# 
# From -- ./inp_files/814.got.cif
#   From: 2010.03.12/outbox.cif.g09.slc.cpg/sg122_1_cif.got.tgz:814.got - 2010.04.06 16:17:16.
