data_PCOD8312491
_publ_section_title
;
Structure prediction by ZEFSAII (Michael W. Deem and Ramdas Pophale) SiO2 
 PCOD8312491
Probable space group: P 4/M M M
;
_chemical_formula_sum "Si O2"
_cell_formula_units_Z 80
_cell_length_a 12.662513
_cell_length_b 12.662513
_cell_length_c 28.668628
_cell_angle_alpha 90.000000
_cell_angle_beta 90.000000
_cell_angle_gamma 90.000000
_cell_volume 4596.705896
_symmetry_space_group_name_H-M "P 4/M M M"
_symmetry_group_IT_number 123
_symmetry_cell_setting 'tetragonal'
loop_
_space_group_symop_operation_xyz
x,y,z
-y,x,z
-x,-y,z
y,-x,z
x,-y,-z
-x,y,-z
y,x,-z
-y,-x,-z
-x,-y,-z
y,-x,-z
x,y,-z
-y,x,-z
-x,y,z
x,-y,z
-y,-x,z
y,x,z
loop_
_atom_site_type_symbol
_atom_site_label
_atom_site_fract_x
_atom_site_fract_y
_atom_site_fract_z
Si Si1 0.000000 0.374644 0.447396
Si Si2 0.791338 0.376828 0.894350
Si Si3 0.124056 0.287083 0.302016
Si Si4 0.000000 0.374676 0.052730
Si Si5 0.205877 0.378363 0.392290
Si Si6 0.881565 0.621572 0.204321
O O1 0.894058 0.334662 0.421718
O O2 0.000000 0.500000 0.446394
O O3 0.000000 0.330443 0.500000
O O4 0.770015 0.500000 0.905154
O O5 0.690283 0.309718 0.911361
O O6 0.806182 0.356430 0.839372
O O7 0.894662 0.334460 0.921448
O O8 0.170719 0.170719 0.312469
O O9 0.176225 0.370121 0.337669
O O10 0.157987 0.316473 0.249598
O O11 0.000000 0.285917 0.309078
O O12 0.000000 0.500000 0.054469
O O13 0.000000 0.331463 0.000000
O O14 0.232640 0.500000 0.404133
O O15 0.307882 0.307882 0.405065
O O16 0.880729 0.500000 0.218250
O O17 0.000000 0.656574 0.190265
#
# Coordination Sequence:
#
# PCOD8312491 Si02
#       6
#     8  16  16   8  16  16
#     4   9  18  34  55  76 100 131 169 212 254 301
#     4  10  19  32  51  76 105 134 167 206 249 299
#     4  10  19  30  47  72 102 137 174 212 254 300
#     4   9  18  34  53  72  94 125 169 212 250 295
#     4  10  20  34  53  78 106 136 172 212 255 303
#     4   9  16  28  48  72  98 131 173 214 246 286
#
# _framework density 17.403766999999998
#
# number of rings (size 3 to 8) (size 9 to 14) (size 15 to 20)
#    0.000    2.400    2.000    1.200    0.000    2.200 
#    0.000    0.000    0.000    0.600    0.000    9.800 
#    0.000    0.000    0.000    0.000    0.000    0.000 
#
# Total GULP energy -991772.922134 kJ/mol
# GULP energy per Si atom -12397.161527 kJ/mol
# Density = 1.736416 g / cm^3
# Si number density = 17.403767 Si / 1000 Ang^3
#
#
#
# Elastic Constant Matrix: (Units=GPa)
#
#
# Indices 1 2 3 4 5 6 
#
# 1 84.7886 63.2685 36.4574 0.0000 0.0000 0.0000
# 2 63.2685 84.7886 36.4574 0.0000 0.0000 0.0000
# 3 36.4574 36.4574 75.6146 0.0000 0.0000 0.0000
# 4 0.0000 0.0000 0.0000 14.5946 0.0000 0.0000
# 5 0.0000 0.0000 0.0000 0.0000 14.5946 0.0000
# 6 0.0000 0.0000 0.0000 0.0000 0.0000 23.7839
#
#
#
# Elastic Compliance Matrix: (Units=1/GPa)
#
#
# Indices 1 2 3 4 5 6 
#
# 1 0.027663 -0.018805 -0.004271 0.000000 0.000000 0.000000
# 2 -0.018805 0.027663 -0.004271 0.000000 0.000000 0.000000
# 3 -0.004271 -0.004271 0.017343 0.000000 0.000000 0.000000
# 4 0.000000 0.000000 0.000000 0.068519 0.000000 0.000000
# 5 0.000000 0.000000 0.000000 0.000000 0.068519 0.000000
# 6 0.000000 0.000000 0.000000 0.000000 0.000000 0.042045
#
#
# Mechanical properties :
#
#
# Convention : Reuss Voigt Hill
#
# Bulk Modulus (GPa) = 55.63129 57.50649 56.56889
# Shear Modulus (GPa) = 16.00332 17.86187 16.93259
#
# Velocity S-wave (km/s) = 3.03567 3.20710 3.12256
# Velocity P-wave (km/s) = 6.65744 6.84312 6.75092
#
# Compressibility (1/GPa) = 0.01797550
#
# Stress axis : x y z
#
# Youngs Moduli (GPa) = 36.14984 36.14984 57.66010
#
# Poissons Ratio (x) = 0.67981 0.24624
# Poissons Ratio (y) = 0.67981 0.24624
# Poissons Ratio (z) = 0.15438 0.15438
#
# Static dielectric constant tensor:
#      x y z
#    x 3.062050 0.000000 0.000000 
#    y 0.000000 3.062050 0.000000 
#    z 0.000000 0.000000 3.341760 
# 
# 
# High freq. dielectric constant tensor:
#      x y z
#    x 1.655010 0.000000 0.000000 
#    y 0.000000 1.655010 0.000000 
#    z 0.000000 0.000000 1.678460 
# 
# From -- ./inp_files/8358.got.cif
#   From: 2010.03.12/outbox.cif.g09.slc.cpg/sg123_5_cif.got.tgz:8358.got - 2010.04.06 16:26:55.
