data_PCOD8312546
_publ_section_title
;
Structure prediction by ZEFSAII (Michael W. Deem and Ramdas Pophale) SiO2 
 PCOD8312546
Probable space group: P 4/M M M
;
_chemical_formula_sum "Si O2"
_cell_formula_units_Z 80
_cell_length_a 12.740933
_cell_length_b 12.740933
_cell_length_c 28.640562
_cell_angle_alpha 90.000000
_cell_angle_beta 90.000000
_cell_angle_gamma 90.000000
_cell_volume 4649.261773
_symmetry_space_group_name_H-M "P 4/M M M"
_symmetry_group_IT_number 123
_symmetry_cell_setting 'tetragonal'
loop_
_space_group_symop_operation_xyz
x,y,z
-y,x,z
-x,-y,z
y,-x,z
x,-y,-z
-x,y,-z
y,x,-z
-y,-x,-z
-x,-y,-z
y,-x,-z
x,y,-z
-y,x,-z
-x,y,z
x,-y,z
-y,-x,z
y,x,z
loop_
_atom_site_type_symbol
_atom_site_label
_atom_site_fract_x
_atom_site_fract_y
_atom_site_fract_z
Si Si1 0.123994 0.384650 0.269208
Si Si2 0.210786 0.618903 0.551792
Si Si3 0.879469 0.500000 0.886325
Si Si4 0.715653 0.118272 0.363383
Si Si5 0.330473 0.500000 0.055203
Si Si6 0.289209 0.879236 0.827521
O O1 0.173802 0.500000 0.261350
O O2 0.168825 0.338812 0.317685
O O3 0.152744 0.309738 0.226101
O O4 0.000000 0.396429 0.272945
O O5 0.164870 0.644278 0.500000
O O6 0.248147 0.500000 0.554763
O O7 0.313188 0.686812 0.562931
O O8 0.123526 0.640488 0.591264
O O9 0.788336 0.500000 0.925225
O O10 0.862790 0.603336 0.855503
O O11 0.000000 0.500000 0.906928
O O12 0.822740 0.177261 0.374848
O O13 0.746796 0.000000 0.352793
O O14 0.396105 0.396105 0.071089
O O15 0.318990 0.500000 0.000000
O O16 0.196853 0.803148 0.846814
O O17 0.251183 0.000000 0.831961
#
# Coordination Sequence:
#
# PCOD8312546 Si02
#       6
#    16  16   8  16   8  16
#     4   9  16  29  47  67  91 119 156 195 233 282
#     4   9  18  32  49  70  93 114 141 180 227 281
#     4  10  19  32  50  74 103 136 174 212 252 300
#     4  10  20  32  47  67  90 120 155 191 233 278
#     4   9  18  33  53  77 105 136 171 214 262 306
#     4  10  19  31  48  71  99 132 169 209 251 295
#
# _framework density 17.207034
#
# number of rings (size 3 to 8) (size 9 to 14) (size 15 to 20)
#    0.000    2.500    1.000    2.100    0.000    2.400 
#    0.000    2.000    0.000    3.600    0.000    2.800 
#    0.000    0.000    0.000   18.600    0.000    0.000 
#
# Total GULP energy -991488.011195 kJ/mol
# GULP energy per Si atom -12393.600140 kJ/mol
# Density = 1.716787 g / cm^3
# Si number density = 17.207034 Si / 1000 Ang^3
#
#
#
# Elastic Constant Matrix: (Units=GPa)
#
#
# Indices 1 2 3 4 5 6 
#
# 1 92.4852 47.6396 32.1881 0.0000 0.0000 0.0000
# 2 47.6396 92.4852 32.1881 0.0000 0.0000 0.0000
# 3 32.1881 32.1881 70.1928 0.0000 0.0000 0.0000
# 4 0.0000 0.0000 0.0000 23.9506 0.0000 0.0000
# 5 0.0000 0.0000 0.0000 0.0000 23.9506 0.0000
# 6 0.0000 0.0000 0.0000 0.0000 0.0000 20.0697
#
#
#
# Elastic Compliance Matrix: (Units=1/GPa)
#
#
# Indices 1 2 3 4 5 6 
#
# 1 0.015670 -0.006629 -0.004146 0.000000 0.000000 0.000000
# 2 -0.006629 0.015670 -0.004146 0.000000 0.000000 0.000000
# 3 -0.004146 -0.004146 0.018049 0.000000 0.000000 0.000000
# 4 0.000000 0.000000 0.000000 0.041753 0.000000 0.000000
# 5 0.000000 0.000000 0.000000 0.000000 0.041753 0.000000
# 6 0.000000 0.000000 0.000000 0.000000 0.000000 0.049826
#
#
# Mechanical properties :
#
#
# Convention : Reuss Voigt Hill
#
# Bulk Modulus (GPa) = 51.15781 53.24388 52.20084
# Shear Modulus (GPa) = 22.82294 23.13735 22.98015
#
# Velocity S-wave (km/s) = 3.64589 3.67092 3.65843
# Velocity P-wave (km/s) = 6.89338 6.99841 6.94609
#
# Compressibility (1/GPa) = 0.01954736
#
# Stress axis : x y z
#
# Youngs Moduli (GPa) = 63.81614 63.81614 55.40497
#
# Poissons Ratio (x) = 0.42302 0.22971
# Poissons Ratio (y) = 0.42302 0.22971
# Poissons Ratio (z) = 0.26458 0.26458
#
# Static dielectric constant tensor:
#      x y z
#    x 3.122470 0.000000 0.000000 
#    y 0.000000 3.122470 0.000000 
#    z 0.000000 0.000000 3.251660 
# 
# 
# High freq. dielectric constant tensor:
#      x y z
#    x 1.653630 0.000000 0.000000 
#    y 0.000000 1.653630 0.000000 
#    z 0.000000 0.000000 1.659930 
# 
# From -- ./inp_files/8349.got.cif
#   From: 2010.03.12/outbox.cif.g09.slc.cpg/sg123_5_cif.got.tgz:8349.got - 2010.04.06 16:26:55.
