data_PCOD8312032
_publ_section_title
;
Structure prediction by ZEFSAII (Michael W. Deem and Ramdas Pophale) SiO2 
 PCOD8312032
Probable space group: I -4 2 D
;
_chemical_formula_sum "Si O2"
_cell_formula_units_Z 88
_cell_length_a 15.102668
_cell_length_b 15.102668
_cell_length_c 18.308772
_cell_angle_alpha 90.000000
_cell_angle_beta 90.000000
_cell_angle_gamma 90.000000
_cell_volume 4176.058438
_symmetry_space_group_name_H-M "I -4 2 D"
_symmetry_group_IT_number 122
_symmetry_cell_setting 'tetragonal'
loop_
_space_group_symop_operation_xyz
x,y,z
y,-x,-z
-x,-y,z
-y,x,-z
x,1/2-y,1/4-z
-x,1/2+y,1/4-z
-y,1/2-x,1/4+z
y,1/2+x,1/4+z
1/2+x,1/2+y,1/2+z
1/2+y,1/2-x,1/2-z
1/2-x,1/2-y,1/2+z
1/2-y,1/2+x,1/2-z
1/2+x,-y,3/4-z
1/2-x,y,3/4-z
1/2-y,-x,3/4+z
1/2+y,x,3/4+z
loop_
_atom_site_type_symbol
_atom_site_label
_atom_site_fract_x
_atom_site_fract_y
_atom_site_fract_z
Si Si1 0.014831 0.674452 0.930685
Si Si2 0.000000 0.500000 0.493020
Si Si3 0.334520 0.751512 0.337759
Si Si4 0.168278 0.432975 0.273096
Si Si5 0.578076 0.596224 0.614579
Si Si6 0.182305 0.230843 0.309513
O O1 0.073202 0.698753 0.858639
O O2 0.909153 0.683061 0.916185
O O3 0.042970 0.731593 0.001233
O O4 0.038866 0.574660 0.953689
O O5 0.038940 0.574989 0.438709
O O6 0.250000 0.801602 0.375000
O O7 0.332362 0.655074 0.375797
O O8 0.324494 0.737084 0.251335
O O9 0.105917 0.464966 0.204896
O O10 0.143485 0.484497 0.347366
O O11 0.156039 0.328372 0.282735
O O12 0.250000 0.238226 0.375000
#
# Coordination Sequence:
#
# PCOD8312032 Si02
#       6
#    16   8  16  16  16  16
#     4  11  25  44  65  96 135 180 230 282 345 410
#     4  12  26  37  66 101 136 174 234 270 336 420
#     4  11  22  46  67  95 146 180 219 287 352 414
#     4  11  22  37  65 102 138 174 206 266 360 422
#     4  11  22  36  64  99 142 170 207 271 339 420
#     4  12  26  43  67 100 134 181 238 282 343 412
#
# _framework density 21.072502
#
# number of rings (size 3 to 8) (size 9 to 14) (size 15 to 20)
#    0.000    0.727    7.273    1.091    5.091    0.000 
#    0.000    2.727    0.000    0.000    0.000    0.000 
#    0.000    0.000    0.000    0.000    0.000    0.000 
#
# Total GULP energy -545347.689270 kJ/mol
# GULP energy per Si atom -12394.265665 kJ/mol
# Density = 2.102454 g / cm^3
# Si number density = 21.072502 Si / 1000 Ang^3
#
#
#
# Elastic Constant Matrix: (Units=GPa)
#
#
# Indices 1 2 3 4 5 6 
#
# 1 95.7369 34.1231 36.9473 0.0000 0.0000 0.0000
# 2 34.1231 95.7369 36.9473 0.0000 0.0000 0.0000
# 3 36.9473 36.9473 91.7334 0.0000 0.0000 0.0000
# 4 0.0000 0.0000 0.0000 27.8559 0.0000 0.0000
# 5 0.0000 0.0000 0.0000 0.0000 27.8559 0.0000
# 6 0.0000 0.0000 0.0000 0.0000 0.0000 17.2497
#
#
#
# Elastic Compliance Matrix: (Units=1/GPa)
#
#
# Indices 1 2 3 4 5 6 
#
# 1 0.013110 -0.003120 -0.004024 0.000000 0.000000 0.000000
# 2 -0.003120 0.013110 -0.004024 0.000000 0.000000 0.000000
# 3 -0.004024 -0.004024 0.014142 0.000000 0.000000 0.000000
# 4 0.000000 0.000000 0.000000 0.035899 0.000000 0.000000
# 5 0.000000 0.000000 0.000000 0.000000 0.035899 0.000000
# 6 0.000000 0.000000 0.000000 0.000000 0.000000 0.057972
#
#
# Mechanical properties :
#
#
# Convention : Reuss Voigt Hill
#
# Bulk Modulus (GPa) = 55.46952 55.47139 55.47045
# Shear Modulus (GPa) = 25.19183 26.27162 25.73172
#
# Velocity S-wave (km/s) = 3.46133 3.53473 3.49822
# Velocity P-wave (km/s) = 6.50805 6.56051 6.53433
#
# Compressibility (1/GPa) = 0.01802792
#
# Stress axis : x y z
#
# Youngs Moduli (GPa) = 76.27659 76.27659 70.70923
#
# Poissons Ratio (x) = 0.23798 0.28452
# Poissons Ratio (y) = 0.23798 0.28452
# Poissons Ratio (z) = 0.30692 0.30692
#
# Static dielectric constant tensor:
#      x y z
#    x 3.802040 0.000000 0.000000 
#    y 0.000000 3.802040 0.000000 
#    z 0.000000 0.000000 3.798240 
# 
# 
# High freq. dielectric constant tensor:
#      x y z
#    x 1.815220 0.000000 0.000000 
#    y 0.000000 1.815220 0.000000 
#    z 0.000000 0.000000 1.811860 
# 
# From -- ./inp_files/7186.got.cif
#   From: 2010.03.12/outbox.cif.g09.slc.cpg/sg122_4_cif.got.tgz:7186.got - 2010.04.06 16:17:16.
