data_PCOD8312830
_publ_section_title
;
Structure prediction by ZEFSAII (Michael W. Deem and Ramdas Pophale) SiO2 
 PCOD8312830
Probable space group: P 4/M M M
;
_chemical_formula_sum "Si O2"
_cell_formula_units_Z 88
_cell_length_a 12.942827
_cell_length_b 12.942827
_cell_length_c 29.725322
_cell_angle_alpha 90.000000
_cell_angle_beta 90.000000
_cell_angle_gamma 90.000000
_cell_volume 4979.489951
_symmetry_space_group_name_H-M "P 4/M M M"
_symmetry_group_IT_number 123
_symmetry_cell_setting 'tetragonal'
loop_
_space_group_symop_operation_xyz
x,y,z
-y,x,z
-x,-y,z
y,-x,z
x,-y,-z
-x,y,-z
y,x,-z
-y,-x,-z
-x,-y,-z
y,-x,-z
x,y,-z
-y,x,-z
-x,y,z
x,-y,z
-y,-x,z
y,x,z
loop_
_atom_site_type_symbol
_atom_site_label
_atom_site_fract_x
_atom_site_fract_y
_atom_site_fract_z
Si Si1 0.383078 0.784241 0.212013
Si Si2 0.715112 0.885709 0.868446
Si Si3 0.214764 0.619963 0.313190
Si Si4 0.877644 0.500000 0.550767
Si Si5 0.707363 0.120971 0.601950
Si Si6 0.215001 0.617762 0.949712
O O1 0.500000 0.749037 0.205639
O O2 0.317212 0.682789 0.201972
O O3 0.354816 0.871665 0.175958
O O4 0.364900 0.827595 0.262458
O O5 0.812997 0.812997 0.867797
O O6 0.647390 0.871239 0.913392
O O7 0.759745 0.000000 0.868388
O O8 0.225316 0.500000 0.326194
O O9 0.327897 0.672104 0.318252
O O10 0.133490 0.677502 0.345644
O O11 0.834794 0.500000 0.500000
O O12 0.839948 0.606465 0.574225
O O13 0.000000 0.500000 0.552189
O O14 0.806515 0.193486 0.589412
O O15 0.734480 0.000000 0.592439
O O16 0.247254 0.500000 0.943578
O O17 0.318448 0.681553 0.940240
O O18 0.171239 0.639147 0.000000
#
# Coordination Sequence:
#
# PCOD8312830 Si02
#       6
#    16  16  16   8  16  16
#     4   9  18  31  48  73 103 133 165 201 244 296
#     4  10  21  36  51  68  92 121 159 206 251 296
#     4   9  17  30  49  74 104 137 172 210 253 302
#     4   9  18  34  56  79 103 135 175 216 258 306
#     4  10  20  34  53  78 108 141 178 219 262 310
#     4   9  18  32  50  73 100 128 157 190 230 280
#
# _framework density 17.672491999999998
#
# number of rings (size 3 to 8) (size 9 to 14) (size 15 to 20)
#    0.000    2.636    0.909    0.545    0.000    3.818 
#    0.000    5.455    0.000    3.545    0.000   10.818 
#    0.000    0.000    0.000    0.000    0.000    0.000 
#
# Total GULP energy -1090839.019614 kJ/mol
# GULP energy per Si atom -12395.897950 kJ/mol
# Density = 1.763227 g / cm^3
# Si number density = 17.672492 Si / 1000 Ang^3
#
#
#
# Elastic Constant Matrix: (Units=GPa)
#
#
# Indices 1 2 3 4 5 6 
#
# 1 94.9561 33.8502 43.3176 0.0000 0.0000 0.0000
# 2 33.8502 94.9561 43.3176 0.0000 0.0000 0.0000
# 3 43.3176 43.3176 111.3557 0.0000 0.0000 0.0000
# 4 0.0000 0.0000 0.0000 19.1045 0.0000 0.0000
# 5 0.0000 0.0000 0.0000 0.0000 19.1045 0.0000
# 6 0.0000 0.0000 0.0000 0.0000 0.0000 13.3534
#
#
#
# Elastic Compliance Matrix: (Units=1/GPa)
#
#
# Indices 1 2 3 4 5 6 
#
# 1 0.013440 -0.002925 -0.004090 0.000000 0.000000 0.000000
# 2 -0.002925 0.013440 -0.004090 0.000000 0.000000 0.000000
# 3 -0.004090 -0.004090 0.012162 0.000000 0.000000 0.000000
# 4 0.000000 0.000000 0.000000 0.052344 0.000000 0.000000
# 5 0.000000 0.000000 0.000000 0.000000 0.052344 0.000000
# 6 0.000000 0.000000 0.000000 0.000000 0.000000 0.074887
#
#
# Mechanical properties :
#
#
# Convention : Reuss Voigt Hill
#
# Bulk Modulus (GPa) = 59.41459 60.24876 59.83167
# Shear Modulus (GPa) = 20.28906 22.36465 21.32686
#
# Velocity S-wave (km/s) = 3.39198 3.56125 3.47765
# Velocity P-wave (km/s) = 7.00239 7.14674 7.07493
#
# Compressibility (1/GPa) = 0.01683088
#
# Stress axis : x y z
#
# Youngs Moduli (GPa) = 74.40546 74.40546 82.22020
#
# Poissons Ratio (x) = 0.21765 0.33630
# Poissons Ratio (y) = 0.21765 0.33630
# Poissons Ratio (z) = 0.30434 0.30434
#
# Static dielectric constant tensor:
#      x y z
#    x 3.114580 0.000000 0.000000 
#    y 0.000000 3.114580 0.000000 
#    z 0.000000 0.000000 3.632830 
# 
# 
# High freq. dielectric constant tensor:
#      x y z
#    x 1.668270 0.000000 0.000000 
#    y 0.000000 1.668270 0.000000 
#    z 0.000000 0.000000 1.698110 
# 
# From -- ./inp_files/8501.got.cif
#   From: 2010.03.12/outbox.cif.g09.slc.cpg/sg123_5_cif.got.tgz:8501.got - 2010.04.06 16:26:55.
