data_PCOD8312166
_publ_section_title
;
Structure prediction by ZEFSAII (Michael W. Deem and Ramdas Pophale) SiO2 
 PCOD8312166
Probable space group: P 4/M M M
;
_chemical_formula_sum "Si O2"
_cell_formula_units_Z 72
_cell_length_a 21.309426
_cell_length_b 21.309426
_cell_length_c 10.331246
_cell_angle_alpha 90.000000
_cell_angle_beta 90.000000
_cell_angle_gamma 90.000000
_cell_volume 4691.332403
_symmetry_space_group_name_H-M "P 4/M M M"
_symmetry_group_IT_number 123
_symmetry_cell_setting 'tetragonal'
loop_
_space_group_symop_operation_xyz
x,y,z
-y,x,z
-x,-y,z
y,-x,z
x,-y,-z
-x,y,-z
y,x,-z
-y,-x,-z
-x,-y,-z
y,-x,-z
x,y,-z
-y,x,-z
-x,y,z
x,-y,z
-y,-x,z
y,x,z
loop_
_atom_site_type_symbol
_atom_site_label
_atom_site_fract_x
_atom_site_fract_y
_atom_site_fract_z
Si Si1 0.642996 0.258205 0.222354
Si Si2 0.155953 0.568622 0.350918
Si Si3 0.573306 0.673349 0.000000
Si Si4 0.157783 0.741656 0.855251
Si Si5 0.926387 0.682129 0.349107
O O1 0.687778 0.312223 0.284470
O O2 0.602320 0.223067 0.330814
O O3 0.593593 0.288061 0.125079
O O4 0.685600 0.208043 0.147486
O O5 0.147741 0.556172 0.500000
O O6 0.152083 0.500000 0.280569
O O7 0.099498 0.613948 0.304325
O O8 0.500000 0.662267 0.000000
O O9 0.605322 0.605322 0.000000
O O10 0.192318 0.807683 0.828532
O O11 0.105085 0.734205 0.743877
O O12 0.127793 0.741676 0.000000
O O13 0.909210 0.695851 0.500000
O O14 0.000000 0.683371 0.326283
#
# Coordination Sequence:
#
# PCOD8312166 Si02
#       5
#    16  16   8  16  16
#     4   9  16  27  42  60  79 101 132 171 220 267
#     4   9  17  28  42  60  81 108 143 179 213 253
#     4  10  18  27  40  56  75 101 131 165 210 264
#     4   9  16  28  46  66  87 110 141 180 219 258
#     4   9  18  30  43  62  89 120 150 179 213 253
#
# _framework density 15.347452000000001
#
# number of rings (size 3 to 8) (size 9 to 14) (size 15 to 20)
#    0.000    2.889    1.111    0.667    0.000    1.889 
#    0.000    6.667    0.000    0.000    0.000    3.111 
#    0.000    0.444    0.000   25.556    0.000    4.222 
#
# Total GULP energy -892168.182544 kJ/mol
# GULP energy per Si atom -12391.224758 kJ/mol
# Density = 1.531252 g / cm^3
# Si number density = 15.347452 Si / 1000 Ang^3
#
#
#
# Elastic Constant Matrix: (Units=GPa)
#
#
# Indices 1 2 3 4 5 6 
#
# 1 91.5592 41.4577 39.1717 0.0000 0.0000 0.0000
# 2 41.4577 91.5592 39.1717 0.0000 0.0000 0.0000
# 3 39.1717 39.1717 55.8969 0.0000 0.0000 0.0000
# 4 0.0000 0.0000 0.0000 18.5140 0.0000 0.0000
# 5 0.0000 0.0000 0.0000 0.0000 18.5140 0.0000
# 6 0.0000 0.0000 0.0000 0.0000 0.0000 14.4692
#
#
#
# Elastic Compliance Matrix: (Units=1/GPa)
#
#
# Indices 1 2 3 4 5 6 
#
# 1 0.016381 -0.003579 -0.008971 0.000000 0.000000 0.000000
# 2 -0.003579 0.016381 -0.008971 0.000000 0.000000 0.000000
# 3 -0.008971 -0.008971 0.030464 0.000000 0.000000 0.000000
# 4 0.000000 0.000000 0.000000 0.054013 0.000000 0.000000
# 5 0.000000 0.000000 0.000000 0.000000 0.054013 0.000000
# 6 0.000000 0.000000 0.000000 0.000000 0.000000 0.069112
#
#
# Mechanical properties :
#
#
# Convention : Reuss Voigt Hill
#
# Bulk Modulus (GPa) = 49.54831 53.17974 51.36402
# Shear Modulus (GPa) = 17.23342 18.24704 17.74023
#
# Velocity S-wave (km/s) = 3.35458 3.45183 3.40355
# Velocity P-wave (km/s) = 6.88177 7.11425 6.99898
#
# Compressibility (1/GPa) = 0.02018232
#
# Stress axis : x y z
#
# Youngs Moduli (GPa) = 61.04791 61.04791 32.82578
#
# Poissons Ratio (x) = 0.21849 0.29449
# Poissons Ratio (y) = 0.21849 0.29449
# Poissons Ratio (z) = 0.54767 0.54767
#
# Static dielectric constant tensor:
#      x y z
#    x 2.958490 0.000000 0.000000 
#    y 0.000000 2.958490 0.000000 
#    z 0.000000 0.000000 2.909220 
# 
# 
# High freq. dielectric constant tensor:
#      x y z
#    x 1.575240 0.000000 0.000000 
#    y 0.000000 1.575240 0.000000 
#    z 0.000000 0.000000 1.576800 
# 
# From -- ./inp_files/1084.got.cif
#   From: 2010.03.12/outbox.cif.g09.slc.cpg/sg123_1_cif.got.tgz:1084.got - 2010.04.06 16:26:55.
