data_PCOD8312898
_publ_section_title
;
Structure prediction by ZEFSAII (Michael W. Deem and Ramdas Pophale) SiO2 
 PCOD8312898
Probable space group: P 4/M M M
;
_chemical_formula_sum "Si O2"
_cell_formula_units_Z 56
_cell_length_a 13.135396
_cell_length_b 13.135396
_cell_length_c 17.812026
_cell_angle_alpha 90.000000
_cell_angle_beta 90.000000
_cell_angle_gamma 90.000000
_cell_volume 3073.262529
_symmetry_space_group_name_H-M "P 4/M M M"
_symmetry_group_IT_number 123
_symmetry_cell_setting 'tetragonal'
loop_
_space_group_symop_operation_xyz
x,y,z
-y,x,z
-x,-y,z
y,-x,z
x,-y,-z
-x,y,-z
y,x,-z
-y,-x,-z
-x,-y,-z
y,-x,-z
x,y,-z
-y,x,-z
-x,y,z
x,-y,z
-y,-x,z
y,x,z
loop_
_atom_site_type_symbol
_atom_site_label
_atom_site_fract_x
_atom_site_fract_y
_atom_site_fract_z
Si Si1 0.718981 0.116863 0.414603
Si Si2 0.382392 0.784869 0.000000
Si Si3 0.284500 0.882176 0.859146
Si Si4 0.617380 0.783236 0.719302
O O1 0.680661 0.129919 0.500000
O O2 0.825674 0.174327 0.400983
O O3 0.632513 0.164166 0.361569
O O4 0.738806 0.000000 0.394196
O O5 0.357901 0.851582 0.072891
O O6 0.500000 0.754497 0.000000
O O7 0.319986 0.680015 0.000000
O O8 0.179007 0.820994 0.863426
O O9 0.343311 0.861112 0.781980
O O10 0.256200 0.000000 0.864362
O O11 0.500000 0.757941 0.731595
O O12 0.676796 0.676796 0.725143
#
# Coordination Sequence:
#
# PCOD8312898 Si02
#       4
#    16   8  16  16
#     4   9  18  32  50  74 103 133 166 204 246 295
#     4  10  21  36  54  78 106 136 173 214 254 298
#     4  10  21  36  54  78 106 135 169 207 248 298
#     4  10  21  36  53  74 100 130 167 210 253 299
#
# _framework density 18.221678000000001
#
# number of rings (size 3 to 8) (size 9 to 14) (size 15 to 20)
#    0.000    2.286    0.000    2.143    0.000    6.143 
#    0.000    2.857    0.000   12.857    0.000    4.000 
#    0.000    0.000    0.000    0.000    0.000    0.000 
#
# Total GULP energy -694604.082292 kJ/mol
# GULP energy per Si atom -12403.644327 kJ/mol
# Density = 1.818020 g / cm^3
# Si number density = 18.221678 Si / 1000 Ang^3
#
#
#
# Elastic Constant Matrix: (Units=GPa)
#
#
# Indices 1 2 3 4 5 6 
#
# 1 129.1800 52.6694 45.1666 0.0000 0.0000 0.0000
# 2 52.6694 129.1770 45.1657 0.0000 0.0000 0.0000
# 3 45.1666 45.1657 100.6954 0.0000 0.0000 0.0000
# 4 0.0000 0.0000 0.0000 17.8026 0.0000 0.0000
# 5 0.0000 0.0000 0.0000 0.0000 17.8024 0.0000
# 6 0.0000 0.0000 0.0000 0.0000 0.0000 10.2071
#
#
#
# Elastic Compliance Matrix: (Units=1/GPa)
#
#
# Indices 1 2 3 4 5 6 
#
# 1 0.010073 -0.002997 -0.003174 0.000000 0.000000 0.000000
# 2 -0.002997 0.010073 -0.003174 0.000000 0.000000 0.000000
# 3 -0.003174 -0.003174 0.012778 0.000000 0.000000 0.000000
# 4 0.000000 0.000000 0.000000 0.056172 0.000000 0.000000
# 5 0.000000 0.000000 0.000000 0.000000 0.056172 0.000000
# 6 0.000000 0.000000 0.000000 0.000000 0.000000 0.097971
#
#
# Mechanical properties :
#
#
# Convention : Reuss Voigt Hill
#
# Bulk Modulus (GPa) = 70.25226 71.67288 70.96257
# Shear Modulus (GPa) = 18.74953 23.56579 21.15766
#
# Velocity S-wave (km/s) = 3.21123 3.60013 3.41123
# Velocity P-wave (km/s) = 7.23791 7.52997 7.38538
#
# Compressibility (1/GPa) = 0.01423442
#
# Stress axis : x y z
#
# Youngs Moduli (GPa) = 99.27642 99.27441 78.25926
#
# Poissons Ratio (x) = 0.29756 0.24837
# Poissons Ratio (y) = 0.29757 0.24837
# Poissons Ratio (z) = 0.31508 0.31507
#
# Static dielectric constant tensor:
#      x y z
#    x 3.195710 0.000000 0.000000 
#    y 0.000000 3.195710 0.000000 
#    z 0.000000 0.000000 3.646650 
# 
# 
# High freq. dielectric constant tensor:
#      x y z
#    x 1.698830 0.000000 0.000000 
#    y 0.000000 1.698830 0.000000 
#    z 0.000000 0.000000 1.727960 
# 
# From -- ./inp_files/6103.got.cif
#   From: 2010.03.12/outbox.cif.g09.slc.cpg/sg123_4_cif.got.tgz:6103.got - 2010.04.06 16:26:55.
