data_PCOD8312672
_publ_section_title
;
Structure prediction by ZEFSAII (Michael W. Deem and Ramdas Pophale) SiO2 
 PCOD8312672
Probable space group: P 4/M M M
;
_chemical_formula_sum "Si O2"
_cell_formula_units_Z 128
_cell_length_a 23.835462
_cell_length_b 23.835462
_cell_length_c 13.296193
_cell_angle_alpha 90.000000
_cell_angle_beta 90.000000
_cell_angle_gamma 90.000000
_cell_volume 7553.956140
_symmetry_space_group_name_H-M "P 4/M M M"
_symmetry_group_IT_number 123
_symmetry_cell_setting 'tetragonal'
loop_
_space_group_symop_operation_xyz
x,y,z
-y,x,z
-x,-y,z
y,-x,z
x,-y,-z
-x,y,-z
y,x,-z
-y,-x,-z
-x,-y,-z
y,-x,-z
x,y,-z
-y,x,-z
-x,y,z
x,-y,z
-y,-x,z
y,x,z
loop_
_atom_site_type_symbol
_atom_site_label
_atom_site_fract_x
_atom_site_fract_y
_atom_site_fract_z
Si Si1 0.385845 0.937402 0.288175
Si Si2 0.062898 0.265884 0.615844
Si Si3 0.566178 0.774328 0.803102
Si Si4 0.766782 0.859110 0.211797
Si Si5 0.938109 0.850918 0.882350
Si Si6 0.563635 0.654004 0.116884
Si Si7 0.564316 0.835567 0.609333
Si Si8 0.861086 0.351421 0.115785
O O1 0.330749 0.936678 0.355667
O O2 0.429821 0.897745 0.344849
O O3 0.373911 0.915579 0.175133
O O4 0.410913 0.000000 0.279922
O O5 0.079528 0.258594 0.500000
O O6 0.110261 0.234408 0.680166
O O7 0.000000 0.241755 0.636118
O O8 0.500000 0.787637 0.820202
O O9 0.578929 0.709079 0.819724
O O10 0.586930 0.790109 0.690030
O O11 0.603048 0.811020 0.879952
O O12 0.802666 0.802666 0.221856
O O13 0.793778 0.904136 0.135892
O O14 0.706491 0.841389 0.168056
O O15 0.903420 0.903420 0.835583
O O16 0.000000 0.848586 0.832541
O O17 0.944254 0.859235 0.000000
O O18 0.500000 0.634680 0.138111
O O19 0.603809 0.603809 0.152376
O O20 0.572074 0.668411 0.000000
O O21 0.594921 0.829400 0.500000
O O22 0.500000 0.823462 0.591573
O O23 0.877460 0.341418 0.000000
#
# Coordination Sequence:
#
# PCOD8312672 Si02
#       8
#    16  16  16  16  16  16  16  16
#     4   9  18  31  45  64  90 117 148 189 234 277
#     4   9  17  30  48  66  84 112 151 189 224 269
#     4   9  18  33  51  70  94 124 160 200 238 280
#     4  10  20  32  45  65  94 122 149 186 234 284
#     4   9  17  29  45  64  87 115 145 180 223 270
#     4   9  17  29  47  72 100 129 160 194 235 284
#     4   9  17  29  47  70  93 119 152 191 235 279
#     4  10  20  32  47  67  91 122 159 196 233 279
#
# _framework density 16.944763999999999
#
# number of rings (size 3 to 8) (size 9 to 14) (size 15 to 20)
#    0.000    2.750    0.000    1.500    0.000    4.250 
#    0.000    1.875    0.000    0.375    0.000    3.500 
#    0.000    0.000    0.000   16.500    0.000    0.250 
#
# Total GULP energy -1586554.111722 kJ/mol
# GULP energy per Si atom -12394.953998 kJ/mol
# Density = 1.690620 g / cm^3
# Si number density = 16.944764 Si / 1000 Ang^3
#
#
#
# Elastic Constant Matrix: (Units=GPa)
#
#
# Indices 1 2 3 4 5 6 
#
# 1 82.7241 45.9519 32.6624 0.0000 0.0000 0.0000
# 2 45.9519 82.7241 32.6624 0.0000 0.0000 0.0000
# 3 32.6624 32.6624 104.7151 0.0000 0.0000 0.0000
# 4 0.0000 0.0000 0.0000 18.6085 0.0000 0.0000
# 5 0.0000 0.0000 0.0000 0.0000 18.6085 0.0000
# 6 0.0000 0.0000 0.0000 0.0000 0.0000 20.9892
#
#
#
# Elastic Compliance Matrix: (Units=1/GPa)
#
#
# Indices 1 2 3 4 5 6 
#
# 1 0.018214 -0.008980 -0.002880 0.000000 0.000000 0.000000
# 2 -0.008980 0.018214 -0.002880 0.000000 0.000000 0.000000
# 3 -0.002880 -0.002880 0.011346 0.000000 0.000000 0.000000
# 4 0.000000 0.000000 0.000000 0.053739 0.000000 0.000000
# 5 0.000000 0.000000 0.000000 0.000000 0.053739 0.000000
# 6 0.000000 0.000000 0.000000 0.000000 0.000000 0.047644
#
#
# Mechanical properties :
#
#
# Convention : Reuss Voigt Hill
#
# Bulk Modulus (GPa) = 54.66520 54.74630 54.70575
# Shear Modulus (GPa) = 20.96658 22.23368 21.60013
#
# Velocity S-wave (km/s) = 3.52141 3.62626 3.57422
# Velocity P-wave (km/s) = 6.99033 7.06483 7.02768
#
# Compressibility (1/GPa) = 0.01829317
#
# Stress axis : x y z
#
# Youngs Moduli (GPa) = 54.90278 54.90278 88.13341
#
# Poissons Ratio (x) = 0.49305 0.25383
# Poissons Ratio (y) = 0.49305 0.25383
# Poissons Ratio (z) = 0.15813 0.15813
#
# Static dielectric constant tensor:
#      x y z
#    x 3.169070 0.000000 0.000000 
#    y 0.000000 3.169070 0.000000 
#    z 0.000000 0.000000 3.349090 
# 
# 
# High freq. dielectric constant tensor:
#      x y z
#    x 1.644820 0.000000 0.000000 
#    y 0.000000 1.644820 0.000000 
#    z 0.000000 0.000000 1.646450 
# 
# From -- ./inp_files/3516.got.cif
#   From: 2010.03.12/outbox.cif.g09.slc.cpg/sg123_2_cif.got.tgz:3516.got - 2010.04.06 16:26:55.
