data_PCOD8312594
_publ_section_title
;
Structure prediction by ZEFSAII (Michael W. Deem and Ramdas Pophale) SiO2 
 PCOD8312594
Probable space group: P 4/M M M
;
_chemical_formula_sum "Si O2"
_cell_formula_units_Z 104
_cell_length_a 17.603052
_cell_length_b 17.603052
_cell_length_c 19.029684
_cell_angle_alpha 90.000000
_cell_angle_beta 90.000000
_cell_angle_gamma 90.000000
_cell_volume 5896.679460
_symmetry_space_group_name_H-M "P 4/M M M"
_symmetry_group_IT_number 123
_symmetry_cell_setting 'tetragonal'
loop_
_space_group_symop_operation_xyz
x,y,z
-y,x,z
-x,-y,z
y,-x,z
x,-y,-z
-x,y,-z
y,x,-z
-y,-x,-z
-x,-y,-z
y,-x,-z
x,y,-z
-y,x,-z
-x,y,z
x,-y,z
-y,-x,z
y,x,z
loop_
_atom_site_type_symbol
_atom_site_label
_atom_site_fract_x
_atom_site_fract_y
_atom_site_fract_z
Si Si1 0.271561 0.847945 0.420914
Si Si2 0.296976 0.914132 0.848758
Si Si3 0.411844 0.411844 0.078156
Si Si4 0.203222 0.917066 0.286523
Si Si5 0.313798 0.686203 0.180529
Si Si6 0.413991 0.179179 0.784681
Si Si7 0.212008 0.212008 0.081840
Si Si8 0.414865 0.911329 0.358679
O O1 0.253285 0.875363 0.500000
O O2 0.238786 0.761215 0.410693
O O3 0.229618 0.902321 0.365874
O O4 0.361570 0.858163 0.407706
O O5 0.273429 0.910637 0.766612
O O6 0.376993 0.868378 0.849912
O O7 0.233053 0.874721 0.897570
O O8 0.307495 0.000000 0.875790
O O9 0.500000 0.394321 0.087601
O O10 0.368883 0.368883 0.139164
O O11 0.385708 0.385708 0.000000
O O12 0.140819 0.859182 0.259400
O O13 0.166257 0.000000 0.283799
O O14 0.363655 0.744229 0.228409
O O15 0.267084 0.732917 0.123774
O O16 0.500000 0.202019 0.805309
O O17 0.413944 0.124427 0.718114
O O18 0.224199 0.224199 0.000000
O O19 0.500000 0.907504 0.390011
O O20 0.387601 0.000000 0.355816
#
# Coordination Sequence:
#
# PCOD8312594 Si02
#       8
#    16  16   8  16   8  16   8  16
#     4  10  21  34  51  74 104 139 174 213 258 309
#     4  10  19  33  54  76  99 135 170 208 257 311
#     4   9  17  30  49  72 100 135 172 209 253 309
#     4  10  19  32  51  72  98 130 170 210 251 303
#     4  10  20  32  52  73 103 140 168 213 254 313
#     4  10  20  32  50  79 107 135 174 217 258 302
#     4  10  21  35  52  77 101 128 169 216 259 307
#     4  10  20  33  51  76 106 139 176 218 264 314
#
# _framework density 17.637045000000001
#
# number of rings (size 3 to 8) (size 9 to 14) (size 15 to 20)
#    0.000    2.077    2.308    1.846    1.077    2.923 
#    0.000    0.769    0.000    4.385    0.000    7.000 
#    0.000    0.308    0.000    1.692    0.000    0.000 
#
# Total GULP energy -1288769.752706 kJ/mol
# GULP energy per Si atom -12392.016853 kJ/mol
# Density = 1.759690 g / cm^3
# Si number density = 17.637045 Si / 1000 Ang^3
#
#
#
# Elastic Constant Matrix: (Units=GPa)
#
#
# Indices 1 2 3 4 5 6 
#
# 1 105.1230 54.9609 16.3517 0.0000 0.0000 0.0000
# 2 54.9609 105.1230 16.3517 0.0000 0.0000 0.0000
# 3 16.3517 16.3517 55.2213 0.0000 0.0000 0.0000
# 4 0.0000 0.0000 0.0000 15.4770 0.0000 0.0000
# 5 0.0000 0.0000 0.0000 0.0000 15.4770 0.0000
# 6 0.0000 0.0000 0.0000 0.0000 0.0000 24.1291
#
#
#
# Elastic Compliance Matrix: (Units=1/GPa)
#
#
# Indices 1 2 3 4 5 6 
#
# 1 0.013292 -0.006643 -0.001969 0.000000 0.000000 0.000000
# 2 -0.006643 0.013292 -0.001969 0.000000 0.000000 0.000000
# 3 -0.001969 -0.001969 0.019275 0.000000 0.000000 0.000000
# 4 0.000000 0.000000 0.000000 0.064612 0.000000 0.000000
# 5 0.000000 0.000000 0.000000 0.000000 0.064612 0.000000
# 6 0.000000 0.000000 0.000000 0.000000 0.000000 0.041444
#
#
# Mechanical properties :
#
#
# Convention : Reuss Voigt Hill
#
# Bulk Modulus (GPa) = 40.48992 48.97730 44.73361
# Shear Modulus (GPa) = 20.33169 22.87015 21.60092
#
# Velocity S-wave (km/s) = 3.39895 3.60489 3.50344
# Velocity P-wave (km/s) = 6.19766 6.71989 6.46405
#
# Compressibility (1/GPa) = 0.02469750
#
# Stress axis : x y z
#
# Youngs Moduli (GPa) = 75.23237 75.23237 51.88080
#
# Poissons Ratio (x) = 0.49978 0.10214
# Poissons Ratio (y) = 0.49978 0.10214
# Poissons Ratio (z) = 0.14812 0.14812
#
# Static dielectric constant tensor:
#      x y z
#    x 3.486790 0.000000 0.000000 
#    y 0.000000 3.486790 0.000000 
#    z 0.000000 0.000000 3.041380 
# 
# 
# High freq. dielectric constant tensor:
#      x y z
#    x 1.683140 0.000000 0.000000 
#    y 0.000000 1.683140 0.000000 
#    z 0.000000 0.000000 1.657100 
# 
# From -- ./inp_files/5685.got.cif
#   From: 2010.03.12/outbox.cif.g09.slc.cpg/sg123_3_cif.got.tgz:5685.got - 2010.04.06 16:26:55.
