data_PCOD8312370
_publ_section_title
;
Structure prediction by ZEFSAII (Michael W. Deem and Ramdas Pophale) SiO2 
 PCOD8312370
Probable space group: P 4/M M M
;
_chemical_formula_sum "Si O2"
_cell_formula_units_Z 104
_cell_length_a 26.440342
_cell_length_b 26.440342
_cell_length_c 9.210346
_cell_angle_alpha 90.000000
_cell_angle_beta 90.000000
_cell_angle_gamma 90.000000
_cell_volume 6438.876305
_symmetry_space_group_name_H-M "P 4/M M M"
_symmetry_group_IT_number 123
_symmetry_cell_setting 'tetragonal'
loop_
_space_group_symop_operation_xyz
x,y,z
-y,x,z
-x,-y,z
y,-x,z
x,-y,-z
-x,y,-z
y,x,-z
-y,-x,-z
-x,-y,-z
y,-x,-z
x,y,-z
-y,x,-z
-x,y,z
x,-y,z
-y,-x,z
y,x,z
loop_
_atom_site_type_symbol
_atom_site_label
_atom_site_fract_x
_atom_site_fract_y
_atom_site_fract_z
Si Si1 0.555417 0.000000 0.171208
Si Si2 0.371061 0.288519 0.670054
Si Si3 0.943274 0.263900 0.667808
Si Si4 0.364713 0.920097 0.832377
Si Si5 0.190635 0.660566 0.834027
Si Si6 0.149248 0.230660 0.830221
Si Si7 0.557843 0.360465 0.830924
O O1 0.585076 0.949339 0.219659
O O2 0.500000 0.000000 0.245475
O O3 0.549062 0.000000 0.000000
O O4 0.380929 0.285194 0.500000
O O5 0.322031 0.322031 0.708022
O O6 0.362651 0.232687 0.730570
O O7 0.420504 0.312866 0.742884
O O8 0.928586 0.268266 0.500000
O O9 0.940481 0.319126 0.736698
O O10 0.903649 0.226266 0.745074
O O11 0.000000 0.242199 0.687885
O O12 0.372800 0.860036 0.812971
O O13 0.351711 0.932513 0.000000
O O14 0.178815 0.718163 0.787565
O O15 0.209905 0.658708 0.000000
O O16 0.183198 0.183198 0.784548
O O17 0.136858 0.231208 0.000000
O O18 0.500000 0.369741 0.784861
O O19 0.588704 0.411297 0.791812
O O20 0.562651 0.347344 0.000000
#
# Coordination Sequence:
#
# PCOD8312370 Si02
#       7
#     8  16  16  16  16  16  16
#     4   9  16  28  49  71  87 109 149 201 248 285
#     4  10  20  32  47  68  94 125 157 186 220 268
#     4  10  19  29  44  67  94 125 160 195 232 279
#     4   9  17  30  48  67  89 118 155 198 241 284
#     4   9  17  29  46  68  92 120 154 192 233 278
#     4   9  18  31  47  69  96 125 158 196 237 280
#     4   9  18  33  53  75  96 118 145 180 224 272
#
# _framework density 16.151886999999999
#
# number of rings (size 3 to 8) (size 9 to 14) (size 15 to 20)
#    0.000    2.692    0.769    2.308    0.000    5.692 
#    0.000    1.538    0.000    3.692    0.000    2.154 
#    0.000    0.308    0.000    3.385    0.000    2.462 
#
# Total GULP energy -1289537.352475 kJ/mol
# GULP energy per Si atom -12399.397620 kJ/mol
# Density = 1.611512 g / cm^3
# Si number density = 16.151887 Si / 1000 Ang^3
#
#
#
# Elastic Constant Matrix: (Units=GPa)
#
#
# Indices 1 2 3 4 5 6 
#
# 1 116.7879 62.6077 48.6908 0.0000 0.0000 0.0000
# 2 62.6077 116.7879 48.6908 0.0000 0.0000 0.0000
# 3 48.6908 48.6908 65.9621 0.0000 0.0000 0.0000
# 4 0.0000 0.0000 0.0000 17.8667 0.0000 0.0000
# 5 0.0000 0.0000 0.0000 0.0000 17.8667 0.0000
# 6 0.0000 0.0000 0.0000 0.0000 0.0000 23.2199
#
#
#
# Elastic Compliance Matrix: (Units=1/GPa)
#
#
# Indices 1 2 3 4 5 6 
#
# 1 0.013879 -0.004578 -0.006866 0.000000 0.000000 0.000000
# 2 -0.004578 0.013879 -0.006866 0.000000 0.000000 0.000000
# 3 -0.006866 -0.006866 0.025296 0.000000 0.000000 0.000000
# 4 0.000000 0.000000 0.000000 0.055970 0.000000 0.000000
# 5 0.000000 0.000000 0.000000 0.000000 0.055970 0.000000
# 6 0.000000 0.000000 0.000000 0.000000 0.000000 0.043067
#
#
# Mechanical properties :
#
#
# Convention : Reuss Voigt Hill
#
# Bulk Modulus (GPa) = 60.84355 68.83514 64.83935
# Shear Modulus (GPa) = 19.98727 21.09387 20.54057
#
# Velocity S-wave (km/s) = 3.52157 3.61774 3.56998
# Velocity P-wave (km/s) = 7.36795 7.75633 7.56463
#
# Compressibility (1/GPa) = 0.01643559
#
# Stress axis : x y z
#
# Youngs Moduli (GPa) = 72.05075 72.05075 39.53118
#
# Poissons Ratio (x) = 0.32984 0.27142
# Poissons Ratio (y) = 0.32984 0.27142
# Poissons Ratio (z) = 0.49469 0.49469
#
# Static dielectric constant tensor:
#      x y z
#    x 3.087520 0.000000 0.000000 
#    y 0.000000 3.087520 0.000000 
#    z 0.000000 0.000000 2.981580 
# 
# 
# High freq. dielectric constant tensor:
#      x y z
#    x 1.609480 0.000000 0.000000 
#    y 0.000000 1.609480 0.000000 
#    z 0.000000 0.000000 1.616030 
# 
# From -- ./inp_files/1950.got.cif
#   From: 2010.03.12/outbox.cif.g09.slc.cpg/sg123_1_cif.got.tgz:1950.got - 2010.04.06 16:26:55.
