data_PCOD8312277
_publ_section_title
;
Structure prediction by ZEFSAII (Michael W. Deem and Ramdas Pophale) SiO2 
 PCOD8312277
Probable space group: P 4/M M M
;
_chemical_formula_sum "Si O2"
_cell_formula_units_Z 96
_cell_length_a 17.836172
_cell_length_b 17.836172
_cell_length_c 16.956118
_cell_angle_alpha 90.000000
_cell_angle_beta 90.000000
_cell_angle_gamma 90.000000
_cell_volume 5394.233399
_symmetry_space_group_name_H-M "P 4/M M M"
_symmetry_group_IT_number 123
_symmetry_cell_setting 'tetragonal'
loop_
_space_group_symop_operation_xyz
x,y,z
-y,x,z
-x,-y,z
y,-x,z
x,-y,-z
-x,y,-z
y,x,-z
-y,-x,-z
-x,-y,-z
y,-x,-z
x,y,-z
-y,x,-z
-x,y,z
x,-y,z
-y,-x,z
y,x,z
loop_
_atom_site_type_symbol
_atom_site_label
_atom_site_fract_x
_atom_site_fract_y
_atom_site_fract_z
Si Si1 0.085767 0.207938 0.181030
Si Si2 0.264593 0.142700 0.660187
Si Si3 0.706604 0.415241 0.179908
Si Si4 0.293432 0.414626 0.500000
Si Si5 0.791955 0.914723 0.500000
Si Si6 0.584104 0.213139 0.661699
Si Si7 0.812499 0.313408 0.088900
O O1 0.134107 0.134107 0.159882
O O2 0.091158 0.226293 0.273756
O O3 0.114526 0.279941 0.131970
O O4 0.000000 0.191458 0.158323
O O5 0.224439 0.224439 0.659844
O O6 0.257709 0.102629 0.576364
O O7 0.352681 0.151300 0.680565
O O8 0.690815 0.500000 0.151936
O O9 0.633801 0.366200 0.158693
O O10 0.721160 0.412066 0.273503
O O11 0.780814 0.385765 0.134771
O O12 0.318834 0.500000 0.500000
O O13 0.369336 0.369336 0.500000
O O14 0.245324 0.394619 0.576564
O O15 0.868005 0.868005 0.500000
O O16 0.817495 0.000000 0.500000
O O17 0.500000 0.177503 0.661476
O O18 0.748966 0.251035 0.090357
O O19 0.834016 0.336523 0.000000
#
# Coordination Sequence:
#
# PCOD8312277 Si02
#       7
#    16  16  16   8   8  16  16
#     4  10  20  34  55  81 108 137 168 208 258 312
#     4  10  18  32  53  74 102 139 180 219 253 301
#     4  10  19  32  52  78 108 141 178 222 269 314
#     4  10  19  28  41  65  96 132 171 210 254 300
#     4  10  21  34  52  78 104 136 173 212 260 312
#     4  10  19  31  50  74 101 134 176 224 264 298
#     4   9  18  34  55  76 100 135 176 212 251 308
#
# _framework density 17.796782
#
# number of rings (size 3 to 8) (size 9 to 14) (size 15 to 20)
#    0.000    2.167    1.667    2.500    0.000    1.833 
#    0.000    0.000    0.000   10.000    0.000    5.833 
#    0.000    0.000    0.000    0.000    0.000    0.000 
#
# Total GULP energy -1190396.056573 kJ/mol
# GULP energy per Si atom -12399.958923 kJ/mol
# Density = 1.775628 g / cm^3
# Si number density = 17.796782 Si / 1000 Ang^3
#
#
#
# Elastic Constant Matrix: (Units=GPa)
#
#
# Indices 1 2 3 4 5 6 
#
# 1 107.5542 48.6975 25.0602 0.0000 0.0000 0.0000
# 2 48.6975 107.5542 25.0602 0.0000 0.0000 0.0000
# 3 25.0602 25.0602 103.6515 0.0000 0.0000 0.0000
# 4 0.0000 0.0000 0.0000 15.0179 0.0000 0.0000
# 5 0.0000 0.0000 0.0000 0.0000 15.0179 0.0000
# 6 0.0000 0.0000 0.0000 0.0000 0.0000 16.6757
#
#
#
# Elastic Compliance Matrix: (Units=1/GPa)
#
#
# Indices 1 2 3 4 5 6 
#
# 1 0.011964 -0.005026 -0.001677 0.000000 0.000000 0.000000
# 2 -0.005026 0.011964 -0.001677 0.000000 0.000000 0.000000
# 3 -0.001677 -0.001677 0.010459 0.000000 0.000000 0.000000
# 4 0.000000 0.000000 0.000000 0.066587 0.000000 0.000000
# 5 0.000000 0.000000 0.000000 0.000000 0.066587 0.000000
# 6 0.000000 0.000000 0.000000 0.000000 0.000000 0.059968
#
#
# Mechanical properties :
#
#
# Convention : Reuss Voigt Hill
#
# Bulk Modulus (GPa) = 56.73720 57.37729 57.05725
# Shear Modulus (GPa) = 19.98672 24.00511 21.99591
#
# Velocity S-wave (km/s) = 3.35483 3.67665 3.51942
# Velocity P-wave (km/s) = 6.85247 7.09464 6.97461
#
# Compressibility (1/GPa) = 0.01762512
#
# Stress axis : x y z
#
# Youngs Moduli (GPa) = 83.58264 83.58264 95.61303
#
# Poissons Ratio (x) = 0.42010 0.16038
# Poissons Ratio (y) = 0.42010 0.16038
# Poissons Ratio (z) = 0.14020 0.14020
#
# Static dielectric constant tensor:
#      x y z
#    x 3.114320 0.000000 0.000000 
#    y 0.000000 3.114320 0.000000 
#    z 0.000000 0.000000 3.512520 
# 
# 
# High freq. dielectric constant tensor:
#      x y z
#    x 1.668180 0.000000 0.000000 
#    y 0.000000 1.668180 0.000000 
#    z 0.000000 0.000000 1.700880 
# 
# From -- ./inp_files/5554.got.cif
#   From: 2010.03.12/outbox.cif.g09.slc.cpg/sg123_3_cif.got.tgz:5554.got - 2010.04.06 16:26:55.
