data_PCOD8312084
_publ_section_title
;
Structure prediction by ZEFSAII (Michael W. Deem and Ramdas Pophale) SiO2 
 PCOD8312084
Probable space group: I -4 2 D
;
_chemical_formula_sum "Si O2"
_cell_formula_units_Z 32
_cell_length_a 8.794772
_cell_length_b 8.794772
_cell_length_c 16.032348
_cell_angle_alpha 90.000000
_cell_angle_beta 90.000000
_cell_angle_gamma 90.000000
_cell_volume 1240.070286
_symmetry_space_group_name_H-M "I -4 2 D"
_symmetry_group_IT_number 122
_symmetry_cell_setting 'tetragonal'
loop_
_space_group_symop_operation_xyz
x,y,z
y,-x,-z
-x,-y,z
-y,x,-z
x,1/2-y,1/4-z
-x,1/2+y,1/4-z
-y,1/2-x,1/4+z
y,1/2+x,1/4+z
1/2+x,1/2+y,1/2+z
1/2+y,1/2-x,1/2-z
1/2-x,1/2-y,1/2+z
1/2-y,1/2+x,1/2-z
1/2+x,-y,3/4-z
1/2-x,y,3/4-z
1/2-y,-x,3/4+z
1/2+y,x,3/4+z
loop_
_atom_site_type_symbol
_atom_site_label
_atom_site_fract_x
_atom_site_fract_y
_atom_site_fract_z
Si Si1 0.271161 0.550311 0.527240
Si Si2 0.781929 0.950011 0.536467
O O1 0.404924 0.676689 0.526486
O O2 0.120634 0.618372 0.484683
O O3 0.225160 0.509672 0.620297
O O4 0.912333 0.820749 0.526830
#
# Coordination Sequence:
#
# PCOD8312084 Si02
#       2
#    16  16
#     4  11  27  51  78 112 153 202 256 317 386 463
#     4  11  27  51  78 112 153 202 256 317 386 463
#
# _framework density 25.804987000000001
#
# number of rings (size 3 to 8) (size 9 to 14) (size 15 to 20)
#    0.000    1.000    0.000    3.000    0.000   34.000 
#    0.000    0.000    0.000    0.000    0.000    0.000 
#    0.000    0.000    0.000    0.000    0.000    0.000 
#
# Total GULP energy -198473.073025 kJ/mol
# GULP energy per Si atom -12404.567064 kJ/mol
# Density = 2.574625 g / cm^3
# Si number density = 25.804987 Si / 1000 Ang^3
#
#
#
# Elastic Constant Matrix: (Units=GPa)
#
#
# Indices 1 2 3 4 5 6 
#
# 1 80.4354 49.4421 33.2934 0.0000 0.0000 0.0000
# 2 49.4421 80.4354 33.2934 0.0000 0.0000 0.0000
# 3 33.2934 33.2934 73.1495 0.0000 0.0000 0.0000
# 4 0.0000 0.0000 0.0000 53.4182 0.0000 0.0000
# 5 0.0000 0.0000 0.0000 0.0000 53.4182 0.0000
# 6 0.0000 0.0000 0.0000 0.0000 0.0000 91.5423
#
#
#
# Elastic Compliance Matrix: (Units=1/GPa)
#
#
# Indices 1 2 3 4 5 6 
#
# 1 0.021154 -0.011111 -0.004571 0.000000 0.000000 0.000000
# 2 -0.011111 0.021154 -0.004571 0.000000 0.000000 0.000000
# 3 -0.004571 -0.004571 0.017832 0.000000 0.000000 0.000000
# 4 0.000000 0.000000 0.000000 0.018720 0.000000 0.000000
# 5 0.000000 0.000000 0.000000 0.000000 0.018720 0.000000
# 6 0.000000 0.000000 0.000000 0.000000 0.000000 0.010924
#
#
# Mechanical properties :
#
#
# Convention : Reuss Voigt Hill
#
# Bulk Modulus (GPa) = 50.93303 51.78644 51.35973
# Shear Modulus (GPa) = 32.14303 47.54182 39.84243
#
# Velocity S-wave (km/s) = 3.53315 4.29692 3.93362
# Velocity P-wave (km/s) = 6.03529 6.68804 6.37004
#
# Compressibility (1/GPa) = 0.01963363
#
# Stress axis : x y z
#
# Youngs Moduli (GPa) = 47.27224 47.27224 56.08028
#
# Poissons Ratio (x) = 0.52524 0.25634
# Poissons Ratio (y) = 0.52524 0.25634
# Poissons Ratio (z) = 0.21608 0.21608
#
# Static dielectric constant tensor:
#      x y z
#    x 5.446050 0.000000 0.000000 
#    y 0.000000 5.446050 0.000000 
#    z 0.000000 0.000000 4.337160 
# 
# 
# High freq. dielectric constant tensor:
#      x y z
#    x 2.050890 0.000000 0.000000 
#    y 0.000000 2.050890 0.000000 
#    z 0.000000 0.000000 2.023900 
# 
# From -- ./inp_files/6551.got.cif
#   From: 2010.03.12/outbox.cif.g09.slc.cpg/sg122_4_cif.got.tgz:6551.got - 2010.04.06 16:17:16.
