data_PCOD8312448
_publ_section_title
;
Structure prediction by ZEFSAII (Michael W. Deem and Ramdas Pophale) SiO2 
 PCOD8312448
Probable space group: P 4/M M M
;
_chemical_formula_sum "Si O2"
_cell_formula_units_Z 88
_cell_length_a 13.773713
_cell_length_b 13.773713
_cell_length_c 28.485105
_cell_angle_alpha 90.000000
_cell_angle_beta 90.000000
_cell_angle_gamma 90.000000
_cell_volume 5404.056532
_symmetry_space_group_name_H-M "P 4/M M M"
_symmetry_group_IT_number 123
_symmetry_cell_setting 'tetragonal'
loop_
_space_group_symop_operation_xyz
x,y,z
-y,x,z
-x,-y,z
y,-x,z
x,-y,-z
-x,y,-z
y,x,-z
-y,-x,-z
-x,-y,-z
y,-x,-z
x,y,-z
-y,x,-z
-x,y,z
x,-y,z
-y,-x,z
y,x,z
loop_
_atom_site_type_symbol
_atom_site_label
_atom_site_fract_x
_atom_site_fract_y
_atom_site_fract_z
Si Si1 0.108538 0.614849 0.818788
Si Si2 0.228083 0.385051 0.909326
Si Si3 0.228993 0.614774 0.271475
Si Si4 0.891377 0.614822 0.000000
Si Si5 0.611495 0.768443 0.447348
Si Si6 0.892547 0.384974 0.639048
O O1 0.100015 0.500000 0.819366
O O2 0.168137 0.649748 0.864007
O O3 0.163222 0.649033 0.772008
O O4 0.000000 0.660039 0.819700
O O5 0.248703 0.500000 0.909360
O O6 0.331951 0.331951 0.909852
O O7 0.166085 0.350734 0.954064
O O8 0.248901 0.500000 0.270886
O O9 0.332923 0.667078 0.268765
O O10 0.174283 0.650317 0.318263
O O11 0.900114 0.500000 0.000000
O O12 0.000000 0.660013 0.000000
O O13 0.625718 0.810459 0.500000
O O14 0.500000 0.742333 0.437232
O O15 0.668822 0.668822 0.440357
O O16 0.649897 0.848174 0.410562
O O17 0.900597 0.500000 0.640552
O O18 0.000000 0.339198 0.643929
#
# Coordination Sequence:
#
# PCOD8312448 Si02
#       6
#    16  16  16   8  16  16
#     4   9  17  30  47  65  87 117 152 190 227 255
#     4  10  19  30  45  67  96 126 153 181 215 263
#     4  10  19  30  45  66  93 122 149 177 211 258
#     4   9  17  30  47  65  87 117 153 195 235 260
#     4   9  17  28  42  62  89 119 148 177 210 254
#     4   9  17  29  44  61  83 113 148 186 225 257
#
# _framework density 16.284064000000001
#
# number of rings (size 3 to 8) (size 9 to 14) (size 15 to 20)
#    0.000    2.636    0.000    2.455    0.000    5.273 
#    0.000    2.727    0.000    8.182    0.000    0.000 
#    0.000   53.091    0.000    8.000    0.000    0.727 
#
# Total GULP energy -1091042.455246 kJ/mol
# GULP energy per Si atom -12398.209719 kJ/mol
# Density = 1.624700 g / cm^3
# Si number density = 16.284064 Si / 1000 Ang^3
#
#
#
# Elastic Constant Matrix: (Units=GPa)
#
#
# Indices 1 2 3 4 5 6 
#
# 1 76.3126 44.4583 46.9957 0.0000 0.0000 0.0000
# 2 44.4583 76.3126 46.9957 0.0000 0.0000 0.0000
# 3 46.9957 46.9957 144.8685 0.0000 0.0000 0.0000
# 4 0.0000 0.0000 0.0000 18.3136 0.0000 0.0000
# 5 0.0000 0.0000 0.0000 0.0000 18.3136 0.0000
# 6 0.0000 0.0000 0.0000 0.0000 0.0000 5.8765
#
#
#
# Elastic Compliance Matrix: (Units=1/GPa)
#
#
# Indices 1 2 3 4 5 6 
#
# 1 0.021235 -0.010158 -0.003593 0.000000 0.000000 0.000000
# 2 -0.010158 0.021235 -0.003593 0.000000 0.000000 0.000000
# 3 -0.003593 -0.003593 0.009234 0.000000 0.000000 0.000000
# 4 0.000000 0.000000 0.000000 0.054604 0.000000 0.000000
# 5 0.000000 0.000000 0.000000 0.000000 0.054604 0.000000
# 6 0.000000 0.000000 0.000000 0.000000 0.000000 0.170169
#
#
# Mechanical properties :
#
#
# Convention : Reuss Voigt Hill
#
# Bulk Modulus (GPa) = 58.77408 63.82147 61.29777
# Shear Modulus (GPa) = 13.46105 19.10367 16.28236
#
# Velocity S-wave (km/s) = 2.87825 3.42885 3.16554
# Velocity P-wave (km/s) = 6.87147 7.41307 7.14740
#
# Compressibility (1/GPa) = 0.01701430
#
# Stress axis : x y z
#
# Youngs Moduli (GPa) = 47.09247 47.09247 108.29352
#
# Poissons Ratio (x) = 0.47837 0.38913
# Poissons Ratio (y) = 0.47837 0.38913
# Poissons Ratio (z) = 0.16922 0.16922
#
# Static dielectric constant tensor:
#      x y z
#    x 2.895780 0.000000 0.000000 
#    y 0.000000 2.895780 0.000000 
#    z 0.000000 0.000000 3.424740 
# 
# 
# High freq. dielectric constant tensor:
#      x y z
#    x 1.597070 0.000000 0.000000 
#    y 0.000000 1.597070 0.000000 
#    z 0.000000 0.000000 1.651450 
# 
# From -- ./inp_files/7184.got.cif
#   From: 2010.03.12/outbox.cif.g09.slc.cpg/sg123_4_cif.got.tgz:7184.got - 2010.04.06 16:26:55.
