data_PCOD8312745
_publ_section_title
;
Structure prediction by ZEFSAII (Michael W. Deem and Ramdas Pophale) SiO2 
 PCOD8312745
Probable space group: P 4/M M M
;
_chemical_formula_sum "Si O2"
_cell_formula_units_Z 104
_cell_length_a 17.896841
_cell_length_b 17.896841
_cell_length_c 18.293421
_cell_angle_alpha 90.000000
_cell_angle_beta 90.000000
_cell_angle_gamma 90.000000
_cell_volume 5859.326362
_symmetry_space_group_name_H-M "P 4/M M M"
_symmetry_group_IT_number 123
_symmetry_cell_setting 'tetragonal'
loop_
_space_group_symop_operation_xyz
x,y,z
-y,x,z
-x,-y,z
y,-x,z
x,-y,-z
-x,y,-z
y,x,-z
-y,-x,-z
-x,-y,-z
y,-x,-z
x,y,-z
-y,x,-z
-x,y,z
x,-y,z
-y,-x,z
y,x,z
loop_
_atom_site_type_symbol
_atom_site_label
_atom_site_fract_x
_atom_site_fract_y
_atom_site_fract_z
Si Si1 0.299775 0.416549 0.172723
Si Si2 0.199782 0.083587 0.584766
Si Si3 0.142413 0.341348 0.654945
Si Si4 0.415848 0.296698 0.346973
Si Si5 0.180772 0.303707 0.186494
Si Si6 0.587452 0.000000 0.582307
Si Si7 0.793953 0.914759 0.915507
O O1 0.297962 0.500000 0.139676
O O2 0.375350 0.375350 0.145535
O O3 0.298418 0.418061 0.259958
O O4 0.227054 0.370088 0.146474
O O5 0.220088 0.081539 0.500000
O O6 0.117245 0.117245 0.597698
O O7 0.257939 0.137766 0.624149
O O8 0.202415 0.000000 0.618008
O O9 0.218438 0.380170 0.626811
O O10 0.139352 0.336475 0.742699
O O11 0.072693 0.388360 0.626529
O O12 0.500000 0.304646 0.378617
O O13 0.365122 0.365122 0.376754
O O14 0.238699 0.238699 0.210691
O O15 0.119067 0.274251 0.130387
O O16 0.500000 0.000000 0.576022
O O17 0.622510 0.000000 0.500000
O O18 0.870338 0.870338 0.899265
O O19 0.807695 0.000000 0.891828
O O20 0.771262 0.908403 0.000000
#
# Coordination Sequence:
#
# PCOD8312745 Si02
#       7
#    16  16  16  16  16   8  16
#     4   8  14  25  42  67  98 129 163 204 247 293
#     4  10  20  33  49  69  93 123 160 201 248 301
#     4  11  19  33  52  73 101 133 170 212 259 306
#     4   9  17  29  47  72 101 132 165 204 253 306
#     4   9  18  31  50  74 101 135 173 211 251 301
#     4  11  24  38  52  74 104 134 168 217 268 316
#     4   9  18  32  51  75 104 137 172 213 260 309
#
# _framework density 17.749479999999998
#
# number of rings (size 3 to 8) (size 9 to 14) (size 15 to 20)
#    0.000    2.538    0.769    3.231    1.077    1.231 
#    0.000    3.077    0.000    0.462    0.000    3.231 
#    0.000    0.000    0.000   15.538    0.000   15.846 
#
# Total GULP energy -1289314.991072 kJ/mol
# GULP energy per Si atom -12397.259530 kJ/mol
# Density = 1.770908 g / cm^3
# Si number density = 17.749480 Si / 1000 Ang^3
#
#
#
# Elastic Constant Matrix: (Units=GPa)
#
#
# Indices 1 2 3 4 5 6 
#
# 1 145.5965 79.0348 38.5739 0.0000 0.0000 0.0000
# 2 79.0348 145.5965 38.5739 0.0000 0.0000 0.0000
# 3 38.5739 38.5739 43.4867 0.0000 0.0000 0.0000
# 4 0.0000 0.0000 0.0000 13.4437 0.0000 0.0000
# 5 0.0000 0.0000 0.0000 0.0000 13.4437 0.0000
# 6 0.0000 0.0000 0.0000 0.0000 0.0000 24.3662
#
#
#
# Elastic Compliance Matrix: (Units=1/GPa)
#
#
# Indices 1 2 3 4 5 6 
#
# 1 0.010713 -0.004311 -0.005679 0.000000 0.000000 0.000000
# 2 -0.004311 0.010713 -0.005679 0.000000 0.000000 0.000000
# 3 -0.005679 -0.005679 0.033070 0.000000 0.000000 0.000000
# 4 0.000000 0.000000 0.000000 0.074384 0.000000 0.000000
# 5 0.000000 0.000000 0.000000 0.000000 0.074384 0.000000
# 6 0.000000 0.000000 0.000000 0.000000 0.000000 0.041040
#
#
# Mechanical properties :
#
#
# Convention : Reuss Voigt Hill
#
# Bulk Modulus (GPa) = 43.17984 71.89388 57.53686
# Shear Modulus (GPa) = 17.64530 22.15051 19.89790
#
# Velocity S-wave (km/s) = 3.15640 3.53647 3.35183
# Velocity P-wave (km/s) = 6.13710 7.56758 6.88957
#
# Compressibility (1/GPa) = 0.02315896
#
# Stress axis : x y z
#
# Youngs Moduli (GPa) = 93.34561 93.34561 30.23880
#
# Poissons Ratio (x) = 0.40239 0.17172
# Poissons Ratio (y) = 0.40239 0.17172
# Poissons Ratio (z) = 0.53009 0.53009
#
# Static dielectric constant tensor:
#      x y z
#    x 3.487820 0.000000 0.000000 
#    y 0.000000 3.487820 0.000000 
#    z 0.000000 0.000000 2.923570 
# 
# 
# High freq. dielectric constant tensor:
#      x y z
#    x 1.693520 0.000000 0.000000 
#    y 0.000000 1.693520 0.000000 
#    z 0.000000 0.000000 1.643350 
# 
# From -- ./inp_files/5649.got.cif
#   From: 2010.03.12/outbox.cif.g09.slc.cpg/sg123_3_cif.got.tgz:5649.got - 2010.04.06 16:26:55.
