data_PCOD8312241
_publ_section_title
;
Structure prediction by ZEFSAII (Michael W. Deem and Ramdas Pophale) SiO2 
 PCOD8312241
Probable space group: P 4/M M M
;
_chemical_formula_sum "Si O2"
_cell_formula_units_Z 128
_cell_length_a 18.215694
_cell_length_b 18.215694
_cell_length_c 23.431879
_cell_angle_alpha 90.000000
_cell_angle_beta 90.000000
_cell_angle_gamma 90.000000
_cell_volume 7774.967104
_symmetry_space_group_name_H-M "P 4/M M M"
_symmetry_group_IT_number 123
_symmetry_cell_setting 'tetragonal'
loop_
_space_group_symop_operation_xyz
x,y,z
-y,x,z
-x,-y,z
y,-x,z
x,-y,-z
-x,y,-z
y,x,-z
-y,-x,-z
-x,-y,-z
y,-x,-z
x,y,-z
-y,x,-z
-x,y,z
x,-y,z
-y,-x,z
y,x,z
loop_
_atom_site_type_symbol
_atom_site_label
_atom_site_fract_x
_atom_site_fract_y
_atom_site_fract_z
Si Si1 0.915901 0.201899 0.147179
Si Si2 0.296954 0.415194 0.347366
Si Si3 0.333105 0.086016 0.935153
Si Si4 0.917383 0.692146 0.754167
Si Si5 0.852518 0.584784 0.162645
Si Si6 0.203697 0.915386 0.566778
Si Si7 0.699427 0.180136 0.645066
Si Si8 0.417052 0.299773 0.787281
O O1 0.871592 0.128409 0.137600
O O2 0.894968 0.257699 0.096750
O O3 0.897470 0.235370 0.209416
O O4 0.000000 0.179495 0.143093
O O5 0.300806 0.500000 0.368960
O O6 0.372806 0.372806 0.364089
O O7 0.226452 0.372786 0.375046
O O8 0.284993 0.411609 0.279896
O O9 0.398091 0.130386 0.903523
O O10 0.350890 0.000000 0.932081
O O11 0.328180 0.113790 0.000000
O O12 0.912258 0.623871 0.797319
O O13 0.863901 0.680495 0.701679
O O14 0.000000 0.696949 0.730614
O O15 0.859486 0.500000 0.175565
O O16 0.771231 0.612704 0.179213
O O17 0.219996 0.912357 0.500000
O O18 0.128300 0.871701 0.581616
O O19 0.273470 0.876375 0.596466
O O20 0.195078 0.000000 0.587499
O O21 0.763107 0.236894 0.660669
O O22 0.500000 0.318708 0.805044
O O23 0.368149 0.368149 0.806456
#
# Coordination Sequence:
#
# PCOD8312241 Si02
#       8
#    16  16  16  16  16  16  16  16
#     4   9  18  31  46  64  86 111 142 182 224 270
#     4   9  17  29  46  70  98 127 159 194 235 282
#     4   9  19  34  48  63  85 114 147 183 227 276
#     4  10  19  29  43  64  90 122 155 185 224 275
#     4  10  19  30  45  67  93 117 146 185 224 266
#     4   9  18  32  50  73 100 131 169 212 254 292
#     4  10  18  29  48  70  95 128 163 200 240 286
#     4   9  17  29  45  66  93 121 147 181 223 268
#
# _framework density 16.463092
#
# number of rings (size 3 to 8) (size 9 to 14) (size 15 to 20)
#    0.000    2.625    1.250    1.875    0.000    4.000 
#    0.000    2.500    0.000    1.500    0.000    4.375 
#    0.000    0.000    0.000    7.625    0.000    0.250 
#
# Total GULP energy -1586837.562021 kJ/mol
# GULP energy per Si atom -12397.168453 kJ/mol
# Density = 1.642562 g / cm^3
# Si number density = 16.463092 Si / 1000 Ang^3
#
#
#
# Elastic Constant Matrix: (Units=GPa)
#
#
# Indices 1 2 3 4 5 6 
#
# 1 85.4806 47.2181 26.8558 0.0000 0.0000 0.0000
# 2 47.2181 85.4806 26.8558 0.0000 0.0000 0.0000
# 3 26.8558 26.8558 44.6354 0.0000 0.0000 0.0000
# 4 0.0000 0.0000 0.0000 17.4635 0.0000 0.0000
# 5 0.0000 0.0000 0.0000 0.0000 17.4635 0.0000
# 6 0.0000 0.0000 0.0000 0.0000 0.0000 25.2357
#
#
#
# Elastic Compliance Matrix: (Units=1/GPa)
#
#
# Indices 1 2 3 4 5 6 
#
# 1 0.018049 -0.008087 -0.005994 0.000000 0.000000 0.000000
# 2 -0.008087 0.018049 -0.005994 0.000000 0.000000 0.000000
# 3 -0.005994 -0.005994 0.029616 0.000000 0.000000 0.000000
# 4 0.000000 0.000000 0.000000 0.057262 0.000000 0.000000
# 5 0.000000 0.000000 0.000000 0.000000 0.057262 0.000000
# 6 0.000000 0.000000 0.000000 0.000000 0.000000 0.039626
#
#
# Mechanical properties :
#
#
# Convention : Reuss Voigt Hill
#
# Bulk Modulus (GPa) = 39.11599 46.38400 42.75000
# Shear Modulus (GPa) = 18.61956 19.67699 19.14828
#
# Velocity S-wave (km/s) = 3.36667 3.46094 3.41413
# Velocity P-wave (km/s) = 6.23891 6.64880 6.44711
#
# Compressibility (1/GPa) = 0.02556499
#
# Stress axis : x y z
#
# Youngs Moduli (GPa) = 55.40590 55.40590 33.76515
#
# Poissons Ratio (x) = 0.44805 0.20238
# Poissons Ratio (y) = 0.44805 0.20238
# Poissons Ratio (z) = 0.33209 0.33209
#
# Static dielectric constant tensor:
#      x y z
#    x 3.158920 0.000000 0.000000 
#    y 0.000000 3.158920 0.000000 
#    z 0.000000 0.000000 2.978690 
# 
# 
# High freq. dielectric constant tensor:
#      x y z
#    x 1.633050 0.000000 0.000000 
#    y 0.000000 1.633050 0.000000 
#    z 0.000000 0.000000 1.607550 
# 
# From -- ./inp_files/7658.got.cif
#   From: 2010.03.12/outbox.cif.g09.slc.cpg/sg123_4_cif.got.tgz:7658.got - 2010.04.06 16:26:55.
