data_PCOD8312987
_publ_section_title
;
Structure prediction by ZEFSAII (Michael W. Deem and Ramdas Pophale) SiO2 
 PCOD8312987
Probable space group: P 4/M M M
;
_chemical_formula_sum "Si O2"
_cell_formula_units_Z 96
_cell_length_a 17.795775
_cell_length_b 17.795775
_cell_length_c 19.750530
_cell_angle_alpha 90.000000
_cell_angle_beta 90.000000
_cell_angle_gamma 90.000000
_cell_volume 6254.787601
_symmetry_space_group_name_H-M "P 4/M M M"
_symmetry_group_IT_number 123
_symmetry_cell_setting 'tetragonal'
loop_
_space_group_symop_operation_xyz
x,y,z
-y,x,z
-x,-y,z
y,-x,z
x,-y,-z
-x,y,-z
y,x,-z
-y,-x,-z
-x,-y,-z
y,-x,-z
x,y,-z
-y,x,-z
-x,y,z
x,-y,z
-y,-x,z
y,x,z
loop_
_atom_site_type_symbol
_atom_site_label
_atom_site_fract_x
_atom_site_fract_y
_atom_site_fract_z
Si Si1 0.302512 0.176242 0.424711
Si Si2 0.176242 0.697489 0.924711
Si Si3 0.583922 0.297469 0.419396
Si Si4 0.297468 0.416078 0.080604
Si Si5 0.914153 0.791910 0.672167
Si Si6 0.791910 0.914153 0.827833
O O1 0.313803 0.141689 0.500000
O O2 0.238322 0.238322 0.427548
O O3 0.378359 0.217680 0.398932
O O4 0.279425 0.110649 0.372906
O O5 0.238321 0.761680 0.927550
O O6 0.217681 0.621643 0.898931
O O7 0.110649 0.720576 0.872906
O O8 0.141689 0.686196 0.000000
O O9 0.582232 0.302777 0.500000
O O10 0.500000 0.301320 0.388736
O O11 0.632575 0.367426 0.390373
O O12 0.301319 0.500000 0.111264
O O13 0.367427 0.367427 0.109626
O O14 0.302776 0.417769 0.000000
O O15 0.865613 0.865613 0.654267
O O16 0.903201 0.768368 0.750000
O O17 0.000000 0.812254 0.655782
O O18 0.865613 0.865613 0.845733
O O19 0.812254 0.000000 0.844218
#
# Coordination Sequence:
#
# PCOD8312987 Si02
#       6
#    16  16  16  16  16  16
#     4   8  14  25  40  57  78 105 135 163 190 224
#     4   8  14  25  40  57  78 105 135 163 190 224
#     4   8  13  21  35  57  83 108 133 162 196 232
#     4   8  13  21  35  57  83 108 133 162 196 232
#     4   9  17  28  42  60  80 101 126 158 196 237
#     4   9  17  28  42  60  80 101 126 158 196 237
#
# _framework density 15.348243
#
# number of rings (size 3 to 8) (size 9 to 14) (size 15 to 20)
#    0.000    3.667    0.000    2.000    0.000    1.333 
#    0.000    3.333    0.000    2.000    0.000   11.667 
#    0.000    0.000    0.000   13.000    0.000   13.333 
#
# Total GULP energy -1189661.443128 kJ/mol
# GULP energy per Si atom -12392.306699 kJ/mol
# Density = 1.531331 g / cm^3
# Si number density = 15.348243 Si / 1000 Ang^3
#
#
#
# Elastic Constant Matrix: (Units=GPa)
#
#
# Indices 1 2 3 4 5 6 
#
# 1 84.0882 70.0607 41.0140 0.0000 0.0000 0.0000
# 2 70.0607 84.0882 41.0140 0.0000 0.0000 0.0000
# 3 41.0140 41.0140 47.0267 0.0000 0.0000 0.0000
# 4 0.0000 0.0000 0.0000 13.8306 0.0000 0.0000
# 5 0.0000 0.0000 0.0000 0.0000 13.8306 0.0000
# 6 0.0000 0.0000 0.0000 0.0000 0.0000 17.5839
#
#
#
# Elastic Compliance Matrix: (Units=1/GPa)
#
#
# Indices 1 2 3 4 5 6 
#
# 1 0.041697 -0.029592 -0.010557 0.000000 0.000000 0.000000
# 2 -0.029592 0.041697 -0.010557 0.000000 0.000000 0.000000
# 3 -0.010557 -0.010557 0.039680 0.000000 0.000000 0.000000
# 4 0.000000 0.000000 0.000000 0.072303 0.000000 0.000000
# 5 0.000000 0.000000 0.000000 0.000000 0.072303 0.000000
# 6 0.000000 0.000000 0.000000 0.000000 0.000000 0.056870
#
#
# Mechanical properties :
#
#
# Convention : Reuss Voigt Hill
#
# Bulk Modulus (GPa) = 46.16739 57.70894 51.93816
# Shear Modulus (GPa) = 11.54242 13.25664 12.39953
#
# Velocity S-wave (km/s) = 2.74530 2.94211 2.84541
# Velocity P-wave (km/s) = 6.33988 7.01589 6.68643
#
# Compressibility (1/GPa) = 0.02166031
#
# Stress axis : x y z
#
# Youngs Moduli (GPa) = 23.98254 23.98254 25.20172
#
# Poissons Ratio (x) = 0.70969 0.26607
# Poissons Ratio (y) = 0.70969 0.26607
# Poissons Ratio (z) = 0.25320 0.25320
#
# Static dielectric constant tensor:
#      x y z
#    x 3.050950 0.000000 0.000000 
#    y 0.000000 3.050950 0.000000 
#    z 0.000000 0.000000 2.850670 
# 
# 
# High freq. dielectric constant tensor:
#      x y z
#    x 1.574680 0.000000 0.000000 
#    y 0.000000 1.574680 0.000000 
#    z 0.000000 0.000000 1.555700 
# 
# From -- ./inp_files/1867.got.cif
#   From: 2010.03.12/outbox.cif.g09.slc.cpg/sg123_1_cif.got.tgz:1867.got - 2010.04.06 16:26:55.
