data_PCOD8312760
_publ_section_title
;
Structure prediction by ZEFSAII (Michael W. Deem and Ramdas Pophale) SiO2 
 PCOD8312760
Probable space group: P 4/M M M
;
_chemical_formula_sum "Si O2"
_cell_formula_units_Z 72
_cell_length_a 13.683723
_cell_length_b 13.683723
_cell_length_c 22.516175
_cell_angle_alpha 90.000000
_cell_angle_beta 90.000000
_cell_angle_gamma 90.000000
_cell_volume 4216.024867
_symmetry_space_group_name_H-M "P 4/M M M"
_symmetry_group_IT_number 123
_symmetry_cell_setting 'tetragonal'
loop_
_space_group_symop_operation_xyz
x,y,z
-y,x,z
-x,-y,z
y,-x,z
x,-y,-z
-x,y,-z
y,x,-z
-y,-x,-z
-x,-y,-z
y,-x,-z
x,y,-z
-y,x,-z
-x,y,z
x,-y,z
-y,-x,z
y,x,z
loop_
_atom_site_type_symbol
_atom_site_label
_atom_site_fract_x
_atom_site_fract_y
_atom_site_fract_z
Si Si1 0.112781 0.270915 0.789595
Si Si2 0.109523 0.615630 0.000000
Si Si3 0.769548 0.611387 0.567653
Si Si4 0.731033 0.110866 0.653331
Si Si5 0.774204 0.615067 0.116068
O O1 0.169730 0.169730 0.802724
O O2 0.124705 0.302460 0.721236
O O3 0.158528 0.358919 0.827591
O O4 0.000000 0.254452 0.806807
O O5 0.167828 0.650920 0.942129
O O6 0.101359 0.500000 0.000000
O O7 0.000000 0.660993 0.000000
O O8 0.804366 0.627917 0.500000
O O9 0.741891 0.500000 0.579942
O O10 0.672758 0.672758 0.582378
O O11 0.857213 0.642296 0.611021
O O12 0.827070 0.172931 0.638303
O O13 0.758912 0.000000 0.639593
O O14 0.752157 0.500000 0.115527
O O15 0.670710 0.670710 0.119094
#
# Coordination Sequence:
#
# PCOD8312760 Si02
#       5
#    16   8  16  16  16
#     4   9  18  32  50  72  96 123 156 194 237 284
#     4   9  17  30  49  71  93 119 153 193 236 279
#     4   9  18  32  49  69  93 121 154 193 235 278
#     4   9  18  32  49  70  96 124 155 192 233 279
#     4  10  20  33  49  70  97 129 165 202 238 279
#
# _framework density 17.077698000000002
#
# number of rings (size 3 to 8) (size 9 to 14) (size 15 to 20)
#    0.000    2.778    0.000    1.000    0.000    4.000 
#    0.000    6.667    0.000    2.000    0.000    9.333 
#    0.000    8.000    0.000    0.000    0.000    0.000 
#
# Total GULP energy -892863.453120 kJ/mol
# GULP energy per Si atom -12400.881293 kJ/mol
# Density = 1.703883 g / cm^3
# Si number density = 17.077698 Si / 1000 Ang^3
#
#
#
# Elastic Constant Matrix: (Units=GPa)
#
#
# Indices 1 2 3 4 5 6 
#
# 1 103.2498 45.3898 54.8893 0.0000 0.0000 0.0000
# 2 45.3898 103.2498 54.8893 0.0000 0.0000 0.0000
# 3 54.8893 54.8893 91.3015 0.0000 0.0000 0.0000
# 4 0.0000 0.0000 0.0000 27.6306 0.0000 0.0000
# 5 0.0000 0.0000 0.0000 0.0000 27.6306 0.0000
# 6 0.0000 0.0000 0.0000 0.0000 0.0000 12.8383
#
#
#
# Elastic Compliance Matrix: (Units=1/GPa)
#
#
# Indices 1 2 3 4 5 6 
#
# 1 0.014692 -0.002591 -0.007275 0.000000 0.000000 0.000000
# 2 -0.002591 0.014692 -0.007275 0.000000 0.000000 0.000000
# 3 -0.007275 -0.007275 0.019699 0.000000 0.000000 0.000000
# 4 0.000000 0.000000 0.000000 0.036192 0.000000 0.000000
# 5 0.000000 0.000000 0.000000 0.000000 0.036192 0.000000
# 6 0.000000 0.000000 0.000000 0.000000 0.000000 0.077892
#
#
# Mechanical properties :
#
#
# Convention : Reuss Voigt Hill
#
# Bulk Modulus (GPa) = 67.55893 67.57086 67.56489
# Shear Modulus (GPa) = 20.95789 23.12874 22.04332
#
# Velocity S-wave (km/s) = 3.50695 3.68411 3.59662
# Velocity P-wave (km/s) = 7.48625 7.59931 7.54299
#
# Compressibility (1/GPa) = 0.01480189
#
# Stress axis : x y z
#
# Youngs Moduli (GPa) = 68.06556 68.06556 50.76273
#
# Poissons Ratio (x) = 0.17638 0.36928
# Poissons Ratio (y) = 0.17638 0.36928
# Poissons Ratio (z) = 0.49515 0.49515
#
# Static dielectric constant tensor:
#      x y z
#    x 3.123510 0.000000 0.000000 
#    y 0.000000 3.123510 0.000000 
#    z 0.000000 0.000000 3.366190 
# 
# 
# High freq. dielectric constant tensor:
#      x y z
#    x 1.651760 0.000000 0.000000 
#    y 0.000000 1.651760 0.000000 
#    z 0.000000 0.000000 1.668710 
# 
# From -- ./inp_files/5125.got.cif
#   From: 2010.03.12/outbox.cif.g09.slc.cpg/sg123_3_cif.got.tgz:5125.got - 2010.04.06 16:26:55.
