data_PCOD8312203
_publ_section_title
;
Structure prediction by ZEFSAII (Michael W. Deem and Ramdas Pophale) SiO2 
 PCOD8312203
Probable space group: P 4/M M M
;
_chemical_formula_sum "Si O2"
_cell_formula_units_Z 96
_cell_length_a 21.441290
_cell_length_b 21.441290
_cell_length_c 12.645890
_cell_angle_alpha 90.000000
_cell_angle_beta 90.000000
_cell_angle_gamma 90.000000
_cell_volume 5813.681312
_symmetry_space_group_name_H-M "P 4/M M M"
_symmetry_group_IT_number 123
_symmetry_cell_setting 'tetragonal'
loop_
_space_group_symop_operation_xyz
x,y,z
-y,x,z
-x,-y,z
y,-x,z
x,-y,-z
-x,y,-z
y,x,-z
-y,-x,-z
-x,-y,-z
y,-x,-z
x,y,-z
-y,x,-z
-x,y,z
x,-y,z
-y,-x,z
y,x,z
loop_
_atom_site_type_symbol
_atom_site_label
_atom_site_fract_x
_atom_site_fract_y
_atom_site_fract_z
Si Si1 0.929189 0.364799 0.000000
Si Si2 0.202549 0.573434 0.000000
Si Si3 0.348313 0.245050 0.195810
Si Si4 0.802473 0.428957 0.621386
Si Si5 0.369091 0.930130 0.379259
Si Si6 0.885289 0.289192 0.197092
Si Si7 0.166423 0.069122 0.121607
O O1 0.872667 0.415280 0.000000
O O2 0.923168 0.323046 0.895893
O O3 0.000000 0.394225 0.000000
O O4 0.237477 0.602401 0.898843
O O5 0.214002 0.500000 0.000000
O O6 0.310137 0.310137 0.188241
O O7 0.385347 0.241212 0.306705
O O8 0.300311 0.188241 0.189028
O O9 0.787786 0.412010 0.500000
O O10 0.785694 0.500000 0.646968
O O11 0.876694 0.420498 0.645582
O O12 0.346642 0.925713 0.500000
O O13 0.309486 0.915412 0.307795
O O14 0.395976 0.000000 0.355725
O O15 0.892554 0.215573 0.190093
O O16 0.098786 0.098786 0.136336
O O17 0.162060 0.000000 0.166434
O O18 0.187881 0.070682 0.000000
#
# Coordination Sequence:
#
# PCOD8312203 Si02
#       7
#     8   8  16  16  16  16  16
#     4  10  18  28  46  69  93 126 161 192 226 268
#     4  10  21  34  48  69  99 130 157 191 231 272
#     4  10  20  33  50  71  95 125 159 194 230 272
#     4   9  18  32  49  70  98 129 158 193 235 274
#     4   9  17  28  44  67  95 129 164 193 222 263
#     4  10  18  30  46  66  92 120 155 196 236 275
#     4  10  19  29  43  62  84 112 147 191 244 296
#
# _framework density 16.512771999999998
#
# number of rings (size 3 to 8) (size 9 to 14) (size 15 to 20)
#    0.000    2.333    0.833    2.750    0.000    1.000 
#    0.000    2.500    0.000    7.500    0.000    0.000 
#    0.000   13.667    0.000   10.833    0.000    0.167 
#
# Total GULP energy -1189996.909071 kJ/mol
# GULP energy per Si atom -12395.801136 kJ/mol
# Density = 1.647519 g / cm^3
# Si number density = 16.512772 Si / 1000 Ang^3
#
#
#
# Elastic Constant Matrix: (Units=GPa)
#
#
# Indices 1 2 3 4 5 6 
#
# 1 90.1924 57.3297 39.3681 0.0000 0.0000 0.0000
# 2 57.3297 90.1924 39.3681 0.0000 0.0000 0.0000
# 3 39.3681 39.3681 81.2879 0.0000 0.0000 0.0000
# 4 0.0000 0.0000 0.0000 19.9717 0.0000 0.0000
# 5 0.0000 0.0000 0.0000 0.0000 19.9717 0.0000
# 6 0.0000 0.0000 0.0000 0.0000 0.0000 16.6923
#
#
#
# Elastic Compliance Matrix: (Units=1/GPa)
#
#
# Indices 1 2 3 4 5 6 
#
# 1 0.019786 -0.010644 -0.004427 0.000000 0.000000 0.000000
# 2 -0.010644 0.019786 -0.004427 0.000000 0.000000 0.000000
# 3 -0.004427 -0.004427 0.016590 0.000000 0.000000 0.000000
# 4 0.000000 0.000000 0.000000 0.050071 0.000000 0.000000
# 5 0.000000 0.000000 0.000000 0.000000 0.050071 0.000000
# 6 0.000000 0.000000 0.000000 0.000000 0.000000 0.059908
#
#
# Mechanical properties :
#
#
# Convention : Reuss Voigt Hill
#
# Bulk Modulus (GPa) = 58.26068 59.31161 58.78614
# Shear Modulus (GPa) = 19.16222 19.70091 19.43156
#
# Velocity S-wave (km/s) = 3.41023 3.45783 3.43411
# Velocity P-wave (km/s) = 7.13197 7.20685 7.16951
#
# Compressibility (1/GPa) = 0.01716423
#
# Stress axis : x y z
#
# Youngs Moduli (GPa) = 50.54177 50.54177 60.27617
#
# Poissons Ratio (x) = 0.53797 0.26686
# Poissons Ratio (y) = 0.53797 0.26686
# Poissons Ratio (z) = 0.22376 0.22376
#
# Static dielectric constant tensor:
#      x y z
#    x 2.931430 0.000000 0.000000 
#    y 0.000000 2.931430 0.000000 
#    z 0.000000 0.000000 3.223460 
# 
# 
# High freq. dielectric constant tensor:
#      x y z
#    x 1.616850 0.000000 0.000000 
#    y 0.000000 1.616850 0.000000 
#    z 0.000000 0.000000 1.637830 
# 
# From -- ./inp_files/3207.got.cif
#   From: 2010.03.12/outbox.cif.g09.slc.cpg/sg123_2_cif.got.tgz:3207.got - 2010.04.06 16:26:55.
