data_PCOD8312451
_publ_section_title
;
Structure prediction by ZEFSAII (Michael W. Deem and Ramdas Pophale) SiO2 
 PCOD8312451
Probable space group: P 4/M M M
;
_chemical_formula_sum "Si O2"
_cell_formula_units_Z 96
_cell_length_a 17.604594
_cell_length_b 17.604594
_cell_length_c 18.626333
_cell_angle_alpha 90.000000
_cell_angle_beta 90.000000
_cell_angle_gamma 90.000000
_cell_volume 5772.705345
_symmetry_space_group_name_H-M "P 4/M M M"
_symmetry_group_IT_number 123
_symmetry_cell_setting 'tetragonal'
loop_
_space_group_symop_operation_xyz
x,y,z
-y,x,z
-x,-y,z
y,-x,z
x,-y,-z
-x,y,-z
y,x,-z
-y,-x,-z
-x,-y,-z
y,-x,-z
x,y,-z
-y,x,-z
-x,y,z
x,-y,z
-y,-x,z
y,x,z
loop_
_atom_site_type_symbol
_atom_site_label
_atom_site_fract_x
_atom_site_fract_y
_atom_site_fract_z
Si Si1 0.415962 0.216450 0.920168
Si Si2 0.586754 0.086672 0.584587
Si Si3 0.084976 0.793500 0.777542
Si Si4 0.414079 0.705237 0.775577
Si Si5 0.312053 0.188622 0.683484
Si Si6 0.140319 0.263291 0.920159
O O1 0.500000 0.178917 0.912816
O O2 0.407432 0.282023 0.861030
O O3 0.353248 0.151319 0.908338
O O4 0.405420 0.252374 0.000000
O O5 0.595856 0.095218 0.500000
O O6 0.500000 0.105865 0.607461
O O7 0.645633 0.146101 0.618872
O O8 0.606016 0.000000 0.607949
O O9 0.125505 0.874496 0.769522
O O10 0.126733 0.730745 0.730736
O O11 0.082503 0.768023 0.860961
O O12 0.000000 0.802969 0.748900
O O13 0.500000 0.699361 0.748660
O O14 0.373772 0.626228 0.756394
O O15 0.374728 0.774393 0.734527
O O16 0.252432 0.252432 0.654306
O O17 0.222180 0.222180 0.909822
O O18 0.107522 0.246834 0.000000
#
# Coordination Sequence:
#
# PCOD8312451 Si02
#       6
#    16  16  16  16  16  16
#     4   9  16  26  43  65  89 119 156 199 241 277
#     4   9  18  33  53  76 101 127 152 182 227 279
#     4  10  20  33  49  70  94 120 153 192 236 285
#     4  10  19  30  45  66  93 125 161 200 239 276
#     4  10  19  32  50  72  97 125 159 194 224 264
#     4   9  16  28  46  64  86 118 157 198 235 276
#
# _framework density 16.629984
#
# number of rings (size 3 to 8) (size 9 to 14) (size 15 to 20)
#    0.000    2.500    1.667    2.000    0.000    2.000 
#    0.000    0.000    0.000    1.500    0.000    7.000 
#    0.000    0.000    0.000   31.000    0.000    0.000 
#
# Total GULP energy -1189935.196599 kJ/mol
# GULP energy per Si atom -12395.158298 kJ/mol
# Density = 1.659213 g / cm^3
# Si number density = 16.629984 Si / 1000 Ang^3
#
#
#
# Elastic Constant Matrix: (Units=GPa)
#
#
# Indices 1 2 3 4 5 6 
#
# 1 112.8517 55.5181 39.3406 0.0000 0.0000 0.0000
# 2 55.5181 112.8517 39.3406 0.0000 0.0000 0.0000
# 3 39.3406 39.3406 61.9278 0.0000 0.0000 0.0000
# 4 0.0000 0.0000 0.0000 20.7406 0.0000 0.0000
# 5 0.0000 0.0000 0.0000 0.0000 20.7406 0.0000
# 6 0.0000 0.0000 0.0000 0.0000 0.0000 18.6694
#
#
#
# Elastic Compliance Matrix: (Units=1/GPa)
#
#
# Indices 1 2 3 4 5 6 
#
# 1 0.012944 -0.004497 -0.005366 0.000000 0.000000 0.000000
# 2 -0.004497 0.012944 -0.005366 0.000000 0.000000 0.000000
# 3 -0.005366 -0.005366 0.022966 0.000000 0.000000 0.000000
# 4 0.000000 0.000000 0.000000 0.048215 0.000000 0.000000
# 5 0.000000 0.000000 0.000000 0.000000 0.048215 0.000000
# 6 0.000000 0.000000 0.000000 0.000000 0.000000 0.053564
#
#
# Mechanical properties :
#
#
# Convention : Reuss Voigt Hill
#
# Bulk Modulus (GPa) = 54.36189 61.78111 58.07150
# Shear Modulus (GPa) = 21.23700 22.25889 21.74795
#
# Velocity S-wave (km/s) = 3.57743 3.66249 3.62021
# Velocity P-wave (km/s) = 7.05862 7.42403 7.24363
#
# Compressibility (1/GPa) = 0.01839524
#
# Stress axis : x y z
#
# Youngs Moduli (GPa) = 77.25383 77.25383 43.54348
#
# Poissons Ratio (x) = 0.34744 0.23366
# Poissons Ratio (y) = 0.34744 0.23366
# Poissons Ratio (z) = 0.41455 0.41455
#
# Static dielectric constant tensor:
#      x y z
#    x 3.045830 0.000000 0.000000 
#    y 0.000000 3.045830 0.000000 
#    z 0.000000 0.000000 3.018400 
# 
# 
# High freq. dielectric constant tensor:
#      x y z
#    x 1.630770 0.000000 0.000000 
#    y 0.000000 1.630770 0.000000 
#    z 0.000000 0.000000 1.630000 
# 
# From -- ./inp_files/5470.got.cif
#   From: 2010.03.12/outbox.cif.g09.slc.cpg/sg123_3_cif.got.tgz:5470.got - 2010.04.06 16:26:55.
