data_PCOD8312960
_publ_section_title
;
Structure prediction by ZEFSAII (Michael W. Deem and Ramdas Pophale) SiO2 
 PCOD8312960
Probable space group: P 4/M M M
;
_chemical_formula_sum "Si O2"
_cell_formula_units_Z 88
_cell_length_a 17.804504
_cell_length_b 17.804504
_cell_length_c 14.134507
_cell_angle_alpha 90.000000
_cell_angle_beta 90.000000
_cell_angle_gamma 90.000000
_cell_volume 4480.643845
_symmetry_space_group_name_H-M "P 4/M M M"
_symmetry_group_IT_number 123
_symmetry_cell_setting 'tetragonal'
loop_
_space_group_symop_operation_xyz
x,y,z
-y,x,z
-x,-y,z
y,-x,z
x,-y,-z
-x,y,-z
y,x,-z
-y,-x,-z
-x,-y,-z
y,-x,-z
x,y,-z
-y,x,-z
-x,y,z
x,-y,z
-y,-x,z
y,x,z
loop_
_atom_site_type_symbol
_atom_site_label
_atom_site_fract_x
_atom_site_fract_y
_atom_site_fract_z
Si Si1 0.736443 0.857679 0.394387
Si Si2 0.582685 0.788644 0.606258
Si Si3 0.649642 0.163716 0.887824
Si Si4 0.415402 0.699991 0.209948
Si Si5 0.916672 0.500000 0.112564
Si Si6 0.085937 0.791735 0.206668
O O1 0.748346 0.890979 0.500000
O O2 0.775920 0.775920 0.385515
O O3 0.647909 0.848965 0.371189
O O4 0.773053 0.913807 0.318624
O O5 0.594918 0.756723 0.500000
O O6 0.500000 0.827522 0.614826
O O7 0.587346 0.720308 0.679303
O O8 0.641638 0.247665 0.849205
O O9 0.574989 0.122536 0.848754
O O10 0.723788 0.123467 0.850144
O O11 0.654410 0.163811 0.000000
O O12 0.500000 0.704170 0.168952
O O13 0.384607 0.615394 0.199172
O O14 0.000000 0.500000 0.153480
O O15 0.915736 0.500000 0.000000
O O16 0.132078 0.867923 0.185294
O O17 0.000000 0.803380 0.173765
#
# Coordination Sequence:
#
# PCOD8312960 Si02
#       6
#    16  16  16  16   8  16
#     4   9  17  32  56  83 113 150 192 238 286 340
#     4   9  17  30  52  83 117 152 191 236 286 343
#     4  11  22  39  61  88 117 148 192 242 295 352
#     4  11  22  36  56  83 116 155 200 245 290 342
#     4   9  18  34  58  86 114 142 174 223 290 354
#     4  11  24  41  62  89 119 154 197 242 292 350
#
# _framework density 19.640035000000001
#
# number of rings (size 3 to 8) (size 9 to 14) (size 15 to 20)
#    0.000    1.909    2.727    1.636    0.000    4.364 
#    0.000    0.000    0.000    0.000    0.000   10.182 
#    0.000    0.000    0.000    0.000    0.000    0.000 
#
# Total GULP energy -1090879.183205 kJ/mol
# GULP energy per Si atom -12396.354355 kJ/mol
# Density = 1.959533 g / cm^3
# Si number density = 19.640035 Si / 1000 Ang^3
#
#
#
# Elastic Constant Matrix: (Units=GPa)
#
#
# Indices 1 2 3 4 5 6 
#
# 1 107.5770 64.9999 29.8604 0.0000 0.0000 0.0000
# 2 64.9999 107.5770 29.8604 0.0000 0.0000 0.0000
# 3 29.8604 29.8604 71.3075 0.0000 0.0000 0.0000
# 4 0.0000 0.0000 0.0000 18.5593 0.0000 0.0000
# 5 0.0000 0.0000 0.0000 0.0000 18.5593 0.0000
# 6 0.0000 0.0000 0.0000 0.0000 0.0000 23.4389
#
#
#
# Elastic Compliance Matrix: (Units=1/GPa)
#
#
# Indices 1 2 3 4 5 6 
#
# 1 0.015132 -0.008355 -0.002838 0.000000 0.000000 0.000000
# 2 -0.008355 0.015132 -0.002838 0.000000 0.000000 0.000000
# 3 -0.002838 -0.002838 0.016400 0.000000 0.000000 0.000000
# 4 0.000000 0.000000 0.000000 0.053881 0.000000 0.000000
# 5 0.000000 0.000000 0.000000 0.000000 0.053881 0.000000
# 6 0.000000 0.000000 0.000000 0.000000 0.000000 0.042664
#
#
# Mechanical properties :
#
#
# Convention : Reuss Voigt Hill
#
# Bulk Modulus (GPa) = 53.75590 59.54474 56.65032
# Shear Modulus (GPa) = 21.61206 22.89423 22.25314
#
# Velocity S-wave (km/s) = 3.32084 3.41793 3.36973
# Velocity P-wave (km/s) = 6.49107 6.77939 6.63680
#
# Compressibility (1/GPa) = 0.01860261
#
# Stress axis : x y z
#
# Youngs Moduli (GPa) = 66.08658 66.08658 60.97419
#
# Poissons Ratio (x) = 0.55216 0.17303
# Poissons Ratio (y) = 0.55216 0.17303
# Poissons Ratio (z) = 0.18753 0.18753
#
# Static dielectric constant tensor:
#      x y z
#    x 3.481230 0.000000 0.000000 
#    y 0.000000 3.481230 0.000000 
#    z 0.000000 0.000000 3.646940 
# 
# 
# High freq. dielectric constant tensor:
#      x y z
#    x 1.749180 0.000000 0.000000 
#    y 0.000000 1.749180 0.000000 
#    z 0.000000 0.000000 1.770350 
# 
# From -- ./inp_files/4047.got.cif
#   From: 2010.03.12/outbox.cif.g09.slc.cpg/sg123_3_cif.got.tgz:4047.got - 2010.04.06 16:26:55.
