data_PCOD8312075
_publ_section_title
;
Structure prediction by ZEFSAII (Michael W. Deem and Ramdas Pophale) SiO2 
 PCOD8312075
Probable space group: I -4 2 D
;
_chemical_formula_sum "Si O2"
_cell_formula_units_Z 72
_cell_length_a 10.840421
_cell_length_b 10.840421
_cell_length_c 26.124146
_cell_angle_alpha 90.000000
_cell_angle_beta 90.000000
_cell_angle_gamma 90.000000
_cell_volume 3069.971897
_symmetry_space_group_name_H-M "I -4 2 D"
_symmetry_group_IT_number 122
_symmetry_cell_setting 'tetragonal'
loop_
_space_group_symop_operation_xyz
x,y,z
y,-x,-z
-x,-y,z
-y,x,-z
x,1/2-y,1/4-z
-x,1/2+y,1/4-z
-y,1/2-x,1/4+z
y,1/2+x,1/4+z
1/2+x,1/2+y,1/2+z
1/2+y,1/2-x,1/2-z
1/2-x,1/2-y,1/2+z
1/2-y,1/2+x,1/2-z
1/2+x,-y,3/4-z
1/2-x,y,3/4-z
1/2-y,-x,3/4+z
1/2+y,x,3/4+z
loop_
_atom_site_type_symbol
_atom_site_label
_atom_site_fract_x
_atom_site_fract_y
_atom_site_fract_z
Si Si1 0.369731 0.351851 0.990907
Si Si2 0.750000 0.520466 0.375000
Si Si3 0.413548 0.882545 0.133395
Si Si4 0.558685 0.691812 0.429307
Si Si5 0.346976 0.207628 0.709418
O O1 0.367409 0.315248 0.930717
O O2 0.330723 0.495021 0.987031
O O3 0.280312 0.276455 0.027934
O O4 0.631878 0.601117 0.391518
O O5 0.708732 0.437304 0.325688
O O6 0.483116 0.750000 0.125000
O O7 0.333967 0.910274 0.083001
O O8 0.500000 0.000000 0.145372
O O9 0.591171 0.666551 0.487963
O O10 0.412212 0.674579 0.423712
#
# Coordination Sequence:
#
# PCOD8312075 Si02
#       5
#    16   8  16  16  16
#     4  11  25  50  73 108 160 205 261 327 399 483
#     4  12  26  48  76 118 154 208 264 332 422 496
#     4  12  26  47  77 110 154 210 269 329 403 491
#     4  12  26  50  77 112 161 201 262 335 411 482
#     4  12  27  47  78 115 157 205 264 330 410 493
#
# _framework density 23.452984000000001
#
# number of rings (size 3 to 8) (size 9 to 14) (size 15 to 20)
#    0.000    0.222    7.778    0.667    6.222    0.000 
#    4.000    2.222    0.000    0.000    0.000    0.000 
#    0.000    0.000    0.000    0.000    0.000    0.000 
#
# Total GULP energy -446263.521749 kJ/mol
# GULP energy per Si atom -12396.208937 kJ/mol
# Density = 2.339960 g / cm^3
# Si number density = 23.452984 Si / 1000 Ang^3
#
#
#
# Elastic Constant Matrix: (Units=GPa)
#
#
# Indices 1 2 3 4 5 6 
#
# 1 138.7164 73.3586 56.2199 0.0000 0.0000 0.0000
# 2 73.3586 138.7164 56.2199 0.0000 0.0000 0.0000
# 3 56.2199 56.2199 114.8765 0.0000 0.0000 0.0000
# 4 0.0000 0.0000 0.0000 43.6877 0.0000 0.0000
# 5 0.0000 0.0000 0.0000 0.0000 43.6877 0.0000
# 6 0.0000 0.0000 0.0000 0.0000 0.0000 35.1177
#
#
#
# Elastic Compliance Matrix: (Units=1/GPa)
#
#
# Indices 1 2 3 4 5 6 
#
# 1 0.010834 -0.004466 -0.003116 0.000000 0.000000 0.000000
# 2 -0.004466 0.010834 -0.003116 0.000000 0.000000 0.000000
# 3 -0.003116 -0.003116 0.011755 0.000000 0.000000 0.000000
# 4 0.000000 0.000000 0.000000 0.022890 0.000000 0.000000
# 5 0.000000 0.000000 0.000000 0.000000 0.022890 0.000000
# 6 0.000000 0.000000 0.000000 0.000000 0.000000 0.028476
#
#
# Mechanical properties :
#
#
# Convention : Reuss Voigt Hill
#
# Bulk Modulus (GPa) = 83.15838 84.87845 84.01842
# Shear Modulus (GPa) = 37.57014 38.26599 37.91807
#
# Velocity S-wave (km/s) = 4.00676 4.04369 4.02527
# Velocity P-wave (km/s) = 7.54586 7.62046 7.58325
#
# Compressibility (1/GPa) = 0.01202525
#
# Stress axis : x y z
#
# Youngs Moduli (GPa) = 92.30246 92.30246 85.06928
#
# Poissons Ratio (x) = 0.41226 0.26509
# Poissons Ratio (y) = 0.41226 0.26509
# Poissons Ratio (z) = 0.28763 0.28763
#
# Static dielectric constant tensor:
#      x y z
#    x 4.182610 0.000000 0.000000 
#    y 0.000000 4.182610 0.000000 
#    z 0.000000 0.000000 4.593390 
# 
# 
# High freq. dielectric constant tensor:
#      x y z
#    x 1.921550 0.000000 0.000000 
#    y 0.000000 1.921550 0.000000 
#    z 0.000000 0.000000 1.947340 
# 
# From -- ./inp_files/8618.got.cif
#   From: 2010.03.12/outbox.cif.g09.slc.cpg/sg122_5_cif.got.tgz:8618.got - 2010.04.06 16:17:16.
