data_PCOD8312485
_publ_section_title
;
Structure prediction by ZEFSAII (Michael W. Deem and Ramdas Pophale) SiO2 
 PCOD8312485
Probable space group: P 4/M M M
;
_chemical_formula_sum "Si O2"
_cell_formula_units_Z 96
_cell_length_a 25.010018
_cell_length_b 25.010018
_cell_length_c 9.312382
_cell_angle_alpha 90.000000
_cell_angle_beta 90.000000
_cell_angle_gamma 90.000000
_cell_volume 5824.904257
_symmetry_space_group_name_H-M "P 4/M M M"
_symmetry_group_IT_number 123
_symmetry_cell_setting 'tetragonal'
loop_
_space_group_symop_operation_xyz
x,y,z
-y,x,z
-x,-y,z
y,-x,z
x,-y,-z
-x,y,-z
y,x,-z
-y,-x,-z
-x,-y,-z
y,-x,-z
x,y,-z
-y,x,-z
-x,y,z
x,-y,z
-y,-x,z
y,x,z
loop_
_atom_site_type_symbol
_atom_site_label
_atom_site_fract_x
_atom_site_fract_y
_atom_site_fract_z
Si Si1 0.752780 0.437725 0.667035
Si Si2 0.941538 0.758567 0.338827
Si Si3 0.647499 0.439011 0.835800
Si Si4 0.754486 0.840178 0.167330
Si Si5 0.630931 0.839581 0.169118
Si Si6 0.941036 0.631645 0.660867
O O1 0.753896 0.422414 0.500000
O O2 0.765464 0.500000 0.691694
O O3 0.695188 0.422670 0.730402
O O4 0.795547 0.403480 0.751920
O O5 0.931854 0.779546 0.500000
O O6 0.893071 0.779371 0.240893
O O7 0.942055 0.695065 0.336409
O O8 0.000000 0.779006 0.283515
O O9 0.629953 0.500000 0.810964
O O10 0.596653 0.403348 0.796170
O O11 0.666261 0.429685 0.000000
O O12 0.788535 0.788535 0.215935
O O13 0.692959 0.829772 0.210050
O O14 0.759522 0.850775 0.000000
O O15 0.610797 0.897321 0.225818
O O16 0.620949 0.836466 0.000000
O O17 0.926197 0.611815 0.500000
O O18 0.000000 0.609778 0.704153
#
# Coordination Sequence:
#
# PCOD8312485 Si02
#       6
#    16  16  16  16  16  16
#     4  10  21  36  52  69  91 121 158 196 229 267
#     4   8  14  25  41  61  85 115 152 189 222 260
#     4   9  18  33  53  76 100 124 150 183 225 272
#     4   9  18  30  42  62  94 125 151 182 221 266
#     4  10  19  30  47  69  92 121 155 191 233 277
#     4   8  14  26  44  65  90 119 150 186 228 274
#
# _framework density 16.480958000000001
#
# number of rings (size 3 to 8) (size 9 to 14) (size 15 to 20)
#    0.000    3.000    0.000    2.000    0.000    3.833 
#    0.000    5.833    0.000    0.500    0.000    5.833 
#    0.000    0.333    0.000    3.667    0.000    3.000 
#
# Total GULP energy -1189968.073327 kJ/mol
# GULP energy per Si atom -12395.500764 kJ/mol
# Density = 1.644345 g / cm^3
# Si number density = 16.480958 Si / 1000 Ang^3
#
#
#
# Elastic Constant Matrix: (Units=GPa)
#
#
# Indices 1 2 3 4 5 6 
#
# 1 90.0223 65.4959 60.0828 0.0000 0.0000 0.0000
# 2 65.4959 90.0223 60.0828 0.0000 0.0000 0.0000
# 3 60.0828 60.0828 93.0203 0.0000 0.0000 0.0000
# 4 0.0000 0.0000 0.0000 26.6628 0.0000 0.0000
# 5 0.0000 0.0000 0.0000 0.0000 26.6628 0.0000
# 6 0.0000 0.0000 0.0000 0.0000 0.0000 -2.7191
#
#
#
# Elastic Compliance Matrix: (Units=1/GPa)
#
#
# Indices 1 2 3 4 5 6 
#
# 1 0.026804 -0.013968 -0.008291 0.000000 0.000000 0.000000
# 2 -0.013968 0.026804 -0.008291 0.000000 0.000000 0.000000
# 3 -0.008291 -0.008291 0.021461 0.000000 0.000000 0.000000
# 4 0.000000 0.000000 0.000000 0.037505 0.000000 0.000000
# 5 0.000000 0.000000 0.000000 0.000000 0.037505 0.000000
# 6 0.000000 0.000000 0.000000 0.000000 0.000000 -0.367767
#
#
# Mechanical properties :
#
#
# Convention : Reuss Voigt Hill
#
# Bulk Modulus (GPa) = 71.58585 71.59866 71.59225
# Shear Modulus (GPa) = -32.91032 15.94818 -8.48107
#
# Velocity S-wave (km/s) = -4.47348 3.11412 -2.27094
# Velocity P-wave (km/s) = 4.10452 7.51451 6.05454
#
# Compressibility (1/GPa) = 0.01396924
#
# Stress axis : x y z
#
# Youngs Moduli (GPa) = 37.30719 37.30719 46.59556
#
# Poissons Ratio (x) = 0.52110 0.38634
# Poissons Ratio (y) = 0.52110 0.38634
# Poissons Ratio (z) = 0.30933 0.30933
#
# Static dielectric constant tensor:
#      x y z
#    x 3.182250 0.000000 0.000000 
#    y 0.000000 3.182250 0.000000 
#    z 0.000000 0.000000 3.235390 
# 
# 
# High freq. dielectric constant tensor:
#      x y z
#    x 1.617450 0.000000 0.000000 
#    y 0.000000 1.617450 0.000000 
#    z 0.000000 0.000000 1.638870 
# 
# From -- ./inp_files/1572.got.cif
#   From: 2010.03.12/outbox.cif.g09.slc.cpg/sg123_1_cif.got.tgz:1572.got - 2010.04.06 16:26:55.
