data_PCOD8312006
_publ_section_title
;
Structure prediction by ZEFSAII (Michael W. Deem and Ramdas Pophale) SiO2 
 PCOD8312006
Probable space group: I -4 2 D
;
_chemical_formula_sum "Si O2"
_cell_formula_units_Z 80
_cell_length_a 18.348948
_cell_length_b 18.348948
_cell_length_c 14.670461
_cell_angle_alpha 90.000000
_cell_angle_beta 90.000000
_cell_angle_gamma 90.000000
_cell_volume 4939.307917
_symmetry_space_group_name_H-M "I -4 2 D"
_symmetry_group_IT_number 122
_symmetry_cell_setting 'tetragonal'
loop_
_space_group_symop_operation_xyz
x,y,z
y,-x,-z
-x,-y,z
-y,x,-z
x,1/2-y,1/4-z
-x,1/2+y,1/4-z
-y,1/2-x,1/4+z
y,1/2+x,1/4+z
1/2+x,1/2+y,1/2+z
1/2+y,1/2-x,1/2-z
1/2-x,1/2-y,1/2+z
1/2-y,1/2+x,1/2-z
1/2+x,-y,3/4-z
1/2-x,y,3/4-z
1/2-y,-x,3/4+z
1/2+y,x,3/4+z
loop_
_atom_site_type_symbol
_atom_site_label
_atom_site_fract_x
_atom_site_fract_y
_atom_site_fract_z
Si Si1 0.078096 0.710081 0.378457
Si Si2 0.666907 0.219879 0.526363
Si Si3 0.688958 0.297182 0.210021
Si Si4 0.216890 0.912250 0.123380
Si Si5 0.584574 0.074214 0.760484
O O1 0.106385 0.767196 0.301497
O O2 0.123661 0.708890 0.470065
O O3 0.082570 0.626700 0.346975
O O4 0.995207 0.732796 0.402211
O O5 0.639677 0.250000 0.625000
O O6 0.738306 0.263972 0.494576
O O7 0.689896 0.134855 0.538669
O O8 0.662765 0.250000 0.125000
O O9 0.710081 0.378264 0.173229
O O10 0.152801 0.906214 0.050277
O O11 0.509283 0.087725 0.704139
#
# Coordination Sequence:
#
# PCOD8312006 Si02
#       5
#    16  16  16  16  16
#     4  11  18  31  54  71  95 143 163 190 268 293
#     4   9  17  32  46  72 103 123 161 211 241 293
#     4   9  19  35  48  69  99 125 170 218 240 284
#     4   9  19  32  46  76 103 125 172 204 233 309
#     4   9  17  27  42  72 108 130 149 185 238 304
#
# _framework density 16.196601000000001
#
# number of rings (size 3 to 8) (size 9 to 14) (size 15 to 20)
#    0.000    3.000    4.000    0.600    0.000    1.600 
#    0.000    4.000    0.000    0.000    0.000    0.000 
#    0.000    0.000    0.000    0.000    0.000    0.000 
#
# Total GULP energy -495559.891760 kJ/mol
# GULP energy per Si atom -12388.997294 kJ/mol
# Density = 1.615974 g / cm^3
# Si number density = 16.196601 Si / 1000 Ang^3
#
#
#
# Elastic Constant Matrix: (Units=GPa)
#
#
# Indices 1 2 3 4 5 6 
#
# 1 109.8406 40.8479 52.5057 0.0000 0.0000 0.0000
# 2 40.8479 109.8406 52.5057 0.0000 0.0000 0.0000
# 3 52.5057 52.5057 69.4557 0.0000 0.0000 0.0000
# 4 0.0000 0.0000 0.0000 17.5826 0.0000 0.0000
# 5 0.0000 0.0000 0.0000 0.0000 17.5826 0.0000
# 6 0.0000 0.0000 0.0000 0.0000 0.0000 14.0470
#
#
#
# Elastic Compliance Matrix: (Units=1/GPa)
#
#
# Indices 1 2 3 4 5 6 
#
# 1 0.014259 -0.000235 -0.010602 0.000000 0.000000 0.000000
# 2 -0.000235 0.014259 -0.010602 0.000000 0.000000 0.000000
# 3 -0.010602 -0.010602 0.030427 0.000000 0.000000 0.000000
# 4 0.000000 0.000000 0.000000 0.056874 0.000000 0.000000
# 5 0.000000 0.000000 0.000000 0.000000 0.056874 0.000000
# 6 0.000000 0.000000 0.000000 0.000000 0.000000 0.071190
#
#
# Mechanical properties :
#
#
# Convention : Reuss Voigt Hill
#
# Bulk Modulus (GPa) = 62.23496 64.53950 63.38723
# Shear Modulus (GPa) = 17.11639 19.39428 18.25533
#
# Velocity S-wave (km/s) = 3.25436 3.46414 3.36089
# Velocity P-wave (km/s) = 7.25460 7.47893 7.36762
#
# Compressibility (1/GPa) = 0.01606814
#
# Stress axis : x y z
#
# Youngs Moduli (GPa) = 70.12934 70.12934 32.86563
#
# Poissons Ratio (x) = 0.01647 0.34844
# Poissons Ratio (y) = 0.01647 0.34844
# Poissons Ratio (z) = 0.74351 0.74351
#
# Static dielectric constant tensor:
#      x y z
#    x 3.188820 0.000000 0.000000 
#    y 0.000000 3.188820 0.000000 
#    z 0.000000 0.000000 2.744640 
# 
# 
# High freq. dielectric constant tensor:
#      x y z
#    x 1.620240 0.000000 0.000000 
#    y 0.000000 1.620240 0.000000 
#    z 0.000000 0.000000 1.588810 
# 
# From -- ./inp_files/5281.got.cif
#   From: 2010.03.12/outbox.cif.g09.slc.cpg/sg122_3_cif.got.tgz:5281.got - 2010.04.06 16:17:16.
