data_PCOD8312856
_publ_section_title
;
Structure prediction by ZEFSAII (Michael W. Deem and Ramdas Pophale) SiO2 
 PCOD8312856
Probable space group: P 4/M M M
;
_chemical_formula_sum "Si O2"
_cell_formula_units_Z 64
_cell_length_a 19.823716
_cell_length_b 19.823716
_cell_length_c 9.477096
_cell_angle_alpha 90.000000
_cell_angle_beta 90.000000
_cell_angle_gamma 90.000000
_cell_volume 3724.306495
_symmetry_space_group_name_H-M "P 4/M M M"
_symmetry_group_IT_number 123
_symmetry_cell_setting 'tetragonal'
loop_
_space_group_symop_operation_xyz
x,y,z
-y,x,z
-x,-y,z
y,-x,z
x,-y,-z
-x,y,-z
y,x,-z
-y,-x,-z
-x,-y,-z
y,-x,-z
x,y,-z
-y,x,-z
-x,y,z
x,-y,z
-y,-x,z
y,x,z
loop_
_atom_site_type_symbol
_atom_site_label
_atom_site_fract_x
_atom_site_fract_y
_atom_site_fract_z
Si Si1 0.000000 0.749486 0.840841
Si Si2 0.240757 0.422993 0.163881
Si Si3 0.776110 0.223891 0.345458
Si Si4 0.309520 0.861512 0.840450
Si Si5 0.663320 0.336681 0.341441
Si Si6 0.000000 0.889346 0.666380
O O1 0.941029 0.694393 0.818759
O O2 0.000000 0.816131 0.742789
O O3 0.000000 0.778575 0.000000
O O4 0.224476 0.500000 0.201983
O O5 0.172693 0.380998 0.201443
O O6 0.305067 0.399475 0.256062
O O7 0.260332 0.414268 0.000000
O O8 0.799350 0.200651 0.500000
O O9 0.839759 0.250293 0.262508
O O10 0.719606 0.280395 0.352302
O O11 0.292095 0.839488 0.000000
O O12 0.640990 0.359011 0.500000
O O13 0.066878 0.933123 0.707466
O O14 0.000000 0.875320 0.500000
#
# Coordination Sequence:
#
# PCOD8312856 Si02
#       6
#     8  16   8  16   8   8
#     4  10  21  33  48  70  98 129 162 202 249 295
#     4   9  17  31  52  74  98 132 168 199 236 284
#     4   9  17  29  47  69  91 119 159 201 243 288
#     4   9  18  32  47  68  98 127 159 201 244 287
#     4   9  17  29  47  74 102 126 156 199 244 281
#     4   9  20  38  54  69  93 126 164 208 256 303
#
# _framework density 17.184407
#
# number of rings (size 3 to 8) (size 9 to 14) (size 15 to 20)
#    0.000    2.875    0.000    1.125    1.750    5.000 
#    0.000    1.250    0.000    4.125    0.000    2.625 
#    0.000    9.000    0.000    0.000    0.000    0.000 
#
# Total GULP energy -792872.309304 kJ/mol
# GULP energy per Si atom -12388.629833 kJ/mol
# Density = 1.714530 g / cm^3
# Si number density = 17.184407 Si / 1000 Ang^3
#
#
#
# Elastic Constant Matrix: (Units=GPa)
#
#
# Indices 1 2 3 4 5 6 
#
# 1 109.9400 54.9760 50.1149 0.0000 0.0000 0.0000
# 2 54.9760 109.9399 50.1149 0.0000 0.0000 0.0000
# 3 50.1149 50.1149 86.9460 0.0000 0.0000 0.0000
# 4 0.0000 0.0000 0.0000 14.5878 0.0000 0.0000
# 5 0.0000 0.0000 0.0000 0.0000 14.5878 0.0000
# 6 0.0000 0.0000 0.0000 0.0000 0.0000 20.1969
#
#
#
# Elastic Compliance Matrix: (Units=1/GPa)
#
#
# Indices 1 2 3 4 5 6 
#
# 1 0.013763 -0.004430 -0.005380 0.000000 0.000000 0.000000
# 2 -0.004430 0.013763 -0.005380 0.000000 0.000000 0.000000
# 3 -0.005380 -0.005380 0.017703 0.000000 0.000000 0.000000
# 4 0.000000 0.000000 0.000000 0.068550 0.000000 0.000000
# 5 0.000000 0.000000 0.000000 0.000000 0.068550 0.000000
# 6 0.000000 0.000000 0.000000 0.000000 0.000000 0.049513
#
#
# Mechanical properties :
#
#
# Convention : Reuss Voigt Hill
#
# Bulk Modulus (GPa) = 67.33565 68.58194 67.95880
# Shear Modulus (GPa) = 18.71452 19.98251 19.34852
#
# Velocity S-wave (km/s) = 3.30364 3.41373 3.35913
# Velocity P-wave (km/s) = 7.33630 7.45212 7.39444
#
# Compressibility (1/GPa) = 0.01485097
#
# Stress axis : x y z
#
# Youngs Moduli (GPa) = 72.65608 72.65605 56.48801
#
# Poissons Ratio (x) = 0.32189 0.30388
# Poissons Ratio (y) = 0.32189 0.30388
# Poissons Ratio (z) = 0.39086 0.39086
#
# Static dielectric constant tensor:
#      x y z
#    x 3.121090 0.000000 0.000000 
#    y 0.000000 3.121090 0.000000 
#    z 0.000000 0.000000 3.513530 
# 
# 
# High freq. dielectric constant tensor:
#      x y z
#    x 1.648910 0.000000 0.000000 
#    y 0.000000 1.648910 0.000000 
#    z 0.000000 0.000000 1.667320 
# 
# From -- ./inp_files/1019.got.cif
#   From: 2010.03.12/outbox.cif.g09.slc.cpg/sg123_1_cif.got.tgz:1019.got - 2010.04.06 16:26:55.
