data_PCOD8312719
_publ_section_title
;
Structure prediction by ZEFSAII (Michael W. Deem and Ramdas Pophale) SiO2 
 PCOD8312719
Probable space group: P 4/M M M
;
_chemical_formula_sum "Si O2"
_cell_formula_units_Z 120
_cell_length_a 18.260483
_cell_length_b 18.260483
_cell_length_c 20.315521
_cell_angle_alpha 90.000000
_cell_angle_beta 90.000000
_cell_angle_gamma 90.000000
_cell_volume 6774.113763
_symmetry_space_group_name_H-M "P 4/M M M"
_symmetry_group_IT_number 123
_symmetry_cell_setting 'tetragonal'
loop_
_space_group_symop_operation_xyz
x,y,z
-y,x,z
-x,-y,z
y,-x,z
x,-y,-z
-x,y,-z
y,x,-z
-y,-x,-z
-x,-y,-z
y,-x,-z
x,y,-z
-y,x,-z
-x,y,z
x,-y,z
-y,-x,z
y,x,z
loop_
_atom_site_type_symbol
_atom_site_label
_atom_site_fract_x
_atom_site_fract_y
_atom_site_fract_z
Si Si1 0.800154 0.085046 0.000000
Si Si2 0.794825 0.914602 0.620891
Si Si3 0.302303 0.583221 0.187845
Si Si4 0.917312 0.200176 0.225303
Si Si5 0.681714 0.803729 0.574186
Si Si6 0.586108 0.198988 0.925394
Si Si7 0.413825 0.708354 0.663739
Si Si8 0.305197 0.084294 0.114199
O O1 0.756614 0.111517 0.935955
O O2 0.879126 0.120875 0.000000
O O3 0.814579 0.000000 0.000000
O O4 0.866875 0.866875 0.599107
O O5 0.783679 0.908381 0.698356
O O6 0.719230 0.882143 0.590878
O O7 0.805153 0.000000 0.598986
O O8 0.315900 0.500000 0.171006
O O9 0.381769 0.618232 0.187610
O O10 0.255413 0.618271 0.128521
O O11 0.266477 0.594612 0.260085
O O12 0.865542 0.134459 0.201959
O O13 0.897172 0.275230 0.187258
O O14 0.000000 0.176106 0.207481
O O15 0.650885 0.806827 0.500000
O O16 0.745239 0.745239 0.582507
O O17 0.614935 0.777862 0.621137
O O18 0.500000 0.190732 0.918877
O O19 0.618757 0.121853 0.903614
O O20 0.608388 0.221831 0.000000
O O21 0.500000 0.692521 0.647458
O O22 0.365325 0.634676 0.649231
O O23 0.322703 0.000000 0.104771
#
# Coordination Sequence:
#
# PCOD8312719 Si02
#       8
#     8  16  16  16  16  16  16  16
#     4  10  20  33  47  67  95 125 162 202 244 298
#     4   9  18  32  51  76 104 136 175 218 263 309
#     4   9  19  34  52  76 104 133 165 203 246 295
#     4   9  18  31  48  71  99 130 164 205 251 301
#     4   9  18  32  50  74 105 140 175 209 250 305
#     4  10  21  36  52  73 100 129 166 211 257 302
#     4   9  18  33  54  80 108 138 172 210 254 304
#     4  10  20  34  49  69  95 124 162 208 254 303
#
# _framework density 17.714493999999998
#
# number of rings (size 3 to 8) (size 9 to 14) (size 15 to 20)
#    0.000    2.667    0.667    0.400    1.867    2.733 
#    0.000    3.333    0.000    2.800    0.000    6.533 
#    0.000    0.000    0.000    0.000    0.000    0.000 
#
# Total GULP energy -1487135.752443 kJ/mol
# GULP energy per Si atom -12392.797937 kJ/mol
# Density = 1.767418 g / cm^3
# Si number density = 17.714494 Si / 1000 Ang^3
#
#
#
# Elastic Constant Matrix: (Units=GPa)
#
#
# Indices 1 2 3 4 5 6 
#
# 1 71.3108 48.9553 42.8210 0.0000 0.0000 0.0000
# 2 48.9553 71.3116 42.8210 0.0000 0.0000 0.0000
# 3 42.8210 42.8210 93.9512 0.0000 0.0000 0.0000
# 4 0.0000 0.0000 0.0000 26.6199 0.0000 0.0000
# 5 0.0000 0.0000 0.0000 0.0000 26.6222 0.0000
# 6 0.0000 0.0000 0.0000 0.0000 0.0000 28.0267
#
#
#
# Elastic Compliance Matrix: (Units=1/GPa)
#
#
# Indices 1 2 3 4 5 6 
#
# 1 0.028521 -0.016210 -0.005611 0.000000 0.000000 0.000000
# 2 -0.016210 0.028520 -0.005611 0.000000 0.000000 0.000000
# 3 -0.005611 -0.005611 0.015758 0.000000 0.000000 0.000000
# 4 0.000000 0.000000 0.000000 0.037566 0.000000 0.000000
# 5 0.000000 0.000000 0.000000 0.000000 0.037563 0.000000
# 6 0.000000 0.000000 0.000000 0.000000 0.000000 0.035680
#
#
# Mechanical properties :
#
#
# Convention : Reuss Voigt Hill
#
# Bulk Modulus (GPa) = 55.75418 56.19646 55.97532
# Shear Modulus (GPa) = 20.45401 23.05219 21.75310
#
# Velocity S-wave (km/s) = 3.40170 3.61129 3.50806
# Velocity P-wave (km/s) = 6.85353 7.01291 6.93368
#
# Compressibility (1/GPa) = 0.01793587
#
# Stress axis : x y z
#
# Youngs Moduli (GPa) = 35.06205 35.06257 63.45833
#
# Poissons Ratio (x) = 0.56838 0.35606
# Poissons Ratio (y) = 0.56837 0.35604
# Poissons Ratio (z) = 0.19673 0.19672
#
# Static dielectric constant tensor:
#      x y z
#    x 3.220630 0.000000 0.000000 
#    y 0.000000 3.220630 0.000000 
#    z 0.000000 0.000000 3.560760 
# 
# 
# High freq. dielectric constant tensor:
#      x y z
#    x 1.670520 0.000000 0.000000 
#    y 0.000000 1.670520 0.000000 
#    z 0.000000 0.000000 1.696070 
# 
# From -- ./inp_files/6813.got.cif
#   From: 2010.03.12/outbox.cif.g09.slc.cpg/sg123_4_cif.got.tgz:6813.got - 2010.04.06 16:26:55.
