data_PCOD8312218
_publ_section_title
;
Structure prediction by ZEFSAII (Michael W. Deem and Ramdas Pophale) SiO2 
 PCOD8312218
Probable space group: P 4/M M M
;
_chemical_formula_sum "Si O2"
_cell_formula_units_Z 128
_cell_length_a 18.491837
_cell_length_b 18.491837
_cell_length_c 22.217828
_cell_angle_alpha 90.000000
_cell_angle_beta 90.000000
_cell_angle_gamma 90.000000
_cell_volume 7597.342641
_symmetry_space_group_name_H-M "P 4/M M M"
_symmetry_group_IT_number 123
_symmetry_cell_setting 'tetragonal'
loop_
_space_group_symop_operation_xyz
x,y,z
-y,x,z
-x,-y,z
y,-x,z
x,-y,-z
-x,y,-z
y,x,-z
-y,-x,-z
-x,-y,-z
y,-x,-z
x,y,-z
-y,x,-z
-x,y,z
x,-y,z
-y,-x,z
y,x,z
loop_
_atom_site_type_symbol
_atom_site_label
_atom_site_fract_x
_atom_site_fract_y
_atom_site_fract_z
Si Si1 0.583942 0.296738 0.068937
Si Si2 0.346920 0.084284 0.746566
Si Si3 0.084309 0.200978 0.681985
Si Si4 0.819019 0.581805 0.833151
Si Si5 0.415860 0.858561 0.628122
Si Si6 0.083809 0.716122 0.434362
Si Si7 0.576842 0.313405 0.243215
Si Si8 0.693516 0.580022 0.616064
O O1 0.500000 0.316639 0.082727
O O2 0.633772 0.366229 0.083837
O O3 0.608085 0.227266 0.108957
O O4 0.593881 0.272965 0.000000
O O5 0.262099 0.096721 0.732843
O O6 0.366263 0.114195 0.813941
O O7 0.396117 0.124576 0.697116
O O8 0.365910 0.000000 0.744368
O O9 0.130351 0.130351 0.699446
O O10 0.114277 0.231686 0.618052
O O11 0.000000 0.179134 0.678460
O O12 0.847169 0.500000 0.843775
O O13 0.769255 0.587914 0.774036
O O14 0.500000 0.875596 0.617797
O O15 0.367769 0.906911 0.583702
O O16 0.396951 0.776472 0.608640
O O17 0.119842 0.731743 0.500000
O O18 0.000000 0.732046 0.439243
O O19 0.500000 0.340087 0.216721
O O20 0.638417 0.361584 0.212159
O O21 0.576789 0.322720 0.313846
O O22 0.679381 0.500000 0.587834
O O23 0.639585 0.639585 0.585997
#
# Coordination Sequence:
#
# PCOD8312218 Si02
#       8
#    16  16  16  16  16  16  16  16
#     4   9  18  31  46  66  93 126 165 206 243 277
#     4  10  20  32  47  69  94 119 149 184 224 273
#     4   9  19  34  51  72  95 118 145 178 216 262
#     4  10  18  29  44  63  89 121 156 193 230 269
#     4  10  18  29  45  67  92 117 149 189 228 269
#     4   9  19  34  48  65  92 122 149 179 218 264
#     4   9  16  25  37  56  82 112 146 181 218 260
#     4   9  17  28  41  59  85 114 145 182 222 265
#
# _framework density 16.847995999999998
#
# number of rings (size 3 to 8) (size 9 to 14) (size 15 to 20)
#    0.000    2.625    1.250    1.875    0.000    5.750 
#    0.000    2.500    0.000    2.625    0.000    3.500 
#    0.000    0.000    0.000    2.750    0.000    0.125 
#
# Total GULP energy -1585790.349871 kJ/mol
# GULP energy per Si atom -12388.987108 kJ/mol
# Density = 1.680965 g / cm^3
# Si number density = 16.847996 Si / 1000 Ang^3
#
#
#
# Elastic Constant Matrix: (Units=GPa)
#
#
# Indices 1 2 3 4 5 6 
#
# 1 61.7881 38.8501 21.9562 0.0000 0.0000 0.0000
# 2 38.8501 61.7881 21.9562 0.0000 0.0000 0.0000
# 3 21.9562 21.9562 64.0529 0.0000 0.0000 0.0000
# 4 0.0000 0.0000 0.0000 14.6469 0.0000 0.0000
# 5 0.0000 0.0000 0.0000 0.0000 14.6469 0.0000
# 6 0.0000 0.0000 0.0000 0.0000 0.0000 30.9029
#
#
#
# Elastic Compliance Matrix: (Units=1/GPa)
#
#
# Indices 1 2 3 4 5 6 
#
# 1 0.027640 -0.015956 -0.004005 0.000000 0.000000 0.000000
# 2 -0.015956 0.027640 -0.004005 0.000000 0.000000 0.000000
# 3 -0.004005 -0.004005 0.018358 0.000000 0.000000 0.000000
# 4 0.000000 0.000000 0.000000 0.068274 0.000000 0.000000
# 5 0.000000 0.000000 0.000000 0.000000 0.068274 0.000000
# 6 0.000000 0.000000 0.000000 0.000000 0.000000 0.032359
#
#
# Mechanical properties :
#
#
# Convention : Reuss Voigt Hill
#
# Bulk Modulus (GPa) = 38.90184 39.23933 39.07058
# Shear Modulus (GPa) = 16.71988 19.03047 17.87518
#
# Velocity S-wave (km/s) = 3.15365 3.36451 3.26078
# Velocity P-wave (km/s) = 6.03330 6.19951 6.11697
#
# Compressibility (1/GPa) = 0.02570572
#
# Stress axis : x y z
#
# Youngs Moduli (GPa) = 36.17951 36.17951 54.47255
#
# Poissons Ratio (x) = 0.57727 0.21817
# Poissons Ratio (y) = 0.57727 0.21817
# Poissons Ratio (z) = 0.14490 0.14490
#
# Static dielectric constant tensor:
#      x y z
#    x 3.155410 0.000000 0.000000 
#    y 0.000000 3.155410 0.000000 
#    z 0.000000 0.000000 3.076910 
# 
# 
# High freq. dielectric constant tensor:
#      x y z
#    x 1.639010 0.000000 0.000000 
#    y 0.000000 1.639010 0.000000 
#    z 0.000000 0.000000 1.621700 
# 
# From -- ./inp_files/7661.got.cif
#   From: 2010.03.12/outbox.cif.g09.slc.cpg/sg123_4_cif.got.tgz:7661.got - 2010.04.06 16:26:55.
