data_PCOD8312028
_publ_section_title
;
Structure prediction by ZEFSAII (Michael W. Deem and Ramdas Pophale) SiO2 
 PCOD8312028
Probable space group: I -4 2 D
;
_chemical_formula_sum "Si O2"
_cell_formula_units_Z 88
_cell_length_a 17.433668
_cell_length_b 17.433668
_cell_length_c 13.896737
_cell_angle_alpha 90.000000
_cell_angle_beta 90.000000
_cell_angle_gamma 90.000000
_cell_volume 4223.673908
_symmetry_space_group_name_H-M "I -4 2 D"
_symmetry_group_IT_number 122
_symmetry_cell_setting 'tetragonal'
loop_
_space_group_symop_operation_xyz
x,y,z
y,-x,-z
-x,-y,z
-y,x,-z
x,1/2-y,1/4-z
-x,1/2+y,1/4-z
-y,1/2-x,1/4+z
y,1/2+x,1/4+z
1/2+x,1/2+y,1/2+z
1/2+y,1/2-x,1/2-z
1/2-x,1/2-y,1/2+z
1/2-y,1/2+x,1/2-z
1/2+x,-y,3/4-z
1/2-x,y,3/4-z
1/2-y,-x,3/4+z
1/2+y,x,3/4+z
loop_
_atom_site_type_symbol
_atom_site_label
_atom_site_fract_x
_atom_site_fract_y
_atom_site_fract_z
Si Si1 0.227736 0.096182 0.559142
Si Si2 0.114339 0.124557 0.708079
Si Si3 0.913861 0.520555 0.364745
Si Si4 0.762275 0.245314 0.234739
Si Si5 0.122851 0.638447 0.309816
Si Si6 0.250000 0.998645 0.375000
O O1 0.152922 0.075575 0.622066
O O2 0.225330 0.188302 0.547615
O O3 0.305115 0.075797 0.618097
O O4 0.219447 0.051748 0.460252
O O5 0.081966 0.062841 0.782853
O O6 0.179003 0.174806 0.760000
O O7 0.048960 0.178807 0.665143
O O8 0.864467 0.441502 0.367258
O O9 0.874886 0.573999 0.285897
O O10 0.000000 0.500000 0.333969
O O11 0.735223 0.250000 0.125000
O O12 0.796653 0.325182 0.275234
#
# Coordination Sequence:
#
# PCOD8312028 Si02
#       6
#    16  16  16  16  16   8
#     4  11  25  46  68  99 131 175 240 285 330 409
#     4  11  24  47  69  95 136 183 224 285 335 401
#     4  12  23  42  65 101 148 174 218 281 352 423
#     4  11  21  45  71  96 131 171 233 285 325 403
#     4  11  22  41  67  99 137 178 213 284 350 400
#     4  12  24  44  76  92 132 188 224 276 350 394
#
# _framework density 20.834942000000002
#
# number of rings (size 3 to 8) (size 9 to 14) (size 15 to 20)
#    0.000    0.727    6.364    2.727    0.000    0.000 
#   22.909    0.000    0.000    0.000    0.000    0.000 
#    0.000    0.000    0.000    0.000    0.000    0.000 
#
# Total GULP energy -545629.244432 kJ/mol
# GULP energy per Si atom -12400.664646 kJ/mol
# Density = 2.078752 g / cm^3
# Si number density = 20.834942 Si / 1000 Ang^3
#
#
#
# Elastic Constant Matrix: (Units=GPa)
#
#
# Indices 1 2 3 4 5 6 
#
# 1 94.3704 23.3426 39.8492 0.0000 0.0000 0.0000
# 2 23.3426 94.3704 39.8492 0.0000 0.0000 0.0000
# 3 39.8492 39.8492 127.1144 0.0000 0.0000 0.0000
# 4 0.0000 0.0000 0.0000 35.4923 0.0000 0.0000
# 5 0.0000 0.0000 0.0000 0.0000 35.4923 0.0000
# 6 0.0000 0.0000 0.0000 0.0000 0.0000 26.0661
#
#
#
# Elastic Compliance Matrix: (Units=1/GPa)
#
#
# Indices 1 2 3 4 5 6 
#
# 1 0.012432 -0.001647 -0.003381 0.000000 0.000000 0.000000
# 2 -0.001647 0.012432 -0.003381 0.000000 0.000000 0.000000
# 3 -0.003381 -0.003381 0.009987 0.000000 0.000000 0.000000
# 4 0.000000 0.000000 0.000000 0.028175 0.000000 0.000000
# 5 0.000000 0.000000 0.000000 0.000000 0.028175 0.000000
# 6 0.000000 0.000000 0.000000 0.000000 0.000000 0.038364
#
#
# Mechanical properties :
#
#
# Convention : Reuss Voigt Hill
#
# Bulk Modulus (GPa) = 55.45696 57.99302 56.72499
# Shear Modulus (GPa) = 32.80999 33.59773 33.20386
#
# Velocity S-wave (km/s) = 3.97263 4.02003 3.99640
# Velocity P-wave (km/s) = 6.90778 7.03154 6.96993
#
# Compressibility (1/GPa) = 0.01803200
#
# Stress axis : x y z
#
# Youngs Moduli (GPa) = 80.44016 80.44016 100.13420
#
# Poissons Ratio (x) = 0.13252 0.33853
# Poissons Ratio (y) = 0.13252 0.33853
# Poissons Ratio (z) = 0.27195 0.27195
#
# Static dielectric constant tensor:
#      x y z
#    x 3.802170 0.000000 0.000000 
#    y 0.000000 3.802170 0.000000 
#    z 0.000000 0.000000 3.988620 
# 
# 
# High freq. dielectric constant tensor:
#      x y z
#    x 1.808280 0.000000 0.000000 
#    y 0.000000 1.808280 0.000000 
#    z 0.000000 0.000000 1.839300 
# 
# From -- ./inp_files/5377.got.cif
#   From: 2010.03.12/outbox.cif.g09.slc.cpg/sg122_3_cif.got.tgz:5377.got - 2010.04.06 16:17:16.
