data_PCOD8312251
_publ_section_title
;
Structure prediction by ZEFSAII (Michael W. Deem and Ramdas Pophale) SiO2 
 PCOD8312251
Probable space group: P 4/M M M
;
_chemical_formula_sum "Si O2"
_cell_formula_units_Z 104
_cell_length_a 21.729352
_cell_length_b 21.729352
_cell_length_c 13.304238
_cell_angle_alpha 90.000000
_cell_angle_beta 90.000000
_cell_angle_gamma 90.000000
_cell_volume 6281.792054
_symmetry_space_group_name_H-M "P 4/M M M"
_symmetry_group_IT_number 123
_symmetry_cell_setting 'tetragonal'
loop_
_space_group_symop_operation_xyz
x,y,z
-y,x,z
-x,-y,z
y,-x,z
x,-y,-z
-x,y,-z
y,x,-z
-y,-x,-z
-x,-y,-z
y,-x,-z
x,y,-z
-y,x,-z
-x,y,z
x,-y,z
-y,-x,z
y,x,z
loop_
_atom_site_type_symbol
_atom_site_label
_atom_site_fract_x
_atom_site_fract_y
_atom_site_fract_z
Si Si1 0.070551 0.171540 0.500000
Si Si2 0.931378 0.729846 0.839693
Si Si3 0.664543 0.761728 0.388659
Si Si4 0.857128 0.239311 0.340458
Si Si5 0.570595 0.149195 0.307995
Si Si6 0.427283 0.930670 0.500000
Si Si7 0.928636 0.171194 0.000000
Si Si8 0.594928 0.069831 0.111005
O O1 0.108791 0.108791 0.500000
O O2 0.086409 0.212895 0.595901
O O3 0.000000 0.152610 0.500000
O O4 0.884299 0.720579 0.749327
O O5 0.910828 0.788627 0.903570
O O6 0.928292 0.668103 0.904269
O O7 0.000000 0.740595 0.798132
O O8 0.636836 0.748697 0.500000
O O9 0.699022 0.699022 0.347684
O O10 0.716006 0.814055 0.404328
O O11 0.611197 0.787507 0.313640
O O12 0.817679 0.182322 0.297846
O O13 0.500000 0.168238 0.326596
O O14 0.594404 0.104650 0.398518
O O15 0.573920 0.115894 0.199330
O O16 0.500000 0.935750 0.500000
O O17 0.398922 0.000000 0.500000
O O18 0.891963 0.108037 0.000000
O O19 0.000000 0.153731 0.000000
O O20 0.573712 0.000000 0.139064
O O21 0.567723 0.088032 0.000000
#
# Coordination Sequence:
#
# PCOD8312251 Si02
#       8
#     8  16  16  16  16   8   8  16
#     4  10  20  32  45  64  89 117 156 202 254 317
#     4  10  18  30  47  67  88 114 153 201 249 294
#     4  10  19  33  51  73 102 130 159 200 248 295
#     4  10  18  30  47  67  89 115 152 198 245 295
#     4  11  21  34  53  75 103 138 172 209 251 299
#     4   9  18  31  46  70 102 132 167 208 248 292
#     4  10  20  33  48  66  87 113 151 203 264 320
#     4  10  20  34  50  70 101 138 177 215 252 304
#
# _framework density 16.555786000000001
#
# number of rings (size 3 to 8) (size 9 to 14) (size 15 to 20)
#    0.000    1.923    3.846    1.385    0.000    1.385 
#    0.000    1.538    0.000    0.000    0.000    2.154 
#    0.000    0.308    0.000    1.692    0.000    0.000 
#
# Total GULP energy -1288668.878206 kJ/mol
# GULP energy per Si atom -12391.046906 kJ/mol
# Density = 1.651810 g / cm^3
# Si number density = 16.555786 Si / 1000 Ang^3
#
#
#
# Elastic Constant Matrix: (Units=GPa)
#
#
# Indices 1 2 3 4 5 6 
#
# 1 68.5005 30.2192 24.2114 0.0000 0.0000 0.0000
# 2 30.2192 68.5005 24.2114 0.0000 0.0000 0.0000
# 3 24.2114 24.2114 86.4961 0.0000 0.0000 0.0000
# 4 0.0000 0.0000 0.0000 4.8377 0.0000 0.0000
# 5 0.0000 0.0000 0.0000 0.0000 4.8377 0.0000
# 6 0.0000 0.0000 0.0000 0.0000 0.0000 16.3262
#
#
#
# Elastic Compliance Matrix: (Units=1/GPa)
#
#
# Indices 1 2 3 4 5 6 
#
# 1 0.018932 -0.007190 -0.003287 0.000000 0.000000 0.000000
# 2 -0.007190 0.018932 -0.003287 0.000000 0.000000 0.000000
# 3 -0.003287 -0.003287 0.013401 0.000000 0.000000 0.000000
# 4 0.000000 0.000000 0.000000 0.206708 0.000000 0.000000
# 5 0.000000 0.000000 0.000000 0.000000 0.206708 0.000000
# 6 0.000000 0.000000 0.000000 0.000000 0.000000 0.061251
#
#
# Mechanical properties :
#
#
# Convention : Reuss Voigt Hill
#
# Bulk Modulus (GPa) = 42.12639 42.30902 42.21770
# Shear Modulus (GPa) = 8.90673 14.85734 11.88203
#
# Velocity S-wave (km/s) = 2.32196 2.99893 2.68189
# Velocity P-wave (km/s) = 5.71743 6.13208 5.92838
#
# Compressibility (1/GPa) = 0.02373809
#
# Stress axis : x y z
#
# Youngs Moduli (GPa) = 52.82028 52.82028 74.62024
#
# Poissons Ratio (x) = 0.37979 0.24525
# Poissons Ratio (y) = 0.37979 0.24525
# Poissons Ratio (z) = 0.17360 0.17360
#
# Static dielectric constant tensor:
#      x y z
#    x 2.976280 0.000000 0.000000 
#    y 0.000000 2.976280 0.000000 
#    z 0.000000 0.000000 3.241320 
# 
# 
# High freq. dielectric constant tensor:
#      x y z
#    x 1.615310 0.000000 0.000000 
#    y 0.000000 1.615310 0.000000 
#    z 0.000000 0.000000 1.637130 
# 
# From -- ./inp_files/4544.got.cif
#   From: 2010.03.12/outbox.cif.g09.slc.cpg/sg123_3_cif.got.tgz:4544.got - 2010.04.06 16:26:55.
