data_PCOD8312812
_publ_section_title
;
Structure prediction by ZEFSAII (Michael W. Deem and Ramdas Pophale) SiO2 
 PCOD8312812
Probable space group: P 4/M M M
;
_chemical_formula_sum "Si O2"
_cell_formula_units_Z 120
_cell_length_a 27.537100
_cell_length_b 27.537100
_cell_length_c 8.918254
_cell_angle_alpha 90.000000
_cell_angle_beta 90.000000
_cell_angle_gamma 90.000000
_cell_volume 6762.639560
_symmetry_space_group_name_H-M "P 4/M M M"
_symmetry_group_IT_number 123
_symmetry_cell_setting 'tetragonal'
loop_
_space_group_symop_operation_xyz
x,y,z
-y,x,z
-x,-y,z
y,-x,z
x,-y,-z
-x,y,-z
y,x,-z
-y,-x,-z
-x,-y,-z
y,-x,-z
x,y,-z
-y,x,-z
-x,y,z
x,-y,z
-y,-x,z
y,x,z
loop_
_atom_site_type_symbol
_atom_site_label
_atom_site_fract_x
_atom_site_fract_y
_atom_site_fract_z
Si Si1 0.826871 0.556148 0.823368
Si Si2 0.801490 0.876631 0.324799
Si Si3 0.085758 0.391072 0.677780
Si Si4 0.000000 0.556933 0.167000
Si Si5 0.366773 0.555350 0.825216
Si Si6 0.283790 0.944255 0.678364
Si Si7 0.054325 0.870914 0.167719
Si Si8 0.729043 0.557485 0.332518
O O1 0.837004 0.500000 0.776664
O O2 0.862429 0.593204 0.740887
O O3 0.773569 0.573138 0.772502
O O4 0.832157 0.562505 0.000000
O O5 0.794313 0.869456 0.500000
O O6 0.824266 0.824266 0.261404
O O7 0.751842 0.901023 0.257749
O O8 0.841001 0.917143 0.291630
O O9 0.086411 0.394522 0.500000
O O10 0.047199 0.428373 0.742008
O O11 0.071217 0.337251 0.732158
O O12 0.000000 0.500000 0.151618
O O13 0.000000 0.580193 0.000000
O O14 0.377616 0.500000 0.778115
O O15 0.414045 0.585956 0.780854
O O16 0.320792 0.577689 0.737466
O O17 0.354599 0.559066 0.000000
O O18 0.280366 0.945056 0.500000
O O19 0.272213 0.000000 0.736222
O O20 0.074405 0.925596 0.163727
O O21 0.000000 0.872716 0.224708
O O22 0.059126 0.847772 0.000000
O O23 0.736149 0.578640 0.500000
O O24 0.725577 0.500000 0.336756
#
# Coordination Sequence:
#
# PCOD8312812 Si02
#       8
#    16  16  16   8  16  16  16  16
#     4  10  20  34  52  74 101 131 163 206 259 307
#     4   9  17  30  51  74  92 117 155 197 242 288
#     4  11  21  34  52  74 100 135 174 206 245 300
#     4  11  23  37  51  71 105 141 169 205 250 295
#     4   9  17  29  46  70 102 140 179 220 270 328
#     4   9  17  31  50  72 100 131 163 204 250 295
#     4   9  17  28  41  60  88 118 149 185 224 270
#     4   9  17  30  49  72  96 125 167 216 259 302
#
# _framework density 17.744551999999999
#
# number of rings (size 3 to 8) (size 9 to 14) (size 15 to 20)
#    0.000    2.467    0.667    2.200    0.000    5.867 
#    0.000    2.667    0.000    0.800    0.000    5.600 
#    0.000    0.000    0.000    0.000    0.000    0.000 
#
# Total GULP energy -1486730.511695 kJ/mol
# GULP energy per Si atom -12389.420931 kJ/mol
# Density = 1.770416 g / cm^3
# Si number density = 17.744552 Si / 1000 Ang^3
#
#
#
# Elastic Constant Matrix: (Units=GPa)
#
#
# Indices 1 2 3 4 5 6 
#
# 1 99.3224 50.5031 26.5485 0.0000 0.0000 0.0000
# 2 50.5031 99.3224 26.5485 0.0000 0.0000 0.0000
# 3 26.5485 26.5485 47.8059 0.0000 0.0000 0.0000
# 4 0.0000 0.0000 0.0000 17.1785 0.0000 0.0000
# 5 0.0000 0.0000 0.0000 0.0000 17.1785 0.0000
# 6 0.0000 0.0000 0.0000 0.0000 0.0000 12.9157
#
#
#
# Elastic Compliance Matrix: (Units=1/GPa)
#
#
# Indices 1 2 3 4 5 6 
#
# 1 0.014397 -0.006087 -0.004615 0.000000 0.000000 0.000000
# 2 -0.006087 0.014397 -0.004615 0.000000 0.000000 0.000000
# 3 -0.004615 -0.004615 0.026043 0.000000 0.000000 0.000000
# 4 0.000000 0.000000 0.000000 0.058212 0.000000 0.000000
# 5 0.000000 0.000000 0.000000 0.000000 0.058212 0.000000
# 6 0.000000 0.000000 0.000000 0.000000 0.000000 0.077425
#
#
# Mechanical properties :
#
#
# Convention : Reuss Voigt Hill
#
# Bulk Modulus (GPa) = 41.31546 50.40568 45.86057
# Shear Modulus (GPa) = 17.39809 18.97792 18.18800
#
# Velocity S-wave (km/s) = 3.13465 3.27388 3.20502
# Velocity P-wave (km/s) = 6.03617 6.53904 6.29263
#
# Compressibility (1/GPa) = 0.02420401
#
# Stress axis : x y z
#
# Youngs Moduli (GPa) = 69.45998 69.45998 38.39732
#
# Poissons Ratio (x) = 0.42280 0.17720
# Poissons Ratio (y) = 0.42280 0.17720
# Poissons Ratio (z) = 0.32054 0.32054
#
# Static dielectric constant tensor:
#      x y z
#    x 3.395930 0.000000 0.000000 
#    y 0.000000 3.395930 0.000000 
#    z 0.000000 0.000000 3.240470 
# 
# 
# High freq. dielectric constant tensor:
#      x y z
#    x 1.675700 0.000000 0.000000 
#    y 0.000000 1.675700 0.000000 
#    z 0.000000 0.000000 1.677320 
# 
# From -- ./inp_files/2053.got.cif
#   From: 2010.03.12/outbox.cif.g09.slc.cpg/sg123_2_cif.got.tgz:2053.got - 2010.04.06 16:26:55.
