data_PCOD8312040
_publ_section_title
;
Structure prediction by ZEFSAII (Michael W. Deem and Ramdas Pophale) SiO2 
 PCOD8312040
Probable space group: I -4 2 D
;
_chemical_formula_sum "Si O2"
_cell_formula_units_Z 96
_cell_length_a 22.848240
_cell_length_b 22.848240
_cell_length_c 8.781862
_cell_angle_alpha 90.000000
_cell_angle_beta 90.000000
_cell_angle_gamma 90.000000
_cell_volume 4584.501427
_symmetry_space_group_name_H-M "I -4 2 D"
_symmetry_group_IT_number 122
_symmetry_cell_setting 'tetragonal'
loop_
_space_group_symop_operation_xyz
x,y,z
y,-x,-z
-x,-y,z
-y,x,-z
x,1/2-y,1/4-z
-x,1/2+y,1/4-z
-y,1/2-x,1/4+z
y,1/2+x,1/4+z
1/2+x,1/2+y,1/2+z
1/2+y,1/2-x,1/2-z
1/2-x,1/2-y,1/2+z
1/2-y,1/2+x,1/2-z
1/2+x,-y,3/4-z
1/2-x,y,3/4-z
1/2-y,-x,3/4+z
1/2+y,x,3/4+z
loop_
_atom_site_type_symbol
_atom_site_label
_atom_site_fract_x
_atom_site_fract_y
_atom_site_fract_z
Si Si1 0.409813 0.986949 0.226196
Si Si2 0.088838 0.197219 0.915678
Si Si3 0.285107 0.131352 0.528879
Si Si4 0.189213 0.008994 0.297599
Si Si5 0.204464 0.792663 0.248182
Si Si6 0.411803 0.170970 0.494020
O O1 0.454782 0.946322 0.325214
O O2 0.359667 0.016898 0.325187
O O3 0.380415 0.948668 0.089367
O O4 0.044529 0.166624 0.802280
O O5 0.152712 0.180619 0.848405
O O6 0.074307 0.266421 0.919771
O O7 0.075252 0.167942 0.077135
O O8 0.250000 0.127079 0.375000
O O9 0.245233 0.153665 0.669353
O O10 0.341332 0.169720 0.486903
O O11 0.306227 0.065283 0.563623
O O12 0.250000 0.992561 0.375000
O O13 0.250000 0.814504 0.375000
O O14 0.236129 0.750000 0.125000
#
# Coordination Sequence:
#
# PCOD8312040 Si02
#       6
#    16  16  16  16  16  16
#     4  11  24  45  72  95 125 177 238 286 335 401
#     4  11  24  40  65  92 137 177 209 265 345 406
#     4  11  24  41  64  96 133 166 218 274 322 400
#     4  11  23  42  66  97 127 171 220 274 336 398
#     4  12  23  39  63  99 136 177 214 262 335 412
#     4  11  22  45  62  94 137 174 216 276 330 403
#
# _framework density 20.940116
#
# number of rings (size 3 to 8) (size 9 to 14) (size 15 to 20)
#    0.000    0.833    5.000    3.000    2.333    0.000 
#    6.000    0.000    0.000    2.000    0.000    0.000 
#    0.000    0.000    0.000    0.000    0.000    0.000 
#
# Total GULP energy -594776.163094 kJ/mol
# GULP energy per Si atom -12391.170064 kJ/mol
# Density = 2.089246 g / cm^3
# Si number density = 20.940116 Si / 1000 Ang^3
#
#
#
# Elastic Constant Matrix: (Units=GPa)
#
#
# Indices 1 2 3 4 5 6 
#
# 1 98.9254 19.9471 33.6894 0.0000 0.0000 0.0000
# 2 19.9471 98.9254 33.6894 0.0000 0.0000 0.0000
# 3 33.6894 33.6894 88.0976 0.0000 0.0000 0.0000
# 4 0.0000 0.0000 0.0000 28.8710 0.0000 0.0000
# 5 0.0000 0.0000 0.0000 0.0000 28.8710 0.0000
# 6 0.0000 0.0000 0.0000 0.0000 0.0000 30.6850
#
#
#
# Elastic Compliance Matrix: (Units=1/GPa)
#
#
# Indices 1 2 3 4 5 6 
#
# 1 0.011701 -0.000961 -0.004107 0.000000 0.000000 0.000000
# 2 -0.000961 0.011701 -0.004107 0.000000 0.000000 0.000000
# 3 -0.004107 -0.004107 0.014492 0.000000 0.000000 0.000000
# 4 0.000000 0.000000 0.000000 0.034637 0.000000 0.000000
# 5 0.000000 0.000000 0.000000 0.000000 0.034637 0.000000
# 6 0.000000 0.000000 0.000000 0.000000 0.000000 0.032589
#
#
# Mechanical properties :
#
#
# Convention : Reuss Voigt Hill
#
# Bulk Modulus (GPa) = 51.16602 51.17780 51.17191
# Shear Modulus (GPa) = 30.37255 30.92691 30.64973
#
# Velocity S-wave (km/s) = 3.81261 3.84724 3.82996
# Velocity P-wave (km/s) = 6.62335 6.65043 6.63690
#
# Compressibility (1/GPa) = 0.01954422
#
# Stress axis : x y z
#
# Youngs Moduli (GPa) = 85.46236 85.46236 69.00192
#
# Poissons Ratio (x) = 0.08210 0.28341
# Poissons Ratio (y) = 0.08210 0.28341
# Poissons Ratio (z) = 0.35101 0.35101
#
# Static dielectric constant tensor:
#      x y z
#    x 3.985540 0.000000 0.000000 
#    y 0.000000 3.985540 0.000000 
#    z 0.000000 0.000000 3.752680 
# 
# 
# High freq. dielectric constant tensor:
#      x y z
#    x 1.822610 0.000000 0.000000 
#    y 0.000000 1.822610 0.000000 
#    z 0.000000 0.000000 1.811460 
# 
# From -- ./inp_files/2893.got.cif
#   From: 2010.03.12/outbox.cif.g09.slc.cpg/sg122_2_cif.got.tgz:2893.got - 2010.04.06 16:17:16.
