data_PCOD8312526
_publ_section_title
;
Structure prediction by ZEFSAII (Michael W. Deem and Ramdas Pophale) SiO2 
 PCOD8312526
Probable space group: P 4/M M M
;
_chemical_formula_sum "Si O2"
_cell_formula_units_Z 96
_cell_length_a 18.726140
_cell_length_b 18.726140
_cell_length_c 15.933173
_cell_angle_alpha 90.000000
_cell_angle_beta 90.000000
_cell_angle_gamma 90.000000
_cell_volume 5587.258997
_symmetry_space_group_name_H-M "P 4/M M M"
_symmetry_group_IT_number 123
_symmetry_cell_setting 'tetragonal'
loop_
_space_group_symop_operation_xyz
x,y,z
-y,x,z
-x,-y,z
y,-x,z
x,-y,-z
-x,y,-z
y,x,-z
-y,-x,-z
-x,-y,-z
y,-x,-z
x,y,-z
-y,x,-z
-x,y,z
x,-y,z
-y,-x,z
y,x,z
loop_
_atom_site_type_symbol
_atom_site_label
_atom_site_fract_x
_atom_site_fract_y
_atom_site_fract_z
Si Si1 0.698211 0.081041 0.166236
Si Si2 0.312201 0.421774 0.819540
Si Si3 0.736032 0.421199 0.000000
Si Si4 0.837053 0.416594 0.266159
Si Si5 0.198368 0.917458 0.681274
Si Si6 0.301342 0.813898 0.597039
Si Si7 0.289061 0.169006 0.000000
O O1 0.624276 0.103418 0.211768
O O2 0.764574 0.091133 0.228584
O O3 0.687364 0.000000 0.138954
O O4 0.720567 0.123627 0.083771
O O5 0.340036 0.500000 0.794199
O O6 0.364926 0.364926 0.776662
O O7 0.232935 0.409640 0.789023
O O8 0.313882 0.410555 0.919392
O O9 0.770757 0.500000 0.000000
O O10 0.802431 0.368880 0.000000
O O11 0.858122 0.500000 0.282269
O O12 0.822319 0.375972 0.353669
O O13 0.121899 0.878102 0.683230
O O14 0.250333 0.882033 0.612283
O O15 0.186009 0.000000 0.657321
O O16 0.322006 0.810515 0.500000
O O17 0.257940 0.742061 0.624507
O O18 0.233656 0.233656 0.000000
#
# Coordination Sequence:
#
# PCOD8312526 Si02
#       7
#    16  16   8  16  16  16   8
#     4  10  21  35  50  72 102 132 166 208 252 295
#     4  10  19  31  47  68  96 128 164 205 247 292
#     4  10  20  31  45  69  98 125 159 200 240 284
#     4  10  20  33  51  73  98 130 168 207 247 292
#     4   9  18  33  52  75 103 131 160 196 240 292
#     4   9  18  33  53  75 100 130 162 200 250 302
#     4  12  21  31  54  76  95 130 174 213 247 290
#
# _framework density 17.181948999999999
#
# number of rings (size 3 to 8) (size 9 to 14) (size 15 to 20)
#    0.000    2.167    1.667    2.000    0.000    2.667 
#    0.000    0.000    0.000    3.000    0.000    7.000 
#    0.000    6.000    0.000   15.500    0.000    0.000 
#
# Total GULP energy -1190093.006480 kJ/mol
# GULP energy per Si atom -12396.802151 kJ/mol
# Density = 1.714284 g / cm^3
# Si number density = 17.181949 Si / 1000 Ang^3
#
#
#
# Elastic Constant Matrix: (Units=GPa)
#
#
# Indices 1 2 3 4 5 6 
#
# 1 90.4571 50.8581 24.4582 0.0000 0.0000 0.0000
# 2 50.8581 90.4571 24.4582 0.0000 0.0000 0.0000
# 3 24.4582 24.4582 73.3457 0.0000 0.0000 0.0000
# 4 0.0000 0.0000 0.0000 32.6318 0.0000 0.0000
# 5 0.0000 0.0000 0.0000 0.0000 32.6318 0.0000
# 6 0.0000 0.0000 0.0000 0.0000 0.0000 24.0003
#
#
#
# Elastic Compliance Matrix: (Units=1/GPa)
#
#
# Indices 1 2 3 4 5 6 
#
# 1 0.016626 -0.008627 -0.002668 0.000000 0.000000 0.000000
# 2 -0.008627 0.016626 -0.002668 0.000000 0.000000 0.000000
# 3 -0.002668 -0.002668 0.015413 0.000000 0.000000 0.000000
# 4 0.000000 0.000000 0.000000 0.030645 0.000000 0.000000
# 5 0.000000 0.000000 0.000000 0.000000 0.030645 0.000000
# 6 0.000000 0.000000 0.000000 0.000000 0.000000 0.041666
#
#
# Mechanical properties :
#
#
# Convention : Reuss Voigt Hill
#
# Bulk Modulus (GPa) = 48.21096 50.42324 49.31710
# Shear Modulus (GPa) = 26.81537 28.15181 27.48359
#
# Velocity S-wave (km/s) = 3.95482 4.05217 4.00379
# Velocity P-wave (km/s) = 6.99815 7.16267 7.08089
#
# Compressibility (1/GPa) = 0.02074217
#
# Stress axis : x y z
#
# Youngs Moduli (GPa) = 60.14499 60.14499 64.87946
#
# Poissons Ratio (x) = 0.51885 0.17308
# Poissons Ratio (y) = 0.51885 0.17308
# Poissons Ratio (z) = 0.16045 0.16045
#
# Static dielectric constant tensor:
#      x y z
#    x 3.254770 0.000000 0.000000 
#    y 0.000000 3.254770 0.000000 
#    z 0.000000 0.000000 3.141170 
# 
# 
# High freq. dielectric constant tensor:
#      x y z
#    x 1.661460 0.000000 0.000000 
#    y 0.000000 1.661460 0.000000 
#    z 0.000000 0.000000 1.657310 
# 
# From -- ./inp_files/5512.got.cif
#   From: 2010.03.12/outbox.cif.g09.slc.cpg/sg123_3_cif.got.tgz:5512.got - 2010.04.06 16:26:55.
