data_PCOD8312188
_publ_section_title
;
Structure prediction by ZEFSAII (Michael W. Deem and Ramdas Pophale) SiO2 
 PCOD8312188
Probable space group: P 4/M M M
;
_chemical_formula_sum "Si O2"
_cell_formula_units_Z 96
_cell_length_a 17.967633
_cell_length_b 17.967633
_cell_length_c 20.521177
_cell_angle_alpha 90.000000
_cell_angle_beta 90.000000
_cell_angle_gamma 90.000000
_cell_volume 6624.971325
_symmetry_space_group_name_H-M "P 4/M M M"
_symmetry_group_IT_number 123
_symmetry_cell_setting 'tetragonal'
loop_
_space_group_symop_operation_xyz
x,y,z
-y,x,z
-x,-y,z
y,-x,z
x,-y,-z
-x,y,-z
y,x,-z
-y,-x,-z
-x,-y,-z
y,-x,-z
x,y,-z
-y,x,-z
-x,y,z
x,-y,z
-y,-x,z
y,x,z
loop_
_atom_site_type_symbol
_atom_site_label
_atom_site_fract_x
_atom_site_fract_y
_atom_site_fract_z
Si Si1 0.584468 0.300190 0.805233
Si Si2 0.915628 0.415783 0.730152
Si Si3 0.414693 0.084231 0.115977
Si Si4 0.664587 0.780886 0.312219
Si Si5 0.347331 0.771191 0.073547
Si Si6 0.415599 0.702119 0.573822
O O1 0.500000 0.305554 0.785662
O O2 0.616870 0.383131 0.806399
O O3 0.624098 0.252581 0.750220
O O4 0.593917 0.263686 0.876274
O O5 0.889357 0.500000 0.710665
O O6 0.907733 0.406944 0.807045
O O7 0.869181 0.349593 0.694591
O O8 0.000000 0.403853 0.707514
O O9 0.500000 0.103317 0.095081
O O10 0.353983 0.139303 0.082542
O O11 0.395339 0.000000 0.094124
O O12 0.750923 0.750923 0.311835
O O13 0.627525 0.758704 0.380099
O O14 0.264256 0.735745 0.087533
O O15 0.370935 0.750693 0.000000
O O16 0.409873 0.732729 0.500000
O O17 0.500000 0.694477 0.597196
O O18 0.379595 0.620406 0.579439
#
# Coordination Sequence:
#
# PCOD8312188 Si02
#       6
#    16  16  16  16  16  16
#     4  10  19  29  41  56  74 100 135 170 202 237
#     4   9  16  26  42  63  85 107 132 165 205 248
#     4   9  17  28  43  63  83 103 130 166 208 250
#     4  10  18  28  44  62  80 105 136 169 204 245
#     4  10  20  31  42  57  79 107 135 164 200 243
#     4   9  17  27  39  57  80 107 140 176 212 246
#
# _framework density 14.490627999999999
#
# number of rings (size 3 to 8) (size 9 to 14) (size 15 to 20)
#    0.000    2.500    1.667    3.000    0.000    2.000 
#    0.000    1.667    0.000    3.500    0.000    4.667 
#    0.000    0.667    0.000    5.500    0.000    2.667 
#
# Total GULP energy -1189344.431581 kJ/mol
# GULP energy per Si atom -12389.004496 kJ/mol
# Density = 1.445765 g / cm^3
# Si number density = 14.490628 Si / 1000 Ang^3
#
#
#
# Elastic Constant Matrix: (Units=GPa)
#
#
# Indices 1 2 3 4 5 6 
#
# 1 71.7834 38.7885 14.5061 0.0000 0.0000 0.0000
# 2 38.7885 71.7834 14.5061 0.0000 0.0000 0.0000
# 3 14.5061 14.5061 50.8279 0.0000 0.0000 0.0000
# 4 0.0000 0.0000 0.0000 15.3863 0.0000 0.0000
# 5 0.0000 0.0000 0.0000 0.0000 15.3863 0.0000
# 6 0.0000 0.0000 0.0000 0.0000 0.0000 21.9281
#
#
#
# Elastic Compliance Matrix: (Units=1/GPa)
#
#
# Indices 1 2 3 4 5 6 
#
# 1 0.020042 -0.010266 -0.002790 0.000000 0.000000 0.000000
# 2 -0.010266 0.020042 -0.002790 0.000000 0.000000 0.000000
# 3 -0.002790 -0.002790 0.021267 0.000000 0.000000 0.000000
# 4 0.000000 0.000000 0.000000 0.064993 0.000000 0.000000
# 5 0.000000 0.000000 0.000000 0.000000 0.064993 0.000000
# 6 0.000000 0.000000 0.000000 0.000000 0.000000 0.045604
#
#
# Mechanical properties :
#
#
# Convention : Reuss Voigt Hill
#
# Bulk Modulus (GPa) = 33.71706 36.66623 35.19164
# Shear Modulus (GPa) = 17.95217 18.97974 18.46595
#
# Velocity S-wave (km/s) = 3.52359 3.62303 3.57366
# Velocity P-wave (km/s) = 6.31451 6.54677 6.43169
#
# Compressibility (1/GPa) = 0.02965858
#
# Stress axis : x y z
#
# Youngs Moduli (GPa) = 49.89568 49.89568 47.02177
#
# Poissons Ratio (x) = 0.51222 0.13119
# Poissons Ratio (y) = 0.51222 0.13119
# Poissons Ratio (z) = 0.13921 0.13921
#
# Static dielectric constant tensor:
#      x y z
#    x 2.870650 0.000000 0.000000 
#    y 0.000000 2.870650 0.000000 
#    z 0.000000 0.000000 2.879930 
# 
# 
# High freq. dielectric constant tensor:
#      x y z
#    x 1.529840 0.000000 0.000000 
#    y 0.000000 1.529840 0.000000 
#    z 0.000000 0.000000 1.557650 
# 
# From -- ./inp_files/5489.got.cif
#   From: 2010.03.12/outbox.cif.g09.slc.cpg/sg123_3_cif.got.tgz:5489.got - 2010.04.06 16:26:55.
