data_PCOD8312231
_publ_section_title
;
Structure prediction by ZEFSAII (Michael W. Deem and Ramdas Pophale) SiO2 
 PCOD8312231
Probable space group: P 4/M M M
;
_chemical_formula_sum "Si O2"
_cell_formula_units_Z 96
_cell_length_a 19.183663
_cell_length_b 19.183663
_cell_length_c 15.759067
_cell_angle_alpha 90.000000
_cell_angle_beta 90.000000
_cell_angle_gamma 90.000000
_cell_volume 5799.540359
_symmetry_space_group_name_H-M "P 4/M M M"
_symmetry_group_IT_number 123
_symmetry_cell_setting 'tetragonal'
loop_
_space_group_symop_operation_xyz
x,y,z
-y,x,z
-x,-y,z
y,-x,z
x,-y,-z
-x,y,-z
y,x,-z
-y,-x,-z
-x,-y,-z
y,-x,-z
x,y,-z
-y,x,-z
-x,y,z
x,-y,z
-y,-x,z
y,x,z
loop_
_atom_site_type_symbol
_atom_site_label
_atom_site_fract_x
_atom_site_fract_y
_atom_site_fract_z
Si Si1 0.922751 0.579794 0.325943
Si Si2 0.078488 0.190151 0.901630
Si Si3 0.418081 0.217876 0.407679
Si Si4 0.792974 0.420286 0.906038
Si Si5 0.921573 0.658372 0.152827
Si Si6 0.582690 0.694708 0.246975
O O1 0.912025 0.500000 0.294426
O O2 0.863797 0.599727 0.393918
O O3 0.912814 0.630931 0.247554
O O4 0.000000 0.588941 0.366384
O O5 0.130075 0.130075 0.869262
O O6 0.092856 0.259092 0.846726
O O7 0.000000 0.162765 0.887611
O O8 0.091457 0.208469 0.000000
O O9 0.386522 0.239510 0.500000
O O10 0.500000 0.228706 0.410078
O O11 0.389506 0.265308 0.331043
O O12 0.811342 0.500000 0.886040
O O13 0.865302 0.378576 0.906525
O O14 0.739148 0.393305 0.835031
O O15 0.759434 0.411717 0.000000
O O16 0.000000 0.643231 0.118361
O O17 0.500000 0.681771 0.247688
O O18 0.619854 0.619854 0.242996
#
# Coordination Sequence:
#
# PCOD8312231 Si02
#       6
#    16  16  16  16  16  16
#     4   9  16  27  45  69  99 133 164 192 223 266
#     4   9  18  31  45  62  85 115 154 198 240 280
#     4   9  17  31  51  73  97 124 155 193 237 284
#     4  10  20  33  49  70  97 129 163 195 230 277
#     4  10  18  29  46  68  98 131 160 193 232 272
#     4  10  21  37  54  72  94 120 156 203 253 301
#
# _framework density 16.553035999999999
#
# number of rings (size 3 to 8) (size 9 to 14) (size 15 to 20)
#    0.000    2.500    1.667    1.000    0.000    4.000 
#    0.000    3.333    0.000    0.000    0.000    4.667 
#    0.000    0.000    0.000    0.000    0.000    0.167 
#
# Total GULP energy -1189933.925937 kJ/mol
# GULP energy per Si atom -12395.145062 kJ/mol
# Density = 1.651536 g / cm^3
# Si number density = 16.553036 Si / 1000 Ang^3
#
#
#
# Elastic Constant Matrix: (Units=GPa)
#
#
# Indices 1 2 3 4 5 6 
#
# 1 78.3343 48.5632 38.7451 0.0000 0.0000 0.0000
# 2 48.5632 78.3343 38.7451 0.0000 0.0000 0.0000
# 3 38.7451 38.7451 103.1703 0.0000 0.0000 0.0000
# 4 0.0000 0.0000 0.0000 9.7483 0.0000 0.0000
# 5 0.0000 0.0000 0.0000 0.0000 9.7483 0.0000
# 6 0.0000 0.0000 0.0000 0.0000 0.0000 27.9778
#
#
#
# Elastic Compliance Matrix: (Units=1/GPa)
#
#
# Indices 1 2 3 4 5 6 
#
# 1 0.021907 -0.011682 -0.003840 0.000000 0.000000 0.000000
# 2 -0.011682 0.021907 -0.003840 0.000000 0.000000 0.000000
# 3 -0.003840 -0.003840 0.012577 0.000000 0.000000 0.000000
# 4 0.000000 0.000000 0.000000 0.102582 0.000000 0.000000
# 5 0.000000 0.000000 0.000000 0.000000 0.102582 0.000000
# 6 0.000000 0.000000 0.000000 0.000000 0.000000 0.035743
#
#
# Mechanical properties :
#
#
# Convention : Reuss Voigt Hill
#
# Bulk Modulus (GPa) = 56.60170 56.88286 56.74228
# Shear Modulus (GPa) = 14.62364 18.41393 16.51878
#
# Velocity S-wave (km/s) = 2.97550 3.33891 3.16243
# Velocity P-wave (km/s) = 6.78772 7.02161 6.90566
#
# Compressibility (1/GPa) = 0.01766731
#
# Stress axis : x y z
#
# Youngs Moduli (GPa) = 45.64659 45.64659 79.51060
#
# Poissons Ratio (x) = 0.53325 0.30533
# Poissons Ratio (y) = 0.53325 0.30533
# Poissons Ratio (z) = 0.17529 0.17529
#
# Static dielectric constant tensor:
#      x y z
#    x 3.027960 0.000000 0.000000 
#    y 0.000000 3.027960 0.000000 
#    z 0.000000 0.000000 3.193680 
# 
# 
# High freq. dielectric constant tensor:
#      x y z
#    x 1.623630 0.000000 0.000000 
#    y 0.000000 1.623630 0.000000 
#    z 0.000000 0.000000 1.626240 
# 
# From -- ./inp_files/5490.got.cif
#   From: 2010.03.12/outbox.cif.g09.slc.cpg/sg123_3_cif.got.tgz:5490.got - 2010.04.06 16:26:55.
