data_PCOD8312285
_publ_section_title
;
Structure prediction by ZEFSAII (Michael W. Deem and Ramdas Pophale) SiO2 
 PCOD8312285
Probable space group: P 4/M M M
;
_chemical_formula_sum "Si O2"
_cell_formula_units_Z 96
_cell_length_a 23.456515
_cell_length_b 23.456515
_cell_length_c 9.314424
_cell_angle_alpha 90.000000
_cell_angle_beta 90.000000
_cell_angle_gamma 90.000000
_cell_volume 5124.871494
_symmetry_space_group_name_H-M "P 4/M M M"
_symmetry_group_IT_number 123
_symmetry_cell_setting 'tetragonal'
loop_
_space_group_symop_operation_xyz
x,y,z
-y,x,z
-x,-y,z
y,-x,z
x,-y,-z
-x,y,-z
y,x,-z
-y,-x,-z
-x,-y,-z
y,-x,-z
x,y,-z
-y,x,-z
-x,y,z
x,-y,z
-y,-x,z
y,x,z
loop_
_atom_site_type_symbol
_atom_site_label
_atom_site_fract_x
_atom_site_fract_y
_atom_site_fract_z
Si Si1 0.436569 0.656000 0.662531
Si Si2 0.173616 0.664484 0.329709
Si Si3 0.000000 0.244845 0.330307
Si Si4 0.000000 0.635963 0.164769
Si Si5 0.726879 0.364589 0.843854
Si Si6 0.215151 0.876524 0.669102
Si Si7 0.112043 0.566280 0.832240
O O1 0.427652 0.677486 0.500000
O O2 0.500000 0.635047 0.691733
O O3 0.397812 0.602189 0.697574
O O4 0.423370 0.709842 0.765349
O O5 0.174017 0.658308 0.500000
O O6 0.235512 0.674190 0.262774
O O7 0.138674 0.720600 0.280156
O O8 0.155538 0.604290 0.259195
O O9 0.943445 0.207962 0.286398
O O10 0.000000 0.256508 0.500000
O O11 0.000000 0.307135 0.259585
O O12 0.948089 0.594894 0.201980
O O13 0.000000 0.656122 0.000000
O O14 0.669312 0.330689 0.869572
O O15 0.755823 0.376789 0.000000
O O16 0.211288 0.869193 0.500000
O O17 0.165368 0.834633 0.735917
O O18 0.112610 0.500000 0.782033
O O19 0.126936 0.570186 0.000000
#
# Coordination Sequence:
#
# PCOD8312285 Si02
#       7
#    16  16   8   8  16  16  16
#     4   9  18  33  53  76 100 127 162 206 260 322
#     4  11  21  34  54  77 106 140 181 230 274 320
#     4  10  18  33  57  82 112 146 185 228 274 330
#     4  10  19  34  56  78 107 143 182 224 270 319
#     4  10  21  36  53  73  99 132 170 212 261 318
#     4   9  18  32  53  82 112 143 179 223 276 328
#     4  10  21  36  53  75 106 145 185 224 270 322
#
# _framework density 18.732175000000002
#
# number of rings (size 3 to 8) (size 9 to 14) (size 15 to 20)
#    0.000    2.167    1.667    1.750    0.000    4.167 
#    0.000    0.833    0.000    3.250    0.000    4.083 
#    0.000    0.000    0.000    0.750    0.000    0.833 
#
# Total GULP energy -1189337.332571 kJ/mol
# GULP energy per Si atom -12388.930548 kJ/mol
# Density = 1.868954 g / cm^3
# Si number density = 18.732175 Si / 1000 Ang^3
#
#
#
# Elastic Constant Matrix: (Units=GPa)
#
#
# Indices 1 2 3 4 5 6 
#
# 1 110.8166 53.0083 38.7731 0.0000 0.0000 0.0000
# 2 53.0083 110.8166 38.7731 0.0000 0.0000 0.0000
# 3 38.7731 38.7731 66.6316 0.0000 0.0000 0.0000
# 4 0.0000 0.0000 0.0000 20.4068 0.0000 0.0000
# 5 0.0000 0.0000 0.0000 0.0000 20.4068 0.0000
# 6 0.0000 0.0000 0.0000 0.0000 0.0000 9.9345
#
#
#
# Elastic Compliance Matrix: (Units=1/GPa)
#
#
# Indices 1 2 3 4 5 6 
#
# 1 0.012862 -0.004437 -0.004902 0.000000 0.000000 0.000000
# 2 -0.004437 0.012862 -0.004902 0.000000 0.000000 0.000000
# 3 -0.004902 -0.004902 0.020713 0.000000 0.000000 0.000000
# 4 0.000000 0.000000 0.000000 0.049003 0.000000 0.000000
# 5 0.000000 0.000000 0.000000 0.000000 0.049003 0.000000
# 6 0.000000 0.000000 0.000000 0.000000 0.000000 0.100659
#
#
# Mechanical properties :
#
#
# Convention : Reuss Voigt Hill
#
# Bulk Modulus (GPa) = 55.70036 61.04155 58.37096
# Shear Modulus (GPa) = 17.88463 20.66363 19.27413
#
# Velocity S-wave (km/s) = 3.09326 3.32491 3.21118
# Velocity P-wave (km/s) = 6.52360 6.88457 6.70651
#
# Compressibility (1/GPa) = 0.01795321
#
# Stress axis : x y z
#
# Youngs Moduli (GPa) = 77.75105 77.75105 48.27838
#
# Poissons Ratio (x) = 0.34498 0.23667
# Poissons Ratio (y) = 0.34498 0.23667
# Poissons Ratio (z) = 0.38116 0.38116
#
# Static dielectric constant tensor:
#      x y z
#    x 3.660980 0.000000 0.000000 
#    y 0.000000 3.660980 0.000000 
#    z 0.000000 0.000000 3.506040 
# 
# 
# High freq. dielectric constant tensor:
#      x y z
#    x 1.723790 0.000000 0.000000 
#    y 0.000000 1.723790 0.000000 
#    z 0.000000 0.000000 1.712380 
# 
# From -- ./inp_files/1673.got.cif
#   From: 2010.03.12/outbox.cif.g09.slc.cpg/sg123_1_cif.got.tgz:1673.got - 2010.04.06 16:26:55.
