data_PCOD8312322
_publ_section_title
;
Structure prediction by ZEFSAII (Michael W. Deem and Ramdas Pophale) SiO2 
 PCOD8312322
Probable space group: P 4/M M M
;
_chemical_formula_sum "Si O2"
_cell_formula_units_Z 96
_cell_length_a 27.919851
_cell_length_b 27.919851
_cell_length_c 9.317555
_cell_angle_alpha 90.000000
_cell_angle_beta 90.000000
_cell_angle_gamma 90.000000
_cell_volume 7263.202583
_symmetry_space_group_name_H-M "P 4/M M M"
_symmetry_group_IT_number 123
_symmetry_cell_setting 'tetragonal'
loop_
_space_group_symop_operation_xyz
x,y,z
-y,x,z
-x,-y,z
y,-x,z
x,-y,-z
-x,y,-z
y,x,-z
-y,-x,-z
-x,-y,-z
y,-x,-z
x,y,-z
-y,x,-z
-x,y,z
x,-y,z
-y,-x,z
y,x,z
loop_
_atom_site_type_symbol
_atom_site_label
_atom_site_fract_x
_atom_site_fract_y
_atom_site_fract_z
Si Si1 0.054856 0.867541 0.165688
Si Si2 0.500000 0.426803 0.668418
Si Si3 0.800859 0.118579 0.337621
Si Si4 0.817071 0.263791 0.837252
Si Si5 0.608329 0.313986 0.162585
Si Si6 0.663224 0.500000 0.159056
Si Si7 0.752832 0.327137 0.660913
O O1 0.084870 0.915131 0.203231
O O2 0.071816 0.822852 0.261697
O O3 0.000000 0.879120 0.201838
O O4 0.062079 0.853074 0.000000
O O5 0.546987 0.453014 0.730551
O O6 0.500000 0.429895 0.500000
O O7 0.500000 0.373151 0.712917
O O8 0.785236 0.105820 0.500000
O O9 0.839898 0.160102 0.338349
O O10 0.754919 0.136253 0.247706
O O11 0.776494 0.223507 0.839050
O O12 0.798386 0.311335 0.755872
O O13 0.831546 0.277299 0.000000
O O14 0.633902 0.366099 0.198568
O O15 0.550587 0.309853 0.179909
O O16 0.627702 0.273112 0.267263
O O17 0.622324 0.300648 0.000000
O O18 0.639720 0.500000 0.000000
O O19 0.769438 0.341212 0.500000
O O20 0.716937 0.283064 0.653278
#
# Coordination Sequence:
#
# PCOD8312322 Si02
#       7
#    16   8  16  16  16   8  16
#     4   9  17  28  40  53  70  94 126 164 203 238
#     4   9  18  30  40  50  64  80 100 132 176 221
#     4   9  16  25  37  53  72  92 115 145 181 221
#     4   9  15  23  37  55  73  91 109 132 167 210
#     4   9  17  28  39  51  68  88 111 141 177 214
#     4  10  19  29  41  54  66  84 112 144 175 209
#     4   9  16  25  37  53  71  89 109 133 164 205
#
# _framework density 13.217311
#
# number of rings (size 3 to 8) (size 9 to 14) (size 15 to 20)
#    0.000    2.917    0.000    2.250    0.000    8.167 
#    0.000    2.917    0.000    0.000    0.000    2.333 
#    0.000    0.000    0.000    0.000    0.000    0.000 
#
# Total GULP energy -1189532.446481 kJ/mol
# GULP energy per Si atom -12390.962984 kJ/mol
# Density = 1.318723 g / cm^3
# Si number density = 13.217311 Si / 1000 Ang^3
#
#
#
# Elastic Constant Matrix: (Units=GPa)
#
#
# Indices 1 2 3 4 5 6 
#
# 1 50.0174 43.7728 41.9683 0.0000 0.0000 0.0000
# 2 43.7728 50.0174 41.9683 0.0000 0.0000 0.0000
# 3 41.9683 41.9683 100.1652 0.0000 0.0000 0.0000
# 4 0.0000 0.0000 0.0000 17.1441 0.0000 0.0000
# 5 0.0000 0.0000 0.0000 0.0000 17.1441 0.0000
# 6 0.0000 0.0000 0.0000 0.0000 0.0000 18.0107
#
#
#
# Elastic Compliance Matrix: (Units=1/GPa)
#
#
# Indices 1 2 3 4 5 6 
#
# 1 0.088598 -0.071539 -0.007147 0.000000 0.000000 0.000000
# 2 -0.071539 0.088598 -0.007147 0.000000 0.000000 0.000000
# 3 -0.007147 -0.007147 0.015973 0.000000 0.000000 0.000000
# 4 0.000000 0.000000 0.000000 0.058329 0.000000 0.000000
# 5 0.000000 0.000000 0.000000 0.000000 0.058329 0.000000
# 6 0.000000 0.000000 0.000000 0.000000 0.000000 0.055523
#
#
# Mechanical properties :
#
#
# Convention : Reuss Voigt Hill
#
# Bulk Modulus (GPa) = 46.51058 50.62431 48.56744
# Shear Modulus (GPa) = 9.18806 15.29248 12.24027
#
# Velocity S-wave (km/s) = 2.63944 3.40517 3.04646
# Velocity P-wave (km/s) = 6.67491 7.33791 7.01424
#
# Compressibility (1/GPa) = 0.02150049
#
# Stress axis : x y z
#
# Youngs Moduli (GPa) = 11.28696 11.28696 62.60615
#
# Poissons Ratio (x) = 0.80746 0.44747
# Poissons Ratio (y) = 0.80746 0.44747
# Poissons Ratio (z) = 0.08067 0.08067
#
# Static dielectric constant tensor:
#      x y z
#    x 2.441660 0.000000 0.000000 
#    y 0.000000 2.441660 0.000000 
#    z 0.000000 0.000000 2.862150 
# 
# 
# High freq. dielectric constant tensor:
#      x y z
#    x 1.465010 0.000000 0.000000 
#    y 0.000000 1.465010 0.000000 
#    z 0.000000 0.000000 1.520630 
# 
# From -- ./inp_files/2102.got.cif
#   From: 2010.03.12/outbox.cif.g09.slc.cpg/sg123_2_cif.got.tgz:2102.got - 2010.04.06 16:26:55.
