data_PCOD8312119
_publ_section_title
;
Structure prediction by ZEFSAII (Michael W. Deem and Ramdas Pophale) SiO2 
 PCOD8312119
Probable space group: P 4/M M M
;
_chemical_formula_sum "Si O2"
_cell_formula_units_Z 96
_cell_length_a 29.058480
_cell_length_b 29.058480
_cell_length_c 9.272411
_cell_angle_alpha 90.000000
_cell_angle_beta 90.000000
_cell_angle_gamma 90.000000
_cell_volume 7829.579896
_symmetry_space_group_name_H-M "P 4/M M M"
_symmetry_group_IT_number 123
_symmetry_cell_setting 'tetragonal'
loop_
_space_group_symop_operation_xyz
x,y,z
-y,x,z
-x,-y,z
y,-x,z
x,-y,-z
-x,y,-z
y,x,-z
-y,-x,-z
-x,-y,-z
y,-x,-z
x,y,-z
-y,x,-z
-x,y,z
x,-y,z
-y,-x,z
y,x,z
loop_
_atom_site_type_symbol
_atom_site_label
_atom_site_fract_x
_atom_site_fract_y
_atom_site_fract_z
Si Si1 0.294116 0.051733 0.837605
Si Si2 0.115661 0.761625 0.662230
Si Si3 0.116722 0.380384 0.834763
Si Si4 0.948129 0.445826 0.665253
Si Si5 0.249551 0.249551 0.331291
Si Si6 0.182833 0.182833 0.828637
Si Si7 0.324504 0.184081 0.339994
O O1 0.254472 0.067221 0.727984
O O2 0.339391 0.081269 0.815897
O O3 0.307961 0.000000 0.800395
O O4 0.275305 0.057096 0.000000
O O5 0.108109 0.779325 0.500000
O O6 0.133761 0.803154 0.761626
O O7 0.150997 0.719434 0.667485
O O8 0.092927 0.423491 0.757346
O O9 0.166013 0.364771 0.766247
O O10 0.126241 0.393440 0.000000
O O11 0.942452 0.429960 0.500000
O O12 0.941593 0.500000 0.679794
O O13 0.000000 0.432351 0.718823
O O14 0.237184 0.237184 0.500000
O O15 0.220233 0.220233 0.218697
O O16 0.303596 0.235573 0.303576
O O17 0.179919 0.179919 0.000000
O O18 0.346063 0.184005 0.500000
#
# Coordination Sequence:
#
# PCOD8312119 Si02
#       7
#    16  16  16  16   8   8  16
#     4   9  17  27  36  48  67  86 103 125 153 184
#     4   9  16  25  35  47  62  80 104 128 147 171
#     4  10  18  26  37  53  69  84 104 130 161 196
#     4   9  18  31  43  52  62  79 105 137 174 214
#     4   8  14  24  36  50  66  84 106 128 149 175
#     4  10  16  22  34  48  62  80 100 123 151 176
#     4   8  14  24  36  49  66  86 105 126 151 180
#
# _framework density 12.261195000000001
#
# number of rings (size 3 to 8) (size 9 to 14) (size 15 to 20)
#    0.000    3.000    0.000    3.750    0.000    6.333 
#    0.000    0.833    0.000    0.000    0.000    0.000 
#    0.000    0.000    0.000    0.000    0.000    0.417 
#
# Total GULP energy -1189362.648662 kJ/mol
# GULP energy per Si atom -12389.194257 kJ/mol
# Density = 1.223329 g / cm^3
# Si number density = 12.261195 Si / 1000 Ang^3
#
#
#
# Elastic Constant Matrix: (Units=GPa)
#
#
# Indices 1 2 3 4 5 6 
#
# 1 30.5742 21.1601 25.7126 0.0000 0.0000 0.0000
# 2 21.1601 30.5742 25.7126 0.0000 0.0000 0.0000
# 3 25.7126 25.7126 83.6267 0.0000 0.0000 0.0000
# 4 0.0000 0.0000 0.0000 16.3221 0.0000 0.0000
# 5 0.0000 0.0000 0.0000 0.0000 16.3221 0.0000
# 6 0.0000 0.0000 0.0000 0.0000 0.0000 22.4191
#
#
#
# Elastic Compliance Matrix: (Units=1/GPa)
#
#
# Indices 1 2 3 4 5 6 
#
# 1 0.067031 -0.039193 -0.008559 0.000000 0.000000 0.000000
# 2 -0.039193 0.067031 -0.008559 0.000000 0.000000 0.000000
# 3 -0.008559 -0.008559 0.017221 0.000000 0.000000 0.000000
# 4 0.000000 0.000000 0.000000 0.061267 0.000000 0.000000
# 5 0.000000 0.000000 0.000000 0.000000 0.061267 0.000000
# 6 0.000000 0.000000 0.000000 0.000000 0.000000 0.044605
#
#
# Mechanical properties :
#
#
# Convention : Reuss Voigt Hill
#
# Bulk Modulus (GPa) = 25.86675 32.21621 29.04148
# Shear Modulus (GPa) = 11.26304 15.82532 13.54418
#
# Velocity S-wave (km/s) = 3.03412 3.59651 3.32722
# Velocity P-wave (km/s) = 5.78072 6.60140 6.20464
#
# Compressibility (1/GPa) = 0.03865967
#
# Stress axis : x y z
#
# Youngs Moduli (GPa) = 14.91855 14.91855 58.06762
#
# Poissons Ratio (x) = 0.58470 0.49701
# Poissons Ratio (y) = 0.58470 0.49701
# Poissons Ratio (z) = 0.12769 0.12769
#
# Static dielectric constant tensor:
#      x y z
#    x 2.394390 0.000000 0.000000 
#    y 0.000000 2.394390 0.000000 
#    z 0.000000 0.000000 2.658590 
# 
# 
# High freq. dielectric constant tensor:
#      x y z
#    x 1.427130 0.000000 0.000000 
#    y 0.000000 1.427130 0.000000 
#    z 0.000000 0.000000 1.478170 
# 
# From -- ./inp_files/2116.got.cif
#   From: 2010.03.12/outbox.cif.g09.slc.cpg/sg123_2_cif.got.tgz:2116.got - 2010.04.06 16:26:55.
