data_PCOD8312459
_publ_section_title
;
Structure prediction by ZEFSAII (Michael W. Deem and Ramdas Pophale) SiO2 
 PCOD8312459
Probable space group: P 4/M M M
;
_chemical_formula_sum "Si O2"
_cell_formula_units_Z 56
_cell_length_a 13.557394
_cell_length_b 13.557394
_cell_length_c 17.860182
_cell_angle_alpha 90.000000
_cell_angle_beta 90.000000
_cell_angle_gamma 90.000000
_cell_volume 3282.753819
_symmetry_space_group_name_H-M "P 4/M M M"
_symmetry_group_IT_number 123
_symmetry_cell_setting 'tetragonal'
loop_
_space_group_symop_operation_xyz
x,y,z
-y,x,z
-x,-y,z
y,-x,z
x,-y,-z
-x,y,-z
y,x,-z
-y,-x,-z
-x,-y,-z
y,-x,-z
x,y,-z
-y,x,-z
-x,y,z
x,-y,z
-y,-x,z
y,x,z
loop_
_atom_site_type_symbol
_atom_site_label
_atom_site_fract_x
_atom_site_fract_y
_atom_site_fract_z
Si Si1 0.615361 0.225079 0.706521
Si Si2 0.889878 0.383111 0.147002
Si Si3 0.616450 0.774503 0.000000
Si Si4 0.727113 0.113142 0.414072
O O1 0.500000 0.248362 0.709360
O O2 0.670957 0.329044 0.698953
O O3 0.653704 0.170268 0.780967
O O4 0.638178 0.155204 0.635862
O O5 0.897153 0.500000 0.148041
O O6 0.000000 0.337536 0.148711
O O7 0.835434 0.347865 0.072097
O O8 0.500000 0.754857 0.000000
O O9 0.668149 0.668149 0.000000
O O10 0.694178 0.125171 0.500000
O O11 0.827685 0.172316 0.397200
O O12 0.747631 0.000000 0.393449
#
# Coordination Sequence:
#
# PCOD8312459 Si02
#       4
#    16  16   8  16
#     4  10  20  33  49  70  97 128 162 199 238 284
#     4   9  17  30  48  68  90 118 153 194 239 282
#     4  10  19  30  45  67  96 128 161 195 232 279
#     4   9  18  32  50  73  99 126 158 197 242 291
#
# _framework density 17.058847
#
# number of rings (size 3 to 8) (size 9 to 14) (size 15 to 20)
#    0.000    2.571    0.000    2.143    0.000    4.714 
#    0.000    2.857    0.000    5.143    0.000    4.000 
#    0.000   21.714    0.000    0.000    0.000    0.000 
#
# Total GULP energy -694456.390061 kJ/mol
# GULP energy per Si atom -12401.006965 kJ/mol
# Density = 1.702002 g / cm^3
# Si number density = 17.058847 Si / 1000 Ang^3
#
#
#
# Elastic Constant Matrix: (Units=GPa)
#
#
# Indices 1 2 3 4 5 6 
#
# 1 90.7401 41.7506 49.6284 0.0000 0.0000 0.0000
# 2 41.7506 90.7401 49.6284 0.0000 0.0000 0.0000
# 3 49.6284 49.6284 119.2326 0.0000 0.0000 0.0000
# 4 0.0000 0.0000 0.0000 24.5263 0.0000 0.0000
# 5 0.0000 0.0000 0.0000 0.0000 24.5263 0.0000
# 6 0.0000 0.0000 0.0000 0.0000 0.0000 12.0170
#
#
#
# Elastic Compliance Matrix: (Units=1/GPa)
#
#
# Indices 1 2 3 4 5 6 
#
# 1 0.015690 -0.004722 -0.004565 0.000000 0.000000 0.000000
# 2 -0.004722 0.015690 -0.004565 0.000000 0.000000 0.000000
# 3 -0.004565 -0.004565 0.012187 0.000000 0.000000 0.000000
# 4 0.000000 0.000000 0.000000 0.040773 0.000000 0.000000
# 5 0.000000 0.000000 0.000000 0.000000 0.040773 0.000000
# 6 0.000000 0.000000 0.000000 0.000000 0.000000 0.083215
#
#
# Mechanical properties :
#
#
# Convention : Reuss Voigt Hill
#
# Bulk Modulus (GPa) = 63.04285 64.74751 63.89518
# Shear Modulus (GPa) = 20.71934 22.86096 21.79015
#
# Velocity S-wave (km/s) = 3.48886 3.66474 3.57788
# Velocity P-wave (km/s) = 7.29835 7.47963 7.38955
#
# Compressibility (1/GPa) = 0.01586223
#
# Stress axis : x y z
#
# Youngs Moduli (GPa) = 63.73440 63.73440 82.05294
#
# Poissons Ratio (x) = 0.30098 0.37458
# Poissons Ratio (y) = 0.30098 0.37458
# Poissons Ratio (z) = 0.29095 0.29095
#
# Static dielectric constant tensor:
#      x y z
#    x 3.042450 0.000000 0.000000 
#    y 0.000000 3.042450 0.000000 
#    z 0.000000 0.000000 3.434150 
# 
# 
# High freq. dielectric constant tensor:
#      x y z
#    x 1.643600 0.000000 0.000000 
#    y 0.000000 1.643600 0.000000 
#    z 0.000000 0.000000 1.675690 
# 
# From -- ./inp_files/3689.got.cif
#   From: 2010.03.12/outbox.cif.g09.slc.cpg/sg123_2_cif.got.tgz:3689.got - 2010.04.06 16:26:55.
