data_PCOD8312008
_publ_section_title
;
Structure prediction by ZEFSAII (Michael W. Deem and Ramdas Pophale) SiO2 
 PCOD8312008
Probable space group: I -4 2 D
;
_chemical_formula_sum "Si O2"
_cell_formula_units_Z 88
_cell_length_a 17.390241
_cell_length_b 17.390241
_cell_length_c 14.077879
_cell_angle_alpha 90.000000
_cell_angle_beta 90.000000
_cell_angle_gamma 90.000000
_cell_volume 4257.438953
_symmetry_space_group_name_H-M "I -4 2 D"
_symmetry_group_IT_number 122
_symmetry_cell_setting 'tetragonal'
loop_
_space_group_symop_operation_xyz
x,y,z
y,-x,-z
-x,-y,z
-y,x,-z
x,1/2-y,1/4-z
-x,1/2+y,1/4-z
-y,1/2-x,1/4+z
y,1/2+x,1/4+z
1/2+x,1/2+y,1/2+z
1/2+y,1/2-x,1/2-z
1/2-x,1/2-y,1/2+z
1/2-y,1/2+x,1/2-z
1/2+x,-y,3/4-z
1/2-x,y,3/4-z
1/2-y,-x,3/4+z
1/2+y,x,3/4+z
loop_
_atom_site_type_symbol
_atom_site_label
_atom_site_fract_x
_atom_site_fract_y
_atom_site_fract_z
Si Si1 0.235498 0.093094 0.556912
Si Si2 0.121221 0.129141 0.704444
Si Si3 0.157536 0.469780 0.371926
Si Si4 0.760141 0.252396 0.234760
Si Si5 0.117205 0.634759 0.311603
Si Si6 0.250000 0.995974 0.375000
O O1 0.158326 0.081222 0.617991
O O2 0.250838 0.183100 0.544710
O O3 0.309671 0.067475 0.618440
O O4 0.220874 0.048360 0.460600
O O5 0.110351 0.067749 0.789886
O O6 0.175583 0.194581 0.744216
O O7 0.047669 0.174707 0.664298
O O8 0.250000 0.450396 0.375000
O O9 0.142544 0.560715 0.371993
O O10 0.117740 0.438227 0.276794
O O11 0.738516 0.250000 0.125000
O O12 0.806737 0.327426 0.265952
#
# Coordination Sequence:
#
# PCOD8312008 Si02
#       6
#    16  16  16  16  16   8
#     4  11  23  43  66  96 128 172 239 277 327 388
#     4  11  22  44  68  93 131 173 222 280 325 391
#     4  12  23  43  69 102 137 176 219 276 350 409
#     4  11  18  41  70  95 124 163 229 288 316 381
#     4  11  24  40  68 102 134 173 217 280 348 409
#     4  12  26  42  70  96 128 182 226 276 332 390
#
# _framework density 20.669702999999998
#
# number of rings (size 3 to 8) (size 9 to 14) (size 15 to 20)
#    0.000    0.727    8.182    2.727    2.545    0.364 
#    6.545    0.000    0.000    0.000    0.000    0.000 
#    0.000    0.000    0.000    0.000    0.000    0.000 
#
# Total GULP energy -545457.580319 kJ/mol
# GULP energy per Si atom -12396.763189 kJ/mol
# Density = 2.062266 g / cm^3
# Si number density = 20.669703 Si / 1000 Ang^3
#
#
#
# Elastic Constant Matrix: (Units=GPa)
#
#
# Indices 1 2 3 4 5 6 
#
# 1 552.3572 -469.5182 16.1285 0.0000 0.0000 0.0000
# 2 -469.5182 552.3572 16.1285 0.0000 0.0000 0.0000
# 3 16.1285 16.1285 114.0340 0.0000 0.0000 0.0000
# 4 0.0000 0.0000 0.0000 30.9957 0.0000 0.0000
# 5 0.0000 0.0000 0.0000 0.0000 30.9957 0.0000
# 6 0.0000 0.0000 0.0000 0.0000 0.0000 15.7421
#
#
#
# Elastic Compliance Matrix: (Units=1/GPa)
#
#
# Indices 1 2 3 4 5 6 
#
# 1 0.006877 0.005898 -0.001807 0.000000 0.000000 0.000000
# 2 0.005898 0.006877 -0.001807 0.000000 0.000000 0.000000
# 3 -0.001807 -0.001807 0.009280 0.000000 0.000000 0.000000
# 4 0.000000 0.000000 0.000000 0.032263 0.000000 0.000000
# 5 0.000000 0.000000 0.000000 0.000000 0.032263 0.000000
# 6 0.000000 0.000000 0.000000 0.000000 0.000000 0.063524
#
#
# Mechanical properties :
#
#
# Convention : Reuss Voigt Hill
#
# Bulk Modulus (GPa) = 36.22749 38.24732 37.23740
# Shear Modulus (GPa) = 32.10993 125.94734 79.02863
#
# Velocity S-wave (km/s) = 3.94569 7.81445 6.19008
# Velocity P-wave (km/s) = 6.19055 9.99825 8.31528
#
# Compressibility (1/GPa) = 0.02760335
#
# Stress axis : x y z
#
# Youngs Moduli (GPa) = 145.41436 145.41436 107.75364
#
# Poissons Ratio (x) = -0.85770 0.19470
# Poissons Ratio (y) = -0.85770 0.19470
# Poissons Ratio (z) = 0.26275 0.26275
#
# Static dielectric constant tensor:
#      x y z
#    x 3.558890 0.000000 0.000000 
#    y 0.000000 3.558890 0.000000 
#    z 0.000000 0.000000 5.356390 
# 
# 
# High freq. dielectric constant tensor:
#      x y z
#    x 1.791720 0.000000 0.000000 
#    y 0.000000 1.791720 0.000000 
#    z 0.000000 0.000000 1.834680 
# 
# From -- ./inp_files/5378.got.cif
#   From: 2010.03.12/outbox.cif.g09.slc.cpg/sg122_3_cif.got.tgz:5378.got - 2010.04.06 16:17:16.
