data_PCOD8312829
_publ_section_title
;
Structure prediction by ZEFSAII (Michael W. Deem and Ramdas Pophale) SiO2 
 PCOD8312829
Probable space group: P 4/M M M
;
_chemical_formula_sum "Si O2"
_cell_formula_units_Z 72
_cell_length_a 12.886560
_cell_length_b 12.886560
_cell_length_c 24.722850
_cell_angle_alpha 90.000000
_cell_angle_beta 90.000000
_cell_angle_gamma 90.000000
_cell_volume 4105.561237
_symmetry_space_group_name_H-M "P 4/M M M"
_symmetry_group_IT_number 123
_symmetry_cell_setting 'tetragonal'
loop_
_space_group_symop_operation_xyz
x,y,z
-y,x,z
-x,-y,z
y,-x,z
x,-y,-z
-x,y,-z
y,x,-z
-y,-x,-z
-x,-y,-z
y,-x,-z
x,y,-z
-y,x,-z
-x,y,z
x,-y,z
-y,-x,z
y,x,z
loop_
_atom_site_type_symbol
_atom_site_label
_atom_site_fract_x
_atom_site_fract_y
_atom_site_fract_z
Si Si1 0.115522 0.282984 0.653521
Si Si2 0.621023 0.792864 0.877045
Si Si3 0.286913 0.879112 0.774057
Si Si4 0.616452 0.215593 0.440224
Si Si5 0.000000 0.377052 0.061038
O O1 0.185507 0.185507 0.639283
O O2 0.138863 0.330080 0.713123
O O3 0.129772 0.368414 0.606543
O O4 0.000000 0.239716 0.652444
O O5 0.500000 0.765719 0.889092
O O6 0.693337 0.693337 0.892051
O O7 0.632307 0.822540 0.813931
O O8 0.661104 0.893626 0.910460
O O9 0.173041 0.826959 0.779973
O O10 0.276755 0.000000 0.788757
O O11 0.642915 0.169256 0.500000
O O12 0.500000 0.255808 0.438514
O O13 0.684749 0.315252 0.426730
O O14 0.000000 0.500000 0.062667
O O15 0.000000 0.333975 0.000000
#
# Coordination Sequence:
#
# PCOD8312829 Si02
#       5
#    16  16  16  16   8
#     4   9  18  31  47  69  96 126 161 200 243 291
#     4  10  20  34  53  78 108 141 176 214 256 304
#     4   9  17  30  49  73 100 130 165 206 252 300
#     4   9  18  32  48  66  89 117 152 196 244 294
#     4   9  18  34  56  79 103 135 174 213 252 295
#
# _framework density 17.537188
#
# number of rings (size 3 to 8) (size 9 to 14) (size 15 to 20)
#    0.000    2.778    1.111    0.000    0.000    3.111 
#    0.000    6.667    0.000    0.333    0.000   13.222 
#    0.000    0.000    0.000    0.000    0.000    0.000 
#
# Total GULP energy -892261.609478 kJ/mol
# GULP energy per Si atom -12392.522354 kJ/mol
# Density = 1.749727 g / cm^3
# Si number density = 17.537188 Si / 1000 Ang^3
#
#
#
# Elastic Constant Matrix: (Units=GPa)
#
#
# Indices 1 2 3 4 5 6 
#
# 1 83.1904 35.8930 40.5353 0.0000 0.0000 0.0000
# 2 35.8930 83.1904 40.5353 0.0000 0.0000 0.0000
# 3 40.5353 40.5353 112.3591 0.0000 0.0000 0.0000
# 4 0.0000 0.0000 0.0000 22.2384 0.0000 0.0000
# 5 0.0000 0.0000 0.0000 0.0000 22.2384 0.0000
# 6 0.0000 0.0000 0.0000 0.0000 0.0000 16.3789
#
#
#
# Elastic Compliance Matrix: (Units=1/GPa)
#
#
# Indices 1 2 3 4 5 6 
#
# 1 0.016137 -0.005006 -0.004016 0.000000 0.000000 0.000000
# 2 -0.005006 0.016137 -0.004016 0.000000 0.000000 0.000000
# 3 -0.004016 -0.004016 0.011798 0.000000 0.000000 0.000000
# 4 0.000000 0.000000 0.000000 0.044967 0.000000 0.000000
# 5 0.000000 0.000000 0.000000 0.000000 0.044967 0.000000
# 6 0.000000 0.000000 0.000000 0.000000 0.000000 0.061054
#
#
# Mechanical properties :
#
#
# Convention : Reuss Voigt Hill
#
# Bulk Modulus (GPa) = 55.56458 56.96302 56.26380
# Shear Modulus (GPa) = 22.01344 22.95625 22.48485
#
# Velocity S-wave (km/s) = 3.54679 3.62194 3.58456
# Velocity P-wave (km/s) = 6.96603 7.07411 7.02028
#
# Compressibility (1/GPa) = 0.01799708
#
# Stress axis : x y z
#
# Youngs Moduli (GPa) = 61.96896 61.96896 84.76311
#
# Poissons Ratio (x) = 0.31020 0.34039
# Poissons Ratio (y) = 0.31020 0.34039
# Poissons Ratio (z) = 0.24886 0.24886
#
# Static dielectric constant tensor:
#      x y z
#    x 3.120720 0.000000 0.000000 
#    y 0.000000 3.120720 0.000000 
#    z 0.000000 0.000000 3.623070 
# 
# 
# High freq. dielectric constant tensor:
#      x y z
#    x 1.660640 0.000000 0.000000 
#    y 0.000000 1.660640 0.000000 
#    z 0.000000 0.000000 1.691820 
# 
# From -- ./inp_files/7826.got.cif
#   From: 2010.03.12/outbox.cif.g09.slc.cpg/sg123_4_cif.got.tgz:7826.got - 2010.04.06 16:26:55.
