data_PCOD8312489
_publ_section_title
;
Structure prediction by ZEFSAII (Michael W. Deem and Ramdas Pophale) SiO2 
 PCOD8312489
Probable space group: P 4/M M M
;
_chemical_formula_sum "Si O2"
_cell_formula_units_Z 104
_cell_length_a 17.975736
_cell_length_b 17.975736
_cell_length_c 17.043362
_cell_angle_alpha 90.000000
_cell_angle_beta 90.000000
_cell_angle_gamma 90.000000
_cell_volume 5507.171877
_symmetry_space_group_name_H-M "P 4/M M M"
_symmetry_group_IT_number 123
_symmetry_cell_setting 'tetragonal'
loop_
_space_group_symop_operation_xyz
x,y,z
-y,x,z
-x,-y,z
y,-x,z
x,-y,-z
-x,y,-z
y,x,-z
-y,-x,-z
-x,-y,-z
y,-x,-z
x,y,-z
-y,x,-z
-x,y,z
x,-y,z
-y,-x,z
y,x,z
loop_
_atom_site_type_symbol
_atom_site_label
_atom_site_fract_x
_atom_site_fract_y
_atom_site_fract_z
Si Si1 0.585974 0.697299 0.500000
Si Si2 0.686845 0.188374 0.911723
Si Si3 0.920118 0.195717 0.643232
Si Si4 0.353972 0.763792 0.657769
Si Si5 0.082338 0.351923 0.411935
Si Si6 0.291578 0.413655 0.816494
Si Si7 0.913444 0.792953 0.822589
O O1 0.500000 0.703363 0.500000
O O2 0.610995 0.610995 0.500000
O O3 0.618573 0.736359 0.424869
O O4 0.749325 0.250676 0.911145
O O5 0.614647 0.221898 0.868237
O O6 0.719640 0.116187 0.867730
O O7 0.664172 0.165967 0.000000
O O8 0.861544 0.138457 0.609238
O O9 0.922477 0.263170 0.582627
O O10 0.900641 0.223965 0.730941
O O11 0.000000 0.155258 0.646473
O O12 0.268156 0.731845 0.670301
O O13 0.366427 0.853260 0.652802
O O14 0.405595 0.731294 0.725742
O O15 0.101035 0.382015 0.500000
O O16 0.000000 0.383045 0.385611
O O17 0.307686 0.500000 0.835400
O O18 0.366458 0.366458 0.834751
O O19 0.867110 0.867110 0.847194
O O20 0.000000 0.805527 0.844170
#
# Coordination Sequence:
#
# PCOD8312489 Si02
#       7
#     8  16  16  16  16  16  16
#     4  10  20  33  51  75 101 131 164 200 246 302
#     4   9  18  33  53  77 105 139 178 216 257 312
#     4   9  17  27  40  61  91 127 168 215 266 317
#     4  10  19  33  53  76 103 138 177 214 256 312
#     4  10  19  30  47  71  97 128 173 228 272 303
#     4  10  21  37  59  85 110 137 169 209 260 320
#     4   9  17  30  49  75 107 144 186 232 280 325
#
# _framework density 18.884464999999999
#
# number of rings (size 3 to 8) (size 9 to 14) (size 15 to 20)
#    0.000    2.462    0.769    1.846    0.000    4.538 
#    0.000    1.538    0.000    6.462    0.000    7.538 
#    0.000    0.000    0.000    0.000    0.000    0.000 
#
# Total GULP energy -1288419.520827 kJ/mol
# GULP energy per Si atom -12388.649239 kJ/mol
# Density = 1.884148 g / cm^3
# Si number density = 18.884465 Si / 1000 Ang^3
#
#
#
# Elastic Constant Matrix: (Units=GPa)
#
#
# Indices 1 2 3 4 5 6 
#
# 1 101.9944 22.6200 12.1413 0.0000 0.0000 0.0000
# 2 22.6200 101.9944 12.1413 0.0000 0.0000 0.0000
# 3 12.1413 12.1413 56.3057 0.0000 0.0000 0.0000
# 4 0.0000 0.0000 0.0000 13.2332 0.0000 0.0000
# 5 0.0000 0.0000 0.0000 0.0000 13.2332 0.0000
# 6 0.0000 0.0000 0.0000 0.0000 0.0000 17.3951
#
#
#
# Elastic Compliance Matrix: (Units=1/GPa)
#
#
# Indices 1 2 3 4 5 6 
#
# 1 0.010488 -0.002111 -0.001806 0.000000 0.000000 0.000000
# 2 -0.002111 0.010488 -0.001806 0.000000 0.000000 0.000000
# 3 -0.001806 -0.001806 0.018539 0.000000 0.000000 0.000000
# 4 0.000000 0.000000 0.000000 0.075568 0.000000 0.000000
# 5 0.000000 0.000000 0.000000 0.000000 0.075568 0.000000
# 6 0.000000 0.000000 0.000000 0.000000 0.000000 0.057488
#
#
# Mechanical properties :
#
#
# Convention : Reuss Voigt Hill
#
# Bulk Modulus (GPa) = 35.62843 39.34442 37.48642
# Shear Modulus (GPa) = 18.59151 22.99841 20.79496
#
# Velocity S-wave (km/s) = 3.14106 3.49355 3.32198
# Velocity P-wave (km/s) = 5.66237 6.09530 5.88282
#
# Compressibility (1/GPa) = 0.02806747
#
# Stress axis : x y z
#
# Youngs Moduli (GPa) = 95.35048 95.35048 53.93982
#
# Poissons Ratio (x) = 0.20127 0.09743
# Poissons Ratio (y) = 0.20127 0.09743
# Poissons Ratio (z) = 0.17223 0.17223
#
# Static dielectric constant tensor:
#      x y z
#    x 3.429610 0.000000 0.000000 
#    y 0.000000 3.429610 0.000000 
#    z 0.000000 0.000000 3.553900 
# 
# 
# High freq. dielectric constant tensor:
#      x y z
#    x 1.717070 0.000000 0.000000 
#    y 0.000000 1.717070 0.000000 
#    z 0.000000 0.000000 1.727070 
# 
# From -- ./inp_files/5606.got.cif
#   From: 2010.03.12/outbox.cif.g09.slc.cpg/sg123_3_cif.got.tgz:5606.got - 2010.04.06 16:26:55.
