data_PCOD8312433
_publ_section_title
;
Structure prediction by ZEFSAII (Michael W. Deem and Ramdas Pophale) SiO2 
 PCOD8312433
Probable space group: P 4/M M M
;
_chemical_formula_sum "Si O2"
_cell_formula_units_Z 88
_cell_length_a 14.024909
_cell_length_b 14.024909
_cell_length_c 27.645682
_cell_angle_alpha 90.000000
_cell_angle_beta 90.000000
_cell_angle_gamma 90.000000
_cell_volume 5437.852361
_symmetry_space_group_name_H-M "P 4/M M M"
_symmetry_group_IT_number 123
_symmetry_cell_setting 'tetragonal'
loop_
_space_group_symop_operation_xyz
x,y,z
-y,x,z
-x,-y,z
y,-x,z
x,-y,-z
-x,y,-z
y,x,-z
-y,-x,-z
-x,-y,-z
y,-x,-z
x,y,-z
-y,x,-z
-x,y,z
x,-y,z
-y,-x,z
y,x,z
loop_
_atom_site_type_symbol
_atom_site_label
_atom_site_fract_x
_atom_site_fract_y
_atom_site_fract_z
Si Si1 0.768131 0.387255 0.090907
Si Si2 0.734470 0.110316 0.380128
Si Si3 0.891519 0.610849 0.817324
Si Si4 0.108594 0.261271 0.270540
Si Si5 0.236690 0.609101 0.556089
Si Si6 0.387258 0.892961 0.000000
O O1 0.746374 0.500000 0.088548
O O2 0.667722 0.332279 0.088061
O O3 0.822306 0.357148 0.139688
O O4 0.835708 0.353507 0.047191
O O5 0.831941 0.168060 0.390518
O O6 0.700180 0.125304 0.324847
O O7 0.649466 0.147656 0.413869
O O8 0.754713 0.000000 0.391872
O O9 0.882432 0.500000 0.807720
O O10 0.858229 0.659019 0.767440
O O11 0.000000 0.638375 0.831380
O O12 0.165555 0.165555 0.260484
O O13 0.000000 0.232709 0.262283
O O14 0.209838 0.618955 0.500000
O O15 0.255446 0.500000 0.570725
O O16 0.332590 0.667411 0.568617
O O17 0.500000 0.902151 0.000000
O O18 0.342938 0.000000 0.000000
#
# Coordination Sequence:
#
# PCOD8312433 Si02
#       6
#    16  16  16  16  16   8
#     4  10  19  30  45  65  90 119 148 178 213 255
#     4   9  18  31  46  66  92 121 153 188 225 267
#     4   9  17  29  45  65  88 114 146 185 225 260
#     4   9  17  29  45  65  89 116 146 181 221 265
#     4   9  18  32  49  69  92 117 146 182 224 269
#     4   9  17  30  47  65  85 109 139 177 217 252
#
# _framework density 16.182860000000002
#
# number of rings (size 3 to 8) (size 9 to 14) (size 15 to 20)
#    0.000    2.818    0.000    1.364    0.000    4.364 
#    0.000    5.455    0.000    1.636    0.000    2.545 
#    0.000   18.182    0.000    0.000    0.000    0.000 
#
# Total GULP energy -1091117.643563 kJ/mol
# GULP energy per Si atom -12399.064131 kJ/mol
# Density = 1.614603 g / cm^3
# Si number density = 16.182860 Si / 1000 Ang^3
#
#
#
# Elastic Constant Matrix: (Units=GPa)
#
#
# Indices 1 2 3 4 5 6 
#
# 1 88.8547 49.7130 56.3777 0.0000 0.0000 0.0000
# 2 49.7130 88.8547 56.3777 0.0000 0.0000 0.0000
# 3 56.3777 56.3777 96.1406 0.0000 0.0000 0.0000
# 4 0.0000 0.0000 0.0000 25.4674 0.0000 0.0000
# 5 0.0000 0.0000 0.0000 0.0000 25.4674 0.0000
# 6 0.0000 0.0000 0.0000 0.0000 0.0000 21.6009
#
#
#
# Elastic Compliance Matrix: (Units=1/GPa)
#
#
# Indices 1 2 3 4 5 6 
#
# 1 0.019676 -0.005872 -0.008094 0.000000 0.000000 0.000000
# 2 -0.005872 0.019676 -0.008094 0.000000 0.000000 0.000000
# 3 -0.008094 -0.008094 0.019895 0.000000 0.000000 0.000000
# 4 0.000000 0.000000 0.000000 0.039266 0.000000 0.000000
# 5 0.000000 0.000000 0.000000 0.000000 0.039266 0.000000
# 6 0.000000 0.000000 0.000000 0.000000 0.000000 0.046294
#
#
# Mechanical properties :
#
#
# Convention : Reuss Voigt Hill
#
# Bulk Modulus (GPa) = 66.12131 66.53187 66.32659
# Shear Modulus (GPa) = 21.43755 21.93258 21.68506
#
# Velocity S-wave (km/s) = 3.64360 3.68543 3.66457
# Velocity P-wave (km/s) = 7.65824 7.70141 7.67985
#
# Compressibility (1/GPa) = 0.01512372
#
# Stress axis : x y z
#
# Youngs Moduli (GPa) = 50.82415 50.82415 50.26485
#
# Poissons Ratio (x) = 0.29846 0.40686
# Poissons Ratio (y) = 0.29846 0.40686
# Poissons Ratio (z) = 0.41139 0.41139
#
# Static dielectric constant tensor:
#      x y z
#    x 2.993820 0.000000 0.000000 
#    y 0.000000 2.993820 0.000000 
#    z 0.000000 0.000000 3.248590 
# 
# 
# High freq. dielectric constant tensor:
#      x y z
#    x 1.612270 0.000000 0.000000 
#    y 0.000000 1.612270 0.000000 
#    z 0.000000 0.000000 1.632840 
# 
# From -- ./inp_files/7201.got.cif
#   From: 2010.03.12/outbox.cif.g09.slc.cpg/sg123_4_cif.got.tgz:7201.got - 2010.04.06 16:26:55.
