data_PCOD8312162
_publ_section_title
;
Structure prediction by ZEFSAII (Michael W. Deem and Ramdas Pophale) SiO2 
 PCOD8312162
Probable space group: P 4/M M M
;
_chemical_formula_sum "Si O2"
_cell_formula_units_Z 80
_cell_length_a 17.818185
_cell_length_b 17.818185
_cell_length_c 18.757576
_cell_angle_alpha 90.000000
_cell_angle_beta 90.000000
_cell_angle_gamma 90.000000
_cell_volume 5955.299975
_symmetry_space_group_name_H-M "P 4/M M M"
_symmetry_group_IT_number 123
_symmetry_cell_setting 'tetragonal'
loop_
_space_group_symop_operation_xyz
x,y,z
-y,x,z
-x,-y,z
y,-x,z
x,-y,-z
-x,y,-z
y,x,-z
-y,-x,-z
-x,-y,-z
y,-x,-z
x,y,-z
-y,x,-z
-x,y,z
x,-y,z
-y,-x,z
y,x,z
loop_
_atom_site_type_symbol
_atom_site_label
_atom_site_fract_x
_atom_site_fract_y
_atom_site_fract_z
Si Si1 0.415488 0.910256 0.000000
Si Si2 0.085822 0.796643 0.784209
Si Si3 0.352559 0.088123 0.146328
Si Si4 0.731916 0.852294 0.645011
Si Si5 0.912127 0.208874 0.500000
Si Si6 0.087932 0.415054 0.294828
O O1 0.377315 0.875782 0.928850
O O2 0.500000 0.881572 0.000000
O O3 0.412134 0.000000 0.000000
O O4 0.128753 0.871248 0.806528
O O5 0.119028 0.729061 0.831915
O O6 0.096467 0.776649 0.701272
O O7 0.000000 0.812288 0.800490
O O8 0.410538 0.106049 0.210321
O O9 0.347453 0.000000 0.135537
O O10 0.766933 0.766933 0.647851
O O11 0.742677 0.887769 0.567796
O O12 0.642713 0.857467 0.662697
O O13 0.871885 0.128116 0.500000
O O14 0.000000 0.193401 0.500000
O O15 0.104742 0.500000 0.320614
O O16 0.000000 0.394079 0.308022
#
# Coordination Sequence:
#
# PCOD8312162 Si02
#       6
#     8  16  16  16   8  16
#     4   9  14  20  33  52  69  83 102 131 169 214
#     4   9  16  26  38  50  66  91 123 157 189 219
#     4   8  14  23  34  50  71  91 111 139 178 219
#     4   9  17  28  40  53  72  98 124 151 188 232
#     4  10  18  27  39  53  71  97 128 162 196 226
#     4   9  15  24  39  57  76  97 121 150 183 221
#
# _framework density 13.433413
#
# number of rings (size 3 to 8) (size 9 to 14) (size 15 to 20)
#    0.000    3.100    0.000    3.600    0.000    2.700 
#    0.000    1.000    0.000    5.400    0.000    0.000 
#    0.000    4.400    0.000    0.000    0.000    5.800 
#
# Total GULP energy -991283.094060 kJ/mol
# GULP energy per Si atom -12391.038676 kJ/mol
# Density = 1.340284 g / cm^3
# Si number density = 13.433413 Si / 1000 Ang^3
#
#
#
# Elastic Constant Matrix: (Units=GPa)
#
#
# Indices 1 2 3 4 5 6 
#
# 1 75.3393 39.1512 34.5091 0.0000 0.0000 0.0000
# 2 39.1512 75.3393 34.5093 0.0000 0.0000 0.0000
# 3 34.5091 34.5093 97.8908 0.0000 0.0000 0.0000
# 4 0.0000 0.0000 0.0000 10.3778 0.0000 0.0000
# 5 0.0000 0.0000 0.0000 0.0000 10.3780 0.0000
# 6 0.0000 0.0000 0.0000 0.0000 0.0000 11.1338
#
#
#
# Elastic Compliance Matrix: (Units=1/GPa)
#
#
# Indices 1 2 3 4 5 6 
#
# 1 0.019362 -0.008271 -0.003910 0.000000 0.000000 0.000000
# 2 -0.008271 0.019362 -0.003910 0.000000 0.000000 0.000000
# 3 -0.003910 -0.003910 0.012972 0.000000 0.000000 0.000000
# 4 0.000000 0.000000 0.000000 0.096359 0.000000 0.000000
# 5 0.000000 0.000000 0.000000 0.000000 0.096358 0.000000
# 6 0.000000 0.000000 0.000000 0.000000 0.000000 0.089816
#
#
# Mechanical properties :
#
#
# Convention : Reuss Voigt Hill
#
# Bulk Modulus (GPa) = 51.24266 51.65650 51.44958
# Shear Modulus (GPa) = 13.40777 15.73790 14.57284
#
# Velocity S-wave (km/s) = 3.16269 3.42650 3.29723
# Velocity P-wave (km/s) = 7.18090 7.36151 7.27176
#
# Compressibility (1/GPa) = 0.01951499
#
# Stress axis : x y z
#
# Youngs Moduli (GPa) = 51.64649 51.64644 77.08755
#
# Poissons Ratio (x) = 0.42717 0.30141
# Poissons Ratio (y) = 0.42717 0.30142
# Poissons Ratio (z) = 0.20194 0.20194
#
# Static dielectric constant tensor:
#      x y z
#    x 2.544140 0.000000 0.000000 
#    y 0.000000 2.544140 0.000000 
#    z 0.000000 0.000000 2.894720 
# 
# 
# High freq. dielectric constant tensor:
#      x y z
#    x 1.481790 0.000000 0.000000 
#    y 0.000000 1.481790 0.000000 
#    z 0.000000 0.000000 1.516750 
# 
# From -- ./inp_files/5384.got.cif
#   From: 2010.03.12/outbox.cif.g09.slc.cpg/sg123_3_cif.got.tgz:5384.got - 2010.04.06 16:26:55.
