data_PCOD8312959
_publ_section_title
;
Structure prediction by ZEFSAII (Michael W. Deem and Ramdas Pophale) SiO2 
 PCOD8312959
Probable space group: P 4/M M M
;
_chemical_formula_sum "Si O2"
_cell_formula_units_Z 88
_cell_length_a 17.835947
_cell_length_b 17.835947
_cell_length_c 14.291649
_cell_angle_alpha 90.000000
_cell_angle_beta 90.000000
_cell_angle_gamma 90.000000
_cell_volume 4546.473749
_symmetry_space_group_name_H-M "P 4/M M M"
_symmetry_group_IT_number 123
_symmetry_cell_setting 'tetragonal'
loop_
_space_group_symop_operation_xyz
x,y,z
-y,x,z
-x,-y,z
y,-x,z
x,-y,-z
-x,y,-z
y,x,-z
-y,-x,-z
-x,-y,-z
y,-x,-z
x,y,-z
-y,x,-z
-x,y,z
x,-y,z
-y,-x,z
y,x,z
loop_
_atom_site_type_symbol
_atom_site_label
_atom_site_fract_x
_atom_site_fract_y
_atom_site_fract_z
Si Si1 0.584345 0.708677 0.296261
Si Si2 0.664157 0.149818 0.389077
Si Si3 0.000000 0.417159 0.388908
Si Si4 0.627628 0.752740 0.101642
Si Si5 0.798233 0.083264 0.290518
Si Si6 0.745199 0.870768 0.102214
O O1 0.500000 0.695771 0.336050
O O2 0.632688 0.632688 0.309329
O O3 0.625234 0.775756 0.350355
O O4 0.573853 0.731150 0.187292
O O5 0.664656 0.156463 0.500000
O O6 0.748475 0.140696 0.351727
O O7 0.622327 0.075212 0.352522
O O8 0.000000 0.500000 0.346523
O O9 0.000000 0.418295 0.500000
O O10 0.695880 0.695880 0.100855
O O11 0.662182 0.835780 0.116910
O O12 0.585778 0.749324 0.000000
O O13 0.881572 0.118429 0.287223
O O14 0.763805 0.072873 0.186293
O O15 0.802462 0.000000 0.335468
O O16 0.804003 0.804003 0.107041
O O17 0.749474 0.910890 0.000000
#
# Coordination Sequence:
#
# PCOD8312959 Si02
#       6
#    16  16   8  16  16  16
#     4  11  23  38  58  85 117 155 197 238 283 338
#     4  11  22  39  61  86 112 142 186 239 295 349
#     4   9  18  34  58  86 112 136 168 221 290 352
#     4   8  14  28  52  80 109 141 181 231 282 331
#     4  11  22  36  56  83 115 151 192 235 282 340
#     4   8  14  28  52  79 107 141 183 231 279 329
#
# _framework density 19.355658999999999
#
# number of rings (size 3 to 8) (size 9 to 14) (size 15 to 20)
#    0.000    2.273    2.727    2.182    0.000    3.636 
#    0.000    0.000    0.000    0.000    0.000    7.636 
#    0.000    5.818    0.000    0.000    0.000    0.000 
#
# Total GULP energy -1090381.360000 kJ/mol
# GULP energy per Si atom -12390.697273 kJ/mol
# Density = 1.931161 g / cm^3
# Si number density = 19.355659 Si / 1000 Ang^3
#
#
#
# Elastic Constant Matrix: (Units=GPa)
#
#
# Indices 1 2 3 4 5 6 
#
# 1 99.8357 51.0209 32.5022 0.0000 0.0000 0.0000
# 2 51.0209 99.8357 32.5022 0.0000 0.0000 0.0000
# 3 32.5022 32.5022 86.5845 0.0000 0.0000 0.0000
# 4 0.0000 0.0000 0.0000 16.8620 0.0000 0.0000
# 5 0.0000 0.0000 0.0000 0.0000 16.8620 0.0000
# 6 0.0000 0.0000 0.0000 0.0000 0.0000 19.5468
#
#
#
# Elastic Compliance Matrix: (Units=1/GPa)
#
#
# Indices 1 2 3 4 5 6 
#
# 1 0.014197 -0.006289 -0.002968 0.000000 0.000000 0.000000
# 2 -0.006289 0.014197 -0.002968 0.000000 0.000000 0.000000
# 3 -0.002968 -0.002968 0.013778 0.000000 0.000000 0.000000
# 4 0.000000 0.000000 0.000000 0.059305 0.000000 0.000000
# 5 0.000000 0.000000 0.000000 0.000000 0.059305 0.000000
# 6 0.000000 0.000000 0.000000 0.000000 0.000000 0.051159
#
#
# Mechanical properties :
#
#
# Convention : Reuss Voigt Hill
#
# Bulk Modulus (GPa) = 56.43354 57.58960 57.01157
# Shear Modulus (GPa) = 20.63565 22.00287 21.31926
#
# Velocity S-wave (km/s) = 3.26871 3.37525 3.32241
# Velocity P-wave (km/s) = 6.59282 6.70878 6.65106
#
# Compressibility (1/GPa) = 0.01771996
#
# Stress axis : x y z
#
# Youngs Moduli (GPa) = 70.43862 70.43862 72.57929
#
# Poissons Ratio (x) = 0.44298 0.21545
# Poissons Ratio (y) = 0.44298 0.21545
# Poissons Ratio (z) = 0.20910 0.20910
#
# Static dielectric constant tensor:
#      x y z
#    x 3.332330 0.000000 0.000000 
#    y 0.000000 3.332330 0.000000 
#    z 0.000000 0.000000 3.787140 
# 
# 
# High freq. dielectric constant tensor:
#      x y z
#    x 1.734110 0.000000 0.000000 
#    y 0.000000 1.734110 0.000000 
#    z 0.000000 0.000000 1.754280 
# 
# From -- ./inp_files/4112.got.cif
#   From: 2010.03.12/outbox.cif.g09.slc.cpg/sg123_3_cif.got.tgz:4112.got - 2010.04.06 16:26:55.
