data_PCOD8312795
_publ_section_title
;
Structure prediction by ZEFSAII (Michael W. Deem and Ramdas Pophale) SiO2 
 PCOD8312795
Probable space group: P 4/M M M
;
_chemical_formula_sum "Si O2"
_cell_formula_units_Z 120
_cell_length_a 17.140860
_cell_length_b 17.140860
_cell_length_c 25.100900
_cell_angle_alpha 90.000000
_cell_angle_beta 90.000000
_cell_angle_gamma 90.000000
_cell_volume 7374.872375
_symmetry_space_group_name_H-M "P 4/M M M"
_symmetry_group_IT_number 123
_symmetry_cell_setting 'tetragonal'
loop_
_space_group_symop_operation_xyz
x,y,z
-y,x,z
-x,-y,z
y,-x,z
x,-y,-z
-x,y,-z
y,x,-z
-y,-x,-z
-x,-y,-z
y,-x,-z
x,y,-z
-y,x,-z
-x,y,z
x,-y,z
-y,-x,z
y,x,z
loop_
_atom_site_type_symbol
_atom_site_label
_atom_site_fract_x
_atom_site_fract_y
_atom_site_fract_z
Si Si1 0.834242 0.296255 0.846253
Si Si2 0.408556 0.276858 0.500000
Si Si3 0.589241 0.715645 0.814859
Si Si4 0.911633 0.214307 0.755438
Si Si5 0.663744 0.205954 0.601177
Si Si6 0.782588 0.090112 0.367424
Si Si7 0.411929 0.286542 0.308060
Si Si8 0.783457 0.910502 0.060382
O O1 0.765916 0.234085 0.841889
O O2 0.792220 0.380657 0.846543
O O3 0.889278 0.285890 0.794464
O O4 0.883010 0.285982 0.900658
O O5 0.500000 0.300748 0.500000
O O6 0.355762 0.355762 0.500000
O O7 0.390435 0.221543 0.449710
O O8 0.500000 0.699388 0.830417
O O9 0.637752 0.637752 0.829449
O O10 0.600382 0.737222 0.752975
O O11 0.861333 0.138668 0.770241
O O12 0.898837 0.239709 0.694528
O O13 0.000000 0.189647 0.765989
O O14 0.732111 0.267890 0.603489
O O15 0.707193 0.121828 0.599762
O O16 0.612088 0.213715 0.654734
O O17 0.861454 0.138547 0.380942
O O18 0.797452 0.000000 0.382620
O O19 0.500000 0.310873 0.319744
O O20 0.362119 0.362119 0.323831
O O21 0.861885 0.861885 0.071905
O O22 0.804514 0.000000 0.071585
O O23 0.753972 0.897835 0.000000
#
# Coordination Sequence:
#
# PCOD8312795 Si02
#       8
#    16   8  16  16  16  16  16  16
#     4   9  16  27  42  60  85 116 150 182 210 251
#     4  10  20  33  51  73  94 118 146 176 210 246
#     4   9  17  28  44  66  88 111 139 173 217 265
#     4   9  16  25  40  63  89 118 149 181 219 258
#     4   9  17  30  46  64  88 119 152 179 207 251
#     4   9  17  29  46  67  89 113 143 181 224 267
#     4   9  16  26  42  64  90 118 145 175 211 252
#     4   9  17  28  43  64  89 118 150 182 215 247
#
# _framework density 16.271467999999999
#
# number of rings (size 3 to 8) (size 9 to 14) (size 15 to 20)
#    0.000    2.933    0.000    1.600    0.000    3.933 
#    0.000    3.667    0.000    8.800    0.000    8.400 
#    0.000    2.667    0.000    5.200    0.000    0.133 
#
# Total GULP energy -1487365.654466 kJ/mol
# GULP energy per Si atom -12394.713787 kJ/mol
# Density = 1.623443 g / cm^3
# Si number density = 16.271468 Si / 1000 Ang^3
#
#
#
# Elastic Constant Matrix: (Units=GPa)
#
#
# Indices 1 2 3 4 5 6 
#
# 1 81.7522 65.3778 41.1856 0.0000 0.0000 0.0000
# 2 65.3778 81.7522 41.1856 0.0000 0.0000 0.0000
# 3 41.1856 41.1856 56.9152 0.0000 0.0000 0.0000
# 4 0.0000 0.0000 0.0000 19.9254 0.0000 0.0000
# 5 0.0000 0.0000 0.0000 0.0000 19.9254 0.0000
# 6 0.0000 0.0000 0.0000 0.0000 0.0000 18.8413
#
#
#
# Elastic Compliance Matrix: (Units=1/GPa)
#
#
# Indices 1 2 3 4 5 6 
#
# 1 0.036248 -0.024823 -0.008268 0.000000 0.000000 0.000000
# 2 -0.024823 0.036248 -0.008268 0.000000 0.000000 0.000000
# 3 -0.008268 -0.008268 0.029536 0.000000 0.000000 0.000000
# 4 0.000000 0.000000 0.000000 0.050187 0.000000 0.000000
# 5 0.000000 0.000000 0.000000 0.000000 0.050187 0.000000
# 6 0.000000 0.000000 0.000000 0.000000 0.000000 0.053075
#
#
# Mechanical properties :
#
#
# Convention : Reuss Voigt Hill
#
# Bulk Modulus (GPa) = 51.77230 57.32419 54.54824
# Shear Modulus (GPa) = 14.50803 16.58314 15.54558
#
# Velocity S-wave (km/s) = 2.98925 3.19588 3.09429
# Velocity P-wave (km/s) = 6.61824 6.99461 6.80902
#
# Compressibility (1/GPa) = 0.01931535
#
# Stress axis : x y z
#
# Youngs Moduli (GPa) = 27.58754 27.58754 33.85735
#
# Poissons Ratio (x) = 0.68480 0.27993
# Poissons Ratio (y) = 0.68480 0.27993
# Poissons Ratio (z) = 0.22809 0.22809
#
# Static dielectric constant tensor:
#      x y z
#    x 3.028040 0.000000 0.000000 
#    y 0.000000 3.028040 0.000000 
#    z 0.000000 0.000000 3.163260 
# 
# 
# High freq. dielectric constant tensor:
#      x y z
#    x 1.609060 0.000000 0.000000 
#    y 0.000000 1.609060 0.000000 
#    z 0.000000 0.000000 1.616070 
# 
# From -- ./inp_files/7639.got.cif
#   From: 2010.03.12/outbox.cif.g09.slc.cpg/sg123_4_cif.got.tgz:7639.got - 2010.04.06 16:26:55.
