data_PCOD8312886
_publ_section_title
;
Structure prediction by ZEFSAII (Michael W. Deem and Ramdas Pophale) SiO2 
 PCOD8312886
Probable space group: P 4/M M M
;
_chemical_formula_sum "Si O2"
_cell_formula_units_Z 88
_cell_length_a 13.333044
_cell_length_b 13.333044
_cell_length_c 27.776966
_cell_angle_alpha 90.000000
_cell_angle_beta 90.000000
_cell_angle_gamma 90.000000
_cell_volume 4937.912976
_symmetry_space_group_name_H-M "P 4/M M M"
_symmetry_group_IT_number 123
_symmetry_cell_setting 'tetragonal'
loop_
_space_group_symop_operation_xyz
x,y,z
-y,x,z
-x,-y,z
y,-x,z
x,-y,-z
-x,y,-z
y,x,-z
-y,-x,-z
-x,-y,-z
y,-x,-z
x,y,-z
-y,x,-z
-x,y,z
x,-y,z
-y,-x,z
y,x,z
loop_
_atom_site_type_symbol
_atom_site_label
_atom_site_fract_x
_atom_site_fract_y
_atom_site_fract_z
Si Si1 0.277255 0.884514 0.171368
Si Si2 0.779214 0.614510 0.636846
Si Si3 0.117274 0.281849 0.000000
Si Si4 0.616842 0.219243 0.911942
Si Si5 0.277160 0.884995 0.554708
Si Si6 0.276622 0.885370 0.718719
O O1 0.171631 0.828370 0.162259
O O2 0.363541 0.835155 0.138912
O O3 0.313092 0.872485 0.226384
O O4 0.260345 0.000000 0.157352
O O5 0.746479 0.500000 0.636839
O O6 0.677697 0.677697 0.636398
O O7 0.845509 0.635968 0.589603
O O8 0.844049 0.636142 0.684538
O O9 0.144198 0.347190 0.953429
O O10 0.176833 0.176833 0.000000
O O11 0.000000 0.256530 0.000000
O O12 0.500000 0.243194 0.917428
O O13 0.675420 0.324581 0.915541
O O14 0.314604 0.869777 0.500000
O O15 0.174470 0.825531 0.564763
O O16 0.253491 0.000000 0.566099
O O17 0.173817 0.826184 0.708772
O O18 0.253700 0.000000 0.706143
#
# Coordination Sequence:
#
# PCOD8312886 Si02
#       6
#    16  16   8  16  16  16
#     4   9  18  32  50  74 103 133 165 200 239 287
#     4  10  21  36  52  70  94 124 161 206 250 291
#     4  10  21  36  54  78 106 134 165 200 240 290
#     4  10  21  36  53  74 100 130 167 210 252 294
#     4   9  18  32  50  74 103 132 161 193 231 279
#     4   9  18  32  50  74 103 132 162 197 238 287
#
# _framework density 17.821294000000002
#
# number of rings (size 3 to 8) (size 9 to 14) (size 15 to 20)
#    0.000    2.545    0.000    1.364    0.000    5.364 
#    0.000    5.455    0.000    8.182    0.000    7.636 
#    0.000    0.000    0.000    0.000    0.000    0.000 
#
# Total GULP energy -1091379.313035 kJ/mol
# GULP energy per Si atom -12402.037648 kJ/mol
# Density = 1.778073 g / cm^3
# Si number density = 17.821294 Si / 1000 Ang^3
#
#
#
# Elastic Constant Matrix: (Units=GPa)
#
#
# Indices 1 2 3 4 5 6 
#
# 1 128.4422 47.5982 55.7453 0.0000 0.0000 0.0000
# 2 47.5982 128.4422 55.7453 0.0000 0.0000 0.0000
# 3 55.7453 55.7453 105.1201 0.0000 0.0000 0.0000
# 4 0.0000 0.0000 0.0000 21.3664 0.0000 0.0000
# 5 0.0000 0.0000 0.0000 0.0000 21.3664 0.0000
# 6 0.0000 0.0000 0.0000 0.0000 0.0000 10.7151
#
#
#
# Elastic Compliance Matrix: (Units=1/GPa)
#
#
# Indices 1 2 3 4 5 6 
#
# 1 0.010461 -0.001908 -0.004536 0.000000 0.000000 0.000000
# 2 -0.001908 0.010461 -0.004536 0.000000 0.000000 0.000000
# 3 -0.004536 -0.004536 0.014324 0.000000 0.000000 0.000000
# 4 0.000000 0.000000 0.000000 0.046802 0.000000 0.000000
# 5 0.000000 0.000000 0.000000 0.000000 0.046802 0.000000
# 6 0.000000 0.000000 0.000000 0.000000 0.000000 0.093326
#
#
# Mechanical properties :
#
#
# Convention : Reuss Voigt Hill
#
# Bulk Modulus (GPa) = 75.26241 75.57579 75.41910
# Shear Modulus (GPa) = 20.11546 24.21732 22.16639
#
# Velocity S-wave (km/s) = 3.36331 3.69032 3.53060
# Velocity P-wave (km/s) = 7.57666 7.78830 7.68321
#
# Compressibility (1/GPa) = 0.01328684
#
# Stress axis : x y z
#
# Youngs Moduli (GPa) = 95.59045 95.59045 69.81526
#
# Poissons Ratio (x) = 0.18241 0.31666
# Poissons Ratio (y) = 0.18241 0.31666
# Poissons Ratio (z) = 0.43357 0.43357
#
# Static dielectric constant tensor:
#      x y z
#    x 3.127960 0.000000 0.000000 
#    y 0.000000 3.127960 0.000000 
#    z 0.000000 0.000000 3.589300 
# 
# 
# High freq. dielectric constant tensor:
#      x y z
#    x 1.678980 0.000000 0.000000 
#    y 0.000000 1.678980 0.000000 
#    z 0.000000 0.000000 1.709580 
# 
# From -- ./inp_files/8478.got.cif
#   From: 2010.03.12/outbox.cif.g09.slc.cpg/sg123_5_cif.got.tgz:8478.got - 2010.04.06 16:26:55.
