data_PCOD8312411
_publ_section_title
;
Structure prediction by ZEFSAII (Michael W. Deem and Ramdas Pophale) SiO2 
 PCOD8312411
Probable space group: P 4/M M M
;
_chemical_formula_sum "Si O2"
_cell_formula_units_Z 88
_cell_length_a 14.043310
_cell_length_b 14.043310
_cell_length_c 28.117802
_cell_angle_alpha 90.000000
_cell_angle_beta 90.000000
_cell_angle_gamma 90.000000
_cell_volume 5545.239830
_symmetry_space_group_name_H-M "P 4/M M M"
_symmetry_group_IT_number 123
_symmetry_cell_setting 'tetragonal'
loop_
_space_group_symop_operation_xyz
x,y,z
-y,x,z
-x,-y,z
y,-x,z
x,-y,-z
-x,y,-z
y,x,-z
-y,-x,-z
-x,-y,-z
y,-x,-z
x,y,-z
-y,x,-z
-x,y,z
x,-y,z
-y,-x,z
y,x,z
loop_
_atom_site_type_symbol
_atom_site_label
_atom_site_fract_x
_atom_site_fract_y
_atom_site_fract_z
Si Si1 0.391224 0.109205 0.819505
Si Si2 0.890596 0.737327 0.553112
Si Si3 0.111718 0.732205 0.911159
Si Si4 0.112703 0.393077 0.000000
Si Si5 0.388483 0.765891 0.728750
Si Si6 0.108899 0.389098 0.640042
O O1 0.500000 0.127741 0.835584
O O2 0.322448 0.135274 0.862691
O O3 0.362371 0.174134 0.775314
O O4 0.378318 0.000000 0.803690
O O5 0.872181 0.696081 0.500000
O O6 0.834205 0.834205 0.561679
O O7 0.856833 0.659541 0.591267
O O8 0.000000 0.764096 0.560466
O O9 0.168891 0.831110 0.912799
O O10 0.146949 0.663992 0.953603
O O11 0.000000 0.756746 0.915814
O O12 0.156857 0.500000 0.000000
O O13 0.000000 0.401867 0.000000
O O14 0.500000 0.743111 0.726158
O O15 0.333939 0.666062 0.729990
O O16 0.353693 0.826310 0.683424
O O17 0.121572 0.500000 0.631532
O O18 0.000000 0.363303 0.652493
#
# Coordination Sequence:
#
# PCOD8312411 Si02
#       6
#    16  16  16   8  16  16
#     4   9  17  30  48  68  88 111 143 184 224 255
#     4   9  17  28  42  61  85 112 140 170 205 247
#     4  10  19  30  45  66  93 122 149 177 211 256
#     4   9  17  30  47  65  85 111 145 185 223 250
#     4  10  19  30  45  64  87 114 142 174 213 258
#     4   9  17  29  45  64  84 107 138 176 216 254
#
# _framework density 15.869465999999999
#
# number of rings (size 3 to 8) (size 9 to 14) (size 15 to 20)
#    0.000    2.636    0.000    2.455    0.000    5.273 
#    0.000    2.727    0.000    1.636    0.000    0.000 
#    0.000   26.909    0.000   16.909    0.000    0.364 
#
# Total GULP energy -1091162.177965 kJ/mol
# GULP energy per Si atom -12399.570204 kJ/mol
# Density = 1.583335 g / cm^3
# Si number density = 15.869466 Si / 1000 Ang^3
#
#
#
# Elastic Constant Matrix: (Units=GPa)
#
#
# Indices 1 2 3 4 5 6 
#
# 1 72.1969 50.7423 58.3058 0.0000 0.0000 0.0000
# 2 50.7423 72.1969 58.3058 0.0000 0.0000 0.0000
# 3 58.3058 58.3058 131.1924 0.0000 0.0000 0.0000
# 4 0.0000 0.0000 0.0000 21.3406 0.0000 0.0000
# 5 0.0000 0.0000 0.0000 0.0000 21.3406 0.0000
# 6 0.0000 0.0000 0.0000 0.0000 0.0000 27.5661
#
#
#
# Elastic Compliance Matrix: (Units=1/GPa)
#
#
# Indices 1 2 3 4 5 6 
#
# 1 0.030336 -0.016274 -0.006250 0.000000 0.000000 0.000000
# 2 -0.016274 0.030336 -0.006250 0.000000 0.000000 0.000000
# 3 -0.006250 -0.006250 0.013177 0.000000 0.000000 0.000000
# 4 0.000000 0.000000 0.000000 0.046859 0.000000 0.000000
# 5 0.000000 0.000000 0.000000 0.000000 0.046859 0.000000
# 6 0.000000 0.000000 0.000000 0.000000 0.000000 0.036276
#
#
# Mechanical properties :
#
#
# Convention : Reuss Voigt Hill
#
# Bulk Modulus (GPa) = 61.33801 67.81046 64.57424
# Shear Modulus (GPa) = 18.73891 21.26497 20.00194
#
# Velocity S-wave (km/s) = 3.44003 3.66456 3.55407
# Velocity P-wave (km/s) = 7.38335 7.79283 7.59085
#
# Compressibility (1/GPa) = 0.01630311
#
# Stress axis : x y z
#
# Youngs Moduli (GPa) = 32.96407 32.96407 75.88761
#
# Poissons Ratio (x) = 0.53646 0.47427
# Poissons Ratio (y) = 0.53646 0.47427
# Poissons Ratio (z) = 0.20601 0.20601
#
# Static dielectric constant tensor:
#      x y z
#    x 2.886080 0.000000 0.000000 
#    y 0.000000 2.886080 0.000000 
#    z 0.000000 0.000000 3.228270 
# 
# 
# High freq. dielectric constant tensor:
#      x y z
#    x 1.595970 0.000000 0.000000 
#    y 0.000000 1.595970 0.000000 
#    z 0.000000 0.000000 1.626040 
# 
# From -- ./inp_files/7989.got.cif
#   From: 2010.03.12/outbox.cif.g09.slc.cpg/sg123_4_cif.got.tgz:7989.got - 2010.04.06 16:26:55.
