data_PCOD8312495
_publ_section_title
;
Structure prediction by ZEFSAII (Michael W. Deem and Ramdas Pophale) SiO2 
 PCOD8312495
Probable space group: P 4/M M M
;
_chemical_formula_sum "Si O2"
_cell_formula_units_Z 96
_cell_length_a 24.124682
_cell_length_b 24.124682
_cell_length_c 9.646093
_cell_angle_alpha 90.000000
_cell_angle_beta 90.000000
_cell_angle_gamma 90.000000
_cell_volume 5614.028842
_symmetry_space_group_name_H-M "P 4/M M M"
_symmetry_group_IT_number 123
_symmetry_cell_setting 'tetragonal'
loop_
_space_group_symop_operation_xyz
x,y,z
-y,x,z
-x,-y,z
y,-x,z
x,-y,-z
-x,y,-z
y,x,-z
-y,-x,-z
-x,-y,-z
y,-x,-z
x,y,-z
-y,x,-z
-x,y,z
x,-y,z
-y,-x,z
y,x,z
loop_
_atom_site_type_symbol
_atom_site_label
_atom_site_fract_x
_atom_site_fract_y
_atom_site_fract_z
Si Si1 0.062933 0.746688 0.341529
Si Si2 0.351014 0.147955 0.338030
Si Si3 0.151053 0.937223 0.159259
Si Si4 0.350411 0.741170 0.160783
Si Si5 0.437751 0.060863 0.664838
Si Si6 0.562594 0.349682 0.164688
O O1 0.065103 0.765788 0.500000
O O2 0.107382 0.699857 0.311024
O O3 0.082747 0.797402 0.248758
O O4 0.000000 0.727207 0.303758
O O5 0.357152 0.163182 0.500000
O O6 0.345182 0.204235 0.253012
O O7 0.402713 0.112603 0.278531
O O8 0.098074 0.901927 0.202080
O O9 0.134966 0.000000 0.193101
O O10 0.167669 0.928847 0.000000
O O11 0.295881 0.704119 0.184692
O O12 0.404716 0.706233 0.208176
O O13 0.355434 0.758245 0.000000
O O14 0.433703 0.060762 0.500000
O O15 0.500000 0.070379 0.716698
O O16 0.416741 0.000000 0.717190
O O17 0.500000 0.349198 0.226650
O O18 0.596282 0.403719 0.220167
O O19 0.560495 0.352607 0.000000
#
# Coordination Sequence:
#
# PCOD8312495 Si02
#       6
#    16  16  16  16  16  16
#     4   9  18  32  48  66  90 118 147 185 232 273
#     4  10  19  30  48  72  92 115 154 196 227 262
#     4   9  18  32  49  69  92 117 146 181 222 270
#     4   9  19  34  47  62  91 128 157 182 222 275
#     4   8  14  26  45  69  96 122 147 181 227 274
#     4   8  14  26  45  68  93 121 153 189 228 269
#
# _framework density 17.100020000000001
#
# number of rings (size 3 to 8) (size 9 to 14) (size 15 to 20)
#    0.000    3.167    0.000    2.000    0.000    5.000 
#    0.000    5.000    0.000    1.500    0.000    3.500 
#    0.000    0.000    0.000    3.667    0.000    3.667 
#
# Total GULP energy -1189758.494954 kJ/mol
# GULP energy per Si atom -12393.317656 kJ/mol
# Density = 1.706110 g / cm^3
# Si number density = 17.100020 Si / 1000 Ang^3
#
#
#
# Elastic Constant Matrix: (Units=GPa)
#
#
# Indices 1 2 3 4 5 6 
#
# 1 126.6365 70.7578 49.3554 0.0000 0.0000 0.0000
# 2 70.7578 126.6365 49.3554 0.0000 0.0000 0.0000
# 3 49.3554 49.3554 42.3152 0.0000 0.0000 0.0000
# 4 0.0000 0.0000 0.0000 20.7883 0.0000 0.0000
# 5 0.0000 0.0000 0.0000 0.0000 20.7883 0.0000
# 6 0.0000 0.0000 0.0000 0.0000 0.0000 37.1901
#
#
#
# Elastic Compliance Matrix: (Units=1/GPa)
#
#
# Indices 1 2 3 4 5 6 
#
# 1 0.015026 -0.002870 -0.014179 0.000000 0.000000 0.000000
# 2 -0.002870 0.015026 -0.014179 0.000000 0.000000 0.000000
# 3 -0.014179 -0.014179 0.056708 0.000000 0.000000 0.000000
# 4 0.000000 0.000000 0.000000 0.048104 0.000000 0.000000
# 5 0.000000 0.000000 0.000000 0.000000 0.048104 0.000000
# 6 0.000000 0.000000 0.000000 0.000000 0.000000 0.026889
#
#
# Mechanical properties :
#
#
# Convention : Reuss Voigt Hill
#
# Bulk Modulus (GPa) = 41.14355 70.50283 55.82319
# Shear Modulus (GPa) = 17.83071 24.16129 20.99600
#
# Velocity S-wave (km/s) = 3.23264 3.76299 3.50785
# Velocity P-wave (km/s) = 6.16815 7.75882 7.00875
#
# Compressibility (1/GPa) = 0.02430515
#
# Stress axis : x y z
#
# Youngs Moduli (GPa) = 66.55034 66.55034 17.63410
#
# Poissons Ratio (x) = 0.19098 0.25003
# Poissons Ratio (y) = 0.19098 0.25003
# Poissons Ratio (z) = 0.94362 0.94362
#
# Static dielectric constant tensor:
#      x y z
#    x 3.387240 0.000000 0.000000 
#    y 0.000000 3.387240 0.000000 
#    z 0.000000 0.000000 2.856240 
# 
# 
# High freq. dielectric constant tensor:
#      x y z
#    x 1.665450 0.000000 0.000000 
#    y 0.000000 1.665450 0.000000 
#    z 0.000000 0.000000 1.619050 
# 
# From -- ./inp_files/1600.got.cif
#   From: 2010.03.12/outbox.cif.g09.slc.cpg/sg123_1_cif.got.tgz:1600.got - 2010.04.06 16:26:55.
