data_PCOD8312380
_publ_section_title
;
Structure prediction by ZEFSAII (Michael W. Deem and Ramdas Pophale) SiO2 
 PCOD8312380
Probable space group: P 4/M M M
;
_chemical_formula_sum "Si O2"
_cell_formula_units_Z 112
_cell_length_a 20.329583
_cell_length_b 20.329583
_cell_length_c 17.894001
_cell_angle_alpha 90.000000
_cell_angle_beta 90.000000
_cell_angle_gamma 90.000000
_cell_volume 7395.446476
_symmetry_space_group_name_H-M "P 4/M M M"
_symmetry_group_IT_number 123
_symmetry_cell_setting 'tetragonal'
loop_
_space_group_symop_operation_xyz
x,y,z
-y,x,z
-x,-y,z
y,-x,z
x,-y,-z
-x,y,-z
y,x,-z
-y,-x,-z
-x,-y,-z
y,-x,-z
x,y,-z
-y,x,-z
-x,y,z
x,-y,z
-y,-x,z
y,x,z
loop_
_atom_site_type_symbol
_atom_site_label
_atom_site_fract_x
_atom_site_fract_y
_atom_site_fract_z
Si Si1 0.073570 0.181260 0.833823
Si Si2 0.675876 0.779919 0.777325
Si Si3 0.189017 0.423457 0.660298
Si Si4 0.427142 0.323644 0.412323
Si Si5 0.162736 0.726840 0.082910
Si Si6 0.771447 0.126394 0.314710
Si Si7 0.660463 0.924063 0.587319
O O1 0.118593 0.118593 0.850767
O O2 0.095169 0.243269 0.884801
O O3 0.075635 0.200626 0.746356
O O4 0.000000 0.162171 0.856046
O O5 0.705229 0.705229 0.778524
O O6 0.604135 0.785949 0.740348
O O7 0.670811 0.809107 0.861477
O O8 0.724134 0.823749 0.728023
O O9 0.174935 0.500000 0.669923
O O10 0.248187 0.407665 0.603145
O O11 0.121975 0.391609 0.629822
O O12 0.428041 0.333751 0.500000
O O13 0.500000 0.338778 0.379085
O O14 0.374025 0.374025 0.376297
O O15 0.214728 0.785273 0.081328
O O16 0.151585 0.697088 0.000000
O O17 0.831607 0.168394 0.350380
O O18 0.733539 0.088277 0.380385
O O19 0.660648 0.906755 0.500000
O O20 0.640438 0.000000 0.600754
#
# Coordination Sequence:
#
# PCOD8312380 Si02
#       7
#    16  16  16  16  16  16  16
#     4   9  16  25  38  56  80 109 135 160 192 233
#     4   8  14  26  44  63  80  99 127 164 202 238
#     4  10  19  30  43  59  82 111 142 173 207 250
#     4   9  17  28  42  61  85 113 144 176 209 247
#     4   8  14  25  41  60  79  99 127 163 201 240
#     4   8  15  28  44  61  79  99 127 166 210 248
#     4  10  20  31  43  60  81 106 138 176 215 255
#
# _framework density 15.144455000000001
#
# number of rings (size 3 to 8) (size 9 to 14) (size 15 to 20)
#    0.000    3.143    0.000    3.000    0.000    2.571 
#    0.000    1.429    0.000    0.429    0.000    2.000 
#    0.000    0.000    0.000   23.714    0.000    0.286 
#
# Total GULP energy -1387945.431732 kJ/mol
# GULP energy per Si atom -12392.369926 kJ/mol
# Density = 1.510999 g / cm^3
# Si number density = 15.144455 Si / 1000 Ang^3
#
#
#
# Elastic Constant Matrix: (Units=GPa)
#
#
# Indices 1 2 3 4 5 6 
#
# 1 71.2562 30.2260 37.6871 0.0000 0.0000 0.0000
# 2 30.2260 71.2562 37.6871 0.0000 0.0000 0.0000
# 3 37.6871 37.6871 84.6258 0.0000 0.0000 0.0000
# 4 0.0000 0.0000 0.0000 13.6440 0.0000 0.0000
# 5 0.0000 0.0000 0.0000 0.0000 13.6440 0.0000
# 6 0.0000 0.0000 0.0000 0.0000 0.0000 16.7036
#
#
#
# Elastic Compliance Matrix: (Units=1/GPa)
#
#
# Indices 1 2 3 4 5 6 
#
# 1 0.019548 -0.004824 -0.006557 0.000000 0.000000 0.000000
# 2 -0.004824 0.019548 -0.006557 0.000000 0.000000 0.000000
# 3 -0.006557 -0.006557 0.017657 0.000000 0.000000 0.000000
# 4 0.000000 0.000000 0.000000 0.073292 0.000000 0.000000
# 5 0.000000 0.000000 0.000000 0.000000 0.073292 0.000000
# 6 0.000000 0.000000 0.000000 0.000000 0.000000 0.059867
#
#
# Mechanical properties :
#
#
# Convention : Reuss Voigt Hill
#
# Bulk Modulus (GPa) = 47.90065 48.70429 48.30247
# Shear Modulus (GPa) = 16.33764 16.90085 16.61924
#
# Velocity S-wave (km/s) = 3.28805 3.34425 3.31627
# Velocity P-wave (km/s) = 6.79065 6.86598 6.82841
#
# Compressibility (1/GPa) = 0.02087654
#
# Stress axis : x y z
#
# Youngs Moduli (GPa) = 51.15547 51.15547 56.63440
#
# Poissons Ratio (x) = 0.24678 0.37137
# Poissons Ratio (y) = 0.24678 0.37137
# Poissons Ratio (z) = 0.33544 0.33544
#
# Static dielectric constant tensor:
#      x y z
#    x 2.901910 0.000000 0.000000 
#    y 0.000000 2.901910 0.000000 
#    z 0.000000 0.000000 3.096500 
# 
# 
# High freq. dielectric constant tensor:
#      x y z
#    x 1.565130 0.000000 0.000000 
#    y 0.000000 1.565130 0.000000 
#    z 0.000000 0.000000 1.564640 
# 
# From -- ./inp_files/5927.got.cif
#   From: 2010.03.12/outbox.cif.g09.slc.cpg/sg123_3_cif.got.tgz:5927.got - 2010.04.06 16:26:55.
