data_PCOD8312652
_publ_section_title
;
Structure prediction by ZEFSAII (Michael W. Deem and Ramdas Pophale) SiO2 
 PCOD8312652
Probable space group: P 4/M M M
;
_chemical_formula_sum "Si O2"
_cell_formula_units_Z 56
_cell_length_a 18.134287
_cell_length_b 18.134287
_cell_length_c 8.888766
_cell_angle_alpha 90.000000
_cell_angle_beta 90.000000
_cell_angle_gamma 90.000000
_cell_volume 2923.091721
_symmetry_space_group_name_H-M "P 4/M M M"
_symmetry_group_IT_number 123
_symmetry_cell_setting 'tetragonal'
loop_
_space_group_symop_operation_xyz
x,y,z
-y,x,z
-x,-y,z
y,-x,z
x,-y,-z
-x,y,-z
y,x,-z
-y,-x,-z
-x,-y,-z
y,-x,-z
x,y,-z
-y,x,-z
-x,y,z
x,-y,z
-y,-x,z
y,x,z
loop_
_atom_site_type_symbol
_atom_site_label
_atom_site_fract_x
_atom_site_fract_y
_atom_site_fract_z
Si Si1 0.650584 0.157218 0.178378
Si Si2 0.500000 0.917139 0.178979
Si Si3 0.310024 0.310024 0.674936
Si Si4 0.800354 0.082186 0.178708
Si Si5 0.585340 0.414661 0.831325
O O1 0.573603 0.123505 0.237839
O O2 0.661276 0.235863 0.251198
O O3 0.718218 0.105121 0.229279
O O4 0.649482 0.166726 0.000000
O O5 0.500000 0.000000 0.243340
O O6 0.500000 0.918886 0.000000
O O7 0.297445 0.297445 0.500000
O O8 0.371425 0.371425 0.703354
O O9 0.860813 0.139188 0.245857
O O10 0.816779 0.000000 0.240725
O O11 0.805297 0.082954 0.000000
O O12 0.602595 0.500000 0.808593
O O13 0.609647 0.390354 0.000000
#
# Coordination Sequence:
#
# PCOD8312652 Si02
#       5
#    16   8   8  16   8
#     4  10  19  35  56  80 109 145 187 229 276 329
#     4   9  18  32  57  91 116 137 176 233 287 336
#     4  12  25  37  53  80 115 151 188 228 274 325
#     4   9  16  27  47  76 109 140 173 222 280 333
#     4   9  20  40  64  86 108 139 181 227 274 326
#
# _framework density 19.157798
#
# number of rings (size 3 to 8) (size 9 to 14) (size 15 to 20)
#    0.000    2.286    1.429    2.571    2.000    4.286 
#    0.000    2.143    0.000    4.286    0.000    0.000 
#    0.000    1.143    0.000    0.000    0.000    0.000 
#
# Total GULP energy -694344.116040 kJ/mol
# GULP energy per Si atom -12399.002072 kJ/mol
# Density = 1.911419 g / cm^3
# Si number density = 19.157798 Si / 1000 Ang^3
#
#
#
# Elastic Constant Matrix: (Units=GPa)
#
#
# Indices 1 2 3 4 5 6 
#
# 1 165.5588 107.0583 23.8035 0.0000 0.0000 0.0000
# 2 107.0583 165.5574 23.8028 0.0000 0.0000 0.0000
# 3 23.8035 23.8028 19.6123 0.0000 0.0000 0.0000
# 4 0.0000 0.0000 0.0000 0.3097 0.0000 0.0000
# 5 0.0000 0.0000 0.0000 0.0000 0.3098 0.0000
# 6 0.0000 0.0000 0.0000 0.0000 0.0000 38.5629
#
#
#
# Elastic Compliance Matrix: (Units=1/GPa)
#
#
# Indices 1 2 3 4 5 6 
#
# 1 0.010874 -0.006220 -0.005650 0.000000 0.000000 0.000000
# 2 -0.006220 0.010874 -0.005649 0.000000 0.000000 0.000000
# 3 -0.005650 -0.005649 0.064702 0.000000 0.000000 0.000000
# 4 0.000000 0.000000 0.000000 3.229310 0.000000 0.000000
# 5 0.000000 0.000000 0.000000 0.000000 3.228120 0.000000
# 6 0.000000 0.000000 0.000000 0.000000 0.000000 0.025932
#
#
# Mechanical properties :
#
#
# Convention : Reuss Voigt Hill
#
# Bulk Modulus (GPa) = 19.45010 73.33975 46.39492
# Shear Modulus (GPa) = 0.75506 20.90739 10.83122
#
# Velocity S-wave (km/s) = 0.62848 3.30710 2.38033
# Velocity P-wave (km/s) = 3.27128 7.27651 5.64132
#
# Compressibility (1/GPa) = 0.05141363
#
# Stress axis : x y z
#
# Youngs Moduli (GPa) = 91.95927 91.95941 15.45556
#
# Poissons Ratio (x) = 0.57196 0.08732
# Poissons Ratio (y) = 0.57196 0.08731
# Poissons Ratio (z) = 0.51954 0.51948
#
# Static dielectric constant tensor:
#      x y z
#    x 3.765430 0.000000 0.000000 
#    y 0.000000 3.765430 0.000000 
#    z 0.000000 0.000000 2.932510 
# 
# 
# High freq. dielectric constant tensor:
#      x y z
#    x 1.760490 0.000000 0.000000 
#    y 0.000000 1.760490 0.000000 
#    z 0.000000 0.000000 1.681180 
# 
# From -- ./inp_files/628.got.cif
#   From: 2010.03.12/outbox.cif.g09.slc.cpg/sg123_1_cif.got.tgz:628.got - 2010.04.06 16:26:55.
