data_PCOD8312862
_publ_section_title
;
Structure prediction by ZEFSAII (Michael W. Deem and Ramdas Pophale) SiO2 
 PCOD8312862
Probable space group: P 4/M M M
;
_chemical_formula_sum "Si O2"
_cell_formula_units_Z 64
_cell_length_a 15.664387
_cell_length_b 15.664387
_cell_length_c 14.345216
_cell_angle_alpha 90.000000
_cell_angle_beta 90.000000
_cell_angle_gamma 90.000000
_cell_volume 3519.928974
_symmetry_space_group_name_H-M "P 4/M M M"
_symmetry_group_IT_number 123
_symmetry_cell_setting 'tetragonal'
loop_
_space_group_symop_operation_xyz
x,y,z
-y,x,z
-x,-y,z
y,-x,z
x,-y,-z
-x,y,-z
y,x,-z
-y,-x,-z
-x,-y,-z
y,-x,-z
x,y,-z
-y,x,-z
-x,y,z
x,-y,z
-y,-x,z
y,x,z
loop_
_atom_site_type_symbol
_atom_site_label
_atom_site_fract_x
_atom_site_fract_y
_atom_site_fract_z
Si Si1 0.826949 0.401325 0.397427
Si Si2 0.000000 0.321010 0.388699
Si Si3 0.866838 0.000000 0.389044
Si Si4 0.600036 0.737913 0.214342
Si Si5 0.905816 0.398817 0.894197
O O1 0.805292 0.361274 0.500000
O O2 0.844359 0.500000 0.409791
O O3 0.749994 0.385368 0.325441
O O4 0.914140 0.365340 0.352600
O O5 0.000000 0.226508 0.345757
O O6 0.000000 0.322802 0.500000
O O7 0.915787 0.084214 0.353625
O O8 0.863192 0.000000 0.500000
O O9 0.500000 0.719441 0.191617
O O10 0.656910 0.656910 0.181667
O O11 0.633917 0.824696 0.165173
O O12 0.905795 0.500000 0.890008
O O13 0.000000 0.366493 0.857644
O O14 0.893081 0.367007 0.000000
#
# Coordination Sequence:
#
# PCOD8312862 Si02
#       5
#    16   8   8  16  16
#     4   9  18  31  46  67  95 125 163 213 264 309
#     4   9  16  26  44  65  84 115 155 200 256 310
#     4   8  14  24  36  52  77 108 142 179 222 281
#     4  10  21  34  50  73 101 137 176 214 255 300
#     4   8  15  30  53  78 101 126 158 200 253 309
#
# _framework density 18.182183999999999
#
# number of rings (size 3 to 8) (size 9 to 14) (size 15 to 20)
#    0.000    3.125    0.000    1.500    1.750    3.750 
#    0.000    2.500    0.000    0.000    0.000    7.000 
#    0.000    0.500    0.000    2.750    0.000    0.250 
#
# Total GULP energy -792864.787893 kJ/mol
# GULP energy per Si atom -12388.512311 kJ/mol
# Density = 1.814080 g / cm^3
# Si number density = 18.182184 Si / 1000 Ang^3
#
#
#
# Elastic Constant Matrix: (Units=GPa)
#
#
# Indices 1 2 3 4 5 6 
#
# 1 77.8741 51.5322 28.0147 0.0000 0.0000 0.0000
# 2 51.5322 77.8741 28.0147 0.0000 0.0000 0.0000
# 3 28.0147 28.0147 50.1901 0.0000 0.0000 0.0000
# 4 0.0000 0.0000 0.0000 14.6127 0.0000 0.0000
# 5 0.0000 0.0000 0.0000 0.0000 14.6127 0.0000
# 6 0.0000 0.0000 0.0000 0.0000 0.0000 9.2351
#
#
#
# Elastic Compliance Matrix: (Units=1/GPa)
#
#
# Indices 1 2 3 4 5 6 
#
# 1 0.024076 -0.013886 -0.005688 0.000000 0.000000 0.000000
# 2 -0.013886 0.024076 -0.005688 0.000000 0.000000 0.000000
# 3 -0.005688 -0.005688 0.026274 0.000000 0.000000 0.000000
# 4 0.000000 0.000000 0.000000 0.068433 0.000000 0.000000
# 5 0.000000 0.000000 0.000000 0.000000 0.068433 0.000000
# 6 0.000000 0.000000 0.000000 0.000000 0.000000 0.108283
#
#
# Mechanical properties :
#
#
# Convention : Reuss Voigt Hill
#
# Bulk Modulus (GPa) = 41.83609 46.78460 44.31034
# Shear Modulus (GPa) = 13.22516 14.25057 13.73786
#
# Velocity S-wave (km/s) = 2.69990 2.80262 2.75174
# Velocity P-wave (km/s) = 5.72526 6.02161 5.87530
#
# Compressibility (1/GPa) = 0.02390281
#
# Stress axis : x y z
#
# Youngs Moduli (GPa) = 41.53464 41.53464 38.06049
#
# Poissons Ratio (x) = 0.57675 0.21649
# Poissons Ratio (y) = 0.57675 0.21649
# Poissons Ratio (z) = 0.23625 0.23625
#
# Static dielectric constant tensor:
#      x y z
#    x 3.312270 0.000000 0.000000 
#    y 0.000000 3.312270 0.000000 
#    z 0.000000 0.000000 3.366210 
# 
# 
# High freq. dielectric constant tensor:
#      x y z
#    x 1.684010 0.000000 0.000000 
#    y 0.000000 1.684010 0.000000 
#    z 0.000000 0.000000 1.684150 
# 
# From -- ./inp_files/5038.got.cif
#   From: 2010.03.12/outbox.cif.g09.slc.cpg/sg123_3_cif.got.tgz:5038.got - 2010.04.06 16:26:55.
