data_PCOD8312243
_publ_section_title
;
Structure prediction by ZEFSAII (Michael W. Deem and Ramdas Pophale) SiO2 
 PCOD8312243
Probable space group: P 4/M M M
;
_chemical_formula_sum "Si O2"
_cell_formula_units_Z 128
_cell_length_a 18.249952
_cell_length_b 18.249952
_cell_length_c 22.724342
_cell_angle_alpha 90.000000
_cell_angle_beta 90.000000
_cell_angle_gamma 90.000000
_cell_volume 7568.586344
_symmetry_space_group_name_H-M "P 4/M M M"
_symmetry_group_IT_number 123
_symmetry_cell_setting 'tetragonal'
loop_
_space_group_symop_operation_xyz
x,y,z
-y,x,z
-x,-y,z
y,-x,z
x,-y,-z
-x,y,-z
y,x,-z
-y,-x,-z
-x,-y,-z
y,-x,-z
x,y,-z
-y,x,-z
-x,y,z
x,-y,z
-y,-x,z
y,x,z
loop_
_atom_site_type_symbol
_atom_site_label
_atom_site_fract_x
_atom_site_fract_y
_atom_site_fract_z
Si Si1 0.916608 0.199838 0.155326
Si Si2 0.299838 0.416002 0.365599
Si Si3 0.292446 0.175035 0.932370
Si Si4 0.917870 0.675810 0.754595
Si Si5 0.840025 0.584251 0.156556
Si Si6 0.202085 0.916037 0.568812
Si Si7 0.697021 0.182653 0.645545
Si Si8 0.419735 0.305131 0.773984
O O1 0.876874 0.123127 0.165434
O O2 0.884674 0.242364 0.099439
O O3 0.906637 0.245342 0.215372
O O4 0.000000 0.182625 0.141031
O O5 0.299130 0.500000 0.389977
O O6 0.373131 0.373131 0.388339
O O7 0.226617 0.371021 0.384955
O O8 0.299346 0.415304 0.295653
O O9 0.255292 0.255292 0.925760
O O10 0.373131 0.174171 0.904148
O O11 0.300189 0.152107 0.000000
O O12 0.908141 0.614533 0.805574
O O13 0.860368 0.666970 0.702021
O O14 0.000000 0.667585 0.729404
O O15 0.852966 0.500000 0.140441
O O16 0.772330 0.599576 0.199051
O O17 0.219058 0.913834 0.500000
O O18 0.125972 0.874029 0.583224
O O19 0.270020 0.875789 0.599900
O O20 0.194845 0.000000 0.591201
O O21 0.758335 0.241666 0.665329
O O22 0.500000 0.331156 0.793823
O O23 0.363645 0.363645 0.799955
#
# Coordination Sequence:
#
# PCOD8312243 Si02
#       8
#    16  16  16  16  16  16  16  16
#     4   9  18  31  47  67  89 112 140 177 220 269
#     4   9  17  28  44  68  96 125 157 192 234 284
#     4   9  18  32  49  66  85 113 147 181 220 270
#     4  10  19  30  45  65  90 121 155 188 226 273
#     4  10  19  30  45  65  90 117 148 188 228 268
#     4   9  18  32  50  74 103 134 169 208 248 288
#     4  10  18  29  49  72  96 128 164 201 237 281
#     4   9  16  26  41  62  89 118 145 178 220 266
#
# _framework density 16.912009000000001
#
# number of rings (size 3 to 8) (size 9 to 14) (size 15 to 20)
#    0.000    2.625    1.250    1.125    0.000    2.250 
#    0.000    1.875    0.000    1.500    0.000    7.875 
#    0.000    0.000    0.000   16.500    0.000    0.250 
#
# Total GULP energy -1586729.253286 kJ/mol
# GULP energy per Si atom -12396.322291 kJ/mol
# Density = 1.687352 g / cm^3
# Si number density = 16.912009 Si / 1000 Ang^3
#
#
#
# Elastic Constant Matrix: (Units=GPa)
#
#
# Indices 1 2 3 4 5 6 
#
# 1 114.7482 55.8348 23.5067 0.0000 0.0000 0.0000
# 2 55.8348 114.7482 23.5067 0.0000 0.0000 0.0000
# 3 23.5067 23.5067 33.9344 0.0000 0.0000 0.0000
# 4 0.0000 0.0000 0.0000 18.0474 0.0000 0.0000
# 5 0.0000 0.0000 0.0000 0.0000 18.0474 0.0000
# 6 0.0000 0.0000 0.0000 0.0000 0.0000 20.1069
#
#
#
# Elastic Compliance Matrix: (Units=1/GPa)
#
#
# Indices 1 2 3 4 5 6 
#
# 1 0.012110 -0.004864 -0.005019 0.000000 0.000000 0.000000
# 2 -0.004864 0.012110 -0.005019 0.000000 0.000000 0.000000
# 3 -0.005019 -0.005019 0.036422 0.000000 0.000000 0.000000
# 4 0.000000 0.000000 0.000000 0.055410 0.000000 0.000000
# 5 0.000000 0.000000 0.000000 0.000000 0.055410 0.000000
# 6 0.000000 0.000000 0.000000 0.000000 0.000000 0.049734
#
#
# Mechanical properties :
#
#
# Convention : Reuss Voigt Hill
#
# Bulk Modulus (GPa) = 32.42861 52.12526 42.27694
# Shear Modulus (GPa) = 19.13662 21.94583 20.54122
#
# Velocity S-wave (km/s) = 3.36749 3.60620 3.48888
# Velocity P-wave (km/s) = 5.85973 6.94463 6.42512
#
# Compressibility (1/GPa) = 0.03083696
#
# Stress axis : x y z
#
# Youngs Moduli (GPa) = 82.57780 82.57780 27.45582
#
# Poissons Ratio (x) = 0.40168 0.13780
# Poissons Ratio (y) = 0.40168 0.13780
# Poissons Ratio (z) = 0.41446 0.41446
#
# Static dielectric constant tensor:
#      x y z
#    x 3.295360 0.000000 0.000000 
#    y 0.000000 3.295360 0.000000 
#    z 0.000000 0.000000 2.902340 
# 
# 
# High freq. dielectric constant tensor:
#      x y z
#    x 1.653360 0.000000 0.000000 
#    y 0.000000 1.653360 0.000000 
#    z 0.000000 0.000000 1.623470 
# 
# From -- ./inp_files/7657.got.cif
#   From: 2010.03.12/outbox.cif.g09.slc.cpg/sg123_4_cif.got.tgz:7657.got - 2010.04.06 16:26:55.
