data_PCOD8312712
_publ_section_title
;
Structure prediction by ZEFSAII (Michael W. Deem and Ramdas Pophale) SiO2 
 PCOD8312712
Probable space group: P 4/M M M
;
_chemical_formula_sum "Si O2"
_cell_formula_units_Z 96
_cell_length_a 24.489785
_cell_length_b 24.489785
_cell_length_c 8.846916
_cell_angle_alpha 90.000000
_cell_angle_beta 90.000000
_cell_angle_gamma 90.000000
_cell_volume 5305.934061
_symmetry_space_group_name_H-M "P 4/M M M"
_symmetry_group_IT_number 123
_symmetry_cell_setting 'tetragonal'
loop_
_space_group_symop_operation_xyz
x,y,z
-y,x,z
-x,-y,z
y,-x,z
x,-y,-z
-x,y,-z
y,x,-z
-y,-x,-z
-x,-y,-z
y,-x,-z
x,y,-z
-y,x,-z
-x,y,z
x,-y,z
-y,-x,z
y,x,z
loop_
_atom_site_type_symbol
_atom_site_label
_atom_site_fract_x
_atom_site_fract_y
_atom_site_fract_z
Si Si1 0.654481 0.259078 0.175421
Si Si2 0.000000 0.237035 0.678102
Si Si3 0.437881 0.912416 0.678279
Si Si4 0.212699 0.437562 0.669487
Si Si5 0.806765 0.895816 0.823592
Si Si6 0.180326 0.270817 0.665915
Si Si7 0.000000 0.641224 0.179992
O O1 0.685408 0.314593 0.226583
O O2 0.591227 0.258043 0.222355
O O3 0.674815 0.205481 0.264577
O O4 0.663659 0.249790 0.000000
O O5 0.950165 0.197745 0.725603
O O6 0.000000 0.246696 0.500000
O O7 0.000000 0.296654 0.756799
O O8 0.428991 0.920396 0.500000
O O9 0.500000 0.930915 0.720370
O O10 0.429837 0.849518 0.725946
O O11 0.392220 0.946939 0.765959
O O12 0.218497 0.414486 0.500000
O O13 0.229512 0.500000 0.674551
O O14 0.860714 0.860714 0.778248
O O15 0.751679 0.863098 0.785062
O O16 0.807382 0.909886 0.000000
O O17 0.153795 0.282466 0.500000
O O18 0.228227 0.228227 0.645715
O O19 0.000000 0.645286 0.000000
#
# Coordination Sequence:
#
# PCOD8312712 Si02
#       7
#    16   8  16  16  16  16   8
#     4  10  20  32  48  73 105 139 175 218 266 313
#     4  12  26  41  59  83 111 143 178 215 259 313
#     4   9  19  37  57  74  98 137 181 224 272 321
#     4   9  19  35  54  75 100 134 178 225 270 317
#     4  10  21  39  61  83 110 139 168 210 264 318
#     4   9  17  30  50  75 102 136 174 208 249 306
#     4  12  25  37  52  77 109 139 176 229 274 309
#
# _framework density 18.092950999999999
#
# number of rings (size 3 to 8) (size 9 to 14) (size 15 to 20)
#    0.000    2.167    0.000    4.250    2.333    6.333 
#    0.000    1.667    0.000    0.250    0.000    1.750 
#    0.000    0.333    0.000    3.667    0.000    2.667 
#
# Total GULP energy -1189767.330196 kJ/mol
# GULP energy per Si atom -12393.409690 kJ/mol
# Density = 1.805177 g / cm^3
# Si number density = 18.092951 Si / 1000 Ang^3
#
#
#
# Elastic Constant Matrix: (Units=GPa)
#
#
# Indices 1 2 3 4 5 6 
#
# 1 82.8380 49.0853 42.7479 0.0000 0.0000 0.0000
# 2 49.0853 82.8380 42.7479 0.0000 0.0000 0.0000
# 3 42.7479 42.7479 96.7490 0.0000 0.0000 0.0000
# 4 0.0000 0.0000 0.0000 27.9137 0.0000 0.0000
# 5 0.0000 0.0000 0.0000 0.0000 27.9137 0.0000
# 6 0.0000 0.0000 0.0000 0.0000 0.0000 27.9577
#
#
#
# Elastic Compliance Matrix: (Units=1/GPa)
#
#
# Indices 1 2 3 4 5 6 
#
# 1 0.020124 -0.009503 -0.004693 0.000000 0.000000 0.000000
# 2 -0.009503 0.020124 -0.004693 0.000000 0.000000 0.000000
# 3 -0.004693 -0.004693 0.014483 0.000000 0.000000 0.000000
# 4 0.000000 0.000000 0.000000 0.035825 0.000000 0.000000
# 5 0.000000 0.000000 0.000000 0.000000 0.035825 0.000000
# 6 0.000000 0.000000 0.000000 0.000000 0.000000 0.035768
#
#
# Mechanical properties :
#
#
# Convention : Reuss Voigt Hill
#
# Bulk Modulus (GPa) = 58.98269 59.06523 59.02396
# Shear Modulus (GPa) = 24.32151 25.27993 24.80072
#
# Velocity S-wave (km/s) = 3.67038 3.74200 3.70637
# Velocity P-wave (km/s) = 7.11568 7.16843 7.14210
#
# Compressibility (1/GPa) = 0.01695413
#
# Stress axis : x y z
#
# Youngs Moduli (GPa) = 49.69082 49.69082 69.04526
#
# Poissons Ratio (x) = 0.47220 0.32404
# Poissons Ratio (y) = 0.47220 0.32404
# Poissons Ratio (z) = 0.23320 0.23320
#
# Static dielectric constant tensor:
#      x y z
#    x 3.338570 0.000000 0.000000 
#    y 0.000000 3.338570 0.000000 
#    z 0.000000 0.000000 3.399960 
# 
# 
# High freq. dielectric constant tensor:
#      x y z
#    x 1.686070 0.000000 0.000000 
#    y 0.000000 1.686070 0.000000 
#    z 0.000000 0.000000 1.705840 
# 
# From -- ./inp_files/1687.got.cif
#   From: 2010.03.12/outbox.cif.g09.slc.cpg/sg123_1_cif.got.tgz:1687.got - 2010.04.06 16:26:55.
