data_PCOD8312383
_publ_section_title
;
Structure prediction by ZEFSAII (Michael W. Deem and Ramdas Pophale) SiO2 
 PCOD8312383
Probable space group: P 4/M M M
;
_chemical_formula_sum "Si O2"
_cell_formula_units_Z 64
_cell_length_a 12.810492
_cell_length_b 12.810492
_cell_length_c 22.213649
_cell_angle_alpha 90.000000
_cell_angle_beta 90.000000
_cell_angle_gamma 90.000000
_cell_volume 3645.453177
_symmetry_space_group_name_H-M "P 4/M M M"
_symmetry_group_IT_number 123
_symmetry_cell_setting 'tetragonal'
loop_
_space_group_symop_operation_xyz
x,y,z
-y,x,z
-x,-y,z
y,-x,z
x,-y,-z
-x,y,-z
y,x,-z
-y,-x,-z
-x,-y,-z
y,-x,-z
x,y,-z
-y,x,-z
-x,y,z
x,-y,z
-y,-x,z
y,x,z
loop_
_atom_site_type_symbol
_atom_site_label
_atom_site_fract_x
_atom_site_fract_y
_atom_site_fract_z
Si Si1 0.282650 0.122733 0.500000
Si Si2 0.876360 0.614832 0.621767
Si Si3 0.000000 0.376266 0.932112
Si Si4 0.714875 0.877077 0.745933
Si Si5 0.205946 0.378532 0.861565
O O1 0.164840 0.164840 0.500000
O O2 0.339670 0.167106 0.440734
O O3 0.275754 0.000000 0.500000
O O4 0.828533 0.500000 0.630348
O O5 0.843493 0.683679 0.678679
O O6 0.000000 0.608831 0.617763
O O7 0.893781 0.337548 0.899865
O O8 0.000000 0.500000 0.930635
O O9 0.000000 0.332609 0.000000
O O10 0.829581 0.829581 0.758724
O O11 0.631788 0.826067 0.791626
O O12 0.718989 0.000000 0.755408
O O13 0.233208 0.500000 0.875139
O O14 0.306681 0.306681 0.877440
#
# Coordination Sequence:
#
# PCOD8312383 Si02
#       5
#     8  16   8  16  16
#     4  10  19  30  43  63  92 124 159 199 246 301
#     4   9  17  29  46  65  88 121 161 207 253 295
#     4   9  18  34  56  79 105 138 176 215 253 303
#     4  10  19  31  49  74 103 136 172 211 256 307
#     4  10  20  34  54  80 109 141 178 220 265 311
#
# _framework density 17.556117
#
# number of rings (size 3 to 8) (size 9 to 14) (size 15 to 20)
#    0.000    2.375    1.250    1.875    0.000    3.625 
#    0.000    0.000    0.000    4.875    0.000    4.375 
#    0.000   19.000    0.000    0.000    0.000    0.000 
#
# Total GULP energy -793270.488547 kJ/mol
# GULP energy per Si atom -12394.851384 kJ/mol
# Density = 1.751616 g / cm^3
# Si number density = 17.556117 Si / 1000 Ang^3
#
#
#
# Elastic Constant Matrix: (Units=GPa)
#
#
# Indices 1 2 3 4 5 6 
#
# 1 81.9548 57.5335 28.3935 0.0000 0.0000 0.0000
# 2 57.5335 81.9548 28.3935 0.0000 0.0000 0.0000
# 3 28.3935 28.3935 109.0428 0.0000 0.0000 0.0000
# 4 0.0000 0.0000 0.0000 17.2833 0.0000 0.0000
# 5 0.0000 0.0000 0.0000 0.0000 17.2833 0.0000
# 6 0.0000 0.0000 0.0000 0.0000 0.0000 19.2894
#
#
#
# Elastic Compliance Matrix: (Units=1/GPa)
#
#
# Indices 1 2 3 4 5 6 
#
# 1 0.024484 -0.016464 -0.002088 0.000000 0.000000 0.000000
# 2 -0.016464 0.024484 -0.002088 0.000000 0.000000 0.000000
# 3 -0.002088 -0.002088 0.010258 0.000000 0.000000 0.000000
# 4 0.000000 0.000000 0.000000 0.057859 0.000000 0.000000
# 5 0.000000 0.000000 0.000000 0.000000 0.057859 0.000000
# 6 0.000000 0.000000 0.000000 0.000000 0.000000 0.051842
#
#
# Mechanical properties :
#
#
# Convention : Reuss Voigt Hill
#
# Bulk Modulus (GPa) = 55.72877 55.73260 55.73068
# Shear Modulus (GPa) = 18.24496 21.34666 19.79581
#
# Velocity S-wave (km/s) = 3.22722 3.49077 3.36158
# Velocity P-wave (km/s) = 6.76008 6.93265 6.84691
#
# Compressibility (1/GPa) = 0.01794405
#
# Stress axis : x y z
#
# Youngs Moduli (GPa) = 40.84377 40.84377 97.48361
#
# Poissons Ratio (x) = 0.67247 0.20355
# Poissons Ratio (y) = 0.67247 0.20355
# Poissons Ratio (z) = 0.08529 0.08529
#
# Static dielectric constant tensor:
#      x y z
#    x 3.101420 0.000000 0.000000 
#    y 0.000000 3.101420 0.000000 
#    z 0.000000 0.000000 3.522170 
# 
# 
# High freq. dielectric constant tensor:
#      x y z
#    x 1.659080 0.000000 0.000000 
#    y 0.000000 1.659080 0.000000 
#    z 0.000000 0.000000 1.692770 
# 
# From -- ./inp_files/7062.got.cif
#   From: 2010.03.12/outbox.cif.g09.slc.cpg/sg123_4_cif.got.tgz:7062.got - 2010.04.06 16:26:55.
