data_PCOD8312845
_publ_section_title
;
Structure prediction by ZEFSAII (Michael W. Deem and Ramdas Pophale) SiO2 
 PCOD8312845
Probable space group: P 4/M M M
;
_chemical_formula_sum "Si O2"
_cell_formula_units_Z 96
_cell_length_a 19.564493
_cell_length_b 19.564493
_cell_length_c 13.673268
_cell_angle_alpha 90.000000
_cell_angle_beta 90.000000
_cell_angle_gamma 90.000000
_cell_volume 5233.708402
_symmetry_space_group_name_H-M "P 4/M M M"
_symmetry_group_IT_number 123
_symmetry_cell_setting 'tetragonal'
loop_
_space_group_symop_operation_xyz
x,y,z
-y,x,z
-x,-y,z
y,-x,z
x,-y,-z
-x,y,-z
y,x,-z
-y,-x,-z
-x,-y,-z
y,-x,-z
x,y,-z
-y,x,-z
-x,y,z
x,-y,z
-y,-x,z
y,x,z
loop_
_atom_site_type_symbol
_atom_site_label
_atom_site_fract_x
_atom_site_fract_y
_atom_site_fract_z
Si Si1 0.686562 0.580251 0.687598
Si Si2 0.317554 0.793375 0.614571
Si Si3 0.578982 0.112770 0.111081
Si Si4 0.579776 0.734978 0.895517
Si Si5 0.078152 0.188034 0.888754
Si Si6 0.076019 0.689832 0.747692
O O1 0.682209 0.500000 0.662724
O O2 0.618988 0.618988 0.646395
O O3 0.754799 0.611279 0.639382
O O4 0.686724 0.595864 0.804095
O O5 0.313389 0.805912 0.500000
O O6 0.254185 0.745816 0.650187
O O7 0.316414 0.867870 0.662948
O O8 0.500000 0.107995 0.142184
O O9 0.609910 0.189431 0.121146
O O10 0.621510 0.068187 0.187468
O O11 0.588507 0.085992 0.000000
O O12 0.500000 0.746688 0.905274
O O13 0.607201 0.704501 0.000000
O O14 0.122290 0.122290 0.860511
O O15 0.099504 0.249320 0.818342
O O16 0.000000 0.166422 0.873506
O O17 0.091798 0.211937 0.000000
O O18 0.000000 0.703237 0.702699
#
# Coordination Sequence:
#
# PCOD8312845 Si02
#       6
#    16  16  16  16  16  16
#     4  10  20  35  56  80 106 136 171 214 264 314
#     4  10  22  40  59  76  97 131 174 215 261 322
#     4   9  17  30  48  72 106 145 179 207 239 289
#     4   8  14  27  48  72 100 135 172 207 241 284
#     4   9  18  32  50  75 108 143 176 209 248 297
#     4  11  21  33  53  79 108 136 167 216 266 305
#
# _framework density 18.342635000000001
#
# number of rings (size 3 to 8) (size 9 to 14) (size 15 to 20)
#    0.000    2.500    1.667    2.000    0.000    2.667 
#    0.000    1.667    0.000    0.000    0.000    7.000 
#    0.000    0.000    0.000   15.500    0.000    0.167 
#
# Total GULP energy -1189743.203726 kJ/mol
# GULP energy per Si atom -12393.158372 kJ/mol
# Density = 1.830089 g / cm^3
# Si number density = 18.342635 Si / 1000 Ang^3
#
#
#
# Elastic Constant Matrix: (Units=GPa)
#
#
# Indices 1 2 3 4 5 6 
#
# 1 100.4928 52.5037 40.4348 0.0000 0.0000 0.0000
# 2 52.5037 100.4928 40.4348 0.0000 0.0000 0.0000
# 3 40.4348 40.4348 68.1878 0.0000 0.0000 0.0000
# 4 0.0000 0.0000 0.0000 15.1160 0.0000 0.0000
# 5 0.0000 0.0000 0.0000 0.0000 15.1160 0.0000
# 6 0.0000 0.0000 0.0000 0.0000 0.0000 22.9094
#
#
#
# Elastic Compliance Matrix: (Units=1/GPa)
#
#
# Indices 1 2 3 4 5 6 
#
# 1 0.015179 -0.005659 -0.005645 0.000000 0.000000 0.000000
# 2 -0.005659 0.015179 -0.005645 0.000000 0.000000 0.000000
# 3 -0.005645 -0.005645 0.021361 0.000000 0.000000 0.000000
# 4 0.000000 0.000000 0.000000 0.066155 0.000000 0.000000
# 5 0.000000 0.000000 0.000000 0.000000 0.066155 0.000000
# 6 0.000000 0.000000 0.000000 0.000000 0.000000 0.043650
#
#
# Mechanical properties :
#
#
# Convention : Reuss Voigt Hill
#
# Bulk Modulus (GPa) = 56.11836 59.54667 57.83252
# Shear Modulus (GPa) = 18.69034 19.68163 19.18599
#
# Velocity S-wave (km/s) = 3.19557 3.27922 3.23767
# Velocity P-wave (km/s) = 6.65406 6.84629 6.75086
#
# Compressibility (1/GPa) = 0.01781948
#
# Stress axis : x y z
#
# Youngs Moduli (GPa) = 65.88022 65.88022 46.81507
#
# Poissons Ratio (x) = 0.37282 0.26429
# Poissons Ratio (y) = 0.37282 0.26429
# Poissons Ratio (z) = 0.37191 0.37191
#
# Static dielectric constant tensor:
#      x y z
#    x 3.290130 0.000000 0.000000 
#    y 0.000000 3.290130 0.000000 
#    z 0.000000 0.000000 3.344190 
# 
# 
# High freq. dielectric constant tensor:
#      x y z
#    x 1.704380 0.000000 0.000000 
#    y 0.000000 1.704380 0.000000 
#    z 0.000000 0.000000 1.694300 
# 
# From -- ./inp_files/3147.got.cif
#   From: 2010.03.12/outbox.cif.g09.slc.cpg/sg123_2_cif.got.tgz:3147.got - 2010.04.06 16:26:55.
