data_PCOD8312161
_publ_section_title
;
Structure prediction by ZEFSAII (Michael W. Deem and Ramdas Pophale) SiO2 
 PCOD8312161
Probable space group: P 4/M M M
;
_chemical_formula_sum "Si O2"
_cell_formula_units_Z 112
_cell_length_a 20.489377
_cell_length_b 20.489377
_cell_length_c 20.667992
_cell_angle_alpha 90.000000
_cell_angle_beta 90.000000
_cell_angle_gamma 90.000000
_cell_volume 8676.724171
_symmetry_space_group_name_H-M "P 4/M M M"
_symmetry_group_IT_number 123
_symmetry_cell_setting 'tetragonal'
loop_
_space_group_symop_operation_xyz
x,y,z
-y,x,z
-x,-y,z
y,-x,z
x,-y,-z
-x,y,-z
y,x,-z
-y,-x,-z
-x,-y,-z
y,-x,-z
x,y,-z
-y,x,-z
-x,y,z
x,-y,z
-y,-x,z
y,x,z
loop_
_atom_site_type_symbol
_atom_site_label
_atom_site_fract_x
_atom_site_fract_y
_atom_site_fract_z
Si Si1 0.819757 0.422662 0.427249
Si Si2 0.422767 0.072040 0.670820
Si Si3 0.577040 0.850271 0.207769
Si Si4 0.577273 0.821149 0.930521
Si Si5 0.323037 0.572782 0.102873
Si Si6 0.710157 0.391313 0.241599
Si Si7 0.679591 0.426416 0.381738
O O1 0.838411 0.401548 0.500000
O O2 0.818792 0.500000 0.419105
O O3 0.874706 0.392861 0.378939
O O4 0.747210 0.397207 0.410455
O O5 0.500000 0.070571 0.661912
O O6 0.405495 0.089328 0.745691
O O7 0.393681 0.000000 0.656334
O O8 0.500000 0.835038 0.208358
O O9 0.601114 0.862011 0.133067
O O10 0.613046 0.788056 0.238347
O O11 0.500000 0.824521 0.932128
O O12 0.599169 0.745947 0.923941
O O13 0.604712 0.848331 0.000000
O O14 0.338131 0.500000 0.077301
O O15 0.379476 0.620525 0.077091
O O16 0.319541 0.570550 0.180532
O O17 0.682782 0.317219 0.243243
O O18 0.686251 0.429930 0.304532
O O19 0.665705 0.500000 0.407321
O O20 0.620547 0.379453 0.404190
#
# Coordination Sequence:
#
# PCOD8312161 Si02
#       7
#    16  16  16  16  16  16  16
#     4   9  17  28  40  53  70  90 110 135 170 210
#     4   9  16  25  39  57  72  85 102 126 161 208
#     4   9  14  23  38  51  68  87 106 134 168 204
#     4   8  14  23  34  46  58  77 104 130 158 196
#     4   9  16  23  31  43  59  79 106 141 180 221
#     4   9  15  23  36  51  64  84 114 145 178 214
#     4  10  18  27  39  52  69  93 122 155 188 219
#
# _framework density 12.908097
#
# number of rings (size 3 to 8) (size 9 to 14) (size 15 to 20)
#    0.000    3.000    1.429    2.143    0.000    1.143 
#    0.000    1.429    0.000    3.000    0.000    7.000 
#    0.000    0.000    0.000    0.000    0.000    0.000 
#
# Total GULP energy -1387552.543587 kJ/mol
# GULP energy per Si atom -12388.861996 kJ/mol
# Density = 1.287872 g / cm^3
# Si number density = 12.908097 Si / 1000 Ang^3
#
#
#
# Elastic Constant Matrix: (Units=GPa)
#
#
# Indices 1 2 3 4 5 6 
#
# 1 48.8791 18.7478 23.7421 0.0000 0.0000 0.0000
# 2 18.7478 48.8791 23.7421 0.0000 0.0000 0.0000
# 3 23.7421 23.7421 86.0928 0.0000 0.0000 0.0000
# 4 0.0000 0.0000 0.0000 7.2319 0.0000 0.0000
# 5 0.0000 0.0000 0.0000 0.0000 7.2319 0.0000
# 6 0.0000 0.0000 0.0000 0.0000 0.0000 2.4710
#
#
#
# Elastic Compliance Matrix: (Units=1/GPa)
#
#
# Indices 1 2 3 4 5 6 
#
# 1 0.025763 -0.007425 -0.005057 0.000000 0.000000 0.000000
# 2 -0.007425 0.025763 -0.005057 0.000000 0.000000 0.000000
# 3 -0.005057 -0.005057 0.014405 0.000000 0.000000 0.000000
# 4 0.000000 0.000000 0.000000 0.138276 0.000000 0.000000
# 5 0.000000 0.000000 0.000000 0.000000 0.138276 0.000000
# 6 0.000000 0.000000 0.000000 0.000000 0.000000 0.404699
#
#
# Mechanical properties :
#
#
# Convention : Reuss Voigt Hill
#
# Bulk Modulus (GPa) = 32.41287 35.14611 33.77949
# Shear Modulus (GPa) = 6.30879 11.22821 8.76850
#
# Velocity S-wave (km/s) = 2.21316 2.95253 2.60917
# Velocity P-wave (km/s) = 5.62990 6.23782 5.94164
#
# Compressibility (1/GPa) = 0.03085194
#
# Stress axis : x y z
#
# Youngs Moduli (GPa) = 38.81535 38.81535 69.42223
#
# Poissons Ratio (x) = 0.28821 0.35108
# Poissons Ratio (y) = 0.28821 0.35108
# Poissons Ratio (z) = 0.19629 0.19629
#
# Static dielectric constant tensor:
#      x y z
#    x 2.363430 0.000000 0.000000 
#    y 0.000000 2.363430 0.000000 
#    z 0.000000 0.000000 2.933050 
# 
# 
# High freq. dielectric constant tensor:
#      x y z
#    x 1.441640 0.000000 0.000000 
#    y 0.000000 1.441640 0.000000 
#    z 0.000000 0.000000 1.512040 
# 
# From -- ./inp_files/6889.got.cif
#   From: 2010.03.12/outbox.cif.g09.slc.cpg/sg123_4_cif.got.tgz:6889.got - 2010.04.06 16:26:55.
