data_PCOD8312076
_publ_section_title
;
Structure prediction by ZEFSAII (Michael W. Deem and Ramdas Pophale) SiO2 
 PCOD8312076
Probable space group: I -4 2 D
;
_chemical_formula_sum "Si O2"
_cell_formula_units_Z 72
_cell_length_a 21.422163
_cell_length_b 21.422163
_cell_length_c 7.140119
_cell_angle_alpha 90.000000
_cell_angle_beta 90.000000
_cell_angle_gamma 90.000000
_cell_volume 3276.665353
_symmetry_space_group_name_H-M "I -4 2 D"
_symmetry_group_IT_number 122
_symmetry_cell_setting 'tetragonal'
loop_
_space_group_symop_operation_xyz
x,y,z
y,-x,-z
-x,-y,z
-y,x,-z
x,1/2-y,1/4-z
-x,1/2+y,1/4-z
-y,1/2-x,1/4+z
y,1/2+x,1/4+z
1/2+x,1/2+y,1/2+z
1/2+y,1/2-x,1/2-z
1/2-x,1/2-y,1/2+z
1/2-y,1/2+x,1/2-z
1/2+x,-y,3/4-z
1/2-x,y,3/4-z
1/2-y,-x,3/4+z
1/2+y,x,3/4+z
loop_
_atom_site_type_symbol
_atom_site_label
_atom_site_fract_x
_atom_site_fract_y
_atom_site_fract_z
Si Si1 0.937087 0.427221 0.185919
Si Si2 0.250000 0.980811 0.375000
Si Si3 0.735555 0.820235 0.083373
Si Si4 0.398113 0.363960 0.070634
Si Si5 0.671235 0.587075 0.724245
O O1 0.919417 0.487998 0.309368
O O2 0.907758 0.366627 0.282127
O O3 0.909615 0.430985 0.974562
O O4 0.288851 0.023017 0.521269
O O5 0.303987 0.941318 0.267566
O O6 0.753860 0.750000 0.125000
O O7 0.663095 0.832364 0.100721
O O8 0.777812 0.858366 0.230001
O O9 0.750000 0.841143 0.875000
O O10 0.379035 0.406316 0.892958
#
# Coordination Sequence:
#
# PCOD8312076 Si02
#       5
#    16   8  16  16  16
#     4  11  26  45  68 103 141 185 242 292 357 435
#     4  12  26  46  70 106 148 182 242 294 370 438
#     4  12  24  43  70 103 140 182 235 300 361 433
#     4  12  25  45  71 103 143 188 238 300 359 438
#     4  12  26  46  71 105 140 188 239 296 366 437
#
# _framework density 21.973559000000002
#
# number of rings (size 3 to 8) (size 9 to 14) (size 15 to 20)
#    0.000    0.222    7.778    1.333    3.111    0.000 
#    0.000    4.444    0.000    0.000    0.000    0.000 
#    0.000    0.000    0.000    0.000    0.000    0.000 
#
# Total GULP energy -446266.690998 kJ/mol
# GULP energy per Si atom -12396.296972 kJ/mol
# Density = 2.192355 g / cm^3
# Si number density = 21.973559 Si / 1000 Ang^3
#
#
#
# Elastic Constant Matrix: (Units=GPa)
#
#
# Indices 1 2 3 4 5 6 
#
# 1 130.7195 49.9029 28.5634 0.0000 0.0000 0.0000
# 2 49.9029 130.7195 28.5634 0.0000 0.0000 0.0000
# 3 28.5634 28.5634 85.5726 0.0000 0.0000 0.0000
# 4 0.0000 0.0000 0.0000 31.4074 0.0000 0.0000
# 5 0.0000 0.0000 0.0000 0.0000 31.4074 0.0000
# 6 0.0000 0.0000 0.0000 0.0000 0.0000 38.5012
#
#
#
# Elastic Compliance Matrix: (Units=1/GPa)
#
#
# Indices 1 2 3 4 5 6 
#
# 1 0.009282 -0.003092 -0.002066 0.000000 0.000000 0.000000
# 2 -0.003092 0.009282 -0.002066 0.000000 0.000000 0.000000
# 3 -0.002066 -0.002066 0.013065 0.000000 0.000000 0.000000
# 4 0.000000 0.000000 0.000000 0.031840 0.000000 0.000000
# 5 0.000000 0.000000 0.000000 0.000000 0.031840 0.000000
# 6 0.000000 0.000000 0.000000 0.000000 0.000000 0.025973
#
#
# Mechanical properties :
#
#
# Convention : Reuss Voigt Hill
#
# Bulk Modulus (GPa) = 58.20538 62.34122 60.27330
# Shear Modulus (GPa) = 35.34654 36.26199 35.80427
#
# Velocity S-wave (km/s) = 4.01508 4.06674 4.04099
# Velocity P-wave (km/s) = 6.93115 7.10519 7.01871
#
# Compressibility (1/GPa) = 0.01718054
#
# Stress axis : x y z
#
# Youngs Moduli (GPa) = 107.73779 107.73779 76.53867
#
# Poissons Ratio (x) = 0.33312 0.15814
# Poissons Ratio (y) = 0.33312 0.15814
# Poissons Ratio (z) = 0.22260 0.22260
#
# Static dielectric constant tensor:
#      x y z
#    x 4.119900 0.000000 0.000000 
#    y 0.000000 4.119900 0.000000 
#    z 0.000000 0.000000 3.808320 
# 
# 
# High freq. dielectric constant tensor:
#      x y z
#    x 1.877710 0.000000 0.000000 
#    y 0.000000 1.877710 0.000000 
#    z 0.000000 0.000000 1.847400 
# 
# From -- ./inp_files/2681.got.cif
#   From: 2010.03.12/outbox.cif.g09.slc.cpg/sg122_2_cif.got.tgz:2681.got - 2010.04.06 16:17:16.
