data_PCOD8312567
_publ_section_title
;
Structure prediction by ZEFSAII (Michael W. Deem and Ramdas Pophale) SiO2 
 PCOD8312567
Probable space group: P 4/M M M
;
_chemical_formula_sum "Si O2"
_cell_formula_units_Z 112
_cell_length_a 17.483242
_cell_length_b 17.483242
_cell_length_c 20.517716
_cell_angle_alpha 90.000000
_cell_angle_beta 90.000000
_cell_angle_gamma 90.000000
_cell_volume 6271.522031
_symmetry_space_group_name_H-M "P 4/M M M"
_symmetry_group_IT_number 123
_symmetry_cell_setting 'tetragonal'
loop_
_space_group_symop_operation_xyz
x,y,z
-y,x,z
-x,-y,z
y,-x,z
x,-y,-z
-x,y,-z
y,x,-z
-y,-x,-z
-x,-y,-z
y,-x,-z
x,y,-z
-y,x,-z
-x,y,z
x,-y,z
-y,-x,z
y,x,z
loop_
_atom_site_type_symbol
_atom_site_label
_atom_site_fract_x
_atom_site_fract_y
_atom_site_fract_z
Si Si1 0.912565 0.790403 0.103214
Si Si2 0.327438 0.199360 0.572146
Si Si3 0.795126 0.331053 0.072192
Si Si4 0.089939 0.787905 0.377256
Si Si5 0.808871 0.586438 0.797645
Si Si6 0.724092 0.914327 0.240275
Si Si7 0.711526 0.586545 0.324920
O O1 0.865673 0.865673 0.080753
O O2 0.876310 0.713414 0.072756
O O3 0.906995 0.783310 0.181029
O O4 0.000000 0.798147 0.079003
O O5 0.365068 0.200917 0.500000
O O6 0.261745 0.261745 0.578975
O O7 0.286695 0.117009 0.582192
O O8 0.390615 0.217962 0.627185
O O9 0.729829 0.270172 0.088687
O O10 0.788691 0.396615 0.126796
O O11 0.784325 0.367375 0.000000
O O12 0.135100 0.864901 0.398725
O O13 0.113737 0.770430 0.302867
O O14 0.000000 0.801716 0.388189
O O15 0.841373 0.500000 0.793656
O O16 0.869694 0.646175 0.771484
O O17 0.735323 0.594716 0.750852
O O18 0.695846 0.000000 0.250955
O O19 0.688482 0.500000 0.341103
O O20 0.637624 0.637624 0.338808
#
# Coordination Sequence:
#
# PCOD8312567 Si02
#       7
#    16  16  16  16  16  16  16
#     4   9  17  28  44  66  92 124 163 206 252 302
#     4   9  18  33  53  75 101 136 176 213 248 298
#     4   9  18  32  49  68  94 130 166 200 242 296
#     4  10  19  31  50  75 104 139 177 217 260 304
#     4  10  19  31  51  77 101 127 162 206 252 298
#     4   9  17  30  47  68  96 131 167 205 253 307
#     4  10  20  34  54  80 107 135 168 208 255 307
#
# _framework density 17.858504
#
# number of rings (size 3 to 8) (size 9 to 14) (size 15 to 20)
#    0.000    2.571    1.429    0.857    0.000    3.000 
#    0.000    0.000    0.000    3.000    0.000   11.000 
#    0.000    0.000    0.000   13.286    0.000    0.000 
#
# Total GULP energy -1388234.586118 kJ/mol
# GULP energy per Si atom -12394.951662 kJ/mol
# Density = 1.781786 g / cm^3
# Si number density = 17.858504 Si / 1000 Ang^3
#
#
#
# Elastic Constant Matrix: (Units=GPa)
#
#
# Indices 1 2 3 4 5 6 
#
# 1 82.6533 48.4891 25.9302 0.0000 0.0000 0.0000
# 2 48.4891 82.6533 25.9302 0.0000 0.0000 0.0000
# 3 25.9302 25.9302 90.0042 0.0000 0.0000 0.0000
# 4 0.0000 0.0000 0.0000 15.8328 0.0000 0.0000
# 5 0.0000 0.0000 0.0000 0.0000 15.8328 0.0000
# 6 0.0000 0.0000 0.0000 0.0000 0.0000 17.8524
#
#
#
# Elastic Compliance Matrix: (Units=1/GPa)
#
#
# Indices 1 2 3 4 5 6 
#
# 1 0.018938 -0.010332 -0.002479 0.000000 0.000000 0.000000
# 2 -0.010332 0.018938 -0.002479 0.000000 0.000000 0.000000
# 3 -0.002479 -0.002479 0.012539 0.000000 0.000000 0.000000
# 4 0.000000 0.000000 0.000000 0.063160 0.000000 0.000000
# 5 0.000000 0.000000 0.000000 0.000000 0.063160 0.000000
# 6 0.000000 0.000000 0.000000 0.000000 0.000000 0.056015
#
#
# Mechanical properties :
#
#
# Convention : Reuss Voigt Hill
#
# Bulk Modulus (GPa) = 50.41997 50.66775 50.54386
# Shear Modulus (GPa) = 18.52240 20.23434 19.37837
#
# Velocity S-wave (km/s) = 3.22401 3.36971 3.29767
# Velocity P-wave (km/s) = 6.49256 6.60101 6.54701
#
# Compressibility (1/GPa) = 0.01983341
#
# Stress axis : x y z
#
# Youngs Moduli (GPa) = 52.80359 52.80359 79.75006
#
# Poissons Ratio (x) = 0.54559 0.19773
# Poissons Ratio (y) = 0.54559 0.19773
# Poissons Ratio (z) = 0.13092 0.13092
#
# Static dielectric constant tensor:
#      x y z
#    x 3.122360 0.000000 0.000000 
#    y 0.000000 3.122360 0.000000 
#    z 0.000000 0.000000 3.474660 
# 
# 
# High freq. dielectric constant tensor:
#      x y z
#    x 1.671040 0.000000 0.000000 
#    y 0.000000 1.671040 0.000000 
#    z 0.000000 0.000000 1.702010 
# 
# From -- ./inp_files/6677.got.cif
#   From: 2010.03.12/outbox.cif.g09.slc.cpg/sg123_4_cif.got.tgz:6677.got - 2010.04.06 16:26:55.
