data_PCOD8312324
_publ_section_title
;
Structure prediction by ZEFSAII (Michael W. Deem and Ramdas Pophale) SiO2 
 PCOD8312324
Probable space group: P 4/M M M
;
_chemical_formula_sum "Si O2"
_cell_formula_units_Z 88
_cell_length_a 13.936835
_cell_length_b 13.936835
_cell_length_c 28.822546
_cell_angle_alpha 90.000000
_cell_angle_beta 90.000000
_cell_angle_gamma 90.000000
_cell_volume 5598.357881
_symmetry_space_group_name_H-M "P 4/M M M"
_symmetry_group_IT_number 123
_symmetry_cell_setting 'tetragonal'
loop_
_space_group_symop_operation_xyz
x,y,z
-y,x,z
-x,-y,z
y,-x,z
x,-y,-z
-x,y,-z
y,x,-z
-y,-x,-z
-x,-y,-z
y,-x,-z
x,y,-z
-y,x,-z
-x,y,z
x,-y,z
-y,-x,z
y,x,z
loop_
_atom_site_type_symbol
_atom_site_label
_atom_site_fract_x
_atom_site_fract_y
_atom_site_fract_z
Si Si1 0.390378 0.110315 0.822923
Si Si2 0.885999 0.607486 0.549097
Si Si3 0.112637 0.731354 0.912730
Si Si4 0.113669 0.392535 0.000000
Si Si5 0.387471 0.766237 0.733847
Si Si6 0.107795 0.385151 0.648452
O O1 0.500000 0.130010 0.837882
O O2 0.322990 0.138575 0.865489
O O3 0.360319 0.172955 0.779018
O O4 0.376732 0.000000 0.808594
O O5 0.854240 0.659496 0.500000
O O6 0.844541 0.500000 0.546990
O O7 0.852753 0.654905 0.598165
O O8 0.000000 0.603383 0.551445
O O9 0.167929 0.832071 0.914502
O O10 0.148577 0.664030 0.954560
O O11 0.000000 0.754297 0.916759
O O12 0.158092 0.500000 0.000000
O O13 0.000000 0.400638 0.000000
O O14 0.500000 0.746470 0.730482
O O15 0.336012 0.663989 0.736386
O O16 0.348242 0.823423 0.689103
O O17 0.106463 0.500000 0.647034
O O18 0.000000 0.347284 0.658314
#
# Coordination Sequence:
#
# PCOD8312324 Si02
#       6
#    16  16  16   8  16  16
#     4   9  17  30  48  67  84 103 132 175 222 256
#     4   7   9  14  27  49  74  95 115 145 191 245
#     4  10  19  30  45  66  93 121 145 169 200 246
#     4   9  17  30  47  65  85 111 145 183 215 234
#     4  10  19  29  41  57  79 107 138 171 205 244
#     4   8  13  22  37  56  76  97 123 159 203 245
#
# _framework density 15.718895
#
# number of rings (size 3 to 8) (size 9 to 14) (size 15 to 20)
#    0.000    3.182    0.000    3.545    0.000    4.727 
#    0.000    0.000    0.000    2.182    0.000    0.000 
#    0.000   17.091    0.000    7.091    0.000    0.364 
#
# Total GULP energy -1090181.129082 kJ/mol
# GULP energy per Si atom -12388.421921 kJ/mol
# Density = 1.568312 g / cm^3
# Si number density = 15.718895 Si / 1000 Ang^3
#
#
#
# Elastic Constant Matrix: (Units=GPa)
#
#
# Indices 1 2 3 4 5 6 
#
# 1 53.7772 36.3692 48.8702 0.0000 0.0000 0.0000
# 2 36.3692 53.7772 48.8702 0.0000 0.0000 0.0000
# 3 48.8702 48.8702 154.3070 0.0000 0.0000 0.0000
# 4 0.0000 0.0000 0.0000 6.5890 0.0000 0.0000
# 5 0.0000 0.0000 0.0000 0.0000 6.5890 0.0000
# 6 0.0000 0.0000 0.0000 0.0000 0.0000 18.8811
#
#
#
# Elastic Compliance Matrix: (Units=1/GPa)
#
#
# Indices 1 2 3 4 5 6 
#
# 1 0.037170 -0.020275 -0.005351 0.000000 0.000000 0.000000
# 2 -0.020275 0.037170 -0.005351 0.000000 0.000000 0.000000
# 3 -0.005351 -0.005351 0.009870 0.000000 0.000000 0.000000
# 4 0.000000 0.000000 0.000000 0.151767 0.000000 0.000000
# 5 0.000000 0.000000 0.000000 0.000000 0.151767 0.000000
# 6 0.000000 0.000000 0.000000 0.000000 0.000000 0.052963
#
#
# Mechanical properties :
#
#
# Convention : Reuss Voigt Hill
#
# Bulk Modulus (GPa) = 44.93135 58.89785 51.91460
# Shear Modulus (GPa) = 9.80243 14.92863 12.36553
#
# Velocity S-wave (km/s) = 2.49992 3.08510 2.80780
# Velocity P-wave (km/s) = 6.08105 7.08811 6.60380
#
# Compressibility (1/GPa) = 0.02225617
#
# Stress axis : x y z
#
# Youngs Moduli (GPa) = 26.90364 26.90364 101.31996
#
# Poissons Ratio (x) = 0.54548 0.54212
# Poissons Ratio (y) = 0.54548 0.54212
# Poissons Ratio (z) = 0.14395 0.14395
#
# Static dielectric constant tensor:
#      x y z
#    x 2.639300 0.000000 0.000000 
#    y 0.000000 2.639300 0.000000 
#    z 0.000000 0.000000 3.516730 
# 
# 
# High freq. dielectric constant tensor:
#      x y z
#    x 1.562650 0.000000 0.000000 
#    y 0.000000 1.562650 0.000000 
#    z 0.000000 0.000000 1.634680 
# 
# From -- ./inp_files/7988.got.cif
#   From: 2010.03.12/outbox.cif.g09.slc.cpg/sg123_4_cif.got.tgz:7988.got - 2010.04.06 16:26:55.
