data_PCOD8312679
_publ_section_title
;
Structure prediction by ZEFSAII (Michael W. Deem and Ramdas Pophale) SiO2 
 PCOD8312679
Probable space group: P 4/M M M
;
_chemical_formula_sum "Si O2"
_cell_formula_units_Z 88
_cell_length_a 13.775305
_cell_length_b 13.775305
_cell_length_c 27.954550
_cell_angle_alpha 90.000000
_cell_angle_beta 90.000000
_cell_angle_gamma 90.000000
_cell_volume 5304.628232
_symmetry_space_group_name_H-M "P 4/M M M"
_symmetry_group_IT_number 123
_symmetry_cell_setting 'tetragonal'
loop_
_space_group_symop_operation_xyz
x,y,z
-y,x,z
-x,-y,z
y,-x,z
x,-y,-z
-x,y,-z
y,x,-z
-y,-x,-z
-x,-y,-z
y,-x,-z
x,y,-z
-y,x,-z
-x,y,z
x,-y,z
-y,-x,z
y,x,z
loop_
_atom_site_type_symbol
_atom_site_label
_atom_site_fract_x
_atom_site_fract_y
_atom_site_fract_z
Si Si1 0.114470 0.270679 0.142645
Si Si2 0.112890 0.726832 0.396144
Si Si3 0.389449 0.232464 0.325417
Si Si4 0.735915 0.890527 0.500000
Si Si5 0.611835 0.230841 0.215326
Si Si6 0.115118 0.391776 0.947079
O O1 0.167802 0.167802 0.149631
O O2 0.141944 0.344743 0.184982
O O3 0.152191 0.316955 0.092808
O O4 0.000000 0.251471 0.143482
O O5 0.174898 0.825103 0.388275
O O6 0.143388 0.645767 0.357990
O O7 0.132468 0.680884 0.449722
O O8 0.000000 0.752194 0.388477
O O9 0.500000 0.257280 0.337563
O O10 0.328927 0.328927 0.337446
O O11 0.376645 0.200759 0.270514
O O12 0.837058 0.837058 0.500000
O O13 0.769023 0.000000 0.500000
O O14 0.500000 0.248574 0.201532
O O15 0.669912 0.330089 0.204002
O O16 0.156360 0.500000 0.936755
O O17 0.000000 0.396271 0.944866
O O18 0.148987 0.357017 0.000000
#
# Coordination Sequence:
#
# PCOD8312679 Si02
#       6
#    16  16  16   8  16  16
#     4  10  20  32  46  65  91 124 161 198 231 265
#     4   9  17  29  45  66  92 120 151 186 223 265
#     4   9  18  32  49  69  92 117 146 182 224 270
#     4   8  14  25  41  61  86 116 148 184 225 264
#     4   9  18  32  50  72  94 115 143 181 227 278
#     4   8  14  26  45  67  88 111 143 185 231 274
#
# _framework density 16.589286000000001
#
# number of rings (size 3 to 8) (size 9 to 14) (size 15 to 20)
#    0.000    3.091    0.000    1.091    0.000    3.364 
#    0.000    5.909    0.000    1.636    0.000    7.636 
#    0.000    3.636    0.000   16.909    0.000    1.091 
#
# Total GULP energy -1090536.075899 kJ/mol
# GULP energy per Si atom -12392.455408 kJ/mol
# Density = 1.655153 g / cm^3
# Si number density = 16.589286 Si / 1000 Ang^3
#
#
#
# Elastic Constant Matrix: (Units=GPa)
#
#
# Indices 1 2 3 4 5 6 
#
# 1 84.6505 35.1829 52.0384 0.0000 0.0000 0.0000
# 2 35.1829 84.6505 52.0384 0.0000 0.0000 0.0000
# 3 52.0384 52.0384 103.0647 0.0000 0.0000 0.0000
# 4 0.0000 0.0000 0.0000 24.3608 0.0000 0.0000
# 5 0.0000 0.0000 0.0000 0.0000 24.3608 0.0000
# 6 0.0000 0.0000 0.0000 0.0000 0.0000 11.2112
#
#
#
# Elastic Compliance Matrix: (Units=1/GPa)
#
#
# Indices 1 2 3 4 5 6 
#
# 1 0.017539 -0.002676 -0.007504 0.000000 0.000000 0.000000
# 2 -0.002676 0.017539 -0.007504 0.000000 0.000000 0.000000
# 3 -0.007504 -0.007504 0.017280 0.000000 0.000000 0.000000
# 4 0.000000 0.000000 0.000000 0.041050 0.000000 0.000000
# 5 0.000000 0.000000 0.000000 0.000000 0.041050 0.000000
# 6 0.000000 0.000000 0.000000 0.000000 0.000000 0.089196
#
#
# Mechanical properties :
#
#
# Convention : Reuss Voigt Hill
#
# Bulk Modulus (GPa) = 58.86301 61.20946 60.03623
# Shear Modulus (GPa) = 18.89030 20.86029 19.87529
#
# Velocity S-wave (km/s) = 3.37813 3.54991 3.46508
# Velocity P-wave (km/s) = 7.12568 7.33345 7.23031
#
# Compressibility (1/GPa) = 0.01698860
#
# Stress axis : x y z
#
# Youngs Moduli (GPa) = 57.01641 57.01641 57.86870
#
# Poissons Ratio (x) = 0.15260 0.43426
# Poissons Ratio (y) = 0.15260 0.43426
# Poissons Ratio (z) = 0.42786 0.42786
#
# Static dielectric constant tensor:
#      x y z
#    x 2.945110 0.000000 0.000000 
#    y 0.000000 2.945110 0.000000 
#    z 0.000000 0.000000 3.535340 
# 
# 
# High freq. dielectric constant tensor:
#      x y z
#    x 1.619890 0.000000 0.000000 
#    y 0.000000 1.619890 0.000000 
#    z 0.000000 0.000000 1.655770 
# 
# From -- ./inp_files/7172.got.cif
#   From: 2010.03.12/outbox.cif.g09.slc.cpg/sg123_4_cif.got.tgz:7172.got - 2010.04.06 16:26:55.
