data_PCOD8312379
_publ_section_title
;
Structure prediction by ZEFSAII (Michael W. Deem and Ramdas Pophale) SiO2 
 PCOD8312379
Probable space group: P 4/M M M
;
_chemical_formula_sum "Si O2"
_cell_formula_units_Z 80
_cell_length_a 20.531706
_cell_length_b 20.531706
_cell_length_c 14.539655
_cell_angle_alpha 90.000000
_cell_angle_beta 90.000000
_cell_angle_gamma 90.000000
_cell_volume 6129.205396
_symmetry_space_group_name_H-M "P 4/M M M"
_symmetry_group_IT_number 123
_symmetry_cell_setting 'tetragonal'
loop_
_space_group_symop_operation_xyz
x,y,z
-y,x,z
-x,-y,z
y,-x,z
x,-y,-z
-x,y,-z
y,x,-z
-y,-x,-z
-x,-y,-z
y,-x,-z
x,y,-z
-y,x,-z
-x,y,z
x,-y,z
-y,-x,z
y,x,z
loop_
_atom_site_type_symbol
_atom_site_label
_atom_site_fract_x
_atom_site_fract_y
_atom_site_fract_z
Si Si1 0.071342 0.576961 0.284230
Si Si2 0.426517 0.678368 0.709766
Si Si3 0.618618 0.278998 0.102114
Si Si4 0.575056 0.138644 0.897975
Si Si5 0.422482 0.193625 0.603718
O O1 0.069492 0.500000 0.296979
O O2 0.085439 0.594762 0.177668
O O3 0.127832 0.606205 0.349577
O O4 0.000000 0.606022 0.309915
O O5 0.500000 0.662876 0.678116
O O6 0.381787 0.618214 0.678652
O O7 0.426045 0.688049 0.819957
O O8 0.399007 0.743357 0.660473
O O9 0.691945 0.308056 0.111047
O O10 0.620823 0.201467 0.116092
O O11 0.589899 0.294823 0.000000
O O12 0.500000 0.161164 0.883587
O O13 0.584754 0.108538 0.000000
O O14 0.395621 0.197836 0.500000
O O15 0.500000 0.190928 0.605425
#
# Coordination Sequence:
#
# PCOD8312379 Si02
#       5
#    16  16  16  16  16
#     4   9  16  25  37  54  74  92 112 138 169 211
#     4  10  19  30  43  57  73  93 119 152 191 233
#     4   9  16  25  39  57  73  92 119 148 180 220
#     4   9  15  23  36  52  73  97 116 139 174 214
#     4   9  17  29  42  54  69  89 114 144 180 220
#
# _framework density 13.052263
#
# number of rings (size 3 to 8) (size 9 to 14) (size 15 to 20)
#    0.000    2.800    2.000    0.600    0.000    2.600 
#    0.000    4.000    0.000    0.000    0.000    5.600 
#    0.000    0.000    0.000    0.000    0.000    0.000 
#
# Total GULP energy -991343.254942 kJ/mol
# GULP energy per Si atom -12391.790687 kJ/mol
# Density = 1.302256 g / cm^3
# Si number density = 13.052263 Si / 1000 Ang^3
#
#
#
# Elastic Constant Matrix: (Units=GPa)
#
#
# Indices 1 2 3 4 5 6 
#
# 1 59.8544 30.2949 30.0896 0.0000 0.0000 0.0000
# 2 30.2949 59.8544 30.0896 0.0000 0.0000 0.0000
# 3 30.0896 30.0896 85.8938 0.0000 0.0000 0.0000
# 4 0.0000 0.0000 0.0000 10.8835 0.0000 0.0000
# 5 0.0000 0.0000 0.0000 0.0000 10.8835 0.0000
# 6 0.0000 0.0000 0.0000 0.0000 0.0000 3.4206
#
#
#
# Elastic Compliance Matrix: (Units=1/GPa)
#
#
# Indices 1 2 3 4 5 6 
#
# 1 0.024154 -0.009676 -0.005072 0.000000 0.000000 0.000000
# 2 -0.009676 0.024154 -0.005072 0.000000 0.000000 0.000000
# 3 -0.005072 -0.005072 0.015196 0.000000 0.000000 0.000000
# 4 0.000000 0.000000 0.000000 0.091882 0.000000 0.000000
# 5 0.000000 0.000000 0.000000 0.000000 0.091882 0.000000
# 6 0.000000 0.000000 0.000000 0.000000 0.000000 0.292349
#
#
# Mechanical properties :
#
#
# Convention : Reuss Voigt Hill
#
# Bulk Modulus (GPa) = 41.90253 42.95008 42.42630
# Shear Modulus (GPa) = 8.51480 12.71275 10.61377
#
# Velocity S-wave (km/s) = 2.55691 3.12426 2.85472
# Velocity P-wave (km/s) = 6.39456 6.78177 6.59101
#
# Compressibility (1/GPa) = 0.02386491
#
# Stress axis : x y z
#
# Youngs Moduli (GPa) = 41.40055 41.40055 65.80752
#
# Poissons Ratio (x) = 0.40058 0.33378
# Poissons Ratio (y) = 0.40058 0.33378
# Poissons Ratio (z) = 0.20998 0.20998
#
# Static dielectric constant tensor:
#      x y z
#    x 2.452060 0.000000 0.000000 
#    y 0.000000 2.452060 0.000000 
#    z 0.000000 0.000000 2.861090 
# 
# 
# High freq. dielectric constant tensor:
#      x y z
#    x 1.456080 0.000000 0.000000 
#    y 0.000000 1.456080 0.000000 
#    z 0.000000 0.000000 1.514170 
# 
# From -- ./inp_files/4199.got.cif
#   From: 2010.03.12/outbox.cif.g09.slc.cpg/sg123_3_cif.got.tgz:4199.got - 2010.04.06 16:26:55.
