data_PCOD8312545
_publ_section_title
;
Structure prediction by ZEFSAII (Michael W. Deem and Ramdas Pophale) SiO2 
 PCOD8312545
Probable space group: P 4/M M M
;
_chemical_formula_sum "Si O2"
_cell_formula_units_Z 72
_cell_length_a 12.608731
_cell_length_b 12.608731
_cell_length_c 26.308328
_cell_angle_alpha 90.000000
_cell_angle_beta 90.000000
_cell_angle_gamma 90.000000
_cell_volume 4182.500549
_symmetry_space_group_name_H-M "P 4/M M M"
_symmetry_group_IT_number 123
_symmetry_cell_setting 'tetragonal'
loop_
_space_group_symop_operation_xyz
x,y,z
-y,x,z
-x,-y,z
y,-x,z
x,-y,-z
-x,y,-z
y,x,-z
-y,-x,-z
-x,-y,-z
y,-x,-z
x,y,-z
-y,x,-z
-x,y,z
x,-y,z
-y,-x,z
y,x,z
loop_
_atom_site_type_symbol
_atom_site_label
_atom_site_fract_x
_atom_site_fract_y
_atom_site_fract_z
Si Si1 0.500000 0.125928 0.232574
Si Si2 0.375169 0.789330 0.393776
Si Si3 0.374335 0.883112 0.500000
Si Si4 0.121557 0.293275 0.059231
Si Si5 0.121776 0.704351 0.293918
Si Si6 0.873990 0.500000 0.117818
O O1 0.393843 0.166413 0.260608
O O2 0.500000 0.169944 0.175196
O O3 0.500000 0.000000 0.233913
O O4 0.500000 0.781692 0.389070
O O5 0.326705 0.673296 0.382591
O O6 0.336104 0.823867 0.449479
O O7 0.329394 0.872418 0.352989
O O8 0.500000 0.890809 0.500000
O O9 0.323949 0.000000 0.500000
O O10 0.190788 0.190788 0.074025
O O11 0.167026 0.394588 0.089499
O O12 0.000000 0.267696 0.074263
O O13 0.130808 0.320503 0.000000
O O14 0.192582 0.807419 0.281776
O O15 0.000000 0.731867 0.280584
O O16 0.000000 0.500000 0.116337
#
# Coordination Sequence:
#
# PCOD8312545 Si02
#       6
#     8  16   8  16  16   8
#     4   9  18  33  52  71  95 127 167 209 250 296
#     4  10  19  31  48  71  99 131 167 207 252 302
#     4   9  17  28  45  67  91 123 163 207 250 298
#     4   9  17  29  47  73 104 136 169 206 249 295
#     4  10  20  34  53  75 100 130 164 205 251 300
#     4   9  17  30  49  71  95 130 171 209 245 289
#
# _framework density 17.214583000000001
#
# number of rings (size 3 to 8) (size 9 to 14) (size 15 to 20)
#    0.000    2.556    1.111    1.333    0.000    3.778 
#    0.000    1.111    0.000    2.667    0.000    9.333 
#    0.000    8.000    0.000    0.000    0.000    0.000 
#
# Total GULP energy -892663.660282 kJ/mol
# GULP energy per Si atom -12398.106393 kJ/mol
# Density = 1.717540 g / cm^3
# Si number density = 17.214583 Si / 1000 Ang^3
#
#
#
# Elastic Constant Matrix: (Units=GPa)
#
#
# Indices 1 2 3 4 5 6 
#
# 1 92.8420 60.2811 39.4362 0.0000 0.0000 0.0000
# 2 60.2811 92.8420 39.4362 0.0000 0.0000 0.0000
# 3 39.4362 39.4362 96.4622 0.0000 0.0000 0.0000
# 4 0.0000 0.0000 0.0000 17.5796 0.0000 0.0000
# 5 0.0000 0.0000 0.0000 0.0000 17.5796 0.0000
# 6 0.0000 0.0000 0.0000 0.0000 0.0000 14.8317
#
#
#
# Elastic Compliance Matrix: (Units=1/GPa)
#
#
# Indices 1 2 3 4 5 6 
#
# 1 0.019492 -0.011219 -0.003382 0.000000 0.000000 0.000000
# 2 -0.011219 0.019492 -0.003382 0.000000 0.000000 0.000000
# 3 -0.003382 -0.003382 0.013132 0.000000 0.000000 0.000000
# 4 0.000000 0.000000 0.000000 0.056884 0.000000 0.000000
# 5 0.000000 0.000000 0.000000 0.000000 0.056884 0.000000
# 6 0.000000 0.000000 0.000000 0.000000 0.000000 0.067423
#
#
# Mechanical properties :
#
#
# Convention : Reuss Voigt Hill
#
# Bulk Modulus (GPa) = 61.92243 62.27257 62.09750
# Shear Modulus (GPa) = 18.20444 19.53104 18.86774
#
# Velocity S-wave (km/s) = 3.25545 3.37198 3.31423
# Velocity P-wave (km/s) = 7.08376 7.17030 7.12716
#
# Compressibility (1/GPa) = 0.01614924
#
# Stress axis : x y z
#
# Youngs Moduli (GPa) = 51.30247 51.30247 76.14899
#
# Poissons Ratio (x) = 0.57559 0.25755
# Poissons Ratio (y) = 0.57559 0.25755
# Poissons Ratio (z) = 0.17351 0.17351
#
# Static dielectric constant tensor:
#      x y z
#    x 3.070320 0.000000 0.000000 
#    y 0.000000 3.070320 0.000000 
#    z 0.000000 0.000000 3.381810 
# 
# 
# High freq. dielectric constant tensor:
#      x y z
#    x 1.648200 0.000000 0.000000 
#    y 0.000000 1.648200 0.000000 
#    z 0.000000 0.000000 1.671530 
# 
# From -- ./inp_files/7926.got.cif
#   From: 2010.03.12/outbox.cif.g09.slc.cpg/sg123_4_cif.got.tgz:7926.got - 2010.04.06 16:26:55.
