data_PCOD8312744
_publ_section_title
;
Structure prediction by ZEFSAII (Michael W. Deem and Ramdas Pophale) SiO2 
 PCOD8312744
Probable space group: P 4/M M M
;
_chemical_formula_sum "Si O2"
_cell_formula_units_Z 104
_cell_length_a 18.014210
_cell_length_b 18.014210
_cell_length_c 17.800288
_cell_angle_alpha 90.000000
_cell_angle_beta 90.000000
_cell_angle_gamma 90.000000
_cell_volume 5776.402822
_symmetry_space_group_name_H-M "P 4/M M M"
_symmetry_group_IT_number 123
_symmetry_cell_setting 'tetragonal'
loop_
_space_group_symop_operation_xyz
x,y,z
-y,x,z
-x,-y,z
y,-x,z
x,-y,-z
-x,y,-z
y,x,-z
-y,-x,-z
-x,-y,-z
y,-x,-z
x,y,-z
-y,x,-z
-x,y,z
x,-y,z
-y,-x,z
y,x,z
loop_
_atom_site_type_symbol
_atom_site_label
_atom_site_fract_x
_atom_site_fract_y
_atom_site_fract_z
Si Si1 0.799877 0.912426 0.000000
Si Si2 0.304038 0.580963 0.911372
Si Si3 0.702748 0.415738 0.410455
Si Si4 0.302086 0.822397 0.416408
Si Si5 0.134623 0.415549 0.912679
Si Si6 0.727221 0.915915 0.149050
Si Si7 0.209588 0.911339 0.305529
O O1 0.760484 0.877993 0.073939
O O2 0.884951 0.884951 0.000000
O O3 0.797522 0.000000 0.000000
O O4 0.323709 0.500000 0.877680
O O5 0.357999 0.642002 0.873953
O O6 0.219846 0.601453 0.893362
O O7 0.315298 0.578448 0.000000
O O8 0.700466 0.416606 0.500000
O O9 0.699677 0.500000 0.378240
O O10 0.631588 0.368413 0.380581
O O11 0.780415 0.376207 0.385404
O O12 0.316562 0.854689 0.500000
O O13 0.238336 0.761665 0.419850
O O14 0.274690 0.890085 0.364208
O O15 0.113413 0.500000 0.893551
O O16 0.088474 0.362163 0.857607
O O17 0.116357 0.399287 0.000000
O O18 0.759832 0.881724 0.225315
O O19 0.753476 0.000000 0.150297
O O20 0.132206 0.867795 0.322207
O O21 0.195167 0.000000 0.309562
#
# Coordination Sequence:
#
# PCOD8312744 Si02
#       7
#     8  16  16  16  16  16  16
#     4  10  20  33  49  69  93 123 158 194 234 286
#     4   8  14  23  35  55  82 110 143 182 223 268
#     4   8  13  22  40  69 104 141 179 215 251 295
#     4   8  15  30  51  73  99 134 173 210 252 304
#     4   9  17  30  47  68  93 121 157 199 240 280
#     4  10  20  34  49  70  97 124 157 193 233 290
#     4  10  21  36  54  76 101 127 159 205 257 313
#
# _framework density 18.004286
#
# number of rings (size 3 to 8) (size 9 to 14) (size 15 to 20)
#    0.000    3.077    0.769    2.308    0.000    2.385 
#    0.000    3.077    0.000    4.154    0.000    4.308 
#    0.000    0.000    0.000    4.615    0.000    5.077 
#
# Total GULP energy -1288510.704345 kJ/mol
# GULP energy per Si atom -12389.526003 kJ/mol
# Density = 1.796331 g / cm^3
# Si number density = 18.004286 Si / 1000 Ang^3
#
#
#
# Elastic Constant Matrix: (Units=GPa)
#
#
# Indices 1 2 3 4 5 6 
#
# 1 77.5532 45.9639 33.1870 0.0000 0.0000 0.0000
# 2 45.9639 77.5532 33.1870 0.0000 0.0000 0.0000
# 3 33.1870 33.1870 67.2752 0.0000 0.0000 0.0000
# 4 0.0000 0.0000 0.0000 16.6199 0.0000 0.0000
# 5 0.0000 0.0000 0.0000 0.0000 16.6199 0.0000
# 6 0.0000 0.0000 0.0000 0.0000 0.0000 29.0274
#
#
#
# Elastic Compliance Matrix: (Units=1/GPa)
#
#
# Indices 1 2 3 4 5 6 
#
# 1 0.021336 -0.010320 -0.005434 0.000000 0.000000 0.000000
# 2 -0.010320 0.021336 -0.005434 0.000000 0.000000 0.000000
# 3 -0.005434 -0.005434 0.020226 0.000000 0.000000 0.000000
# 4 0.000000 0.000000 0.000000 0.060169 0.000000 0.000000
# 5 0.000000 0.000000 0.000000 0.000000 0.060169 0.000000
# 6 0.000000 0.000000 0.000000 0.000000 0.000000 0.034450
#
#
# Mechanical properties :
#
#
# Convention : Reuss Voigt Hill
#
# Bulk Modulus (GPa) = 48.73052 49.67305 49.20179
# Shear Modulus (GPa) = 18.73330 19.78968 19.26149
#
# Velocity S-wave (km/s) = 3.22916 3.31896 3.27437
# Velocity P-wave (km/s) = 6.40532 6.50667 6.45620
#
# Compressibility (1/GPa) = 0.02052102
#
# Stress axis : x y z
#
# Youngs Moduli (GPa) = 46.86842 46.86842 49.44151
#
# Poissons Ratio (x) = 0.48368 0.26868
# Poissons Ratio (y) = 0.48368 0.26868
# Poissons Ratio (z) = 0.25470 0.25470
#
# Static dielectric constant tensor:
#      x y z
#    x 3.435390 0.000000 0.000000 
#    y 0.000000 3.435390 0.000000 
#    z 0.000000 0.000000 3.242080 
# 
# 
# High freq. dielectric constant tensor:
#      x y z
#    x 1.690010 0.000000 0.000000 
#    y 0.000000 1.690010 0.000000 
#    z 0.000000 0.000000 1.657950 
# 
# From -- ./inp_files/5594.got.cif
#   From: 2010.03.12/outbox.cif.g09.slc.cpg/sg123_3_cif.got.tgz:5594.got - 2010.04.06 16:26:55.
