data_PCOD8312617
_publ_section_title
;
Structure prediction by ZEFSAII (Michael W. Deem and Ramdas Pophale) SiO2 
 PCOD8312617
Probable space group: P 4/M M M
;
_chemical_formula_sum "Si O2"
_cell_formula_units_Z 64
_cell_length_a 12.796542
_cell_length_b 12.796542
_cell_length_c 22.197517
_cell_angle_alpha 90.000000
_cell_angle_beta 90.000000
_cell_angle_gamma 90.000000
_cell_volume 3634.876420
_symmetry_space_group_name_H-M "P 4/M M M"
_symmetry_group_IT_number 123
_symmetry_cell_setting 'tetragonal'
loop_
_space_group_symop_operation_xyz
x,y,z
-y,x,z
-x,-y,z
y,-x,z
x,-y,-z
-x,y,-z
y,x,-z
-y,-x,-z
-x,-y,-z
y,-x,-z
x,y,-z
-y,x,-z
-x,y,z
x,-y,z
-y,-x,z
y,x,z
loop_
_atom_site_type_symbol
_atom_site_label
_atom_site_fract_x
_atom_site_fract_y
_atom_site_fract_z
Si Si1 0.286385 0.879475 0.114205
Si Si2 0.615158 0.877181 0.236758
Si Si3 0.790935 0.617492 0.000000
Si Si4 0.500000 0.876208 0.567807
Si Si5 0.123156 0.291606 0.363094
O O1 0.177904 0.822097 0.100421
O O2 0.336125 0.832167 0.175296
O O3 0.259252 0.000000 0.121750
O O4 0.364918 0.861891 0.058905
O O5 0.500000 0.827567 0.246965
O O6 0.689473 0.851952 0.292963
O O7 0.601989 0.000000 0.229882
O O8 0.749671 0.500000 0.000000
O O9 0.689500 0.689500 0.000000
O O10 0.500000 0.831570 0.500000
O O11 0.605449 0.838472 0.600943
O O12 0.500000 0.000000 0.568496
O O13 0.191297 0.191297 0.384366
O O14 0.000000 0.268261 0.374359
#
# Coordination Sequence:
#
# PCOD8312617 Si02
#       5
#    16  16   8   8  16
#     4  10  20  32  48  72 101 134 170 207 250 300
#     4   9  16  29  49  72  98 131 173 215 251 291
#     4  10  21  36  52  72  96 124 163 210 260 310
#     4   9  18  34  54  75 101 136 178 215 247 295
#     4  10  19  32  52  79 109 139 173 213 259 311
#
# _framework density 17.607201
#
# number of rings (size 3 to 8) (size 9 to 14) (size 15 to 20)
#    0.000    2.375    1.250    1.875    0.000    3.125 
#    0.000    0.000    0.000    7.125    0.000    4.375 
#    0.000    0.000    0.000    0.000    0.000    0.000 
#
# Total GULP energy -793425.904527 kJ/mol
# GULP energy per Si atom -12397.279758 kJ/mol
# Density = 1.756713 g / cm^3
# Si number density = 17.607201 Si / 1000 Ang^3
#
#
#
# Elastic Constant Matrix: (Units=GPa)
#
#
# Indices 1 2 3 4 5 6 
#
# 1 87.7126 46.3109 29.1369 0.0000 0.0000 0.0000
# 2 46.3109 87.7126 29.1369 0.0000 0.0000 0.0000
# 3 29.1369 29.1369 121.8252 0.0000 0.0000 0.0000
# 4 0.0000 0.0000 0.0000 17.9302 0.0000 0.0000
# 5 0.0000 0.0000 0.0000 0.0000 17.9302 0.0000
# 6 0.0000 0.0000 0.0000 0.0000 0.0000 15.2880
#
#
#
# Elastic Compliance Matrix: (Units=1/GPa)
#
#
# Indices 1 2 3 4 5 6 
#
# 1 0.016240 -0.007913 -0.001992 0.000000 0.000000 0.000000
# 2 -0.007913 0.016240 -0.001992 0.000000 0.000000 0.000000
# 3 -0.001992 -0.001992 0.009161 0.000000 0.000000 0.000000
# 4 0.000000 0.000000 0.000000 0.055772 0.000000 0.000000
# 5 0.000000 0.000000 0.000000 0.000000 0.055772 0.000000
# 6 0.000000 0.000000 0.000000 0.000000 0.000000 0.065411
#
#
# Mechanical properties :
#
#
# Convention : Reuss Voigt Hill
#
# Bulk Modulus (GPa) = 56.02470 56.26887 56.14678
# Shear Modulus (GPa) = 20.13373 23.07404 21.60388
#
# Velocity S-wave (km/s) = 3.38523 3.62399 3.50664
# Velocity P-wave (km/s) = 6.86789 7.03835 6.95364
#
# Compressibility (1/GPa) = 0.01784927
#
# Stress axis : x y z
#
# Youngs Moduli (GPa) = 61.57451 61.57451 109.15634
#
# Poissons Ratio (x) = 0.48725 0.21740
# Poissons Ratio (y) = 0.48725 0.21740
# Poissons Ratio (z) = 0.12264 0.12264
#
# Static dielectric constant tensor:
#      x y z
#    x 3.052570 0.000000 0.000000 
#    y 0.000000 3.052570 0.000000 
#    z 0.000000 0.000000 3.565760 
# 
# 
# High freq. dielectric constant tensor:
#      x y z
#    x 1.659300 0.000000 0.000000 
#    y 0.000000 1.659300 0.000000 
#    z 0.000000 0.000000 1.694490 
# 
# From -- ./inp_files/7005.got.cif
#   From: 2010.03.12/outbox.cif.g09.slc.cpg/sg123_4_cif.got.tgz:7005.got - 2010.04.06 16:26:55.
