data_PCOD8312606
_publ_section_title
;
Structure prediction by ZEFSAII (Michael W. Deem and Ramdas Pophale) SiO2 
 PCOD8312606
Probable space group: P 4/M M M
;
_chemical_formula_sum "Si O2"
_cell_formula_units_Z 64
_cell_length_a 12.566065
_cell_length_b 12.566065
_cell_length_c 23.544722
_cell_angle_alpha 90.000000
_cell_angle_beta 90.000000
_cell_angle_gamma 90.000000
_cell_volume 3717.852627
_symmetry_space_group_name_H-M "P 4/M M M"
_symmetry_group_IT_number 123
_symmetry_cell_setting 'tetragonal'
loop_
_space_group_symop_operation_xyz
x,y,z
-y,x,z
-x,-y,z
y,-x,z
x,-y,-z
-x,y,-z
y,x,-z
-y,-x,-z
-x,-y,-z
y,-x,-z
x,y,-z
-y,x,-z
-x,y,z
x,-y,z
-y,-x,z
y,x,z
loop_
_atom_site_type_symbol
_atom_site_label
_atom_site_fract_x
_atom_site_fract_y
_atom_site_fract_z
Si Si1 0.379782 0.792509 0.782971
Si Si2 0.794007 0.621742 0.563161
Si Si3 0.171780 0.000000 0.067049
Si Si4 0.377305 0.000000 0.142634
Si Si5 0.289552 0.119705 0.328195
O O1 0.500000 0.752264 0.791797
O O2 0.301160 0.698841 0.802961
O O3 0.364160 0.820147 0.716798
O O4 0.355975 0.896471 0.819753
O O5 0.840709 0.644802 0.500000
O O6 0.762242 0.500000 0.569968
O O7 0.686156 0.686156 0.574332
O O8 0.880538 0.654498 0.610119
O O9 0.290499 0.000000 0.092636
O O10 0.105063 0.894938 0.085906
O O11 0.186444 0.000000 0.000000
O O12 0.500000 0.000000 0.119401
O O13 0.174423 0.174423 0.331308
O O14 0.271182 0.000000 0.308180
#
# Coordination Sequence:
#
# PCOD8312606 Si02
#       5
#    16  16   8   8  16
#     4  10  20  33  50  73 100 132 167 204 250 298
#     4   9  18  31  47  68  91 117 151 191 239 294
#     4   9  18  33  53  77 107 141 172 206 250 294
#     4  10  19  32  52  76 104 136 171 211 247 288
#     4  10  20  34  50  67  92 122 155 200 247 294
#
# _framework density 17.214237000000001
#
# number of rings (size 3 to 8) (size 9 to 14) (size 15 to 20)
#    0.000    2.375    1.250    1.875    0.000    3.000 
#    0.000    2.500    0.000    4.500    0.000    3.500 
#    0.000    0.000    0.000   23.250    0.000    0.000 
#
# Total GULP energy -793454.016357 kJ/mol
# GULP energy per Si atom -12397.719006 kJ/mol
# Density = 1.717506 g / cm^3
# Si number density = 17.214237 Si / 1000 Ang^3
#
#
#
# Elastic Constant Matrix: (Units=GPa)
#
#
# Indices 1 2 3 4 5 6 
#
# 1 111.1107 57.0724 35.7542 0.0000 0.0000 0.0000
# 2 57.0724 111.1107 35.7542 0.0000 0.0000 0.0000
# 3 35.7542 35.7542 62.6957 0.0000 0.0000 0.0000
# 4 0.0000 0.0000 0.0000 25.7680 0.0000 0.0000
# 5 0.0000 0.0000 0.0000 0.0000 25.7680 0.0000
# 6 0.0000 0.0000 0.0000 0.0000 0.0000 19.2771
#
#
#
# Elastic Compliance Matrix: (Units=1/GPa)
#
#
# Indices 1 2 3 4 5 6 
#
# 1 0.013177 -0.005328 -0.004476 0.000000 0.000000 0.000000
# 2 -0.005328 0.013177 -0.004476 0.000000 0.000000 0.000000
# 3 -0.004476 -0.004476 0.021055 0.000000 0.000000 0.000000
# 4 0.000000 0.000000 0.000000 0.038808 0.000000 0.000000
# 5 0.000000 0.000000 0.000000 0.000000 0.038808 0.000000
# 6 0.000000 0.000000 0.000000 0.000000 0.000000 0.051875
#
#
# Mechanical properties :
#
#
# Convention : Reuss Voigt Hill
#
# Bulk Modulus (GPa) = 53.05366 60.23098 56.64232
# Shear Modulus (GPa) = 23.61336 24.58504 24.09920
#
# Velocity S-wave (km/s) = 3.70771 3.78323 3.74566
# Velocity P-wave (km/s) = 7.01541 7.35858 7.18905
#
# Compressibility (1/GPa) = 0.01884884
#
# Stress axis : x y z
#
# Youngs Moduli (GPa) = 75.88833 75.88833 47.49368
#
# Poissons Ratio (x) = 0.40434 0.21259
# Poissons Ratio (y) = 0.40434 0.21259
# Poissons Ratio (z) = 0.33969 0.33969
#
# Static dielectric constant tensor:
#      x y z
#    x 3.154630 0.000000 0.000000 
#    y 0.000000 3.154630 0.000000 
#    z 0.000000 0.000000 3.147190 
# 
# 
# High freq. dielectric constant tensor:
#      x y z
#    x 1.661520 0.000000 0.000000 
#    y 0.000000 1.661520 0.000000 
#    z 0.000000 0.000000 1.656000 
# 
# From -- ./inp_files/7036.got.cif
#   From: 2010.03.12/outbox.cif.g09.slc.cpg/sg123_4_cif.got.tgz:7036.got - 2010.04.06 16:26:55.
