data_PCOD8312718
_publ_section_title
;
Structure prediction by ZEFSAII (Michael W. Deem and Ramdas Pophale) SiO2 
 PCOD8312718
Probable space group: P 4/M M M
;
_chemical_formula_sum "Si O2"
_cell_formula_units_Z 104
_cell_length_a 18.226332
_cell_length_b 18.226332
_cell_length_c 19.498819
_cell_angle_alpha 90.000000
_cell_angle_beta 90.000000
_cell_angle_gamma 90.000000
_cell_volume 6477.491647
_symmetry_space_group_name_H-M "P 4/M M M"
_symmetry_group_IT_number 123
_symmetry_cell_setting 'tetragonal'
loop_
_space_group_symop_operation_xyz
x,y,z
-y,x,z
-x,-y,z
y,-x,z
x,-y,-z
-x,y,-z
y,x,-z
-y,-x,-z
-x,-y,-z
y,-x,-z
x,y,-z
-y,x,-z
-x,y,z
x,-y,z
-y,-x,z
y,x,z
loop_
_atom_site_type_symbol
_atom_site_label
_atom_site_fract_x
_atom_site_fract_y
_atom_site_fract_z
Si Si1 0.081227 0.802050 0.265677
Si Si2 0.291434 0.914099 0.137924
Si Si3 0.791526 0.913611 0.000000
Si Si4 0.770803 0.346235 0.577548
Si Si5 0.584493 0.850913 0.779641
Si Si6 0.702099 0.583365 0.294765
Si Si7 0.918535 0.341741 0.651327
O O1 0.132434 0.867567 0.289458
O O2 0.109388 0.768348 0.194215
O O3 0.083018 0.741801 0.324556
O O4 0.000000 0.834327 0.255846
O O5 0.258923 0.892693 0.064500
O O6 0.366823 0.870423 0.153534
O O7 0.309397 0.000000 0.143435
O O8 0.866471 0.866471 0.000000
O O9 0.813330 0.000000 0.000000
O O10 0.758616 0.373690 0.500000
O O11 0.735169 0.264832 0.587914
O O12 0.729868 0.402290 0.627975
O O13 0.857837 0.347806 0.592032
O O14 0.500000 0.863957 0.798911
O O15 0.599815 0.766906 0.758914
O O16 0.605082 0.902547 0.715464
O O17 0.675291 0.500000 0.290060
O O18 0.634324 0.634324 0.274205
O O19 0.000000 0.361307 0.622712
#
# Coordination Sequence:
#
# PCOD8312718 Si02
#       7
#    16  16   8  16  16  16  16
#     4   9  16  26  40  58  81 108 140 178 217 257
#     4   9  18  30  44  64  88 116 148 181 217 253
#     4  10  20  33  47  65  91 121 156 192 222 256
#     4   9  17  29  44  60  81 111 143 175 212 253
#     4   9  17  30  48  68  89 113 142 174 209 254
#     4   9  18  31  47  68  90 112 140 172 207 250
#     4   9  17  27  41  62  84 108 139 175 215 256
#
# _framework density 16.055596999999999
#
# number of rings (size 3 to 8) (size 9 to 14) (size 15 to 20)
#    0.000    2.923    0.000    2.308    0.000    6.538 
#    0.000    0.385    0.000    4.154    0.000    6.462 
#    0.000    0.000    0.000   14.308    0.000   12.923 
#
# Total GULP energy -1289287.360728 kJ/mol
# GULP energy per Si atom -12396.993853 kJ/mol
# Density = 1.601905 g / cm^3
# Si number density = 16.055597 Si / 1000 Ang^3
#
#
#
# Elastic Constant Matrix: (Units=GPa)
#
#
# Indices 1 2 3 4 5 6 
#
# 1 96.6214 58.4274 23.0485 0.0000 0.0000 0.0000
# 2 58.4274 96.6214 23.0485 0.0000 0.0000 0.0000
# 3 23.0485 23.0485 54.5648 0.0000 0.0000 0.0000
# 4 0.0000 0.0000 0.0000 16.1954 0.0000 0.0000
# 5 0.0000 0.0000 0.0000 0.0000 16.1954 0.0000
# 6 0.0000 0.0000 0.0000 0.0000 0.0000 23.1643
#
#
#
# Elastic Compliance Matrix: (Units=1/GPa)
#
#
# Indices 1 2 3 4 5 6 
#
# 1 0.016779 -0.009403 -0.003116 0.000000 0.000000 0.000000
# 2 -0.009403 0.016779 -0.003116 0.000000 0.000000 0.000000
# 3 -0.003116 -0.003116 0.020959 0.000000 0.000000 0.000000
# 4 0.000000 0.000000 0.000000 0.061746 0.000000 0.000000
# 5 0.000000 0.000000 0.000000 0.000000 0.061746 0.000000
# 6 0.000000 0.000000 0.000000 0.000000 0.000000 0.043170
#
#
# Mechanical properties :
#
#
# Convention : Reuss Voigt Hill
#
# Bulk Modulus (GPa) = 43.01402 50.76182 46.88792
# Shear Modulus (GPa) = 19.21620 20.66321 19.93971
#
# Velocity S-wave (km/s) = 3.46331 3.59134 3.52791
# Velocity P-wave (km/s) = 6.54534 6.99156 6.77213
#
# Compressibility (1/GPa) = 0.02324823
#
# Stress axis : x y z
#
# Youngs Moduli (GPa) = 59.59831 59.59831 47.71231
#
# Poissons Ratio (x) = 0.56041 0.14865
# Poissons Ratio (y) = 0.56041 0.14865
# Poissons Ratio (z) = 0.18569 0.18569
#
# Static dielectric constant tensor:
#      x y z
#    x 3.026420 0.000000 0.000000 
#    y 0.000000 3.026420 0.000000 
#    z 0.000000 0.000000 2.862550 
# 
# 
# High freq. dielectric constant tensor:
#      x y z
#    x 1.613310 0.000000 0.000000 
#    y 0.000000 1.613310 0.000000 
#    z 0.000000 0.000000 1.591180 
# 
# From -- ./inp_files/5648.got.cif
#   From: 2010.03.12/outbox.cif.g09.slc.cpg/sg123_3_cif.got.tgz:5648.got - 2010.04.06 16:26:55.
