data_PCOD8312402
_publ_section_title
;
Structure prediction by ZEFSAII (Michael W. Deem and Ramdas Pophale) SiO2 
 PCOD8312402
Probable space group: P 4/M M M
;
_chemical_formula_sum "Si O2"
_cell_formula_units_Z 96
_cell_length_a 25.939384
_cell_length_b 25.939384
_cell_length_c 7.944743
_cell_angle_alpha 90.000000
_cell_angle_beta 90.000000
_cell_angle_gamma 90.000000
_cell_volume 5345.633375
_symmetry_space_group_name_H-M "P 4/M M M"
_symmetry_group_IT_number 123
_symmetry_cell_setting 'tetragonal'
loop_
_space_group_symop_operation_xyz
x,y,z
-y,x,z
-x,-y,z
y,-x,z
x,-y,-z
-x,y,-z
y,x,-z
-y,-x,-z
-x,-y,-z
y,-x,-z
x,y,-z
-y,x,-z
-x,y,z
x,-y,z
-y,-x,z
y,x,z
loop_
_atom_site_type_symbol
_atom_site_label
_atom_site_fract_x
_atom_site_fract_y
_atom_site_fract_z
Si Si1 0.740067 0.659926 0.800098
Si Si2 0.400290 0.107658 0.692392
Si Si3 0.057140 0.856709 0.500000
Si Si4 0.000000 0.558599 0.699699
Si Si5 0.299120 0.848639 0.803718
Si Si6 0.190619 0.104564 0.187733
Si Si7 0.443662 0.213860 0.804939
O O1 0.688273 0.688273 0.728343
O O2 0.789274 0.694321 0.746904
O O3 0.749218 0.601656 0.727007
O O4 0.736173 0.657139 0.000000
O O5 0.418414 0.109937 0.500000
O O6 0.338886 0.114634 0.706024
O O7 0.429359 0.153793 0.787639
O O8 0.414826 0.052001 0.771843
O O9 0.096032 0.903969 0.500000
O O10 0.062957 0.822173 0.331430
O O11 0.000000 0.879922 0.500000
O O12 0.000000 0.500000 0.760590
O O13 0.000000 0.563891 0.500000
O O14 0.242301 0.866560 0.756861
O O15 0.311277 0.853935 0.000000
O O16 0.146165 0.146165 0.182117
O O17 0.195955 0.079255 0.000000
O O18 0.500000 0.224991 0.720979
O O19 0.447544 0.226540 0.000000
#
# Coordination Sequence:
#
# PCOD8312402 Si02
#       7
#    16  16   8   8  16  16  16
#     4   8  13  23  42  65  87 113 147 185 226 276
#     4  10  19  30  45  64  85 114 153 196 233 275
#     4  10  22  39  58  82 106 132 166 206 246 298
#     4   9  18  32  45  57  77 111 155 197 233 266
#     4   9  17  30  47  68  95 124 153 190 237 286
#     4   9  18  34  56  79 104 135 167 198 239 296
#     4   9  17  29  44  62  86 114 146 188 235 280
#
# _framework density 17.958583000000001
#
# number of rings (size 3 to 8) (size 9 to 14) (size 15 to 20)
#    0.000    2.917    0.000    2.500    1.167    3.417 
#    1.500    1.667    0.000    7.500    0.000    2.333 
#    0.000    0.333    0.000    4.667    0.000    0.000 
#
# Total GULP energy -1189508.025670 kJ/mol
# GULP energy per Si atom -12390.708601 kJ/mol
# Density = 1.791771 g / cm^3
# Si number density = 17.958583 Si / 1000 Ang^3
#
#
#
# Elastic Constant Matrix: (Units=GPa)
#
#
# Indices 1 2 3 4 5 6 
#
# 1 103.3904 39.1599 20.4363 0.0000 0.0000 0.0000
# 2 39.1599 103.3931 20.4365 0.0000 0.0000 0.0000
# 3 20.4363 20.4365 43.4424 0.0000 0.0000 0.0000
# 4 0.0000 0.0000 0.0000 14.0396 0.0000 0.0000
# 5 0.0000 0.0000 0.0000 0.0000 14.0397 0.0000
# 6 0.0000 0.0000 0.0000 0.0000 0.0000 -11.0304
#
#
#
# Elastic Compliance Matrix: (Units=1/GPa)
#
#
# Indices 1 2 3 4 5 6 
#
# 1 0.011839 -0.003730 -0.003815 0.000000 0.000000 0.000000
# 2 -0.003730 0.011838 -0.003814 0.000000 0.000000 0.000000
# 3 -0.003815 -0.003814 0.026608 0.000000 0.000000 0.000000
# 4 0.000000 0.000000 0.000000 0.071227 0.000000 0.000000
# 5 0.000000 0.000000 0.000000 0.000000 0.071227 0.000000
# 6 0.000000 0.000000 0.000000 0.000000 0.000000 -0.090659
#
#
# Mechanical properties :
#
#
# Convention : Reuss Voigt Hill
#
# Bulk Modulus (GPa) = 36.27506 45.58791 40.93149
# Shear Modulus (GPa) = 37.31686 14.75599 26.03643
#
# Velocity S-wave (km/s) = 4.56339 2.86958 3.81176
# Velocity P-wave (km/s) = 6.92886 6.03486 6.49726
#
# Compressibility (1/GPa) = 0.02756715
#
# Stress axis : x y z
#
# Youngs Moduli (GPa) = 84.46793 84.47021 37.58287
#
# Poissons Ratio (x) = 0.31507 0.14336
# Poissons Ratio (y) = 0.31506 0.14336
# Poissons Ratio (z) = 0.32221 0.32221
#
# Static dielectric constant tensor:
#      x y z
#    x 3.465910 0.000000 0.000000 
#    y 0.000000 3.465910 0.000000 
#    z 0.000000 0.000000 3.273930 
# 
# 
# High freq. dielectric constant tensor:
#      x y z
#    x 1.679630 0.000000 0.000000 
#    y 0.000000 1.679630 0.000000 
#    z 0.000000 0.000000 1.678660 
# 
# From -- ./inp_files/1717.got.cif
#   From: 2010.03.12/outbox.cif.g09.slc.cpg/sg123_1_cif.got.tgz:1717.got - 2010.04.06 16:26:55.
