data_PCOD8312056
_publ_section_title
;
Structure prediction by ZEFSAII (Michael W. Deem and Ramdas Pophale) SiO2 
 PCOD8312056
Probable space group: I -4 2 D
;
_chemical_formula_sum "Si O2"
_cell_formula_units_Z 56
_cell_length_a 18.728684
_cell_length_b 18.728684
_cell_length_c 7.336272
_cell_angle_alpha 90.000000
_cell_angle_beta 90.000000
_cell_angle_gamma 90.000000
_cell_volume 2573.297209
_symmetry_space_group_name_H-M "I -4 2 D"
_symmetry_group_IT_number 122
_symmetry_cell_setting 'tetragonal'
loop_
_space_group_symop_operation_xyz
x,y,z
y,-x,-z
-x,-y,z
-y,x,-z
x,1/2-y,1/4-z
-x,1/2+y,1/4-z
-y,1/2-x,1/4+z
y,1/2+x,1/4+z
1/2+x,1/2+y,1/2+z
1/2+y,1/2-x,1/2-z
1/2-x,1/2-y,1/2+z
1/2-y,1/2+x,1/2-z
1/2+x,-y,3/4-z
1/2-x,y,3/4-z
1/2-y,-x,3/4+z
1/2+y,x,3/4+z
loop_
_atom_site_type_symbol
_atom_site_label
_atom_site_fract_x
_atom_site_fract_y
_atom_site_fract_z
Si Si1 0.798537 0.172067 0.552667
Si Si2 0.250000 0.576604 0.375000
Si Si3 0.110151 0.525674 0.207622
Si Si4 0.415823 0.567739 0.941767
O O1 0.816712 0.250000 0.625000
O O2 0.750000 0.176937 0.375000
O O3 0.756638 0.126794 0.700934
O O4 0.874556 0.135311 0.519722
O O5 0.182279 0.526820 0.327805
O O6 0.080822 0.445349 0.203199
O O7 0.121244 0.546887 0.997918
O O8 0.499503 0.589145 0.920266
#
# Coordination Sequence:
#
# PCOD8312056 Si02
#       4
#    16   8  16  16
#     4  12  25  46  68  99 145 186 230 291 353 417
#     4  12  24  46  70 104 138 190 238 286 364 424
#     4  11  23  45  72 103 144 187 240 299 350 423
#     4  11  23  45  73 105 138 181 239 295 348 420
#
# _framework density 21.761963999999999
#
# number of rings (size 3 to 8) (size 9 to 14) (size 15 to 20)
#    0.000    0.571    4.286    6.857    0.000    1.143 
#   18.000    0.000    0.000    0.000    0.000    0.000 
#    0.000    0.000    0.000    0.000    0.000    0.000 
#
# Total GULP energy -347293.298158 kJ/mol
# GULP energy per Si atom -12403.332077 kJ/mol
# Density = 2.171243 g / cm^3
# Si number density = 21.761964 Si / 1000 Ang^3
#
#
#
# Elastic Constant Matrix: (Units=GPa)
#
#
# Indices 1 2 3 4 5 6 
#
# 1 144.5276 77.9572 41.0152 0.0000 0.0000 0.0000
# 2 77.9572 144.5276 41.0152 0.0000 0.0000 0.0000
# 3 41.0152 41.0152 112.2220 0.0000 0.0000 0.0000
# 4 0.0000 0.0000 0.0000 39.2265 0.0000 0.0000
# 5 0.0000 0.0000 0.0000 0.0000 39.2265 0.0000
# 6 0.0000 0.0000 0.0000 0.0000 0.0000 19.5621
#
#
#
# Elastic Compliance Matrix: (Units=1/GPa)
#
#
# Indices 1 2 3 4 5 6 
#
# 1 0.010108 -0.004913 -0.001899 0.000000 0.000000 0.000000
# 2 -0.004913 0.010108 -0.001899 0.000000 0.000000 0.000000
# 3 -0.001899 -0.001899 0.010299 0.000000 0.000000 0.000000
# 4 0.000000 0.000000 0.000000 0.025493 0.000000 0.000000
# 5 0.000000 0.000000 0.000000 0.000000 0.025493 0.000000
# 6 0.000000 0.000000 0.000000 0.000000 0.000000 0.051119
#
#
# Mechanical properties :
#
#
# Convention : Reuss Voigt Hill
#
# Bulk Modulus (GPa) = 76.37203 80.13916 78.25559
# Shear Modulus (GPa) = 32.38214 35.68900 34.03557
#
# Velocity S-wave (km/s) = 3.86167 4.05405 3.95903
# Velocity P-wave (km/s) = 7.41982 7.66936 7.54562
#
# Compressibility (1/GPa) = 0.01309380
#
# Stress axis : x y z
#
# Youngs Moduli (GPa) = 98.92965 98.92965 97.09965
#
# Poissons Ratio (x) = 0.48609 0.18435
# Poissons Ratio (y) = 0.48609 0.18435
# Poissons Ratio (z) = 0.18783 0.18783
#
# Static dielectric constant tensor:
#      x y z
#    x 3.836950 0.000000 0.000000 
#    y 0.000000 3.836950 0.000000 
#    z 0.000000 0.000000 4.178190 
# 
# 
# High freq. dielectric constant tensor:
#      x y z
#    x 1.850770 0.000000 0.000000 
#    y 0.000000 1.850770 0.000000 
#    z 0.000000 0.000000 1.877260 
# 
# From -- ./inp_files/2284.got.cif
#   From: 2010.03.12/outbox.cif.g09.slc.cpg/sg122_2_cif.got.tgz:2284.got - 2010.04.06 16:17:16.
