data_PCOD8312510
_publ_section_title
;
Structure prediction by ZEFSAII (Michael W. Deem and Ramdas Pophale) SiO2 
 PCOD8312510
Probable space group: P 4/M M M
;
_chemical_formula_sum "Si O2"
_cell_formula_units_Z 88
_cell_length_a 19.113660
_cell_length_b 19.113660
_cell_length_c 15.229463
_cell_angle_alpha 90.000000
_cell_angle_beta 90.000000
_cell_angle_gamma 90.000000
_cell_volume 5563.810155
_symmetry_space_group_name_H-M "P 4/M M M"
_symmetry_group_IT_number 123
_symmetry_cell_setting 'tetragonal'
loop_
_space_group_symop_operation_xyz
x,y,z
-y,x,z
-x,-y,z
y,-x,z
x,-y,-z
-x,y,-z
y,x,-z
-y,-x,-z
-x,-y,-z
y,-x,-z
x,y,-z
-y,x,-z
-x,y,z
x,-y,z
-y,-x,z
y,x,z
loop_
_atom_site_type_symbol
_atom_site_label
_atom_site_fract_x
_atom_site_fract_y
_atom_site_fract_z
Si Si1 0.305746 0.419954 0.599380
Si Si2 0.081084 0.658225 0.327123
Si Si3 0.920856 0.807971 0.601443
Si Si4 0.917226 0.577747 0.500000
Si Si5 0.581331 0.800310 0.750980
Si Si6 0.306541 0.420097 0.899572
O O1 0.277559 0.408816 0.500000
O O2 0.327933 0.500000 0.615963
O O3 0.374341 0.374341 0.617408
O O4 0.245482 0.397337 0.666442
O O5 0.094127 0.740619 0.338887
O O6 0.107418 0.618398 0.414022
O O7 0.129107 0.628144 0.248767
O O8 0.000000 0.642767 0.305903
O O9 0.909001 0.787111 0.500000
O O10 0.869784 0.869784 0.631798
O O11 0.000000 0.834545 0.615392
O O12 0.883525 0.500000 0.500000
O O13 0.000000 0.572970 0.500000
O O14 0.500000 0.821313 0.748805
O O15 0.600729 0.759050 0.839493
O O16 0.329138 0.500000 0.881420
O O17 0.373037 0.373037 0.874930
O O18 0.283183 0.408852 0.000000
#
# Coordination Sequence:
#
# PCOD8312510 Si02
#       6
#    16  16  16   8  16  16
#     4   9  18  30  42  59  85 117 153 189 222 261
#     4  10  19  31  45  64  89 118 154 192 226 266
#     4   9  17  29  43  60  84 113 147 188 231 273
#     4   9  16  26  41  60  83 115 153 190 225 254
#     4  10  20  31  45  65  90 118 149 187 230 276
#     4   9  18  33  52  73  96 121 152 193 239 284
#
# _framework density 15.816499
#
# number of rings (size 3 to 8) (size 9 to 14) (size 15 to 20)
#    0.000    2.636    0.909    1.091    1.273    3.091 
#    0.000    4.545    0.000    3.818    0.000    2.545 
#    0.000    0.000    0.000    0.000    0.000    0.000 
#
# Total GULP energy -1091192.539115 kJ/mol
# GULP energy per Si atom -12399.915217 kJ/mol
# Density = 1.578050 g / cm^3
# Si number density = 15.816499 Si / 1000 Ang^3
#
#
#
# Elastic Constant Matrix: (Units=GPa)
#
#
# Indices 1 2 3 4 5 6 
#
# 1 94.6958 65.2718 44.3696 0.0000 0.0000 0.0000
# 2 65.2718 94.6958 44.3696 0.0000 0.0000 0.0000
# 3 44.3696 44.3696 65.8391 0.0000 0.0000 0.0000
# 4 0.0000 0.0000 0.0000 20.1304 0.0000 0.0000
# 5 0.0000 0.0000 0.0000 0.0000 20.1304 0.0000
# 6 0.0000 0.0000 0.0000 0.0000 0.0000 30.9384
#
#
#
# Elastic Compliance Matrix: (Units=1/GPa)
#
#
# Indices 1 2 3 4 5 6 
#
# 1 0.021985 -0.012001 -0.006728 0.000000 0.000000 0.000000
# 2 -0.012001 0.021985 -0.006728 0.000000 0.000000 0.000000
# 3 -0.006728 -0.006728 0.024257 0.000000 0.000000 0.000000
# 4 0.000000 0.000000 0.000000 0.049676 0.000000 0.000000
# 5 0.000000 0.000000 0.000000 0.000000 0.049676 0.000000
# 6 0.000000 0.000000 0.000000 0.000000 0.000000 0.032322
#
#
# Mechanical properties :
#
#
# Convention : Reuss Voigt Hill
#
# Bulk Modulus (GPa) = 57.76428 62.58363 60.17396
# Shear Modulus (GPa) = 19.48669 20.98781 20.23725
#
# Velocity S-wave (km/s) = 3.51386 3.64669 3.58089
# Velocity P-wave (km/s) = 7.28449 7.57533 7.43133
#
# Compressibility (1/GPa) = 0.01731174
#
# Stress axis : x y z
#
# Youngs Moduli (GPa) = 45.48627 45.48627 41.22592
#
# Poissons Ratio (x) = 0.54589 0.27737
# Poissons Ratio (y) = 0.54589 0.27737
# Poissons Ratio (z) = 0.30603 0.30603
#
# Static dielectric constant tensor:
#      x y z
#    x 2.969590 0.000000 0.000000 
#    y 0.000000 2.969590 0.000000 
#    z 0.000000 0.000000 2.844970 
# 
# 
# High freq. dielectric constant tensor:
#      x y z
#    x 1.604890 0.000000 0.000000 
#    y 0.000000 1.604890 0.000000 
#    z 0.000000 0.000000 1.571480 
# 
# From -- ./inp_files/4119.got.cif
#   From: 2010.03.12/outbox.cif.g09.slc.cpg/sg123_3_cif.got.tgz:4119.got - 2010.04.06 16:26:55.
