data_PCOD8312200
_publ_section_title
;
Structure prediction by ZEFSAII (Michael W. Deem and Ramdas Pophale) SiO2 
 PCOD8312200
Probable space group: P 4/M M M
;
_chemical_formula_sum "Si O2"
_cell_formula_units_Z 128
_cell_length_a 17.666883
_cell_length_b 17.666883
_cell_length_c 24.986129
_cell_angle_alpha 90.000000
_cell_angle_beta 90.000000
_cell_angle_gamma 90.000000
_cell_volume 7798.639474
_symmetry_space_group_name_H-M "P 4/M M M"
_symmetry_group_IT_number 123
_symmetry_cell_setting 'tetragonal'
loop_
_space_group_symop_operation_xyz
x,y,z
-y,x,z
-x,-y,z
y,-x,z
x,-y,-z
-x,y,-z
y,x,-z
-y,-x,-z
-x,-y,-z
y,-x,-z
x,y,-z
-y,x,-z
-x,y,z
x,-y,z
-y,-x,z
y,x,z
loop_
_atom_site_type_symbol
_atom_site_label
_atom_site_fract_x
_atom_site_fract_y
_atom_site_fract_z
Si Si1 0.413027 0.710657 0.438595
Si Si2 0.709768 0.414484 0.137707
Si Si3 0.208529 0.087231 0.667045
Si Si4 0.670800 0.202951 0.354289
Si Si5 0.776297 0.347948 0.762796
Si Si6 0.322515 0.804380 0.939852
Si Si7 0.794165 0.085795 0.100882
Si Si8 0.083108 0.738404 0.784229
O O1 0.401750 0.734839 0.500000
O O2 0.500000 0.690611 0.426144
O O3 0.364087 0.635914 0.424687
O O4 0.387071 0.782921 0.403120
O O5 0.687140 0.500000 0.124621
O O6 0.636168 0.363833 0.126463
O O7 0.735199 0.409642 0.200033
O O8 0.779462 0.389843 0.099737
O O9 0.135444 0.135444 0.647098
O O10 0.287651 0.121065 0.642952
O O11 0.211679 0.095202 0.731101
O O12 0.200244 0.000000 0.648265
O O13 0.736525 0.263476 0.358044
O O14 0.624420 0.214792 0.298597
O O15 0.730830 0.269170 0.764864
O O16 0.858277 0.330641 0.787612
O O17 0.257210 0.742791 0.935262
O O18 0.285868 0.884153 0.922394
O O19 0.354863 0.810390 0.000000
O O20 0.864601 0.135400 0.079233
O O21 0.793314 0.091833 0.165125
O O22 0.805288 0.000000 0.081060
O O23 0.000000 0.700783 0.783696
#
# Coordination Sequence:
#
# PCOD8312200 Si02
#       8
#    16  16  16  16  16  16  16  16
#     4   9  17  29  46  69  96 124 153 186 225 268
#     4  10  20  33  51  73  94 115 140 176 225 279
#     4   9  16  25  40  64  93 124 157 193 234 277
#     4   8  15  27  44  65  90 123 162 196 221 255
#     4   9  15  27  46  65  90 122 158 190 217 259
#     4   9  18  33  51  67  84 113 155 192 218 258
#     4  10  18  28  45  68  95 125 156 190 226 264
#     4   9  15  24  42  66  92 121 154 190 226 263
#
# _framework density 16.413119999999999
#
# number of rings (size 3 to 8) (size 9 to 14) (size 15 to 20)
#    0.000    2.875    1.250    1.875    0.000    1.500 
#    0.000    0.625    0.000    4.500    0.000   12.250 
#    0.000    0.000    0.000    4.875    0.000    0.000 
#
# Total GULP energy -1586431.006719 kJ/mol
# GULP energy per Si atom -12393.992240 kJ/mol
# Density = 1.637576 g / cm^3
# Si number density = 16.413120 Si / 1000 Ang^3
#
#
#
# Elastic Constant Matrix: (Units=GPa)
#
#
# Indices 1 2 3 4 5 6 
#
# 1 83.6851 48.5113 37.2289 0.0000 0.0000 0.0000
# 2 48.5113 83.6851 37.2289 0.0000 0.0000 0.0000
# 3 37.2289 37.2289 74.7980 0.0000 0.0000 0.0000
# 4 0.0000 0.0000 0.0000 16.5560 0.0000 0.0000
# 5 0.0000 0.0000 0.0000 0.0000 16.5560 0.0000
# 6 0.0000 0.0000 0.0000 0.0000 0.0000 15.7763
#
#
#
# Elastic Compliance Matrix: (Units=1/GPa)
#
#
# Indices 1 2 3 4 5 6 
#
# 1 0.019471 -0.008960 -0.005232 0.000000 0.000000 0.000000
# 2 -0.008960 0.019471 -0.005232 0.000000 0.000000 0.000000
# 3 -0.005232 -0.005232 0.018577 0.000000 0.000000 0.000000
# 4 0.000000 0.000000 0.000000 0.060401 0.000000 0.000000
# 5 0.000000 0.000000 0.000000 0.000000 0.060401 0.000000
# 6 0.000000 0.000000 0.000000 0.000000 0.000000 0.063386
#
#
# Mechanical properties :
#
#
# Convention : Reuss Voigt Hill
#
# Bulk Modulus (GPa) = 53.55369 54.23403 53.89386
# Shear Modulus (GPa) = 17.43515 17.72428 17.57971
#
# Velocity S-wave (km/s) = 3.26278 3.28972 3.27628
# Velocity P-wave (km/s) = 6.84790 6.89526 6.87162
#
# Compressibility (1/GPa) = 0.01867285
#
# Stress axis : x y z
#
# Youngs Moduli (GPa) = 51.35921 51.35921 53.82939
#
# Poissons Ratio (x) = 0.46015 0.28162
# Poissons Ratio (y) = 0.46015 0.28162
# Poissons Ratio (z) = 0.26869 0.26869
#
# Static dielectric constant tensor:
#      x y z
#    x 2.972680 0.000000 0.000000 
#    y 0.000000 2.972680 0.000000 
#    z 0.000000 0.000000 3.196550 
# 
# 
# High freq. dielectric constant tensor:
#      x y z
#    x 1.609120 0.000000 0.000000 
#    y 0.000000 1.609120 0.000000 
#    z 0.000000 0.000000 1.623950 
# 
# From -- ./inp_files/7721.got.cif
#   From: 2010.03.12/outbox.cif.g09.slc.cpg/sg123_4_cif.got.tgz:7721.got - 2010.04.06 16:26:55.
