data_PCOD8312057
_publ_section_title
;
Structure prediction by ZEFSAII (Michael W. Deem and Ramdas Pophale) SiO2 
 PCOD8312057
Probable space group: I -4 2 D
;
_chemical_formula_sum "Si O2"
_cell_formula_units_Z 48
_cell_length_a 8.794072
_cell_length_b 8.794072
_cell_length_c 26.664241
_cell_angle_alpha 90.000000
_cell_angle_beta 90.000000
_cell_angle_gamma 90.000000
_cell_volume 2062.097805
_symmetry_space_group_name_H-M "I -4 2 D"
_symmetry_group_IT_number 122
_symmetry_cell_setting 'tetragonal'
loop_
_space_group_symop_operation_xyz
x,y,z
y,-x,-z
-x,-y,z
-y,x,-z
x,1/2-y,1/4-z
-x,1/2+y,1/4-z
-y,1/2-x,1/4+z
y,1/2+x,1/4+z
1/2+x,1/2+y,1/2+z
1/2+y,1/2-x,1/2-z
1/2-x,1/2-y,1/2+z
1/2-y,1/2+x,1/2-z
1/2+x,-y,3/4-z
1/2-x,y,3/4-z
1/2-y,-x,3/4+z
1/2+y,x,3/4+z
loop_
_atom_site_type_symbol
_atom_site_label
_atom_site_fract_x
_atom_site_fract_y
_atom_site_fract_z
Si Si1 0.446079 0.275041 0.981417
Si Si2 0.452526 0.719961 0.479769
Si Si3 0.569744 0.835219 0.378229
O O1 0.493660 0.261768 0.923278
O O2 0.317939 0.407879 0.985284
O O3 0.380739 0.116840 0.002366
O O4 0.589250 0.676600 0.517663
O O5 0.515566 0.727654 0.423384
O O6 0.750000 0.843692 0.375000
O O7 0.500000 0.000000 0.386171
#
# Coordination Sequence:
#
# PCOD8312057 Si02
#       3
#    16  16  16
#     4  11  23  45  77 115 146 194 256 309 372 450
#     4  11  26  47  72 107 156 197 246 313 384 449
#     4  12  24  46  81 109 148 200 254 311 376 458
#
# _framework density 23.277265
#
# number of rings (size 3 to 8) (size 9 to 14) (size 15 to 20)
#    0.000    0.667    6.667    2.000    0.000    0.000 
#    0.000   13.333    0.000    0.000    0.000    0.000 
#    0.000    0.000    0.000    0.000    0.000    0.000 
#
# Total GULP energy -297717.726046 kJ/mol
# GULP energy per Si atom -12404.905252 kJ/mol
# Density = 2.322429 g / cm^3
# Si number density = 23.277265 Si / 1000 Ang^3
#
#
#
# Elastic Constant Matrix: (Units=GPa)
#
#
# Indices 1 2 3 4 5 6 
#
# 1 65.1756 51.9820 62.7271 0.0000 0.0000 0.0000
# 2 51.9820 65.1757 62.7271 0.0000 0.0000 0.0000
# 3 62.7271 62.7271 202.0390 0.0000 0.0000 0.0000
# 4 0.0000 0.0000 0.0000 59.9542 0.0000 0.0000
# 5 0.0000 0.0000 0.0000 0.0000 59.9542 0.0000
# 6 0.0000 0.0000 0.0000 0.0000 0.0000 54.3917
#
#
#
# Elastic Compliance Matrix: (Units=1/GPa)
#
#
# Indices 1 2 3 4 5 6 
#
# 1 0.044290 -0.031504 -0.003970 0.000000 0.000000 0.000000
# 2 -0.031504 0.044290 -0.003970 0.000000 0.000000 0.000000
# 3 -0.003970 -0.003970 0.007415 0.000000 0.000000 0.000000
# 4 0.000000 0.000000 0.000000 0.016679 0.000000 0.000000
# 5 0.000000 0.000000 0.000000 0.000000 0.016679 0.000000
# 6 0.000000 0.000000 0.000000 0.000000 0.000000 0.018385
#
#
# Mechanical properties :
#
#
# Convention : Reuss Voigt Hill
#
# Bulk Modulus (GPa) = 58.45150 76.36252 67.40701
# Shear Modulus (GPa) = 21.52126 45.19030 33.35578
#
# Velocity S-wave (km/s) = 3.04396 4.41090 3.78957
# Velocity P-wave (km/s) = 6.12534 7.66931 6.94039
#
# Compressibility (1/GPa) = 0.01710820
#
# Stress axis : x y z
#
# Youngs Moduli (GPa) = 22.57835 22.57836 134.86980
#
# Poissons Ratio (x) = 0.71130 0.53541
# Poissons Ratio (y) = 0.71130 0.53541
# Poissons Ratio (z) = 0.08963 0.08963
#
# Static dielectric constant tensor:
#      x y z
#    x 4.192860 0.000000 0.000000 
#    y 0.000000 4.192860 0.000000 
#    z 0.000000 0.000000 4.402670 
# 
# 
# High freq. dielectric constant tensor:
#      x y z
#    x 1.920310 0.000000 0.000000 
#    y 0.000000 1.920310 0.000000 
#    z 0.000000 0.000000 1.926700 
# 
# From -- ./inp_files/8992.got.cif
#   From: 2010.03.12/outbox.cif.g09.slc.cpg/sg122_5_cif.got.tgz:8992.got - 2010.04.06 16:17:16.
