data_PCOD8312705
_publ_section_title
;
Structure prediction by ZEFSAII (Michael W. Deem and Ramdas Pophale) SiO2 
 PCOD8312705
Probable space group: P 4/M M M
;
_chemical_formula_sum "Si O2"
_cell_formula_units_Z 88
_cell_length_a 12.860449
_cell_length_b 12.860449
_cell_length_c 30.063323
_cell_angle_alpha 90.000000
_cell_angle_beta 90.000000
_cell_angle_gamma 90.000000
_cell_volume 4972.207518
_symmetry_space_group_name_H-M "P 4/M M M"
_symmetry_group_IT_number 123
_symmetry_cell_setting 'tetragonal'
loop_
_space_group_symop_operation_xyz
x,y,z
-y,x,z
-x,-y,z
y,-x,z
x,-y,-z
-x,y,-z
y,x,-z
-y,-x,-z
-x,-y,-z
y,-x,-z
x,y,-z
-y,x,-z
-x,y,z
x,-y,z
-y,-x,z
y,x,z
loop_
_atom_site_type_symbol
_atom_site_label
_atom_site_fract_x
_atom_site_fract_y
_atom_site_fract_z
Si Si1 0.120049 0.288276 0.189395
Si Si2 0.000000 0.376827 0.949865
Si Si3 0.622111 0.793971 0.897780
Si Si4 0.885208 0.378496 0.361858
Si Si5 0.714512 0.878829 0.548346
Si Si6 0.215592 0.621582 0.727633
O O1 0.176006 0.176006 0.190478
O O2 0.175487 0.362886 0.153597
O O3 0.127919 0.346182 0.236820
O O4 0.000000 0.270536 0.177395
O O5 0.106273 0.338690 0.926246
O O6 0.000000 0.500000 0.948881
O O7 0.000000 0.333082 0.000000
O O8 0.500000 0.767409 0.906341
O O9 0.693416 0.693416 0.910312
O O10 0.894359 0.500000 0.356425
O O11 0.835944 0.353930 0.410417
O O12 0.817089 0.336128 0.321097
O O13 0.000000 0.328193 0.358471
O O14 0.661485 0.853380 0.500000
O O15 0.827202 0.827202 0.550914
O O16 0.732601 0.000000 0.553082
O O17 0.235385 0.500000 0.728197
O O18 0.323637 0.676364 0.740848
#
# Coordination Sequence:
#
# PCOD8312705 Si02
#       6
#    16   8  16  16  16  16
#     4  10  20  34  53  77 104 135 171 210 253 301
#     4   9  18  34  56  79 105 141 183 224 262 308
#     4  10  20  34  54  81 111 144 181 222 268 317
#     4   9  17  29  45  65  87 112 146 188 233 281
#     4   9  17  28  42  60  83 112 144 180 223 271
#     4  10  20  32  48  70  95 126 161 198 242 291
#
# _framework density 17.698376
#
# number of rings (size 3 to 8) (size 9 to 14) (size 15 to 20)
#    0.000    2.455    0.909    1.636    0.000    3.273 
#    0.000    2.727    0.000    3.545    0.000    5.727 
#    0.000    0.000    0.000   16.909    0.000    0.364 
#
# Total GULP energy -1090549.601599 kJ/mol
# GULP energy per Si atom -12392.609109 kJ/mol
# Density = 1.765809 g / cm^3
# Si number density = 17.698376 Si / 1000 Ang^3
#
#
#
# Elastic Constant Matrix: (Units=GPa)
#
#
# Indices 1 2 3 4 5 6 
#
# 1 78.2432 39.9451 30.2039 0.0000 0.0000 0.0000
# 2 39.9451 78.2432 30.2039 0.0000 0.0000 0.0000
# 3 30.2039 30.2039 115.1628 0.0000 0.0000 0.0000
# 4 0.0000 0.0000 0.0000 21.1702 0.0000 0.0000
# 5 0.0000 0.0000 0.0000 0.0000 21.1702 0.0000
# 6 0.0000 0.0000 0.0000 0.0000 0.0000 20.5534
#
#
#
# Elastic Compliance Matrix: (Units=1/GPa)
#
#
# Indices 1 2 3 4 5 6 
#
# 1 0.017941 -0.008170 -0.002563 0.000000 0.000000 0.000000
# 2 -0.008170 0.017941 -0.002563 0.000000 0.000000 0.000000
# 3 -0.002563 -0.002563 0.010028 0.000000 0.000000 0.000000
# 4 0.000000 0.000000 0.000000 0.047236 0.000000 0.000000
# 5 0.000000 0.000000 0.000000 0.000000 0.047236 0.000000
# 6 0.000000 0.000000 0.000000 0.000000 0.000000 0.048654
#
#
# Mechanical properties :
#
#
# Convention : Reuss Voigt Hill
#
# Bulk Modulus (GPa) = 51.76300 52.48391 52.12345
# Shear Modulus (GPa) = 22.51583 23.99849 23.25716
#
# Velocity S-wave (km/s) = 3.57066 3.68635 3.62896
# Velocity P-wave (km/s) = 6.80517 6.91649 6.86106
#
# Compressibility (1/GPa) = 0.01931882
#
# Stress axis : x y z
#
# Youngs Moduli (GPa) = 55.73848 55.73848 99.72513
#
# Poissons Ratio (x) = 0.45539 0.25556
# Poissons Ratio (y) = 0.45539 0.25556
# Poissons Ratio (z) = 0.14284 0.14284
#
# Static dielectric constant tensor:
#      x y z
#    x 3.123870 0.000000 0.000000 
#    y 0.000000 3.123870 0.000000 
#    z 0.000000 0.000000 3.681750 
# 
# 
# High freq. dielectric constant tensor:
#      x y z
#    x 1.665710 0.000000 0.000000 
#    y 0.000000 1.665710 0.000000 
#    z 0.000000 0.000000 1.703530 
# 
# From -- ./inp_files/8526.got.cif
#   From: 2010.03.12/outbox.cif.g09.slc.cpg/sg123_5_cif.got.tgz:8526.got - 2010.04.06 16:26:55.
