data_PCOD8312994
_publ_section_title
;
Structure prediction by ZEFSAII (Michael W. Deem and Ramdas Pophale) SiO2 
 PCOD8312994
Probable space group: P 4/M M M
;
_chemical_formula_sum "Si O2"
_cell_formula_units_Z 80
_cell_length_a 23.048196
_cell_length_b 23.048196
_cell_length_c 9.455119
_cell_angle_alpha 90.000000
_cell_angle_beta 90.000000
_cell_angle_gamma 90.000000
_cell_volume 5022.742064
_symmetry_space_group_name_H-M "P 4/M M M"
_symmetry_group_IT_number 123
_symmetry_cell_setting 'tetragonal'
loop_
_space_group_symop_operation_xyz
x,y,z
-y,x,z
-x,-y,z
y,-x,z
x,-y,-z
-x,y,-z
y,x,-z
-y,-x,-z
-x,-y,-z
y,-x,-z
x,y,-z
-y,x,-z
-x,y,z
x,-y,z
-y,-x,z
y,x,z
loop_
_atom_site_type_symbol
_atom_site_label
_atom_site_fract_x
_atom_site_fract_y
_atom_site_fract_z
Si Si1 0.628573 0.065693 0.334939
Si Si2 0.816889 0.566401 0.334383
Si Si3 0.721547 0.874153 0.839317
Si Si4 0.846744 0.846744 0.830653
Si Si5 0.341312 0.247327 0.839062
Si Si6 0.063672 0.063672 0.831587
O O1 0.642142 0.069710 0.500000
O O2 0.583369 0.116681 0.290736
O O3 0.687727 0.078171 0.251853
O O4 0.605921 0.000000 0.297602
O O5 0.808123 0.576429 0.500000
O O6 0.808283 0.500000 0.290194
O O7 0.765633 0.602396 0.257174
O O8 0.785147 0.868138 0.772843
O O9 0.696850 0.809827 0.830256
O O10 0.721696 0.896993 0.000000
O O11 0.891755 0.891755 0.765339
O O12 0.843613 0.843613 0.000000
O O13 0.302704 0.302704 0.786060
O O14 0.361605 0.258708 0.000000
O O15 0.000000 0.080695 0.777835
O O16 0.065960 0.065960 0.000000
#
# Coordination Sequence:
#
# PCOD8312994 Si02
#       6
#    16  16  16   8  16   8
#     4   9  18  31  44  60  86 119 152 186 224 265
#     4   9  18  31  46  66  91 119 154 193 225 256
#     4   9  16  27  43  63  85 107 137 179 223 267
#     4   9  15  24  40  59  79 102 132 172 219 269
#     4   9  16  28  46  66  90 119 145 175 221 269
#     4   8  14  23  32  45  69  98 126 160 206 259
#
# _framework density 15.927554000000001
#
# number of rings (size 3 to 8) (size 9 to 14) (size 15 to 20)
#    0.000    3.100    1.000    0.300    0.000    2.400 
#    0.000    4.500    0.000    0.000    0.000    5.600 
#    0.000    0.400    0.000    8.800    0.000    6.800 
#
# Total GULP energy -991244.976058 kJ/mol
# GULP energy per Si atom -12390.562201 kJ/mol
# Density = 1.589130 g / cm^3
# Si number density = 15.927554 Si / 1000 Ang^3
#
#
#
# Elastic Constant Matrix: (Units=GPa)
#
#
# Indices 1 2 3 4 5 6 
#
# 1 126.4587 25.6700 34.2502 0.0000 0.0000 0.0000
# 2 25.6700 126.4587 34.2502 0.0000 0.0000 0.0000
# 3 34.2502 34.2502 36.1700 0.0000 0.0000 0.0000
# 4 0.0000 0.0000 0.0000 20.7847 0.0000 0.0000
# 5 0.0000 0.0000 0.0000 0.0000 20.7847 0.0000
# 6 0.0000 0.0000 0.0000 0.0000 0.0000 19.9014
#
#
#
# Elastic Compliance Matrix: (Units=1/GPa)
#
#
# Indices 1 2 3 4 5 6 
#
# 1 0.010691 0.000769 -0.010851 0.000000 0.000000 0.000000
# 2 0.000769 0.010691 -0.010851 0.000000 0.000000 0.000000
# 3 -0.010851 -0.010851 0.048198 0.000000 0.000000 0.000000
# 4 0.000000 0.000000 0.000000 0.048112 0.000000 0.000000
# 5 0.000000 0.000000 0.000000 0.000000 0.048112 0.000000
# 6 0.000000 0.000000 0.000000 0.000000 0.000000 0.050248
#
#
# Mechanical properties :
#
#
# Convention : Reuss Voigt Hill
#
# Bulk Modulus (GPa) = 36.08576 53.04757 44.56666
# Shear Modulus (GPa) = 18.71570 25.28865 22.00218
#
# Velocity S-wave (km/s) = 3.43162 3.98896 3.72074
# Velocity P-wave (km/s) = 6.19732 7.38874 6.81910
#
# Compressibility (1/GPa) = 0.02771176
#
# Stress axis : x y z
#
# Youngs Moduli (GPa) = 93.54021 93.54021 20.74792
#
# Poissons Ratio (x) = -0.07192 0.22514
# Poissons Ratio (y) = -0.07192 0.22514
# Poissons Ratio (z) = 1.01502 1.01502
#
# Static dielectric constant tensor:
#      x y z
#    x 3.055090 0.000000 0.000000 
#    y 0.000000 3.055090 0.000000 
#    z 0.000000 0.000000 2.878410 
# 
# 
# High freq. dielectric constant tensor:
#      x y z
#    x 1.599950 0.000000 0.000000 
#    y 0.000000 1.599950 0.000000 
#    z 0.000000 0.000000 1.587220 
# 
# From -- ./inp_files/1449.got.cif
#   From: 2010.03.12/outbox.cif.g09.slc.cpg/sg123_1_cif.got.tgz:1449.got - 2010.04.06 16:26:55.
