data_PCOD8312786
_publ_section_title
;
Structure prediction by ZEFSAII (Michael W. Deem and Ramdas Pophale) SiO2 
 PCOD8312786
Probable space group: P 4/M M M
;
_chemical_formula_sum "Si O2"
_cell_formula_units_Z 88
_cell_length_a 13.370755
_cell_length_b 13.370755
_cell_length_c 27.881122
_cell_angle_alpha 90.000000
_cell_angle_beta 90.000000
_cell_angle_gamma 90.000000
_cell_volume 4984.505837
_symmetry_space_group_name_H-M "P 4/M M M"
_symmetry_group_IT_number 123
_symmetry_cell_setting 'tetragonal'
loop_
_space_group_symop_operation_xyz
x,y,z
-y,x,z
-x,-y,z
y,-x,z
x,-y,-z
-x,y,-z
y,x,-z
-y,-x,-z
-x,-y,-z
y,-x,-z
x,y,-z
-y,x,-z
-x,y,z
x,-y,z
-y,-x,z
y,x,z
loop_
_atom_site_type_symbol
_atom_site_label
_atom_site_fract_x
_atom_site_fract_y
_atom_site_fract_z
Si Si1 0.224089 0.614645 0.054860
Si Si2 0.616106 0.219269 0.500000
Si Si3 0.114855 0.385443 0.317683
Si Si4 0.777552 0.383157 0.220609
Si Si5 0.279649 0.115507 0.136769
Si Si6 0.277749 0.882878 0.415121
O O1 0.242295 0.500000 0.069135
O O2 0.328719 0.671282 0.063988
O O3 0.137777 0.662138 0.087432
O O4 0.188530 0.625528 0.000000
O O5 0.500000 0.247348 0.500000
O O6 0.677377 0.322624 0.500000
O O7 0.640743 0.153473 0.453363
O O8 0.135045 0.500000 0.331945
O O9 0.181090 0.352921 0.272625
O O10 0.144739 0.317566 0.362559
O O11 0.000000 0.369290 0.303250
O O12 0.755981 0.500000 0.216494
O O13 0.673532 0.326469 0.211355
O O14 0.858460 0.351969 0.180975
O O15 0.176921 0.176921 0.140128
O O16 0.250713 0.000000 0.138484
O O17 0.172651 0.827350 0.423891
O O18 0.258787 0.000000 0.421480
#
# Coordination Sequence:
#
# PCOD8312786 Si02
#       6
#    16   8  16  16  16  16
#     4   9  18  32  50  74 103 133 165 200 238 282
#     4  10  21  36  54  76 100 126 159 200 246 296
#     4   9  17  30  50  74  97 125 164 207 248 289
#     4  10  20  33  50  73 101 132 165 201 241 287
#     4  10  21  36  53  73  97 125 160 203 248 294
#     4  10  20  33  50  73 101 133 168 205 244 286
#
# _framework density 17.654709
#
# number of rings (size 3 to 8) (size 9 to 14) (size 15 to 20)
#    0.000    2.364    0.000    2.455    0.000    4.818 
#    0.000    1.818    0.000    4.909    0.000    7.636 
#    0.000    0.000    0.000    0.000    0.000    0.000 
#
# Total GULP energy -1091440.870041 kJ/mol
# GULP energy per Si atom -12402.737160 kJ/mol
# Density = 1.761453 g / cm^3
# Si number density = 17.654709 Si / 1000 Ang^3
#
#
#
# Elastic Constant Matrix: (Units=GPa)
#
#
# Indices 1 2 3 4 5 6 
#
# 1 109.2030 45.3959 50.9836 0.0000 0.0000 0.0000
# 2 45.3959 109.2038 50.9837 0.0000 0.0000 0.0000
# 3 50.9836 50.9837 102.4554 0.0000 0.0000 0.0000
# 4 0.0000 0.0000 0.0000 24.4509 0.0000 0.0000
# 5 0.0000 0.0000 0.0000 0.0000 24.4510 0.0000
# 6 0.0000 0.0000 0.0000 0.0000 0.0000 15.9531
#
#
#
# Elastic Compliance Matrix: (Units=1/GPa)
#
#
# Indices 1 2 3 4 5 6 
#
# 1 0.012650 -0.003022 -0.004791 0.000000 0.000000 0.000000
# 2 -0.003022 0.012650 -0.004791 0.000000 0.000000 0.000000
# 3 -0.004791 -0.004791 0.014529 0.000000 0.000000 0.000000
# 4 0.000000 0.000000 0.000000 0.040898 0.000000 0.000000
# 5 0.000000 0.000000 0.000000 0.000000 0.040898 0.000000
# 6 0.000000 0.000000 0.000000 0.000000 0.000000 0.062684
#
#
# Mechanical properties :
#
#
# Convention : Reuss Voigt Hill
#
# Bulk Modulus (GPa) = 68.39682 68.39874 68.39778
# Shear Modulus (GPa) = 23.32177 24.53760 23.92968
#
# Velocity S-wave (km/s) = 3.63849 3.73213 3.68561
# Velocity P-wave (km/s) = 7.51512 7.57617 7.54570
#
# Compressibility (1/GPa) = 0.01462056
#
# Stress axis : x y z
#
# Youngs Moduli (GPa) = 79.04916 79.04975 68.82863
#
# Poissons Ratio (x) = 0.23887 0.32978
# Poissons Ratio (y) = 0.23887 0.32978
# Poissons Ratio (z) = 0.37875 0.37875
#
# Static dielectric constant tensor:
#      x y z
#    x 3.116740 0.000000 0.000000 
#    y 0.000000 3.116740 0.000000 
#    z 0.000000 0.000000 3.469960 
# 
# 
# High freq. dielectric constant tensor:
#      x y z
#    x 1.675870 0.000000 0.000000 
#    y 0.000000 1.675870 0.000000 
#    z 0.000000 0.000000 1.701260 
# 
# From -- ./inp_files/8510.got.cif
#   From: 2010.03.12/outbox.cif.g09.slc.cpg/sg123_5_cif.got.tgz:8510.got - 2010.04.06 16:26:55.
