data_PCOD8312725
_publ_section_title
;
Structure prediction by ZEFSAII (Michael W. Deem and Ramdas Pophale) SiO2 
 PCOD8312725
Probable space group: P 4/M M M
;
_chemical_formula_sum "Si O2"
_cell_formula_units_Z 112
_cell_length_a 13.850412
_cell_length_b 13.850412
_cell_length_c 35.985873
_cell_angle_alpha 90.000000
_cell_angle_beta 90.000000
_cell_angle_gamma 90.000000
_cell_volume 6903.310815
_symmetry_space_group_name_H-M "P 4/M M M"
_symmetry_group_IT_number 123
_symmetry_cell_setting 'tetragonal'
loop_
_space_group_symop_operation_xyz
x,y,z
-y,x,z
-x,-y,z
y,-x,z
x,-y,-z
-x,y,-z
y,x,-z
-y,-x,-z
-x,-y,-z
y,-x,-z
x,y,-z
-y,x,-z
-x,y,z
x,-y,z
-y,-x,z
y,x,z
loop_
_atom_site_type_symbol
_atom_site_label
_atom_site_fract_x
_atom_site_fract_y
_atom_site_fract_z
Si Si1 0.608553 0.237847 0.822464
Si Si2 0.728654 0.886049 0.682438
Si Si3 0.388906 0.233895 0.458751
Si Si4 0.613921 0.226199 0.258491
Si Si5 0.112847 0.390795 0.389218
Si Si6 0.110443 0.733356 0.042699
Si Si7 0.612485 0.227939 0.903217
O O1 0.500000 0.271720 0.822211
O O2 0.661815 0.338186 0.822745
O O3 0.631356 0.183036 0.783536
O O4 0.630872 0.182730 0.861475
O O5 0.829990 0.829990 0.686739
O O6 0.653864 0.856669 0.714627
O O7 0.680054 0.855106 0.643661
O O8 0.749180 0.000000 0.684810
O O9 0.369329 0.190142 0.500000
O O10 0.500000 0.259966 0.453435
O O11 0.333379 0.333379 0.452976
O O12 0.354090 0.158110 0.427843
O O13 0.500000 0.245097 0.266167
O O14 0.673751 0.326250 0.264502
O O15 0.146022 0.500000 0.379436
O O16 0.000000 0.386783 0.395274
O O17 0.169994 0.830007 0.052016
O O18 0.146765 0.644665 0.067664
O O19 0.000000 0.756396 0.052191
O O20 0.123832 0.702247 0.000000
O O21 0.500000 0.252102 0.909733
O O22 0.674033 0.325968 0.909230
#
# Coordination Sequence:
#
# PCOD8312725 Si02
#       7
#    16  16  16  16  16  16  16
#     4   8  14  25  41  62  89 119 149 181 215 251
#     4  10  20  33  49  67  87 114 148 186 227 268
#     4   9  17  28  42  61  86 116 147 177 208 244
#     4   9  17  29  46  69  95 121 149 180 216 260
#     4   9  17  29  46  67  88 110 138 174 218 266
#     4   9  18  32  49  68  88 111 142 182 228 274
#     4   9  17  29  45  66  93 123 153 183 214 252
#
# _framework density 16.224098999999999
#
# number of rings (size 3 to 8) (size 9 to 14) (size 15 to 20)
#    0.000    3.000    0.000    0.857    0.000    2.571 
#    0.000    7.143    0.000    2.571    0.000    4.000 
#    0.000    5.714    0.000   13.286    0.000    0.286 
#
# Total GULP energy -1387673.535926 kJ/mol
# GULP energy per Si atom -12389.942285 kJ/mol
# Density = 1.618717 g / cm^3
# Si number density = 16.224099 Si / 1000 Ang^3
#
#
#
# Elastic Constant Matrix: (Units=GPa)
#
#
# Indices 1 2 3 4 5 6 
#
# 1 71.6675 35.0896 53.5320 0.0000 0.0000 0.0000
# 2 35.0896 71.6675 53.5320 0.0000 0.0000 0.0000
# 3 53.5320 53.5320 125.4154 0.0000 0.0000 0.0000
# 4 0.0000 0.0000 0.0000 23.1728 0.0000 0.0000
# 5 0.0000 0.0000 0.0000 0.0000 23.1728 0.0000
# 6 0.0000 0.0000 0.0000 0.0000 0.0000 15.2694
#
#
#
# Elastic Compliance Matrix: (Units=1/GPa)
#
#
# Indices 1 2 3 4 5 6 
#
# 1 0.021858 -0.005481 -0.006991 0.000000 0.000000 0.000000
# 2 -0.005481 0.021858 -0.006991 0.000000 0.000000 0.000000
# 3 -0.006991 -0.006991 0.013941 0.000000 0.000000 0.000000
# 4 0.000000 0.000000 0.000000 0.043154 0.000000 0.000000
# 5 0.000000 0.000000 0.000000 0.000000 0.043154 0.000000
# 6 0.000000 0.000000 0.000000 0.000000 0.000000 0.065490
#
#
# Mechanical properties :
#
#
# Convention : Reuss Voigt Hill
#
# Bulk Modulus (GPa) = 53.37822 61.45083 57.41452
# Shear Modulus (GPa) = 19.63673 20.76279 20.19976
#
# Velocity S-wave (km/s) = 3.48277 3.58124 3.53235
# Velocity P-wave (km/s) = 7.01035 7.42017 7.21817
#
# Compressibility (1/GPa) = 0.01873423
#
# Stress axis : x y z
#
# Youngs Moduli (GPa) = 45.74910 45.74910 71.72961
#
# Poissons Ratio (x) = 0.25073 0.50144
# Poissons Ratio (y) = 0.25073 0.50144
# Poissons Ratio (z) = 0.31982 0.31982
#
# Static dielectric constant tensor:
#      x y z
#    x 2.904190 0.000000 0.000000 
#    y 0.000000 2.904190 0.000000 
#    z 0.000000 0.000000 3.533200 
# 
# 
# High freq. dielectric constant tensor:
#      x y z
#    x 1.606330 0.000000 0.000000 
#    y 0.000000 1.606330 0.000000 
#    z 0.000000 0.000000 1.644440 
# 
# From -- ./inp_files/8178.got.cif
#   From: 2010.03.12/outbox.cif.g09.slc.cpg/sg123_5_cif.got.tgz:8178.got - 2010.04.06 16:26:55.
