data_PCOD8312972
_publ_section_title
;
Structure prediction by ZEFSAII (Michael W. Deem and Ramdas Pophale) SiO2 
 PCOD8312972
Probable space group: P 4/M M M
;
_chemical_formula_sum "Si O2"
_cell_formula_units_Z 96
_cell_length_a 24.406877
_cell_length_b 24.406877
_cell_length_c 9.860000
_cell_angle_alpha 90.000000
_cell_angle_beta 90.000000
_cell_angle_gamma 90.000000
_cell_volume 5873.559059
_symmetry_space_group_name_H-M "P 4/M M M"
_symmetry_group_IT_number 123
_symmetry_cell_setting 'tetragonal'
loop_
_space_group_symop_operation_xyz
x,y,z
-y,x,z
-x,-y,z
y,-x,z
x,-y,-z
-x,y,-z
y,x,-z
-y,-x,-z
-x,-y,-z
y,-x,-z
x,y,-z
-y,x,-z
-x,y,z
x,-y,z
-y,-x,z
y,x,z
loop_
_atom_site_type_symbol
_atom_site_label
_atom_site_fract_x
_atom_site_fract_y
_atom_site_fract_z
Si Si1 0.150440 0.062242 0.653804
Si Si2 0.651542 0.140865 0.161064
Si Si3 0.649050 0.735985 0.838708
Si Si4 0.438231 0.649149 0.838709
Si Si5 0.062841 0.250335 0.842517
Si Si6 0.060636 0.561005 0.161525
O O1 0.170952 0.071922 0.500000
O O2 0.097670 0.097670 0.689041
O O3 0.198060 0.079309 0.755557
O O4 0.132487 0.000000 0.677266
O O5 0.651677 0.202460 0.222527
O O6 0.704094 0.105937 0.205062
O O7 0.599733 0.107902 0.221672
O O8 0.647864 0.144154 0.000000
O O9 0.702395 0.702395 0.787934
O O10 0.593944 0.704107 0.790483
O O11 0.649458 0.738661 0.000000
O O12 0.500000 0.648673 0.777652
O O13 0.404712 0.595288 0.788839
O O14 0.440993 0.648632 0.000000
O O15 0.000000 0.269292 0.814111
O O16 0.070315 0.235851 0.000000
O O17 0.073021 0.500000 0.214032
O O18 0.000000 0.579850 0.210612
O O19 0.061712 0.563091 0.000000
#
# Coordination Sequence:
#
# PCOD8312972 Si02
#       6
#    16  16  16  16  16  16
#     4   9  18  32  48  65  85 108 134 166 205 248
#     4   9  15  22  34  50  69  97 129 157 191 237
#     4   8  14  22  28  37  56  80 107 141 180 222
#     4   8  13  20  28  37  51  74 107 150 196 236
#     4   9  17  28  42  61  84 108 135 168 202 237
#     4   8  13  20  29  43  65  91 118 149 184 222
#
# _framework density 16.344435000000001
#
# number of rings (size 3 to 8) (size 9 to 14) (size 15 to 20)
#    0.000    3.500    0.000    2.000    0.000    4.000 
#    0.000    6.667    0.000    0.000    0.000    2.333 
#    0.000    0.667    0.000    6.167    0.000    6.000 
#
# Total GULP energy -1189560.085723 kJ/mol
# GULP energy per Si atom -12391.250893 kJ/mol
# Density = 1.630723 g / cm^3
# Si number density = 16.344435 Si / 1000 Ang^3
#
#
#
# Elastic Constant Matrix: (Units=GPa)
#
#
# Indices 1 2 3 4 5 6 
#
# 1 149.0743 94.3889 21.8895 0.0000 0.0000 0.0000
# 2 94.3889 149.0743 21.8895 0.0000 0.0000 0.0000
# 3 21.8895 21.8895 16.1994 0.0000 0.0000 0.0000
# 4 0.0000 0.0000 0.0000 5.1634 0.0000 0.0000
# 5 0.0000 0.0000 0.0000 0.0000 5.1634 0.0000
# 6 0.0000 0.0000 0.0000 0.0000 0.0000 17.4825
#
#
#
# Elastic Compliance Matrix: (Units=1/GPa)
#
#
# Indices 1 2 3 4 5 6 
#
# 1 0.011856 -0.006430 -0.007332 0.000000 0.000000 0.000000
# 2 -0.006430 0.011856 -0.007332 0.000000 0.000000 0.000000
# 3 -0.007332 -0.007332 0.081544 0.000000 0.000000 0.000000
# 4 0.000000 0.000000 0.000000 0.193670 0.000000 0.000000
# 5 0.000000 0.000000 0.000000 0.000000 0.193670 0.000000
# 6 0.000000 0.000000 0.000000 0.000000 0.000000 0.057200
#
#
# Mechanical properties :
#
#
# Convention : Reuss Voigt Hill
#
# Bulk Modulus (GPa) = 15.85552 65.63154 40.74353
# Shear Modulus (GPa) = 8.15652 17.30721 12.73186
#
# Velocity S-wave (km/s) = 2.23634 3.25761 2.79404
# Velocity P-wave (km/s) = 4.04849 7.37508 5.94904
#
# Compressibility (1/GPa) = 0.06306953
#
# Stress axis : x y z
#
# Youngs Moduli (GPa) = 84.34497 84.34497 12.26328
#
# Poissons Ratio (x) = 0.54237 0.08991
# Poissons Ratio (y) = 0.54237 0.08991
# Poissons Ratio (z) = 0.61838 0.61838
#
# Static dielectric constant tensor:
#      x y z
#    x 3.370200 0.000000 0.000000 
#    y 0.000000 3.370200 0.000000 
#    z 0.000000 0.000000 2.409620 
# 
# 
# High freq. dielectric constant tensor:
#      x y z
#    x 1.637350 0.000000 0.000000 
#    y 0.000000 1.637350 0.000000 
#    z 0.000000 0.000000 1.545220 
# 
# From -- ./inp_files/3292.got.cif
#   From: 2010.03.12/outbox.cif.g09.slc.cpg/sg123_2_cif.got.tgz:3292.got - 2010.04.06 16:26:55.
