data_PCOD8312488
_publ_section_title
;
Structure prediction by ZEFSAII (Michael W. Deem and Ramdas Pophale) SiO2 
 PCOD8312488
Probable space group: P 4/M M M
;
_chemical_formula_sum "Si O2"
_cell_formula_units_Z 96
_cell_length_a 15.297128
_cell_length_b 15.297128
_cell_length_c 22.641286
_cell_angle_alpha 90.000000
_cell_angle_beta 90.000000
_cell_angle_gamma 90.000000
_cell_volume 5298.109038
_symmetry_space_group_name_H-M "P 4/M M M"
_symmetry_group_IT_number 123
_symmetry_cell_setting 'tetragonal'
loop_
_space_group_symop_operation_xyz
x,y,z
-y,x,z
-x,-y,z
y,-x,z
x,-y,-z
-x,y,-z
y,x,-z
-y,-x,-z
-x,-y,-z
y,-x,-z
x,y,-z
-y,x,-z
-x,y,z
x,-y,z
-y,-x,z
y,x,z
loop_
_atom_site_type_symbol
_atom_site_label
_atom_site_fract_x
_atom_site_fract_y
_atom_site_fract_z
Si Si1 0.189135 0.402437 0.772968
Si Si2 0.257848 0.398644 0.644380
Si Si3 0.403764 0.264551 0.897138
Si Si4 0.097642 0.236771 0.812902
Si Si5 0.684161 0.902724 0.934689
Si Si6 0.096808 0.396288 0.566427
O O1 0.146564 0.500000 0.771952
O O2 0.242312 0.385349 0.713580
O O3 0.257823 0.394280 0.826452
O O4 0.113740 0.330283 0.781638
O O5 0.276851 0.500000 0.628635
O O6 0.341745 0.341745 0.624996
O O7 0.172201 0.362099 0.610182
O O8 0.500000 0.298106 0.914555
O O9 0.333101 0.333101 0.921909
O O10 0.390919 0.169635 0.926735
O O11 0.164947 0.164947 0.788130
O O12 0.110733 0.243327 0.883860
O O13 0.000000 0.206263 0.797144
O O14 0.642550 0.000000 0.927732
O O15 0.726882 0.892684 0.000000
O O16 0.117275 0.363586 0.500000
O O17 0.095772 0.500000 0.568195
O O18 0.000000 0.362151 0.586103
#
# Coordination Sequence:
#
# PCOD8312488 Si02
#       6
#    16  16  16  16  16  16
#     4   9  18  33  51  70  93 122 160 205 248 283
#     4  10  19  30  47  71 100 133 164 196 237 288
#     4  10  20  33  49  68  93 125 157 192 233 278
#     4  10  20  33  50  72  99 128 155 189 233 284
#     4   9  18  33  53  73  90 114 151 193 239 286
#     4   8  15  29  47  66  90 122 162 206 245 276
#
# _framework density 18.119672999999999
#
# number of rings (size 3 to 8) (size 9 to 14) (size 15 to 20)
#    0.000    2.667    0.000    3.500    0.000    3.833 
#    0.000    5.833    0.000    3.000    0.000    5.833 
#    0.000    0.333    0.000    1.833    0.000    0.167 
#
# Total GULP energy -1189754.925303 kJ/mol
# GULP energy per Si atom -12393.280472 kJ/mol
# Density = 1.807843 g / cm^3
# Si number density = 18.119673 Si / 1000 Ang^3
#
#
#
# Elastic Constant Matrix: (Units=GPa)
#
#
# Indices 1 2 3 4 5 6 
#
# 1 109.6295 73.6475 28.1374 0.0000 0.0000 0.0000
# 2 73.6475 109.6295 28.1374 0.0000 0.0000 0.0000
# 3 28.1374 28.1374 54.0787 0.0000 0.0000 0.0000
# 4 0.0000 0.0000 0.0000 15.6691 0.0000 0.0000
# 5 0.0000 0.0000 0.0000 0.0000 15.6691 0.0000
# 6 0.0000 0.0000 0.0000 0.0000 0.0000 16.0809
#
#
#
# Elastic Compliance Matrix: (Units=1/GPa)
#
#
# Indices 1 2 3 4 5 6 
#
# 1 0.017143 -0.010649 -0.003379 0.000000 0.000000 0.000000
# 2 -0.010649 0.017143 -0.003379 0.000000 0.000000 0.000000
# 3 -0.003379 -0.003379 0.022007 0.000000 0.000000 0.000000
# 4 0.000000 0.000000 0.000000 0.063820 0.000000 0.000000
# 5 0.000000 0.000000 0.000000 0.000000 0.063820 0.000000
# 6 0.000000 0.000000 0.000000 0.000000 0.000000 0.062185
#
#
# Mechanical properties :
#
#
# Convention : Reuss Voigt Hill
#
# Bulk Modulus (GPa) = 46.55486 59.24248 52.89867
# Shear Modulus (GPa) = 17.35565 19.04485 18.20025
#
# Velocity S-wave (km/s) = 3.09825 3.24552 3.17274
# Velocity P-wave (km/s) = 6.20867 6.84183 6.53293
#
# Compressibility (1/GPa) = 0.02148003
#
# Stress axis : x y z
#
# Youngs Moduli (GPa) = 58.33404 58.33404 45.43917
#
# Poissons Ratio (x) = 0.62120 0.15352
# Poissons Ratio (y) = 0.62120 0.15352
# Poissons Ratio (z) = 0.19709 0.19709
#
# Static dielectric constant tensor:
#      x y z
#    x 3.225960 0.000000 0.000000 
#    y 0.000000 3.225960 0.000000 
#    z 0.000000 0.000000 3.390540 
# 
# 
# High freq. dielectric constant tensor:
#      x y z
#    x 1.681110 0.000000 0.000000 
#    y 0.000000 1.681110 0.000000 
#    z 0.000000 0.000000 1.694200 
# 
# From -- ./inp_files/6457.got.cif
#   From: 2010.03.12/outbox.cif.g09.slc.cpg/sg123_4_cif.got.tgz:6457.got - 2010.04.06 16:26:55.
