data_PCOD8312447
_publ_section_title
;
Structure prediction by ZEFSAII (Michael W. Deem and Ramdas Pophale) SiO2 
 PCOD8312447
Probable space group: P 4/M M M
;
_chemical_formula_sum "Si O2"
_cell_formula_units_Z 72
_cell_length_a 13.805929
_cell_length_b 13.805929
_cell_length_c 23.275765
_cell_angle_alpha 90.000000
_cell_angle_beta 90.000000
_cell_angle_gamma 90.000000
_cell_volume 4436.446360
_symmetry_space_group_name_H-M "P 4/M M M"
_symmetry_group_IT_number 123
_symmetry_cell_setting 'tetragonal'
loop_
_space_group_symop_operation_xyz
x,y,z
-y,x,z
-x,-y,z
y,-x,z
x,-y,-z
-x,y,-z
y,x,-z
-y,-x,-z
-x,-y,-z
y,-x,-z
x,y,-z
-y,x,-z
-x,y,z
x,-y,z
-y,-x,z
y,x,z
loop_
_atom_site_type_symbol
_atom_site_label
_atom_site_fract_x
_atom_site_fract_y
_atom_site_fract_z
Si Si1 0.114736 0.271508 0.500000
Si Si2 0.885452 0.608348 0.610560
Si Si3 0.888759 0.267918 0.935486
Si Si4 0.885433 0.729249 0.279175
Si Si5 0.114718 0.392739 0.169881
O O1 0.167961 0.167961 0.500000
O O2 0.149191 0.332436 0.555089
O O3 0.000000 0.250847 0.500000
O O4 0.840331 0.500000 0.609662
O O5 0.851402 0.663573 0.667597
O O6 0.000000 0.599625 0.609971
O O7 0.831195 0.168806 0.926527
O O8 0.850757 0.348173 0.890811
O O9 0.000000 0.241683 0.923098
O O10 0.874562 0.309332 0.000000
O O11 0.832767 0.832767 0.282353
O O12 0.850143 0.674180 0.222039
O O13 0.000000 0.749425 0.279881
O O14 0.160466 0.500000 0.175754
O O15 0.000000 0.401018 0.171851
#
# Coordination Sequence:
#
# PCOD8312447 Si02
#       5
#     8  16  16  16  16
#     4  10  19  30  45  67  96 126 153 181 214 259
#     4   9  17  30  47  65  87 117 152 190 227 255
#     4   9  17  28  42  62  89 119 148 177 210 254
#     4  10  19  30  45  66  93 122 149 177 211 258
#     4   9  17  29  44  61  83 113 148 186 225 257
#
# _framework density 16.229206000000001
#
# number of rings (size 3 to 8) (size 9 to 14) (size 15 to 20)
#    0.000    2.667    0.000    2.333    0.000    5.000 
#    0.000    3.333    0.000    8.000    0.000    0.000 
#    0.000   49.333    0.000    9.778    0.000    0.889 
#
# Total GULP energy -892656.171747 kJ/mol
# GULP energy per Si atom -12398.002385 kJ/mol
# Density = 1.619227 g / cm^3
# Si number density = 16.229206 Si / 1000 Ang^3
#
#
#
# Elastic Constant Matrix: (Units=GPa)
#
#
# Indices 1 2 3 4 5 6 
#
# 1 75.8841 43.6843 47.2476 0.0000 0.0000 0.0000
# 2 43.6843 75.8841 47.2476 0.0000 0.0000 0.0000
# 3 47.2476 47.2476 140.5920 0.0000 0.0000 0.0000
# 4 0.0000 0.0000 0.0000 19.3518 0.0000 0.0000
# 5 0.0000 0.0000 0.0000 0.0000 19.3518 0.0000
# 6 0.0000 0.0000 0.0000 0.0000 0.0000 5.6500
#
#
#
# Elastic Compliance Matrix: (Units=1/GPa)
#
#
# Indices 1 2 3 4 5 6 
#
# 1 0.021222 -0.009834 -0.003827 0.000000 0.000000 0.000000
# 2 -0.009834 0.021222 -0.003827 0.000000 0.000000 0.000000
# 3 -0.003827 -0.003827 0.009685 0.000000 0.000000 0.000000
# 4 0.000000 0.000000 0.000000 0.051675 0.000000 0.000000
# 5 0.000000 0.000000 0.000000 0.000000 0.051675 0.000000
# 6 0.000000 0.000000 0.000000 0.000000 0.000000 0.176991
#
#
# Mechanical properties :
#
#
# Convention : Reuss Voigt Hill
#
# Bulk Modulus (GPa) = 58.29986 63.19104 60.74545
# Shear Modulus (GPa) = 13.39895 19.14942 16.27418
#
# Velocity S-wave (km/s) = 2.87645 3.43875 3.17009
# Velocity P-wave (km/s) = 6.85804 7.40188 7.13514
#
# Compressibility (1/GPa) = 0.01715270
#
# Stress axis : x y z
#
# Youngs Moduli (GPa) = 47.12085 47.12085 103.25207
#
# Poissons Ratio (x) = 0.46339 0.39515
# Poissons Ratio (y) = 0.46339 0.39515
# Poissons Ratio (z) = 0.18033 0.18033
#
# Static dielectric constant tensor:
#      x y z
#    x 2.892570 0.000000 0.000000 
#    y 0.000000 2.892570 0.000000 
#    z 0.000000 0.000000 3.413080 
# 
# 
# High freq. dielectric constant tensor:
#      x y z
#    x 1.594630 0.000000 0.000000 
#    y 0.000000 1.594630 0.000000 
#    z 0.000000 0.000000 1.648870 
# 
# From -- ./inp_files/7874.got.cif
#   From: 2010.03.12/outbox.cif.g09.slc.cpg/sg123_4_cif.got.tgz:7874.got - 2010.04.06 16:26:55.
