data_PCOD8312196
_publ_section_title
;
Structure prediction by ZEFSAII (Michael W. Deem and Ramdas Pophale) SiO2 
 PCOD8312196
Probable space group: P 4/M M M
;
_chemical_formula_sum "Si O2"
_cell_formula_units_Z 120
_cell_length_a 18.424917
_cell_length_b 18.424917
_cell_length_c 21.587810
_cell_angle_alpha 90.000000
_cell_angle_beta 90.000000
_cell_angle_gamma 90.000000
_cell_volume 7328.577204
_symmetry_space_group_name_H-M "P 4/M M M"
_symmetry_group_IT_number 123
_symmetry_cell_setting 'tetragonal'
loop_
_space_group_symop_operation_xyz
x,y,z
-y,x,z
-x,-y,z
y,-x,z
x,-y,-z
-x,y,-z
y,x,-z
-y,-x,-z
-x,-y,-z
y,-x,-z
x,y,-z
-y,x,-z
-x,y,z
x,-y,z
-y,-x,z
y,x,z
loop_
_atom_site_type_symbol
_atom_site_label
_atom_site_fract_x
_atom_site_fract_y
_atom_site_fract_z
Si Si1 0.919648 0.806568 0.757334
Si Si2 0.916859 0.645627 0.258520
Si Si3 0.704721 0.414738 0.301268
Si Si4 0.809082 0.311648 0.930940
Si Si5 0.204977 0.582922 0.180747
Si Si6 0.585492 0.847354 0.626307
Si Si7 0.080819 0.804898 0.096956
Si Si8 0.586388 0.916526 0.500000
O O1 0.866646 0.866646 0.727411
O O2 0.886829 0.727770 0.742332
O O3 0.923238 0.816498 0.830300
O O4 0.000000 0.816172 0.728262
O O5 0.873871 0.596330 0.209928
O O6 0.907812 0.616103 0.327474
O O7 0.000000 0.643863 0.237511
O O8 0.684876 0.500000 0.307588
O O9 0.632786 0.367215 0.313661
O O10 0.734631 0.397276 0.232428
O O11 0.765958 0.392173 0.352129
O O12 0.751217 0.248784 0.924561
O O13 0.786078 0.372224 0.881909
O O14 0.887285 0.275114 0.917569
O O15 0.809029 0.345885 0.000000
O O16 0.212104 0.500000 0.161099
O O17 0.500000 0.853517 0.628597
O O18 0.615181 0.870129 0.558787
O O19 0.131871 0.868130 0.067665
O O20 0.000000 0.810020 0.068080
O O21 0.500000 0.919291 0.500000
O O22 0.615994 0.000000 0.500000
#
# Coordination Sequence:
#
# PCOD8312196 Si02
#       8
#    16  16  16  16  16  16  16   8
#     4   9  17  28  44  65  88 116 149 186 229 272
#     4  10  18  28  44  67  94 122 153 187 224 274
#     4   9  18  32  50  72  96 122 153 191 236 284
#     4  10  20  33  49  66  86 117 152 185 227 278
#     4  10  20  32  48  69  91 117 149 188 232 275
#     4   9  18  30  45  69  97 127 161 194 231 271
#     4   9  17  30  46  65  88 114 148 188 230 275
#     4   9  16  28  47  68  95 131 165 196 229 264
#
# _framework density 16.374255999999999
#
# number of rings (size 3 to 8) (size 9 to 14) (size 15 to 20)
#    0.000    2.600    1.333    2.000    0.000    4.667 
#    0.000    1.667    0.000    0.000    0.000    3.733 
#    0.000    2.667    0.000   12.400    0.000    6.133 
#
# Total GULP energy -1487430.043161 kJ/mol
# GULP energy per Si atom -12395.250360 kJ/mol
# Density = 1.633699 g / cm^3
# Si number density = 16.374256 Si / 1000 Ang^3
#
#
#
# Elastic Constant Matrix: (Units=GPa)
#
#
# Indices 1 2 3 4 5 6 
#
# 1 68.4322 35.3367 28.4279 0.0000 0.0000 0.0000
# 2 35.3367 68.4322 28.4279 0.0000 0.0000 0.0000
# 3 28.4279 28.4279 86.5477 0.0000 0.0000 0.0000
# 4 0.0000 0.0000 0.0000 5.1705 0.0000 0.0000
# 5 0.0000 0.0000 0.0000 0.0000 5.1705 0.0000
# 6 0.0000 0.0000 0.0000 0.0000 0.0000 23.7340
#
#
#
# Elastic Compliance Matrix: (Units=1/GPa)
#
#
# Indices 1 2 3 4 5 6 
#
# 1 0.020984 -0.009232 -0.003860 0.000000 0.000000 0.000000
# 2 -0.009232 0.020984 -0.003860 0.000000 0.000000 0.000000
# 3 -0.003860 -0.003860 0.014090 0.000000 0.000000 0.000000
# 4 0.000000 0.000000 0.000000 0.193407 0.000000 0.000000
# 5 0.000000 0.000000 0.000000 0.000000 0.193407 0.000000
# 6 0.000000 0.000000 0.000000 0.000000 0.000000 0.042134
#
#
# Mechanical properties :
#
#
# Convention : Reuss Voigt Hill
#
# Bulk Modulus (GPa) = 45.13973 45.31080 45.22527
# Shear Modulus (GPa) = 9.50042 15.56295 12.53169
#
# Velocity S-wave (km/s) = 2.41136 3.08629 2.76946
# Velocity P-wave (km/s) = 5.94813 6.35864 6.15680
#
# Compressibility (1/GPa) = 0.02215343
#
# Stress axis : x y z
#
# Youngs Moduli (GPa) = 47.65616 47.65616 70.97181
#
# Poissons Ratio (x) = 0.43996 0.27395
# Poissons Ratio (y) = 0.43996 0.27395
# Poissons Ratio (z) = 0.18395 0.18395
#
# Static dielectric constant tensor:
#      x y z
#    x 3.111140 0.000000 0.000000 
#    y 0.000000 3.111140 0.000000 
#    z 0.000000 0.000000 3.120000 
# 
# 
# High freq. dielectric constant tensor:
#      x y z
#    x 1.621090 0.000000 0.000000 
#    y 0.000000 1.621090 0.000000 
#    z 0.000000 0.000000 1.612530 
# 
# From -- ./inp_files/6770.got.cif
#   From: 2010.03.12/outbox.cif.g09.slc.cpg/sg123_4_cif.got.tgz:6770.got - 2010.04.06 16:26:55.
