data_PCOD8312274
_publ_section_title
;
Structure prediction by ZEFSAII (Michael W. Deem and Ramdas Pophale) SiO2 
 PCOD8312274
Probable space group: P 4/M M M
;
_chemical_formula_sum "Si O2"
_cell_formula_units_Z 96
_cell_length_a 22.501086
_cell_length_b 22.501086
_cell_length_c 11.748801
_cell_angle_alpha 90.000000
_cell_angle_beta 90.000000
_cell_angle_gamma 90.000000
_cell_volume 5948.404684
_symmetry_space_group_name_H-M "P 4/M M M"
_symmetry_group_IT_number 123
_symmetry_cell_setting 'tetragonal'
loop_
_space_group_symop_operation_xyz
x,y,z
-y,x,z
-x,-y,z
y,-x,z
x,-y,-z
-x,y,-z
y,x,-z
-y,-x,-z
-x,-y,-z
y,-x,-z
x,y,-z
-y,x,-z
-x,y,z
x,-y,z
-y,-x,z
y,x,z
loop_
_atom_site_type_symbol
_atom_site_label
_atom_site_fract_x
_atom_site_fract_y
_atom_site_fract_z
Si Si1 0.935751 0.616369 0.367212
Si Si2 0.432698 0.186881 0.366104
Si Si3 0.323283 0.229805 0.759938
Si Si4 0.263481 0.874730 0.367867
Si Si5 0.932381 0.837878 0.768760
Si Si6 0.767123 0.933469 0.000000
Si Si7 0.190987 0.289058 0.000000
O O1 0.940989 0.604481 0.500000
O O2 0.881010 0.576546 0.321296
O O3 0.923115 0.685458 0.341835
O O4 0.000000 0.599808 0.310715
O O5 0.416959 0.190830 0.500000
O O6 0.500000 0.206866 0.341928
O O7 0.388593 0.230089 0.297096
O O8 0.296228 0.296228 0.751562
O O9 0.278374 0.186012 0.695882
O O10 0.327816 0.209645 0.891055
O O11 0.259131 0.859582 0.500000
O O12 0.201488 0.900338 0.326335
O O13 0.902074 0.902074 0.772718
O O14 0.000000 0.847558 0.732574
O O15 0.925842 0.807828 0.890645
O O16 0.718775 0.880617 0.000000
O O17 0.737411 0.000000 0.000000
O O18 0.224951 0.224951 0.000000
#
# Coordination Sequence:
#
# PCOD8312274 Si02
#       7
#    16  16  16  16  16   8   8
#     4   8  14  25  41  61  86 116 151 187 220 262
#     4   9  18  31  45  66 100 135 163 193 229 272
#     4  10  19  31  51  74  96 122 156 196 239 285
#     4  10  19  30  46  69  94 115 141 186 240 287
#     4  11  22  34  48  63  82 110 145 188 239 295
#     4  10  20  34  51  68  87 114 149 191 243 298
#     4  10  18  32  51  71  96 119 149 201 254 291
#
# _framework density 16.138781000000002
#
# number of rings (size 3 to 8) (size 9 to 14) (size 15 to 20)
#    0.000    2.333    1.667    3.250    0.000    3.833 
#    0.000    2.083    0.000    1.500    0.000    1.167 
#    0.000    4.000    0.000    1.833    0.000    4.667 
#
# Total GULP energy -1190046.132280 kJ/mol
# GULP energy per Si atom -12396.313878 kJ/mol
# Density = 1.610205 g / cm^3
# Si number density = 16.138781 Si / 1000 Ang^3
#
#
#
# Elastic Constant Matrix: (Units=GPa)
#
#
# Indices 1 2 3 4 5 6 
#
# 1 82.9752 40.3939 34.5943 0.0000 0.0000 0.0000
# 2 40.3939 82.9752 34.5943 0.0000 0.0000 0.0000
# 3 34.5943 34.5943 83.0114 0.0000 0.0000 0.0000
# 4 0.0000 0.0000 0.0000 22.4868 0.0000 0.0000
# 5 0.0000 0.0000 0.0000 0.0000 22.4868 0.0000
# 6 0.0000 0.0000 0.0000 0.0000 0.0000 14.5174
#
#
#
# Elastic Compliance Matrix: (Units=1/GPa)
#
#
# Indices 1 2 3 4 5 6 
#
# 1 0.017031 -0.006453 -0.004408 0.000000 0.000000 0.000000
# 2 -0.006453 0.017031 -0.004408 0.000000 0.000000 0.000000
# 3 -0.004408 -0.004408 0.015721 0.000000 0.000000 0.000000
# 4 0.000000 0.000000 0.000000 0.044471 0.000000 0.000000
# 5 0.000000 0.000000 0.000000 0.000000 0.044471 0.000000
# 6 0.000000 0.000000 0.000000 0.000000 0.000000 0.068883
#
#
# Mechanical properties :
#
#
# Convention : Reuss Voigt Hill
#
# Bulk Modulus (GPa) = 51.96519 52.01407 51.98963
# Shear Modulus (GPa) = 20.44477 21.19017 20.81747
#
# Velocity S-wave (km/s) = 3.56309 3.62746 3.59542
# Velocity P-wave (km/s) = 7.01401 7.06002 7.03705
#
# Compressibility (1/GPa) = 0.01924365
#
# Stress axis : x y z
#
# Youngs Moduli (GPa) = 58.71561 58.71561 63.61004
#
# Poissons Ratio (x) = 0.37890 0.28041
# Poissons Ratio (y) = 0.37890 0.28041
# Poissons Ratio (z) = 0.25884 0.25884
#
# Static dielectric constant tensor:
#      x y z
#    x 2.932700 0.000000 0.000000 
#    y 0.000000 2.932700 0.000000 
#    z 0.000000 0.000000 3.027590 
# 
# 
# High freq. dielectric constant tensor:
#      x y z
#    x 1.596460 0.000000 0.000000 
#    y 0.000000 1.596460 0.000000 
#    z 0.000000 0.000000 1.612800 
# 
# From -- ./inp_files/3318.got.cif
#   From: 2010.03.12/outbox.cif.g09.slc.cpg/sg123_2_cif.got.tgz:3318.got - 2010.04.06 16:26:55.
