data_PCOD8312387
_publ_section_title
;
Structure prediction by ZEFSAII (Michael W. Deem and Ramdas Pophale) SiO2 
 PCOD8312387
Probable space group: P 4/M M M
;
_chemical_formula_sum "Si O2"
_cell_formula_units_Z 128
_cell_length_a 20.958038
_cell_length_b 20.958038
_cell_length_c 19.165247
_cell_angle_alpha 90.000000
_cell_angle_beta 90.000000
_cell_angle_gamma 90.000000
_cell_volume 8418.130765
_symmetry_space_group_name_H-M "P 4/M M M"
_symmetry_group_IT_number 123
_symmetry_cell_setting 'tetragonal'
loop_
_space_group_symop_operation_xyz
x,y,z
-y,x,z
-x,-y,z
y,-x,z
x,-y,-z
-x,y,-z
y,x,-z
-y,-x,-z
-x,-y,-z
y,-x,-z
x,y,-z
-y,x,-z
-x,y,z
x,-y,z
-y,-x,z
y,x,z
loop_
_atom_site_type_symbol
_atom_site_label
_atom_site_fract_x
_atom_site_fract_y
_atom_site_fract_z
Si Si1 0.841675 0.259350 0.692104
Si Si2 0.647203 0.245856 0.078601
Si Si3 0.680995 0.074568 0.580836
Si Si4 0.679270 0.425472 0.187618
Si Si5 0.265571 0.365090 0.676147
Si Si6 0.828975 0.070640 0.082519
Si Si7 0.571324 0.171275 0.420090
Si Si8 0.264325 0.157438 0.154129
O O1 0.811245 0.188756 0.683976
O O2 0.895116 0.265593 0.631621
O O3 0.786397 0.311095 0.687689
O O4 0.872685 0.271175 0.768434
O O5 0.706372 0.293629 0.075602
O O6 0.588351 0.279063 0.118433
O O7 0.669387 0.182232 0.120418
O O8 0.625519 0.227778 0.000000
O O9 0.700969 0.085301 0.500000
O O10 0.615200 0.110757 0.598915
O O11 0.672146 0.000000 0.597163
O O12 0.663307 0.500000 0.192171
O O13 0.612464 0.387537 0.185122
O O14 0.721476 0.403262 0.253010
O O15 0.331151 0.331151 0.649917
O O16 0.237198 0.413234 0.619483
O O17 0.888102 0.111899 0.112127
O O18 0.762406 0.102223 0.104413
O O19 0.834553 0.000000 0.114448
O O20 0.831061 0.068513 0.000000
O O21 0.579476 0.189880 0.500000
O O22 0.500000 0.149409 0.401544
O O23 0.217052 0.217052 0.160361
#
# Coordination Sequence:
#
# PCOD8312387 Si02
#       8
#    16  16  16  16  16  16  16  16
#     4   9  16  27  45  65  85 108 137 175 216 256
#     4   9  16  27  44  63  82 106 136 173 218 262
#     4   9  18  30  42  60  88 118 145 173 206 248
#     4  10  19  30  44  62  85 114 144 174 210 253
#     4   9  16  28  44  63  86 110 138 173 215 255
#     4   9  17  27  39  58  85 116 146 174 206 248
#     4   9  17  28  43  63  85 112 145 176 208 249
#     4   9  15  26  43  63  84 105 135 177 221 257
#
# _framework density 15.205276
#
# number of rings (size 3 to 8) (size 9 to 14) (size 15 to 20)
#    0.000    2.875    1.250    0.750    0.000    3.250 
#    0.000    4.375    0.000    0.000    0.000    1.750 
#    0.000    0.750    0.000   15.625    0.000    0.625 
#
# Total GULP energy -1586443.891618 kJ/mol
# GULP energy per Si atom -12394.092903 kJ/mol
# Density = 1.517067 g / cm^3
# Si number density = 15.205276 Si / 1000 Ang^3
#
#
#
# Elastic Constant Matrix: (Units=GPa)
#
#
# Indices 1 2 3 4 5 6 
#
# 1 60.9027 31.4135 39.5401 0.0000 0.0000 0.0000
# 2 31.4135 60.9027 39.5401 0.0000 0.0000 0.0000
# 3 39.5401 39.5401 80.5172 0.0000 0.0000 0.0000
# 4 0.0000 0.0000 0.0000 17.9950 0.0000 0.0000
# 5 0.0000 0.0000 0.0000 0.0000 17.9950 0.0000
# 6 0.0000 0.0000 0.0000 0.0000 0.0000 11.6411
#
#
#
# Elastic Compliance Matrix: (Units=1/GPa)
#
#
# Indices 1 2 3 4 5 6 
#
# 1 0.026304 -0.007606 -0.009182 0.000000 0.000000 0.000000
# 2 -0.007606 0.026304 -0.009182 0.000000 0.000000 0.000000
# 3 -0.009182 -0.009182 0.021438 0.000000 0.000000 0.000000
# 4 0.000000 0.000000 0.000000 0.055571 0.000000 0.000000
# 5 0.000000 0.000000 0.000000 0.000000 0.055571 0.000000
# 6 0.000000 0.000000 0.000000 0.000000 0.000000 0.085902
#
#
# Mechanical properties :
#
#
# Convention : Reuss Voigt Hill
#
# Bulk Modulus (GPa) = 45.23788 47.03443 46.13615
# Shear Modulus (GPa) = 15.13313 15.64814 15.39064
#
# Velocity S-wave (km/s) = 3.15819 3.21148 3.18495
# Velocity P-wave (km/s) = 6.56619 6.68966 6.62822
#
# Compressibility (1/GPa) = 0.02210537
#
# Stress axis : x y z
#
# Youngs Moduli (GPa) = 38.01660 38.01660 46.64625
#
# Poissons Ratio (x) = 0.28917 0.42831
# Poissons Ratio (y) = 0.28917 0.42831
# Poissons Ratio (z) = 0.34907 0.34907
#
# Static dielectric constant tensor:
#      x y z
#    x 2.868590 0.000000 0.000000 
#    y 0.000000 2.868590 0.000000 
#    z 0.000000 0.000000 3.084400 
# 
# 
# High freq. dielectric constant tensor:
#      x y z
#    x 1.560980 0.000000 0.000000 
#    y 0.000000 1.560980 0.000000 
#    z 0.000000 0.000000 1.587850 
# 
# From -- ./inp_files/6041.got.cif
#   From: 2010.03.12/outbox.cif.g09.slc.cpg/sg123_4_cif.got.tgz:6041.got - 2010.04.06 16:26:55.
