data_PCOD8312284
_publ_section_title
;
Structure prediction by ZEFSAII (Michael W. Deem and Ramdas Pophale) SiO2 
 PCOD8312284
Probable space group: P 4/M M M
;
_chemical_formula_sum "Si O2"
_cell_formula_units_Z 68
_cell_length_a 18.021885
_cell_length_b 18.021885
_cell_length_c 11.037902
_cell_angle_alpha 90.000000
_cell_angle_beta 90.000000
_cell_angle_gamma 90.000000
_cell_volume 3584.981856
_symmetry_space_group_name_H-M "P 4/M M M"
_symmetry_group_IT_number 123
_symmetry_cell_setting 'tetragonal'
loop_
_space_group_symop_operation_xyz
x,y,z
-y,x,z
-x,-y,z
y,-x,z
x,-y,-z
-x,y,-z
y,x,-z
-y,-x,-z
-x,-y,-z
y,-x,-z
x,y,-z
-y,x,-z
-x,y,z
x,-y,z
-y,-x,z
y,x,z
loop_
_atom_site_type_symbol
_atom_site_label
_atom_site_fract_x
_atom_site_fract_y
_atom_site_fract_z
Si Si1 0.414980 0.000000 0.737409
Si Si2 0.649207 0.000000 0.000000
Si Si3 0.220573 0.107201 0.000000
Si Si4 0.296382 0.415739 0.355878
Si Si5 0.854892 0.660772 0.642083
Si Si6 0.193367 0.918721 0.735468
O O1 0.385748 0.072710 0.671669
O O2 0.500000 0.000000 0.712721
O O3 0.399810 0.000000 0.880264
O O4 0.694037 0.078921 0.000000
O O5 0.185341 0.071535 0.120167
O O6 0.196370 0.196370 0.000000
O O7 0.295524 0.417530 0.500000
O O8 0.304968 0.500000 0.305451
O O9 0.365304 0.365304 0.309396
O O10 0.218856 0.380643 0.308864
O O11 0.848122 0.675037 0.500000
O O12 0.862782 0.739523 0.708003
O O13 0.118244 0.881757 0.683046
O O14 0.205512 0.000000 0.676051
#
# Coordination Sequence:
#
# PCOD8312284 Si02
#       6
#     8   4   8  16  16  16
#     4  12  24  36  57  83 110 146 179 220 276 334
#     4  12  19  42  56  77 114 134 170 230 277 332
#     4  10  18  33  57  77  99 135 182 232 272 317
#     4   9  18  32  50  74 105 140 178 221 266 313
#     4  11  21  36  55  78 110 145 185 226 265 321
#     4  11  21  35  55  79 107 143 187 232 279 327
#
# _framework density 18.968019000000002
#
# number of rings (size 3 to 8) (size 9 to 14) (size 15 to 20)
#    0.000    1.412    4.706    1.941    0.000    3.765 
#    0.000    1.176    0.000    2.294    0.000    1.647 
#    0.000    0.000    0.000    0.000    0.000   28.000 
#
# Total GULP energy -842399.989200 kJ/mol
# GULP energy per Si atom -12388.235135 kJ/mol
# Density = 1.892485 g / cm^3
# Si number density = 18.968019 Si / 1000 Ang^3
#
#
#
# Elastic Constant Matrix: (Units=GPa)
#
#
# Indices 1 2 3 4 5 6 
#
# 1 139.2016 83.7177 18.2654 0.0000 0.0000 0.0000
# 2 83.7177 139.2016 18.2654 0.0000 0.0000 0.0000
# 3 18.2654 18.2654 38.2420 0.0000 0.0000 0.0000
# 4 0.0000 0.0000 0.0000 16.9040 0.0000 0.0000
# 5 0.0000 0.0000 0.0000 0.0000 16.9040 0.0000
# 6 0.0000 0.0000 0.0000 0.0000 0.0000 26.5869
#
#
#
# Elastic Compliance Matrix: (Units=1/GPa)
#
#
# Indices 1 2 3 4 5 6 
#
# 1 0.011445 -0.006578 -0.002325 0.000000 0.000000 0.000000
# 2 -0.006578 0.011445 -0.002325 0.000000 0.000000 0.000000
# 3 -0.002325 -0.002325 0.028370 0.000000 0.000000 0.000000
# 4 0.000000 0.000000 0.000000 0.059157 0.000000 0.000000
# 5 0.000000 0.000000 0.000000 0.000000 0.059157 0.000000
# 6 0.000000 0.000000 0.000000 0.000000 0.000000 0.037612
#
#
# Mechanical properties :
#
#
# Convention : Reuss Voigt Hill
#
# Bulk Modulus (GPa) = 34.71580 61.90469 48.31025
# Shear Modulus (GPa) = 20.89919 25.17211 23.03565
#
# Velocity S-wave (km/s) = 3.32296 3.64687 3.48867
# Velocity P-wave (km/s) = 5.75019 7.10211 6.46161
#
# Compressibility (1/GPa) = 0.02880533
#
# Stress axis : x y z
#
# Youngs Moduli (GPa) = 87.37391 87.37391 35.24880
#
# Poissons Ratio (x) = 0.57476 0.08194
# Poissons Ratio (y) = 0.57476 0.08194
# Poissons Ratio (z) = 0.20310 0.20310
#
# Static dielectric constant tensor:
#      x y z
#    x 3.702370 0.000000 0.000000 
#    y 0.000000 3.702370 0.000000 
#    z 0.000000 0.000000 3.284720 
# 
# 
# High freq. dielectric constant tensor:
#      x y z
#    x 1.739720 0.000000 0.000000 
#    y 0.000000 1.739720 0.000000 
#    z 0.000000 0.000000 1.704800 
# 
# From -- ./inp_files/2793.got.cif
#   From: 2010.03.12/outbox.cif.g09.slc.cpg/sg123_2_cif.got.tgz:2793.got - 2010.04.06 16:26:55.
