data_PCOD8312536
_publ_section_title
;
Structure prediction by ZEFSAII (Michael W. Deem and Ramdas Pophale) SiO2 
 PCOD8312536
Probable space group: P 4/M M M
;
_chemical_formula_sum "Si O2"
_cell_formula_units_Z 120
_cell_length_a 18.579427
_cell_length_b 18.579427
_cell_length_c 20.458283
_cell_angle_alpha 90.000000
_cell_angle_beta 90.000000
_cell_angle_gamma 90.000000
_cell_volume 7062.099202
_symmetry_space_group_name_H-M "P 4/M M M"
_symmetry_group_IT_number 123
_symmetry_cell_setting 'tetragonal'
loop_
_space_group_symop_operation_xyz
x,y,z
-y,x,z
-x,-y,z
y,-x,z
x,-y,-z
-x,y,-z
y,x,-z
-y,-x,-z
-x,-y,-z
y,-x,-z
x,y,-z
-y,x,-z
-x,y,z
x,-y,z
-y,-x,z
y,x,z
loop_
_atom_site_type_symbol
_atom_site_label
_atom_site_fract_x
_atom_site_fract_y
_atom_site_fract_z
Si Si1 0.302261 0.084330 0.189148
Si Si2 0.182013 0.420564 0.242467
Si Si3 0.579722 0.154898 0.389258
Si Si4 0.083024 0.201591 0.690132
Si Si5 0.581933 0.000000 0.428271
Si Si6 0.295789 0.414763 0.859595
Si Si7 0.688691 0.191855 0.926628
Si Si8 0.844172 0.728766 0.571667
O O1 0.373981 0.114046 0.222007
O O2 0.237863 0.100566 0.239956
O O3 0.292751 0.125125 0.120454
O O4 0.309931 0.000000 0.174933
O O5 0.161704 0.500000 0.218197
O O6 0.192848 0.417553 0.319593
O O7 0.259005 0.398859 0.210926
O O8 0.500000 0.167165 0.421026
O O9 0.599112 0.069705 0.384665
O O10 0.646035 0.184851 0.431238
O O11 0.129404 0.129404 0.683268
O O12 0.098830 0.255860 0.629600
O O13 0.000000 0.179184 0.686396
O O14 0.500000 0.000000 0.447336
O O15 0.622812 0.000000 0.500000
O O16 0.310416 0.500000 0.872115
O O17 0.371493 0.371493 0.864124
O O18 0.236510 0.384386 0.910693
O O19 0.754993 0.245008 0.919616
O O20 0.681138 0.161482 0.000000
O O21 0.876540 0.748469 0.500000
O O22 0.773840 0.773840 0.587627
#
# Coordination Sequence:
#
# PCOD8312536 Si02
#       8
#    16  16  16  16   8  16  16  16
#     4  10  19  31  50  75 100 127 160 200 241 281
#     4   9  18  30  45  68  97 129 162 194 235 288
#     4  10  19  31  48  69  95 128 166 202 242 297
#     4  10  21  36  53  73  96 126 164 206 251 294
#     4   9  18  28  40  64  94 124 156 196 246 296
#     4   9  18  32  50  73  99 128 165 207 250 295
#     4   9  18  33  52  72  98 132 163 194 236 288
#     4  10  21  34  48  70 100 131 164 205 251 295
#
# _framework density 16.992114999999998
#
# number of rings (size 3 to 8) (size 9 to 14) (size 15 to 20)
#    0.000    2.467    1.333    0.800    1.867    3.200 
#    0.000    0.000    0.000    0.000    0.000    7.467 
#    0.000    0.267    0.000   13.867    0.000    0.000 
#
# Total GULP energy -1486599.873913 kJ/mol
# GULP energy per Si atom -12388.332283 kJ/mol
# Density = 1.695344 g / cm^3
# Si number density = 16.992115 Si / 1000 Ang^3
#
#
#
# Elastic Constant Matrix: (Units=GPa)
#
#
# Indices 1 2 3 4 5 6 
#
# 1 92.9679 40.1339 37.1990 0.0000 0.0000 0.0000
# 2 40.1339 92.9679 37.1990 0.0000 0.0000 0.0000
# 3 37.1990 37.1990 98.0726 0.0000 0.0000 0.0000
# 4 0.0000 0.0000 0.0000 31.2331 0.0000 0.0000
# 5 0.0000 0.0000 0.0000 0.0000 31.2331 0.0000
# 6 0.0000 0.0000 0.0000 0.0000 0.0000 19.9445
#
#
#
# Elastic Compliance Matrix: (Units=1/GPa)
#
#
# Indices 1 2 3 4 5 6 
#
# 1 0.014231 -0.004696 -0.003616 0.000000 0.000000 0.000000
# 2 -0.004696 0.014231 -0.003616 0.000000 0.000000 0.000000
# 3 -0.003616 -0.003616 0.012940 0.000000 0.000000 0.000000
# 4 0.000000 0.000000 0.000000 0.032017 0.000000 0.000000
# 5 0.000000 0.000000 0.000000 0.000000 0.032017 0.000000
# 6 0.000000 0.000000 0.000000 0.000000 0.000000 0.050139
#
#
# Mechanical properties :
#
#
# Convention : Reuss Voigt Hill
#
# Bulk Modulus (GPa) = 57.00225 57.00805 57.00515
# Shear Modulus (GPa) = 26.98596 27.78058 27.38327
#
# Velocity S-wave (km/s) = 3.98948 4.04779 4.01874
# Velocity P-wave (km/s) = 7.40543 7.44773 7.42661
#
# Compressibility (1/GPa) = 0.01754317
#
# Stress axis : x y z
#
# Youngs Moduli (GPa) = 70.26995 70.26995 77.27999
#
# Poissons Ratio (x) = 0.33001 0.27948
# Poissons Ratio (y) = 0.33001 0.27948
# Poissons Ratio (z) = 0.25413 0.25413
#
# Static dielectric constant tensor:
#      x y z
#    x 3.177750 0.000000 0.000000 
#    y 0.000000 3.177750 0.000000 
#    z 0.000000 0.000000 3.325290 
# 
# 
# High freq. dielectric constant tensor:
#      x y z
#    x 1.645410 0.000000 0.000000 
#    y 0.000000 1.645410 0.000000 
#    z 0.000000 0.000000 1.656930 
# 
# From -- ./inp_files/6829.got.cif
#   From: 2010.03.12/outbox.cif.g09.slc.cpg/sg123_4_cif.got.tgz:6829.got - 2010.04.06 16:26:55.
