data_PCOD8312500
_publ_section_title
;
Structure prediction by ZEFSAII (Michael W. Deem and Ramdas Pophale) SiO2 
 PCOD8312500
Probable space group: P 4/M M M
;
_chemical_formula_sum "Si O2"
_cell_formula_units_Z 128
_cell_length_a 17.951828
_cell_length_b 17.951828
_cell_length_c 22.894025
_cell_angle_alpha 90.000000
_cell_angle_beta 90.000000
_cell_angle_gamma 90.000000
_cell_volume 7378.014592
_symmetry_space_group_name_H-M "P 4/M M M"
_symmetry_group_IT_number 123
_symmetry_cell_setting 'tetragonal'
loop_
_space_group_symop_operation_xyz
x,y,z
-y,x,z
-x,-y,z
y,-x,z
x,-y,-z
-x,y,-z
y,x,-z
-y,-x,-z
-x,-y,-z
y,-x,-z
x,y,-z
-y,x,-z
-x,y,z
x,-y,z
-y,-x,z
y,x,z
loop_
_atom_site_type_symbol
_atom_site_label
_atom_site_fract_x
_atom_site_fract_y
_atom_site_fract_z
Si Si1 0.289695 0.410844 0.855552
Si Si2 0.916554 0.645100 0.681997
Si Si3 0.808624 0.316315 0.065894
Si Si4 0.297255 0.414542 0.613653
Si Si5 0.585693 0.860299 0.565006
Si Si6 0.586387 0.227899 0.267016
Si Si7 0.082539 0.799360 0.737346
Si Si8 0.913011 0.791456 0.871576
O O1 0.303588 0.500000 0.858683
O O2 0.367671 0.367671 0.868816
O O3 0.224578 0.388631 0.901124
O O4 0.259976 0.380623 0.792992
O O5 0.903287 0.633712 0.613048
O O6 0.859840 0.600853 0.723551
O O7 0.905411 0.731973 0.693257
O O8 0.000000 0.619301 0.698741
O O9 0.746643 0.253358 0.067855
O O10 0.883047 0.281872 0.094928
O O11 0.827951 0.340544 0.000000
O O12 0.323417 0.500000 0.616771
O O13 0.366161 0.366161 0.590330
O O14 0.228551 0.404616 0.569708
O O15 0.273230 0.383234 0.677329
O O16 0.610717 0.884958 0.500000
O O17 0.500000 0.881599 0.576581
O O18 0.500000 0.240654 0.263320
O O19 0.136890 0.863111 0.715710
O O20 0.098438 0.773467 0.803427
O O21 0.000000 0.832555 0.733025
O O22 0.866098 0.866098 0.888668
O O23 0.000000 0.804533 0.887558
#
# Coordination Sequence:
#
# PCOD8312500 Si02
#       8
#    16  16  16  16  16  16  16  16
#     4  10  20  34  53  75  98 125 160 204 252 301
#     4  10  19  30  48  74  98 120 154 198 234 269
#     4   9  18  32  49  69  95 130 168 201 239 293
#     4   9  17  29  45  65  90 120 155 195 237 286
#     4   9  19  34  48  64  90 124 158 192 238 294
#     4   9  18  31  46  67  96 128 156 184 231 292
#     4   9  18  31  47  70  98 125 154 190 233 279
#     4   9  17  30  50  76 105 137 172 209 249 292
#
# _framework density 17.348839999999999
#
# number of rings (size 3 to 8) (size 9 to 14) (size 15 to 20)
#    0.000    2.750    0.000    2.250    0.000    6.000 
#    0.000    1.875    0.000    3.375    0.000    6.125 
#    0.000    0.000    0.000    2.750    0.000    0.125 
#
# Total GULP energy -1586617.758030 kJ/mol
# GULP energy per Si atom -12395.451235 kJ/mol
# Density = 1.730935 g / cm^3
# Si number density = 17.348840 Si / 1000 Ang^3
#
#
#
# Elastic Constant Matrix: (Units=GPa)
#
#
# Indices 1 2 3 4 5 6 
#
# 1 66.6096 30.7216 37.3866 0.0000 0.0000 0.0000
# 2 30.7216 66.6096 37.3866 0.0000 0.0000 0.0000
# 3 37.3866 37.3866 89.3507 0.0000 0.0000 0.0000
# 4 0.0000 0.0000 0.0000 18.5948 0.0000 0.0000
# 5 0.0000 0.0000 0.0000 0.0000 18.5948 0.0000
# 6 0.0000 0.0000 0.0000 0.0000 0.0000 25.8989
#
#
#
# Elastic Compliance Matrix: (Units=1/GPa)
#
#
# Indices 1 2 3 4 5 6 
#
# 1 0.021503 -0.006362 -0.006336 0.000000 0.000000 0.000000
# 2 -0.006362 0.021503 -0.006336 0.000000 0.000000 0.000000
# 3 -0.006336 -0.006336 0.016494 0.000000 0.000000 0.000000
# 4 0.000000 0.000000 0.000000 0.053778 0.000000 0.000000
# 5 0.000000 0.000000 0.000000 0.000000 0.053778 0.000000
# 6 0.000000 0.000000 0.000000 0.000000 0.000000 0.038612
#
#
# Mechanical properties :
#
#
# Convention : Reuss Voigt Hill
#
# Bulk Modulus (GPa) = 46.65406 48.17328 47.41367
# Shear Modulus (GPa) = 19.93001 20.42273 20.17637
#
# Velocity S-wave (km/s) = 3.39304 3.43473 3.41395
# Velocity P-wave (km/s) = 6.50388 6.59981 6.55202
#
# Compressibility (1/GPa) = 0.02143436
#
# Stress axis : x y z
#
# Youngs Moduli (GPa) = 46.50537 46.50537 60.62907
#
# Poissons Ratio (x) = 0.29585 0.38412
# Poissons Ratio (y) = 0.29585 0.38412
# Poissons Ratio (z) = 0.29464 0.29464
#
# Static dielectric constant tensor:
#      x y z
#    x 3.161640 0.000000 0.000000 
#    y 0.000000 3.161640 0.000000 
#    z 0.000000 0.000000 3.386320 
# 
# 
# High freq. dielectric constant tensor:
#      x y z
#    x 1.659700 0.000000 0.000000 
#    y 0.000000 1.659700 0.000000 
#    z 0.000000 0.000000 1.664960 
# 
# From -- ./inp_files/7693.got.cif
#   From: 2010.03.12/outbox.cif.g09.slc.cpg/sg123_4_cif.got.tgz:7693.got - 2010.04.06 16:26:55.
