data_PCOD8312026
_publ_section_title
;
Structure prediction by ZEFSAII (Michael W. Deem and Ramdas Pophale) SiO2 
 PCOD8312026
Probable space group: I -4 2 D
;
_chemical_formula_sum "Si O2"
_cell_formula_units_Z 64
_cell_length_a 14.890228
_cell_length_b 14.890228
_cell_length_c 13.192533
_cell_angle_alpha 90.000000
_cell_angle_beta 90.000000
_cell_angle_gamma 90.000000
_cell_volume 2925.033772
_symmetry_space_group_name_H-M "I -4 2 D"
_symmetry_group_IT_number 122
_symmetry_cell_setting 'tetragonal'
loop_
_space_group_symop_operation_xyz
x,y,z
y,-x,-z
-x,-y,z
-y,x,-z
x,1/2-y,1/4-z
-x,1/2+y,1/4-z
-y,1/2-x,1/4+z
y,1/2+x,1/4+z
1/2+x,1/2+y,1/2+z
1/2+y,1/2-x,1/2-z
1/2-x,1/2-y,1/2+z
1/2-y,1/2+x,1/2-z
1/2+x,-y,3/4-z
1/2-x,y,3/4-z
1/2-y,-x,3/4+z
1/2+y,x,3/4+z
loop_
_atom_site_type_symbol
_atom_site_label
_atom_site_fract_x
_atom_site_fract_y
_atom_site_fract_z
Si Si1 0.053941 0.118329 0.952748
Si Si2 0.853197 0.709303 0.901154
Si Si3 0.483732 0.602685 0.228110
Si Si4 0.133692 0.948584 0.473578
O O1 0.014925 0.120218 0.840406
O O2 0.113461 0.206836 0.969543
O O3 0.115139 0.029304 0.968146
O O4 0.750000 0.721984 0.875000
O O5 0.871539 0.620806 0.967558
O O6 0.907206 0.711491 0.794082
O O7 0.500000 0.500000 0.195235
O O8 0.542041 0.660276 0.145753
O O9 0.048403 0.884084 0.485650
#
# Coordination Sequence:
#
# PCOD8312026 Si02
#       4
#    16  16  16  16
#     4  11  26  49  68  98 145 205 243 282 377 450
#     4  11  26  42  71 115 142 176 252 318 357 439
#     4  11  21  42  74  98 138 191 235 295 371 445
#     4   9  17  37  66  99 132 177 223 288 377 418
#
# _framework density 21.880089999999999
#
# number of rings (size 3 to 8) (size 9 to 14) (size 15 to 20)
#    0.000    1.500    7.500    0.000    7.000    3.000 
#    0.000    2.500    0.000    0.000    0.000    0.000 
#    0.000    0.000    0.000    0.000    0.000    0.000 
#
# Total GULP energy -396651.931700 kJ/mol
# GULP energy per Si atom -12395.372866 kJ/mol
# Density = 2.183029 g / cm^3
# Si number density = 21.880090 Si / 1000 Ang^3
#
#
#
# Elastic Constant Matrix: (Units=GPa)
#
#
# Indices 1 2 3 4 5 6 
#
# 1 111.9578 68.2935 36.6358 0.0000 0.0000 0.0000
# 2 68.2935 111.9578 36.6358 0.0000 0.0000 0.0000
# 3 36.6358 36.6358 119.4599 0.0000 0.0000 0.0000
# 4 0.0000 0.0000 0.0000 23.4645 0.0000 0.0000
# 5 0.0000 0.0000 0.0000 0.0000 23.4645 0.0000
# 6 0.0000 0.0000 0.0000 0.0000 0.0000 25.8886
#
#
#
# Elastic Compliance Matrix: (Units=1/GPa)
#
#
# Indices 1 2 3 4 5 6 
#
# 1 0.014620 -0.008282 -0.001944 0.000000 0.000000 0.000000
# 2 -0.008282 0.014620 -0.001944 0.000000 0.000000 0.000000
# 3 -0.001944 -0.001944 0.009563 0.000000 0.000000 0.000000
# 4 0.000000 0.000000 0.000000 0.042618 0.000000 0.000000
# 5 0.000000 0.000000 0.000000 0.000000 0.042618 0.000000
# 6 0.000000 0.000000 0.000000 0.000000 0.000000 0.038627
#
#
# Mechanical properties :
#
#
# Convention : Reuss Voigt Hill
#
# Bulk Modulus (GPa) = 69.13614 69.61175 69.37395
# Shear Modulus (GPa) = 26.06534 28.01754 27.04144
#
# Velocity S-wave (km/s) = 3.45524 3.58230 3.51934
# Velocity P-wave (km/s) = 6.89816 6.99962 6.94907
#
# Compressibility (1/GPa) = 0.01446422
#
# Stress axis : x y z
#
# Youngs Moduli (GPa) = 68.39973 68.39973 104.56752
#
# Poissons Ratio (x) = 0.56649 0.20325
# Poissons Ratio (y) = 0.56649 0.20325
# Poissons Ratio (z) = 0.13295 0.13295
#
# Static dielectric constant tensor:
#      x y z
#    x 3.996880 0.000000 0.000000 
#    y 0.000000 3.996880 0.000000 
#    z 0.000000 0.000000 4.076500 
# 
# 
# High freq. dielectric constant tensor:
#      x y z
#    x 1.852800 0.000000 0.000000 
#    y 0.000000 1.852800 0.000000 
#    z 0.000000 0.000000 1.865140 
# 
# From -- ./inp_files/5141.got.cif
#   From: 2010.03.12/outbox.cif.g09.slc.cpg/sg122_3_cif.got.tgz:5141.got - 2010.04.06 16:17:16.
