data_PCOD8312390
_publ_section_title
;
Structure prediction by ZEFSAII (Michael W. Deem and Ramdas Pophale) SiO2 
 PCOD8312390
Probable space group: P 4/M M M
;
_chemical_formula_sum "Si O2"
_cell_formula_units_Z 96
_cell_length_a 20.921366
_cell_length_b 20.921366
_cell_length_c 13.274286
_cell_angle_alpha 90.000000
_cell_angle_beta 90.000000
_cell_angle_gamma 90.000000
_cell_volume 5810.202176
_symmetry_space_group_name_H-M "P 4/M M M"
_symmetry_group_IT_number 123
_symmetry_cell_setting 'tetragonal'
loop_
_space_group_symop_operation_xyz
x,y,z
-y,x,z
-x,-y,z
y,-x,z
x,-y,-z
-x,y,-z
y,x,-z
-y,-x,-z
-x,-y,-z
y,-x,-z
x,y,-z
-y,x,-z
-x,y,z
x,-y,z
-y,-x,z
y,x,z
loop_
_atom_site_type_symbol
_atom_site_label
_atom_site_fract_x
_atom_site_fract_y
_atom_site_fract_z
Si Si1 0.428290 0.674325 0.880973
Si Si2 0.071813 0.425379 0.801254
Si Si3 0.362142 0.805639 0.115606
Si Si4 0.072474 0.658903 0.613388
Si Si5 0.824436 0.927895 0.884972
Si Si6 0.255162 0.153527 0.256018
O O1 0.500000 0.662469 0.837323
O O2 0.378413 0.621587 0.836262
O O3 0.407481 0.746570 0.852708
O O4 0.429865 0.667002 0.000000
O O5 0.081429 0.500000 0.798992
O O6 0.125537 0.396625 0.874463
O O7 0.081786 0.401012 0.687315
O O8 0.000000 0.407271 0.839840
O O9 0.302610 0.802207 0.191245
O O10 0.339378 0.797545 0.000000
O O11 0.089200 0.636975 0.500000
O O12 0.121782 0.714146 0.645545
O O13 0.000000 0.685243 0.619278
O O14 0.888296 0.888296 0.863862
O O15 0.766436 0.903718 0.816984
O O16 0.840976 0.000000 0.856084
O O17 0.801719 0.921059 0.000000
O O18 0.196345 0.196345 0.293646
#
# Coordination Sequence:
#
# PCOD8312390 Si02
#       6
#    16  16  16  16  16  16
#     4   9  17  28  42  60  82 111 147 184 221 260
#     4   9  18  31  46  66  90 116 149 184 217 258
#     4  10  19  30  44  63  91 124 153 182 218 261
#     4   9  18  32  48  65  85 109 139 179 226 271
#     4   9  17  28  42  61  85 113 145 181 220 262
#     4  10  19  30  45  64  86 113 146 182 219 263
#
# _framework density 16.522659999999998
#
# number of rings (size 3 to 8) (size 9 to 14) (size 15 to 20)
#    0.000    2.667    0.000    2.000    0.000    4.667 
#    0.000    4.167    0.000    0.000    0.000    0.000 
#    0.000    0.000    0.000   15.500    0.000    3.167 
#
# Total GULP energy -1190056.945776 kJ/mol
# GULP energy per Si atom -12396.426518 kJ/mol
# Density = 1.648505 g / cm^3
# Si number density = 16.522660 Si / 1000 Ang^3
#
#
#
# Elastic Constant Matrix: (Units=GPa)
#
#
# Indices 1 2 3 4 5 6 
#
# 1 68.4365 17.7956 3.5060 0.0000 0.0000 0.0000
# 2 17.7956 68.4365 3.5060 0.0000 0.0000 0.0000
# 3 3.5060 3.5060 37.7066 0.0000 0.0000 0.0000
# 4 0.0000 0.0000 0.0000 11.5073 0.0000 0.0000
# 5 0.0000 0.0000 0.0000 0.0000 11.5073 0.0000
# 6 0.0000 0.0000 0.0000 0.0000 0.0000 26.4376
#
#
#
# Elastic Compliance Matrix: (Units=1/GPa)
#
#
# Indices 1 2 3 4 5 6 
#
# 1 0.015716 -0.004031 -0.001086 0.000000 0.000000 0.000000
# 2 -0.004031 0.015716 -0.001086 0.000000 0.000000 0.000000
# 3 -0.001086 -0.001086 0.026723 0.000000 0.000000 0.000000
# 4 0.000000 0.000000 0.000000 0.086901 0.000000 0.000000
# 5 0.000000 0.000000 0.000000 0.000000 0.086901 0.000000
# 6 0.000000 0.000000 0.000000 0.000000 0.000000 0.037825
#
#
# Mechanical properties :
#
#
# Convention : Reuss Voigt Hill
#
# Bulk Modulus (GPa) = 21.85954 24.91053 23.38504
# Shear Modulus (GPa) = 16.81022 19.87527 18.34275
#
# Velocity S-wave (km/s) = 3.19314 3.47206 3.33552
# Velocity P-wave (km/s) = 5.18205 5.58417 5.38686
#
# Compressibility (1/GPa) = 0.04574662
#
# Stress axis : x y z
#
# Youngs Moduli (GPa) = 63.62977 63.62977 37.42153
#
# Poissons Ratio (x) = 0.25649 0.04066
# Poissons Ratio (y) = 0.25649 0.04066
# Poissons Ratio (z) = 0.06913 0.06913
#
# Static dielectric constant tensor:
#      x y z
#    x 3.225250 0.000000 0.000000 
#    y 0.000000 3.225250 0.000000 
#    z 0.000000 0.000000 2.824190 
# 
# 
# High freq. dielectric constant tensor:
#      x y z
#    x 1.641240 0.000000 0.000000 
#    y 0.000000 1.641240 0.000000 
#    z 0.000000 0.000000 1.595630 
# 
# From -- ./inp_files/3134.got.cif
#   From: 2010.03.12/outbox.cif.g09.slc.cpg/sg123_2_cif.got.tgz:3134.got - 2010.04.06 16:26:55.
