data_PCOD8312128
_publ_section_title
;
Structure prediction by ZEFSAII (Michael W. Deem and Ramdas Pophale) SiO2 
 PCOD8312128
Probable space group: P 4/M M M
;
_chemical_formula_sum "Si O2"
_cell_formula_units_Z 112
_cell_length_a 22.299858
_cell_length_b 22.299858
_cell_length_c 18.023690
_cell_angle_alpha 90.000000
_cell_angle_beta 90.000000
_cell_angle_gamma 90.000000
_cell_volume 8962.886653
_symmetry_space_group_name_H-M "P 4/M M M"
_symmetry_group_IT_number 123
_symmetry_cell_setting 'tetragonal'
loop_
_space_group_symop_operation_xyz
x,y,z
-y,x,z
-x,-y,z
y,-x,z
x,-y,-z
-x,y,-z
y,x,-z
-y,-x,-z
-x,-y,-z
y,-x,-z
x,y,-z
-y,x,-z
-x,y,z
x,-y,z
-y,-x,z
y,x,z
loop_
_atom_site_type_symbol
_atom_site_label
_atom_site_fract_x
_atom_site_fract_y
_atom_site_fract_z
Si Si1 0.933276 0.571004 0.917182
Si Si2 0.429284 0.066290 0.350961
Si Si3 0.848614 0.571646 0.215239
Si Si4 0.259734 0.428783 0.500000
Si Si5 0.432137 0.337479 0.083562
Si Si6 0.874321 0.428262 0.500000
Si Si7 0.721973 0.373997 0.781167
Si Si8 0.569795 0.335256 0.639577
O O1 0.936400 0.500000 0.914432
O O2 0.883069 0.592242 0.859175
O O3 0.000000 0.595734 0.896694
O O4 0.915160 0.592793 0.000000
O O5 0.500000 0.061844 0.358568
O O6 0.412344 0.108649 0.283222
O O7 0.402707 0.092460 0.427398
O O8 0.402278 0.000000 0.337132
O O9 0.830937 0.500000 0.214273
O O10 0.793228 0.617541 0.225682
O O11 0.257763 0.500000 0.500000
O O12 0.192917 0.402350 0.500000
O O13 0.292167 0.405666 0.574415
O O14 0.500000 0.344040 0.109991
O O15 0.403399 0.403399 0.088404
O O16 0.397858 0.292287 0.136973
O O17 0.427558 0.311507 0.000000
O O18 0.873328 0.500000 0.500000
O O19 0.694232 0.305769 0.772776
O O20 0.692652 0.416026 0.719234
O O21 0.500000 0.346483 0.631482
O O22 0.600481 0.399520 0.630832
#
# Coordination Sequence:
#
# PCOD8312128 Si02
#       8
#    16  16  16   8  16   8  16  16
#     4   8  14  24  37  55  77  94 108 130 161 200
#     4   9  16  24  35  54  76  92 107 129 158 196
#     4  10  17  25  39  54  68  90 116 139 170 212
#     4   9  17  28  40  54  68  84 109 134 160 206
#     4   9  17  28  40  52  65  80 100 132 174 217
#     4   9  15  23  36  50  68  93 110 120 143 187
#     4  10  20  31  40  51  68  89 115 147 177 207
#     4  10  19  30  42  53  66  83 107 146 192 232
#
# _framework density 12.495974
#
# number of rings (size 3 to 8) (size 9 to 14) (size 15 to 20)
#    0.000    2.714    0.000    3.429    0.000    5.714 
#    0.000    2.143    0.000    3.857    0.000    0.000 
#    0.000    0.000    0.000    0.000    0.000    0.000 
#
# Total GULP energy -1387945.825751 kJ/mol
# GULP energy per Si atom -12392.373444 kJ/mol
# Density = 1.246753 g / cm^3
# Si number density = 12.495974 Si / 1000 Ang^3
#
#
#
# Elastic Constant Matrix: (Units=GPa)
#
#
# Indices 1 2 3 4 5 6 
#
# 1 68.8865 29.8645 34.1794 0.0000 0.0000 0.0000
# 2 29.8645 68.8865 34.1794 0.0000 0.0000 0.0000
# 3 34.1794 34.1794 86.1798 0.0000 0.0000 0.0000
# 4 0.0000 0.0000 0.0000 13.6761 0.0000 0.0000
# 5 0.0000 0.0000 0.0000 0.0000 13.6761 0.0000
# 6 0.0000 0.0000 0.0000 0.0000 0.0000 6.6221
#
#
#
# Elastic Compliance Matrix: (Units=1/GPa)
#
#
# Indices 1 2 3 4 5 6 
#
# 1 0.019793 -0.005834 -0.005536 0.000000 0.000000 0.000000
# 2 -0.005834 0.019793 -0.005536 0.000000 0.000000 0.000000
# 3 -0.005536 -0.005536 0.015995 0.000000 0.000000 0.000000
# 4 0.000000 0.000000 0.000000 0.073120 0.000000 0.000000
# 5 0.000000 0.000000 0.000000 0.000000 0.073120 0.000000
# 6 0.000000 0.000000 0.000000 0.000000 0.000000 0.151010
#
#
# Mechanical properties :
#
#
# Convention : Reuss Voigt Hill
#
# Bulk Modulus (GPa) = 45.93898 46.71103 46.32501
# Shear Modulus (GPa) = 12.69360 15.17683 13.93521
#
# Velocity S-wave (km/s) = 3.19064 3.48880 3.34305
# Velocity P-wave (km/s) = 7.10045 7.32741 7.21483
#
# Compressibility (1/GPa) = 0.02176800
#
# Stress axis : x y z
#
# Youngs Moduli (GPa) = 50.52380 50.52380 62.51969
#
# Poissons Ratio (x) = 0.29475 0.34612
# Poissons Ratio (y) = 0.29475 0.34612
# Poissons Ratio (z) = 0.27971 0.27971
#
# Static dielectric constant tensor:
#      x y z
#    x 2.403090 0.000000 0.000000 
#    y 0.000000 2.403090 0.000000 
#    z 0.000000 0.000000 2.879860 
# 
# 
# High freq. dielectric constant tensor:
#      x y z
#    x 1.435850 0.000000 0.000000 
#    y 0.000000 1.435850 0.000000 
#    z 0.000000 0.000000 1.500390 
# 
# From -- ./inp_files/5971.got.cif
#   From: 2010.03.12/outbox.cif.g09.slc.cpg/sg123_3_cif.got.tgz:5971.got - 2010.04.06 16:26:55.
