data_PCOD8312756
_publ_section_title
;
Structure prediction by ZEFSAII (Michael W. Deem and Ramdas Pophale) SiO2 
 PCOD8312756
Probable space group: P 4/M M M
;
_chemical_formula_sum "Si O2"
_cell_formula_units_Z 108
_cell_length_a 13.710803
_cell_length_b 13.710803
_cell_length_c 34.692153
_cell_angle_alpha 90.000000
_cell_angle_beta 90.000000
_cell_angle_gamma 90.000000
_cell_volume 6521.643199
_symmetry_space_group_name_H-M "P 4/M M M"
_symmetry_group_IT_number 123
_symmetry_cell_setting 'tetragonal'
loop_
_space_group_symop_operation_xyz
x,y,z
-y,x,z
-x,-y,z
y,-x,z
x,-y,-z
-x,y,-z
y,x,-z
-y,-x,-z
-x,-y,-z
y,-x,-z
x,y,-z
-y,x,-z
-x,y,z
x,-y,z
-y,-x,z
y,x,z
loop_
_atom_site_type_symbol
_atom_site_label
_atom_site_fract_x
_atom_site_fract_y
_atom_site_fract_z
Si Si1 0.387912 0.387912 0.500000
Si Si2 0.233262 0.609247 0.336787
Si Si3 0.228880 0.613224 0.249237
Si Si4 0.887971 0.269630 0.956831
Si Si5 0.115533 0.607859 0.114584
Si Si6 0.258302 0.258302 0.457079
Si Si7 0.272654 0.885294 0.188584
Si Si8 0.611357 0.886628 0.410161
O O1 0.500000 0.363199 0.500000
O O2 0.341373 0.341373 0.461434
O O3 0.275703 0.500000 0.339576
O O4 0.320012 0.679989 0.349703
O O5 0.196720 0.630066 0.293478
O O6 0.142592 0.623841 0.365437
O O7 0.246201 0.500000 0.239622
O O8 0.329595 0.670406 0.240341
O O9 0.141140 0.655145 0.223567
O O10 0.830732 0.169269 0.951379
O O11 0.849132 0.349045 0.926378
O O12 0.000000 0.243550 0.948568
O O13 0.873618 0.312393 0.000000
O O14 0.161635 0.500000 0.119209
O O15 0.150868 0.676635 0.149204
O O16 0.000000 0.599793 0.115599
O O17 0.223854 0.223854 0.500000
O O18 0.307066 0.167869 0.435246
O O19 0.169732 0.830269 0.192939
O O20 0.251470 0.000000 0.188951
O O21 0.500000 0.863818 0.424050
O O22 0.634328 0.000000 0.414102
#
# Coordination Sequence:
#
# PCOD8312756 Si02
#       8
#     4  16  16  16  16   8  16  16
#     4   9  18  32  50  74 104 135 162 194 244 305
#     4   9  17  31  50  75 105 133 163 201 244 294
#     4   9  18  31  49  74 103 134 167 201 240 287
#     4   9  17  28  42  62  89 121 157 196 237 283
#     4   9  17  29  45  64  87 117 152 191 236 287
#     4  10  21  34  52  73 102 134 165 206 249 292
#     4  10  20  33  49  70  96 127 163 202 246 295
#     4  10  20  34  53  77 104 135 170 206 247 296
#
# _framework density 16.560244000000001
#
# number of rings (size 3 to 8) (size 9 to 14) (size 15 to 20)
#    0.222    2.407    0.741    1.333    0.000    2.667 
#    0.000    5.926    0.000    2.889    0.000    0.519 
#    0.000    2.667    0.000    6.519    0.000    0.593 
#
# Total GULP energy -1338841.303928 kJ/mol
# GULP energy per Si atom -12396.678740 kJ/mol
# Density = 1.652255 g / cm^3
# Si number density = 16.560244 Si / 1000 Ang^3
#
#
#
# Elastic Constant Matrix: (Units=GPa)
#
#
# Indices 1 2 3 4 5 6 
#
# 1 98.0157 42.6160 49.7698 0.0000 0.0000 0.0000
# 2 42.6160 98.0157 49.7698 0.0000 0.0000 0.0000
# 3 49.7698 49.7698 105.5408 0.0000 0.0000 0.0000
# 4 0.0000 0.0000 0.0000 25.3005 0.0000 0.0000
# 5 0.0000 0.0000 0.0000 0.0000 25.3005 0.0000
# 6 0.0000 0.0000 0.0000 0.0000 0.0000 18.1728
#
#
#
# Elastic Compliance Matrix: (Units=1/GPa)
#
#
# Indices 1 2 3 4 5 6 
#
# 1 0.014362 -0.003689 -0.005033 0.000000 0.000000 0.000000
# 2 -0.003689 0.014362 -0.005033 0.000000 0.000000 0.000000
# 3 -0.005033 -0.005033 0.014222 0.000000 0.000000 0.000000
# 4 0.000000 0.000000 0.000000 0.039525 0.000000 0.000000
# 5 0.000000 0.000000 0.000000 0.000000 0.039525 0.000000
# 6 0.000000 0.000000 0.000000 0.000000 0.000000 0.055027
#
#
# Mechanical properties :
#
#
# Convention : Reuss Voigt Hill
#
# Bulk Modulus (GPa) = 64.78445 65.09816 64.94131
# Shear Modulus (GPa) = 23.84603 24.38252 24.11428
#
# Velocity S-wave (km/s) = 3.79879 3.84129 3.82010
# Velocity P-wave (km/s) = 7.64503 7.68565 7.66537
#
# Compressibility (1/GPa) = 0.01543580
#
# Stress axis : x y z
#
# Youngs Moduli (GPa) = 69.62841 69.62841 70.31357
#
# Poissons Ratio (x) = 0.25684 0.35390
# Poissons Ratio (y) = 0.25684 0.35390
# Poissons Ratio (z) = 0.35045 0.35045
#
# Static dielectric constant tensor:
#      x y z
#    x 2.978370 0.000000 0.000000 
#    y 0.000000 2.978370 0.000000 
#    z 0.000000 0.000000 3.304630 
# 
# 
# High freq. dielectric constant tensor:
#      x y z
#    x 1.621600 0.000000 0.000000 
#    y 0.000000 1.621600 0.000000 
#    z 0.000000 0.000000 1.650460 
# 
# From -- ./inp_files/8815.got.cif
#   From: 2010.03.12/outbox.cif.g09.slc.cpg/sg123_5_cif.got.tgz:8815.got - 2010.04.06 16:26:55.
