data_PCOD8312110
_publ_section_title
;
Structure prediction by ZEFSAII (Michael W. Deem and Ramdas Pophale) SiO2 
 PCOD8312110
Probable space group: I -4 2 D
;
_chemical_formula_sum "Si O2"
_cell_formula_units_Z 60
_cell_length_a 18.039358
_cell_length_b 18.039358
_cell_length_c 8.291992
_cell_angle_alpha 90.000000
_cell_angle_beta 90.000000
_cell_angle_gamma 90.000000
_cell_volume 2698.367077
_symmetry_space_group_name_H-M "I -4 2 D"
_symmetry_group_IT_number 122
_symmetry_cell_setting 'tetragonal'
loop_
_space_group_symop_operation_xyz
x,y,z
y,-x,-z
-x,-y,z
-y,x,-z
x,1/2-y,1/4-z
-x,1/2+y,1/4-z
-y,1/2-x,1/4+z
y,1/2+x,1/4+z
1/2+x,1/2+y,1/2+z
1/2+y,1/2-x,1/2-z
1/2-x,1/2-y,1/2+z
1/2-y,1/2+x,1/2-z
1/2+x,-y,3/4-z
1/2-x,y,3/4-z
1/2-y,-x,3/4+z
1/2+y,x,3/4+z
loop_
_atom_site_type_symbol
_atom_site_label
_atom_site_fract_x
_atom_site_fract_y
_atom_site_fract_z
Si Si1 0.000000 0.500000 0.750000
Si Si2 0.547564 0.617952 0.754507
Si Si3 0.834152 0.961873 0.040053
Si Si4 0.250000 0.344937 0.375000
Si Si5 0.757196 0.398837 0.061578
O O1 0.926808 0.491589 0.645177
O O2 0.480022 0.648569 0.647079
O O3 0.595966 0.565660 0.640261
O O4 0.598361 0.681121 0.836693
O O5 0.809534 0.037607 0.120662
O O6 0.772724 0.896364 0.029207
O O7 0.318430 0.292857 0.329987
O O8 0.750000 0.417605 0.875000
#
# Coordination Sequence:
#
# PCOD8312110 Si02
#       5
#     4  16  16   8  16
#     4  12  28  46  76 112 148 194 252 328 380 442
#     4  12  26  48  75 112 147 197 257 313 384 448
#     4  12  25  48  78 104 151 196 252 310 380 458
#     4  12  28  48  76 106 152 200 244 308 380 454
#     4  12  29  48  74 115 150 198 253 313 382 458
#
# _framework density 22.235672000000001
#
# number of rings (size 3 to 8) (size 9 to 14) (size 15 to 20)
#    0.000    0.000    5.333    3.200    7.467    2.133 
#    0.000    0.000    0.000    0.000    0.000    0.000 
#    0.000    0.000    0.000    0.000    0.000    0.000 
#
# Total GULP energy -372063.846930 kJ/mol
# GULP energy per Si atom -12402.128231 kJ/mol
# Density = 2.218506 g / cm^3
# Si number density = 22.235672 Si / 1000 Ang^3
#
#
#
# Elastic Constant Matrix: (Units=GPa)
#
#
# Indices 1 2 3 4 5 6 
#
# 1 122.0884 46.4885 54.7006 0.0000 0.0000 0.0000
# 2 46.4885 122.0884 54.7006 0.0000 0.0000 0.0000
# 3 54.7006 54.7006 151.8279 0.0000 0.0000 0.0000
# 4 0.0000 0.0000 0.0000 37.2570 0.0000 0.0000
# 5 0.0000 0.0000 0.0000 0.0000 37.2570 0.0000
# 6 0.0000 0.0000 0.0000 0.0000 0.0000 2.3401
#
#
#
# Elastic Compliance Matrix: (Units=1/GPa)
#
#
# Indices 1 2 3 4 5 6 
#
# 1 0.010485 -0.002743 -0.002789 0.000000 0.000000 0.000000
# 2 -0.002743 0.010485 -0.002789 0.000000 0.000000 0.000000
# 3 -0.002789 -0.002789 0.008596 0.000000 0.000000 0.000000
# 4 0.000000 0.000000 0.000000 0.026841 0.000000 0.000000
# 5 0.000000 0.000000 0.000000 0.000000 0.026841 0.000000
# 6 0.000000 0.000000 0.000000 0.000000 0.000000 0.427334
#
#
# Mechanical properties :
#
#
# Convention : Reuss Voigt Hill
#
# Bulk Modulus (GPa) = 77.37973 78.64269 78.01121
# Shear Modulus (GPa) = 9.40678 31.37846 20.39262
#
# Velocity S-wave (km/s) = 2.05905 3.76064 3.03167
# Velocity P-wave (km/s) = 6.36618 7.36893 6.88583
#
# Compressibility (1/GPa) = 0.01292328
#
# Stress axis : x y z
#
# Youngs Moduli (GPa) = 95.37545 95.37545 116.32881
#
# Poissons Ratio (x) = 0.26158 0.32448
# Poissons Ratio (y) = 0.26158 0.32448
# Poissons Ratio (z) = 0.26604 0.26604
#
# Static dielectric constant tensor:
#      x y z
#    x 4.031670 0.000000 0.000000 
#    y 0.000000 4.031670 0.000000 
#    z 0.000000 0.000000 4.342060 
# 
# 
# High freq. dielectric constant tensor:
#      x y z
#    x 1.890220 0.000000 0.000000 
#    y 0.000000 1.890220 0.000000 
#    z 0.000000 0.000000 1.881560 
# 
# From -- ./inp_files/2325.got.cif
#   From: 2010.03.12/outbox.cif.g09.slc.cpg/sg122_2_cif.got.tgz:2325.got - 2010.04.06 16:17:16.
