data_PCOD8312513
_publ_section_title
;
Structure prediction by ZEFSAII (Michael W. Deem and Ramdas Pophale) SiO2 
 PCOD8312513
Probable space group: P 4/M M M
;
_chemical_formula_sum "Si O2"
_cell_formula_units_Z 112
_cell_length_a 19.969332
_cell_length_b 19.969332
_cell_length_c 18.444415
_cell_angle_alpha 90.000000
_cell_angle_beta 90.000000
_cell_angle_gamma 90.000000
_cell_volume 7355.157215
_symmetry_space_group_name_H-M "P 4/M M M"
_symmetry_group_IT_number 123
_symmetry_cell_setting 'tetragonal'
loop_
_space_group_symop_operation_xyz
x,y,z
-y,x,z
-x,-y,z
y,-x,z
x,-y,-z
-x,y,-z
y,x,-z
-y,-x,-z
-x,-y,-z
y,-x,-z
x,y,-z
-y,x,-z
-x,y,z
x,-y,z
-y,-x,z
y,x,z
loop_
_atom_site_type_symbol
_atom_site_label
_atom_site_fract_x
_atom_site_fract_y
_atom_site_fract_z
Si Si1 0.708513 0.500000 0.415584
Si Si2 0.137562 0.500000 0.585069
Si Si3 0.185781 0.579406 0.919317
Si Si4 0.367618 0.077280 0.650228
Si Si5 0.423221 0.310525 0.828001
Si Si6 0.422081 0.076967 0.194698
Si Si7 0.702610 0.188664 0.585574
Si Si8 0.280161 0.613836 0.325133
O O1 0.695484 0.500000 0.500000
O O2 0.785753 0.500000 0.386050
O O3 0.676724 0.434309 0.378637
O O4 0.143985 0.500000 0.500000
O O5 0.097114 0.565070 0.608838
O O6 0.182672 0.500000 0.921903
O O7 0.258310 0.601666 0.888854
O O8 0.124599 0.605125 0.869485
O O9 0.177444 0.609775 0.000000
O O10 0.376948 0.093191 0.735294
O O11 0.300383 0.112938 0.615961
O O12 0.353747 0.000000 0.637309
O O13 0.500000 0.333721 0.841464
O O14 0.376499 0.376499 0.828548
O O15 0.421003 0.268151 0.752488
O O16 0.500000 0.091332 0.213634
O O17 0.413129 0.000000 0.169964
O O18 0.687870 0.193021 0.500000
O O19 0.771848 0.228153 0.603506
O O20 0.637656 0.215894 0.629296
O O21 0.320370 0.679631 0.306791
#
# Coordination Sequence:
#
# PCOD8312513 Si02
#       8
#     8   8  16  16  16  16  16  16
#     4  11  20  29  44  62  82 110 144 186 231 273
#     4  11  21  28  39  64  91 120 148 178 219 265
#     4   9  18  30  46  67  86 106 134 171 211 255
#     4  11  20  30  44  64  91 121 149 180 218 263
#     4  10  20  33  49  65  82 108 142 186 240 290
#     4   9  17  29  45  65  91 121 143 163 200 251
#     4  10  20  32  44  60  85 117 154 192 225 263
#     4  10  19  31  46  62  79 108 147 187 230 275
#
# _framework density 15.227411
#
# number of rings (size 3 to 8) (size 9 to 14) (size 15 to 20)
#    0.000    2.000    2.857    1.929    0.000    3.000 
#    0.000    1.429    0.000    0.214    0.000    2.500 
#    0.000    0.286    0.000    1.571    0.000    0.000 
#
# Total GULP energy -1387740.296495 kJ/mol
# GULP energy per Si atom -12390.538362 kJ/mol
# Density = 1.519275 g / cm^3
# Si number density = 15.227411 Si / 1000 Ang^3
#
#
#
# Elastic Constant Matrix: (Units=GPa)
#
#
# Indices 1 2 3 4 5 6 
#
# 1 66.9643 30.1756 35.8869 0.0000 0.0000 0.0000
# 2 30.1756 66.9643 35.8869 0.0000 0.0000 0.0000
# 3 35.8869 35.8869 88.6091 0.0000 0.0000 0.0000
# 4 0.0000 0.0000 0.0000 17.3202 0.0000 0.0000
# 5 0.0000 0.0000 0.0000 0.0000 17.3202 0.0000
# 6 0.0000 0.0000 0.0000 0.0000 0.0000 31.9612
#
#
#
# Elastic Compliance Matrix: (Units=1/GPa)
#
#
# Indices 1 2 3 4 5 6 
#
# 1 0.020936 -0.006246 -0.005950 0.000000 0.000000 0.000000
# 2 -0.006246 0.020936 -0.005950 0.000000 0.000000 0.000000
# 3 -0.005950 -0.005950 0.016105 0.000000 0.000000 0.000000
# 4 0.000000 0.000000 0.000000 0.057736 0.000000 0.000000
# 5 0.000000 0.000000 0.000000 0.000000 0.057736 0.000000
# 6 0.000000 0.000000 0.000000 0.000000 0.000000 0.031288
#
#
# Mechanical properties :
#
#
# Convention : Reuss Voigt Hill
#
# Bulk Modulus (GPa) = 46.11052 47.38184 46.74618
# Shear Modulus (GPa) = 20.14038 21.35951 20.74995
#
# Velocity S-wave (km/s) = 3.64076 3.74933 3.69544
# Velocity P-wave (km/s) = 6.92968 7.06590 6.99812
#
# Compressibility (1/GPa) = 0.02168703
#
# Stress axis : x y z
#
# Youngs Moduli (GPa) = 47.76373 47.76373 62.09335
#
# Poissons Ratio (x) = 0.29833 0.36944
# Poissons Ratio (y) = 0.29833 0.36944
# Poissons Ratio (z) = 0.28418 0.28418
#
# Static dielectric constant tensor:
#      x y z
#    x 2.796860 0.000000 0.000000 
#    y 0.000000 2.796860 0.000000 
#    z 0.000000 0.000000 3.157300 
# 
# 
# High freq. dielectric constant tensor:
#      x y z
#    x 1.555240 0.000000 0.000000 
#    y 0.000000 1.555240 0.000000 
#    z 0.000000 0.000000 1.593920 
# 
# From -- ./inp_files/5960.got.cif
#   From: 2010.03.12/outbox.cif.g09.slc.cpg/sg123_3_cif.got.tgz:5960.got - 2010.04.06 16:26:55.
