data_PCOD8312533
_publ_section_title
;
Structure prediction by ZEFSAII (Michael W. Deem and Ramdas Pophale) SiO2 
 PCOD8312533
Probable space group: P 4/M M M
;
_chemical_formula_sum "Si O2"
_cell_formula_units_Z 104
_cell_length_a 27.194716
_cell_length_b 27.194716
_cell_length_c 9.094726
_cell_angle_alpha 90.000000
_cell_angle_beta 90.000000
_cell_angle_gamma 90.000000
_cell_volume 6726.028062
_symmetry_space_group_name_H-M "P 4/M M M"
_symmetry_group_IT_number 123
_symmetry_cell_setting 'tetragonal'
loop_
_space_group_symop_operation_xyz
x,y,z
-y,x,z
-x,-y,z
y,-x,z
x,-y,-z
-x,y,-z
y,x,-z
-y,-x,-z
-x,-y,-z
y,-x,-z
x,y,-z
-y,x,-z
-x,y,z
x,-y,z
-y,-x,z
y,x,z
loop_
_atom_site_type_symbol
_atom_site_label
_atom_site_fract_x
_atom_site_fract_y
_atom_site_fract_z
Si Si1 0.941798 0.500000 0.665758
Si Si2 0.400368 0.719633 0.828017
Si Si3 0.445013 0.368260 0.668340
Si Si4 0.057575 0.400676 0.829047
Si Si5 0.776098 0.302515 0.171863
Si Si6 0.862926 0.650563 0.328437
Si Si7 0.803784 0.553994 0.333135
O O1 0.918877 0.500000 0.500000
O O2 0.924868 0.548899 0.751132
O O3 0.000000 0.500000 0.654635
O O4 0.408618 0.667030 0.756635
O O5 0.346587 0.739620 0.782771
O O6 0.442320 0.756531 0.771128
O O7 0.405175 0.713624 0.000000
O O8 0.445901 0.350726 0.500000
O O9 0.500000 0.368121 0.734750
O O10 0.423226 0.423226 0.681820
O O11 0.084787 0.353238 0.755559
O O12 0.000000 0.391503 0.806451
O O13 0.071521 0.404488 0.000000
O O14 0.749000 0.251001 0.210662
O O15 0.827199 0.307316 0.262014
O O16 0.788918 0.305315 0.000000
O O17 0.870863 0.661534 0.500000
O O18 0.841432 0.596738 0.294127
O O19 0.785271 0.559952 0.500000
O O20 0.828430 0.500000 0.308674
#
# Coordination Sequence:
#
# PCOD8312533 Si02
#       7
#     8  16  16  16  16  16  16
#     4   9  17  29  45  63  83 111 147 185 223 259
#     4  10  19  31  48  69  87 103 126 154 189 235
#     4  10  21  35  49  63  78  97 120 147 181 224
#     4  10  20  33  47  64  88 118 152 187 221 261
#     4   9  18  33  50  66  88 115 139 168 208 255
#     4  10  20  31  46  67  88 113 145 181 220 259
#     4   9  18  31  44  60  85 113 137 165 201 241
#
# _framework density 15.462320999999999
#
# number of rings (size 3 to 8) (size 9 to 14) (size 15 to 20)
#    0.000    2.385    0.000    2.538    1.077    6.923 
#    0.000    0.769    0.000    0.000    0.000    1.077 
#    0.000    0.000    0.000    0.000    0.000    0.000 
#
# Total GULP energy -1289400.611222 kJ/mol
# GULP energy per Si atom -12398.082800 kJ/mol
# Density = 1.542713 g / cm^3
# Si number density = 15.462321 Si / 1000 Ang^3
#
#
#
# Elastic Constant Matrix: (Units=GPa)
#
#
# Indices 1 2 3 4 5 6 
#
# 1 53.1851 22.6018 32.0403 0.0000 0.0000 0.0000
# 2 22.6018 53.1851 32.0403 0.0000 0.0000 0.0000
# 3 32.0403 32.0403 80.6537 0.0000 0.0000 0.0000
# 4 0.0000 0.0000 0.0000 19.9210 0.0000 0.0000
# 5 0.0000 0.0000 0.0000 0.0000 19.9210 0.0000
# 6 0.0000 0.0000 0.0000 0.0000 0.0000 20.7974
#
#
#
# Elastic Compliance Matrix: (Units=1/GPa)
#
#
# Indices 1 2 3 4 5 6 
#
# 1 0.026283 -0.006414 -0.007893 0.000000 0.000000 0.000000
# 2 -0.006414 0.026283 -0.007893 0.000000 0.000000 0.000000
# 3 -0.007893 -0.007893 0.018670 0.000000 0.000000 0.000000
# 4 0.000000 0.000000 0.000000 0.050198 0.000000 0.000000
# 5 0.000000 0.000000 0.000000 0.000000 0.050198 0.000000
# 6 0.000000 0.000000 0.000000 0.000000 0.000000 0.048083
#
#
# Mechanical properties :
#
#
# Convention : Reuss Voigt Hill
#
# Bulk Modulus (GPa) = 37.26444 40.04317 38.65381
# Shear Modulus (GPa) = 18.31090 18.81733 18.56412
#
# Velocity S-wave (km/s) = 3.44499 3.49231 3.46873
# Velocity P-wave (km/s) = 6.32269 6.49731 6.41060
#
# Compressibility (1/GPa) = 0.02683523
#
# Stress axis : x y z
#
# Youngs Moduli (GPa) = 38.04716 38.04716 53.56243
#
# Poissons Ratio (x) = 0.24405 0.42277
# Poissons Ratio (y) = 0.24405 0.42277
# Poissons Ratio (z) = 0.30031 0.30031
#
# Static dielectric constant tensor:
#      x y z
#    x 2.810750 0.000000 0.000000 
#    y 0.000000 2.810750 0.000000 
#    z 0.000000 0.000000 3.030950 
# 
# 
# High freq. dielectric constant tensor:
#      x y z
#    x 1.562190 0.000000 0.000000 
#    y 0.000000 1.562190 0.000000 
#    z 0.000000 0.000000 1.603330 
# 
# From -- ./inp_files/1923.got.cif
#   From: 2010.03.12/outbox.cif.g09.slc.cpg/sg123_1_cif.got.tgz:1923.got - 2010.04.06 16:26:55.
