data_PCOD8312490
_publ_section_title
;
Structure prediction by ZEFSAII (Michael W. Deem and Ramdas Pophale) SiO2 
 PCOD8312490
Probable space group: P 4/M M M
;
_chemical_formula_sum "Si O2"
_cell_formula_units_Z 104
_cell_length_a 26.336496
_cell_length_b 26.336496
_cell_length_c 9.054907
_cell_angle_alpha 90.000000
_cell_angle_beta 90.000000
_cell_angle_gamma 90.000000
_cell_volume 6280.583294
_symmetry_space_group_name_H-M "P 4/M M M"
_symmetry_group_IT_number 123
_symmetry_cell_setting 'tetragonal'
loop_
_space_group_symop_operation_xyz
x,y,z
-y,x,z
-x,-y,z
y,-x,z
x,-y,-z
-x,y,-z
y,x,-z
-y,-x,-z
-x,-y,-z
y,-x,-z
x,y,-z
-y,x,-z
-x,y,z
x,-y,z
-y,-x,z
y,x,z
loop_
_atom_site_type_symbol
_atom_site_label
_atom_site_fract_x
_atom_site_fract_y
_atom_site_fract_z
Si Si1 0.559657 0.000000 0.327846
Si Si2 0.370116 0.288133 0.673334
Si Si3 0.943537 0.267118 0.669205
Si Si4 0.371032 0.922899 0.828444
Si Si5 0.188231 0.658912 0.831353
Si Si6 0.149027 0.231055 0.827203
Si Si7 0.557579 0.360826 0.826994
O O1 0.582026 0.050757 0.253560
O O2 0.500000 0.000000 0.300686
O O3 0.573773 0.000000 0.500000
O O4 0.377858 0.288324 0.500000
O O5 0.320982 0.320982 0.721190
O O6 0.363763 0.230864 0.726561
O O7 0.420454 0.311548 0.745573
O O8 0.928774 0.278428 0.500000
O O9 0.943079 0.319115 0.759612
O O10 0.903720 0.227054 0.738051
O O11 0.000000 0.243398 0.680225
O O12 0.375010 0.862171 0.809392
O O13 0.371573 0.938101 0.000000
O O14 0.177381 0.716882 0.784547
O O15 0.207276 0.656925 0.000000
O O16 0.184073 0.184073 0.780018
O O17 0.136348 0.230570 0.000000
O O18 0.500000 0.369743 0.775422
O O19 0.589068 0.410933 0.781884
O O20 0.561167 0.350233 0.000000
#
# Coordination Sequence:
#
# PCOD8312490 Si02
#       7
#     8  16  16  16  16  16  16
#     4  11  23  37  53  73  97 123 155 203 258 303
#     4  10  20  32  48  72 100 130 162 193 230 282
#     4  10  19  30  47  71  99 131 166 203 245 293
#     4  10  20  34  53  73  94 123 163 205 245 293
#     4   9  18  32  50  72  96 126 162 199 239 284
#     4   9  18  31  47  70 100 132 166 204 246 292
#     4   9  18  33  53  75  97 122 152 188 232 281
#
# _framework density 16.558972000000001
#
# number of rings (size 3 to 8) (size 9 to 14) (size 15 to 20)
#    0.000    2.385    0.769    3.000    0.000    6.923 
#    0.000    1.538    0.000    0.923    0.000    2.154 
#    0.000    0.308    0.000    3.385    0.000    2.462 
#
# Total GULP energy -1289745.063775 kJ/mol
# GULP energy per Si atom -12401.394844 kJ/mol
# Density = 1.652128 g / cm^3
# Si number density = 16.558972 Si / 1000 Ang^3
#
#
#
# Elastic Constant Matrix: (Units=GPa)
#
#
# Indices 1 2 3 4 5 6 
#
# 1 108.7404 55.4422 52.9091 0.0000 0.0000 0.0000
# 2 55.4422 108.7404 52.9091 0.0000 0.0000 0.0000
# 3 52.9091 52.9091 85.2946 0.0000 0.0000 0.0000
# 4 0.0000 0.0000 0.0000 24.8495 0.0000 0.0000
# 5 0.0000 0.0000 0.0000 0.0000 24.8495 0.0000
# 6 0.0000 0.0000 0.0000 0.0000 0.0000 23.1174
#
#
#
# Elastic Compliance Matrix: (Units=1/GPa)
#
#
# Indices 1 2 3 4 5 6 
#
# 1 0.014455 -0.004307 -0.006295 0.000000 0.000000 0.000000
# 2 -0.004307 0.014455 -0.006295 0.000000 0.000000 0.000000
# 3 -0.006295 -0.006295 0.019534 0.000000 0.000000 0.000000
# 4 0.000000 0.000000 0.000000 0.040242 0.000000 0.000000
# 5 0.000000 0.000000 0.000000 0.000000 0.040242 0.000000
# 6 0.000000 0.000000 0.000000 0.000000 0.000000 0.043257
#
#
# Mechanical properties :
#
#
# Convention : Reuss Voigt Hill
#
# Bulk Modulus (GPa) = 68.25935 69.47735 68.86835
# Shear Modulus (GPa) = 23.71209 23.99763 23.85486
#
# Velocity S-wave (km/s) = 3.78825 3.81100 3.79964
# Velocity P-wave (km/s) = 7.77470 7.83668 7.80575
#
# Compressibility (1/GPa) = 0.01465001
#
# Stress axis : x y z
#
# Youngs Moduli (GPa) = 69.17959 69.17959 51.19386
#
# Poissons Ratio (x) = 0.29797 0.32226
# Poissons Ratio (y) = 0.29797 0.32226
# Poissons Ratio (z) = 0.43548 0.43548
#
# Static dielectric constant tensor:
#      x y z
#    x 3.132530 0.000000 0.000000 
#    y 0.000000 3.132530 0.000000 
#    z 0.000000 0.000000 3.167160 
# 
# 
# High freq. dielectric constant tensor:
#      x y z
#    x 1.624180 0.000000 0.000000 
#    y 0.000000 1.624180 0.000000 
#    z 0.000000 0.000000 1.647450 
# 
# From -- ./inp_files/1949.got.cif
#   From: 2010.03.12/outbox.cif.g09.slc.cpg/sg123_1_cif.got.tgz:1949.got - 2010.04.06 16:26:55.
