data_PCOD8312067
_publ_section_title
;
Structure prediction by ZEFSAII (Michael W. Deem and Ramdas Pophale) SiO2 
 PCOD8312067
Probable space group: I -4 2 D
;
_chemical_formula_sum "Si O2"
_cell_formula_units_Z 96
_cell_length_a 14.648734
_cell_length_b 14.648734
_cell_length_c 18.551318
_cell_angle_alpha 90.000000
_cell_angle_beta 90.000000
_cell_angle_gamma 90.000000
_cell_volume 3980.842138
_symmetry_space_group_name_H-M "I -4 2 D"
_symmetry_group_IT_number 122
_symmetry_cell_setting 'tetragonal'
loop_
_space_group_symop_operation_xyz
x,y,z
y,-x,-z
-x,-y,z
-y,x,-z
x,1/2-y,1/4-z
-x,1/2+y,1/4-z
-y,1/2-x,1/4+z
y,1/2+x,1/4+z
1/2+x,1/2+y,1/2+z
1/2+y,1/2-x,1/2-z
1/2-x,1/2-y,1/2+z
1/2-y,1/2+x,1/2-z
1/2+x,-y,3/4-z
1/2-x,y,3/4-z
1/2-y,-x,3/4+z
1/2+y,x,3/4+z
loop_
_atom_site_type_symbol
_atom_site_label
_atom_site_fract_x
_atom_site_fract_y
_atom_site_fract_z
Si Si1 0.178250 0.385159 0.073894
Si Si2 0.153445 0.574321 0.004305
Si Si3 0.253290 0.064294 0.793302
Si Si4 0.649799 0.138646 0.243939
Si Si5 0.496261 0.604217 0.107616
Si Si6 0.875977 0.696016 0.226284
O O1 0.139017 0.486558 0.056624
O O2 0.283491 0.381558 0.050003
O O3 0.164074 0.360433 0.157645
O O4 0.130637 0.305646 0.028020
O O5 0.072824 0.649203 0.013455
O O6 0.242616 0.634547 0.020906
O O7 0.163324 0.537164 0.922848
O O8 0.250000 0.030912 0.875000
O O9 0.313676 0.156814 0.790409
O O10 0.313514 0.983556 0.755616
O O11 0.604789 0.140746 0.163792
O O12 0.617949 0.046607 0.282162
O O13 0.500000 0.500000 0.134130
#
# Coordination Sequence:
#
# PCOD8312067 Si02
#       6
#    16  16  16  16  16  16
#     4  11  24  49  75 105 153 199 257 320 388 454
#     4  12  28  44  79 113 154 202 261 320 394 470
#     4  12  28  52  78 113 151 203 265 321 391 464
#     4  12  22  45  69 108 153 207 245 310 393 469
#     4  12  24  42  70 110 156 197 256 312 382 477
#     4  11  27  51  76 106 153 200 257 328 383 456
#
# _framework density 24.115500999999998
#
# number of rings (size 3 to 8) (size 9 to 14) (size 15 to 20)
#    0.000    0.333    6.667    1.500    7.000    1.667 
#    0.000    0.000    0.000    0.000    0.000    0.000 
#    0.000    0.000    0.000    0.000    0.000    0.000 
#
# Total GULP energy -594969.033241 kJ/mol
# GULP energy per Si atom -12395.188193 kJ/mol
# Density = 2.406061 g / cm^3
# Si number density = 24.115501 Si / 1000 Ang^3
#
#
#
# Elastic Constant Matrix: (Units=GPa)
#
#
# Indices 1 2 3 4 5 6 
#
# 1 122.9667 49.9815 31.7265 0.0000 0.0000 0.0000
# 2 49.9815 122.9667 31.7265 0.0000 0.0000 0.0000
# 3 31.7265 31.7265 64.5402 0.0000 0.0000 0.0000
# 4 0.0000 0.0000 0.0000 37.9598 0.0000 0.0000
# 5 0.0000 0.0000 0.0000 0.0000 37.9598 0.0000
# 6 0.0000 0.0000 0.0000 0.0000 0.0000 36.6537
#
#
#
# Elastic Compliance Matrix: (Units=1/GPa)
#
#
# Indices 1 2 3 4 5 6 
#
# 1 0.010378 -0.003324 -0.003468 0.000000 0.000000 0.000000
# 2 -0.003324 0.010378 -0.003468 0.000000 0.000000 0.000000
# 3 -0.003468 -0.003468 0.018904 0.000000 0.000000 0.000000
# 4 0.000000 0.000000 0.000000 0.026344 0.000000 0.000000
# 5 0.000000 0.000000 0.000000 0.000000 0.026344 0.000000
# 6 0.000000 0.000000 0.000000 0.000000 0.000000 0.027282
#
#
# Mechanical properties :
#
#
# Convention : Reuss Voigt Hill
#
# Bulk Modulus (GPa) = 52.24326 59.70476 55.97401
# Shear Modulus (GPa) = 34.12328 35.65060 34.88694
#
# Velocity S-wave (km/s) = 3.76572 3.84907 3.80763
# Velocity P-wave (km/s) = 6.37325 6.67573 6.52624
#
# Compressibility (1/GPa) = 0.01914122
#
# Stress axis : x y z
#
# Youngs Moduli (GPa) = 96.35869 96.35870 52.90007
#
# Poissons Ratio (x) = 0.32025 0.18345
# Poissons Ratio (y) = 0.32025 0.18345
# Poissons Ratio (z) = 0.33415 0.33415
#
# Static dielectric constant tensor:
#      x y z
#    x 4.576780 0.000000 0.000000 
#    y 0.000000 4.576780 0.000000 
#    z 0.000000 0.000000 3.989640 
# 
# 
# High freq. dielectric constant tensor:
#      x y z
#    x 1.966350 0.000000 0.000000 
#    y 0.000000 1.966350 0.000000 
#    z 0.000000 0.000000 1.935180 
# 
# From -- ./inp_files/7316.got.cif
#   From: 2010.03.12/outbox.cif.g09.slc.cpg/sg122_4_cif.got.tgz:7316.got - 2010.04.06 16:17:16.
