data_PCOD8312919
_publ_section_title
;
Structure prediction by ZEFSAII (Michael W. Deem and Ramdas Pophale) SiO2 
 PCOD8312919
Probable space group: P 4/M M M
;
_chemical_formula_sum "Si O2"
_cell_formula_units_Z 56
_cell_length_a 17.895836
_cell_length_b 17.895836
_cell_length_c 8.899177
_cell_angle_alpha 90.000000
_cell_angle_beta 90.000000
_cell_angle_gamma 90.000000
_cell_volume 2850.058846
_symmetry_space_group_name_H-M "P 4/M M M"
_symmetry_group_IT_number 123
_symmetry_cell_setting 'tetragonal'
loop_
_space_group_symop_operation_xyz
x,y,z
-y,x,z
-x,-y,z
y,-x,z
x,-y,-z
-x,y,-z
y,x,-z
-y,-x,-z
-x,-y,-z
y,-x,-z
x,y,-z
-y,x,-z
-x,y,z
x,-y,z
-y,-x,z
y,x,z
loop_
_atom_site_type_symbol
_atom_site_label
_atom_site_fract_x
_atom_site_fract_y
_atom_site_fract_z
Si Si1 0.297945 0.584978 0.826473
Si Si2 0.500000 0.086971 0.833840
Si Si3 0.155712 0.358707 0.322019
Si Si4 0.915443 0.796227 0.321138
O O1 0.298292 0.500000 0.766591
O O2 0.380350 0.619651 0.803876
O O3 0.240897 0.635178 0.731524
O O4 0.273998 0.587769 0.000000
O O5 0.426836 0.109434 0.744192
O O6 0.500000 0.000000 0.853079
O O7 0.500000 0.124889 0.000000
O O8 0.152262 0.362676 0.500000
O O9 0.120314 0.281256 0.262692
O O10 0.916103 0.796138 0.500000
O O11 0.865440 0.865440 0.261169
O O12 0.000000 0.804554 0.258722
#
# Coordination Sequence:
#
# PCOD8312919 Si02
#       4
#    16   8  16  16
#     4  10  21  37  57  81 112 150 191 235 283 338
#     4  11  23  37  55  81 114 149 186 231 281 342
#     4  11  21  35  56  83 115 150 187 233 288 344
#     4   9  18  32  51  78 112 149 189 232 278 331
#
# _framework density 19.648719
#
# number of rings (size 3 to 8) (size 9 to 14) (size 15 to 20)
#    0.000    1.857    1.429    3.000    0.000    4.571 
#    0.000    2.857    0.000    0.000    0.000    2.000 
#    0.000    0.000    0.000   17.714    0.000   18.286 
#
# Total GULP energy -694386.271903 kJ/mol
# GULP energy per Si atom -12399.754855 kJ/mol
# Density = 1.960400 g / cm^3
# Si number density = 19.648719 Si / 1000 Ang^3
#
#
#
# Elastic Constant Matrix: (Units=GPa)
#
#
# Indices 1 2 3 4 5 6 
#
# 1 153.5478 100.0569 31.4542 0.0000 0.0000 0.0000
# 2 100.0569 153.5478 31.4542 0.0000 0.0000 0.0000
# 3 31.4542 31.4542 53.4667 0.0000 0.0000 0.0000
# 4 0.0000 0.0000 0.0000 23.9878 0.0000 0.0000
# 5 0.0000 0.0000 0.0000 0.0000 23.9878 0.0000
# 6 0.0000 0.0000 0.0000 0.0000 0.0000 31.6398
#
#
#
# Elastic Compliance Matrix: (Units=1/GPa)
#
#
# Indices 1 2 3 4 5 6 
#
# 1 0.011656 -0.007039 -0.002716 0.000000 0.000000 0.000000
# 2 -0.007039 0.011656 -0.002716 0.000000 0.000000 0.000000
# 3 -0.002716 -0.002716 0.021899 0.000000 0.000000 0.000000
# 4 0.000000 0.000000 0.000000 0.041688 0.000000 0.000000
# 5 0.000000 0.000000 0.000000 0.000000 0.041688 0.000000
# 6 0.000000 0.000000 0.000000 0.000000 0.000000 0.031606
#
#
# Mechanical properties :
#
#
# Convention : Reuss Voigt Hill
#
# Bulk Modulus (GPa) = 49.33794 76.27696 62.80745
# Shear Modulus (GPa) = 26.05655 29.09624 27.57639
#
# Velocity S-wave (km/s) = 3.64554 3.85232 3.75036
# Velocity P-wave (km/s) = 6.54863 7.66105 7.12658
#
# Compressibility (1/GPa) = 0.02026838
#
# Stress axis : x y z
#
# Youngs Moduli (GPa) = 85.79401 85.79401 45.66426
#
# Poissons Ratio (x) = 0.60390 0.12403
# Poissons Ratio (y) = 0.60390 0.12403
# Poissons Ratio (z) = 0.23302 0.23302
#
# Static dielectric constant tensor:
#      x y z
#    x 3.763490 0.000000 0.000000 
#    y 0.000000 3.763490 0.000000 
#    z 0.000000 0.000000 3.325590 
# 
# 
# High freq. dielectric constant tensor:
#      x y z
#    x 1.777120 0.000000 0.000000 
#    y 0.000000 1.777120 0.000000 
#    z 0.000000 0.000000 1.734570 
# 
# From -- ./inp_files/574.got.cif
#   From: 2010.03.12/outbox.cif.g09.slc.cpg/sg123_1_cif.got.tgz:574.got - 2010.04.06 16:26:55.
