data_PCOD8312096
_publ_section_title
;
Structure prediction by ZEFSAII (Michael W. Deem and Ramdas Pophale) SiO2 
 PCOD8312096
Probable space group: I -4 2 D
;
_chemical_formula_sum "Si O2"
_cell_formula_units_Z 48
_cell_length_a 13.753284
_cell_length_b 13.753284
_cell_length_c 10.479049
_cell_angle_alpha 90.000000
_cell_angle_beta 90.000000
_cell_angle_gamma 90.000000
_cell_volume 1982.141677
_symmetry_space_group_name_H-M "I -4 2 D"
_symmetry_group_IT_number 122
_symmetry_cell_setting 'tetragonal'
loop_
_space_group_symop_operation_xyz
x,y,z
y,-x,-z
-x,-y,z
-y,x,-z
x,1/2-y,1/4-z
-x,1/2+y,1/4-z
-y,1/2-x,1/4+z
y,1/2+x,1/4+z
1/2+x,1/2+y,1/2+z
1/2+y,1/2-x,1/2-z
1/2-x,1/2-y,1/2+z
1/2-y,1/2+x,1/2-z
1/2+x,-y,3/4-z
1/2-x,y,3/4-z
1/2-y,-x,3/4+z
1/2+y,x,3/4+z
loop_
_atom_site_type_symbol
_atom_site_label
_atom_site_fract_x
_atom_site_fract_y
_atom_site_fract_z
Si Si1 0.000000 0.500000 0.750000
Si Si2 0.908557 0.662770 0.394149
Si Si3 0.500000 0.500000 0.500000
Si Si4 0.250000 0.204279 0.375000
Si Si5 0.923342 0.315394 0.855765
O O1 0.001096 0.596268 0.836460
O O2 0.834221 0.728013 0.311283
O O3 0.850317 0.645984 0.528003
O O4 0.921613 0.556312 0.335607
O O5 0.013839 0.715848 0.389626
O O6 0.303108 0.142974 0.267397
#
# Coordination Sequence:
#
# PCOD8312096 Si02
#       5
#     4  16   4   8  16
#     4  12  22  44  80 110 160 192 274 324 408 474
#     4  12  28  50  77 114 163 209 276 330 415 488
#     4  12  30  52  76 110 164 228 262 336 410 500
#     4  12  26  46  80 114 156 202 268 338 408 486
#     4  12  26  49  81 119 155 215 268 343 404 499
#
# _framework density 24.216231000000001
#
# number of rings (size 3 to 8) (size 9 to 14) (size 15 to 20)
#    0.000    0.000    3.333    6.000    4.667    0.000 
#    0.000    0.000    0.000    0.000    0.000    0.000 
#    0.000    0.000    0.000    0.000    0.000    0.000 
#
# Total GULP energy -297388.815979 kJ/mol
# GULP energy per Si atom -12391.200666 kJ/mol
# Density = 2.416111 g / cm^3
# Si number density = 24.216231 Si / 1000 Ang^3
#
#
#
# Elastic Constant Matrix: (Units=GPa)
#
#
# Indices 1 2 3 4 5 6 
#
# 1 126.3861 44.4414 42.6499 0.0000 0.0000 0.0000
# 2 44.4414 126.3861 42.6499 0.0000 0.0000 0.0000
# 3 42.6499 42.6499 98.9723 0.0000 0.0000 0.0000
# 4 0.0000 0.0000 0.0000 25.8957 0.0000 0.0000
# 5 0.0000 0.0000 0.0000 0.0000 25.8957 0.0000
# 6 0.0000 0.0000 0.0000 0.0000 0.0000 74.7694
#
#
#
# Elastic Compliance Matrix: (Units=1/GPa)
#
#
# Indices 1 2 3 4 5 6 
#
# 1 0.009831 -0.002372 -0.003214 0.000000 0.000000 0.000000
# 2 -0.002372 0.009831 -0.003214 0.000000 0.000000 0.000000
# 3 -0.003214 -0.003214 0.012874 0.000000 0.000000 0.000000
# 4 0.000000 0.000000 0.000000 0.038616 0.000000 0.000000
# 5 0.000000 0.000000 0.000000 0.000000 0.038616 0.000000
# 6 0.000000 0.000000 0.000000 0.000000 0.000000 0.013374
#
#
# Mechanical properties :
#
#
# Convention : Reuss Voigt Hill
#
# Bulk Modulus (GPa) = 66.95765 67.91410 67.43587
# Shear Modulus (GPa) = 34.31166 40.11240 37.21203
#
# Velocity S-wave (km/s) = 3.76824 4.07434 3.92427
# Velocity P-wave (km/s) = 6.82955 7.08797 6.95996
#
# Compressibility (1/GPa) = 0.01493481
#
# Stress axis : x y z
#
# Youngs Moduli (GPa) = 101.71819 101.71819 77.67580
#
# Poissons Ratio (x) = 0.24130 0.24967
# Poissons Ratio (y) = 0.24130 0.24967
# Poissons Ratio (z) = 0.32694 0.32694
#
# Static dielectric constant tensor:
#      x y z
#    x 4.655390 0.000000 0.000000 
#    y 0.000000 4.655390 0.000000 
#    z 0.000000 0.000000 4.045620 
# 
# 
# High freq. dielectric constant tensor:
#      x y z
#    x 1.986960 0.000000 0.000000 
#    y 0.000000 1.986960 0.000000 
#    z 0.000000 0.000000 1.928890 
# 
# From -- ./inp_files/3777.got.cif
#   From: 2010.03.12/outbox.cif.g09.slc.cpg/sg122_2_cif.got.tgz:3777.got - 2010.04.06 16:17:16.
