data_PCOD8312308
_publ_section_title
;
Structure prediction by ZEFSAII (Michael W. Deem and Ramdas Pophale) SiO2 
 PCOD8312308
Probable space group: P 4/M M M
;
_chemical_formula_sum "Si O2"
_cell_formula_units_Z 88
_cell_length_a 26.549409
_cell_length_b 26.549409
_cell_length_c 9.238049
_cell_angle_alpha 90.000000
_cell_angle_beta 90.000000
_cell_angle_gamma 90.000000
_cell_volume 6511.633929
_symmetry_space_group_name_H-M "P 4/M M M"
_symmetry_group_IT_number 123
_symmetry_cell_setting 'tetragonal'
loop_
_space_group_symop_operation_xyz
x,y,z
-y,x,z
-x,-y,z
y,-x,z
x,-y,-z
-x,y,-z
y,x,-z
-y,-x,-z
-x,-y,-z
y,-x,-z
x,y,-z
-y,x,-z
-x,y,z
x,-y,z
-y,-x,z
y,x,z
loop_
_atom_site_type_symbol
_atom_site_label
_atom_site_fract_x
_atom_site_fract_y
_atom_site_fract_z
Si Si1 0.122429 0.799607 0.337336
Si Si2 0.000000 0.440857 0.838932
Si Si3 0.206721 0.285067 0.338355
Si Si4 0.057404 0.727414 0.830837
Si Si5 0.859150 0.353954 0.169730
Si Si6 0.098916 0.558300 0.669870
O O1 0.102228 0.807523 0.500000
O O2 0.147681 0.852320 0.280660
O O3 0.165513 0.758168 0.335314
O O4 0.076137 0.779820 0.240613
O O5 0.048031 0.423969 0.748384
O O6 0.000000 0.500000 0.859134
O O7 0.000000 0.415329 0.000000
O O8 0.208646 0.308774 0.500000
O O9 0.260957 0.260957 0.297966
O O10 0.192329 0.326823 0.219516
O O11 0.092332 0.679995 0.786366
O O12 0.000000 0.715869 0.782145
O O13 0.061152 0.736719 0.000000
O O14 0.859037 0.406500 0.257824
O O15 0.857203 0.365161 0.000000
O O16 0.093649 0.568599 0.500000
O O17 0.111940 0.500000 0.700382
#
# Coordination Sequence:
#
# PCOD8312308 Si02
#       6
#    16   8  16  16  16  16
#     4   8  14  25  40  56  72  91 116 142 168 204
#     4   9  17  29  43  55  67  87 117 155 197 233
#     4   8  14  26  42  57  75  97 119 147 183 223
#     4   9  18  29  38  53  77  99 118 143 174 210
#     4  10  19  28  41  58  76 100 126 155 190 225
#     4  10  20  32  43  55  72  95 127 163 194 228
#
# _framework density 13.514272999999999
#
# number of rings (size 3 to 8) (size 9 to 14) (size 15 to 20)
#    0.000    3.000    0.000    2.455    1.273    4.000 
#    0.000    3.636    0.000    0.000    0.000    0.000 
#    0.000    0.364    0.000    4.000    0.000    3.273 
#
# Total GULP energy -1090511.612718 kJ/mol
# GULP energy per Si atom -12392.177417 kJ/mol
# Density = 1.348351 g / cm^3
# Si number density = 13.514273 Si / 1000 Ang^3
#
#
#
# Elastic Constant Matrix: (Units=GPa)
#
#
# Indices 1 2 3 4 5 6 
#
# 1 49.1550 33.7283 36.3100 0.0000 0.0000 0.0000
# 2 33.7283 49.1550 36.3100 0.0000 0.0000 0.0000
# 3 36.3100 36.3100 76.2607 0.0000 0.0000 0.0000
# 4 0.0000 0.0000 0.0000 20.5088 0.0000 0.0000
# 5 0.0000 0.0000 0.0000 0.0000 20.5088 0.0000
# 6 0.0000 0.0000 0.0000 0.0000 0.0000 14.7392
#
#
#
# Elastic Compliance Matrix: (Units=1/GPa)
#
#
# Indices 1 2 3 4 5 6 
#
# 1 0.042762 -0.022061 -0.009856 0.000000 0.000000 0.000000
# 2 -0.022061 0.042762 -0.009856 0.000000 0.000000 0.000000
# 3 -0.009856 -0.009856 0.022499 0.000000 0.000000 0.000000
# 4 0.000000 0.000000 0.000000 0.048760 0.000000 0.000000
# 5 0.000000 0.000000 0.000000 0.000000 0.048760 0.000000
# 6 0.000000 0.000000 0.000000 0.000000 0.000000 0.067846
#
#
# Mechanical properties :
#
#
# Convention : Reuss Voigt Hill
#
# Bulk Modulus (GPa) = 40.85750 43.02971 41.94361
# Shear Modulus (GPa) = 13.69513 15.69952 14.69732
#
# Velocity S-wave (km/s) = 3.18682 3.41207 3.30137
# Velocity P-wave (km/s) = 6.62115 6.88711 6.75544
#
# Compressibility (1/GPa) = 0.02447531
#
# Stress axis : x y z
#
# Youngs Moduli (GPa) = 23.38534 23.38534 44.44685
#
# Poissons Ratio (x) = 0.51590 0.43809
# Poissons Ratio (y) = 0.51590 0.43809
# Poissons Ratio (z) = 0.23050 0.23050
#
# Static dielectric constant tensor:
#      x y z
#    x 2.642130 0.000000 0.000000 
#    y 0.000000 2.642130 0.000000 
#    z 0.000000 0.000000 2.797680 
# 
# 
# High freq. dielectric constant tensor:
#      x y z
#    x 1.480900 0.000000 0.000000 
#    y 0.000000 1.480900 0.000000 
#    z 0.000000 0.000000 1.525820 
# 
# From -- ./inp_files/1861.got.cif
#   From: 2010.03.12/outbox.cif.g09.slc.cpg/sg123_1_cif.got.tgz:1861.got - 2010.04.06 16:26:55.
