data_PCOD8312692
_publ_section_title
;
Structure prediction by ZEFSAII (Michael W. Deem and Ramdas Pophale) SiO2 
 PCOD8312692
Probable space group: P 4/M M M
;
_chemical_formula_sum "Si O2"
_cell_formula_units_Z 56
_cell_length_a 13.398472
_cell_length_b 13.398472
_cell_length_c 18.083614
_cell_angle_alpha 90.000000
_cell_angle_beta 90.000000
_cell_angle_gamma 90.000000
_cell_volume 3246.353241
_symmetry_space_group_name_H-M "P 4/M M M"
_symmetry_group_IT_number 123
_symmetry_cell_setting 'tetragonal'
loop_
_space_group_symop_operation_xyz
x,y,z
-y,x,z
-x,-y,z
y,-x,z
x,-y,-z
-x,y,-z
y,x,-z
-y,-x,-z
-x,-y,-z
y,-x,-z
x,y,-z
-y,x,-z
-x,y,z
x,-y,z
-y,-x,z
y,x,z
loop_
_atom_site_type_symbol
_atom_site_label
_atom_site_fract_x
_atom_site_fract_y
_atom_site_fract_z
Si Si1 0.611257 0.881701 0.418665
Si Si2 0.723469 0.117218 0.275080
Si Si3 0.778859 0.616964 0.852183
Si Si4 0.381813 0.888542 0.000000
O O1 0.651011 0.848427 0.500000
O O2 0.500000 0.837877 0.406107
O O3 0.684385 0.843556 0.354563
O O4 0.605252 0.000000 0.414375
O O5 0.827155 0.172846 0.257516
O O6 0.640702 0.144580 0.214018
O O7 0.744476 0.000000 0.274001
O O8 0.754641 0.500000 0.853577
O O9 0.674859 0.674859 0.840774
O O10 0.829642 0.654523 0.927768
O O11 0.500000 0.896909 0.000000
O O12 0.335192 0.000000 0.000000
#
# Coordination Sequence:
#
# PCOD8312692 Si02
#       4
#    16  16  16   8
#     4   8  14  26  45  67  89 115 150 193 239 284
#     4  10  20  32  47  68  94 126 164 204 245 290
#     4  10  20  33  50  73  99 127 161 200 244 294
#     4   9  17  30  49  71  95 125 159 193 228 269
#
# _framework density 17.250125000000001
#
# number of rings (size 3 to 8) (size 9 to 14) (size 15 to 20)
#    0.000    2.714    0.000    3.000    0.000    4.000 
#    0.000    0.000    0.000    2.571    0.000    4.000 
#    0.000   10.286    0.000   26.571    0.000    1.429 
#
# Total GULP energy -694226.744859 kJ/mol
# GULP energy per Si atom -12396.906158 kJ/mol
# Density = 1.721086 g / cm^3
# Si number density = 17.250125 Si / 1000 Ang^3
#
#
#
# Elastic Constant Matrix: (Units=GPa)
#
#
# Indices 1 2 3 4 5 6 
#
# 1 72.6293 31.0505 34.3154 0.0000 0.0000 0.0000
# 2 31.0505 72.6293 34.3154 0.0000 0.0000 0.0000
# 3 34.3154 34.3154 133.5784 0.0000 0.0000 0.0000
# 4 0.0000 0.0000 0.0000 22.5405 0.0000 0.0000
# 5 0.0000 0.0000 0.0000 0.0000 22.5405 0.0000
# 6 0.0000 0.0000 0.0000 0.0000 0.0000 14.2157
#
#
#
# Elastic Compliance Matrix: (Units=1/GPa)
#
#
# Indices 1 2 3 4 5 6 
#
# 1 0.017836 -0.006215 -0.002985 0.000000 0.000000 0.000000
# 2 -0.006215 0.017836 -0.002985 0.000000 0.000000 0.000000
# 3 -0.002985 -0.002985 0.009020 0.000000 0.000000 0.000000
# 4 0.000000 0.000000 0.000000 0.044365 0.000000 0.000000
# 5 0.000000 0.000000 0.000000 0.000000 0.044365 0.000000
# 6 0.000000 0.000000 0.000000 0.000000 0.000000 0.070345
#
#
# Mechanical properties :
#
#
# Convention : Reuss Voigt Hill
#
# Bulk Modulus (GPa) = 49.21024 53.13326 51.17175
# Shear Modulus (GPa) = 21.28466 23.80304 22.54385
#
# Velocity S-wave (km/s) = 3.51648 3.71870 3.61900
# Velocity P-wave (km/s) = 6.71393 7.02188 6.86963
#
# Compressibility (1/GPa) = 0.02032097
#
# Stress axis : x y z
#
# Youngs Moduli (GPa) = 56.06639 56.06639 110.86336
#
# Poissons Ratio (x) = 0.34844 0.33097
# Poissons Ratio (y) = 0.34844 0.33097
# Poissons Ratio (z) = 0.16738 0.16738
#
# Static dielectric constant tensor:
#      x y z
#    x 2.952520 0.000000 0.000000 
#    y 0.000000 2.952520 0.000000 
#    z 0.000000 0.000000 3.604620 
# 
# 
# High freq. dielectric constant tensor:
#      x y z
#    x 1.642830 0.000000 0.000000 
#    y 0.000000 1.642830 0.000000 
#    z 0.000000 0.000000 1.688170 
# 
# From -- ./inp_files/3693.got.cif
#   From: 2010.03.12/outbox.cif.g09.slc.cpg/sg123_2_cif.got.tgz:3693.got - 2010.04.06 16:26:55.
