data_PCOD8312815
_publ_section_title
;
Structure prediction by ZEFSAII (Michael W. Deem and Ramdas Pophale) SiO2 
 PCOD8312815
Probable space group: P 4/M M M
;
_chemical_formula_sum "Si O2"
_cell_formula_units_Z 72
_cell_length_a 12.542329
_cell_length_b 12.542329
_cell_length_c 26.309462
_cell_angle_alpha 90.000000
_cell_angle_beta 90.000000
_cell_angle_gamma 90.000000
_cell_volume 4138.741908
_symmetry_space_group_name_H-M "P 4/M M M"
_symmetry_group_IT_number 123
_symmetry_cell_setting 'tetragonal'
loop_
_space_group_symop_operation_xyz
x,y,z
-y,x,z
-x,-y,z
y,-x,z
x,-y,-z
-x,y,-z
y,x,-z
-y,-x,-z
-x,-y,-z
y,-x,-z
x,y,-z
-y,x,-z
-x,y,z
x,-y,z
-y,-x,z
y,x,z
loop_
_atom_site_type_symbol
_atom_site_label
_atom_site_fract_x
_atom_site_fract_y
_atom_site_fract_z
Si Si1 0.500000 0.126656 0.233751
Si Si2 0.377775 0.793889 0.397608
Si Si3 0.296958 0.121430 0.500000
Si Si4 0.122138 0.294544 0.059019
Si Si5 0.122728 0.704544 0.295293
Si Si6 0.873250 0.500000 0.119009
O O1 0.394027 0.167636 0.262114
O O2 0.500000 0.170964 0.176381
O O3 0.500000 0.000000 0.235020
O O4 0.500000 0.772802 0.384417
O O5 0.320567 0.679434 0.400199
O O6 0.368368 0.854735 0.450856
O O7 0.324549 0.867276 0.354563
O O8 0.189366 0.189366 0.500000
O O9 0.260094 0.000000 0.500000
O O10 0.190500 0.190500 0.073021
O O11 0.168249 0.394442 0.090517
O O12 0.000000 0.268750 0.073694
O O13 0.132027 0.324401 0.000000
O O14 0.191599 0.808402 0.281279
O O15 0.000000 0.730521 0.282709
O O16 0.000000 0.500000 0.117557
#
# Coordination Sequence:
#
# PCOD8312815 Si02
#       6
#     8  16   8  16  16   8
#     4   9  18  33  52  71  95 129 169 211 252 296
#     4  10  20  34  52  75 102 132 168 208 252 303
#     4  10  21  34  50  74 100 130 167 206 252 308
#     4   9  17  29  47  73 104 136 169 206 249 297
#     4  10  20  34  53  76 102 132 166 206 253 304
#     4   9  17  30  49  71  95 130 173 211 247 291
#
# _framework density 17.396591999999998
#
# number of rings (size 3 to 8) (size 9 to 14) (size 15 to 20)
#    0.000    2.444    1.111    1.333    0.000    4.778 
#    0.000    1.111    0.000    6.667    0.000    9.333 
#    0.000    0.000    0.000    0.000    0.000    0.000 
#
# Total GULP energy -892916.817990 kJ/mol
# GULP energy per Si atom -12401.622472 kJ/mol
# Density = 1.735700 g / cm^3
# Si number density = 17.396592 Si / 1000 Ang^3
#
#
#
# Elastic Constant Matrix: (Units=GPa)
#
#
# Indices 1 2 3 4 5 6 
#
# 1 101.8746 56.8014 37.2936 0.0000 0.0000 0.0000
# 2 56.8014 101.8746 37.2936 0.0000 0.0000 0.0000
# 3 37.2936 37.2936 96.6604 0.0000 0.0000 0.0000
# 4 0.0000 0.0000 0.0000 19.8224 0.0000 0.0000
# 5 0.0000 0.0000 0.0000 0.0000 19.8224 0.0000
# 6 0.0000 0.0000 0.0000 0.0000 0.0000 13.1480
#
#
#
# Elastic Compliance Matrix: (Units=1/GPa)
#
#
# Indices 1 2 3 4 5 6 
#
# 1 0.014942 -0.007244 -0.002970 0.000000 0.000000 0.000000
# 2 -0.007244 0.014942 -0.002970 0.000000 0.000000 0.000000
# 3 -0.002970 -0.002970 0.012637 0.000000 0.000000 0.000000
# 4 0.000000 0.000000 0.000000 0.050448 0.000000 0.000000
# 5 0.000000 0.000000 0.000000 0.000000 0.050448 0.000000
# 6 0.000000 0.000000 0.000000 0.000000 0.000000 0.076057
#
#
# Mechanical properties :
#
#
# Convention : Reuss Voigt Hill
#
# Bulk Modulus (GPa) = 61.90667 62.57630 62.24148
# Shear Modulus (GPa) = 19.90229 21.82666 20.86448
#
# Velocity S-wave (km/s) = 3.38603 3.54595 3.46691
# Velocity P-wave (km/s) = 7.13790 7.26729 7.20289
#
# Compressibility (1/GPa) = 0.01615335
#
# Stress axis : x y z
#
# Youngs Moduli (GPa) = 66.92451 66.92451 79.13023
#
# Poissons Ratio (x) = 0.48479 0.23503
# Poissons Ratio (y) = 0.48479 0.23503
# Poissons Ratio (z) = 0.19878 0.19878
#
# Static dielectric constant tensor:
#      x y z
#    x 3.110640 0.000000 0.000000 
#    y 0.000000 3.110640 0.000000 
#    z 0.000000 0.000000 3.389110 
# 
# 
# High freq. dielectric constant tensor:
#      x y z
#    x 1.659280 0.000000 0.000000 
#    y 0.000000 1.659280 0.000000 
#    z 0.000000 0.000000 1.678460 
# 
# From -- ./inp_files/7927.got.cif
#   From: 2010.03.12/outbox.cif.g09.slc.cpg/sg123_4_cif.got.tgz:7927.got - 2010.04.06 16:26:55.
