data_PCOD8312549
_publ_section_title
;
Structure prediction by ZEFSAII (Michael W. Deem and Ramdas Pophale) SiO2 
 PCOD8312549
Probable space group: P 4/M M M
;
_chemical_formula_sum "Si O2"
_cell_formula_units_Z 80
_cell_length_a 22.706281
_cell_length_b 22.706281
_cell_length_c 9.700072
_cell_angle_alpha 90.000000
_cell_angle_beta 90.000000
_cell_angle_gamma 90.000000
_cell_volume 5001.116531
_symmetry_space_group_name_H-M "P 4/M M M"
_symmetry_group_IT_number 123
_symmetry_cell_setting 'tetragonal'
loop_
_space_group_symop_operation_xyz
x,y,z
-y,x,z
-x,-y,z
y,-x,z
x,-y,-z
-x,y,-z
y,x,-z
-y,-x,-z
-x,-y,-z
y,-x,-z
x,y,-z
-y,x,-z
-x,y,z
x,-y,z
-y,-x,z
y,x,z
loop_
_atom_site_type_symbol
_atom_site_label
_atom_site_fract_x
_atom_site_fract_y
_atom_site_fract_z
Si Si1 0.632827 0.066320 0.340897
Si Si2 0.815766 0.567653 0.339434
Si Si3 0.725676 0.876696 0.842357
Si Si4 0.855902 0.855902 0.836958
Si Si5 0.339783 0.244812 0.157584
Si Si6 0.068119 0.068119 0.349893
O O1 0.651031 0.072429 0.500000
O O2 0.585104 0.116612 0.301869
O O3 0.690656 0.076606 0.249881
O O4 0.608055 0.000000 0.311676
O O5 0.803533 0.578717 0.500000
O O6 0.807848 0.500000 0.298327
O O7 0.766479 0.603991 0.255170
O O8 0.791649 0.874877 0.784958
O O9 0.702591 0.810651 0.827382
O O10 0.721728 0.898292 0.000000
O O11 0.901419 0.901419 0.777365
O O12 0.857378 0.857378 0.000000
O O13 0.303345 0.303345 0.202652
O O14 0.361567 0.251596 0.000000
O O15 0.090666 0.090666 0.500000
O O16 0.000000 0.081762 0.336379
#
# Coordination Sequence:
#
# PCOD8312549 Si02
#       6
#    16  16  16   8  16   8
#     4   9  18  31  45  63  89 122 159 194 227 266
#     4   9  18  31  46  67  95 125 158 195 230 264
#     4   9  17  30  46  65  90 115 142 180 227 276
#     4  10  19  31  49  70  88 108 138 178 227 281
#     4   9  16  29  49  69  91 121 153 185 224 268
#     4   9  20  38  52  60  76 104 136 172 220 277
#
# _framework density 15.996428999999999
#
# number of rings (size 3 to 8) (size 9 to 14) (size 15 to 20)
#    0.000    2.900    1.000    0.300    0.000    3.600 
#    0.000    6.500    0.000    0.000    0.000    5.600 
#    0.000    0.400    0.000    4.400    0.000    3.200 
#
# Total GULP energy -991660.524490 kJ/mol
# GULP energy per Si atom -12395.756556 kJ/mol
# Density = 1.596002 g / cm^3
# Si number density = 15.996429 Si / 1000 Ang^3
#
#
#
# Elastic Constant Matrix: (Units=GPa)
#
#
# Indices 1 2 3 4 5 6 
#
# 1 74.3646 65.4662 42.5141 0.0000 0.0000 0.0000
# 2 65.4662 74.3646 42.5141 0.0000 0.0000 0.0000
# 3 42.5141 42.5141 48.7225 0.0000 0.0000 0.0000
# 4 0.0000 0.0000 0.0000 26.3296 0.0000 0.0000
# 5 0.0000 0.0000 0.0000 0.0000 26.3296 0.0000
# 6 0.0000 0.0000 0.0000 0.0000 0.0000 18.3666
#
#
#
# Elastic Compliance Matrix: (Units=1/GPa)
#
#
# Indices 1 2 3 4 5 6 
#
# 1 0.063807 -0.048572 -0.013294 0.000000 0.000000 0.000000
# 2 -0.048572 0.063807 -0.013294 0.000000 0.000000 0.000000
# 3 -0.013294 -0.013294 0.043724 0.000000 0.000000 0.000000
# 4 0.000000 0.000000 0.000000 0.037980 0.000000 0.000000
# 5 0.000000 0.000000 0.000000 0.000000 0.037980 0.000000
# 6 0.000000 0.000000 0.000000 0.000000 0.000000 0.054447
#
#
# Mechanical properties :
#
#
# Convention : Reuss Voigt Hill
#
# Bulk Modulus (GPa) = 47.57565 55.38226 51.47896
# Shear Modulus (GPa) = 10.89157 17.33567 14.11362
#
# Velocity S-wave (km/s) = 2.61219 3.29556 2.97357
# Velocity P-wave (km/s) = 6.23731 7.01269 6.63633
#
# Compressibility (1/GPa) = 0.02101916
#
# Stress axis : x y z
#
# Youngs Moduli (GPa) = 15.67226 15.67226 22.87054
#
# Poissons Ratio (x) = 0.76123 0.30404
# Poissons Ratio (y) = 0.76123 0.30404
# Poissons Ratio (z) = 0.20835 0.20835
#
# Static dielectric constant tensor:
#      x y z
#    x 2.946320 0.000000 0.000000 
#    y 0.000000 2.946320 0.000000 
#    z 0.000000 0.000000 3.077450 
# 
# 
# High freq. dielectric constant tensor:
#      x y z
#    x 1.598030 0.000000 0.000000 
#    y 0.000000 1.598030 0.000000 
#    z 0.000000 0.000000 1.615910 
# 
# From -- ./inp_files/1451.got.cif
#   From: 2010.03.12/outbox.cif.g09.slc.cpg/sg123_1_cif.got.tgz:1451.got - 2010.04.06 16:26:55.
