data_PCOD8312207
_publ_section_title
;
Structure prediction by ZEFSAII (Michael W. Deem and Ramdas Pophale) SiO2 
 PCOD8312207
Probable space group: P 4/M M M
;
_chemical_formula_sum "Si O2"
_cell_formula_units_Z 64
_cell_length_a 19.741786
_cell_length_b 19.741786
_cell_length_c 9.120024
_cell_angle_alpha 90.000000
_cell_angle_beta 90.000000
_cell_angle_gamma 90.000000
_cell_volume 3554.420958
_symmetry_space_group_name_H-M "P 4/M M M"
_symmetry_group_IT_number 123
_symmetry_cell_setting 'tetragonal'
loop_
_space_group_symop_operation_xyz
x,y,z
-y,x,z
-x,-y,z
y,-x,z
x,-y,-z
-x,y,-z
y,x,-z
-y,-x,-z
-x,-y,-z
y,-x,-z
x,y,-z
-y,x,-z
-x,y,z
x,-y,z
-y,-x,z
y,x,z
loop_
_atom_site_type_symbol
_atom_site_label
_atom_site_fract_x
_atom_site_fract_y
_atom_site_fract_z
Si Si1 0.352705 0.103430 0.833144
Si Si2 0.116225 0.500000 0.167235
Si Si3 0.740118 0.368072 0.829850
Si Si4 0.000000 0.892478 0.674179
Si Si5 0.500000 0.254161 0.327665
Si Si6 0.000000 0.261164 0.673733
O O1 0.429989 0.074326 0.811259
O O2 0.351446 0.182263 0.791540
O O3 0.300122 0.066426 0.728236
O O4 0.329342 0.090925 0.000000
O O5 0.175529 0.500000 0.285298
O O6 0.146668 0.500000 0.000000
O O7 0.696980 0.303021 0.783096
O O8 0.712235 0.432364 0.739284
O O9 0.732003 0.385518 0.000000
O O10 0.932826 0.932826 0.728865
O O11 0.000000 0.890497 0.500000
O O12 0.000000 0.815795 0.736149
O O13 0.500000 0.264171 0.500000
O O14 0.000000 0.261073 0.500000
#
# Coordination Sequence:
#
# PCOD8312207 Si02
#       6
#    16   8  16   8   8   8
#     4   9  18  33  51  71  97 131 169 206 243 286
#     4   8  16  33  53  68  90 133 181 208 229 281
#     4   9  18  34  55  75  97 132 176 212 244 294
#     4   8  16  34  56  71  87 121 166 201 234 289
#     4  10  18  28  47  76 107 134 162 204 258 304
#     4  11  22  32  47  76 106 127 154 202 258 303
#
# _framework density 18.005745999999998
#
# number of rings (size 3 to 8) (size 9 to 14) (size 15 to 20)
#    0.000    2.875    0.000    3.375    0.000    6.000 
#    0.000    2.500    0.000    2.625    0.000    6.125 
#    0.000    0.000    0.000    0.000    0.000    0.000 
#
# Total GULP energy -793133.991866 kJ/mol
# GULP energy per Si atom -12392.718623 kJ/mol
# Density = 1.796476 g / cm^3
# Si number density = 18.005746 Si / 1000 Ang^3
#
#
#
# Elastic Constant Matrix: (Units=GPa)
#
#
# Indices 1 2 3 4 5 6 
#
# 1 131.1652 69.0887 45.0440 0.0000 0.0000 0.0000
# 2 69.0887 131.1652 45.0440 0.0000 0.0000 0.0000
# 3 45.0440 45.0440 69.7487 0.0000 0.0000 0.0000
# 4 0.0000 0.0000 0.0000 24.6906 0.0000 0.0000
# 5 0.0000 0.0000 0.0000 0.0000 24.6906 0.0000
# 6 0.0000 0.0000 0.0000 0.0000 0.0000-2628.9459
#
#
#
# Elastic Compliance Matrix: (Units=1/GPa)
#
#
# Indices 1 2 3 4 5 6 
#
# 1 0.011574 -0.004535 -0.004546 0.000000 0.000000 0.000000
# 2 -0.004535 0.011574 -0.004546 0.000000 0.000000 0.000000
# 3 -0.004546 -0.004546 0.020208 0.000000 0.000000 0.000000
# 4 0.000000 0.000000 0.000000 0.040501 0.000000 0.000000
# 5 0.000000 0.000000 0.000000 0.000000 0.040501 0.000000
# 6 0.000000 0.000000 0.000000 0.000000 0.000000 -0.000380
#
#
# Mechanical properties :
#
#
# Convention : Reuss Voigt Hill
#
# Bulk Modulus (GPa) = 62.09938 72.27027 67.18483
# Shear Modulus (GPa) = 31.92880 -504.38611 -236.22865
#
# Velocity S-wave (km/s) = 4.21557 -16.75510 -11.46652
# Velocity P-wave (km/s) = 7.63271 18.27803 11.74368
#
# Compressibility (1/GPa) = 0.01610322
#
# Stress axis : x y z
#
# Youngs Moduli (GPa) = 86.40165 86.40165 49.48480
#
# Poissons Ratio (x) = 0.39186 0.22493
# Poissons Ratio (y) = 0.39186 0.22493
# Poissons Ratio (z) = 0.39274 0.39274
#
# Static dielectric constant tensor:
#      x y z
#    x 3.443190 0.000000 0.000000 
#    y 0.000000 3.443190 0.000000 
#    z 0.000000 0.000000 3.060710 
# 
# 
# High freq. dielectric constant tensor:
#      x y z
#    x 1.690910 0.000000 0.000000 
#    y 0.000000 1.690910 0.000000 
#    z 0.000000 0.000000 1.675850 
# 
# From -- ./inp_files/1011.got.cif
#   From: 2010.03.12/outbox.cif.g09.slc.cpg/sg123_1_cif.got.tgz:1011.got - 2010.04.06 16:26:55.
