data_PCOD8312885
_publ_section_title
;
Structure prediction by ZEFSAII (Michael W. Deem and Ramdas Pophale) SiO2 
 PCOD8312885
Probable space group: P 4/M M M
;
_chemical_formula_sum "Si O2"
_cell_formula_units_Z 80
_cell_length_a 13.593400
_cell_length_b 13.593400
_cell_length_c 24.958639
_cell_angle_alpha 90.000000
_cell_angle_beta 90.000000
_cell_angle_gamma 90.000000
_cell_volume 4611.870382
_symmetry_space_group_name_H-M "P 4/M M M"
_symmetry_group_IT_number 123
_symmetry_cell_setting 'tetragonal'
loop_
_space_group_symop_operation_xyz
x,y,z
-y,x,z
-x,-y,z
y,-x,z
x,-y,-z
-x,y,-z
y,x,-z
-y,-x,-z
-x,-y,-z
y,-x,-z
x,y,-z
-y,x,-z
-x,y,z
x,-y,z
-y,-x,z
y,x,z
loop_
_atom_site_type_symbol
_atom_site_label
_atom_site_fract_x
_atom_site_fract_y
_atom_site_fract_z
Si Si1 0.611540 0.770753 0.859591
Si Si2 0.276256 0.885072 0.649086
Si Si3 0.386316 0.772651 0.737258
Si Si4 0.771878 0.386962 0.438398
Si Si5 0.271242 0.112014 0.060791
O O1 0.500000 0.740743 0.870435
O O2 0.674482 0.674482 0.873051
O O3 0.627065 0.806330 0.798642
O O4 0.641202 0.859068 0.899077
O O5 0.173178 0.826823 0.649405
O O6 0.340536 0.858756 0.701275
O O7 0.339500 0.858582 0.596533
O O8 0.251932 0.000000 0.649046
O O9 0.500000 0.755780 0.722375
O O10 0.330026 0.669975 0.726060
O O11 0.804285 0.376963 0.500000
O O12 0.755388 0.500000 0.421961
O O13 0.669441 0.330560 0.427146
O O14 0.174229 0.174229 0.074115
O O15 0.241798 0.000000 0.070607
O O16 0.307553 0.130023 0.000000
#
# Coordination Sequence:
#
# PCOD8312885 Si02
#       5
#    16  16  16  16  16
#     4   9  18  32  49  70  97 127 158 192 229 272
#     4  10  21  36  52  70  94 124 160 202 243 283
#     4   9  18  32  50  73  99 126 156 190 230 277
#     4   9  18  32  50  74 103 132 161 193 231 278
#     4   9  18  32  49  69  93 121 154 194 239 284
#
# _framework density 17.346541999999999
#
# number of rings (size 3 to 8) (size 9 to 14) (size 15 to 20)
#    0.000    2.800    0.000    0.600    0.000    4.600 
#    0.000    8.000    0.000    3.600    0.000   11.200 
#    0.000    0.000    0.000    0.000    0.000    0.000 
#
# Total GULP energy -992059.898090 kJ/mol
# GULP energy per Si atom -12400.748726 kJ/mol
# Density = 1.730706 g / cm^3
# Si number density = 17.346542 Si / 1000 Ang^3
#
#
#
# Elastic Constant Matrix: (Units=GPa)
#
#
# Indices 1 2 3 4 5 6 
#
# 1 121.3524 48.9010 57.2846 0.0000 0.0000 0.0000
# 2 48.9010 121.3524 57.2846 0.0000 0.0000 0.0000
# 3 57.2846 57.2846 94.8610 0.0000 0.0000 0.0000
# 4 0.0000 0.0000 0.0000 25.8281 0.0000 0.0000
# 5 0.0000 0.0000 0.0000 0.0000 25.8281 0.0000
# 6 0.0000 0.0000 0.0000 0.0000 0.0000 12.3924
#
#
#
# Elastic Compliance Matrix: (Units=1/GPa)
#
#
# Indices 1 2 3 4 5 6 
#
# 1 0.011848 -0.001954 -0.005975 0.000000 0.000000 0.000000
# 2 -0.001954 0.011848 -0.005975 0.000000 0.000000 0.000000
# 3 -0.005975 -0.005975 0.017758 0.000000 0.000000 0.000000
# 4 0.000000 0.000000 0.000000 0.038718 0.000000 0.000000
# 5 0.000000 0.000000 0.000000 0.000000 0.038718 0.000000
# 6 0.000000 0.000000 0.000000 0.000000 0.000000 0.080695
#
#
# Mechanical properties :
#
#
# Convention : Reuss Voigt Hill
#
# Bulk Modulus (GPa) = 73.27713 73.83405 73.55559
# Shear Modulus (GPa) = 21.55715 24.41608 22.98661
#
# Velocity S-wave (km/s) = 3.52907 3.75580 3.64420
# Velocity P-wave (km/s) = 7.67727 7.83993 7.75903
#
# Compressibility (1/GPa) = 0.01364682
#
# Stress axis : x y z
#
# Youngs Moduli (GPa) = 84.39981 84.39981 56.31228
#
# Poissons Ratio (x) = 0.16492 0.33647
# Poissons Ratio (y) = 0.16492 0.33647
# Poissons Ratio (z) = 0.50429 0.50429
#
# Static dielectric constant tensor:
#      x y z
#    x 3.116890 0.000000 0.000000 
#    y 0.000000 3.116890 0.000000 
#    z 0.000000 0.000000 3.469470 
# 
# 
# High freq. dielectric constant tensor:
#      x y z
#    x 1.660120 0.000000 0.000000 
#    y 0.000000 1.660120 0.000000 
#    z 0.000000 0.000000 1.684250 
# 
# From -- ./inp_files/8319.got.cif
#   From: 2010.03.12/outbox.cif.g09.slc.cpg/sg123_5_cif.got.tgz:8319.got - 2010.04.06 16:26:55.
