data_PCOD8312212
_publ_section_title
;
Structure prediction by ZEFSAII (Michael W. Deem and Ramdas Pophale) SiO2 
 PCOD8312212
Probable space group: P 4/M M M
;
_chemical_formula_sum "Si O2"
_cell_formula_units_Z 112
_cell_length_a 20.295616
_cell_length_b 20.295616
_cell_length_c 18.658608
_cell_angle_alpha 90.000000
_cell_angle_beta 90.000000
_cell_angle_gamma 90.000000
_cell_volume 7685.705076
_symmetry_space_group_name_H-M "P 4/M M M"
_symmetry_group_IT_number 123
_symmetry_cell_setting 'tetragonal'
loop_
_space_group_symop_operation_xyz
x,y,z
-y,x,z
-x,-y,z
y,-x,z
x,-y,-z
-x,y,-z
y,x,-z
-y,-x,-z
-x,-y,-z
y,-x,-z
x,y,-z
-y,x,-z
-x,y,z
x,-y,z
-y,-x,z
y,x,z
loop_
_atom_site_type_symbol
_atom_site_label
_atom_site_fract_x
_atom_site_fract_y
_atom_site_fract_z
Si Si1 0.924481 0.180973 0.919164
Si Si2 0.923925 0.500000 0.677378
Si Si3 0.359277 0.074071 0.719818
Si Si4 0.261992 0.636340 0.416515
Si Si5 0.240295 0.864793 0.214708
Si Si6 0.697679 0.124123 0.418868
Si Si7 0.794550 0.500000 0.414179
Si Si8 0.075627 0.822463 0.349729
O O1 0.889860 0.110140 0.910557
O O2 0.890461 0.233244 0.866297
O O3 0.000000 0.170479 0.898506
O O4 0.916416 0.208407 0.000000
O O5 0.912665 0.436919 0.729042
O O6 0.869753 0.500000 0.614122
O O7 0.000000 0.500000 0.647479
O O8 0.317622 0.129492 0.763853
O O9 0.344297 0.078461 0.634722
O O10 0.340665 0.000000 0.745771
O O11 0.274629 0.627250 0.500000
O O12 0.327224 0.672777 0.383053
O O13 0.200374 0.683880 0.402278
O O14 0.245859 0.563736 0.384760
O O15 0.209514 0.790487 0.221796
O O16 0.201700 0.913577 0.268248
O O17 0.677870 0.105533 0.500000
O O18 0.774686 0.112503 0.405393
O O19 0.800528 0.500000 0.500000
O O20 0.104811 0.895190 0.359578
O O21 0.000000 0.825063 0.369363
#
# Coordination Sequence:
#
# PCOD8312212 Si02
#       8
#    16   8  16  16  16  16   8  16
#     4   9  16  25  39  60  85 111 137 167 204 245
#     4  10  20  31  40  58  84 107 134 163 202 256
#     4  10  19  30  43  58  81 109 134 162 202 250
#     4   9  17  28  43  60  77 100 126 153 192 239
#     4   9  17  30  45  61  81 103 134 170 200 237
#     4  10  18  29  44  58  75  96 128 169 205 241
#     4  10  18  31  44  59  86 107 126 165 206 246
#     4  10  20  31  42  55  72  98 132 172 213 249
#
# _framework density 14.572507999999999
#
# number of rings (size 3 to 8) (size 9 to 14) (size 15 to 20)
#    0.000    2.429    1.429    3.000    0.000    3.000 
#    0.000    2.143    0.000    2.786    0.000    3.000 
#    0.000    2.857    0.000    0.000    0.000    0.000 
#
# Total GULP energy -1387815.558166 kJ/mol
# GULP energy per Si atom -12391.210341 kJ/mol
# Density = 1.453934 g / cm^3
# Si number density = 14.572508 Si / 1000 Ang^3
#
#
#
# Elastic Constant Matrix: (Units=GPa)
#
#
# Indices 1 2 3 4 5 6 
#
# 1 93.8960 59.1688 23.4854 0.0000 0.0000 0.0000
# 2 59.1688 93.8960 23.4854 0.0000 0.0000 0.0000
# 3 23.4854 23.4854 48.3195 0.0000 0.0000 0.0000
# 4 0.0000 0.0000 0.0000 10.2920 0.0000 0.0000
# 5 0.0000 0.0000 0.0000 0.0000 10.2920 0.0000
# 6 0.0000 0.0000 0.0000 0.0000 0.0000 21.2761
#
#
#
# Elastic Compliance Matrix: (Units=1/GPa)
#
#
# Indices 1 2 3 4 5 6 
#
# 1 0.018237 -0.010559 -0.003732 0.000000 0.000000 0.000000
# 2 -0.010559 0.018237 -0.003732 0.000000 0.000000 0.000000
# 3 -0.003732 -0.003732 0.024323 0.000000 0.000000 0.000000
# 4 0.000000 0.000000 0.000000 0.097163 0.000000 0.000000
# 5 0.000000 0.000000 0.000000 0.000000 0.097163 0.000000
# 6 0.000000 0.000000 0.000000 0.000000 0.000000 0.047001
#
#
# Mechanical properties :
#
#
# Convention : Reuss Voigt Hill
#
# Bulk Modulus (GPa) = 40.40060 49.82117 45.11089
# Shear Modulus (GPa) = 14.43330 17.03681 15.73506
#
# Velocity S-wave (km/s) = 3.15055 3.42293 3.28956
# Velocity P-wave (km/s) = 6.40458 7.06290 6.74178
#
# Compressibility (1/GPa) = 0.02475210
#
# Stress axis : x y z
#
# Youngs Moduli (GPa) = 54.83315 54.83315 41.11263
#
# Poissons Ratio (x) = 0.57897 0.15343
# Poissons Ratio (y) = 0.57897 0.15343
# Poissons Ratio (z) = 0.20464 0.20464
#
# Static dielectric constant tensor:
#      x y z
#    x 2.931940 0.000000 0.000000 
#    y 0.000000 2.931940 0.000000 
#    z 0.000000 0.000000 2.652120 
# 
# 
# High freq. dielectric constant tensor:
#      x y z
#    x 1.547350 0.000000 0.000000 
#    y 0.000000 1.547350 0.000000 
#    z 0.000000 0.000000 1.518420 
# 
# From -- ./inp_files/5953.got.cif
#   From: 2010.03.12/outbox.cif.g09.slc.cpg/sg123_3_cif.got.tgz:5953.got - 2010.04.06 16:26:55.
