data_PCOD8312148
_publ_section_title
;
Structure prediction by ZEFSAII (Michael W. Deem and Ramdas Pophale) SiO2 
 PCOD8312148
Probable space group: P 4/M M M
;
_chemical_formula_sum "Si O2"
_cell_formula_units_Z 64
_cell_length_a 20.217488
_cell_length_b 20.217488
_cell_length_c 7.825037
_cell_angle_alpha 90.000000
_cell_angle_beta 90.000000
_cell_angle_gamma 90.000000
_cell_volume 3198.458998
_symmetry_space_group_name_H-M "P 4/M M M"
_symmetry_group_IT_number 123
_symmetry_cell_setting 'tetragonal'
loop_
_space_group_symop_operation_xyz
x,y,z
-y,x,z
-x,-y,z
y,-x,z
x,-y,-z
-x,y,-z
y,x,-z
-y,-x,-z
-x,-y,-z
y,-x,-z
x,y,-z
-y,x,-z
-x,y,z
x,-y,z
-y,-x,z
y,x,z
loop_
_atom_site_type_symbol
_atom_site_label
_atom_site_fract_x
_atom_site_fract_y
_atom_site_fract_z
Si Si1 0.825971 0.613327 0.702865
Si Si2 0.573762 0.320542 0.702905
Si Si3 0.244755 0.137319 0.809773
Si Si4 0.500000 0.074862 0.297846
Si Si5 0.073407 0.183065 0.500000
O O1 0.826724 0.624128 0.500000
O O2 0.754046 0.588611 0.764656
O O3 0.840970 0.680101 0.800577
O O4 0.883601 0.563510 0.762763
O O5 0.576647 0.322608 0.500000
O O6 0.500000 0.340210 0.766369
O O7 0.627328 0.372673 0.779015
O O8 0.202030 0.202030 0.768668
O O9 0.228055 0.082286 0.668590
O O10 0.229628 0.109530 0.000000
O O11 0.500000 0.069955 0.500000
O O12 0.500000 0.000000 0.219950
O O13 0.120351 0.120351 0.500000
O O14 0.000000 0.154568 0.500000
#
# Coordination Sequence:
#
# PCOD8312148 Si02
#       5
#    16  16  16   8   8
#     4  10  17  31  52  77 108 143 192 238 288 347
#     4   9  16  25  41  66  98 139 186 238 293 352
#     4  10  21  37  59  88 119 151 191 240 289 338
#     4   9  18  30  47  73 106 145 184 225 278 343
#     4  10  22  41  64  91 123 157 192 234 286 342
#
# _framework density 20.009636
#
# number of rings (size 3 to 8) (size 9 to 14) (size 15 to 20)
#    0.000    2.375    2.500    0.750    0.000    2.875 
#    0.000    1.875    0.000    0.750    0.000    3.500 
#    0.000    0.000    0.000    5.250    0.000    5.000 
#
# Total GULP energy -793437.288984 kJ/mol
# GULP energy per Si atom -12397.457640 kJ/mol
# Density = 1.996409 g / cm^3
# Si number density = 20.009636 Si / 1000 Ang^3
#
#
#
# Elastic Constant Matrix: (Units=GPa)
#
#
# Indices 1 2 3 4 5 6 
#
# 1 147.6615 59.5705 29.7661 0.0000 0.0000 0.0000
# 2 59.5705 147.6615 29.7661 0.0000 0.0000 0.0000
# 3 29.7661 29.7661 74.9829 0.0000 0.0000 0.0000
# 4 0.0000 0.0000 0.0000 3.2538 0.0000 0.0000
# 5 0.0000 0.0000 0.0000 0.0000 3.2538 0.0000
# 6 0.0000 0.0000 0.0000 0.0000 0.0000 12.9102
#
#
#
# Elastic Compliance Matrix: (Units=1/GPa)
#
#
# Indices 1 2 3 4 5 6 
#
# 1 0.008399 -0.002953 -0.002162 0.000000 0.000000 0.000000
# 2 -0.002953 0.008399 -0.002162 0.000000 0.000000 0.000000
# 3 -0.002162 -0.002162 0.015053 0.000000 0.000000 0.000000
# 4 0.000000 0.000000 0.000000 0.307333 0.000000 0.000000
# 5 0.000000 0.000000 0.000000 0.000000 0.307333 0.000000
# 6 0.000000 0.000000 0.000000 0.000000 0.000000 0.077458
#
#
# Mechanical properties :
#
#
# Convention : Reuss Voigt Hill
#
# Bulk Modulus (GPa) = 57.81136 67.61236 62.71186
# Shear Modulus (GPa) = 6.71776 20.63044 13.67410
#
# Velocity S-wave (km/s) = 1.83427 3.21444 2.61698
# Velocity P-wave (km/s) = 5.78278 6.90218 6.36713
#
# Compressibility (1/GPa) = 0.01729764
#
# Stress axis : x y z
#
# Youngs Moduli (GPa) = 119.05794 119.05794 66.43191
#
# Poissons Ratio (x) = 0.35153 0.14364
# Poissons Ratio (y) = 0.35153 0.14364
# Poissons Ratio (z) = 0.25742 0.25742
#
# Static dielectric constant tensor:
#      x y z
#    x 3.718760 0.000000 0.000000 
#    y 0.000000 3.718760 0.000000 
#    z 0.000000 0.000000 3.391080 
# 
# 
# High freq. dielectric constant tensor:
#      x y z
#    x 1.778010 0.000000 0.000000 
#    y 0.000000 1.778010 0.000000 
#    z 0.000000 0.000000 1.756210 
# 
# From -- ./inp_files/895.got.cif
#   From: 2010.03.12/outbox.cif.g09.slc.cpg/sg123_1_cif.got.tgz:895.got - 2010.04.06 16:26:55.
