data_PCOD8312159
_publ_section_title
;
Structure prediction by ZEFSAII (Michael W. Deem and Ramdas Pophale) SiO2 
 PCOD8312159
Probable space group: P 4/M M M
;
_chemical_formula_sum "Si O2"
_cell_formula_units_Z 88
_cell_length_a 19.851315
_cell_length_b 19.851315
_cell_length_c 14.984081
_cell_angle_alpha 90.000000
_cell_angle_beta 90.000000
_cell_angle_gamma 90.000000
_cell_volume 5904.847333
_symmetry_space_group_name_H-M "P 4/M M M"
_symmetry_group_IT_number 123
_symmetry_cell_setting 'tetragonal'
loop_
_space_group_symop_operation_xyz
x,y,z
-y,x,z
-x,-y,z
y,-x,z
x,-y,-z
-x,y,-z
y,x,-z
-y,-x,-z
-x,-y,-z
y,-x,-z
x,y,-z
-y,x,-z
-x,y,z
x,-y,z
-y,-x,z
y,x,z
loop_
_atom_site_type_symbol
_atom_site_label
_atom_site_fract_x
_atom_site_fract_y
_atom_site_fract_z
Si Si1 0.357539 0.745207 0.100895
Si Si2 0.302626 0.923162 0.263523
Si Si3 0.812539 0.077615 0.603857
Si Si4 0.140583 0.246201 0.902014
Si Si5 0.925153 0.420465 0.000000
Si Si6 0.145368 0.576903 0.815971
O O1 0.328075 0.671926 0.130420
O O2 0.297202 0.797862 0.108772
O O3 0.415747 0.773533 0.167589
O O4 0.385633 0.740179 0.000000
O O5 0.255194 0.898871 0.344846
O O6 0.259407 0.915102 0.173141
O O7 0.372898 0.880819 0.261387
O O8 0.324059 0.000000 0.276175
O O9 0.796374 0.085687 0.500000
O O10 0.875660 0.124341 0.631927
O O11 0.830632 0.000000 0.627866
O O12 0.170854 0.170854 0.891580
O O13 0.106975 0.254873 0.000000
O O14 0.887899 0.397296 0.090390
O O15 0.927765 0.500000 0.000000
O O16 0.000000 0.389617 0.000000
O O17 0.127096 0.500000 0.791121
#
# Coordination Sequence:
#
# PCOD8312159 Si02
#       6
#    16  16  16  16   8  16
#     4   8  13  22  35  50  69  97 136 180 220 252
#     4  10  19  27  39  59  83 112 143 177 214 261
#     4   9  18  33  52  72  91 110 138 182 236 287
#     4   8  14  24  36  50  72 103 136 168 202 242
#     4   9  16  24  33  48  76 116 155 186 216 247
#     4  10  18  27  38  55  82 117 152 185 218 255
#
# _framework density 14.90301
#
# number of rings (size 3 to 8) (size 9 to 14) (size 15 to 20)
#    0.000    3.000    0.909    2.182    1.273    2.364 
#    0.000    0.909    0.000    0.545    0.000    2.545 
#    0.000    0.364    0.000   18.909    0.000    1.273 
#
# Total GULP energy -1090220.522479 kJ/mol
# GULP energy per Si atom -12388.869574 kJ/mol
# Density = 1.486909 g / cm^3
# Si number density = 14.903010 Si / 1000 Ang^3
#
#
#
# Elastic Constant Matrix: (Units=GPa)
#
#
# Indices 1 2 3 4 5 6 
#
# 1 57.5805 39.1376 27.9642 0.0000 0.0000 0.0000
# 2 39.1376 57.5805 27.9642 0.0000 0.0000 0.0000
# 3 27.9642 27.9642 46.8569 0.0000 0.0000 0.0000
# 4 0.0000 0.0000 0.0000 19.1020 0.0000 0.0000
# 5 0.0000 0.0000 0.0000 0.0000 19.1020 0.0000
# 6 0.0000 0.0000 0.0000 0.0000 0.0000 18.4422
#
#
#
# Elastic Compliance Matrix: (Units=1/GPa)
#
#
# Indices 1 2 3 4 5 6 
#
# 1 0.035005 -0.019217 -0.009422 0.000000 0.000000 0.000000
# 2 -0.019217 0.035005 -0.009422 0.000000 0.000000 0.000000
# 3 -0.009422 -0.009422 0.032588 0.000000 0.000000 0.000000
# 4 0.000000 0.000000 0.000000 0.052351 0.000000 0.000000
# 5 0.000000 0.000000 0.000000 0.000000 0.052351 0.000000
# 6 0.000000 0.000000 0.000000 0.000000 0.000000 0.054224
#
#
# Mechanical properties :
#
#
# Convention : Reuss Voigt Hill
#
# Bulk Modulus (GPa) = 37.77171 39.12776 38.44973
# Shear Modulus (GPa) = 14.43129 15.79267 15.11198
#
# Velocity S-wave (km/s) = 3.11520 3.25883 3.18783
# Velocity P-wave (km/s) = 6.19188 6.36175 6.27739
#
# Compressibility (1/GPa) = 0.02647484
#
# Stress axis : x y z
#
# Youngs Moduli (GPa) = 28.56760 28.56760 30.68629
#
# Poissons Ratio (x) = 0.54898 0.28913
# Poissons Ratio (y) = 0.54898 0.28913
# Poissons Ratio (z) = 0.26917 0.26917
#
# Static dielectric constant tensor:
#      x y z
#    x 3.053510 0.000000 0.000000 
#    y 0.000000 3.053510 0.000000 
#    z 0.000000 0.000000 2.700680 
# 
# 
# High freq. dielectric constant tensor:
#      x y z
#    x 1.554350 0.000000 0.000000 
#    y 0.000000 1.554350 0.000000 
#    z 0.000000 0.000000 1.533860 
# 
# From -- ./inp_files/4405.got.cif
#   From: 2010.03.12/outbox.cif.g09.slc.cpg/sg123_3_cif.got.tgz:4405.got - 2010.04.06 16:26:55.
