data_PCOD8312755
_publ_section_title
;
Structure prediction by ZEFSAII (Michael W. Deem and Ramdas Pophale) SiO2 
 PCOD8312755
Probable space group: P 4/M M M
;
_chemical_formula_sum "Si O2"
_cell_formula_units_Z 88
_cell_length_a 17.926852
_cell_length_b 17.926852
_cell_length_c 16.226068
_cell_angle_alpha 90.000000
_cell_angle_beta 90.000000
_cell_angle_gamma 90.000000
_cell_volume 5214.604292
_symmetry_space_group_name_H-M "P 4/M M M"
_symmetry_group_IT_number 123
_symmetry_cell_setting 'tetragonal'
loop_
_space_group_symop_operation_xyz
x,y,z
-y,x,z
-x,-y,z
y,-x,z
x,-y,-z
-x,y,-z
y,x,-z
-y,-x,-z
-x,-y,-z
y,-x,-z
x,y,-z
-y,x,-z
-x,y,z
x,-y,z
-y,-x,z
y,x,z
loop_
_atom_site_type_symbol
_atom_site_label
_atom_site_fract_x
_atom_site_fract_y
_atom_site_fract_z
Si Si1 0.914372 0.203886 0.904834
Si Si2 0.082477 0.413241 0.000000
Si Si3 0.349506 0.146645 0.163165
Si Si4 0.224812 0.412631 0.589286
Si Si5 0.588250 0.704980 0.240897
Si Si6 0.586708 0.917586 0.678960
O O1 0.877729 0.122272 0.893844
O O2 0.865474 0.261460 0.851000
O O3 0.000000 0.199893 0.874475
O O4 0.910592 0.229922 0.000000
O O5 0.129162 0.392269 0.079784
O O6 0.070105 0.500000 0.000000
O O7 0.000000 0.374227 0.000000
O O8 0.370764 0.230622 0.189172
O O9 0.373387 0.088630 0.233299
O O10 0.248046 0.377407 0.500000
O O11 0.217963 0.500000 0.577698
O O12 0.283243 0.395197 0.661700
O O13 0.143117 0.381013 0.614892
O O14 0.500000 0.702982 0.221383
O O15 0.625896 0.625896 0.216796
O O16 0.500000 0.900979 0.695696
O O17 0.599906 0.000000 0.642233
#
# Coordination Sequence:
#
# PCOD8312755 Si02
#       6
#    16   8  16  16  16  16
#     4  10  20  33  49  70  96 127 162 197 233 274
#     4  11  20  28  45  72 100 130 161 197 240 284
#     4  11  19  32  48  69  97 126 161 203 245 290
#     4   8  15  28  45  66  92 121 155 197 244 293
#     4  10  21  36  53  72  95 124 160 204 254 307
#     4   9  16  25  40  64  96 132 164 196 237 288
#
# _framework density 16.875682000000001
#
# number of rings (size 3 to 8) (size 9 to 14) (size 15 to 20)
#    0.000    2.273    0.909    4.909    0.000    2.545 
#    0.000    2.727    0.000    0.000    0.000    2.545 
#    0.000    2.182    0.000    0.000    0.000    3.273 
#
# Total GULP energy -1090591.137818 kJ/mol
# GULP energy per Si atom -12393.081112 kJ/mol
# Density = 1.683727 g / cm^3
# Si number density = 16.875682 Si / 1000 Ang^3
#
#
#
# Elastic Constant Matrix: (Units=GPa)
#
#
# Indices 1 2 3 4 5 6 
#
# 1 84.0206 55.7842 25.9451 0.0000 0.0000 0.0000
# 2 55.7842 84.0206 25.9451 0.0000 0.0000 0.0000
# 3 25.9451 25.9451 84.5949 0.0000 0.0000 0.0000
# 4 0.0000 0.0000 0.0000 9.6131 0.0000 0.0000
# 5 0.0000 0.0000 0.0000 0.0000 9.6131 0.0000
# 6 0.0000 0.0000 0.0000 0.0000 0.0000 26.1724
#
#
#
# Elastic Compliance Matrix: (Units=1/GPa)
#
#
# Indices 1 2 3 4 5 6 
#
# 1 0.021743 -0.013672 -0.002476 0.000000 0.000000 0.000000
# 2 -0.013672 0.021743 -0.002476 0.000000 0.000000 0.000000
# 3 -0.002476 -0.002476 0.013340 0.000000 0.000000 0.000000
# 4 0.000000 0.000000 0.000000 0.104025 0.000000 0.000000
# 5 0.000000 0.000000 0.000000 0.000000 0.104025 0.000000
# 6 0.000000 0.000000 0.000000 0.000000 0.000000 0.038208
#
#
# Mechanical properties :
#
#
# Convention : Reuss Voigt Hill
#
# Bulk Modulus (GPa) = 51.07093 51.99834 51.53464
# Shear Modulus (GPa) = 14.41516 18.74382 16.57949
#
# Velocity S-wave (km/s) = 2.92584 3.33633 3.13780
# Velocity P-wave (km/s) = 6.46086 6.76173 6.61301
#
# Compressibility (1/GPa) = 0.01958061
#
# Stress axis : x y z
#
# Youngs Moduli (GPa) = 45.99080 45.99080 74.96502
#
# Poissons Ratio (x) = 0.62878 0.18558
# Poissons Ratio (y) = 0.62878 0.18558
# Poissons Ratio (z) = 0.11385 0.11385
#
# Static dielectric constant tensor:
#      x y z
#    x 3.036800 0.000000 0.000000 
#    y 0.000000 3.036800 0.000000 
#    z 0.000000 0.000000 3.320920 
# 
# 
# High freq. dielectric constant tensor:
#      x y z
#    x 1.638240 0.000000 0.000000 
#    y 0.000000 1.638240 0.000000 
#    z 0.000000 0.000000 1.641340 
# 
# From -- ./inp_files/4034.got.cif
#   From: 2010.03.12/outbox.cif.g09.slc.cpg/sg123_3_cif.got.tgz:4034.got - 2010.04.06 16:26:55.
