data_PCOD8312080
_publ_section_title
;
Structure prediction by ZEFSAII (Michael W. Deem and Ramdas Pophale) SiO2 
 PCOD8312080
Probable space group: I -4 2 D
;
_chemical_formula_sum "Si O2"
_cell_formula_units_Z 36
_cell_length_a 12.156403
_cell_length_b 12.156403
_cell_length_c 10.365772
_cell_angle_alpha 90.000000
_cell_angle_beta 90.000000
_cell_angle_gamma 90.000000
_cell_volume 1531.834443
_symmetry_space_group_name_H-M "I -4 2 D"
_symmetry_group_IT_number 122
_symmetry_cell_setting 'tetragonal'
loop_
_space_group_symop_operation_xyz
x,y,z
y,-x,-z
-x,-y,z
-y,x,-z
x,1/2-y,1/4-z
-x,1/2+y,1/4-z
-y,1/2-x,1/4+z
y,1/2+x,1/4+z
1/2+x,1/2+y,1/2+z
1/2+y,1/2-x,1/2-z
1/2-x,1/2-y,1/2+z
1/2-y,1/2+x,1/2-z
1/2+x,-y,3/4-z
1/2-x,y,3/4-z
1/2-y,-x,3/4+z
1/2+y,x,3/4+z
loop_
_atom_site_type_symbol
_atom_site_label
_atom_site_fract_x
_atom_site_fract_y
_atom_site_fract_z
Si Si1 0.500000 0.500000 0.500000
Si Si2 0.143774 0.124553 0.805053
Si Si3 0.339150 0.513330 0.049025
O O1 0.596529 0.543553 0.411193
O O2 0.250000 0.178271 0.875000
O O3 0.061131 0.220517 0.759421
O O4 0.174219 0.050487 0.682960
O O5 0.427536 0.614159 0.058859
#
# Coordination Sequence:
#
# PCOD8312080 Si02
#       3
#     4  16  16
#     4  12  24  48  78 112 148 192 252 314 372 444
#     4  12  26  49  79 111 149 200 252 312 375 454
#     4  11  26  49  74 111 154 199 253 312 377 443
#
# _framework density 23.501232999999999
#
# number of rings (size 3 to 8) (size 9 to 14) (size 15 to 20)
#    0.000    0.444    4.444    4.000    0.000   10.667 
#    8.000    0.000    0.000    0.000    0.000    0.000 
#    0.000    0.000    0.000    0.000    0.000    0.000 
#
# Total GULP energy -223182.150876 kJ/mol
# GULP energy per Si atom -12399.008382 kJ/mol
# Density = 2.344774 g / cm^3
# Si number density = 23.501233 Si / 1000 Ang^3
#
#
#
# Elastic Constant Matrix: (Units=GPa)
#
#
# Indices 1 2 3 4 5 6 
#
# 1 99.7670 38.9887 43.3037 0.0000 0.0000 0.0000
# 2 38.9887 99.7670 43.3037 0.0000 0.0000 0.0000
# 3 43.3037 43.3037 91.8241 0.0000 0.0000 0.0000
# 4 0.0000 0.0000 0.0000 25.6359 0.0000 0.0000
# 5 0.0000 0.0000 0.0000 0.0000 25.6359 0.0000
# 6 0.0000 0.0000 0.0000 0.0000 0.0000 46.1581
#
#
#
# Elastic Compliance Matrix: (Units=1/GPa)
#
#
# Indices 1 2 3 4 5 6 
#
# 1 0.013333 -0.003120 -0.004817 0.000000 0.000000 0.000000
# 2 -0.003120 0.013333 -0.004817 0.000000 0.000000 0.000000
# 3 -0.004817 -0.004817 0.015433 0.000000 0.000000 0.000000
# 4 0.000000 0.000000 0.000000 0.039008 0.000000 0.000000
# 5 0.000000 0.000000 0.000000 0.000000 0.039008 0.000000
# 6 0.000000 0.000000 0.000000 0.000000 0.000000 0.021665
#
#
# Mechanical properties :
#
#
# Convention : Reuss Voigt Hill
#
# Bulk Modulus (GPa) = 60.26378 60.28338 60.27358
# Shear Modulus (GPa) = 28.93226 30.53675 29.73451
#
# Velocity S-wave (km/s) = 3.51250 3.60859 3.56087
# Velocity P-wave (km/s) = 6.49221 6.56273 6.52756
#
# Compressibility (1/GPa) = 0.01659372
#
# Stress axis : x y z
#
# Youngs Moduli (GPa) = 75.00049 75.00049 64.79506
#
# Poissons Ratio (x) = 0.23400 0.31209
# Poissons Ratio (y) = 0.23400 0.31209
# Poissons Ratio (z) = 0.36124 0.36124
#
# Static dielectric constant tensor:
#      x y z
#    x 3.904460 0.000000 0.000000 
#    y 0.000000 3.904460 0.000000 
#    z 0.000000 0.000000 4.134720 
# 
# 
# High freq. dielectric constant tensor:
#      x y z
#    x 1.936310 0.000000 0.000000 
#    y 0.000000 1.936310 0.000000 
#    z 0.000000 0.000000 1.936130 
# 
# From -- ./inp_files/1786.got.cif
#   From: 2010.03.12/outbox.cif.g09.slc.cpg/sg122_1_cif.got.tgz:1786.got - 2010.04.06 16:17:16.
