data_PCOD8312129
_publ_section_title
;
Structure prediction by ZEFSAII (Michael W. Deem and Ramdas Pophale) SiO2 
 PCOD8312129
Probable space group: P 4/M M M
;
_chemical_formula_sum "Si O2"
_cell_formula_units_Z 80
_cell_length_a 22.095499
_cell_length_b 22.095499
_cell_length_c 12.897439
_cell_angle_alpha 90.000000
_cell_angle_beta 90.000000
_cell_angle_gamma 90.000000
_cell_volume 6296.672573
_symmetry_space_group_name_H-M "P 4/M M M"
_symmetry_group_IT_number 123
_symmetry_cell_setting 'tetragonal'
loop_
_space_group_symop_operation_xyz
x,y,z
-y,x,z
-x,-y,z
y,-x,z
x,-y,-z
-x,y,-z
y,x,-z
-y,-x,-z
-x,-y,-z
y,-x,-z
x,y,-z
-y,x,-z
-x,y,z
x,-y,z
-y,-x,z
y,x,z
loop_
_atom_site_type_symbol
_atom_site_label
_atom_site_fract_x
_atom_site_fract_y
_atom_site_fract_z
Si Si1 0.432873 0.071592 0.385146
Si Si2 0.225616 0.128980 0.805378
Si Si3 0.163606 0.929870 0.000000
Si Si4 0.929148 0.433154 0.000000
Si Si5 0.068832 0.835195 0.382993
Si Si6 0.072477 0.647832 0.194611
O O1 0.412512 0.093594 0.500000
O O2 0.500000 0.097501 0.359260
O O3 0.384133 0.092584 0.301096
O O4 0.436890 0.000000 0.382342
O O5 0.198282 0.198282 0.811697
O O6 0.197420 0.090302 0.897039
O O7 0.211030 0.101637 0.693080
O O8 0.297125 0.119893 0.818250
O O9 0.096247 0.903754 0.000000
O O10 0.157645 0.000000 0.000000
O O11 0.910171 0.396967 0.102102
O O12 0.898483 0.500000 0.000000
O O13 0.000000 0.442253 0.000000
O O14 0.074369 0.809322 0.500000
O O15 0.098777 0.901224 0.374537
O O16 0.000000 0.842844 0.348472
O O17 0.000000 0.665674 0.192781
#
# Coordination Sequence:
#
# PCOD8312129 Si02
#       6
#    16  16   8   8  16  16
#     4   8  14  24  37  55  77  94 109 135 172 213
#     4  10  20  31  40  52  71  93 118 148 177 206
#     4  10  19  30  42  52  64  82 106 143 188 227
#     4   9  17  27  39  58  79  91 103 131 171 213
#     4   9  17  28  40  52  66  84 108 144 188 227
#     4  10  17  25  40  56  70  93 120 141 171 218
#
# _framework density 12.705123
#
# number of rings (size 3 to 8) (size 9 to 14) (size 15 to 20)
#    0.000    2.700    0.000    3.600    0.000    4.300 
#    0.000    3.000    0.000    3.600    0.000    0.000 
#    0.000    0.000    0.000    0.000    0.000    0.000 
#
# Total GULP energy -991156.846007 kJ/mol
# GULP energy per Si atom -12389.460575 kJ/mol
# Density = 1.267621 g / cm^3
# Si number density = 12.705123 Si / 1000 Ang^3
#
#
#
# Elastic Constant Matrix: (Units=GPa)
#
#
# Indices 1 2 3 4 5 6 
#
# 1 76.2673 28.6790 34.1773 0.0000 0.0000 0.0000
# 2 28.6790 76.2658 34.1764 0.0000 0.0000 0.0000
# 3 34.1773 34.1764 84.1329 0.0000 0.0000 0.0000
# 4 0.0000 0.0000 0.0000 26.5926 0.0000 0.0000
# 5 0.0000 0.0000 0.0000 0.0000 26.5907 0.0000
# 6 0.0000 0.0000 0.0000 0.0000 0.0000 7.7145
#
#
#
# Elastic Compliance Matrix: (Units=1/GPa)
#
#
# Indices 1 2 3 4 5 6 
#
# 1 0.016985 -0.004028 -0.005264 0.000000 0.000000 0.000000
# 2 -0.004028 0.016986 -0.005263 0.000000 0.000000 0.000000
# 3 -0.005264 -0.005263 0.016162 0.000000 0.000000 0.000000
# 4 0.000000 0.000000 0.000000 0.037604 0.000000 0.000000
# 5 0.000000 0.000000 0.000000 0.000000 0.037607 0.000000
# 6 0.000000 0.000000 0.000000 0.000000 0.000000 0.129626
#
#
# Mechanical properties :
#
#
# Convention : Reuss Voigt Hill
#
# Bulk Modulus (GPa) = 47.56829 47.85905 47.71367
# Shear Modulus (GPa) = 17.17690 21.48845 19.33268
#
# Velocity S-wave (km/s) = 3.68090 4.11703 3.90506
# Velocity P-wave (km/s) = 7.45566 7.76858 7.61373
#
# Compressibility (1/GPa) = 0.02102241
#
# Stress axis : x y z
#
# Youngs Moduli (GPa) = 58.87429 58.87368 61.87270
#
# Poissons Ratio (x) = 0.23717 0.32567
# Poissons Ratio (y) = 0.23717 0.32566
# Poissons Ratio (z) = 0.30989 0.30987
#
# Static dielectric constant tensor:
#      x y z
#    x 2.460860 0.000000 0.000000 
#    y 0.000000 2.460860 0.000000 
#    z 0.000000 0.000000 2.960620 
# 
# 
# High freq. dielectric constant tensor:
#      x y z
#    x 1.445660 0.000000 0.000000 
#    y 0.000000 1.445660 0.000000 
#    z 0.000000 0.000000 1.510420 
# 
# From -- ./inp_files/4269.got.cif
#   From: 2010.03.12/outbox.cif.g09.slc.cpg/sg123_3_cif.got.tgz:4269.got - 2010.04.06 16:26:55.
