data_PCOD8312492
_publ_section_title
;
Structure prediction by ZEFSAII (Michael W. Deem and Ramdas Pophale) SiO2 
 PCOD8312492
Probable space group: P 4/M M M
;
_chemical_formula_sum "Si O2"
_cell_formula_units_Z 56
_cell_length_a 18.218150
_cell_length_b 18.218150
_cell_length_c 9.789148
_cell_angle_alpha 90.000000
_cell_angle_beta 90.000000
_cell_angle_gamma 90.000000
_cell_volume 3249.027907
_symmetry_space_group_name_H-M "P 4/M M M"
_symmetry_group_IT_number 123
_symmetry_cell_setting 'tetragonal'
loop_
_space_group_symop_operation_xyz
x,y,z
-y,x,z
-x,-y,z
y,-x,z
x,-y,-z
-x,y,-z
y,x,-z
-y,-x,-z
-x,-y,-z
y,-x,-z
x,y,-z
-y,x,-z
-x,y,z
x,-y,z
-y,-x,z
y,x,z
loop_
_atom_site_type_symbol
_atom_site_label
_atom_site_fract_x
_atom_site_fract_y
_atom_site_fract_z
Si Si1 0.859306 0.347162 0.337717
Si Si2 0.000000 0.256670 0.337741
Si Si3 0.700380 0.700380 0.663312
Si Si4 0.082823 0.500000 0.662791
Si Si5 0.582572 0.417429 0.337673
Si Si6 0.000000 0.879667 0.151141
O O1 0.857391 0.346099 0.500000
O O2 0.781377 0.319075 0.279832
O O3 0.873059 0.429393 0.283470
O O4 0.926869 0.297812 0.285851
O O5 0.000000 0.248563 0.500000
O O6 0.000000 0.177590 0.272228
O O7 0.699475 0.699475 0.500000
O O8 0.641279 0.641279 0.720828
O O9 0.078612 0.500000 0.500000
O O10 0.000000 0.500000 0.721306
O O11 0.603078 0.500000 0.287771
O O12 0.584679 0.415322 0.500000
O O13 0.927889 0.927889 0.168718
O O14 0.000000 0.842980 0.000000
#
# Coordination Sequence:
#
# PCOD8312492 Si02
#       6
#    16   8   8   8   8   8
#     4   9  17  26  37  58  87 117 150 186 227 276
#     4  10  19  30  47  72  99 122 144 186 240 278
#     4   9  17  24  33  50  76 108 143 188 235 270
#     4   9  14  24  38  52  77 117 155 181 216 271
#     4   8  14  23  32  44  66 104 156 199 225 260
#     4   9  20  38  55  69  88 120 160 193 222 270
#
# _framework density 17.235924000000001
#
# number of rings (size 3 to 8) (size 9 to 14) (size 15 to 20)
#    0.000    3.000    1.429    0.857    4.000    0.571 
#    0.000    0.714    0.000    0.000    0.000    2.000 
#    0.000    0.000    0.000    0.000    0.000    0.000 
#
# Total GULP energy -694073.352549 kJ/mol
# GULP energy per Si atom -12394.167010 kJ/mol
# Density = 1.719669 g / cm^3
# Si number density = 17.235924 Si / 1000 Ang^3
#
#
#
# Elastic Constant Matrix: (Units=GPa)
#
#
# Indices 1 2 3 4 5 6 
#
# 1 161.2354 87.3857 16.1401 0.0000 0.0000 0.0000
# 2 87.3857 161.2354 16.1401 0.0000 0.0000 0.0000
# 3 16.1401 16.1401 11.2171 0.0000 0.0000 0.0000
# 4 0.0000 0.0000 0.0000 3.9481 0.0000 0.0000
# 5 0.0000 0.0000 0.0000 0.0000 3.9481 0.0000
# 6 0.0000 0.0000 0.0000 0.0000 0.0000 32.7750
#
#
#
# Elastic Compliance Matrix: (Units=1/GPa)
#
#
# Indices 1 2 3 4 5 6 
#
# 1 0.009244 -0.004297 -0.007117 0.000000 0.000000 0.000000
# 2 -0.004297 0.009244 -0.007117 0.000000 0.000000 0.000000
# 3 -0.007117 -0.007117 0.109631 0.000000 0.000000 0.000000
# 4 0.000000 0.000000 0.000000 0.253289 0.000000 0.000000
# 5 0.000000 0.000000 0.000000 0.000000 0.253289 0.000000
# 6 0.000000 0.000000 0.000000 0.000000 0.000000 0.030511
#
#
# Mechanical properties :
#
#
# Convention : Reuss Voigt Hill
#
# Bulk Modulus (GPa) = 10.98240 63.66887 37.32563
# Shear Modulus (GPa) = 6.82480 22.40234 14.61357
#
# Velocity S-wave (km/s) = 1.99204 3.60911 2.91495
# Velocity P-wave (km/s) = 3.41711 7.37478 5.74735
#
# Compressibility (1/GPa) = 0.09105482
#
# Stress axis : x y z
#
# Youngs Moduli (GPa) = 108.18256 108.18253 9.12154
#
# Poissons Ratio (x) = 0.46490 0.06492
# Poissons Ratio (y) = 0.46490 0.06492
# Poissons Ratio (z) = 0.76994 0.76994
#
# Static dielectric constant tensor:
#      x y z
#    x 3.471300 0.000000 0.000000 
#    y 0.000000 3.471300 0.000000 
#    z 0.000000 0.000000 2.401010 
# 
# 
# High freq. dielectric constant tensor:
#      x y z
#    x 1.680550 0.000000 0.000000 
#    y 0.000000 1.680550 0.000000 
#    z 0.000000 0.000000 1.570270 
# 
# From -- ./inp_files/671.got.cif
#   From: 2010.03.12/outbox.cif.g09.slc.cpg/sg123_1_cif.got.tgz:671.got - 2010.04.06 16:26:55.
