data_PCOD8312648
_publ_section_title
;
Structure prediction by ZEFSAII (Michael W. Deem and Ramdas Pophale) SiO2 
 PCOD8312648
Probable space group: P 4/M M M
;
_chemical_formula_sum "Si O2"
_cell_formula_units_Z 52
_cell_length_a 15.929333
_cell_length_b 15.929333
_cell_length_c 10.654673
_cell_angle_alpha 90.000000
_cell_angle_beta 90.000000
_cell_angle_gamma 90.000000
_cell_volume 2703.555615
_symmetry_space_group_name_H-M "P 4/M M M"
_symmetry_group_IT_number 123
_symmetry_cell_setting 'tetragonal'
loop_
_space_group_symop_operation_xyz
x,y,z
-y,x,z
-x,-y,z
y,-x,z
x,-y,-z
-x,y,-z
y,x,-z
-y,-x,-z
-x,-y,-z
y,-x,-z
x,y,-z
-y,x,-z
-x,y,z
x,-y,z
-y,-x,z
y,x,z
loop_
_atom_site_type_symbol
_atom_site_label
_atom_site_fract_x
_atom_site_fract_y
_atom_site_fract_z
Si Si1 0.097217 0.772232 0.000000
Si Si2 0.341744 0.095852 0.226497
Si Si3 0.500000 0.359499 0.732104
Si Si4 0.640571 0.094319 0.500000
Si Si5 0.500000 0.233637 0.500000
Si Si6 0.805764 0.500000 0.143910
O O1 0.127990 0.725267 0.874416
O O2 0.136651 0.863350 0.000000
O O3 0.000000 0.787553 0.000000
O O4 0.305906 0.101875 0.370068
O O5 0.421242 0.156203 0.216884
O O6 0.367682 0.000000 0.193849
O O7 0.582873 0.417128 0.732410
O O8 0.500000 0.296412 0.616252
O O9 0.500000 0.296354 0.851229
O O10 0.578183 0.171912 0.500000
O O11 0.598218 0.000000 0.500000
O O12 0.835005 0.500000 0.000000
#
# Coordination Sequence:
#
# PCOD8312648 Si02
#       6
#     8  16   8   8   4   8
#     4  10  22  40  61  87 120 156 192 232 281 340
#     4  10  20  36  59  89 123 153 184 230 289 351
#     4  11  26  44  56  71 105 153 205 255 291 331
#     4  10  19  34  59  93 123 145 181 233 294 356
#     4  12  19  37  60  82 104 148 196 235 289 340
#     4  12  22  36  59  88 110 148 195 240 296 354
#
# _framework density 19.233930999999998
#
# number of rings (size 3 to 8) (size 9 to 14) (size 15 to 20)
#    0.000    1.385    4.615    1.154    0.000    5.692 
#    0.000    1.538    0.000    0.000    0.000    0.000 
#    0.000    6.154    0.000    0.000    0.000    0.000 
#
# Total GULP energy -644295.047443 kJ/mol
# GULP energy per Si atom -12390.289374 kJ/mol
# Density = 1.919015 g / cm^3
# Si number density = 19.233931 Si / 1000 Ang^3
#
#
#
# Elastic Constant Matrix: (Units=GPa)
#
#
# Indices 1 2 3 4 5 6 
#
# 1 86.2256 48.6653 32.8238 0.0000 0.0000 0.0000
# 2 48.6653 86.2197 32.8220 0.0000 0.0000 0.0000
# 3 32.8238 32.8220 170.2173 0.0000 0.0000 0.0000
# 4 0.0000 0.0000 0.0000 37.3043 0.0000 0.0000
# 5 0.0000 0.0000 0.0000 0.0000 37.2948 0.0000
# 6 0.0000 0.0000 0.0000 0.0000 0.0000 0.3216
#
#
#
# Elastic Compliance Matrix: (Units=1/GPa)
#
#
# Indices 1 2 3 4 5 6 
#
# 1 0.017403 -0.009222 -0.001578 0.000000 0.000000 0.000000
# 2 -0.009222 0.017404 -0.001578 0.000000 0.000000 0.000000
# 3 -0.001578 -0.001578 0.006483 0.000000 0.000000 0.000000
# 4 0.000000 0.000000 0.000000 0.026807 0.000000 0.000000
# 5 0.000000 0.000000 0.000000 0.000000 0.026813 0.000000
# 6 0.000000 0.000000 0.000000 0.000000 0.000000 3.109688
#
#
# Mechanical properties :
#
#
# Convention : Reuss Voigt Hill
#
# Bulk Modulus (GPa) = 60.47587 63.47607 61.97597
# Shear Modulus (GPa) = 1.54566 30.20755 15.87661
#
# Velocity S-wave (km/s) = 0.89742 3.96730 2.87618
# Velocity P-wave (km/s) = 5.70827 7.35253 6.58195
#
# Compressibility (1/GPa) = 0.01653552
#
# Stress axis : x y z
#
# Youngs Moduli (GPa) = 57.46111 57.45742 154.24337
#
# Poissons Ratio (x) = 0.52989 0.24334
# Poissons Ratio (y) = 0.52992 0.24333
# Poissons Ratio (z) = 0.09065 0.09064
#
# Static dielectric constant tensor:
#      x y z
#    x 3.371080 0.000000 0.000000 
#    y 0.000000 3.371080 0.000000 
#    z 0.000000 0.000000 4.149320 
# 
# 
# High freq. dielectric constant tensor:
#      x y z
#    x 1.726220 0.000000 0.000000 
#    y 0.000000 1.726220 0.000000 
#    z 0.000000 0.000000 1.777910 
# 
# From -- ./inp_files/2491.got.cif
#   From: 2010.03.12/outbox.cif.g09.slc.cpg/sg123_2_cif.got.tgz:2491.got - 2010.04.06 16:26:55.
