data_PCOD8312698
_publ_section_title
;
Structure prediction by ZEFSAII (Michael W. Deem and Ramdas Pophale) SiO2 
 PCOD8312698
Probable space group: P 4/M M M
;
_chemical_formula_sum "Si O2"
_cell_formula_units_Z 80
_cell_length_a 13.264138
_cell_length_b 13.264138
_cell_length_c 25.578091
_cell_angle_alpha 90.000000
_cell_angle_beta 90.000000
_cell_angle_gamma 90.000000
_cell_volume 4500.141725
_symmetry_space_group_name_H-M "P 4/M M M"
_symmetry_group_IT_number 123
_symmetry_cell_setting 'tetragonal'
loop_
_space_group_symop_operation_xyz
x,y,z
-y,x,z
-x,-y,z
y,-x,z
x,-y,-z
-x,y,-z
y,x,-z
-y,-x,-z
-x,-y,-z
y,-x,-z
x,y,-z
-y,x,-z
-x,y,z
x,-y,z
-y,-x,z
y,x,z
loop_
_atom_site_type_symbol
_atom_site_label
_atom_site_fract_x
_atom_site_fract_y
_atom_site_fract_z
Si Si1 0.116975 0.718683 0.349201
Si Si2 0.387577 0.119502 0.057363
Si Si3 0.118241 0.278111 0.159836
Si Si4 0.221676 0.384269 0.440251
Si Si5 0.217208 0.616812 0.252760
O O1 0.175338 0.824663 0.346037
O O2 0.134745 0.664052 0.404648
O O3 0.154646 0.643727 0.304344
O O4 0.000000 0.742790 0.342062
O O5 0.500000 0.163989 0.065172
O O6 0.315716 0.158538 0.103423
O O7 0.393618 0.000000 0.060746
O O8 0.345835 0.152424 0.000000
O O9 0.172969 0.172969 0.173073
O O10 0.146648 0.361175 0.202902
O O11 0.000000 0.257296 0.160528
O O12 0.185665 0.372620 0.500000
O O13 0.240036 0.500000 0.425130
O O14 0.327277 0.327277 0.430192
O O15 0.246268 0.500000 0.253800
O O16 0.320774 0.679227 0.249689
#
# Coordination Sequence:
#
# PCOD8312698 Si02
#       5
#    16  16  16  16  16
#     4  10  21  36  53  74 100 130 166 206 245 287
#     4   8  14  26  45  67  89 116 154 200 247 291
#     4  10  20  32  47  69  97 130 168 207 245 287
#     4   9  18  32  50  74 103 133 166 204 246 294
#     4  10  21  36  54  77 102 127 158 196 240 292
#
# _framework density 17.777218000000001
#
# number of rings (size 3 to 8) (size 9 to 14) (size 15 to 20)
#    0.000    2.600    0.000    2.400    0.000    5.200 
#    0.000    2.000    0.000    7.200    0.000    5.600 
#    0.000    0.000    0.000   18.600    0.000    1.000 
#
# Total GULP energy -991914.582570 kJ/mol
# GULP energy per Si atom -12398.932282 kJ/mol
# Density = 1.773676 g / cm^3
# Si number density = 17.777218 Si / 1000 Ang^3
#
#
#
# Elastic Constant Matrix: (Units=GPa)
#
#
# Indices 1 2 3 4 5 6 
#
# 1 101.5971 39.8843 41.5822 0.0000 0.0000 0.0000
# 2 39.8843 101.5971 41.5822 0.0000 0.0000 0.0000
# 3 41.5822 41.5822 109.7351 0.0000 0.0000 0.0000
# 4 0.0000 0.0000 0.0000 25.1913 0.0000 0.0000
# 5 0.0000 0.0000 0.0000 0.0000 25.1913 0.0000
# 6 0.0000 0.0000 0.0000 0.0000 0.0000 11.6498
#
#
#
# Elastic Compliance Matrix: (Units=1/GPa)
#
#
# Indices 1 2 3 4 5 6 
#
# 1 0.012649 -0.003555 -0.003446 0.000000 0.000000 0.000000
# 2 -0.003555 0.012649 -0.003446 0.000000 0.000000 0.000000
# 3 -0.003446 -0.003446 0.011724 0.000000 0.000000 0.000000
# 4 0.000000 0.000000 0.000000 0.039696 0.000000 0.000000
# 5 0.000000 0.000000 0.000000 0.000000 0.039696 0.000000
# 6 0.000000 0.000000 0.000000 0.000000 0.000000 0.085838
#
#
# Mechanical properties :
#
#
# Convention : Reuss Voigt Hill
#
# Bulk Modulus (GPa) = 62.00361 62.11407 62.05884
# Shear Modulus (GPa) = 21.87964 25.06518 23.47241
#
# Velocity S-wave (km/s) = 3.51204 3.75902 3.63762
# Velocity P-wave (km/s) = 7.16936 7.33869 7.25452
#
# Compressibility (1/GPa) = 0.01612809
#
# Stress axis : x y z
#
# Youngs Moduli (GPa) = 79.05868 79.05868 85.29261
#
# Poissons Ratio (x) = 0.28107 0.29391
# Poissons Ratio (y) = 0.28107 0.29391
# Poissons Ratio (z) = 0.27242 0.27242
#
# Static dielectric constant tensor:
#      x y z
#    x 3.073590 0.000000 0.000000 
#    y 0.000000 3.073590 0.000000 
#    z 0.000000 0.000000 3.666890 
# 
# 
# High freq. dielectric constant tensor:
#      x y z
#    x 1.670670 0.000000 0.000000 
#    y 0.000000 1.670670 0.000000 
#    z 0.000000 0.000000 1.710350 
# 
# From -- ./inp_files/8313.got.cif
#   From: 2010.03.12/outbox.cif.g09.slc.cpg/sg123_5_cif.got.tgz:8313.got - 2010.04.06 16:26:55.
