data_PCOD8312670
_publ_section_title
;
Structure prediction by ZEFSAII (Michael W. Deem and Ramdas Pophale) SiO2 
 PCOD8312670
Probable space group: P 4/M M M
;
_chemical_formula_sum "Si O2"
_cell_formula_units_Z 96
_cell_length_a 13.786033
_cell_length_b 13.786033
_cell_length_c 30.658284
_cell_angle_alpha 90.000000
_cell_angle_beta 90.000000
_cell_angle_gamma 90.000000
_cell_volume 5826.751148
_symmetry_space_group_name_H-M "P 4/M M M"
_symmetry_group_IT_number 123
_symmetry_cell_setting 'tetragonal'
loop_
_space_group_symop_operation_xyz
x,y,z
-y,x,z
-x,-y,z
y,-x,z
x,-y,-z
-x,y,-z
y,x,-z
-y,-x,-z
-x,-y,-z
y,-x,-z
x,y,-z
-y,x,-z
-x,y,z
x,-y,z
-y,-x,z
y,x,z
loop_
_atom_site_type_symbol
_atom_site_label
_atom_site_fract_x
_atom_site_fract_y
_atom_site_fract_z
Si Si1 0.110280 0.732841 0.389235
Si Si2 0.389320 0.767647 0.450075
Si Si3 0.884778 0.391414 0.953848
Si Si4 0.268865 0.888245 0.288816
Si Si5 0.384198 0.108825 0.860525
Si Si6 0.385650 0.770991 0.777498
O O1 0.171162 0.828839 0.400302
O O2 0.144494 0.644064 0.419306
O O3 0.123006 0.701206 0.339160
O O4 0.000000 0.758152 0.400330
O O5 0.374607 0.800566 0.500000
O O6 0.500000 0.742277 0.439822
O O7 0.328915 0.671086 0.439258
O O8 0.842473 0.500000 0.955725
O O9 0.851787 0.342838 0.907725
O O10 0.000000 0.395871 0.951816
O O11 0.852579 0.338873 0.000000
O O12 0.169424 0.830577 0.278560
O O13 0.357547 0.844144 0.261319
O O14 0.251672 0.000000 0.276070
O O15 0.500000 0.105822 0.862966
O O16 0.350065 0.180980 0.822723
O O17 0.345251 0.000000 0.850537
O O18 0.500000 0.751708 0.776196
O O19 0.331706 0.668295 0.771963
#
# Coordination Sequence:
#
# PCOD8312670 Si02
#       6
#    16  16  16  16  16  16
#     4   9  18  32  49  70  96 123 150 180 214 257
#     4   9  18  32  49  69  93 121 154 193 234 272
#     4   7   9  14  27  50  78 102 123 153 199 255
#     4   9  18  32  50  72  95 118 144 175 215 264
#     4   8  13  22  38  59  80 102 130 167 213 262
#     4  10  20  32  45  61  83 113 150 190 228 266
#
# _framework density 16.475733000000002
#
# number of rings (size 3 to 8) (size 9 to 14) (size 15 to 20)
#    0.000    3.333    0.000    2.000    0.000    3.000 
#    0.000    5.000    0.000    0.500    0.000    7.000 
#    0.000    0.000    0.000    6.500    0.000    0.333 
#
# Total GULP energy -1189402.338384 kJ/mol
# GULP energy per Si atom -12389.607692 kJ/mol
# Density = 1.643823 g / cm^3
# Si number density = 16.475733 Si / 1000 Ang^3
#
#
#
# Elastic Constant Matrix: (Units=GPa)
#
#
# Indices 1 2 3 4 5 6 
#
# 1 76.4049 32.8661 48.9261 0.0000 0.0000 0.0000
# 2 32.8661 76.4049 48.9261 0.0000 0.0000 0.0000
# 3 48.9261 48.9261 99.8721 0.0000 0.0000 0.0000
# 4 0.0000 0.0000 0.0000 17.1626 0.0000 0.0000
# 5 0.0000 0.0000 0.0000 0.0000 17.1626 0.0000
# 6 0.0000 0.0000 0.0000 0.0000 0.0000 9.7421
#
#
#
# Elastic Compliance Matrix: (Units=1/GPa)
#
#
# Indices 1 2 3 4 5 6 
#
# 1 0.019636 -0.003332 -0.007987 0.000000 0.000000 0.000000
# 2 -0.003332 0.019636 -0.007987 0.000000 0.000000 0.000000
# 3 -0.007987 -0.007987 0.017838 0.000000 0.000000 0.000000
# 4 0.000000 0.000000 0.000000 0.058266 0.000000 0.000000
# 5 0.000000 0.000000 0.000000 0.000000 0.058266 0.000000
# 6 0.000000 0.000000 0.000000 0.000000 0.000000 0.102647
#
#
# Mechanical properties :
#
#
# Convention : Reuss Voigt Hill
#
# Bulk Modulus (GPa) = 54.06012 57.12426 55.59219
# Shear Modulus (GPa) = 15.57298 16.94435 16.25867
#
# Velocity S-wave (km/s) = 3.07776 3.21041 3.14479
# Velocity P-wave (km/s) = 6.74636 6.96343 6.85575
#
# Compressibility (1/GPa) = 0.01849792
#
# Stress axis : x y z
#
# Youngs Moduli (GPa) = 50.92675 50.92675 56.05887
#
# Poissons Ratio (x) = 0.16969 0.44775
# Poissons Ratio (y) = 0.16969 0.44775
# Poissons Ratio (z) = 0.40676 0.40676
#
# Static dielectric constant tensor:
#      x y z
#    x 2.838090 0.000000 0.000000 
#    y 0.000000 2.838090 0.000000 
#    z 0.000000 0.000000 3.591040 
# 
# 
# High freq. dielectric constant tensor:
#      x y z
#    x 1.603420 0.000000 0.000000 
#    y 0.000000 1.603420 0.000000 
#    z 0.000000 0.000000 1.656730 
# 
# From -- ./inp_files/8583.got.cif
#   From: 2010.03.12/outbox.cif.g09.slc.cpg/sg123_5_cif.got.tgz:8583.got - 2010.04.06 16:26:55.
