data_PCOD8312650
_publ_section_title
;
Structure prediction by ZEFSAII (Michael W. Deem and Ramdas Pophale) SiO2 
 PCOD8312650
Probable space group: P 4/M M M
;
_chemical_formula_sum "Si O2"
_cell_formula_units_Z 88
_cell_length_a 18.005204
_cell_length_b 18.005204
_cell_length_c 13.543044
_cell_angle_alpha 90.000000
_cell_angle_beta 90.000000
_cell_angle_gamma 90.000000
_cell_volume 4390.483831
_symmetry_space_group_name_H-M "P 4/M M M"
_symmetry_group_IT_number 123
_symmetry_cell_setting 'tetragonal'
loop_
_space_group_symop_operation_xyz
x,y,z
-y,x,z
-x,-y,z
y,-x,z
x,-y,-z
-x,y,-z
y,x,-z
-y,-x,-z
-x,-y,-z
y,-x,-z
x,y,-z
-y,x,-z
-x,y,z
x,-y,z
-y,-x,z
y,x,z
loop_
_atom_site_type_symbol
_atom_site_label
_atom_site_fract_x
_atom_site_fract_y
_atom_site_fract_z
Si Si1 0.267497 0.151022 0.886810
Si Si2 0.084176 0.418185 0.882779
Si Si3 0.582076 0.695600 0.383321
Si Si4 0.914604 0.796789 0.707817
Si Si5 0.500000 0.086168 0.389902
Si Si6 0.151870 0.351115 0.616131
O O1 0.235707 0.235707 0.873130
O O2 0.353208 0.142043 0.848558
O O3 0.215129 0.094758 0.825399
O O4 0.261732 0.125591 0.000000
O O5 0.105503 0.500000 0.838531
O O6 0.000000 0.397464 0.849230
O O7 0.087098 0.423966 0.000000
O O8 0.573362 0.691742 0.500000
O O9 0.500000 0.705262 0.335574
O O10 0.619883 0.619883 0.343280
O O11 0.637993 0.762203 0.356287
O O12 0.870241 0.870241 0.672626
O O13 0.878248 0.725032 0.658473
O O14 0.000000 0.806500 0.677304
O O15 0.500000 0.123908 0.500000
O O16 0.423492 0.110498 0.336023
O O17 0.500000 0.000000 0.400454
O O18 0.136532 0.348276 0.500000
#
# Coordination Sequence:
#
# PCOD8312650 Si02
#       6
#    16  16  16  16   8  16
#     4   9  18  34  55  77 104 137 172 215 266 320
#     4   8  13  23  42  68  98 130 160 195 245 303
#     4   9  16  27  45  70 102 140 177 212 254 302
#     4  11  24  39  56  79 104 136 180 224 271 326
#     4   9  16  28  50  76 102 130 160 206 262 309
#     4  10  19  35  55  77 105 137 175 217 263 314
#
# _framework density 20.04335
#
# number of rings (size 3 to 8) (size 9 to 14) (size 15 to 20)
#    0.000    2.636    0.909    2.182    0.000    3.636 
#    1.636    0.909    0.000    0.000    0.000    3.818 
#    0.000    0.364    0.000    5.091    0.000    0.000 
#
# Total GULP energy -1090333.384807 kJ/mol
# GULP energy per Si atom -12390.152100 kJ/mol
# Density = 1.999773 g / cm^3
# Si number density = 20.043350 Si / 1000 Ang^3
#
#
#
# Elastic Constant Matrix: (Units=GPa)
#
#
# Indices 1 2 3 4 5 6 
#
# 1 148.4759 109.3852 22.6370 0.0000 0.0000 0.0000
# 2 109.3852 148.4759 22.6370 0.0000 0.0000 0.0000
# 3 22.6370 22.6370 15.3169 0.0000 0.0000 0.0000
# 4 0.0000 0.0000 0.0000 20.0552 0.0000 0.0000
# 5 0.0000 0.0000 0.0000 0.0000 20.0552 0.0000
# 6 0.0000 0.0000 0.0000 0.0000 0.0000 41.6179
#
#
#
# Elastic Compliance Matrix: (Units=1/GPa)
#
#
# Indices 1 2 3 4 5 6 
#
# 1 0.015409 -0.010172 -0.007740 0.000000 0.000000 0.000000
# 2 -0.010172 0.015409 -0.007740 0.000000 0.000000 0.000000
# 3 -0.007740 -0.007740 0.088165 0.000000 0.000000 0.000000
# 4 0.000000 0.000000 0.000000 0.049862 0.000000 0.000000
# 5 0.000000 0.000000 0.000000 0.000000 0.049862 0.000000
# 6 0.000000 0.000000 0.000000 0.000000 0.000000 0.024028
#
#
# Mechanical properties :
#
#
# Convention : Reuss Voigt Hill
#
# Bulk Modulus (GPa) = 14.77545 69.06523 41.92034
# Shear Modulus (GPa) = 15.79280 26.85298 21.32289
#
# Velocity S-wave (km/s) = 2.81006 3.66422 3.26519
# Velocity P-wave (km/s) = 4.23277 7.24119 5.93090
#
# Compressibility (1/GPa) = 0.06767981
#
# Stress axis : x y z
#
# Youngs Moduli (GPa) = 64.89614 64.89614 11.34237
#
# Poissons Ratio (x) = 0.66014 0.08779
# Poissons Ratio (y) = 0.66014 0.08779
# Poissons Ratio (z) = 0.50228 0.50228
#
# Static dielectric constant tensor:
#      x y z
#    x 3.813760 0.000000 0.000000 
#    y 0.000000 3.813760 0.000000 
#    z 0.000000 0.000000 2.878350 
# 
# 
# High freq. dielectric constant tensor:
#      x y z
#    x 1.775920 0.000000 0.000000 
#    y 0.000000 1.775920 0.000000 
#    z 0.000000 0.000000 1.762350 
# 
# From -- ./inp_files/4065.got.cif
#   From: 2010.03.12/outbox.cif.g09.slc.cpg/sg123_3_cif.got.tgz:4065.got - 2010.04.06 16:26:55.
