data_PCOD8312723
_publ_section_title
;
Structure prediction by ZEFSAII (Michael W. Deem and Ramdas Pophale) SiO2 
 PCOD8312723
Probable space group: P 4/M M M
;
_chemical_formula_sum "Si O2"
_cell_formula_units_Z 120
_cell_length_a 20.800454
_cell_length_b 20.800454
_cell_length_c 15.623181
_cell_angle_alpha 90.000000
_cell_angle_beta 90.000000
_cell_angle_gamma 90.000000
_cell_volume 6759.508097
_symmetry_space_group_name_H-M "P 4/M M M"
_symmetry_group_IT_number 123
_symmetry_cell_setting 'tetragonal'
loop_
_space_group_symop_operation_xyz
x,y,z
-y,x,z
-x,-y,z
y,-x,z
x,-y,-z
-x,y,-z
y,x,-z
-y,-x,-z
-x,-y,-z
y,-x,-z
x,y,-z
-y,x,-z
-x,y,z
x,-y,z
-y,-x,z
y,x,z
loop_
_atom_site_type_symbol
_atom_site_label
_atom_site_fract_x
_atom_site_fract_y
_atom_site_fract_z
Si Si1 0.646122 0.805144 0.098195
Si Si2 0.169882 0.271868 0.745638
Si Si3 0.928673 0.173433 0.000000
Si Si4 0.427498 0.324683 0.344191
Si Si5 0.773832 0.334281 0.405156
Si Si6 0.182257 0.074579 0.813986
Si Si7 0.571424 0.070209 0.101208
Si Si8 0.573860 0.321653 0.857524
O O1 0.703213 0.797200 0.166117
O O2 0.612754 0.870126 0.134416
O O3 0.598547 0.744159 0.099531
O O4 0.671283 0.812858 0.000000
O O5 0.212071 0.212071 0.715711
O O6 0.171373 0.323327 0.667542
O O7 0.098250 0.242663 0.757161
O O8 0.915368 0.210883 0.911109
O O9 0.892326 0.107675 0.000000
O O10 0.000000 0.147852 0.000000
O O11 0.500000 0.337587 0.373305
O O12 0.386716 0.386716 0.372837
O O13 0.402890 0.260089 0.390418
O O14 0.421497 0.313203 0.243488
O O15 0.805033 0.332224 0.500000
O O16 0.718746 0.281255 0.394337
O O17 0.117638 0.117638 0.800383
O O18 0.166524 0.000000 0.793174
O O19 0.500000 0.076154 0.140282
O O20 0.600786 0.000000 0.127440
O O21 0.567113 0.075261 0.000000
O O22 0.500000 0.334357 0.886366
O O23 0.618309 0.381692 0.887936
#
# Coordination Sequence:
#
# PCOD8312723 Si02
#       8
#    16  16   8  16  16  16  16  16
#     4  11  21  31  48  72  98 131 166 204 253 305
#     4  10  20  33  48  70  99 127 160 202 246 294
#     4   8  14  25  40  62  94 134 175 207 238 278
#     4   9  17  30  48  71  99 129 162 204 254 308
#     4   9  17  32  53  72  92 122 159 200 247 296
#     4   9  18  31  48  71 102 139 176 213 250 292
#     4   8  15  29  46  64  89 120 155 194 236 286
#     4  10  20  34  50  69  97 131 172 220 265 313
#
# _framework density 17.752770999999999
#
# number of rings (size 3 to 8) (size 9 to 14) (size 15 to 20)
#    0.000    2.667    1.333    1.200    0.933    3.133 
#    0.000    2.667    0.000    0.400    0.000    2.800 
#    0.000    0.000    0.000    7.867    0.000    0.400 
#
# Total GULP energy -1486572.043012 kJ/mol
# GULP energy per Si atom -12388.100358 kJ/mol
# Density = 1.771237 g / cm^3
# Si number density = 17.752771 Si / 1000 Ang^3
#
#
#
# Elastic Constant Matrix: (Units=GPa)
#
#
# Indices 1 2 3 4 5 6 
#
# 1 88.9426 44.8328 33.7748 0.0000 0.0000 0.0000
# 2 44.8328 88.9428 33.7748 0.0000 0.0000 0.0000
# 3 33.7748 33.7748 82.4300 0.0000 0.0000 0.0000
# 4 0.0000 0.0000 0.0000 13.7404 0.0000 0.0000
# 5 0.0000 0.0000 0.0000 0.0000 13.7401 0.0000
# 6 0.0000 0.0000 0.0000 0.0000 0.0000 -193.2917
#
#
#
# Elastic Compliance Matrix: (Units=1/GPa)
#
#
# Indices 1 2 3 4 5 6 
#
# 1 0.016048 -0.006623 -0.003862 0.000000 0.000000 0.000000
# 2 -0.006623 0.016048 -0.003862 0.000000 0.000000 0.000000
# 3 -0.003862 -0.003862 0.015296 0.000000 0.000000 0.000000
# 4 0.000000 0.000000 0.000000 0.072778 0.000000 0.000000
# 5 0.000000 0.000000 0.000000 0.000000 0.072780 0.000000
# 6 0.000000 0.000000 0.000000 0.000000 0.000000 -0.005174
#
#
# Mechanical properties :
#
#
# Convention : Reuss Voigt Hill
#
# Bulk Modulus (GPa) = 53.47827 53.89779 53.68803
# Shear Modulus (GPa) = 22.45152 -23.30001 -0.42425
#
# Velocity S-wave (km/s) = 3.56009 -3.62674 -0.48938
# Velocity P-wave (km/s) = 6.86209 3.59006 5.47617
#
# Compressibility (1/GPa) = 0.01869918
#
# Stress axis : x y z
#
# Youngs Moduli (GPa) = 62.31313 62.31331 65.37555
#
# Poissons Ratio (x) = 0.41268 0.25247
# Poissons Ratio (y) = 0.41268 0.25247
# Poissons Ratio (z) = 0.24065 0.24065
#
# Static dielectric constant tensor:
#      x y z
#    x 3.327310 0.000000 0.000000 
#    y 0.000000 3.327310 0.000000 
#    z 0.000000 0.000000 3.214520 
# 
# 
# High freq. dielectric constant tensor:
#      x y z
#    x 1.675200 0.000000 0.000000 
#    y 0.000000 1.675200 0.000000 
#    z 0.000000 0.000000 1.655910 
# 
# From -- ./inp_files/4610.got.cif
#   From: 2010.03.12/outbox.cif.g09.slc.cpg/sg123_3_cif.got.tgz:4610.got - 2010.04.06 16:26:55.
