data_PCOD8312662
_publ_section_title
;
Structure prediction by ZEFSAII (Michael W. Deem and Ramdas Pophale) SiO2 
 PCOD8312662
Probable space group: P 4/M M M
;
_chemical_formula_sum "Si O2"
_cell_formula_units_Z 120
_cell_length_a 27.911874
_cell_length_b 27.911874
_cell_length_c 8.174806
_cell_angle_alpha 90.000000
_cell_angle_beta 90.000000
_cell_angle_gamma 90.000000
_cell_volume 6368.768266
_symmetry_space_group_name_H-M "P 4/M M M"
_symmetry_group_IT_number 123
_symmetry_cell_setting 'tetragonal'
loop_
_space_group_symop_operation_xyz
x,y,z
-y,x,z
-x,-y,z
y,-x,z
x,-y,-z
-x,y,-z
y,x,-z
-y,-x,-z
-x,-y,-z
y,-x,-z
x,y,-z
-y,x,-z
-x,y,z
x,-y,z
-y,-x,z
y,x,z
loop_
_atom_site_type_symbol
_atom_site_label
_atom_site_fract_x
_atom_site_fract_y
_atom_site_fract_z
Si Si1 0.111539 0.277181 0.811910
Si Si2 0.125533 0.444001 0.190580
Si Si3 0.708897 0.634961 0.686001
Si Si4 0.768361 0.552038 0.809524
Si Si5 0.097566 0.824587 0.684188
Si Si6 0.054614 0.365278 0.688676
Si Si7 0.218647 0.706257 0.814425
Si Si8 0.053861 0.868215 0.000000
O O1 0.102270 0.232456 0.694319
O O2 0.073582 0.319564 0.788870
O O3 0.163724 0.296428 0.763236
O O4 0.110746 0.259747 0.000000
O O5 0.115609 0.500000 0.225824
O O6 0.179332 0.430116 0.254780
O O7 0.086329 0.412558 0.284064
O O8 0.120258 0.432087 0.000000
O O9 0.698586 0.621835 0.500000
O O10 0.661362 0.661362 0.761364
O O11 0.723367 0.586398 0.776398
O O12 0.753280 0.671204 0.694266
O O13 0.756458 0.500000 0.731708
O O14 0.775052 0.545637 0.000000
O O15 0.077738 0.836539 0.500000
O O16 0.148608 0.851393 0.710096
O O17 0.062341 0.839190 0.831541
O O18 0.056651 0.351108 0.500000
O O19 0.000000 0.375862 0.744408
O O20 0.239697 0.760304 0.798278
O O21 0.225630 0.687329 0.000000
O O22 0.084154 0.915847 0.000000
O O23 0.000000 0.885478 0.000000
#
# Coordination Sequence:
#
# PCOD8312662 Si02
#       8
#    16  16  16  16  16  16  16   8
#     4  11  21  35  56  79 106 141 181 224 268 317
#     4   9  19  37  59  79  98 125 167 222 281 334
#     4  10  20  31  44  69 106 142 174 209 251 303
#     4   9  18  33  53  76 100 128 167 213 258 307
#     4  10  21  38  61  88 118 151 185 222 266 320
#     4  11  25  40  51  70 102 136 174 222 274 330
#     4   9  18  31  49  73 101 134 169 207 253 306
#     4  10  22  41  64  90 118 146 179 219 263 315
#
# _framework density 18.841947000000001
#
# number of rings (size 3 to 8) (size 9 to 14) (size 15 to 20)
#    0.000    2.133    0.667    3.200    0.000    8.867 
#    0.000    4.000    0.000    0.000    0.000    1.867 
#    0.000    0.267    0.000    2.933    0.000    2.133 
#
# Total GULP energy -1487357.264612 kJ/mol
# GULP energy per Si atom -12394.643872 kJ/mol
# Density = 1.879906 g / cm^3
# Si number density = 18.841947 Si / 1000 Ang^3
#
#
#
# Elastic Constant Matrix: (Units=GPa)
#
#
# Indices 1 2 3 4 5 6 
#
# 1 106.8128 53.9131 21.3625 0.0000 0.0000 0.0000
# 2 53.9131 106.8127 21.3625 0.0000 0.0000 0.0000
# 3 21.3625 21.3625 64.2164 0.0000 0.0000 0.0000
# 4 0.0000 0.0000 0.0000 20.2477 0.0000 0.0000
# 5 0.0000 0.0000 0.0000 0.0000 20.2478 0.0000
# 6 0.0000 0.0000 0.0000 0.0000 0.0000 23.1326
#
#
#
# Elastic Compliance Matrix: (Units=1/GPa)
#
#
# Indices 1 2 3 4 5 6 
#
# 1 0.012865 -0.006039 -0.002271 0.000000 0.000000 0.000000
# 2 -0.006039 0.012865 -0.002271 0.000000 0.000000 0.000000
# 3 -0.002271 -0.002271 0.017083 0.000000 0.000000 0.000000
# 4 0.000000 0.000000 0.000000 0.049388 0.000000 0.000000
# 5 0.000000 0.000000 0.000000 0.000000 0.049388 0.000000
# 6 0.000000 0.000000 0.000000 0.000000 0.000000 0.043229
#
#
# Mechanical properties :
#
#
# Convention : Reuss Voigt Hill
#
# Bulk Modulus (GPa) = 46.18617 52.34645 49.26631
# Shear Modulus (GPa) = 23.45266 24.80585 24.12926
#
# Velocity S-wave (km/s) = 3.53186 3.63233 3.58245
# Velocity P-wave (km/s) = 6.41855 6.74047 6.58148
#
# Compressibility (1/GPa) = 0.02165151
#
# Stress axis : x y z
#
# Youngs Moduli (GPa) = 77.73322 77.73311 58.53764
#
# Poissons Ratio (x) = 0.46944 0.13291
# Poissons Ratio (y) = 0.46944 0.13291
# Poissons Ratio (z) = 0.17650 0.17650
#
# Static dielectric constant tensor:
#      x y z
#    x 3.397090 0.000000 0.000000 
#    y 0.000000 3.397090 0.000000 
#    z 0.000000 0.000000 3.407860 
# 
# 
# High freq. dielectric constant tensor:
#      x y z
#    x 1.717820 0.000000 0.000000 
#    y 0.000000 1.717820 0.000000 
#    z 0.000000 0.000000 1.730920 
# 
# From -- ./inp_files/2064.got.cif
#   From: 2010.03.12/outbox.cif.g09.slc.cpg/sg123_2_cif.got.tgz:2064.got - 2010.04.06 16:26:55.
