data_PCOD8312605
_publ_section_title
;
Structure prediction by ZEFSAII (Michael W. Deem and Ramdas Pophale) SiO2 
 PCOD8312605
Probable space group: P 4/M M M
;
_chemical_formula_sum "Si O2"
_cell_formula_units_Z 112
_cell_length_a 18.276296
_cell_length_b 18.276296
_cell_length_c 18.790364
_cell_angle_alpha 90.000000
_cell_angle_beta 90.000000
_cell_angle_gamma 90.000000
_cell_volume 6276.413669
_symmetry_space_group_name_H-M "P 4/M M M"
_symmetry_group_IT_number 123
_symmetry_cell_setting 'tetragonal'
loop_
_space_group_symop_operation_xyz
x,y,z
-y,x,z
-x,-y,z
y,-x,z
x,-y,-z
-x,y,-z
y,x,-z
-y,-x,-z
-x,-y,-z
y,-x,-z
x,y,-z
-y,x,-z
-x,y,z
x,-y,z
-y,-x,z
y,x,z
loop_
_atom_site_type_symbol
_atom_site_label
_atom_site_fract_x
_atom_site_fract_y
_atom_site_fract_z
Si Si1 0.584507 0.701873 0.183362
Si Si2 0.698952 0.818428 0.178843
Si Si3 0.202406 0.084234 0.083364
Si Si4 0.083665 0.321523 0.686859
Si Si5 0.153039 0.414049 0.420975
Si Si6 0.083822 0.800455 0.420544
Si Si7 0.699164 0.417298 0.648795
O O1 0.500000 0.699891 0.155838
O O2 0.625237 0.625237 0.163125
O O3 0.629647 0.770709 0.149578
O O4 0.587444 0.714210 0.267454
O O5 0.762615 0.762615 0.203354
O O6 0.729275 0.873889 0.119130
O O7 0.671310 0.866306 0.244474
O O8 0.126270 0.126270 0.101424
O O9 0.196195 0.000000 0.110591
O O10 0.218108 0.085821 0.000000
O O11 0.090343 0.391587 0.635122
O O12 0.113177 0.255305 0.638329
O O13 0.000000 0.312105 0.711177
O O14 0.137633 0.382317 0.500000
O O15 0.154272 0.500000 0.423467
O O16 0.230995 0.384855 0.392403
O O17 0.097827 0.768774 0.500000
O O18 0.123072 0.876929 0.409021
O O19 0.000000 0.817242 0.407225
O O20 0.682486 0.500000 0.625505
O O21 0.629310 0.370690 0.625791
#
# Coordination Sequence:
#
# PCOD8312605 Si02
#       7
#    16  16  16  16  16  16  16
#     4   9  17  30  50  75 103 133 166 206 250 299
#     4  10  19  32  52  76 104 136 168 204 249 303
#     4   9  18  33  54  81 112 145 180 217 258 305
#     4  11  21  32  48  68  90 118 156 202 249 294
#     4  10  21  35  48  63  88 123 162 205 252 301
#     4   9  18  31  45  62  84 110 143 185 232 282
#     4   9  17  30  47  68  94 122 155 197 244 297
#
# _framework density 17.844586
#
# number of rings (size 3 to 8) (size 9 to 14) (size 15 to 20)
#    0.000    2.429    1.429    1.286    0.000    2.571 
#    0.000    3.571    0.000    1.714    0.000    5.000 
#    0.000    0.000    0.000    5.571    0.000    0.143 
#
# Total GULP energy -1388211.450526 kJ/mol
# GULP energy per Si atom -12394.745094 kJ/mol
# Density = 1.780397 g / cm^3
# Si number density = 17.844586 Si / 1000 Ang^3
#
#
#
# Elastic Constant Matrix: (Units=GPa)
#
#
# Indices 1 2 3 4 5 6 
#
# 1 94.8689 55.7182 27.5373 0.0000 0.0000 0.0000
# 2 55.7182 94.8689 27.5373 0.0000 0.0000 0.0000
# 3 27.5373 27.5373 39.4033 0.0000 0.0000 0.0000
# 4 0.0000 0.0000 0.0000 21.6760 0.0000 0.0000
# 5 0.0000 0.0000 0.0000 0.0000 21.6760 0.0000
# 6 0.0000 0.0000 0.0000 0.0000 0.0000 28.1425
#
#
#
# Elastic Compliance Matrix: (Units=1/GPa)
#
#
# Indices 1 2 3 4 5 6 
#
# 1 0.017232 -0.008311 -0.006234 0.000000 0.000000 0.000000
# 2 -0.008311 0.017232 -0.006234 0.000000 0.000000 0.000000
# 3 -0.006234 -0.006234 0.034092 0.000000 0.000000 0.000000
# 4 0.000000 0.000000 0.000000 0.046134 0.000000 0.000000
# 5 0.000000 0.000000 0.000000 0.000000 0.046134 0.000000
# 6 0.000000 0.000000 0.000000 0.000000 0.000000 0.035533
#
#
# Mechanical properties :
#
#
# Convention : Reuss Voigt Hill
#
# Bulk Modulus (GPa) = 37.04172 50.08076 43.56124
# Shear Modulus (GPa) = 20.24990 22.18879 21.21935
#
# Velocity S-wave (km/s) = 3.37232 3.53008 3.45210
# Velocity P-wave (km/s) = 5.99720 6.68888 6.35246
#
# Compressibility (1/GPa) = 0.02699659
#
# Stress axis : x y z
#
# Youngs Moduli (GPa) = 58.03308 58.03308 29.33200
#
# Poissons Ratio (x) = 0.48230 0.18287
# Poissons Ratio (y) = 0.48230 0.18287
# Poissons Ratio (z) = 0.36180 0.36180
#
# Static dielectric constant tensor:
#      x y z
#    x 3.422080 0.000000 0.000000 
#    y 0.000000 3.422080 0.000000 
#    z 0.000000 0.000000 3.130020 
# 
# 
# High freq. dielectric constant tensor:
#      x y z
#    x 1.691370 0.000000 0.000000 
#    y 0.000000 1.691370 0.000000 
#    z 0.000000 0.000000 1.660610 
# 
# From -- ./inp_files/6722.got.cif
#   From: 2010.03.12/outbox.cif.g09.slc.cpg/sg123_4_cif.got.tgz:6722.got - 2010.04.06 16:26:55.
