data_PCOD8312999
_publ_section_title
;
Structure prediction by ZEFSAII (Michael W. Deem and Ramdas Pophale) SiO2 
 PCOD8312999
Probable space group: P 4/M M M
;
_chemical_formula_sum "Si O2"
_cell_formula_units_Z 56
_cell_length_a 14.296833
_cell_length_b 14.296833
_cell_length_c 18.150013
_cell_angle_alpha 90.000000
_cell_angle_beta 90.000000
_cell_angle_gamma 90.000000
_cell_volume 3709.852381
_symmetry_space_group_name_H-M "P 4/M M M"
_symmetry_group_IT_number 123
_symmetry_cell_setting 'tetragonal'
loop_
_space_group_symop_operation_xyz
x,y,z
-y,x,z
-x,-y,z
y,-x,z
x,-y,-z
-x,y,-z
y,x,-z
-y,-x,-z
-x,-y,-z
y,-x,-z
x,y,-z
-y,x,-z
-x,y,z
x,-y,z
-y,-x,z
y,x,z
loop_
_atom_site_type_symbol
_atom_site_label
_atom_site_fract_x
_atom_site_fract_y
_atom_site_fract_z
Si Si1 0.240674 0.392472 0.583742
Si Si2 0.610742 0.896091 0.289843
Si Si3 0.754809 0.394655 0.000000
Si Si4 0.390432 0.763809 0.840115
O O1 0.205601 0.379306 0.500000
O O2 0.266155 0.500000 0.600593
O O3 0.334234 0.334234 0.599473
O O4 0.157993 0.356344 0.636686
O O5 0.500000 0.904420 0.288725
O O6 0.645654 0.841012 0.217518
O O7 0.655462 0.000000 0.290070
O O8 0.808418 0.373316 0.922631
O O9 0.721910 0.500000 0.000000
O O10 0.658092 0.341909 0.000000
O O11 0.500000 0.739989 0.827102
O O12 0.331268 0.668733 0.829137
#
# Coordination Sequence:
#
# PCOD8312999 Si02
#       4
#    16  16   8  16
#     4   9  17  28  42  61  84 108 133 161 193 231
#     4   9  17  28  40  54  75 105 139 171 199 226
#     4   8  14  23  35  53  77 105 134 162 193 229
#     4   9  16  26  40  58  81 107 134 164 197 234
#
# _framework density 15.094941
#
# number of rings (size 3 to 8) (size 9 to 14) (size 15 to 20)
#    0.000    3.143    0.000    0.857    0.000    1.286 
#    0.000    7.857    0.000    9.429    0.000    0.000 
#    0.000    9.143    0.000   12.571    0.000   33.143 
#
# Total GULP energy -693767.890544 kJ/mol
# GULP energy per Si atom -12388.712331 kJ/mol
# Density = 1.506058 g / cm^3
# Si number density = 15.094941 Si / 1000 Ang^3
#
#
#
# Elastic Constant Matrix: (Units=GPa)
#
#
# Indices 1 2 3 4 5 6 
#
# 1 66.7229 32.1950 54.0788 0.0000 0.0000 0.0000
# 2 32.1950 66.7229 54.0786 0.0000 0.0000 0.0000
# 3 54.0788 54.0786 143.8994 0.0000 0.0000 0.0000
# 4 0.0000 0.0000 0.0000 17.5141 0.0000 0.0000
# 5 0.0000 0.0000 0.0000 0.0000 17.5142 0.0000
# 6 0.0000 0.0000 0.0000 0.0000 0.0000 3.8128
#
#
#
# Elastic Compliance Matrix: (Units=1/GPa)
#
#
# Indices 1 2 3 4 5 6 
#
# 1 0.023062 -0.005900 -0.006449 0.000000 0.000000 0.000000
# 2 -0.005900 0.023062 -0.006449 0.000000 0.000000 0.000000
# 3 -0.006449 -0.006449 0.011797 0.000000 0.000000 0.000000
# 4 0.000000 0.000000 0.000000 0.057097 0.000000 0.000000
# 5 0.000000 0.000000 0.000000 0.000000 0.057097 0.000000
# 6 0.000000 0.000000 0.000000 0.000000 0.000000 0.262278
#
#
# Mechanical properties :
#
#
# Convention : Reuss Voigt Hill
#
# Bulk Modulus (GPa) = 49.20847 62.00557 55.60702
# Shear Modulus (GPa) = 10.44358 16.90106 13.67232
#
# Velocity S-wave (km/s) = 2.63318 3.34975 3.01284
# Velocity P-wave (km/s) = 6.47417 7.49182 7.00151
#
# Compressibility (1/GPa) = 0.02032170
#
# Stress axis : x y z
#
# Youngs Moduli (GPa) = 43.36214 43.36221 84.76948
#
# Poissons Ratio (x) = 0.25586 0.54670
# Poissons Ratio (y) = 0.25586 0.54670
# Poissons Ratio (z) = 0.27966 0.27965
#
# Static dielectric constant tensor:
#      x y z
#    x 2.719380 0.000000 0.000000 
#    y 0.000000 2.719380 0.000000 
#    z 0.000000 0.000000 3.417370 
# 
# 
# High freq. dielectric constant tensor:
#      x y z
#    x 1.539930 0.000000 0.000000 
#    y 0.000000 1.539930 0.000000 
#    z 0.000000 0.000000 1.607390 
# 
# From -- ./inp_files/4852.got.cif
#   From: 2010.03.12/outbox.cif.g09.slc.cpg/sg123_3_cif.got.tgz:4852.got - 2010.04.06 16:26:55.
