data_PCOD8312372
_publ_section_title
;
Structure prediction by ZEFSAII (Michael W. Deem and Ramdas Pophale) SiO2 
 PCOD8312372
Probable space group: P 4/M M M
;
_chemical_formula_sum "Si O2"
_cell_formula_units_Z 96
_cell_length_a 15.544240
_cell_length_b 15.544240
_cell_length_c 22.335232
_cell_angle_alpha 90.000000
_cell_angle_beta 90.000000
_cell_angle_gamma 90.000000
_cell_volume 5396.714633
_symmetry_space_group_name_H-M "P 4/M M M"
_symmetry_group_IT_number 123
_symmetry_cell_setting 'tetragonal'
loop_
_space_group_symop_operation_xyz
x,y,z
-y,x,z
-x,-y,z
y,-x,z
x,-y,-z
-x,y,-z
y,x,-z
-y,-x,-z
-x,-y,-z
y,-x,-z
x,y,-z
-y,x,-z
-x,y,z
x,-y,z
-y,-x,z
y,x,z
loop_
_atom_site_type_symbol
_atom_site_label
_atom_site_fract_x
_atom_site_fract_y
_atom_site_fract_z
Si Si1 0.594124 0.725106 0.176565
Si Si2 0.156810 0.595803 0.931392
Si Si3 0.598176 0.095491 0.352999
Si Si4 0.261810 0.598385 0.570123
Si Si5 0.906863 0.234583 0.124237
Si Si6 0.848112 0.714750 0.249133
O O1 0.500000 0.724604 0.203753
O O2 0.628277 0.628277 0.176155
O O3 0.599096 0.757705 0.108431
O O4 0.648191 0.782333 0.221019
O O5 0.113227 0.500000 0.923407
O O6 0.096377 0.673867 0.910070
O O7 0.183042 0.610463 0.000000
O O8 0.500000 0.108168 0.330031
O O9 0.622227 0.170862 0.399421
O O10 0.665415 0.096419 0.298393
O O11 0.607068 0.000000 0.382671
O O12 0.247194 0.610249 0.500000
O O13 0.289259 0.500000 0.585053
O O14 0.337393 0.662608 0.593050
O O15 0.829717 0.170283 0.104370
O O16 0.907091 0.249566 0.195614
O O17 0.000000 0.193651 0.108277
O O18 0.794224 0.794224 0.277961
#
# Coordination Sequence:
#
# PCOD8312372 Si02
#       6
#    16  16  16  16  16  16
#     4   9  17  28  43  64  90 121 155 192 235 281
#     4   9  18  33  52  71  90 115 150 192 236 280
#     4  10  19  29  45  70  98 128 158 191 237 288
#     4   9  18  32  49  70  97 129 165 202 236 272
#     4  10  21  35  51  72  97 125 156 191 232 279
#     4   9  17  31  49  66  88 119 156 197 235 273
#
# _framework density 17.788599000000001
#
# number of rings (size 3 to 8) (size 9 to 14) (size 15 to 20)
#    0.000    2.667    0.000    3.000    0.000    3.500 
#    0.000    3.333    0.000    0.000    0.000    5.833 
#    0.000    3.000    0.000    7.333    0.000    0.333 
#
# Total GULP energy -1189421.533756 kJ/mol
# GULP energy per Si atom -12389.807643 kJ/mol
# Density = 1.774811 g / cm^3
# Si number density = 17.788599 Si / 1000 Ang^3
#
#
#
# Elastic Constant Matrix: (Units=GPa)
#
#
# Indices 1 2 3 4 5 6 
#
# 1 91.3782 64.4425 23.1150 0.0000 0.0000 0.0000
# 2 64.4425 91.3782 23.1150 0.0000 0.0000 0.0000
# 3 23.1150 23.1150 44.0609 0.0000 0.0000 0.0000
# 4 0.0000 0.0000 0.0000 7.1874 0.0000 0.0000
# 5 0.0000 0.0000 0.0000 0.0000 7.1874 0.0000
# 6 0.0000 0.0000 0.0000 0.0000 0.0000 25.7387
#
#
#
# Elastic Compliance Matrix: (Units=1/GPa)
#
#
# Indices 1 2 3 4 5 6 
#
# 1 0.022363 -0.014762 -0.003987 0.000000 0.000000 0.000000
# 2 -0.014762 0.022363 -0.003987 0.000000 0.000000 0.000000
# 3 -0.003987 -0.003987 0.026880 0.000000 0.000000 0.000000
# 4 0.000000 0.000000 0.000000 0.139132 0.000000 0.000000
# 5 0.000000 0.000000 0.000000 0.000000 0.139132 0.000000
# 6 0.000000 0.000000 0.000000 0.000000 0.000000 0.038852
#
#
# Mechanical properties :
#
#
# Convention : Reuss Voigt Hill
#
# Bulk Modulus (GPa) = 38.26837 49.79579 44.03208
# Shear Modulus (GPa) = 11.28906 15.76569 13.52738
#
# Velocity S-wave (km/s) = 2.52191 2.98028 2.76062
# Velocity P-wave (km/s) = 5.48084 6.31637 5.91338
#
# Compressibility (1/GPa) = 0.02613124
#
# Stress axis : x y z
#
# Youngs Moduli (GPa) = 44.71651 44.71651 37.20297
#
# Poissons Ratio (x) = 0.66013 0.14834
# Poissons Ratio (y) = 0.66013 0.14834
# Poissons Ratio (z) = 0.17830 0.17830
#
# Static dielectric constant tensor:
#      x y z
#    x 3.355040 0.000000 0.000000 
#    y 0.000000 3.355040 0.000000 
#    z 0.000000 0.000000 3.152580 
# 
# 
# High freq. dielectric constant tensor:
#      x y z
#    x 1.683000 0.000000 0.000000 
#    y 0.000000 1.683000 0.000000 
#    z 0.000000 0.000000 1.668900 
# 
# From -- ./inp_files/6460.got.cif
#   From: 2010.03.12/outbox.cif.g09.slc.cpg/sg123_4_cif.got.tgz:6460.got - 2010.04.06 16:26:55.
