data_PCOD8312923
_publ_section_title
;
Structure prediction by ZEFSAII (Michael W. Deem and Ramdas Pophale) SiO2 
 PCOD8312923
Probable space group: P 4/M M M
;
_chemical_formula_sum "Si O2"
_cell_formula_units_Z 72
_cell_length_a 20.411000
_cell_length_b 20.411000
_cell_length_c 8.746865
_cell_angle_alpha 90.000000
_cell_angle_beta 90.000000
_cell_angle_gamma 90.000000
_cell_volume 3644.021990
_symmetry_space_group_name_H-M "P 4/M M M"
_symmetry_group_IT_number 123
_symmetry_cell_setting 'tetragonal'
loop_
_space_group_symop_operation_xyz
x,y,z
-y,x,z
-x,-y,z
y,-x,z
x,-y,-z
-x,y,-z
y,x,-z
-y,-x,-z
-x,-y,-z
y,-x,-z
x,y,-z
-y,x,-z
-x,y,z
x,-y,z
-y,-x,z
y,x,z
loop_
_atom_site_type_symbol
_atom_site_label
_atom_site_fract_x
_atom_site_fract_y
_atom_site_fract_z
Si Si1 0.679224 0.573034 0.323181
Si Si2 0.076992 0.500000 0.318444
Si Si3 0.073603 0.178862 0.825582
Si Si4 0.272935 0.163954 0.671227
Si Si5 0.819387 0.404945 0.177437
O O1 0.693286 0.588629 0.500000
O O2 0.648582 0.500000 0.303707
O O3 0.627220 0.627220 0.258805
O O4 0.748792 0.572555 0.238465
O O5 0.077743 0.500000 0.500000
O O6 0.117678 0.562577 0.258989
O O7 0.000000 0.500000 0.262161
O O8 0.112679 0.112679 0.795075
O O9 0.097371 0.235869 0.713210
O O10 0.000000 0.162058 0.783085
O O11 0.081847 0.202935 0.000000
O O12 0.301779 0.158085 0.500000
O O13 0.224997 0.224997 0.684845
O O14 0.328212 0.175283 0.795833
O O15 0.822948 0.422506 0.000000
#
# Coordination Sequence:
#
# PCOD8312923 Si02
#       5
#    16   8  16  16  16
#     4  10  21  38  62  91 126 169 213 256 302 357
#     4  11  25  45  67  89 116 153 196 243 295 356
#     4   9  18  33  53  79 112 148 188 237 293 353
#     4  10  21  37  58  83 112 150 196 243 290 343
#     4  12  24  39  62  90 121 157 196 244 302 360
#
# _framework density 19.758389000000001
#
# number of rings (size 3 to 8) (size 9 to 14) (size 15 to 20)
#    0.000    1.667    1.111    3.667    0.000    7.111 
#    0.000    2.222    0.000    0.000    0.000    4.667 
#    0.000    0.000    0.000    0.000    0.000    0.000 
#
# Total GULP energy -892589.144234 kJ/mol
# GULP energy per Si atom -12397.071448 kJ/mol
# Density = 1.971342 g / cm^3
# Si number density = 19.758389 Si / 1000 Ang^3
#
#
#
# Elastic Constant Matrix: (Units=GPa)
#
#
# Indices 1 2 3 4 5 6 
#
# 1 123.2475 38.8393 42.3054 0.0000 0.0000 0.0000
# 2 38.8393 123.2475 42.3054 0.0000 0.0000 0.0000
# 3 42.3054 42.3054 81.7156 0.0000 0.0000 0.0000
# 4 0.0000 0.0000 0.0000 -2.3567 0.0000 0.0000
# 5 0.0000 0.0000 0.0000 0.0000 -2.3567 0.0000
# 6 0.0000 0.0000 0.0000 0.0000 0.0000 -19.1184
#
#
#
# Elastic Compliance Matrix: (Units=1/GPa)
#
#
# Indices 1 2 3 4 5 6 
#
# 1 0.010151 -0.001696 -0.004377 0.000000 0.000000 0.000000
# 2 -0.001696 0.010151 -0.004377 0.000000 0.000000 0.000000
# 3 -0.004377 -0.004377 0.016770 0.000000 0.000000 0.000000
# 4 0.000000 0.000000 0.000000 -0.424320 0.000000 0.000000
# 5 0.000000 0.000000 0.000000 0.000000 -0.424320 0.000000
# 6 0.000000 0.000000 0.000000 0.000000 0.000000 -0.052306
#
#
# Mechanical properties :
#
#
# Convention : Reuss Voigt Hill
#
# Bulk Modulus (GPa) = 61.84102 63.90122 62.87112
# Shear Modulus (GPa) = -5.96956 8.88433 1.45739
#
# Velocity S-wave (km/s) = -1.74007 2.12279 0.85977
# Velocity P-wave (km/s) = 5.22776 6.19837 5.73364
#
# Compressibility (1/GPa) = 0.01617050
#
# Stress axis : x y z
#
# Youngs Moduli (GPa) = 98.51478 98.51478 59.63174
#
# Poissons Ratio (x) = 0.16712 0.26100
# Poissons Ratio (y) = 0.16712 0.26100
# Poissons Ratio (z) = 0.43119 0.43119
#
# Static dielectric constant tensor:
#      x y z
#    x 3.239150 0.000000 0.000000 
#    y 0.000000 3.239150 0.000000 
#    z 0.000000 0.000000 3.705640 
# 
# 
# High freq. dielectric constant tensor:
#      x y z
#    x 1.774560 0.000000 0.000000 
#    y 0.000000 1.774560 0.000000 
#    z 0.000000 0.000000 1.766730 
# 
# From -- ./inp_files/1085.got.cif
#   From: 2010.03.12/outbox.cif.g09.slc.cpg/sg123_1_cif.got.tgz:1085.got - 2010.04.06 16:26:55.
