data_PCOD8312976
_publ_section_title
;
Structure prediction by ZEFSAII (Michael W. Deem and Ramdas Pophale) SiO2 
 PCOD8312976
Probable space group: P 4/M M M
;
_chemical_formula_sum "Si O2"
_cell_formula_units_Z 96
_cell_length_a 14.138100
_cell_length_b 14.138100
_cell_length_c 30.623253
_cell_angle_alpha 90.000000
_cell_angle_beta 90.000000
_cell_angle_gamma 90.000000
_cell_volume 6121.155617
_symmetry_space_group_name_H-M "P 4/M M M"
_symmetry_group_IT_number 123
_symmetry_cell_setting 'tetragonal'
loop_
_space_group_symop_operation_xyz
x,y,z
-y,x,z
-x,-y,z
y,-x,z
x,-y,-z
-x,y,-z
y,x,-z
-y,-x,-z
-x,-y,-z
y,-x,-z
x,y,-z
-y,x,-z
-x,y,z
x,-y,z
-y,-x,z
y,x,z
loop_
_atom_site_type_symbol
_atom_site_label
_atom_site_fract_x
_atom_site_fract_y
_atom_site_fract_z
Si Si1 0.260320 0.891961 0.705106
Si Si2 0.761190 0.608302 0.550911
Si Si3 0.110746 0.265993 0.140794
Si Si4 0.260996 0.892098 0.953800
Si Si5 0.887859 0.395357 0.780789
Si Si6 0.109190 0.736780 0.605168
O O1 0.165180 0.834821 0.714421
O O2 0.342846 0.854085 0.736756
O O3 0.294771 0.879625 0.655423
O O4 0.235104 0.000000 0.715853
O O5 0.784906 0.616121 0.500000
O O6 0.745271 0.500000 0.565203
O O7 0.665904 0.665904 0.562659
O O8 0.850582 0.651112 0.576397
O O9 0.168568 0.168568 0.145999
O O10 0.129049 0.313817 0.092421
O O11 0.148362 0.340365 0.176370
O O12 0.000000 0.242783 0.148154
O O13 0.164029 0.835971 0.954055
O O14 0.230133 0.000000 0.953673
O O15 0.317757 0.869646 0.000000
O O16 0.842573 0.500000 0.780871
O O17 0.000000 0.402882 0.781665
O O18 0.166414 0.833587 0.595681
O O19 0.000000 0.755024 0.592860
#
# Coordination Sequence:
#
# PCOD8312976 Si02
#       6
#    16  16  16  16  16  16
#     4   9  17  29  45  65  88 112 138 169 205 245
#     4   9  18  32  49  69  92 117 147 186 231 275
#     4   9  16  25  38  56  78 103 130 162 199 240
#     4   8  13  20  30  46  69  97 127 157 191 232
#     4   9  17  28  40  54  75 104 136 168 200 234
#     4   9  18  31  46  66  92 120 149 180 213 253
#
# _framework density 15.683313
#
# number of rings (size 3 to 8) (size 9 to 14) (size 15 to 20)
#    0.000    3.167    0.000    0.500    0.000    2.167 
#    0.000    7.500    0.000    3.500    0.000    5.833 
#    0.000    5.333    0.000    0.000    0.000    0.000 
#
# Total GULP energy -1189309.176735 kJ/mol
# GULP energy per Si atom -12388.637258 kJ/mol
# Density = 1.564762 g / cm^3
# Si number density = 15.683313 Si / 1000 Ang^3
#
#
#
# Elastic Constant Matrix: (Units=GPa)
#
#
# Indices 1 2 3 4 5 6 
#
# 1 82.3746 36.0844 50.9748 0.0000 0.0000 0.0000
# 2 36.0844 82.3746 50.9748 0.0000 0.0000 0.0000
# 3 50.9748 50.9748 95.4910 0.0000 0.0000 0.0000
# 4 0.0000 0.0000 0.0000 17.7230 0.0000 0.0000
# 5 0.0000 0.0000 0.0000 0.0000 17.7230 0.0000
# 6 0.0000 0.0000 0.0000 0.0000 0.0000 9.2744
#
#
#
# Elastic Compliance Matrix: (Units=1/GPa)
#
#
# Indices 1 2 3 4 5 6 
#
# 1 0.018609 -0.002993 -0.008336 0.000000 0.000000 0.000000
# 2 -0.002993 0.018609 -0.008336 0.000000 0.000000 0.000000
# 3 -0.008336 -0.008336 0.019372 0.000000 0.000000 0.000000
# 4 0.000000 0.000000 0.000000 0.056424 0.000000 0.000000
# 5 0.000000 0.000000 0.000000 0.000000 0.056424 0.000000
# 6 0.000000 0.000000 0.000000 0.000000 0.000000 0.107824
#
#
# Mechanical properties :
#
#
# Convention : Reuss Voigt Hill
#
# Bulk Modulus (GPa) = 57.93827 59.58981 58.76404
# Shear Modulus (GPa) = 15.51120 17.09115 16.30118
#
# Velocity S-wave (km/s) = 3.14829 3.30474 3.22746
# Velocity P-wave (km/s) = 7.08791 7.25534 7.17211
#
# Compressibility (1/GPa) = 0.01725975
#
# Stress axis : x y z
#
# Youngs Moduli (GPa) = 53.73610 53.73610 51.62043
#
# Poissons Ratio (x) = 0.16085 0.43032
# Poissons Ratio (y) = 0.16085 0.43032
# Poissons Ratio (z) = 0.44795 0.44795
#
# Static dielectric constant tensor:
#      x y z
#    x 2.822850 0.000000 0.000000 
#    y 0.000000 2.822850 0.000000 
#    z 0.000000 0.000000 3.466500 
# 
# 
# High freq. dielectric constant tensor:
#      x y z
#    x 1.571370 0.000000 0.000000 
#    y 0.000000 1.571370 0.000000 
#    z 0.000000 0.000000 1.625710 
# 
# From -- ./inp_files/8640.got.cif
#   From: 2010.03.12/outbox.cif.g09.slc.cpg/sg123_5_cif.got.tgz:8640.got - 2010.04.06 16:26:55.
