data_PCOD8312860
_publ_section_title
;
Structure prediction by ZEFSAII (Michael W. Deem and Ramdas Pophale) SiO2 
 PCOD8312860
Probable space group: P 4/M M M
;
_chemical_formula_sum "Si O2"
_cell_formula_units_Z 80
_cell_length_a 22.464501
_cell_length_b 22.464501
_cell_length_c 9.203598
_cell_angle_alpha 90.000000
_cell_angle_beta 90.000000
_cell_angle_gamma 90.000000
_cell_volume 4644.630752
_symmetry_space_group_name_H-M "P 4/M M M"
_symmetry_group_IT_number 123
_symmetry_cell_setting 'tetragonal'
loop_
_space_group_symop_operation_xyz
x,y,z
-y,x,z
-x,-y,z
y,-x,z
x,-y,-z
-x,y,-z
y,x,-z
-y,-x,-z
-x,-y,-z
y,-x,-z
x,y,-z
-y,x,-z
-x,y,z
x,-y,z
-y,-x,z
y,x,z
loop_
_atom_site_type_symbol
_atom_site_label
_atom_site_fract_x
_atom_site_fract_y
_atom_site_fract_z
Si Si1 0.066298 0.683040 0.332222
Si Si2 0.725283 0.178421 0.828587
Si Si3 0.597365 0.500000 0.840102
Si Si4 0.402094 0.221541 0.837667
Si Si5 0.433944 0.912168 0.836761
Si Si6 0.711033 0.500000 0.669102
O O1 0.085005 0.679599 0.500000
O O2 0.114209 0.724919 0.250351
O O3 0.063242 0.615907 0.271044
O O4 0.000000 0.710930 0.314295
O O5 0.783609 0.216392 0.783331
O O6 0.666250 0.215188 0.783452
O O7 0.724013 0.165806 0.000000
O O8 0.558508 0.558508 0.824676
O O9 0.642079 0.500000 0.706453
O O10 0.628635 0.500000 0.000000
O O11 0.434440 0.158628 0.835971
O O12 0.438580 0.263463 0.731687
O O13 0.403149 0.248851 0.000000
O O14 0.500000 0.933993 0.788433
O O15 0.419868 0.935025 0.000000
O O16 0.722903 0.500000 0.500000
#
# Coordination Sequence:
#
# PCOD8312860 Si02
#       6
#    16  16   8  16  16   8
#     4  10  21  34  48  72 106 139 169 204 250 304
#     4   9  19  36  57  78  99 129 173 219 257 296
#     4   9  20  40  60  70  78 103 145 189 238 299
#     4   9  17  32  50  69  97 130 165 203 244 291
#     4   9  17  31  50  69  92 128 174 215 249 286
#     4  12  23  31  47  76 103 125 152 193 246 302
#
# _framework density 17.224188999999999
#
# number of rings (size 3 to 8) (size 9 to 14) (size 15 to 20)
#    0.000    2.500    1.000    3.000    0.000    7.200 
#    0.000    4.500    0.000    0.000    0.000    0.000 
#    0.000    0.400    0.000    4.400    0.000    3.200 
#
# Total GULP energy -991611.605169 kJ/mol
# GULP energy per Si atom -12395.145065 kJ/mol
# Density = 1.718499 g / cm^3
# Si number density = 17.224189 Si / 1000 Ang^3
#
#
#
# Elastic Constant Matrix: (Units=GPa)
#
#
# Indices 1 2 3 4 5 6 
#
# 1 94.2639 47.4585 45.7288 0.0000 0.0000 0.0000
# 2 47.4585 94.2639 45.7288 0.0000 0.0000 0.0000
# 3 45.7288 45.7288 91.7706 0.0000 0.0000 0.0000
# 4 0.0000 0.0000 0.0000 57.8205 0.0000 0.0000
# 5 0.0000 0.0000 0.0000 0.0000 57.8205 0.0000
# 6 0.0000 0.0000 0.0000 0.0000 0.0000 0.5873
#
#
#
# Elastic Compliance Matrix: (Units=1/GPa)
#
#
# Indices 1 2 3 4 5 6 
#
# 1 0.015883 -0.005482 -0.005182 0.000000 0.000000 0.000000
# 2 -0.005482 0.015883 -0.005182 0.000000 0.000000 0.000000
# 3 -0.005182 -0.005182 0.016062 0.000000 0.000000 0.000000
# 4 0.000000 0.000000 0.000000 0.017295 0.000000 0.000000
# 5 0.000000 0.000000 0.000000 0.000000 0.017295 0.000000
# 6 0.000000 0.000000 0.000000 0.000000 0.000000 1.702749
#
#
# Mechanical properties :
#
#
# Convention : Reuss Voigt Hill
#
# Bulk Modulus (GPa) = 61.98665 62.01449 62.00057
# Shear Modulus (GPa) = 2.74388 32.67114 17.70751
#
# Velocity S-wave (km/s) = 1.26353 4.35997 3.20982
# Velocity P-wave (km/s) = 6.18020 7.83762 7.05773
#
# Compressibility (1/GPa) = 0.01613251
#
# Stress axis : x y z
#
# Youngs Moduli (GPa) = 62.96135 62.96135 62.26047
#
# Poissons Ratio (x) = 0.34517 0.32266
# Poissons Ratio (y) = 0.34517 0.32266
# Poissons Ratio (z) = 0.32630 0.32630
#
# Static dielectric constant tensor:
#      x y z
#    x 3.105860 0.000000 0.000000 
#    y 0.000000 3.105860 0.000000 
#    z 0.000000 0.000000 3.158960 
# 
# 
# High freq. dielectric constant tensor:
#      x y z
#    x 1.648680 0.000000 0.000000 
#    y 0.000000 1.648680 0.000000 
#    z 0.000000 0.000000 1.658590 
# 
# From -- ./inp_files/1510.got.cif
#   From: 2010.03.12/outbox.cif.g09.slc.cpg/sg123_1_cif.got.tgz:1510.got - 2010.04.06 16:26:55.
