data_PCOD8312450
_publ_section_title
;
Structure prediction by ZEFSAII (Michael W. Deem and Ramdas Pophale) SiO2 
 PCOD8312450
Probable space group: P 4/M M M
;
_chemical_formula_sum "Si O2"
_cell_formula_units_Z 96
_cell_length_a 13.704109
_cell_length_b 13.704109
_cell_length_c 30.684829
_cell_angle_alpha 90.000000
_cell_angle_beta 90.000000
_cell_angle_gamma 90.000000
_cell_volume 5762.690774
_symmetry_space_group_name_H-M "P 4/M M M"
_symmetry_group_IT_number 123
_symmetry_cell_setting 'tetragonal'
loop_
_space_group_symop_operation_xyz
x,y,z
-y,x,z
-x,-y,z
y,-x,z
x,-y,-z
-x,y,-z
y,x,-z
-y,-x,-z
-x,-y,-z
y,-x,-z
x,y,-z
-y,x,-z
-x,y,z
x,-y,z
-y,-x,z
y,x,z
loop_
_atom_site_type_symbol
_atom_site_label
_atom_site_fract_x
_atom_site_fract_y
_atom_site_fract_z
Si Si1 0.115678 0.607874 0.370446
Si Si2 0.611945 0.230237 0.050359
Si Si3 0.115242 0.728218 0.713016
Si Si4 0.112049 0.730401 0.451242
Si Si5 0.273321 0.885105 0.881734
Si Si6 0.609021 0.115470 0.797217
O O1 0.161546 0.500000 0.365665
O O2 0.151214 0.674906 0.330792
O O3 0.151209 0.651665 0.416582
O O4 0.000000 0.600198 0.369218
O O5 0.500000 0.246759 0.064040
O O6 0.669476 0.330525 0.060368
O O7 0.658118 0.141255 0.077414
O O8 0.620963 0.200583 0.000000
O O9 0.167182 0.832819 0.716144
O O10 0.149690 0.661141 0.753058
O O11 0.000000 0.747900 0.713657
O O12 0.126355 0.687185 0.500000
O O13 0.168953 0.831048 0.445351
O O14 0.000000 0.756287 0.441871
O O15 0.169788 0.830213 0.884860
O O16 0.328523 0.848752 0.838376
O O17 0.251953 0.000000 0.881608
O O18 0.500000 0.160885 0.799071
O O19 0.600972 0.000000 0.798083
#
# Coordination Sequence:
#
# PCOD8312450 Si02
#       6
#    16  16  16  16  16  16
#     4   9  17  29  44  61  83 113 148 186 227 264
#     4   9  18  32  50  73  99 126 158 197 242 291
#     4  10  19  30  45  66  93 123 153 184 219 264
#     4   9  17  28  42  62  89 119 148 177 210 254
#     4  10  20  33  49  70  97 128 162 199 237 280
#     4   9  17  30  48  68  90 118 152 189 229 270
#
# _framework density 16.658885000000001
#
# number of rings (size 3 to 8) (size 9 to 14) (size 15 to 20)
#    0.000    2.667    0.000    2.000    0.000    4.333 
#    0.000    4.167    0.000    6.000    0.000    2.333 
#    0.000   26.333    0.000    7.333    0.000    0.667 
#
# Total GULP energy -1190299.576872 kJ/mol
# GULP energy per Si atom -12398.953926 kJ/mol
# Density = 1.662097 g / cm^3
# Si number density = 16.658885 Si / 1000 Ang^3
#
#
#
# Elastic Constant Matrix: (Units=GPa)
#
#
# Indices 1 2 3 4 5 6 
#
# 1 86.6374 43.9708 48.0780 0.0000 0.0000 0.0000
# 2 43.9708 86.6374 48.0780 0.0000 0.0000 0.0000
# 3 48.0780 48.0780 114.4880 0.0000 0.0000 0.0000
# 4 0.0000 0.0000 0.0000 23.2497 0.0000 0.0000
# 5 0.0000 0.0000 0.0000 0.0000 23.2497 0.0000
# 6 0.0000 0.0000 0.0000 0.0000 0.0000 9.0116
#
#
#
# Elastic Compliance Matrix: (Units=1/GPa)
#
#
# Indices 1 2 3 4 5 6 
#
# 1 0.017260 -0.006177 -0.004654 0.000000 0.000000 0.000000
# 2 -0.006177 0.017260 -0.004654 0.000000 0.000000 0.000000
# 3 -0.004654 -0.004654 0.012643 0.000000 0.000000 0.000000
# 4 0.000000 0.000000 0.000000 0.043011 0.000000 0.000000
# 5 0.000000 0.000000 0.000000 0.000000 0.043011 0.000000
# 6 0.000000 0.000000 0.000000 0.000000 0.000000 0.110968
#
#
# Mechanical properties :
#
#
# Convention : Reuss Voigt Hill
#
# Bulk Modulus (GPa) = 61.75612 63.11293 62.43453
# Shear Modulus (GPa) = 17.82381 20.94459 19.38420
#
# Velocity S-wave (km/s) = 3.27452 3.54964 3.41485
# Velocity P-wave (km/s) = 7.17274 7.40051 7.28751
#
# Compressibility (1/GPa) = 0.01619273
#
# Stress axis : x y z
#
# Youngs Moduli (GPa) = 57.93653 57.93653 79.09203
#
# Poissons Ratio (x) = 0.35789 0.36811
# Poissons Ratio (y) = 0.35789 0.36811
# Poissons Ratio (z) = 0.26965 0.26965
#
# Static dielectric constant tensor:
#      x y z
#    x 2.988730 0.000000 0.000000 
#    y 0.000000 2.988730 0.000000 
#    z 0.000000 0.000000 3.415020 
# 
# 
# High freq. dielectric constant tensor:
#      x y z
#    x 1.620680 0.000000 0.000000 
#    y 0.000000 1.620680 0.000000 
#    z 0.000000 0.000000 1.661290 
# 
# From -- ./inp_files/8633.got.cif
#   From: 2010.03.12/outbox.cif.g09.slc.cpg/sg123_5_cif.got.tgz:8633.got - 2010.04.06 16:26:55.
