data_PCOD8312562
_publ_section_title
;
Structure prediction by ZEFSAII (Michael W. Deem and Ramdas Pophale) SiO2 
 PCOD8312562
Probable space group: P 4/M M M
;
_chemical_formula_sum "Si O2"
_cell_formula_units_Z 72
_cell_length_a 12.889295
_cell_length_b 12.889295
_cell_length_c 24.833106
_cell_angle_alpha 90.000000
_cell_angle_beta 90.000000
_cell_angle_gamma 90.000000
_cell_volume 4125.621385
_symmetry_space_group_name_H-M "P 4/M M M"
_symmetry_group_IT_number 123
_symmetry_cell_setting 'tetragonal'
loop_
_space_group_symop_operation_xyz
x,y,z
-y,x,z
-x,-y,z
y,-x,z
x,-y,-z
-x,y,-z
y,x,-z
-y,-x,-z
-x,-y,-z
y,-x,-z
x,y,-z
-y,x,-z
-x,y,z
x,-y,z
-y,-x,z
y,x,z
loop_
_atom_site_type_symbol
_atom_site_label
_atom_site_fract_x
_atom_site_fract_y
_atom_site_fract_z
Si Si1 0.716437 0.880740 0.558868
Si Si2 0.877252 0.387249 0.334717
Si Si3 0.377105 0.000000 0.939271
Si Si4 0.716869 0.877916 0.774624
Si Si5 0.206465 0.378649 0.123126
O O1 0.661792 0.864502 0.500000
O O2 0.828094 0.828094 0.558916
O O3 0.648773 0.832643 0.607368
O O4 0.738544 0.000000 0.570373
O O5 0.829368 0.500000 0.322725
O O6 0.846069 0.312052 0.286161
O O7 0.000000 0.395039 0.338485
O O8 0.338994 0.106292 0.910809
O O9 0.500000 0.000000 0.937871
O O10 0.333760 0.000000 0.000000
O O11 0.830853 0.830853 0.786384
O O12 0.633373 0.825207 0.814373
O O13 0.719554 0.000000 0.784222
O O14 0.233555 0.500000 0.111729
O O15 0.306492 0.306492 0.108599
#
# Coordination Sequence:
#
# PCOD8312562 Si02
#       5
#    16  16   8  16  16
#     4   9  17  28  41  59  85 116 150 189 234 286
#     4   9  17  28  43  62  85 117 156 197 240 288
#     4   9  18  34  56  79 105 139 178 217 256 305
#     4  10  19  31  49  73 101 133 168 207 252 303
#     4  10  20  34  54  80 109 142 179 220 264 309
#
# _framework density 17.451916000000001
#
# number of rings (size 3 to 8) (size 9 to 14) (size 15 to 20)
#    0.000    2.556    1.111    1.333    0.000    2.444 
#    0.000    3.333    0.000    4.333    0.000    3.889 
#    0.000    4.000    0.000    9.778    0.000    0.889 
#
# Total GULP energy -892133.917002 kJ/mol
# GULP energy per Si atom -12390.748847 kJ/mol
# Density = 1.741220 g / cm^3
# Si number density = 17.451916 Si / 1000 Ang^3
#
#
#
# Elastic Constant Matrix: (Units=GPa)
#
#
# Indices 1 2 3 4 5 6 
#
# 1 78.2816 47.3796 28.6021 0.0000 0.0000 0.0000
# 2 47.3796 78.2816 28.6021 0.0000 0.0000 0.0000
# 3 28.6021 28.6021 109.7809 0.0000 0.0000 0.0000
# 4 0.0000 0.0000 0.0000 19.7117 0.0000 0.0000
# 5 0.0000 0.0000 0.0000 0.0000 19.7117 0.0000
# 6 0.0000 0.0000 0.0000 0.0000 0.0000 17.3383
#
#
#
# Elastic Compliance Matrix: (Units=1/GPa)
#
#
# Indices 1 2 3 4 5 6 
#
# 1 0.020695 -0.011666 -0.002352 0.000000 0.000000 0.000000
# 2 -0.011666 0.020695 -0.002352 0.000000 0.000000 0.000000
# 3 -0.002352 -0.002352 0.010335 0.000000 0.000000 0.000000
# 4 0.000000 0.000000 0.000000 0.050731 0.000000 0.000000
# 5 0.000000 0.000000 0.000000 0.000000 0.050731 0.000000
# 6 0.000000 0.000000 0.000000 0.000000 0.000000 0.057676
#
#
# Mechanical properties :
#
#
# Convention : Reuss Voigt Hill
#
# Bulk Modulus (GPa) = 52.67885 52.83467 52.75676
# Shear Modulus (GPa) = 20.00552 22.13635 21.07094
#
# Velocity S-wave (km/s) = 3.38941 3.56535 3.47849
# Velocity P-wave (km/s) = 6.75042 6.87671 6.81386
#
# Compressibility (1/GPa) = 0.01898295
#
# Stress axis : x y z
#
# Youngs Moduli (GPa) = 48.32186 48.32186 96.76048
#
# Poissons Ratio (x) = 0.56371 0.22761
# Poissons Ratio (y) = 0.56371 0.22761
# Poissons Ratio (z) = 0.11367 0.11367
#
# Static dielectric constant tensor:
#      x y z
#    x 3.095800 0.000000 0.000000 
#    y 0.000000 3.095800 0.000000 
#    z 0.000000 0.000000 3.576710 
# 
# 
# High freq. dielectric constant tensor:
#      x y z
#    x 1.650130 0.000000 0.000000 
#    y 0.000000 1.650130 0.000000 
#    z 0.000000 0.000000 1.691360 
# 
# From -- ./inp_files/7814.got.cif
#   From: 2010.03.12/outbox.cif.g09.slc.cpg/sg123_4_cif.got.tgz:7814.got - 2010.04.06 16:26:55.
