data_PCOD8312586
_publ_section_title
;
Structure prediction by ZEFSAII (Michael W. Deem and Ramdas Pophale) SiO2 
 PCOD8312586
Probable space group: P 4/M M M
;
_chemical_formula_sum "Si O2"
_cell_formula_units_Z 32
_cell_length_a 13.279150
_cell_length_b 13.279150
_cell_length_c 12.122519
_cell_angle_alpha 90.000000
_cell_angle_beta 90.000000
_cell_angle_gamma 90.000000
_cell_volume 2137.634386
_symmetry_space_group_name_H-M "P 4/M M M"
_symmetry_group_IT_number 123
_symmetry_cell_setting 'tetragonal'
loop_
_space_group_symop_operation_xyz
x,y,z
-y,x,z
-x,-y,z
y,-x,z
x,-y,-z
-x,y,-z
y,x,-z
-y,-x,-z
-x,-y,-z
y,-x,-z
x,y,-z
-y,x,-z
-x,y,z
x,-y,z
-y,-x,z
y,x,z
loop_
_atom_site_type_symbol
_atom_site_label
_atom_site_fract_x
_atom_site_fract_y
_atom_site_fract_z
Si Si1 0.111269 0.723152 0.303538
Si Si2 0.000000 0.619291 0.874531
Si Si3 0.220242 0.382356 0.500000
O O1 0.178510 0.821491 0.285712
O O2 0.099546 0.662555 0.187714
O O3 0.158115 0.647798 0.392131
O O4 0.000000 0.757806 0.344676
O O5 0.000000 0.500000 0.868025
O O6 0.000000 0.657729 0.000000
O O7 0.240698 0.500000 0.500000
O O8 0.328016 0.328016 0.500000
#
# Coordination Sequence:
#
# PCOD8312586 Si02
#       3
#    16   8   8
#     4   9  19  31  47  71  95 125 160 193 235 285
#     4   9  18  31  48  68  91 125 165 199 233 276
#     4  10  19  32  50  72  96 124 160 199 242 288
#
# _framework density 14.969818
#
# number of rings (size 3 to 8) (size 9 to 14) (size 15 to 20)
#    1.500    1.250    0.000    2.250    0.000    2.750 
#    0.000    0.000    0.000    6.000    0.000    0.000 
#    0.000    0.000    0.000   46.500    0.000    0.000 
#
# Total GULP energy -396504.168537 kJ/mol
# GULP energy per Si atom -12390.755267 kJ/mol
# Density = 1.493575 g / cm^3
# Si number density = 14.969818 Si / 1000 Ang^3
#
#
#
# Elastic Constant Matrix: (Units=GPa)
#
#
# Indices 1 2 3 4 5 6 
#
# 1 112.7743 62.4522 60.1691 0.0000 0.0000 0.0000
# 2 62.4522 112.7743 60.1691 0.0000 0.0000 0.0000
# 3 60.1691 60.1691 133.2121 0.0000 0.0000 0.0000
# 4 0.0000 0.0000 0.0000 19.7364 0.0000 0.0000
# 5 0.0000 0.0000 0.0000 0.0000 19.7364 0.0000
# 6 0.0000 0.0000 0.0000 0.0000 0.0000 14.4323
#
#
#
# Elastic Compliance Matrix: (Units=1/GPa)
#
#
# Indices 1 2 3 4 5 6 
#
# 1 0.014073 -0.005799 -0.003737 0.000000 0.000000 0.000000
# 2 -0.005799 0.014073 -0.003737 0.000000 0.000000 0.000000
# 3 -0.003737 -0.003737 0.010883 0.000000 0.000000 0.000000
# 4 0.000000 0.000000 0.000000 0.050668 0.000000 0.000000
# 5 0.000000 0.000000 0.000000 0.000000 0.050668 0.000000
# 6 0.000000 0.000000 0.000000 0.000000 0.000000 0.069289
#
#
# Mechanical properties :
#
#
# Convention : Reuss Voigt Hill
#
# Bulk Modulus (GPa) = 80.11796 80.48240 80.30018
# Shear Modulus (GPa) = 20.80220 22.51236 21.65728
#
# Velocity S-wave (km/s) = 3.73179 3.88216 3.80772
# Velocity P-wave (km/s) = 8.49731 8.60085 8.54924
#
# Compressibility (1/GPa) = 0.01248160
#
# Stress axis : x y z
#
# Youngs Moduli (GPa) = 71.06016 71.06016 91.89046
#
# Poissons Ratio (x) = 0.41211 0.34338
# Poissons Ratio (y) = 0.41211 0.34338
# Poissons Ratio (z) = 0.26554 0.26554
#
# Static dielectric constant tensor:
#      x y z
#    x 2.752010 0.000000 0.000000 
#    y 0.000000 2.752010 0.000000 
#    z 0.000000 0.000000 2.960090 
# 
# 
# High freq. dielectric constant tensor:
#      x y z
#    x 1.566540 0.000000 0.000000 
#    y 0.000000 1.566540 0.000000 
#    z 0.000000 0.000000 1.575950 
# 
# From -- ./inp_files/3566.got.cif
#   From: 2010.03.12/outbox.cif.g09.slc.cpg/sg123_2_cif.got.tgz:3566.got - 2010.04.06 16:26:55.
