data_PCOD8312344
_publ_section_title
;
Structure prediction by ZEFSAII (Michael W. Deem and Ramdas Pophale) SiO2 
 PCOD8312344
Probable space group: P 4/M M M
;
_chemical_formula_sum "Si O2"
_cell_formula_units_Z 56
_cell_length_a 14.068100
_cell_length_b 14.068100
_cell_length_c 17.907357
_cell_angle_alpha 90.000000
_cell_angle_beta 90.000000
_cell_angle_gamma 90.000000
_cell_volume 3544.070768
_symmetry_space_group_name_H-M "P 4/M M M"
_symmetry_group_IT_number 123
_symmetry_cell_setting 'tetragonal'
loop_
_space_group_symop_operation_xyz
x,y,z
-y,x,z
-x,-y,z
y,-x,z
x,-y,-z
-x,y,-z
y,x,-z
-y,-x,-z
-x,-y,-z
y,-x,-z
x,y,-z
-y,x,-z
-x,y,z
x,-y,z
-y,-x,z
y,x,z
loop_
_atom_site_type_symbol
_atom_site_label
_atom_site_fract_x
_atom_site_fract_y
_atom_site_fract_z
Si Si1 0.111560 0.735313 0.216662
Si Si2 0.108886 0.609293 0.358874
Si Si3 0.887261 0.394021 0.916935
Si Si4 0.765660 0.611058 0.500000
O O1 0.164154 0.835847 0.222421
O O2 0.136698 0.672522 0.288367
O O3 0.151550 0.679447 0.144299
O O4 0.000000 0.756753 0.210634
O O5 0.126005 0.500000 0.336447
O O6 0.173841 0.640294 0.427792
O O7 0.000000 0.625687 0.382847
O O8 0.846763 0.500000 0.901305
O O9 0.000000 0.398247 0.910668
O O10 0.856513 0.360204 0.000000
O O11 0.741277 0.500000 0.500000
O O12 0.666809 0.666809 0.500000
#
# Coordination Sequence:
#
# PCOD8312344 Si02
#       4
#    16  16  16   8
#     4  10  19  29  42  61  87 118 147 174 206 248
#     4   9  17  30  48  67  84 105 139 183 225 255
#     4   8  14  26  44  63  81 103 135 177 220 252
#     4  10  19  30  45  65  90 116 139 167 206 257
#
# _framework density 15.80104
#
# number of rings (size 3 to 8) (size 9 to 14) (size 15 to 20)
#    0.000    2.857    0.000    3.000    0.000    6.143 
#    0.000    0.000    0.000    0.000    0.000    4.000 
#    0.000   15.429    0.000   12.571    0.000    1.143 
#
# Total GULP energy -694268.780800 kJ/mol
# GULP energy per Si atom -12397.656800 kJ/mol
# Density = 1.576508 g / cm^3
# Si number density = 15.801040 Si / 1000 Ang^3
#
#
#
# Elastic Constant Matrix: (Units=GPa)
#
#
# Indices 1 2 3 4 5 6 
#
# 1 67.6673 47.8136 56.6977 0.0000 0.0000 0.0000
# 2 47.8136 67.6673 56.6977 0.0000 0.0000 0.0000
# 3 56.6977 56.6977 131.9911 0.0000 0.0000 0.0000
# 4 0.0000 0.0000 0.0000 13.9618 0.0000 0.0000
# 5 0.0000 0.0000 0.0000 0.0000 13.9618 0.0000
# 6 0.0000 0.0000 0.0000 0.0000 0.0000 23.8132
#
#
#
# Elastic Compliance Matrix: (Units=1/GPa)
#
#
# Indices 1 2 3 4 5 6 
#
# 1 0.032672 -0.017696 -0.006433 0.000000 0.000000 0.000000
# 2 -0.017696 0.032672 -0.006433 0.000000 0.000000 0.000000
# 3 -0.006433 -0.006433 0.013103 0.000000 0.000000 0.000000
# 4 0.000000 0.000000 0.000000 0.071624 0.000000 0.000000
# 5 0.000000 0.000000 0.000000 0.000000 0.071624 0.000000
# 6 0.000000 0.000000 0.000000 0.000000 0.000000 0.041993
#
#
# Mechanical properties :
#
#
# Convention : Reuss Voigt Hill
#
# Bulk Modulus (GPa) = 57.72621 65.52709 61.62665
# Shear Modulus (GPa) = 15.12455 17.42183 16.27319
#
# Velocity S-wave (km/s) = 3.09720 3.32411 3.21266
# Velocity P-wave (km/s) = 7.02870 7.50287 7.26965
#
# Compressibility (1/GPa) = 0.01732315
#
# Stress axis : x y z
#
# Youngs Moduli (GPa) = 30.60685 30.60685 76.31728
#
# Poissons Ratio (x) = 0.54162 0.49097
# Poissons Ratio (y) = 0.54162 0.49097
# Poissons Ratio (z) = 0.19690 0.19690
#
# Static dielectric constant tensor:
#      x y z
#    x 2.792030 0.000000 0.000000 
#    y 0.000000 2.792030 0.000000 
#    z 0.000000 0.000000 3.258620 
# 
# 
# High freq. dielectric constant tensor:
#      x y z
#    x 1.583620 0.000000 0.000000 
#    y 0.000000 1.583620 0.000000 
#    z 0.000000 0.000000 1.624800 
# 
# From -- ./inp_files/3672.got.cif
#   From: 2010.03.12/outbox.cif.g09.slc.cpg/sg123_2_cif.got.tgz:3672.got - 2010.04.06 16:26:55.
