data_PCOD8312683
_publ_section_title
;
Structure prediction by ZEFSAII (Michael W. Deem and Ramdas Pophale) SiO2 
 PCOD8312683
Probable space group: P 4/M M M
;
_chemical_formula_sum "Si O2"
_cell_formula_units_Z 72
_cell_length_a 13.390723
_cell_length_b 13.390723
_cell_length_c 23.226807
_cell_angle_alpha 90.000000
_cell_angle_beta 90.000000
_cell_angle_gamma 90.000000
_cell_volume 4164.832732
_symmetry_space_group_name_H-M "P 4/M M M"
_symmetry_group_IT_number 123
_symmetry_cell_setting 'tetragonal'
loop_
_space_group_symop_operation_xyz
x,y,z
-y,x,z
-x,-y,z
y,-x,z
x,-y,-z
-x,y,-z
y,x,-z
-y,-x,-z
-x,-y,-z
y,-x,-z
x,y,-z
-y,x,-z
-x,y,z
x,-y,z
-y,-x,z
y,x,z
loop_
_atom_site_type_symbol
_atom_site_label
_atom_site_fract_x
_atom_site_fract_y
_atom_site_fract_z
Si Si1 0.118807 0.390417 0.000000
Si Si2 0.888497 0.380695 0.123100
Si Si3 0.224633 0.385551 0.434045
Si Si4 0.617201 0.776459 0.764061
Si Si5 0.115686 0.279720 0.335959
O O1 0.149975 0.337297 0.939353
O O2 0.168363 0.500000 0.000000
O O3 0.000000 0.400534 0.000000
O O4 0.891268 0.500000 0.119396
O O5 0.815936 0.345778 0.173901
O O6 0.000000 0.340568 0.136394
O O7 0.189617 0.375827 0.500000
O O8 0.241396 0.500000 0.416071
O O9 0.329616 0.329616 0.423336
O O10 0.138532 0.336106 0.395673
O O11 0.500000 0.756327 0.762279
O O12 0.672207 0.672207 0.751057
O O13 0.645941 0.857715 0.716166
O O14 0.177131 0.177131 0.330766
O O15 0.000000 0.251741 0.333732
#
# Coordination Sequence:
#
# PCOD8312683 Si02
#       5
#     8  16  16  16  16
#     4   7  10  18  35  60  85 107 137 181 231 277
#     4   8  13  23  41  63  85 110 143 186 234 278
#     4   9  18  32  50  74 103 133 165 199 233 270
#     4  10  20  32  46  66  92 123 159 196 234 277
#     4  10  21  36  53  73  96 121 152 192 237 286
#
# _framework density 17.287607999999999
#
# number of rings (size 3 to 8) (size 9 to 14) (size 15 to 20)
#    0.000    3.000    0.000    2.667    0.000    3.778 
#    0.000    2.778    0.000    4.000    0.000    3.111 
#    0.000    4.444    0.000    0.000    0.000   66.667 
#
# Total GULP energy -892263.461338 kJ/mol
# GULP energy per Si atom -12392.548074 kJ/mol
# Density = 1.724826 g / cm^3
# Si number density = 17.287608 Si / 1000 Ang^3
#
#
#
# Elastic Constant Matrix: (Units=GPa)
#
#
# Indices 1 2 3 4 5 6 
#
# 1 83.8820 31.9353 38.9696 0.0000 0.0000 0.0000
# 2 31.9353 83.8820 38.9696 0.0000 0.0000 0.0000
# 3 38.9696 38.9696 115.4890 0.0000 0.0000 0.0000
# 4 0.0000 0.0000 0.0000 20.3514 0.0000 0.0000
# 5 0.0000 0.0000 0.0000 0.0000 20.3514 0.0000
# 6 0.0000 0.0000 0.0000 0.0000 0.0000 9.8228
#
#
#
# Elastic Compliance Matrix: (Units=1/GPa)
#
#
# Indices 1 2 3 4 5 6 
#
# 1 0.015211 -0.004040 -0.003769 0.000000 0.000000 0.000000
# 2 -0.004040 0.015211 -0.003769 0.000000 0.000000 0.000000
# 3 -0.003769 -0.003769 0.011203 0.000000 0.000000 0.000000
# 4 0.000000 0.000000 0.000000 0.049137 0.000000 0.000000
# 5 0.000000 0.000000 0.000000 0.000000 0.049137 0.000000
# 6 0.000000 0.000000 0.000000 0.000000 0.000000 0.101804
#
#
# Mechanical properties :
#
#
# Convention : Reuss Voigt Hill
#
# Bulk Modulus (GPa) = 54.15115 55.88913 55.02014
# Shear Modulus (GPa) = 18.44922 21.66368 20.05645
#
# Velocity S-wave (km/s) = 3.27034 3.54380 3.40981
# Velocity P-wave (km/s) = 6.75661 7.01027 6.88461
#
# Compressibility (1/GPa) = 0.01846683
#
# Stress axis : x y z
#
# Youngs Moduli (GPa) = 65.74317 65.74317 89.26446
#
# Poissons Ratio (x) = 0.26559 0.33647
# Poissons Ratio (y) = 0.26559 0.33647
# Poissons Ratio (z) = 0.24781 0.24781
#
# Static dielectric constant tensor:
#      x y z
#    x 2.894620 0.000000 0.000000 
#    y 0.000000 2.894620 0.000000 
#    z 0.000000 0.000000 3.741870 
# 
# 
# High freq. dielectric constant tensor:
#      x y z
#    x 1.636540 0.000000 0.000000 
#    y 0.000000 1.636540 0.000000 
#    z 0.000000 0.000000 1.696100 
# 
# From -- ./inp_files/7861.got.cif
#   From: 2010.03.12/outbox.cif.g09.slc.cpg/sg123_4_cif.got.tgz:7861.got - 2010.04.06 16:26:55.
