data_PCOD8312397
_publ_section_title
;
Structure prediction by ZEFSAII (Michael W. Deem and Ramdas Pophale) SiO2 
 PCOD8312397
Probable space group: P 4/M M M
;
_chemical_formula_sum "Si O2"
_cell_formula_units_Z 88
_cell_length_a 14.330769
_cell_length_b 14.330769
_cell_length_c 27.855936
_cell_angle_alpha 90.000000
_cell_angle_beta 90.000000
_cell_angle_gamma 90.000000
_cell_volume 5720.799765
_symmetry_space_group_name_H-M "P 4/M M M"
_symmetry_group_IT_number 123
_symmetry_cell_setting 'tetragonal'
loop_
_space_group_symop_operation_xyz
x,y,z
-y,x,z
-x,-y,z
y,-x,z
x,-y,-z
-x,y,-z
y,x,-z
-y,-x,-z
-x,-y,-z
y,-x,-z
x,y,-z
-y,x,-z
-x,y,z
x,-y,z
-y,-x,z
y,x,z
loop_
_atom_site_type_symbol
_atom_site_label
_atom_site_fract_x
_atom_site_fract_y
_atom_site_fract_z
Si Si1 0.259112 0.107752 0.718572
Si Si2 0.603598 0.110428 0.636505
Si Si3 0.390081 0.236373 0.000000
Si Si4 0.106557 0.607880 0.911648
Si Si5 0.893615 0.257067 0.827268
Si Si6 0.741140 0.107324 0.554603
O O1 0.165428 0.165428 0.707974
O O2 0.341599 0.143817 0.684029
O O3 0.293721 0.122966 0.773140
O O4 0.234663 0.000000 0.708168
O O5 0.500000 0.155473 0.636478
O O6 0.658364 0.143575 0.588913
O O7 0.594531 0.000000 0.636575
O O8 0.361397 0.175262 0.954035
O O9 0.500000 0.260543 0.000000
O O10 0.332757 0.332757 0.000000
O O11 0.118719 0.500000 0.899655
O O12 0.135481 0.661023 0.863300
O O13 0.000000 0.630004 0.927210
O O14 0.833952 0.166049 0.838843
O O15 0.000000 0.226629 0.834915
O O16 0.706429 0.120288 0.500000
O O17 0.834369 0.165632 0.564922
O O18 0.766377 0.000000 0.565699
#
# Coordination Sequence:
#
# PCOD8312397 Si02
#       6
#    16  16   8  16  16  16
#     4   9  17  28  42  61  85 112 140 169 201 239
#     4   9  17  28  41  57  79 108 140 172 205 240
#     4  10  19  30  45  63  84 110 137 169 210 253
#     4   9  17  29  45  64  84 107 138 174 209 245
#     4   9  17  28  42  61  85 112 140 169 201 239
#     4   9  17  28  42  61  85 112 140 169 201 240
#
# _framework density 15.382464000000001
#
# number of rings (size 3 to 8) (size 9 to 14) (size 15 to 20)
#    0.000    2.909    0.000    1.364    0.000    2.818 
#    0.000    8.182    0.000    3.273    0.000    0.000 
#    0.000   12.364    0.000   21.455    0.000    1.818 
#
# Total GULP energy -1091029.545924 kJ/mol
# GULP energy per Si atom -12398.063022 kJ/mol
# Density = 1.534745 g / cm^3
# Si number density = 15.382464 Si / 1000 Ang^3
#
#
#
# Elastic Constant Matrix: (Units=GPa)
#
#
# Indices 1 2 3 4 5 6 
#
# 1 79.2294 47.6778 60.7982 0.0000 0.0000 0.0000
# 2 47.6778 79.2294 60.7982 0.0000 0.0000 0.0000
# 3 60.7982 60.7982 119.7938 0.0000 0.0000 0.0000
# 4 0.0000 0.0000 0.0000 24.4676 0.0000 0.0000
# 5 0.0000 0.0000 0.0000 0.0000 24.4676 0.0000
# 6 0.0000 0.0000 0.0000 0.0000 0.0000 15.7920
#
#
#
# Elastic Compliance Matrix: (Units=1/GPa)
#
#
# Indices 1 2 3 4 5 6 
#
# 1 0.023516 -0.008178 -0.007785 0.000000 0.000000 0.000000
# 2 -0.008178 0.023516 -0.007785 0.000000 0.000000 0.000000
# 3 -0.007785 -0.007785 0.016250 0.000000 0.000000 0.000000
# 4 0.000000 0.000000 0.000000 0.040870 0.000000 0.000000
# 5 0.000000 0.000000 0.000000 0.000000 0.040870 0.000000
# 6 0.000000 0.000000 0.000000 0.000000 0.000000 0.063323
#
#
# Mechanical properties :
#
#
# Convention : Reuss Voigt Hill
#
# Bulk Modulus (GPa) = 63.33924 68.53346 65.93635
# Shear Modulus (GPa) = 19.14947 20.21066 19.68007
#
# Velocity S-wave (km/s) = 3.53213 3.62868 3.58073
# Velocity P-wave (km/s) = 7.60922 7.88708 7.74940
#
# Compressibility (1/GPa) = 0.01578800
#
# Stress axis : x y z
#
# Youngs Moduli (GPa) = 42.52334 42.52334 61.53981
#
# Poissons Ratio (x) = 0.34774 0.47908
# Poissons Ratio (y) = 0.34774 0.47908
# Poissons Ratio (z) = 0.33104 0.33104
#
# Static dielectric constant tensor:
#      x y z
#    x 2.861180 0.000000 0.000000 
#    y 0.000000 2.861180 0.000000 
#    z 0.000000 0.000000 3.158320 
# 
# 
# High freq. dielectric constant tensor:
#      x y z
#    x 1.569740 0.000000 0.000000 
#    y 0.000000 1.569740 0.000000 
#    z 0.000000 0.000000 1.605820 
# 
# From -- ./inp_files/8000.got.cif
#   From: 2010.03.12/outbox.cif.g09.slc.cpg/sg123_4_cif.got.tgz:8000.got - 2010.04.06 16:26:55.
