data_PCOD8312186
_publ_section_title
;
Structure prediction by ZEFSAII (Michael W. Deem and Ramdas Pophale) SiO2 
 PCOD8312186
Probable space group: P 4/M M M
;
_chemical_formula_sum "Si O2"
_cell_formula_units_Z 128
_cell_length_a 17.478069
_cell_length_b 17.478069
_cell_length_c 27.021406
_cell_angle_alpha 90.000000
_cell_angle_beta 90.000000
_cell_angle_gamma 90.000000
_cell_volume 8254.577358
_symmetry_space_group_name_H-M "P 4/M M M"
_symmetry_group_IT_number 123
_symmetry_cell_setting 'tetragonal'
loop_
_space_group_symop_operation_xyz
x,y,z
-y,x,z
-x,-y,z
y,-x,z
x,-y,-z
-x,y,-z
y,x,-z
-y,-x,-z
-x,-y,-z
y,-x,-z
x,y,-z
-y,x,-z
-x,y,z
x,-y,z
-y,-x,z
y,x,z
loop_
_atom_site_type_symbol
_atom_site_label
_atom_site_fract_x
_atom_site_fract_y
_atom_site_fract_z
Si Si1 0.705993 0.085995 0.278804
Si Si2 0.915931 0.797990 0.814806
Si Si3 0.703547 0.414884 0.682207
Si Si4 0.227785 0.648309 0.771426
Si Si5 0.588277 0.913503 0.057972
Si Si6 0.304056 0.819102 0.627675
Si Si7 0.806986 0.314481 0.873313
Si Si8 0.088174 0.586726 0.441862
O O1 0.780656 0.083586 0.243930
O O2 0.645790 0.142182 0.251552
O O3 0.726834 0.118020 0.333220
O O4 0.671111 0.000000 0.283700
O O5 0.881897 0.881897 0.822682
O O6 0.868365 0.736074 0.844750
O O7 0.000000 0.797637 0.837788
O O8 0.704556 0.500000 0.661230
O O9 0.619550 0.380451 0.672469
O O10 0.721909 0.413338 0.741282
O O11 0.766205 0.365218 0.654567
O O12 0.266664 0.733337 0.763862
O O13 0.226861 0.629225 0.830274
O O14 0.500000 0.898943 0.071293
O O15 0.638465 0.848302 0.083918
O O16 0.611227 0.000000 0.074575
O O17 0.602417 0.904503 0.000000
O O18 0.232255 0.767746 0.608442
O O19 0.347915 0.860035 0.582890
O O20 0.739102 0.260898 0.895849
O O21 0.100487 0.594917 0.500000
O O22 0.111142 0.500000 0.425171
O O23 0.000000 0.601364 0.427537
#
# Coordination Sequence:
#
# PCOD8312186 Si02
#       8
#    16  16  16  16  16  16  16  16
#     4   9  15  24  39  57  79 108 139 168 197 231
#     4   9  16  25  38  57  82 111 141 170 199 232
#     4   9  17  28  42  60  82 109 138 165 195 233
#     4   8  15  27  40  57  82 108 133 164 203 242
#     4   9  18  31  44  59  82 110 136 164 203 251
#     4  10  18  28  43  62  86 112 137 167 203 244
#     4   9  16  27  44  63  81 103 134 171 207 242
#     4   9  18  32  48  65  85 108 135 170 211 252
#
# _framework density 15.506549
#
# number of rings (size 3 to 8) (size 9 to 14) (size 15 to 20)
#    0.000    3.000    0.000    4.500    0.000    1.750 
#    0.000    0.000    0.000    3.375    0.000    3.500 
#    0.000    3.500    0.000   30.125    0.000    1.000 
#
# Total GULP energy -1585766.548114 kJ/mol
# GULP energy per Si atom -12388.801157 kJ/mol
# Density = 1.547126 g / cm^3
# Si number density = 15.506549 Si / 1000 Ang^3
#
#
#
# Elastic Constant Matrix: (Units=GPa)
#
#
# Indices 1 2 3 4 5 6 
#
# 1 75.4340 32.0258 30.7582 0.0000 0.0000 0.0000
# 2 32.0258 75.4340 30.7582 0.0000 0.0000 0.0000
# 3 30.7582 30.7582 59.0180 0.0000 0.0000 0.0000
# 4 0.0000 0.0000 0.0000 20.9651 0.0000 0.0000
# 5 0.0000 0.0000 0.0000 0.0000 20.9651 0.0000
# 6 0.0000 0.0000 0.0000 0.0000 0.0000 23.0197
#
#
#
# Elastic Compliance Matrix: (Units=1/GPa)
#
#
# Indices 1 2 3 4 5 6 
#
# 1 0.018150 -0.004887 -0.006912 0.000000 0.000000 0.000000
# 2 -0.004887 0.018150 -0.006912 0.000000 0.000000 0.000000
# 3 -0.006912 -0.006912 0.024149 0.000000 0.000000 0.000000
# 4 0.000000 0.000000 0.000000 0.047698 0.000000 0.000000
# 5 0.000000 0.000000 0.000000 0.000000 0.047698 0.000000
# 6 0.000000 0.000000 0.000000 0.000000 0.000000 0.043441
#
#
# Mechanical properties :
#
#
# Convention : Reuss Voigt Hill
#
# Bulk Modulus (GPa) = 43.42959 44.10780 43.76870
# Shear Modulus (GPa) = 20.45961 20.74625 20.60293
#
# Velocity S-wave (km/s) = 3.63632 3.66170 3.64903
# Velocity P-wave (km/s) = 6.76007 6.81057 6.78536
#
# Compressibility (1/GPa) = 0.02302577
#
# Stress axis : x y z
#
# Youngs Moduli (GPa) = 55.09675 55.09675 41.41020
#
# Poissons Ratio (x) = 0.26927 0.28623
# Poissons Ratio (y) = 0.26927 0.28623
# Poissons Ratio (z) = 0.38083 0.38083
#
# Static dielectric constant tensor:
#      x y z
#    x 2.922770 0.000000 0.000000 
#    y 0.000000 2.922770 0.000000 
#    z 0.000000 0.000000 2.872230 
# 
# 
# High freq. dielectric constant tensor:
#      x y z
#    x 1.581760 0.000000 0.000000 
#    y 0.000000 1.581760 0.000000 
#    z 0.000000 0.000000 1.579200 
# 
# From -- ./inp_files/7669.got.cif
#   From: 2010.03.12/outbox.cif.g09.slc.cpg/sg123_4_cif.got.tgz:7669.got - 2010.04.06 16:26:55.
