data_PCOD8312653
_publ_section_title
;
Structure prediction by ZEFSAII (Michael W. Deem and Ramdas Pophale) SiO2 
 PCOD8312653
Probable space group: P 4/M M M
;
_chemical_formula_sum "Si O2"
_cell_formula_units_Z 72
_cell_length_a 20.588801
_cell_length_b 20.588801
_cell_length_c 9.270554
_cell_angle_alpha 90.000000
_cell_angle_beta 90.000000
_cell_angle_gamma 90.000000
_cell_volume 3929.776036
_symmetry_space_group_name_H-M "P 4/M M M"
_symmetry_group_IT_number 123
_symmetry_cell_setting 'tetragonal'
loop_
_space_group_symop_operation_xyz
x,y,z
-y,x,z
-x,-y,z
y,-x,z
x,-y,-z
-x,y,-z
y,x,-z
-y,-x,-z
-x,-y,-z
y,-x,-z
x,y,-z
-y,x,-z
-x,y,z
x,-y,z
-y,-x,z
y,x,z
loop_
_atom_site_type_symbol
_atom_site_label
_atom_site_fract_x
_atom_site_fract_y
_atom_site_fract_z
Si Si1 0.176519 0.591439 0.332023
Si Si2 0.500000 0.078094 0.172862
Si Si3 0.676566 0.427884 0.330276
Si Si4 0.825721 0.928314 0.169296
Si Si5 0.843973 0.259961 0.663772
O O1 0.168338 0.571050 0.500000
O O2 0.117226 0.561045 0.240118
O O3 0.248696 0.573477 0.273102
O O4 0.172984 0.666946 0.307859
O O5 0.500000 0.000000 0.213835
O O6 0.500000 0.084932 0.000000
O O7 0.679810 0.415926 0.500000
O O8 0.648386 0.500000 0.294429
O O9 0.627888 0.372113 0.264212
O O10 0.883911 0.883911 0.227602
O O11 0.758394 0.905775 0.239479
O O12 0.842731 0.000000 0.220858
O O13 0.817359 0.923524 0.000000
O O14 0.863205 0.246038 0.500000
O O15 0.781129 0.218872 0.711132
#
# Coordination Sequence:
#
# PCOD8312653 Si02
#       5
#    16   8  16  16  16
#     4  10  19  35  57  79 104 138 179 217 258 312
#     4  11  25  41  55  75 104 137 174 220 271 317
#     4   9  16  27  48  80 114 144 176 218 264 308
#     4   9  18  32  49  70  98 132 170 212 258 311
#     4   9  18  32  52  78 105 132 166 212 261 308
#
# _framework density 18.321656999999998
#
# number of rings (size 3 to 8) (size 9 to 14) (size 15 to 20)
#    0.000    2.556    1.111    1.000    0.000    6.222 
#    0.000    6.667    0.000    2.000    0.000    3.111 
#    0.000    0.889    0.000    0.000    0.000    0.000 
#
# Total GULP energy -892060.741486 kJ/mol
# GULP energy per Si atom -12389.732521 kJ/mol
# Density = 1.827996 g / cm^3
# Si number density = 18.321657 Si / 1000 Ang^3
#
#
#
# Elastic Constant Matrix: (Units=GPa)
#
#
# Indices 1 2 3 4 5 6 
#
# 1 121.5978 65.0609 38.3195 0.0000 0.0000 0.0000
# 2 65.0609 121.5978 38.3195 0.0000 0.0000 0.0000
# 3 38.3195 38.3195 27.7373 0.0000 0.0000 0.0000
# 4 0.0000 0.0000 0.0000 21.3271 0.0000 0.0000
# 5 0.0000 0.0000 0.0000 0.0000 21.3271 0.0000
# 6 0.0000 0.0000 0.0000 0.0000 0.0000 18.2782
#
#
#
# Elastic Compliance Matrix: (Units=1/GPa)
#
#
# Indices 1 2 3 4 5 6 
#
# 1 0.015033 -0.002654 -0.017102 0.000000 0.000000 0.000000
# 2 -0.002654 0.015033 -0.017102 0.000000 0.000000 0.000000
# 3 -0.017102 -0.017102 0.083306 0.000000 0.000000 0.000000
# 4 0.000000 0.000000 0.000000 0.046889 0.000000 0.000000
# 5 0.000000 0.000000 0.000000 0.000000 0.046889 0.000000
# 6 0.000000 0.000000 0.000000 0.000000 0.000000 0.054710
#
#
# Mechanical properties :
#
#
# Convention : Reuss Voigt Hill
#
# Bulk Modulus (GPa) = 25.21675 61.59251 43.40463
# Shear Modulus (GPa) = 14.33507 20.80201 17.56854
#
# Velocity S-wave (km/s) = 2.80020 3.37319 3.09996
# Velocity P-wave (km/s) = 4.92423 6.99010 6.04606
#
# Compressibility (1/GPa) = 0.03965618
#
# Stress axis : x y z
#
# Youngs Moduli (GPa) = 66.51870 66.51870 12.00397
#
# Poissons Ratio (x) = 0.17655 0.20529
# Poissons Ratio (y) = 0.17655 0.20529
# Poissons Ratio (z) = 1.13760 1.13760
#
# Static dielectric constant tensor:
#      x y z
#    x 3.736160 0.000000 0.000000 
#    y 0.000000 3.736160 0.000000 
#    z 0.000000 0.000000 3.118480 
# 
# 
# High freq. dielectric constant tensor:
#      x y z
#    x 1.718780 0.000000 0.000000 
#    y 0.000000 1.718780 0.000000 
#    z 0.000000 0.000000 1.671530 
# 
# From -- ./inp_files/1050.got.cif
#   From: 2010.03.12/outbox.cif.g09.slc.cpg/sg123_1_cif.got.tgz:1050.got - 2010.04.06 16:26:55.
