data_PCOD8312922
_publ_section_title
;
Structure prediction by ZEFSAII (Michael W. Deem and Ramdas Pophale) SiO2 
 PCOD8312922
Probable space group: P 4/M M M
;
_chemical_formula_sum "Si O2"
_cell_formula_units_Z 72
_cell_length_a 20.601593
_cell_length_b 20.601593
_cell_length_c 9.022132
_cell_angle_alpha 90.000000
_cell_angle_beta 90.000000
_cell_angle_gamma 90.000000
_cell_volume 3829.224095
_symmetry_space_group_name_H-M "P 4/M M M"
_symmetry_group_IT_number 123
_symmetry_cell_setting 'tetragonal'
loop_
_space_group_symop_operation_xyz
x,y,z
-y,x,z
-x,-y,z
y,-x,z
x,-y,-z
-x,y,-z
y,x,-z
-y,-x,-z
-x,-y,-z
y,-x,-z
x,y,-z
-y,x,-z
-x,y,z
x,-y,z
-y,-x,z
y,x,z
loop_
_atom_site_type_symbol
_atom_site_label
_atom_site_fract_x
_atom_site_fract_y
_atom_site_fract_z
Si Si1 0.813392 0.403753 0.672965
Si Si2 0.723301 0.831727 0.165272
Si Si3 0.070597 0.170836 0.824812
Si Si4 0.322361 0.572409 0.828138
Si Si5 0.075101 0.500000 0.675047
O O1 0.803618 0.415907 0.500000
O O2 0.821613 0.328750 0.707965
O O3 0.747592 0.427574 0.750202
O O4 0.880146 0.439009 0.727006
O O5 0.772176 0.772176 0.167322
O O6 0.759854 0.897663 0.208731
O O7 0.692357 0.836910 0.000000
O O8 0.113146 0.113146 0.753680
O O9 0.000000 0.169098 0.750468
O O10 0.066872 0.160643 0.000000
O O11 0.352305 0.500000 0.806595
O O12 0.373600 0.626401 0.765038
O O13 0.309962 0.587405 0.000000
O O14 0.066963 0.500000 0.500000
O O15 0.000000 0.500000 0.741856
#
# Coordination Sequence:
#
# PCOD8312922 Si02
#       5
#    16  16  16  16   8
#     4  11  21  35  56  79 103 135 177 221 265 313
#     4   9  18  32  49  71 102 137 169 207 259 311
#     4   8  14  25  42  66  97 132 169 211 260 312
#     4  10  21  37  58  83 112 146 180 217 263 315
#     4   9  20  38  55  73 102 137 170 210 265 319
#
# _framework density 18.802764
#
# number of rings (size 3 to 8) (size 9 to 14) (size 15 to 20)
#    0.000    2.556    1.111    2.667    0.000    4.889 
#    0.000    2.222    0.000    4.667    0.000    1.556 
#    0.000    0.000    0.000    4.889    0.000    4.889 
#
# Total GULP energy -892020.506265 kJ/mol
# GULP energy per Si atom -12389.173698 kJ/mol
# Density = 1.875997 g / cm^3
# Si number density = 18.802764 Si / 1000 Ang^3
#
#
#
# Elastic Constant Matrix: (Units=GPa)
#
#
# Indices 1 2 3 4 5 6 
#
# 1 122.6112 45.2806 28.0041 0.0000 0.0000 0.0000
# 2 45.2806 122.6112 28.0041 0.0000 0.0000 0.0000
# 3 28.0041 28.0041 35.4399 0.0000 0.0000 0.0000
# 4 0.0000 0.0000 0.0000 15.1028 0.0000 0.0000
# 5 0.0000 0.0000 0.0000 0.0000 15.1028 0.0000
# 6 0.0000 0.0000 0.0000 0.0000 0.0000 3.3332
#
#
#
# Elastic Compliance Matrix: (Units=1/GPa)
#
#
# Indices 1 2 3 4 5 6 
#
# 1 0.010510 -0.002422 -0.006391 0.000000 0.000000 0.000000
# 2 -0.002422 0.010510 -0.006391 0.000000 0.000000 0.000000
# 3 -0.006391 -0.006391 0.038317 0.000000 0.000000 0.000000
# 4 0.000000 0.000000 0.000000 0.066213 0.000000 0.000000
# 5 0.000000 0.000000 0.000000 0.000000 0.066213 0.000000
# 6 0.000000 0.000000 0.000000 0.000000 0.000000 0.300011
#
#
# Mechanical properties :
#
#
# Convention : Reuss Voigt Hill
#
# Bulk Modulus (GPa) = 34.56748 53.69332 44.13040
# Shear Modulus (GPa) = 9.40158 18.66600 14.03379
#
# Velocity S-wave (km/s) = 2.23852 3.15417 2.73494
# Velocity P-wave (km/s) = 5.01053 6.47172 5.78743
#
# Compressibility (1/GPa) = 0.02892893
#
# Stress axis : x y z
#
# Youngs Moduli (GPa) = 95.14824 95.14824 26.09779
#
# Poissons Ratio (x) = 0.23041 0.16680
# Poissons Ratio (y) = 0.23041 0.16680
# Poissons Ratio (z) = 0.60812 0.60812
#
# Static dielectric constant tensor:
#      x y z
#    x 3.817050 0.000000 0.000000 
#    y 0.000000 3.817050 0.000000 
#    z 0.000000 0.000000 3.093960 
# 
# 
# High freq. dielectric constant tensor:
#      x y z
#    x 1.738170 0.000000 0.000000 
#    y 0.000000 1.738170 0.000000 
#    z 0.000000 0.000000 1.685580 
# 
# From -- ./inp_files/1062.got.cif
#   From: 2010.03.12/outbox.cif.g09.slc.cpg/sg123_1_cif.got.tgz:1062.got - 2010.04.06 16:26:55.
