data_PCOD8312699
_publ_section_title
;
Structure prediction by ZEFSAII (Michael W. Deem and Ramdas Pophale) SiO2 
 PCOD8312699
Probable space group: P 4/M M M
;
_chemical_formula_sum "Si O2"
_cell_formula_units_Z 56
_cell_length_a 13.183757
_cell_length_b 13.183757
_cell_length_c 18.097613
_cell_angle_alpha 90.000000
_cell_angle_beta 90.000000
_cell_angle_gamma 90.000000
_cell_volume 3145.572332
_symmetry_space_group_name_H-M "P 4/M M M"
_symmetry_group_IT_number 123
_symmetry_cell_setting 'tetragonal'
loop_
_space_group_symop_operation_xyz
x,y,z
-y,x,z
-x,-y,z
y,-x,z
x,-y,-z
-x,y,-z
y,x,-z
-y,-x,-z
-x,-y,-z
y,-x,-z
x,y,-z
-y,x,-z
-x,y,z
x,-y,z
-y,-x,z
y,x,z
loop_
_atom_site_type_symbol
_atom_site_label
_atom_site_fract_x
_atom_site_fract_y
_atom_site_fract_z
Si Si1 0.119197 0.720492 0.273075
Si Si2 0.284327 0.118221 0.000000
Si Si3 0.386931 0.879798 0.580957
Si Si4 0.784548 0.382460 0.139390
O O1 0.173163 0.826838 0.253954
O O2 0.158908 0.684946 0.353550
O O3 0.151283 0.636114 0.213741
O O4 0.000000 0.739395 0.270444
O O5 0.350408 0.145221 0.071337
O O6 0.178239 0.178239 0.000000
O O7 0.257627 0.000000 0.000000
O O8 0.344469 0.846508 0.500000
O O9 0.500000 0.834864 0.591705
O O10 0.393299 0.000000 0.585433
O O11 0.756000 0.500000 0.133316
O O12 0.679604 0.320397 0.139513
#
# Coordination Sequence:
#
# PCOD8312699 Si02
#       4
#    16   8  16  16
#     4  10  20  32  47  69  97 130 168 207 246 291
#     4  10  21  36  54  78 106 136 171 206 240 282
#     4   8  14  26  45  67  89 116 154 200 247 291
#     4  10  21  36  54  77 102 128 162 203 248 299
#
# _framework density 17.802802
#
# number of rings (size 3 to 8) (size 9 to 14) (size 15 to 20)
#    0.000    2.571    0.000    3.000    0.000    5.286 
#    0.000    0.000    0.000    7.714    0.000    4.000 
#    0.000    0.000    0.000   26.571    0.000    1.429 
#
# Total GULP energy -694254.068402 kJ/mol
# GULP energy per Si atom -12397.394079 kJ/mol
# Density = 1.776228 g / cm^3
# Si number density = 17.802802 Si / 1000 Ang^3
#
#
#
# Elastic Constant Matrix: (Units=GPa)
#
#
# Indices 1 2 3 4 5 6 
#
# 1 98.9322 40.8276 43.1092 0.0000 0.0000 0.0000
# 2 40.8276 98.9322 43.1092 0.0000 0.0000 0.0000
# 3 43.1092 43.1092 138.0274 0.0000 0.0000 0.0000
# 4 0.0000 0.0000 0.0000 24.1803 0.0000 0.0000
# 5 0.0000 0.0000 0.0000 0.0000 24.1803 0.0000
# 6 0.0000 0.0000 0.0000 0.0000 0.0000 11.9555
#
#
#
# Elastic Compliance Matrix: (Units=1/GPa)
#
#
# Indices 1 2 3 4 5 6 
#
# 1 0.013037 -0.004174 -0.002768 0.000000 0.000000 0.000000
# 2 -0.004174 0.013037 -0.002768 0.000000 0.000000 0.000000
# 3 -0.002768 -0.002768 0.008974 0.000000 0.000000 0.000000
# 4 0.000000 0.000000 0.000000 0.041356 0.000000 0.000000
# 5 0.000000 0.000000 0.000000 0.000000 0.041356 0.000000
# 6 0.000000 0.000000 0.000000 0.000000 0.000000 0.083643
#
#
# Mechanical properties :
#
#
# Convention : Reuss Voigt Hill
#
# Bulk Modulus (GPa) = 63.99054 65.55376 64.77215
# Shear Modulus (GPa) = 22.12082 25.98627 24.05354
#
# Velocity S-wave (km/s) = 3.52880 3.82471 3.67973
# Velocity P-wave (km/s) = 7.25433 7.51044 7.38350
#
# Compressibility (1/GPa) = 0.01562731
#
# Stress axis : x y z
#
# Youngs Moduli (GPa) = 76.70741 76.70741 111.43323
#
# Poissons Ratio (x) = 0.32016 0.30845
# Poissons Ratio (y) = 0.32016 0.30845
# Poissons Ratio (z) = 0.21233 0.21233
#
# Static dielectric constant tensor:
#      x y z
#    x 3.046670 0.000000 0.000000 
#    y 0.000000 3.046670 0.000000 
#    z 0.000000 0.000000 3.738540 
# 
# 
# High freq. dielectric constant tensor:
#      x y z
#    x 1.669380 0.000000 0.000000 
#    y 0.000000 1.669380 0.000000 
#    z 0.000000 0.000000 1.714610 
# 
# From -- ./inp_files/6101.got.cif
#   From: 2010.03.12/outbox.cif.g09.slc.cpg/sg123_4_cif.got.tgz:6101.got - 2010.04.06 16:26:55.
