data_PCOD8312680
_publ_section_title
;
Structure prediction by ZEFSAII (Michael W. Deem and Ramdas Pophale) SiO2 
 PCOD8312680
Probable space group: P 4/M M M
;
_chemical_formula_sum "Si O2"
_cell_formula_units_Z 112
_cell_length_a 13.946268
_cell_length_b 13.946268
_cell_length_c 35.195936
_cell_angle_alpha 90.000000
_cell_angle_beta 90.000000
_cell_angle_gamma 90.000000
_cell_volume 6845.552926
_symmetry_space_group_name_H-M "P 4/M M M"
_symmetry_group_IT_number 123
_symmetry_cell_setting 'tetragonal'
loop_
_space_group_symop_operation_xyz
x,y,z
-y,x,z
-x,-y,z
y,-x,z
x,-y,-z
-x,y,-z
y,x,-z
-y,-x,-z
-x,-y,-z
y,-x,-z
x,y,-z
-y,x,-z
-x,y,z
x,-y,z
-y,-x,z
y,x,z
loop_
_atom_site_type_symbol
_atom_site_label
_atom_site_fract_x
_atom_site_fract_y
_atom_site_fract_z
Si Si1 0.390764 0.235751 0.744025
Si Si2 0.886097 0.730821 0.112557
Si Si3 0.732952 0.889764 0.692904
Si Si4 0.393224 0.886351 0.042124
Si Si5 0.886263 0.393465 0.541727
Si Si6 0.109394 0.260897 0.607275
Si Si7 0.234216 0.389439 0.167802
O O1 0.500000 0.256494 0.732664
O O2 0.331335 0.331335 0.734090
O O3 0.352013 0.146098 0.720000
O O4 0.381134 0.208306 0.788029
O O5 0.833198 0.833198 0.116850
O O6 0.851070 0.683603 0.072947
O O7 0.854906 0.658182 0.145836
O O8 0.000000 0.747983 0.114609
O O9 0.829800 0.829800 0.700450
O O10 0.695938 0.877713 0.649546
O O11 0.756433 0.000000 0.702245
O O12 0.500000 0.846273 0.051568
O O13 0.397581 0.000000 0.043194
O O14 0.361536 0.851321 0.000000
O O15 0.858594 0.351436 0.500000
O O16 0.843380 0.500000 0.545768
O O17 0.842699 0.330742 0.575991
O O18 0.000000 0.398177 0.545863
O O19 0.157997 0.157997 0.604678
O O20 0.000000 0.242124 0.597075
O O21 0.247838 0.500000 0.155457
O O22 0.332781 0.332781 0.158371
#
# Coordination Sequence:
#
# PCOD8312680 Si02
#       7
#    16  16  16  16  16  16  16
#     4   9  18  32  49  70  95 119 144 178 221 271
#     4  10  20  32  46  65  91 124 161 199 234 268
#     4   9  18  31  45  63  88 117 151 189 225 263
#     4   8  14  26  45  67  88 111 143 185 231 275
#     4   8  14  25  40  57  78 105 137 173 211 249
#     4   9  17  28  42  61  85 113 143 175 213 256
#     4   9  18  32  50  72  95 118 145 179 223 275
#
# _framework density 16.360987000000002
#
# number of rings (size 3 to 8) (size 9 to 14) (size 15 to 20)
#    0.000    3.143    0.000    1.286    0.000    3.571 
#    0.000    5.714    0.000    0.000    0.000    8.000 
#    0.000    0.286    0.000   14.857    0.000    1.000 
#
# Total GULP energy -1388211.814911 kJ/mol
# GULP energy per Si atom -12394.748347 kJ/mol
# Density = 1.632375 g / cm^3
# Si number density = 16.360987 Si / 1000 Ang^3
#
#
#
# Elastic Constant Matrix: (Units=GPa)
#
#
# Indices 1 2 3 4 5 6 
#
# 1 88.4623 40.2210 50.9264 0.0000 0.0000 0.0000
# 2 40.2210 88.4623 50.9264 0.0000 0.0000 0.0000
# 3 50.9264 50.9264 88.3771 0.0000 0.0000 0.0000
# 4 0.0000 0.0000 0.0000 25.1417 0.0000 0.0000
# 5 0.0000 0.0000 0.0000 0.0000 25.1417 0.0000
# 6 0.0000 0.0000 0.0000 0.0000 0.0000 11.2599
#
#
#
# Elastic Compliance Matrix: (Units=1/GPa)
#
#
# Indices 1 2 3 4 5 6 
#
# 1 0.017508 -0.003221 -0.008233 0.000000 0.000000 0.000000
# 2 -0.003221 0.017508 -0.008233 0.000000 0.000000 0.000000
# 3 -0.008233 -0.008233 0.020803 0.000000 0.000000 0.000000
# 4 0.000000 0.000000 0.000000 0.039775 0.000000 0.000000
# 5 0.000000 0.000000 0.000000 0.000000 0.039775 0.000000
# 6 0.000000 0.000000 0.000000 0.000000 0.000000 0.088810
#
#
# Mechanical properties :
#
#
# Convention : Reuss Voigt Hill
#
# Bulk Modulus (GPa) = 60.80355 61.04992 60.92674
# Shear Modulus (GPa) = 18.58491 20.52386 19.55438
#
# Velocity S-wave (km/s) = 3.37401 3.54565 3.46089
# Velocity P-wave (km/s) = 7.24037 7.35918 7.30002
#
# Compressibility (1/GPa) = 0.01644641
#
# Stress axis : x y z
#
# Youngs Moduli (GPa) = 57.11582 57.11582 48.06887
#
# Poissons Ratio (x) = 0.18396 0.39575
# Poissons Ratio (y) = 0.18396 0.39575
# Poissons Ratio (z) = 0.47023 0.47023
#
# Static dielectric constant tensor:
#      x y z
#    x 2.969210 0.000000 0.000000 
#    y 0.000000 2.969210 0.000000 
#    z 0.000000 0.000000 3.373840 
# 
# 
# High freq. dielectric constant tensor:
#      x y z
#    x 1.610070 0.000000 0.000000 
#    y 0.000000 1.610070 0.000000 
#    z 0.000000 0.000000 1.641600 
# 
# From -- ./inp_files/8181.got.cif
#   From: 2010.03.12/outbox.cif.g09.slc.cpg/sg123_5_cif.got.tgz:8181.got - 2010.04.06 16:26:55.
