data_PCOD8312353
_publ_section_title
;
Structure prediction by ZEFSAII (Michael W. Deem and Ramdas Pophale) SiO2 
 PCOD8312353
Probable space group: P 4/M M M
;
_chemical_formula_sum "Si O2"
_cell_formula_units_Z 96
_cell_length_a 13.984730
_cell_length_b 13.984730
_cell_length_c 30.928570
_cell_angle_alpha 90.000000
_cell_angle_beta 90.000000
_cell_angle_gamma 90.000000
_cell_volume 6048.783112
_symmetry_space_group_name_H-M "P 4/M M M"
_symmetry_group_IT_number 123
_symmetry_cell_setting 'tetragonal'
loop_
_space_group_symop_operation_xyz
x,y,z
-y,x,z
-x,-y,z
y,-x,z
x,-y,-z
-x,y,-z
y,x,-z
-y,-x,-z
-x,-y,-z
y,-x,-z
x,y,-z
-y,x,-z
-x,y,z
x,-y,z
-y,-x,z
y,x,z
loop_
_atom_site_type_symbol
_atom_site_label
_atom_site_fract_x
_atom_site_fract_y
_atom_site_fract_z
Si Si1 0.391131 0.888738 0.872268
Si Si2 0.886604 0.393451 0.451974
Si Si3 0.732413 0.886749 0.372794
Si Si4 0.887009 0.392865 0.708802
Si Si5 0.390119 0.763598 0.951846
Si Si6 0.113071 0.268333 0.210109
O O1 0.500000 0.860515 0.860329
O O2 0.356040 0.840247 0.916555
O O3 0.323099 0.856745 0.833359
O O4 0.382404 0.000000 0.880783
O O5 0.853519 0.360863 0.500000
O O6 0.846505 0.500000 0.441871
O O7 0.850097 0.317785 0.416787
O O8 0.000000 0.397861 0.449558
O O9 0.833866 0.833866 0.368056
O O10 0.662849 0.855097 0.334088
O O11 0.752882 0.000000 0.372486
O O12 0.842329 0.500000 0.708816
O O13 0.851598 0.334511 0.750473
O O14 0.000000 0.401998 0.710281
O O15 0.500000 0.737135 0.945348
O O16 0.334196 0.665805 0.944563
O O17 0.371297 0.805931 0.000000
O O18 0.167052 0.167052 0.212093
O O19 0.000000 0.247449 0.212426
#
# Coordination Sequence:
#
# PCOD8312353 Si02
#       6
#    16  16  16  16  16  16
#     4   9  17  29  45  64  85 110 142 181 221 253
#     4   8  14  26  44  63  82 107 142 186 231 262
#     4  10  19  29  42  62  90 122 151 177 207 249
#     4   9  17  30  47  64  82 106 139 180 221 252
#     4   9  17  28  42  61  85 112 141 174 213 259
#     4  10  19  30  45  65  90 118 144 170 203 247
#
# _framework density 15.870960999999999
#
# number of rings (size 3 to 8) (size 9 to 14) (size 15 to 20)
#    0.000    2.833    0.000    2.500    0.000    5.167 
#    0.000    2.500    0.000    3.000    0.000    2.333 
#    0.000   26.333    0.000   22.833    0.000    1.000 
#
# Total GULP energy -1190032.550408 kJ/mol
# GULP energy per Si atom -12396.172400 kJ/mol
# Density = 1.583484 g / cm^3
# Si number density = 15.870961 Si / 1000 Ang^3
#
#
#
# Elastic Constant Matrix: (Units=GPa)
#
#
# Indices 1 2 3 4 5 6 
#
# 1 65.5557 42.0598 51.7469 0.0000 0.0000 0.0000
# 2 42.0598 65.5557 51.7469 0.0000 0.0000 0.0000
# 3 51.7469 51.7469 137.8751 0.0000 0.0000 0.0000
# 4 0.0000 0.0000 0.0000 18.7295 0.0000 0.0000
# 5 0.0000 0.0000 0.0000 0.0000 18.7295 0.0000
# 6 0.0000 0.0000 0.0000 0.0000 0.0000 17.5563
#
#
#
# Elastic Compliance Matrix: (Units=1/GPa)
#
#
# Indices 1 2 3 4 5 6 
#
# 1 0.028551 -0.014010 -0.005457 0.000000 0.000000 0.000000
# 2 -0.014010 0.028551 -0.005457 0.000000 0.000000 0.000000
# 3 -0.005457 -0.005457 0.011349 0.000000 0.000000 0.000000
# 4 0.000000 0.000000 0.000000 0.053392 0.000000 0.000000
# 5 0.000000 0.000000 0.000000 0.000000 0.053392 0.000000
# 6 0.000000 0.000000 0.000000 0.000000 0.000000 0.056960
#
#
# Mechanical properties :
#
#
# Convention : Reuss Voigt Hill
#
# Bulk Modulus (GPa) = 53.75960 62.23262 57.99611
# Shear Modulus (GPa) = 17.34646 19.23195 18.28921
#
# Velocity S-wave (km/s) = 3.30959 3.48482 3.39834
# Velocity P-wave (km/s) = 6.96786 7.44908 7.21248
#
# Compressibility (1/GPa) = 0.01860133
#
# Stress axis : x y z
#
# Youngs Moduli (GPa) = 35.02548 35.02548 88.11024
#
# Poissons Ratio (x) = 0.49071 0.48085
# Poissons Ratio (y) = 0.49071 0.48085
# Poissons Ratio (z) = 0.19115 0.19115
#
# Static dielectric constant tensor:
#      x y z
#    x 2.832340 0.000000 0.000000 
#    y 0.000000 2.832340 0.000000 
#    z 0.000000 0.000000 3.364700 
# 
# 
# High freq. dielectric constant tensor:
#      x y z
#    x 1.585040 0.000000 0.000000 
#    y 0.000000 1.585040 0.000000 
#    z 0.000000 0.000000 1.630420 
# 
# From -- ./inp_files/8612.got.cif
#   From: 2010.03.12/outbox.cif.g09.slc.cpg/sg123_5_cif.got.tgz:8612.got - 2010.04.06 16:26:55.
