data_PCOD8312330
_publ_section_title
;
Structure prediction by ZEFSAII (Michael W. Deem and Ramdas Pophale) SiO2 
 PCOD8312330
Probable space group: P 4/M M M
;
_chemical_formula_sum "Si O2"
_cell_formula_units_Z 72
_cell_length_a 14.255033
_cell_length_b 14.255033
_cell_length_c 23.304794
_cell_angle_alpha 90.000000
_cell_angle_beta 90.000000
_cell_angle_gamma 90.000000
_cell_volume 4735.673173
_symmetry_space_group_name_H-M "P 4/M M M"
_symmetry_group_IT_number 123
_symmetry_cell_setting 'tetragonal'
loop_
_space_group_symop_operation_xyz
x,y,z
-y,x,z
-x,-y,z
y,-x,z
x,-y,-z
-x,y,-z
y,x,-z
-y,-x,-z
-x,-y,-z
y,-x,-z
x,y,-z
-y,x,-z
-x,y,z
x,-y,z
-y,-x,z
y,x,z
loop_
_atom_site_type_symbol
_atom_site_label
_atom_site_fract_x
_atom_site_fract_y
_atom_site_fract_z
Si Si1 0.389199 0.763334 0.665181
Si Si2 0.391625 0.892719 0.771903
Si Si3 0.109114 0.262718 0.124114
Si Si4 0.104502 0.388747 0.564049
Si Si5 0.893725 0.256077 0.000000
O O1 0.500000 0.741954 0.662195
O O2 0.335454 0.664547 0.668718
O O3 0.362477 0.826444 0.719649
O O4 0.351787 0.819628 0.609496
O O5 0.500000 0.881638 0.786748
O O6 0.337580 0.859346 0.828624
O O7 0.367776 0.000000 0.754915
O O8 0.167928 0.167928 0.132831
O O9 0.128946 0.309219 0.060433
O O10 0.000000 0.236753 0.131374
O O11 0.134856 0.357014 0.500000
O O12 0.100530 0.500000 0.568121
O O13 0.000000 0.349571 0.578153
O O14 0.841869 0.158132 0.000000
O O15 0.000000 0.225405 0.000000
#
# Coordination Sequence:
#
# PCOD8312330 Si02
#       5
#    16  16  16  16   8
#     4  10  19  29  42  60  83 111 139 166 198 238
#     4   9  17  29  44  60  77 100 133 172 211 244
#     4   9  16  26  40  58  81 106 131 160 194 236
#     4   8  14  26  44  63  81 102 130 165 201 231
#     4   8  14  23  35  53  77 105 132 156 187 229
#
# _framework density 15.203752
#
# number of rings (size 3 to 8) (size 9 to 14) (size 15 to 20)
#    0.000    3.111    0.000    2.000    0.000    3.667 
#    0.000    2.778    0.000    3.333    0.000    3.111 
#    0.000    4.000    0.000    9.778    0.000   67.556 
#
# Total GULP energy -892043.606993 kJ/mol
# GULP energy per Si atom -12389.494542 kJ/mol
# Density = 1.516915 g / cm^3
# Si number density = 15.203752 Si / 1000 Ang^3
#
#
#
# Elastic Constant Matrix: (Units=GPa)
#
#
# Indices 1 2 3 4 5 6 
#
# 1 55.1279 36.1488 53.5217 0.0000 0.0000 0.0000
# 2 36.1488 55.1280 53.5220 0.0000 0.0000 0.0000
# 3 53.5217 53.5220 144.2871 0.0000 0.0000 0.0000
# 4 0.0000 0.0000 0.0000 20.9603 0.0000 0.0000
# 5 0.0000 0.0000 0.0000 0.0000 20.9603 0.0000
# 6 0.0000 0.0000 0.0000 0.0000 0.0000 19.1536
#
#
#
# Elastic Compliance Matrix: (Units=1/GPa)
#
#
# Indices 1 2 3 4 5 6 
#
# 1 0.036040 -0.016649 -0.007193 0.000000 0.000000 0.000000
# 2 -0.016649 0.036040 -0.007193 0.000000 0.000000 0.000000
# 3 -0.007193 -0.007193 0.012267 0.000000 0.000000 0.000000
# 4 0.000000 0.000000 0.000000 0.047709 0.000000 0.000000
# 5 0.000000 0.000000 0.000000 0.000000 0.047709 0.000000
# 6 0.000000 0.000000 0.000000 0.000000 0.000000 0.052209
#
#
# Mechanical properties :
#
#
# Convention : Reuss Voigt Hill
#
# Bulk Modulus (GPa) = 44.88849 60.10310 52.49580
# Shear Modulus (GPa) = 16.58533 19.63820 18.11177
#
# Velocity S-wave (km/s) = 3.30642 3.59788 3.45522
# Velocity P-wave (km/s) = 6.64569 7.54170 7.10783
#
# Compressibility (1/GPa) = 0.02227742
#
# Stress axis : x y z
#
# Youngs Moduli (GPa) = 27.74676 27.74676 81.51993
#
# Poissons Ratio (x) = 0.46196 0.58637
# Poissons Ratio (y) = 0.46196 0.58637
# Poissons Ratio (z) = 0.19958 0.19958
#
# Static dielectric constant tensor:
#      x y z
#    x 2.702870 0.000000 0.000000 
#    y 0.000000 2.702870 0.000000 
#    z 0.000000 0.000000 3.391150 
# 
# 
# High freq. dielectric constant tensor:
#      x y z
#    x 1.555030 0.000000 0.000000 
#    y 0.000000 1.555030 0.000000 
#    z 0.000000 0.000000 1.605760 
# 
# From -- ./inp_files/6275.got.cif
#   From: 2010.03.12/outbox.cif.g09.slc.cpg/sg123_4_cif.got.tgz:6275.got - 2010.04.06 16:26:55.
