data_PCOD8312611
_publ_section_title
;
Structure prediction by ZEFSAII (Michael W. Deem and Ramdas Pophale) SiO2 
 PCOD8312611
Probable space group: P 4/M M M
;
_chemical_formula_sum "Si O2"
_cell_formula_units_Z 84
_cell_length_a 12.657376
_cell_length_b 12.657376
_cell_length_c 29.047515
_cell_angle_alpha 90.000000
_cell_angle_beta 90.000000
_cell_angle_gamma 90.000000
_cell_volume 4653.678188
_symmetry_space_group_name_H-M "P 4/M M M"
_symmetry_group_IT_number 123
_symmetry_cell_setting 'tetragonal'
loop_
_space_group_symop_operation_xyz
x,y,z
-y,x,z
-x,-y,z
y,-x,z
x,-y,-z
-x,y,-z
y,x,-z
-y,-x,-z
-x,-y,-z
y,-x,-z
x,y,-z
-y,x,-z
-x,y,z
x,-y,z
-y,-x,z
y,x,z
loop_
_atom_site_type_symbol
_atom_site_label
_atom_site_fract_x
_atom_site_fract_y
_atom_site_fract_z
Si Si1 0.620729 0.788826 0.131716
Si Si2 0.708123 0.117999 0.500000
Si Si3 0.000000 0.815369 0.000000
Si Si4 0.878666 0.287616 0.676855
Si Si5 0.791937 0.617484 0.589588
Si Si6 0.622676 0.000000 0.073036
Si Si7 0.882217 0.624107 0.772584
O O1 0.500000 0.748488 0.128421
O O2 0.697239 0.697239 0.111770
O O3 0.634192 0.896112 0.103541
O O4 0.654917 0.809322 0.184387
O O5 0.810514 0.189487 0.500000
O O6 0.638525 0.136020 0.545293
O O7 0.751057 0.000000 0.500000
O O8 0.000000 0.728158 0.958908
O O9 0.105737 0.894264 0.000000
O O10 0.820344 0.179656 0.663787
O O11 0.860908 0.370686 0.635886
O O12 0.833573 0.331289 0.725251
O O13 0.000000 0.260273 0.681826
O O14 0.747744 0.500000 0.586998
O O15 0.690314 0.690314 0.590419
O O16 0.500000 0.000000 0.051375
O O17 0.889272 0.500000 0.767597
O O18 0.000000 0.669904 0.780868
#
# Coordination Sequence:
#
# PCOD8312611 Si02
#       7
#    16   8   4  16  16   8  16
#     4  10  19  32  52  77 107 141 179 222 267 316
#     4  10  21  36  54  76 102 130 163 202 244 294
#     4  11  23  38  58  86 117 145 176 224 282 323
#     4  10  20  32  48  71  99 132 170 211 254 302
#     4  10  21  36  53  75  99 125 161 204 253 308
#     4  10  20  37  58  81 107 145 189 223 261 314
#     4   9  16  29  49  73  98 131 175 216 256 303
#
# _framework density 18.050238
#
# number of rings (size 3 to 8) (size 9 to 14) (size 15 to 20)
#    0.000    2.143    0.952    2.714    0.000    3.333 
#    0.000    0.000    0.000    5.143    0.000    2.667 
#    0.000    6.857    0.000    0.000    0.000    0.000 
#
# Total GULP energy -1040880.493245 kJ/mol
# GULP energy per Si atom -12391.434443 kJ/mol
# Density = 1.800915 g / cm^3
# Si number density = 18.050238 Si / 1000 Ang^3
#
#
#
# Elastic Constant Matrix: (Units=GPa)
#
#
# Indices 1 2 3 4 5 6 
#
# 1 95.9874 51.9992 41.5357 0.0000 0.0000 0.0000
# 2 51.9992 95.9846 41.5353 0.0000 0.0000 0.0000
# 3 41.5357 41.5353 106.1652 0.0000 0.0000 0.0000
# 4 0.0000 0.0000 0.0000 10.7494 0.0000 0.0000
# 5 0.0000 0.0000 0.0000 0.0000 10.7560 0.0000
# 6 0.0000 0.0000 0.0000 0.0000 0.0000 20.2068
#
#
#
# Elastic Compliance Matrix: (Units=1/GPa)
#
#
# Indices 1 2 3 4 5 6 
#
# 1 0.015696 -0.007037 -0.003388 0.000000 0.000000 0.000000
# 2 -0.007037 0.015697 -0.003388 0.000000 0.000000 0.000000
# 3 -0.003388 -0.003388 0.012070 0.000000 0.000000 0.000000
# 4 0.000000 0.000000 0.000000 0.093028 0.000000 0.000000
# 5 0.000000 0.000000 0.000000 0.000000 0.092971 0.000000
# 6 0.000000 0.000000 0.000000 0.000000 0.000000 0.049488
#
#
# Mechanical properties :
#
#
# Convention : Reuss Voigt Hill
#
# Bulk Modulus (GPa) = 63.14185 63.14195 63.14190
# Shear Modulus (GPa) = 16.03305 19.21360 17.62332
#
# Velocity S-wave (km/s) = 2.98358 3.26613 3.12805
# Velocity P-wave (km/s) = 6.85026 7.02002 6.93566
#
# Compressibility (1/GPa) = 0.01583736
#
# Stress axis : x y z
#
# Youngs Moduli (GPa) = 63.70907 63.70703 82.84942
#
# Poissons Ratio (x) = 0.44834 0.28067
# Poissons Ratio (y) = 0.44835 0.28068
# Poissons Ratio (z) = 0.21583 0.21583
#
# Static dielectric constant tensor:
#      x y z
#    x 3.287380 0.000000 0.000000 
#    y 0.000000 3.287380 0.000000 
#    z 0.000000 0.000000 3.677180 
# 
# 
# High freq. dielectric constant tensor:
#      x y z
#    x 1.693180 0.000000 0.000000 
#    y 0.000000 1.693180 0.000000 
#    z 0.000000 0.000000 1.706840 
# 
# From -- ./inp_files/8556.got.cif
#   From: 2010.03.12/outbox.cif.g09.slc.cpg/sg123_5_cif.got.tgz:8556.got - 2010.04.06 16:26:55.
