data_PCOD8312299
_publ_section_title
;
Structure prediction by ZEFSAII (Michael W. Deem and Ramdas Pophale) SiO2 
 PCOD8312299
Probable space group: P 4/M M M
;
_chemical_formula_sum "Si O2"
_cell_formula_units_Z 96
_cell_length_a 14.160760
_cell_length_b 14.160760
_cell_length_c 30.722850
_cell_angle_alpha 90.000000
_cell_angle_beta 90.000000
_cell_angle_gamma 90.000000
_cell_volume 6160.764745
_symmetry_space_group_name_H-M "P 4/M M M"
_symmetry_group_IT_number 123
_symmetry_cell_setting 'tetragonal'
loop_
_space_group_symop_operation_xyz
x,y,z
-y,x,z
-x,-y,z
y,-x,z
x,-y,-z
-x,y,-z
y,x,-z
-y,-x,-z
-x,-y,-z
y,-x,-z
x,y,-z
-y,x,-z
-x,y,z
x,-y,z
-y,-x,z
y,x,z
loop_
_atom_site_type_symbol
_atom_site_label
_atom_site_fract_x
_atom_site_fract_y
_atom_site_fract_z
Si Si1 0.612250 0.763558 0.500000
Si Si2 0.235913 0.390600 0.845644
Si Si3 0.111366 0.268017 0.905105
Si Si4 0.894063 0.255943 0.000000
Si Si5 0.894475 0.388167 0.577850
Si Si6 0.387808 0.104677 0.674303
Si Si7 0.757178 0.392408 0.746706
O O1 0.500000 0.747193 0.500000
O O2 0.661463 0.661463 0.500000
O O3 0.648836 0.821153 0.542079
O O4 0.254579 0.500000 0.857843
O O5 0.332271 0.332271 0.854836
O O6 0.149421 0.349535 0.873517
O O7 0.203256 0.380699 0.795540
O O8 0.170570 0.170570 0.898072
O O9 0.000000 0.249283 0.895921
O O10 0.127896 0.309836 0.954441
O O11 0.842117 0.157883 0.000000
O O12 0.000000 0.222273 0.000000
O O13 0.900044 0.500000 0.574645
O O14 0.859296 0.357733 0.626142
O O15 0.000000 0.347655 0.568927
O O16 0.500000 0.101881 0.678067
O O17 0.345684 0.170373 0.712330
O O18 0.346748 0.000000 0.681696
O O19 0.738119 0.500000 0.734626
O O20 0.656859 0.343142 0.741904
#
# Coordination Sequence:
#
# PCOD8312299 Si02
#       7
#     8  16  16   8  16  16  16
#     4  10  19  28  39  57  82 112 141 167 200 245
#     4   9  18  31  45  62  84 112 148 187 223 256
#     4   9  17  29  45  66  91 116 142 172 208 255
#     4   8  14  25  41  61  86 114 140 168 205 250
#     4   8  14  26  43  59  75  99 134 175 211 236
#     4   8  14  25  41  60  80 102 130 166 207 245
#     4   9  17  28  42  61  85 112 141 171 203 243
#
# _framework density 15.582482000000001
#
# number of rings (size 3 to 8) (size 9 to 14) (size 15 to 20)
#    0.000    3.333    0.000    1.250    0.000    3.333 
#    0.000    5.417    0.000    1.500    0.000    4.667 
#    0.000    6.333    0.000    7.333    0.000    2.000 
#
# Total GULP energy -1189312.331590 kJ/mol
# GULP energy per Si atom -12388.670121 kJ/mol
# Density = 1.554702 g / cm^3
# Si number density = 15.582482 Si / 1000 Ang^3
#
#
#
# Elastic Constant Matrix: (Units=GPa)
#
#
# Indices 1 2 3 4 5 6 
#
# 1 69.6947 33.5131 52.7003 0.0000 0.0000 0.0000
# 2 33.5131 69.6949 52.7004 0.0000 0.0000 0.0000
# 3 52.7003 52.7004 119.1149 0.0000 0.0000 0.0000
# 4 0.0000 0.0000 0.0000 21.2586 0.0000 0.0000
# 5 0.0000 0.0000 0.0000 0.0000 21.2585 0.0000
# 6 0.0000 0.0000 0.0000 0.0000 0.0000 8.7603
#
#
#
# Elastic Compliance Matrix: (Units=1/GPa)
#
#
# Indices 1 2 3 4 5 6 
#
# 1 0.022657 -0.004981 -0.007820 0.000000 0.000000 0.000000
# 2 -0.004981 0.022657 -0.007820 0.000000 0.000000 0.000000
# 3 -0.007820 -0.007820 0.015315 0.000000 0.000000 0.000000
# 4 0.000000 0.000000 0.000000 0.047040 0.000000 0.000000
# 5 0.000000 0.000000 0.000000 0.000000 0.047040 0.000000
# 6 0.000000 0.000000 0.000000 0.000000 0.000000 0.114151
#
#
# Mechanical properties :
#
#
# Convention : Reuss Voigt Hill
#
# Bulk Modulus (GPa) = 51.58556 59.59245 55.58900
# Shear Modulus (GPa) = 15.79452 18.22819 17.01135
#
# Velocity S-wave (km/s) = 3.18717 3.42393 3.30767
# Velocity P-wave (km/s) = 6.83526 7.34556 7.09500
#
# Compressibility (1/GPa) = 0.01938527
#
# Stress axis : x y z
#
# Youngs Moduli (GPa) = 44.13648 44.13664 65.29491
#
# Poissons Ratio (x) = 0.21986 0.51062
# Poissons Ratio (y) = 0.21986 0.51062
# Poissons Ratio (z) = 0.34516 0.34516
#
# Static dielectric constant tensor:
#      x y z
#    x 2.795850 0.000000 0.000000 
#    y 0.000000 2.795850 0.000000 
#    z 0.000000 0.000000 3.409090 
# 
# 
# High freq. dielectric constant tensor:
#      x y z
#    x 1.569710 0.000000 0.000000 
#    y 0.000000 1.569710 0.000000 
#    z 0.000000 0.000000 1.616030 
# 
# From -- ./inp_files/8054.got.cif
#   From: 2010.03.12/outbox.cif.g09.slc.cpg/sg123_5_cif.got.tgz:8054.got - 2010.04.06 16:26:55.
