data_PCOD8312727
_publ_section_title
;
Structure prediction by ZEFSAII (Michael W. Deem and Ramdas Pophale) SiO2 
 PCOD8312727
Probable space group: P 4/M M M
;
_chemical_formula_sum "Si O2"
_cell_formula_units_Z 112
_cell_length_a 17.618067
_cell_length_b 17.618067
_cell_length_c 20.500737
_cell_angle_alpha 90.000000
_cell_angle_beta 90.000000
_cell_angle_gamma 90.000000
_cell_volume 6363.352601
_symmetry_space_group_name_H-M "P 4/M M M"
_symmetry_group_IT_number 123
_symmetry_cell_setting 'tetragonal'
loop_
_space_group_symop_operation_xyz
x,y,z
-y,x,z
-x,-y,z
y,-x,z
x,-y,-z
-x,y,-z
y,x,-z
-y,-x,-z
-x,-y,-z
y,-x,-z
x,y,-z
-y,x,-z
-x,y,z
x,-y,z
-y,-x,z
y,x,z
loop_
_atom_site_type_symbol
_atom_site_label
_atom_site_fract_x
_atom_site_fract_y
_atom_site_fract_z
Si Si1 0.709852 0.590333 0.291399
Si Si2 0.710665 0.412741 0.074929
Si Si3 0.203080 0.084253 0.352871
Si Si4 0.083278 0.649207 0.426472
Si Si5 0.204846 0.330718 0.816771
Si Si6 0.790841 0.086952 0.198407
Si Si7 0.414794 0.237452 0.570446
O O1 0.698468 0.500000 0.286974
O O2 0.632888 0.632888 0.267245
O O3 0.781145 0.614324 0.245641
O O4 0.724128 0.620387 0.365356
O O5 0.695532 0.500000 0.094212
O O6 0.632826 0.367175 0.088831
O O7 0.779292 0.378544 0.117569
O O8 0.735816 0.404922 0.000000
O O9 0.138652 0.138652 0.381429
O O10 0.283437 0.111608 0.380026
O O11 0.205160 0.087103 0.275624
O O12 0.184871 0.000000 0.378266
O O13 0.079194 0.680654 0.500000
O O14 0.146118 0.583897 0.420143
O O15 0.000000 0.618161 0.405074
O O16 0.260694 0.260694 0.808880
O O17 0.121238 0.292389 0.820890
O O18 0.861190 0.138811 0.171031
O O19 0.797355 0.000000 0.171626
O O20 0.374757 0.258442 0.500000
O O21 0.500000 0.266234 0.565827
#
# Coordination Sequence:
#
# PCOD8312727 Si02
#       7
#    16  16  16  16  16  16  16
#     4  10  20  33  49  67  88 116 150 191 237 282
#     4   9  17  29  47  72 101 132 163 195 232 275
#     4   9  17  28  41  59  83 109 139 175 215 260
#     4   9  17  28  42  60  81 106 138 177 219 265
#     4   9  17  30  48  70  96 125 157 190 227 274
#     4   9  17  29  47  70  95 124 156 192 233 275
#     4   9  18  31  45  62  84 110 142 181 227 278
#
# _framework density 17.600784999999998
#
# number of rings (size 3 to 8) (size 9 to 14) (size 15 to 20)
#    0.000    2.857    0.000    1.286    0.000    3.143 
#    0.000    5.000    0.000    5.571    0.000    5.000 
#    0.000    0.000    0.000    5.571    0.000    0.143 
#
# Total GULP energy -1387484.003671 kJ/mol
# GULP energy per Si atom -12388.250033 kJ/mol
# Density = 1.756072 g / cm^3
# Si number density = 17.600785 Si / 1000 Ang^3
#
#
#
# Elastic Constant Matrix: (Units=GPa)
#
#
# Indices 1 2 3 4 5 6 
#
# 1 82.4836 43.6386 26.4259 0.0000 0.0000 0.0000
# 2 43.6386 82.4836 26.4259 0.0000 0.0000 0.0000
# 3 26.4259 26.4259 63.8942 0.0000 0.0000 0.0000
# 4 0.0000 0.0000 0.0000 17.6017 0.0000 0.0000
# 5 0.0000 0.0000 0.0000 0.0000 17.6017 0.0000
# 6 0.0000 0.0000 0.0000 0.0000 0.0000 26.4260
#
#
#
# Elastic Compliance Matrix: (Units=1/GPa)
#
#
# Indices 1 2 3 4 5 6 
#
# 1 0.017667 -0.008076 -0.003967 0.000000 0.000000 0.000000
# 2 -0.008076 0.017667 -0.003967 0.000000 0.000000 0.000000
# 3 -0.003967 -0.003967 0.018932 0.000000 0.000000 0.000000
# 4 0.000000 0.000000 0.000000 0.056813 0.000000 0.000000
# 5 0.000000 0.000000 0.000000 0.000000 0.056813 0.000000
# 6 0.000000 0.000000 0.000000 0.000000 0.000000 0.037842
#
#
# Mechanical properties :
#
#
# Convention : Reuss Voigt Hill
#
# Bulk Modulus (GPa) = 44.94947 46.87139 45.91043
# Shear Modulus (GPa) = 20.39415 21.15062 20.77239
#
# Velocity S-wave (km/s) = 3.40767 3.47030 3.43913
# Velocity P-wave (km/s) = 6.40911 6.53799 6.47387
#
# Compressibility (1/GPa) = 0.02224721
#
# Stress axis : x y z
#
# Youngs Moduli (GPa) = 56.60203 56.60203 52.82034
#
# Poissons Ratio (x) = 0.45712 0.20953
# Poissons Ratio (y) = 0.45712 0.20953
# Poissons Ratio (z) = 0.22453 0.22453
#
# Static dielectric constant tensor:
#      x y z
#    x 3.274950 0.000000 0.000000 
#    y 0.000000 3.274950 0.000000 
#    z 0.000000 0.000000 3.282520 
# 
# 
# High freq. dielectric constant tensor:
#      x y z
#    x 1.667160 0.000000 0.000000 
#    y 0.000000 1.667160 0.000000 
#    z 0.000000 0.000000 1.665230 
# 
# From -- ./inp_files/6649.got.cif
#   From: 2010.03.12/outbox.cif.g09.slc.cpg/sg123_4_cif.got.tgz:6649.got - 2010.04.06 16:26:55.
