data_PCOD8312659
_publ_section_title
;
Structure prediction by ZEFSAII (Michael W. Deem and Ramdas Pophale) SiO2 
 PCOD8312659
Probable space group: P 4/M M M
;
_chemical_formula_sum "Si O2"
_cell_formula_units_Z 112
_cell_length_a 22.761933
_cell_length_b 22.761933
_cell_length_c 15.183154
_cell_angle_alpha 90.000000
_cell_angle_beta 90.000000
_cell_angle_gamma 90.000000
_cell_volume 7866.477020
_symmetry_space_group_name_H-M "P 4/M M M"
_symmetry_group_IT_number 123
_symmetry_cell_setting 'tetragonal'
loop_
_space_group_symop_operation_xyz
x,y,z
-y,x,z
-x,-y,z
y,-x,z
x,-y,-z
-x,y,-z
y,x,-z
-y,-x,-z
-x,-y,-z
y,-x,-z
x,y,-z
-y,x,-z
-x,y,z
x,-y,z
-y,-x,z
y,x,z
loop_
_atom_site_type_symbol
_atom_site_label
_atom_site_fract_x
_atom_site_fract_y
_atom_site_fract_z
Si Si1 0.632395 0.269784 0.402738
Si Si2 0.332614 0.933622 0.397145
Si Si3 0.727217 0.430347 0.096533
Si Si4 0.932040 0.433207 0.261217
Si Si5 0.430154 0.858612 0.097002
Si Si6 0.661805 0.568122 0.266551
Si Si7 0.271858 0.819306 0.604085
O O1 0.606511 0.255891 0.500000
O O2 0.675017 0.324984 0.408651
O O3 0.579362 0.285994 0.336992
O O4 0.669339 0.214736 0.364520
O O5 0.347806 0.926119 0.500000
O O6 0.392391 0.918801 0.345249
O O7 0.280417 0.887934 0.369007
O O8 0.310592 0.000000 0.376636
O O9 0.730421 0.500000 0.101583
O O10 0.792833 0.405670 0.112194
O O11 0.683647 0.407668 0.171950
O O12 0.704086 0.410261 0.000000
O O13 0.911493 0.500000 0.283515
O O14 0.899338 0.406323 0.175702
O O15 0.000000 0.432524 0.236704
O O16 0.500000 0.859309 0.099274
O O17 0.409062 0.881100 0.000000
O O18 0.645846 0.500000 0.265363
O O19 0.602646 0.602646 0.291546
O O20 0.268088 0.812980 0.500000
O O21 0.212414 0.787587 0.643367
#
# Coordination Sequence:
#
# PCOD8312659 Si02
#       7
#    16  16  16  16  16  16  16
#     4   8  15  28  43  59  78  97 122 158 193 224
#     4   9  17  27  38  56  85 115 137 161 194 230
#     4   8  15  28  43  57  72  90 114 148 190 232
#     4   9  17  26  36  53  78 109 140 165 191 229
#     4   8  14  25  40  55  71  93 123 161 197 224
#     4  10  20  31  44  60  75  95 120 151 197 249
#     4   8  14  26  43  59  76 102 136 170 198 222
#
# _framework density 14.237632
#
# number of rings (size 3 to 8) (size 9 to 14) (size 15 to 20)
#    0.000    3.429    0.000    1.714    2.000    1.286 
#    0.000    2.857    0.000    2.571    0.000    4.000 
#    0.000    0.286    0.000    4.000    0.000    0.000 
#
# Total GULP energy -1387466.779973 kJ/mol
# GULP energy per Si atom -12388.096250 kJ/mol
# Density = 1.420523 g / cm^3
# Si number density = 14.237632 Si / 1000 Ang^3
#
#
#
# Elastic Constant Matrix: (Units=GPa)
#
#
# Indices 1 2 3 4 5 6 
#
# 1 64.3269 36.3572 30.2119 0.0000 0.0000 0.0000
# 2 36.3572 64.3269 30.2119 0.0000 0.0000 0.0000
# 3 30.2119 30.2119 64.6960 0.0000 0.0000 0.0000
# 4 0.0000 0.0000 0.0000 15.6856 0.0000 0.0000
# 5 0.0000 0.0000 0.0000 0.0000 15.6856 0.0000
# 6 0.0000 0.0000 0.0000 0.0000 0.0000 14.7608
#
#
#
# Elastic Compliance Matrix: (Units=1/GPa)
#
#
# Indices 1 2 3 4 5 6 
#
# 1 0.024776 -0.010977 -0.006444 0.000000 0.000000 0.000000
# 2 -0.010977 0.024776 -0.006444 0.000000 0.000000 0.000000
# 3 -0.006444 -0.006444 0.021475 0.000000 0.000000 0.000000
# 4 0.000000 0.000000 0.000000 0.063753 0.000000 0.000000
# 5 0.000000 0.000000 0.000000 0.000000 0.063753 0.000000
# 6 0.000000 0.000000 0.000000 0.000000 0.000000 0.067747
#
#
# Mechanical properties :
#
#
# Convention : Reuss Voigt Hill
#
# Bulk Modulus (GPa) = 42.92231 42.99019 42.95625
# Shear Modulus (GPa) = 15.53877 15.66433 15.60155
#
# Velocity S-wave (km/s) = 3.30720 3.32053 3.31387
# Velocity P-wave (km/s) = 6.69298 6.70534 6.69916
#
# Compressibility (1/GPa) = 0.02329791
#
# Stress axis : x y z
#
# Youngs Moduli (GPa) = 40.36147 40.36147 46.56493
#
# Poissons Ratio (x) = 0.44304 0.30007
# Poissons Ratio (y) = 0.44304 0.30007
# Poissons Ratio (z) = 0.26009 0.26009
#
# Static dielectric constant tensor:
#      x y z
#    x 2.709260 0.000000 0.000000 
#    y 0.000000 2.709260 0.000000 
#    z 0.000000 0.000000 3.014860 
# 
# 
# High freq. dielectric constant tensor:
#      x y z
#    x 1.515610 0.000000 0.000000 
#    y 0.000000 1.515610 0.000000 
#    z 0.000000 0.000000 1.541180 
# 
# From -- ./inp_files/3431.got.cif
#   From: 2010.03.12/outbox.cif.g09.slc.cpg/sg123_2_cif.got.tgz:3431.got - 2010.04.06 16:26:55.
