data_PCOD8312529
_publ_section_title
;
Structure prediction by ZEFSAII (Michael W. Deem and Ramdas Pophale) SiO2 
 PCOD8312529
Probable space group: P 4/M M M
;
_chemical_formula_sum "Si O2"
_cell_formula_units_Z 96
_cell_length_a 17.059315
_cell_length_b 17.059315
_cell_length_c 20.518932
_cell_angle_alpha 90.000000
_cell_angle_beta 90.000000
_cell_angle_gamma 90.000000
_cell_volume 5971.424274
_symmetry_space_group_name_H-M "P 4/M M M"
_symmetry_group_IT_number 123
_symmetry_cell_setting 'tetragonal'
loop_
_space_group_symop_operation_xyz
x,y,z
-y,x,z
-x,-y,z
y,-x,z
x,-y,-z
-x,y,-z
y,x,-z
-y,-x,-z
-x,-y,-z
y,-x,-z
x,y,-z
-y,x,-z
-x,y,z
x,-y,z
-y,-x,z
y,x,z
loop_
_atom_site_type_symbol
_atom_site_label
_atom_site_fract_x
_atom_site_fract_y
_atom_site_fract_z
Si Si1 0.797516 0.333865 0.072556
Si Si2 0.205919 0.663305 0.309253
Si Si3 0.717336 0.410075 0.573744
Si Si4 0.911280 0.785635 0.276257
Si Si5 0.213853 0.088502 0.121860
Si Si6 0.411030 0.720547 0.188856
O O1 0.734710 0.265291 0.076785
O O2 0.880765 0.295164 0.091064
O O3 0.772080 0.400503 0.123435
O O4 0.801754 0.370509 0.000000
O O5 0.267221 0.732780 0.302084
O O6 0.213990 0.618295 0.377999
O O7 0.120433 0.703438 0.305902
O O8 0.221800 0.604013 0.249877
O O9 0.747427 0.396962 0.500000
O O10 0.696226 0.500000 0.587142
O O11 0.637947 0.362054 0.587614
O O12 0.860040 0.860040 0.300334
O O13 0.906205 0.778064 0.199057
O O14 0.000000 0.798331 0.300572
O O15 0.139846 0.139846 0.097732
O O16 0.199866 0.000000 0.098060
O O17 0.500000 0.690101 0.191581
O O18 0.355400 0.644601 0.190319
#
# Coordination Sequence:
#
# PCOD8312529 Si02
#       6
#    16  16  16  16  16  16
#     4   9  17  30  46  62  83 116 155 185 214 264
#     4   9  16  29  47  66  91 123 156 184 212 257
#     4   9  17  28  44  68  96 125 155 187 224 266
#     4   9  16  27  46  70  95 121 149 184 224 265
#     4   9  16  27  44  67  93 119 148 182 221 265
#     4  10  19  31  48  68  88 112 144 184 229 272
#
# _framework density 16.076566
#
# number of rings (size 3 to 8) (size 9 to 14) (size 15 to 20)
#    0.000    2.833    1.667    0.500    0.000    1.333 
#    0.000    2.500    0.000    7.000    0.000    7.000 
#    0.000    0.000    0.000    6.500    0.000    0.167 
#
# Total GULP energy -1190064.419853 kJ/mol
# GULP energy per Si atom -12396.504373 kJ/mol
# Density = 1.603997 g / cm^3
# Si number density = 16.076566 Si / 1000 Ang^3
#
#
#
# Elastic Constant Matrix: (Units=GPa)
#
#
# Indices 1 2 3 4 5 6 
#
# 1 76.7670 57.8329 41.7058 0.0000 0.0000 0.0000
# 2 57.8329 76.7670 41.7058 0.0000 0.0000 0.0000
# 3 41.7058 41.7058 86.1885 0.0000 0.0000 0.0000
# 4 0.0000 0.0000 0.0000 17.0828 0.0000 0.0000
# 5 0.0000 0.0000 0.0000 0.0000 17.0828 0.0000
# 6 0.0000 0.0000 0.0000 0.0000 0.0000 16.7976
#
#
#
# Elastic Compliance Matrix: (Units=1/GPa)
#
#
# Indices 1 2 3 4 5 6 
#
# 1 0.031713 -0.021102 -0.005135 0.000000 0.000000 0.000000
# 2 -0.021102 0.031713 -0.005135 0.000000 0.000000 0.000000
# 3 -0.005135 -0.005135 0.016572 0.000000 0.000000 0.000000
# 4 0.000000 0.000000 0.000000 0.058538 0.000000 0.000000
# 5 0.000000 0.000000 0.000000 0.000000 0.058538 0.000000
# 6 0.000000 0.000000 0.000000 0.000000 0.000000 0.059532
#
#
# Mechanical properties :
#
#
# Convention : Reuss Voigt Hill
#
# Bulk Modulus (GPa) = 57.95220 58.02349 57.98785
# Shear Modulus (GPa) = 15.37981 16.75784 16.06882
#
# Velocity S-wave (km/s) = 3.09635 3.23209 3.16495
# Velocity P-wave (km/s) = 6.99350 7.07805 7.03590
#
# Compressibility (1/GPa) = 0.01725560
#
# Stress axis : x y z
#
# Youngs Moduli (GPa) = 31.53273 31.53273 60.34346
#
# Poissons Ratio (x) = 0.66539 0.30985
# Poissons Ratio (y) = 0.66539 0.30985
# Poissons Ratio (z) = 0.16191 0.16191
#
# Static dielectric constant tensor:
#      x y z
#    x 2.963580 0.000000 0.000000 
#    y 0.000000 2.963580 0.000000 
#    z 0.000000 0.000000 3.123090 
# 
# 
# High freq. dielectric constant tensor:
#      x y z
#    x 1.599210 0.000000 0.000000 
#    y 0.000000 1.599210 0.000000 
#    z 0.000000 0.000000 1.611980 
# 
# From -- ./inp_files/5459.got.cif
#   From: 2010.03.12/outbox.cif.g09.slc.cpg/sg123_3_cif.got.tgz:5459.got - 2010.04.06 16:26:55.
