data_PCOD8312816
_publ_section_title
;
Structure prediction by ZEFSAII (Michael W. Deem and Ramdas Pophale) SiO2 
 PCOD8312816
Probable space group: P 4/M M M
;
_chemical_formula_sum "Si O2"
_cell_formula_units_Z 104
_cell_length_a 17.701494
_cell_length_b 17.701494
_cell_length_c 18.329027
_cell_angle_alpha 90.000000
_cell_angle_beta 90.000000
_cell_angle_gamma 90.000000
_cell_volume 5743.270288
_symmetry_space_group_name_H-M "P 4/M M M"
_symmetry_group_IT_number 123
_symmetry_cell_setting 'tetragonal'
loop_
_space_group_symop_operation_xyz
x,y,z
-y,x,z
-x,-y,z
y,-x,z
x,-y,-z
-x,y,-z
y,x,-z
-y,-x,-z
-x,-y,-z
y,-x,-z
x,y,-z
-y,x,-z
-x,y,z
x,-y,z
-y,-x,z
y,x,z
loop_
_atom_site_type_symbol
_atom_site_label
_atom_site_fract_x
_atom_site_fract_y
_atom_site_fract_z
Si Si1 0.291030 0.414477 0.341428
Si Si2 0.500000 0.917130 0.913449
Si Si3 0.690663 0.182399 0.582232
Si Si4 0.913835 0.209056 0.322067
Si Si5 0.790488 0.087338 0.846718
Si Si6 0.585516 0.702152 0.826686
Si Si7 0.648427 0.832173 0.914005
O O1 0.309079 0.500000 0.365543
O O2 0.364526 0.364526 0.360333
O O3 0.217416 0.385866 0.384920
O O4 0.269845 0.410513 0.256381
O O5 0.575232 0.876923 0.885188
O O6 0.500000 0.000000 0.878877
O O7 0.500000 0.920671 0.000000
O O8 0.675481 0.154425 0.500000
O O9 0.754016 0.245985 0.584904
O O10 0.718907 0.111904 0.630427
O O11 0.865032 0.134969 0.341304
O O12 0.904428 0.231770 0.237753
O O13 0.000000 0.189232 0.341158
O O14 0.868213 0.131788 0.863543
O O15 0.723761 0.122765 0.894366
O O16 0.802453 0.000000 0.868931
O O17 0.500000 0.704659 0.857254
O O18 0.616126 0.616126 0.831535
O O19 0.643191 0.751997 0.874257
O O20 0.647062 0.818670 0.000000
#
# Coordination Sequence:
#
# PCOD8312816 Si02
#       7
#    16   8  16  16  16  16  16
#     4   9  18  32  51  75 102 134 171 212 256 303
#     4   9  18  32  50  72  99 127 156 204 265 314
#     4   9  17  30  49  73 102 136 171 204 244 299
#     4   9  18  33  53  77 105 136 171 211 254 301
#     4  10  21  36  55  79 107 140 176 216 263 315
#     4  10  20  34  52  75 104 137 173 214 261 312
#     4  11  21  35  54  77 103 133 174 220 266 316
#
# _framework density 18.108149999999998
#
# number of rings (size 3 to 8) (size 9 to 14) (size 15 to 20)
#    0.000    2.385    0.769    1.846    0.000    5.846 
#    0.000    3.077    0.000    0.462    0.000    7.538 
#    0.000    0.000    0.000    0.000    0.000    0.000 
#
# Total GULP energy -1289577.866956 kJ/mol
# GULP energy per Si atom -12399.787182 kJ/mol
# Density = 1.806693 g / cm^3
# Si number density = 18.108150 Si / 1000 Ang^3
#
#
#
# Elastic Constant Matrix: (Units=GPa)
#
#
# Indices 1 2 3 4 5 6 
#
# 1 92.3654 42.6507 28.2358 0.0000 0.0000 0.0000
# 2 42.6507 92.3654 28.2358 0.0000 0.0000 0.0000
# 3 28.2358 28.2358 56.6004 0.0000 0.0000 0.0000
# 4 0.0000 0.0000 0.0000 20.3443 0.0000 0.0000
# 5 0.0000 0.0000 0.0000 0.0000 20.3443 0.0000
# 6 0.0000 0.0000 0.0000 0.0000 0.0000 23.6050
#
#
#
# Elastic Compliance Matrix: (Units=1/GPa)
#
#
# Indices 1 2 3 4 5 6 
#
# 1 0.014737 -0.005378 -0.004669 0.000000 0.000000 0.000000
# 2 -0.005378 0.014737 -0.004669 0.000000 0.000000 0.000000
# 3 -0.004669 -0.004669 0.022326 0.000000 0.000000 0.000000
# 4 0.000000 0.000000 0.000000 0.049154 0.000000 0.000000
# 5 0.000000 0.000000 0.000000 0.000000 0.049154 0.000000
# 6 0.000000 0.000000 0.000000 0.000000 0.000000 0.042364
#
#
# Mechanical properties :
#
#
# Convention : Reuss Voigt Hill
#
# Bulk Modulus (GPa) = 44.70525 48.84175 46.77350
# Shear Modulus (GPa) = 21.79985 22.33934 22.06959
#
# Velocity S-wave (km/s) = 3.47345 3.51616 3.49487
# Velocity P-wave (km/s) = 6.38968 6.59662 6.49397
#
# Compressibility (1/GPa) = 0.02236874
#
# Stress axis : x y z
#
# Youngs Moduli (GPa) = 67.85609 67.85609 44.79059
#
# Poissons Ratio (x) = 0.36491 0.20913
# Poissons Ratio (y) = 0.36491 0.20913
# Poissons Ratio (z) = 0.31682 0.31682
#
# Static dielectric constant tensor:
#      x y z
#    x 3.361260 0.000000 0.000000 
#    y 0.000000 3.361260 0.000000 
#    z 0.000000 0.000000 3.271110 
# 
# 
# High freq. dielectric constant tensor:
#      x y z
#    x 1.697390 0.000000 0.000000 
#    y 0.000000 1.697390 0.000000 
#    z 0.000000 0.000000 1.690590 
# 
# From -- ./inp_files/5628.got.cif
#   From: 2010.03.12/outbox.cif.g09.slc.cpg/sg123_3_cif.got.tgz:5628.got - 2010.04.06 16:26:55.
