data_PCOD8312780
_publ_section_title
;
Structure prediction by ZEFSAII (Michael W. Deem and Ramdas Pophale) SiO2 
 PCOD8312780
Probable space group: P 4/M M M
;
_chemical_formula_sum "Si O2"
_cell_formula_units_Z 88
_cell_length_a 13.219162
_cell_length_b 13.219162
_cell_length_c 28.476560
_cell_angle_alpha 90.000000
_cell_angle_beta 90.000000
_cell_angle_gamma 90.000000
_cell_volume 4976.171902
_symmetry_space_group_name_H-M "P 4/M M M"
_symmetry_group_IT_number 123
_symmetry_cell_setting 'tetragonal'
loop_
_space_group_symop_operation_xyz
x,y,z
-y,x,z
-x,-y,z
y,-x,z
x,-y,-z
-x,y,-z
y,x,-z
-y,-x,-z
-x,-y,-z
y,-x,-z
x,y,-z
-y,x,-z
-x,y,z
x,-y,z
-y,-x,z
y,x,z
loop_
_atom_site_type_symbol
_atom_site_label
_atom_site_fract_x
_atom_site_fract_y
_atom_site_fract_z
Si Si1 0.887547 0.381217 0.355776
Si Si2 0.278316 0.117315 0.448608
Si Si3 0.381567 0.215810 0.088543
Si Si4 0.284437 0.118243 0.000000
Si Si5 0.715903 0.117911 0.177164
Si Si6 0.380761 0.220165 0.262365
O O1 0.894046 0.500000 0.354744
O O2 0.842765 0.349460 0.406527
O O3 0.816305 0.344204 0.313680
O O4 0.000000 0.335368 0.348558
O O5 0.328449 0.140090 0.500000
O O6 0.170494 0.170494 0.444548
O O7 0.256568 0.000000 0.442862
O O8 0.500000 0.240914 0.086781
O O9 0.322220 0.322220 0.086789
O O10 0.356212 0.154375 0.135403
O O11 0.350766 0.145433 0.045194
O O12 0.178463 0.178463 0.000000
O O13 0.258018 0.000000 0.000000
O O14 0.821931 0.178070 0.176432
O O15 0.654777 0.136258 0.225199
O O16 0.741249 0.000000 0.171944
O O17 0.500000 0.237323 0.259053
O O18 0.326944 0.326944 0.251281
#
# Coordination Sequence:
#
# PCOD8312780 Si02
#       6
#    16  16  16   8  16  16
#     4   9  17  29  46  67  89 115 149 189 233 279
#     4   9  17  28  42  61  86 116 148 183 224 270
#     4  10  21  36  54  78 106 136 172 211 251 297
#     4  10  21  36  54  78 106 136 173 214 256 304
#     4  10  21  36  54  77 103 131 165 203 243 290
#     4  10  20  33  50  72  97 126 160 197 238 285
#
# _framework density 17.684277999999999
#
# number of rings (size 3 to 8) (size 9 to 14) (size 15 to 20)
#    0.000    2.364    0.000    2.455    0.000    4.818 
#    0.000    2.727    0.000    8.182    0.000    2.545 
#    0.000    0.000    0.000   16.909    0.000    0.364 
#
# Total GULP energy -1091003.546499 kJ/mol
# GULP energy per Si atom -12397.767574 kJ/mol
# Density = 1.764403 g / cm^3
# Si number density = 17.684278 Si / 1000 Ang^3
#
#
#
# Elastic Constant Matrix: (Units=GPa)
#
#
# Indices 1 2 3 4 5 6 
#
# 1 436.9189 -298.2686 42.9464 0.0000 0.0000 0.0000
# 2 -298.2686 436.9189 42.9464 0.0000 0.0000 0.0000
# 3 42.9464 42.9464 136.3543 0.0000 0.0000 0.0000
# 4 0.0000 0.0000 0.0000 19.8431 0.0000 0.0000
# 5 0.0000 0.0000 0.0000 0.0000 19.8431 0.0000
# 6 0.0000 0.0000 0.0000 0.0000 0.0000 16.5903
#
#
#
# Elastic Compliance Matrix: (Units=1/GPa)
#
#
# Indices 1 2 3 4 5 6 
#
# 1 0.005160 0.003800 -0.002822 0.000000 0.000000 0.000000
# 2 0.003800 0.005160 -0.002822 0.000000 0.000000 0.000000
# 3 -0.002822 -0.002822 0.009112 0.000000 0.000000 0.000000
# 4 0.000000 0.000000 0.000000 0.050395 0.000000 0.000000
# 5 0.000000 0.000000 0.000000 0.000000 0.050395 0.000000
# 6 0.000000 0.000000 0.000000 0.000000 0.000000 0.060276
#
#
# Mechanical properties :
#
#
# Convention : Reuss Voigt Hill
#
# Bulk Modulus (GPa) = 63.51614 65.04892 64.28253
# Shear Modulus (GPa) = 26.39411 92.75983 59.57697
#
# Velocity S-wave (km/s) = 3.86750 7.25032 5.81054
# Velocity P-wave (km/s) = 7.47918 10.34180 9.02472
#
# Compressibility (1/GPa) = 0.01574403
#
# Stress axis : x y z
#
# Youngs Moduli (GPa) = 193.77994 193.77994 109.74935
#
# Poissons Ratio (x) = -0.73642 0.30975
# Poissons Ratio (y) = -0.73642 0.30975
# Poissons Ratio (z) = 0.54691 0.54691
#
# Static dielectric constant tensor:
#      x y z
#    x 3.128970 0.000000 0.000000 
#    y 0.000000 3.128970 0.000000 
#    z 0.000000 0.000000 3.724000 
# 
# 
# High freq. dielectric constant tensor:
#      x y z
#    x 1.671540 0.000000 0.000000 
#    y 0.000000 1.671540 0.000000 
#    z 0.000000 0.000000 1.709990 
# 
# From -- ./inp_files/8484.got.cif
#   From: 2010.03.12/outbox.cif.g09.slc.cpg/sg123_5_cif.got.tgz:8484.got - 2010.04.06 16:26:55.
