data_PCOD8312033
_publ_section_title
;
Structure prediction by ZEFSAII (Michael W. Deem and Ramdas Pophale) SiO2 
 PCOD8312033
Probable space group: I -4 2 D
;
_chemical_formula_sum "Si O2"
_cell_formula_units_Z 64
_cell_length_a 18.007628
_cell_length_b 18.007628
_cell_length_c 10.389616
_cell_angle_alpha 90.000000
_cell_angle_beta 90.000000
_cell_angle_gamma 90.000000
_cell_volume 3369.089260
_symmetry_space_group_name_H-M "I -4 2 D"
_symmetry_group_IT_number 122
_symmetry_cell_setting 'tetragonal'
loop_
_space_group_symop_operation_xyz
x,y,z
y,-x,-z
-x,-y,z
-y,x,-z
x,1/2-y,1/4-z
-x,1/2+y,1/4-z
-y,1/2-x,1/4+z
y,1/2+x,1/4+z
1/2+x,1/2+y,1/2+z
1/2+y,1/2-x,1/2-z
1/2-x,1/2-y,1/2+z
1/2-y,1/2+x,1/2-z
1/2+x,-y,3/4-z
1/2-x,y,3/4-z
1/2-y,-x,3/4+z
1/2+y,x,3/4+z
loop_
_atom_site_type_symbol
_atom_site_label
_atom_site_fract_x
_atom_site_fract_y
_atom_site_fract_z
Si Si1 0.234187 0.407940 0.075451
Si Si2 0.750000 0.470504 0.875000
Si Si3 0.750000 0.785071 0.375000
Si Si4 0.901092 0.936007 0.997781
Si Si5 0.660908 0.148888 0.510302
O O1 0.156243 0.431774 0.135308
O O2 0.290646 0.388007 0.187906
O O3 0.269844 0.476377 0.995581
O O4 0.217036 0.336455 0.987556
O O5 0.680299 0.418484 0.836666
O O6 0.816198 0.736652 0.434469
O O7 0.878638 0.886470 0.878442
O O8 0.979615 0.907126 0.051997
#
# Coordination Sequence:
#
# PCOD8312033 Si02
#       5
#    16   8   8  16  16
#     4  11  23  41  64  97 124 173 209 259 328 372
#     4  11  24  42  64  93 136 158 212 267 316 388
#     4  11  22  36  68  91 124 156 218 263 312 374
#     4  11  24  42  63  92 132 169 213 261 319 388
#     4  12  22  42  65  94 126 165 214 267 311 381
#
# _framework density 18.996231999999999
#
# number of rings (size 3 to 8) (size 9 to 14) (size 15 to 20)
#    0.000    0.750    7.500    0.000    0.000    2.000 
#    4.500    0.000    0.000    0.000    0.000    0.000 
#    0.000    0.000    0.000    0.000    0.000    0.000 
#
# Total GULP energy -396877.561483 kJ/mol
# GULP energy per Si atom -12402.423796 kJ/mol
# Density = 1.895300 g / cm^3
# Si number density = 18.996232 Si / 1000 Ang^3
#
#
#
# Elastic Constant Matrix: (Units=GPa)
#
#
# Indices 1 2 3 4 5 6 
#
# 1 117.8421 48.3075 47.4925 0.0000 0.0000 0.0000
# 2 48.3075 117.8421 47.4925 0.0000 0.0000 0.0000
# 3 47.4925 47.4925 87.6377 0.0000 0.0000 0.0000
# 4 0.0000 0.0000 0.0000 14.3436 0.0000 0.0000
# 5 0.0000 0.0000 0.0000 0.0000 14.3436 0.0000
# 6 0.0000 0.0000 0.0000 0.0000 0.0000 25.9762
#
#
#
# Elastic Compliance Matrix: (Units=1/GPa)
#
#
# Indices 1 2 3 4 5 6 
#
# 1 0.011551 -0.002831 -0.004726 0.000000 0.000000 0.000000
# 2 -0.002831 0.011551 -0.004726 0.000000 0.000000 0.000000
# 3 -0.004726 -0.004726 0.016532 0.000000 0.000000 0.000000
# 4 0.000000 0.000000 0.000000 0.069717 0.000000 0.000000
# 5 0.000000 0.000000 0.000000 0.000000 0.069717 0.000000
# 6 0.000000 0.000000 0.000000 0.000000 0.000000 0.038497
#
#
# Mechanical properties :
#
#
# Convention : Reuss Voigt Hill
#
# Bulk Modulus (GPa) = 66.35566 67.76746 67.06156
# Shear Modulus (GPa) = 20.23040 22.93465 21.58252
#
# Velocity S-wave (km/s) = 3.26693 3.47843 3.37434
# Velocity P-wave (km/s) = 7.01692 7.20307 7.11061
#
# Compressibility (1/GPa) = 0.01507030
#
# Stress axis : x y z
#
# Youngs Moduli (GPa) = 86.57415 86.57415 60.48705
#
# Poissons Ratio (x) = 0.24505 0.28584
# Poissons Ratio (y) = 0.24505 0.28584
# Poissons Ratio (z) = 0.40912 0.40912
#
# Static dielectric constant tensor:
#      x y z
#    x 3.875360 0.000000 0.000000 
#    y 0.000000 3.875360 0.000000 
#    z 0.000000 0.000000 3.608960 
# 
# 
# High freq. dielectric constant tensor:
#      x y z
#    x 1.742890 0.000000 0.000000 
#    y 0.000000 1.742890 0.000000 
#    z 0.000000 0.000000 1.749000 
# 
# From -- ./inp_files/4099.got.cif
#   From: 2010.03.12/outbox.cif.g09.slc.cpg/sg122_3_cif.got.tgz:4099.got - 2010.04.06 16:17:16.
