data_PCOD8312183
_publ_section_title
;
Structure prediction by ZEFSAII (Michael W. Deem and Ramdas Pophale) SiO2 
 PCOD8312183
Probable space group: P 4/M M M
;
_chemical_formula_sum "Si O2"
_cell_formula_units_Z 64
_cell_length_a 24.036444
_cell_length_b 24.036444
_cell_length_c 7.827707
_cell_angle_alpha 90.000000
_cell_angle_beta 90.000000
_cell_angle_gamma 90.000000
_cell_volume 4522.462730
_symmetry_space_group_name_H-M "P 4/M M M"
_symmetry_group_IT_number 123
_symmetry_cell_setting 'tetragonal'
loop_
_space_group_symop_operation_xyz
x,y,z
-y,x,z
-x,-y,z
y,-x,z
x,-y,-z
-x,y,-z
y,x,-z
-y,-x,-z
-x,-y,-z
y,-x,-z
x,y,-z
-y,x,-z
-x,y,z
x,-y,z
-y,-x,z
y,x,z
loop_
_atom_site_type_symbol
_atom_site_label
_atom_site_fract_x
_atom_site_fract_y
_atom_site_fract_z
Si Si1 0.205277 0.295833 0.500000
Si Si2 0.153955 0.353529 0.808074
Si Si3 0.387626 0.301178 0.500000
Si Si4 0.437746 0.064546 0.300580
Si Si5 0.747236 0.437300 0.187429
O O1 0.234012 0.234012 0.500000
O O2 0.166058 0.304669 0.668674
O O3 0.254217 0.340500 0.500000
O O4 0.096010 0.386324 0.788110
O O5 0.199538 0.400309 0.778488
O O6 0.156728 0.327803 0.000000
O O7 0.361866 0.361866 0.500000
O O8 0.425045 0.298505 0.330587
O O9 0.434759 0.077619 0.500000
O O10 0.500000 0.081606 0.233761
O O11 0.427957 0.000000 0.261917
O O12 0.768250 0.500000 0.203430
O O13 0.721260 0.425365 0.000000
#
# Coordination Sequence:
#
# PCOD8312183 Si02
#       5
#     8  16   8  16  16
#     4   9  18  31  42  55  75  97 125 162 200 236
#     4  10  18  28  43  60  77 101 131 160 195 235
#     4   9  17  27  39  54  71  94 117 138 173 215
#     4   9  17  28  41  58  82 111 140 169 201 238
#     4   9  17  27  39  56  75  94 117 144 174 213
#
# _framework density 14.151581
#
# number of rings (size 3 to 8) (size 9 to 14) (size 15 to 20)
#    0.000    2.750    1.250    1.875    0.000    3.000 
#    0.000    6.250    0.000    0.000    0.000    0.000 
#    0.000    4.000    0.000   11.000    0.000    1.000 
#
# Total GULP energy -792986.758277 kJ/mol
# GULP energy per Si atom -12390.418098 kJ/mol
# Density = 1.411937 g / cm^3
# Si number density = 14.151581 Si / 1000 Ang^3
#
#
#
# Elastic Constant Matrix: (Units=GPa)
#
#
# Indices 1 2 3 4 5 6 
#
# 1 38.3035 23.5927 31.7430 0.0000 0.0000 0.0000
# 2 23.5927 38.3035 31.7430 0.0000 0.0000 0.0000
# 3 31.7430 31.7430 104.6986 0.0000 0.0000 0.0000
# 4 0.0000 0.0000 0.0000 9.6006 0.0000 0.0000
# 5 0.0000 0.0000 0.0000 0.0000 9.6006 0.0000
# 6 0.0000 0.0000 0.0000 0.0000 0.0000 23.7913
#
#
#
# Elastic Compliance Matrix: (Units=1/GPa)
#
#
# Indices 1 2 3 4 5 6 
#
# 1 0.045713 -0.022265 -0.007109 0.000000 0.000000 0.000000
# 2 -0.022265 0.045713 -0.007109 0.000000 0.000000 0.000000
# 3 -0.007109 -0.007109 0.013862 0.000000 0.000000 0.000000
# 4 0.000000 0.000000 0.000000 0.104161 0.000000 0.000000
# 5 0.000000 0.000000 0.000000 0.000000 0.104161 0.000000
# 6 0.000000 0.000000 0.000000 0.000000 0.000000 0.042032
#
#
# Mechanical properties :
#
#
# Convention : Reuss Voigt Hill
#
# Bulk Modulus (GPa) = 30.93935 39.49588 35.21762
# Shear Modulus (GPa) = 11.37969 14.88029 13.12999
#
# Velocity S-wave (km/s) = 2.83879 3.24619 3.04930
# Velocity P-wave (km/s) = 5.71448 6.48229 6.11046
#
# Compressibility (1/GPa) = 0.03232130
#
# Stress axis : x y z
#
# Youngs Moduli (GPa) = 21.87585 21.87585 72.14039
#
# Poissons Ratio (x) = 0.48706 0.51284
# Poissons Ratio (y) = 0.48706 0.51284
# Poissons Ratio (z) = 0.15551 0.15551
#
# Static dielectric constant tensor:
#      x y z
#    x 2.583650 0.000000 0.000000 
#    y 0.000000 2.583650 0.000000 
#    z 0.000000 0.000000 3.068120 
# 
# 
# High freq. dielectric constant tensor:
#      x y z
#    x 1.498070 0.000000 0.000000 
#    y 0.000000 1.498070 0.000000 
#    z 0.000000 0.000000 1.560740 
# 
# From -- ./inp_files/939.got.cif
#   From: 2010.03.12/outbox.cif.g09.slc.cpg/sg123_1_cif.got.tgz:939.got - 2010.04.06 16:26:55.
