data_PCOD8312507
_publ_section_title
;
Structure prediction by ZEFSAII (Michael W. Deem and Ramdas Pophale) SiO2 
 PCOD8312507
Probable space group: P 4/M M M
;
_chemical_formula_sum "Si O2"
_cell_formula_units_Z 96
_cell_length_a 20.436033
_cell_length_b 20.436033
_cell_length_c 18.005476
_cell_angle_alpha 90.000000
_cell_angle_beta 90.000000
_cell_angle_gamma 90.000000
_cell_volume 7519.652956
_symmetry_space_group_name_H-M "P 4/M M M"
_symmetry_group_IT_number 123
_symmetry_cell_setting 'tetragonal'
loop_
_space_group_symop_operation_xyz
x,y,z
-y,x,z
-x,-y,z
y,-x,z
x,-y,-z
-x,y,-z
y,x,-z
-y,-x,-z
-x,-y,-z
y,-x,-z
x,y,-z
-y,x,-z
-x,y,z
x,-y,z
-y,-x,z
y,x,z
loop_
_atom_site_type_symbol
_atom_site_label
_atom_site_fract_x
_atom_site_fract_y
_atom_site_fract_z
Si Si1 0.819766 0.922520 0.000000
Si Si2 0.077927 0.572370 0.347146
Si Si3 0.923178 0.181790 0.693639
Si Si4 0.923240 0.755154 0.848316
Si Si5 0.078058 0.613202 0.813751
Si Si6 0.704385 0.077645 0.417478
Si Si7 0.500000 0.077998 0.917983
O O1 0.782539 0.896369 0.073566
O O2 0.892140 0.892140 0.000000
O O3 0.828552 0.000000 0.000000
O O4 0.103192 0.500000 0.372918
O O5 0.104260 0.586906 0.264654
O O6 0.104586 0.631316 0.398978
O O7 0.000000 0.572017 0.347814
O O8 0.883126 0.116875 0.671167
O O9 0.907387 0.197397 0.779480
O O10 0.898420 0.241893 0.642115
O O11 0.000000 0.167712 0.681155
O O12 0.891832 0.684315 0.831711
O O13 0.000000 0.746181 0.856582
O O14 0.103713 0.564579 0.877027
O O15 0.000000 0.616355 0.811107
O O16 0.723718 0.102130 0.500000
O O17 0.702071 0.000000 0.413956
O O18 0.500000 0.000000 0.919522
O O19 0.500000 0.107975 0.000000
#
# Coordination Sequence:
#
# PCOD8312507 Si02
#       7
#     8  16  16  16  16  16   8
#     4  10  20  31  42  55  67  81 107 145 189 237
#     4   9  14  22  37  55  74  95 114 132 159 201
#     4  10  19  31  45  57  70  90 118 155 199 243
#     4   9  17  28  41  54  69  89 112 139 178 226
#     4   9  14  22  34  49  70  94 114 132 157 197
#     4   9  17  28  40  55  74  93 113 140 177 222
#     4   9  16  20  28  50  75  95 115 135 154 184
#
# _framework density 12.766546
#
# number of rings (size 3 to 8) (size 9 to 14) (size 15 to 20)
#    0.000    2.750    2.500    0.500    1.167    0.917 
#    0.000    1.667    0.000    3.000    0.000    2.333 
#    0.000    0.000    0.000    0.000    0.000    0.000 
#
# Total GULP energy -1189615.856123 kJ/mol
# GULP energy per Si atom -12391.831835 kJ/mol
# Density = 1.273749 g / cm^3
# Si number density = 12.766546 Si / 1000 Ang^3
#
#
#
# Elastic Constant Matrix: (Units=GPa)
#
#
# Indices 1 2 3 4 5 6 
#
# 1 48.8707 28.0947 22.2096 0.0000 0.0000 0.0000
# 2 28.0947 48.8707 22.2096 0.0000 0.0000 0.0000
# 3 22.2096 22.2096 90.5620 0.0000 0.0000 0.0000
# 4 0.0000 0.0000 0.0000 10.7162 0.0000 0.0000
# 5 0.0000 0.0000 0.0000 0.0000 10.7162 0.0000
# 6 0.0000 0.0000 0.0000 0.0000 0.0000 0.9767
#
#
#
# Elastic Compliance Matrix: (Units=1/GPa)
#
#
# Indices 1 2 3 4 5 6 
#
# 1 0.031634 -0.016499 -0.003712 0.000000 0.000000 0.000000
# 2 -0.016499 0.031634 -0.003712 0.000000 0.000000 0.000000
# 3 -0.003712 -0.003712 0.012863 0.000000 0.000000 0.000000
# 4 0.000000 0.000000 0.000000 0.093316 0.000000 0.000000
# 5 0.000000 0.000000 0.000000 0.000000 0.093316 0.000000
# 6 0.000000 0.000000 0.000000 0.000000 0.000000 1.023828
#
#
# Mechanical properties :
#
#
# Convention : Reuss Voigt Hill
#
# Bulk Modulus (GPa) = 35.35346 37.03679 36.19513
# Shear Modulus (GPa) = 3.72061 12.20114 7.96088
#
# Velocity S-wave (km/s) = 1.70900 3.09481 2.49985
# Velocity P-wave (km/s) = 5.62553 6.46872 6.06180
#
# Compressibility (1/GPa) = 0.02828578
#
# Stress axis : x y z
#
# Youngs Moduli (GPa) = 31.61183 31.61183 77.74413
#
# Poissons Ratio (x) = 0.52155 0.28857
# Poissons Ratio (y) = 0.52155 0.28857
# Poissons Ratio (z) = 0.11733 0.11733
#
# Static dielectric constant tensor:
#      x y z
#    x 2.369840 0.000000 0.000000 
#    y 0.000000 2.369840 0.000000 
#    z 0.000000 0.000000 2.839920 
# 
# 
# High freq. dielectric constant tensor:
#      x y z
#    x 1.441920 0.000000 0.000000 
#    y 0.000000 1.441920 0.000000 
#    z 0.000000 0.000000 1.502720 
# 
# From -- ./inp_files/5823.got.cif
#   From: 2010.03.12/outbox.cif.g09.slc.cpg/sg123_3_cif.got.tgz:5823.got - 2010.04.06 16:26:55.
