data_PCOD8312347
_publ_section_title
;
Structure prediction by ZEFSAII (Michael W. Deem and Ramdas Pophale) SiO2 
 PCOD8312347
Probable space group: P 4/M M M
;
_chemical_formula_sum "Si O2"
_cell_formula_units_Z 88
_cell_length_a 13.885341
_cell_length_b 13.885341
_cell_length_c 28.348090
_cell_angle_alpha 90.000000
_cell_angle_beta 90.000000
_cell_angle_gamma 90.000000
_cell_volume 5465.588141
_symmetry_space_group_name_H-M "P 4/M M M"
_symmetry_group_IT_number 123
_symmetry_cell_setting 'tetragonal'
loop_
_space_group_symop_operation_xyz
x,y,z
-y,x,z
-x,-y,z
y,-x,z
x,-y,-z
-x,y,-z
y,x,-z
-y,-x,-z
-x,-y,-z
y,-x,-z
x,y,-z
-y,x,-z
-x,y,z
x,-y,z
-y,-x,z
y,x,z
loop_
_atom_site_type_symbol
_atom_site_label
_atom_site_fract_x
_atom_site_fract_y
_atom_site_fract_z
Si Si1 0.269373 0.113141 0.320439
Si Si2 0.392143 0.113945 0.409478
Si Si3 0.892547 0.385767 0.052248
Si Si4 0.390054 0.889125 0.771153
Si Si5 0.729188 0.885952 0.500000
Si Si6 0.233715 0.612961 0.138054
O O1 0.167969 0.167969 0.322788
O O2 0.337656 0.149423 0.362685
O O3 0.322624 0.139817 0.272131
O O4 0.247012 0.000000 0.324578
O O5 0.500000 0.158693 0.410967
O O6 0.332194 0.147303 0.454879
O O7 0.400914 0.000000 0.409018
O O8 0.896822 0.500000 0.056480
O O9 0.821470 0.345470 0.092168
O O10 0.000000 0.344326 0.060632
O O11 0.855644 0.355448 0.000000
O O12 0.500000 0.868446 0.756169
O O13 0.359435 0.827809 0.816231
O O14 0.376605 0.000000 0.785191
O O15 0.831402 0.831402 0.500000
O O16 0.751002 0.000000 0.500000
O O17 0.252526 0.500000 0.134273
O O18 0.337034 0.662967 0.141397
#
# Coordination Sequence:
#
# PCOD8312347 Si02
#       6
#    16  16  16  16   8  16
#     4  10  19  30  45  66  93 121 146 174 211 262
#     4   9  17  30  47  65  86 114 149 189 226 252
#     4   8  14  26  44  63  81 103 135 177 221 257
#     4   9  17  30  48  67  85 108 143 189 234 263
#     4  10  19  30  45  67  96 126 153 181 216 265
#     4  10  19  29  42  61  87 118 148 177 211 256
#
# _framework density 16.100736999999999
#
# number of rings (size 3 to 8) (size 9 to 14) (size 15 to 20)
#    0.000    2.727    0.000    3.000    0.000    6.273 
#    0.000    0.000    0.000    3.273    0.000    2.545 
#    0.000   29.818    0.000    8.000    0.000    0.727 
#
# Total GULP energy -1091021.803609 kJ/mol
# GULP energy per Si atom -12397.975041 kJ/mol
# Density = 1.606409 g / cm^3
# Si number density = 16.100737 Si / 1000 Ang^3
#
#
#
# Elastic Constant Matrix: (Units=GPa)
#
#
# Indices 1 2 3 4 5 6 
#
# 1 70.6233 47.2684 53.3196 0.0000 0.0000 0.0000
# 2 47.2684 70.6233 53.3196 0.0000 0.0000 0.0000
# 3 53.3196 53.3196 139.3344 0.0000 0.0000 0.0000
# 4 0.0000 0.0000 0.0000 14.3422 0.0000 0.0000
# 5 0.0000 0.0000 0.0000 0.0000 14.3422 0.0000
# 6 0.0000 0.0000 0.0000 0.0000 0.0000 21.2744
#
#
#
# Elastic Compliance Matrix: (Units=1/GPa)
#
#
# Indices 1 2 3 4 5 6 
#
# 1 0.027895 -0.014922 -0.004964 0.000000 0.000000 0.000000
# 2 -0.014922 0.027895 -0.004964 0.000000 0.000000 0.000000
# 3 -0.004964 -0.004964 0.010976 0.000000 0.000000 0.000000
# 4 0.000000 0.000000 0.000000 0.069724 0.000000 0.000000
# 5 0.000000 0.000000 0.000000 0.000000 0.069724 0.000000
# 6 0.000000 0.000000 0.000000 0.000000 0.000000 0.047005
#
#
# Mechanical properties :
#
#
# Convention : Reuss Voigt Hill
#
# Bulk Modulus (GPa) = 58.60042 65.37733 61.98888
# Shear Modulus (GPa) = 16.20167 18.43668 17.31918
#
# Velocity S-wave (km/s) = 3.17562 3.38758 3.28331
# Velocity P-wave (km/s) = 7.06549 7.48293 7.27720
#
# Compressibility (1/GPa) = 0.01706472
#
# Stress axis : x y z
#
# Youngs Moduli (GPa) = 35.84849 35.84849 91.10405
#
# Poissons Ratio (x) = 0.53494 0.45228
# Poissons Ratio (y) = 0.53494 0.45228
# Poissons Ratio (z) = 0.17797 0.17797
#
# Static dielectric constant tensor:
#      x y z
#    x 2.839550 0.000000 0.000000 
#    y 0.000000 2.839550 0.000000 
#    z 0.000000 0.000000 3.326120 
# 
# 
# High freq. dielectric constant tensor:
#      x y z
#    x 1.593870 0.000000 0.000000 
#    y 0.000000 1.593870 0.000000 
#    z 0.000000 0.000000 1.640510 
# 
# From -- ./inp_files/7227.got.cif
#   From: 2010.03.12/outbox.cif.g09.slc.cpg/sg123_4_cif.got.tgz:7227.got - 2010.04.06 16:26:55.
