data_PCOD8312323
_publ_section_title
;
Structure prediction by ZEFSAII (Michael W. Deem and Ramdas Pophale) SiO2 
 PCOD8312323
Probable space group: P 4/M M M
;
_chemical_formula_sum "Si O2"
_cell_formula_units_Z 80
_cell_length_a 24.409435
_cell_length_b 24.409435
_cell_length_c 9.217051
_cell_angle_alpha 90.000000
_cell_angle_beta 90.000000
_cell_angle_gamma 90.000000
_cell_volume 5491.708092
_symmetry_space_group_name_H-M "P 4/M M M"
_symmetry_group_IT_number 123
_symmetry_cell_setting 'tetragonal'
loop_
_space_group_symop_operation_xyz
x,y,z
-y,x,z
-x,-y,z
y,-x,z
x,-y,-z
-x,y,-z
y,x,-z
-y,-x,-z
-x,-y,-z
y,-x,-z
x,y,-z
-y,x,-z
-x,y,z
x,-y,z
-y,-x,z
y,x,z
loop_
_atom_site_type_symbol
_atom_site_label
_atom_site_fract_x
_atom_site_fract_y
_atom_site_fract_z
Si Si1 0.698157 0.789810 0.837044
Si Si2 0.690270 0.500000 0.331627
Si Si3 0.500000 0.589228 0.156415
Si Si4 0.062645 0.848778 0.831833
Si Si5 0.288802 0.621598 0.327899
Si Si6 0.136352 0.228609 0.663715
O O1 0.747861 0.747861 0.844464
O O2 0.648091 0.763284 0.749910
O O3 0.717823 0.844277 0.752602
O O4 0.679327 0.805490 0.000000
O O5 0.700179 0.500000 0.500000
O O6 0.626588 0.500000 0.296629
O O7 0.712284 0.441650 0.270073
O O8 0.446173 0.553828 0.165787
O O9 0.500000 0.620845 0.000000
O O10 0.096971 0.903030 0.791650
O O11 0.082876 0.796780 0.739673
O O12 0.000000 0.861340 0.792133
O O13 0.070155 0.833606 0.000000
O O14 0.280162 0.624408 0.500000
O O15 0.345130 0.654871 0.287225
O O16 0.121443 0.246170 0.500000
O O17 0.184334 0.184334 0.663694
#
# Coordination Sequence:
#
# PCOD8312323 Si02
#       6
#    16   8   8  16  16  16
#     4   9  16  26  41  59  76  95 123 159 199 244
#     4  10  19  29  41  56  74  98 127 159 194 235
#     4   9  18  30  40  50  66  90 122 161 201 235
#     4   9  17  28  41  58  82 113 148 182 211 237
#     4   9  17  28  40  55  76 100 127 160 198 239
#     4   9  16  26  41  59  78 101 130 166 207 246
#
# _framework density 14.567416
#
# number of rings (size 3 to 8) (size 9 to 14) (size 15 to 20)
#    0.000    2.900    0.000    2.100    0.000    7.400 
#    0.000    3.500    0.000    0.000    0.000    2.800 
#    0.000    0.000    0.000    0.900    0.000   17.400 
#
# Total GULP energy -991325.865660 kJ/mol
# GULP energy per Si atom -12391.573321 kJ/mol
# Density = 1.453426 g / cm^3
# Si number density = 14.567416 Si / 1000 Ang^3
#
#
#
# Elastic Constant Matrix: (Units=GPa)
#
#
# Indices 1 2 3 4 5 6 
#
# 1 70.7883 56.5921 39.9489 0.0000 0.0000 0.0000
# 2 56.5921 70.7883 39.9489 0.0000 0.0000 0.0000
# 3 39.9489 39.9489 59.9448 0.0000 0.0000 0.0000
# 4 0.0000 0.0000 0.0000 20.2807 0.0000 0.0000
# 5 0.0000 0.0000 0.0000 0.0000 20.2807 0.0000
# 6 0.0000 0.0000 0.0000 0.0000 0.0000 1.5150
#
#
#
# Elastic Compliance Matrix: (Units=1/GPa)
#
#
# Indices 1 2 3 4 5 6 
#
# 1 0.041965 -0.028476 -0.008989 0.000000 0.000000 0.000000
# 2 -0.028476 0.041965 -0.008989 0.000000 0.000000 0.000000
# 3 -0.008989 -0.008989 0.028664 0.000000 0.000000 0.000000
# 4 0.000000 0.000000 0.000000 0.049308 0.000000 0.000000
# 5 0.000000 0.000000 0.000000 0.000000 0.049308 0.000000
# 6 0.000000 0.000000 0.000000 0.000000 0.000000 0.660062
#
#
# Mechanical properties :
#
#
# Convention : Reuss Voigt Hill
#
# Bulk Modulus (GPa) = 50.80298 52.72233 51.76265
# Shear Modulus (GPa) = 5.15069 12.75070 8.95070
#
# Velocity S-wave (km/s) = 1.88240 2.96174 2.48146
# Velocity P-wave (km/s) = 6.29878 6.92578 6.61971
#
# Compressibility (1/GPa) = 0.01968388
#
# Stress axis : x y z
#
# Youngs Moduli (GPa) = 23.82925 23.82925 34.88734
#
# Poissons Ratio (x) = 0.67857 0.31362
# Poissons Ratio (y) = 0.67857 0.31362
# Poissons Ratio (z) = 0.21421 0.21421
#
# Static dielectric constant tensor:
#      x y z
#    x 2.712650 0.000000 0.000000 
#    y 0.000000 2.712650 0.000000 
#    z 0.000000 0.000000 3.000070 
# 
# 
# High freq. dielectric constant tensor:
#      x y z
#    x 1.525700 0.000000 0.000000 
#    y 0.000000 1.525700 0.000000 
#    z 0.000000 0.000000 1.567400 
# 
# From -- ./inp_files/1497.got.cif
#   From: 2010.03.12/outbox.cif.g09.slc.cpg/sg123_1_cif.got.tgz:1497.got - 2010.04.06 16:26:55.
