data_PCOD8312031
_publ_section_title
;
Structure prediction by ZEFSAII (Michael W. Deem and Ramdas Pophale) SiO2 
 PCOD8312031
Probable space group: I -4 2 D
;
_chemical_formula_sum "Si O2"
_cell_formula_units_Z 104
_cell_length_a 16.480300
_cell_length_b 16.480300
_cell_length_c 18.954958
_cell_angle_alpha 90.000000
_cell_angle_beta 90.000000
_cell_angle_gamma 90.000000
_cell_volume 5148.172054
_symmetry_space_group_name_H-M "I -4 2 D"
_symmetry_group_IT_number 122
_symmetry_cell_setting 'tetragonal'
loop_
_space_group_symop_operation_xyz
x,y,z
y,-x,-z
-x,-y,z
-y,x,-z
x,1/2-y,1/4-z
-x,1/2+y,1/4-z
-y,1/2-x,1/4+z
y,1/2+x,1/4+z
1/2+x,1/2+y,1/2+z
1/2+y,1/2-x,1/2-z
1/2-x,1/2-y,1/2+z
1/2-y,1/2+x,1/2-z
1/2+x,-y,3/4-z
1/2-x,y,3/4-z
1/2-y,-x,3/4+z
1/2+y,x,3/4+z
loop_
_atom_site_type_symbol
_atom_site_label
_atom_site_fract_x
_atom_site_fract_y
_atom_site_fract_z
Si Si1 0.153666 0.598855 0.175760
Si Si2 0.250000 0.982536 0.875000
Si Si3 0.076351 0.113265 0.217991
Si Si4 0.428898 0.401409 0.280282
Si Si5 0.709752 0.800429 0.443816
Si Si6 0.290444 0.683807 0.800203
Si Si7 0.434547 0.701304 0.480848
O O1 0.097229 0.611213 0.107884
O O2 0.218207 0.669858 0.166532
O O3 0.104276 0.613602 0.248899
O O4 0.193920 0.510108 0.178461
O O5 0.173218 0.924581 0.851070
O O6 0.262799 0.037511 0.806086
O O7 0.137863 0.144811 0.276517
O O8 0.986576 0.101432 0.253355
O O9 0.106978 0.023451 0.200435
O O10 0.400013 0.325033 0.233284
O O11 0.750000 0.843146 0.375000
O O12 0.778111 0.780546 0.502110
O O13 0.250000 0.663804 0.875000
O O14 0.367062 0.744183 0.807560
#
# Coordination Sequence:
#
# PCOD8312031 Si02
#       7
#    16   8  16  16  16  16  16
#     4  11  22  36  60  89 134 172 205 259 338 411
#     4  12  20  42  60  94 134 176 206 276 344 424
#     4  11  25  38  68  94 133 173 226 266 347 416
#     4  11  23  43  62  93 132 180 214 282 341 408
#     4  11  23  41  63  93 124 174 219 278 337 403
#     4  11  24  41  65  91 128 177 230 280 329 397
#     4  11  23  36  60  92 133 174 217 267 334 418
#
# _framework density 20.201345
#
# number of rings (size 3 to 8) (size 9 to 14) (size 15 to 20)
#    0.000    0.923    6.154    0.000    7.538    0.923 
#    0.000    0.000    0.000    0.000    0.000    2.154 
#    0.000    0.000    0.000    0.000    0.000    0.000 
#
# Total GULP energy -644409.368829 kJ/mol
# GULP energy per Si atom -12392.487862 kJ/mol
# Density = 2.015537 g / cm^3
# Si number density = 20.201345 Si / 1000 Ang^3
#
#
#
# Elastic Constant Matrix: (Units=GPa)
#
#
# Indices 1 2 3 4 5 6 
#
# 1 97.2784 37.2323 43.0763 0.0000 0.0000 0.0000
# 2 37.2323 97.2784 43.0763 0.0000 0.0000 0.0000
# 3 43.0763 43.0763 107.3113 0.0000 0.0000 0.0000
# 4 0.0000 0.0000 0.0000 33.6648 0.0000 0.0000
# 5 0.0000 0.0000 0.0000 0.0000 33.6648 0.0000
# 6 0.0000 0.0000 0.0000 0.0000 0.0000 30.4470
#
#
#
# Elastic Compliance Matrix: (Units=1/GPa)
#
#
# Indices 1 2 3 4 5 6 
#
# 1 0.013331 -0.003323 -0.004017 0.000000 0.000000 0.000000
# 2 -0.003323 0.013331 -0.004017 0.000000 0.000000 0.000000
# 3 -0.004017 -0.004017 0.012544 0.000000 0.000000 0.000000
# 4 0.000000 0.000000 0.000000 0.029705 0.000000 0.000000
# 5 0.000000 0.000000 0.000000 0.000000 0.029705 0.000000
# 6 0.000000 0.000000 0.000000 0.000000 0.000000 0.032844
#
#
# Mechanical properties :
#
#
# Convention : Reuss Voigt Hill
#
# Bulk Modulus (GPa) = 60.64296 60.95975 60.80135
# Shear Modulus (GPa) = 31.31470 31.45421 31.38445
#
# Velocity S-wave (km/s) = 3.94144 3.95021 3.94583
# Velocity P-wave (km/s) = 7.12725 7.14473 7.13599
#
# Compressibility (1/GPa) = 0.01648996
#
# Stress axis : x y z
#
# Youngs Moduli (GPa) = 75.01563 75.01563 79.72146
#
# Poissons Ratio (x) = 0.24930 0.32024
# Poissons Ratio (y) = 0.24930 0.32024
# Poissons Ratio (z) = 0.30134 0.30134
#
# Static dielectric constant tensor:
#      x y z
#    x 3.841130 0.000000 0.000000 
#    y 0.000000 3.841130 0.000000 
#    z 0.000000 0.000000 3.441340 
# 
# 
# High freq. dielectric constant tensor:
#      x y z
#    x 1.788310 0.000000 0.000000 
#    y 0.000000 1.788310 0.000000 
#    z 0.000000 0.000000 1.765860 
# 
# From -- ./inp_files/6400.got.cif
#   From: 2010.03.12/outbox.cif.g09.slc.cpg/sg122_4_cif.got.tgz:6400.got - 2010.04.06 16:17:16.
