data_PCOD8312623
_publ_section_title
;
Structure prediction by ZEFSAII (Michael W. Deem and Ramdas Pophale) SiO2 
 PCOD8312623
Probable space group: P 4/M M M
;
_chemical_formula_sum "Si O2"
_cell_formula_units_Z 104
_cell_length_a 25.924762
_cell_length_b 25.924762
_cell_length_c 9.453339
_cell_angle_alpha 90.000000
_cell_angle_beta 90.000000
_cell_angle_gamma 90.000000
_cell_volume 6353.525660
_symmetry_space_group_name_H-M "P 4/M M M"
_symmetry_group_IT_number 123
_symmetry_cell_setting 'tetragonal'
loop_
_space_group_symop_operation_xyz
x,y,z
-y,x,z
-x,-y,z
y,-x,z
x,-y,-z
-x,y,-z
y,x,-z
-y,-x,-z
-x,-y,-z
y,-x,-z
x,y,-z
-y,x,-z
-x,y,z
x,-y,z
-y,-x,z
y,x,z
loop_
_atom_site_type_symbol
_atom_site_label
_atom_site_fract_x
_atom_site_fract_y
_atom_site_fract_z
Si Si1 0.442541 0.239177 0.662864
Si Si2 0.674423 0.141164 0.839583
Si Si3 0.861041 0.057816 0.664889
Si Si4 0.060905 0.500000 0.839494
Si Si5 0.121668 0.578991 0.663263
Si Si6 0.258175 0.658197 0.164036
Si Si7 0.238243 0.942058 0.840038
O O1 0.430396 0.252432 0.500000
O O2 0.500000 0.260392 0.705001
O O3 0.445330 0.177874 0.685154
O O4 0.396697 0.263981 0.755608
O O5 0.636585 0.120871 0.719935
O O6 0.684783 0.202112 0.811612
O O7 0.723115 0.104973 0.816655
O O8 0.652719 0.134504 0.000000
O O9 0.851872 0.065940 0.500000
O O10 0.905679 0.094322 0.724212
O O11 0.808226 0.072292 0.739107
O O12 0.878451 0.000000 0.700770
O O13 0.080022 0.549827 0.756725
O O14 0.000000 0.500000 0.840697
O O15 0.082480 0.500000 0.000000
O O16 0.104729 0.577452 0.500000
O O17 0.301613 0.698388 0.219163
O O18 0.266892 0.645856 0.000000
O O19 0.260659 0.000000 0.805072
O O20 0.218068 0.941888 0.000000
#
# Coordination Sequence:
#
# PCOD8312623 Si02
#       7
#    16  16  16   8  16  16  16
#     4   9  17  31  50  71  95 125 160 197 239 289
#     4   9  18  32  49  69  94 129 164 196 241 291
#     4   9  18  32  49  69  92 116 144 182 229 283
#     4  11  23  35  47  65  91 123 159 203 252 299
#     4  10  19  33  50  69  93 120 156 203 246 288
#     4   9  18  31  46  69 100 130 164 204 241 284
#     4   9  18  32  49  68  91 120 156 197 237 282
#
# _framework density 16.368863999999999
#
# number of rings (size 3 to 8) (size 9 to 14) (size 15 to 20)
#    0.000    2.692    0.769    0.692    0.000    4.154 
#    0.000    3.846    0.000    0.000    0.000    2.154 
#    0.000    0.308    0.000    3.385    0.000    2.462 
#
# Total GULP energy -1288953.128273 kJ/mol
# GULP energy per Si atom -12393.780080 kJ/mol
# Density = 1.633161 g / cm^3
# Si number density = 16.368864 Si / 1000 Ang^3
#
#
#
# Elastic Constant Matrix: (Units=GPa)
#
#
# Indices 1 2 3 4 5 6 
#
# 1 94.6283 65.3743 49.8636 0.0000 0.0000 0.0000
# 2 65.3743 94.6283 49.8636 0.0000 0.0000 0.0000
# 3 49.8636 49.8636 79.0977 0.0000 0.0000 0.0000
# 4 0.0000 0.0000 0.0000 25.2461 0.0000 0.0000
# 5 0.0000 0.0000 0.0000 0.0000 25.2461 0.0000
# 6 0.0000 0.0000 0.0000 0.0000 0.0000 22.0055
#
#
#
# Elastic Compliance Matrix: (Units=1/GPa)
#
#
# Indices 1 2 3 4 5 6 
#
# 1 0.022239 -0.011944 -0.006490 0.000000 0.000000 0.000000
# 2 -0.011944 0.022239 -0.006490 0.000000 0.000000 0.000000
# 3 -0.006490 -0.006490 0.020825 0.000000 0.000000 0.000000
# 4 0.000000 0.000000 0.000000 0.039610 0.000000 0.000000
# 5 0.000000 0.000000 0.000000 0.000000 0.039610 0.000000
# 6 0.000000 0.000000 0.000000 0.000000 0.000000 0.045443
#
#
# Mechanical properties :
#
#
# Convention : Reuss Voigt Hill
#
# Bulk Modulus (GPa) = 64.70310 66.50636 65.60473
# Shear Modulus (GPa) = 20.41089 21.38306 20.89698
#
# Velocity S-wave (km/s) = 3.53503 3.61823 3.57687
# Velocity P-wave (km/s) = 7.50172 7.62715 7.56470
#
# Compressibility (1/GPa) = 0.01545521
#
# Stress axis : x y z
#
# Youngs Moduli (GPa) = 44.96568 44.96568 48.01851
#
# Poissons Ratio (x) = 0.53708 0.31164
# Poissons Ratio (y) = 0.53708 0.31164
# Poissons Ratio (z) = 0.29183 0.29183
#
# Static dielectric constant tensor:
#      x y z
#    x 3.054600 0.000000 0.000000 
#    y 0.000000 3.054600 0.000000 
#    z 0.000000 0.000000 3.219230 
# 
# 
# High freq. dielectric constant tensor:
#      x y z
#    x 1.616410 0.000000 0.000000 
#    y 0.000000 1.616410 0.000000 
#    z 0.000000 0.000000 1.636360 
# 
# From -- ./inp_files/1954.got.cif
#   From: 2010.03.12/outbox.cif.g09.slc.cpg/sg123_1_cif.got.tgz:1954.got - 2010.04.06 16:26:55.
