data_PCOD8312555
_publ_section_title
;
Structure prediction by ZEFSAII (Michael W. Deem and Ramdas Pophale) SiO2 
 PCOD8312555
Probable space group: P 4/M M M
;
_chemical_formula_sum "Si O2"
_cell_formula_units_Z 120
_cell_length_a 17.514846
_cell_length_b 17.514846
_cell_length_c 22.361682
_cell_angle_alpha 90.000000
_cell_angle_beta 90.000000
_cell_angle_gamma 90.000000
_cell_volume 6859.889395
_symmetry_space_group_name_H-M "P 4/M M M"
_symmetry_group_IT_number 123
_symmetry_cell_setting 'tetragonal'
loop_
_space_group_symop_operation_xyz
x,y,z
-y,x,z
-x,-y,z
y,-x,z
x,-y,-z
-x,y,-z
y,x,-z
-y,-x,-z
-x,-y,-z
y,-x,-z
x,y,-z
-y,x,-z
-x,y,z
x,-y,z
-y,-x,z
y,x,z
loop_
_atom_site_type_symbol
_atom_site_label
_atom_site_fract_x
_atom_site_fract_y
_atom_site_fract_z
Si Si1 0.298144 0.171405 0.166683
Si Si2 0.908280 0.215630 0.500000
Si Si3 0.701132 0.416953 0.566961
Si Si4 0.792602 0.085875 0.258750
Si Si5 0.717392 0.410040 0.785136
Si Si6 0.416218 0.187041 0.330214
Si Si7 0.911470 0.213728 0.068755
Si Si8 0.713157 0.914658 0.376459
O O1 0.240351 0.240351 0.165742
O O2 0.282108 0.119540 0.225139
O O3 0.381354 0.212641 0.171522
O O4 0.285757 0.120020 0.107272
O O5 0.866436 0.133565 0.500000
O O6 0.880176 0.262247 0.440835
O O7 0.000000 0.201590 0.500000
O O8 0.723897 0.392997 0.500000
O O9 0.661741 0.500000 0.567944
O O10 0.641509 0.358492 0.595641
O O11 0.777532 0.417426 0.604259
O O12 0.867024 0.132977 0.239247
O O13 0.784209 0.089238 0.330656
O O14 0.805029 0.000000 0.236325
O O15 0.700682 0.500000 0.797640
O O16 0.639263 0.360738 0.794094
O O17 0.747737 0.395426 0.717928
O O18 0.500000 0.152466 0.314603
O O19 0.354084 0.122288 0.337774
O O20 0.863125 0.136876 0.083308
O O21 0.000000 0.197341 0.084315
O O22 0.901747 0.237647 0.000000
O O23 0.685939 0.000000 0.389064
#
# Coordination Sequence:
#
# PCOD8312555 Si02
#       8
#    16   8  16  16  16  16  16  16
#     4   9  17  31  50  72 102 137 174 211 246 291
#     4  10  22  37  53  73  93 119 158 204 256 310
#     4   9  18  30  44  65  91 119 152 188 230 285
#     4  10  19  31  49  71  97 130 165 207 255 299
#     4  10  20  34  54  79 105 133 165 205 254 307
#     4  10  20  34  51  71  97 125 158 200 246 299
#     4   9  17  29  48  76 110 148 186 222 260 301
#     4  10  21  36  51  70  95 123 162 207 251 303
#
# _framework density 17.492993999999999
#
# number of rings (size 3 to 8) (size 9 to 14) (size 15 to 20)
#    0.000    2.400    1.333    1.200    0.933    2.467 
#    0.000    1.333    0.000   10.400    0.000    0.933 
#    0.000    0.000    0.000    5.200    0.000    0.000 
#
# Total GULP energy -1486637.170093 kJ/mol
# GULP energy per Si atom -12388.643084 kJ/mol
# Density = 1.745318 g / cm^3
# Si number density = 17.492994 Si / 1000 Ang^3
#
#
#
# Elastic Constant Matrix: (Units=GPa)
#
#
# Indices 1 2 3 4 5 6 
#
# 1 86.1143 52.6060 29.2268 0.0000 0.0000 0.0000
# 2 52.6060 86.1152 29.2269 0.0000 0.0000 0.0000
# 3 29.2268 29.2269 84.9773 0.0000 0.0000 0.0000
# 4 0.0000 0.0000 0.0000 22.2368 0.0000 0.0000
# 5 0.0000 0.0000 0.0000 0.0000 22.2367 0.0000
# 6 0.0000 0.0000 0.0000 0.0000 0.0000 22.5871
#
#
#
# Elastic Compliance Matrix: (Units=1/GPa)
#
#
# Indices 1 2 3 4 5 6 
#
# 1 0.019137 -0.010706 -0.002900 0.000000 0.000000 0.000000
# 2 -0.010706 0.019137 -0.002900 0.000000 0.000000 0.000000
# 3 -0.002900 -0.002900 0.013762 0.000000 0.000000 0.000000
# 4 0.000000 0.000000 0.000000 0.044970 0.000000 0.000000
# 5 0.000000 0.000000 0.000000 0.000000 0.044971 0.000000
# 6 0.000000 0.000000 0.000000 0.000000 0.000000 0.044273
#
#
# Mechanical properties :
#
#
# Convention : Reuss Voigt Hill
#
# Bulk Modulus (GPa) = 52.56196 53.25848 52.91022
# Shear Modulus (GPa) = 22.16288 23.15527 22.65908
#
# Velocity S-wave (km/s) = 3.56330 3.64220 3.60296
# Velocity P-wave (km/s) = 6.85872 6.94256 6.90077
#
# Compressibility (1/GPa) = 0.01902516
#
# Stress axis : x y z
#
# Youngs Moduli (GPa) = 52.25521 52.25574 72.66177
#
# Poissons Ratio (x) = 0.55946 0.21069
# Poissons Ratio (y) = 0.55946 0.21069
# Poissons Ratio (z) = 0.15152 0.15152
#
# Static dielectric constant tensor:
#      x y z
#    x 3.280560 0.000000 0.000000 
#    y 0.000000 3.280550 0.000000 
#    z 0.000000 0.000000 3.318020 
# 
# 
# High freq. dielectric constant tensor:
#      x y z
#    x 1.662200 0.000000 0.000000 
#    y 0.000000 1.662200 0.000000 
#    z 0.000000 0.000000 1.670110 
# 
# From -- ./inp_files/6797.got.cif
#   From: 2010.03.12/outbox.cif.g09.slc.cpg/sg123_4_cif.got.tgz:6797.got - 2010.04.06 16:26:55.
