data_PCOD8312975
_publ_section_title
;
Structure prediction by ZEFSAII (Michael W. Deem and Ramdas Pophale) SiO2 
 PCOD8312975
Probable space group: P 4/M M M
;
_chemical_formula_sum "Si O2"
_cell_formula_units_Z 96
_cell_length_a 14.275592
_cell_length_b 14.275592
_cell_length_c 30.425286
_cell_angle_alpha 90.000000
_cell_angle_beta 90.000000
_cell_angle_gamma 90.000000
_cell_volume 6200.445917
_symmetry_space_group_name_H-M "P 4/M M M"
_symmetry_group_IT_number 123
_symmetry_cell_setting 'tetragonal'
loop_
_space_group_symop_operation_xyz
x,y,z
-y,x,z
-x,-y,z
y,-x,z
x,-y,-z
-x,y,-z
y,x,-z
-y,-x,-z
-x,-y,-z
y,-x,-z
x,y,-z
-y,x,-z
-x,y,z
x,-y,z
-y,-x,z
y,x,z
loop_
_atom_site_type_symbol
_atom_site_label
_atom_site_fract_x
_atom_site_fract_y
_atom_site_fract_z
Si Si1 0.758762 0.607402 0.551589
Si Si2 0.256833 0.106616 0.703394
Si Si3 0.237192 0.390517 0.141602
Si Si4 0.392354 0.108160 0.779546
Si Si5 0.758537 0.607117 0.953503
Si Si6 0.108931 0.738394 0.602834
O O1 0.777636 0.612538 0.500000
O O2 0.746205 0.500000 0.567182
O O3 0.664567 0.664567 0.564316
O O4 0.848989 0.653089 0.574759
O O5 0.163796 0.163796 0.713523
O O6 0.338496 0.141020 0.735853
O O7 0.291476 0.120646 0.653559
O O8 0.229631 0.000000 0.712583
O O9 0.260758 0.500000 0.147761
O O10 0.333286 0.333286 0.147194
O O11 0.163951 0.355596 0.178003
O O12 0.189488 0.371088 0.093054
O O13 0.500000 0.129839 0.769909
O O14 0.374807 0.000000 0.790080
O O15 0.729084 0.500000 0.953428
O O16 0.661914 0.661914 0.953752
O O17 0.814535 0.629939 0.000000
O O18 0.164995 0.835006 0.593004
O O19 0.000000 0.753951 0.590332
#
# Coordination Sequence:
#
# PCOD8312975 Si02
#       6
#    16  16  16  16  16  16
#     4   9  18  32  49  69  92 117 146 181 219 256
#     4   9  17  29  45  64  85 108 134 166 204 244
#     4   9  16  25  38  55  75 100 127 156 192 232
#     4   9  17  28  41  57  77 102 133 166 197 231
#     4   8  13  20  30  46  68  93 121 152 186 225
#     4   9  18  31  46  66  91 117 145 176 210 251
#
# _framework density 15.482756999999999
#
# number of rings (size 3 to 8) (size 9 to 14) (size 15 to 20)
#    0.000    3.167    0.000    0.500    0.000    2.167 
#    0.000    7.500    0.000    0.500    0.000    5.833 
#    0.000    4.000    0.000    0.000    0.000    0.000 
#
# Total GULP energy -1189296.396107 kJ/mol
# GULP energy per Si atom -12388.504126 kJ/mol
# Density = 1.544752 g / cm^3
# Si number density = 15.482757 Si / 1000 Ang^3
#
#
#
# Elastic Constant Matrix: (Units=GPa)
#
#
# Indices 1 2 3 4 5 6 
#
# 1 74.4202 41.0546 48.5080 0.0000 0.0000 0.0000
# 2 41.0546 74.4202 48.5080 0.0000 0.0000 0.0000
# 3 48.5080 48.5080 82.4643 0.0000 0.0000 0.0000
# 4 0.0000 0.0000 0.0000 22.5934 0.0000 0.0000
# 5 0.0000 0.0000 0.0000 0.0000 22.5934 0.0000
# 6 0.0000 0.0000 0.0000 0.0000 0.0000 17.3632
#
#
#
# Elastic Compliance Matrix: (Units=1/GPa)
#
#
# Indices 1 2 3 4 5 6 
#
# 1 0.023546 -0.006425 -0.010071 0.000000 0.000000 0.000000
# 2 -0.006425 0.023546 -0.010071 0.000000 0.000000 0.000000
# 3 -0.010071 -0.010071 0.023975 0.000000 0.000000 0.000000
# 4 0.000000 0.000000 0.000000 0.044261 0.000000 0.000000
# 5 0.000000 0.000000 0.000000 0.000000 0.044261 0.000000
# 6 0.000000 0.000000 0.000000 0.000000 0.000000 0.057593
#
#
# Mechanical properties :
#
#
# Convention : Reuss Voigt Hill
#
# Bulk Modulus (GPa) = 55.76495 56.38289 56.07392
# Shear Modulus (GPa) = 18.09667 18.72560 18.41113
#
# Velocity S-wave (km/s) = 3.42252 3.48149 3.45213
# Velocity P-wave (km/s) = 7.19123 7.25649 7.22393
#
# Compressibility (1/GPa) = 0.01793241
#
# Stress axis : x y z
#
# Youngs Moduli (GPa) = 42.46979 42.46979 41.71030
#
# Poissons Ratio (x) = 0.27286 0.42007
# Poissons Ratio (y) = 0.27286 0.42007
# Poissons Ratio (z) = 0.42772 0.42772
#
# Static dielectric constant tensor:
#      x y z
#    x 2.847810 0.000000 0.000000 
#    y 0.000000 2.847810 0.000000 
#    z 0.000000 0.000000 3.395750 
# 
# 
# High freq. dielectric constant tensor:
#      x y z
#    x 1.574710 0.000000 0.000000 
#    y 0.000000 1.574710 0.000000 
#    z 0.000000 0.000000 1.611160 
# 
# From -- ./inp_files/8576.got.cif
#   From: 2010.03.12/outbox.cif.g09.slc.cpg/sg123_5_cif.got.tgz:8576.got - 2010.04.06 16:26:55.
