data_PCOD8312145
_publ_section_title
;
Structure prediction by ZEFSAII (Michael W. Deem and Ramdas Pophale) SiO2 
 PCOD8312145
Probable space group: P 4/M M M
;
_chemical_formula_sum "Si O2"
_cell_formula_units_Z 72
_cell_length_a 20.088480
_cell_length_b 20.088480
_cell_length_c 10.350492
_cell_angle_alpha 90.000000
_cell_angle_beta 90.000000
_cell_angle_gamma 90.000000
_cell_volume 4176.910292
_symmetry_space_group_name_H-M "P 4/M M M"
_symmetry_group_IT_number 123
_symmetry_cell_setting 'tetragonal'
loop_
_space_group_symop_operation_xyz
x,y,z
-y,x,z
-x,-y,z
y,-x,z
x,-y,-z
-x,y,-z
y,x,-z
-y,-x,-z
-x,-y,-z
y,-x,-z
x,y,-z
-y,x,-z
-x,y,z
x,-y,z
-y,-x,z
y,x,z
loop_
_atom_site_type_symbol
_atom_site_label
_atom_site_fract_x
_atom_site_fract_y
_atom_site_fract_z
Si Si1 0.180210 0.925835 0.153271
Si Si2 0.327666 0.116886 0.846784
Si Si3 0.315968 0.425861 0.000000
Si Si4 0.743464 0.633274 0.244930
Si Si5 0.574874 0.000000 0.152457
Si Si6 0.687000 0.576915 0.500000
O O1 0.127494 0.872506 0.211536
O O2 0.255169 0.908754 0.195947
O O3 0.162257 0.000000 0.204065
O O4 0.176169 0.924366 0.000000
O O5 0.342138 0.181441 0.762282
O O6 0.383972 0.064583 0.803968
O O7 0.329588 0.132059 0.000000
O O8 0.270822 0.415210 0.125470
O O9 0.343978 0.500000 0.000000
O O10 0.380014 0.380014 0.000000
O O11 0.698111 0.698111 0.236665
O O12 0.731729 0.593117 0.376079
O O13 0.500000 0.000000 0.212882
O O14 0.569206 0.000000 0.000000
O O15 0.666120 0.500000 0.500000
O O16 0.618813 0.618813 0.500000
#
# Coordination Sequence:
#
# PCOD8312145 Si02
#       6
#    16  16   8  16   8   8
#     4   9  16  25  40  63  96 135 172 212 256 304
#     4  10  17  30  48  71 102 133 170 210 261 310
#     4  10  20  33  50  75 101 127 166 210 258 312
#     4  10  20  34  53  76 101 132 170 214 256 304
#     4   9  18  28  40  65  98 130 166 208 248 299
#     4  10  22  39  56  77 105 135 172 214 260 316
#
# _framework density 17.237622000000002
#
# number of rings (size 3 to 8) (size 9 to 14) (size 15 to 20)
#    0.000    2.333    2.222    1.333    0.000    3.111 
#    0.000    1.111    0.000    4.667    0.000    1.556 
#    0.000    0.000    0.000    0.000    0.000   10.889 
#
# Total GULP energy -892730.899525 kJ/mol
# GULP energy per Si atom -12399.040271 kJ/mol
# Density = 1.719839 g / cm^3
# Si number density = 17.237622 Si / 1000 Ang^3
#
#
#
# Elastic Constant Matrix: (Units=GPa)
#
#
# Indices 1 2 3 4 5 6 
#
# 1 144.5286 60.4840 30.5399 0.0000 0.0000 0.0000
# 2 60.4840 144.5286 30.5399 0.0000 0.0000 0.0000
# 3 30.5399 30.5399 76.1425 0.0000 0.0000 0.0000
# 4 0.0000 0.0000 0.0000 43.0229 0.0000 0.0000
# 5 0.0000 0.0000 0.0000 0.0000 43.0229 0.0000
# 6 0.0000 0.0000 0.0000 0.0000 0.0000 9.8860
#
#
#
# Elastic Compliance Matrix: (Units=1/GPa)
#
#
# Indices 1 2 3 4 5 6 
#
# 1 0.008719 -0.003179 -0.002222 0.000000 0.000000 0.000000
# 2 -0.003179 0.008719 -0.002222 0.000000 0.000000 0.000000
# 3 -0.002222 -0.002222 0.014916 0.000000 0.000000 0.000000
# 4 0.000000 0.000000 0.000000 0.023243 0.000000 0.000000
# 5 0.000000 0.000000 0.000000 0.000000 0.023243 0.000000
# 6 0.000000 0.000000 0.000000 0.000000 0.000000 0.101153
#
#
# Mechanical properties :
#
#
# Convention : Reuss Voigt Hill
#
# Bulk Modulus (GPa) = 58.45419 67.59194 63.02306
# Shear Modulus (GPa) = 24.88268 35.42873 30.15571
#
# Velocity S-wave (km/s) = 3.80348 4.53848 4.18714
# Velocity P-wave (km/s) = 7.29884 8.17072 7.74705
#
# Compressibility (1/GPa) = 0.01710741
#
# Stress axis : x y z
#
# Youngs Moduli (GPa) = 114.69086 114.69086 67.04366
#
# Poissons Ratio (x) = 0.36464 0.14897
# Poissons Ratio (y) = 0.36464 0.14897
# Poissons Ratio (z) = 0.25483 0.25483
#
# Static dielectric constant tensor:
#      x y z
#    x 3.345950 0.000000 0.000000 
#    y 0.000000 3.345950 0.000000 
#    z 0.000000 0.000000 2.870050 
# 
# 
# High freq. dielectric constant tensor:
#      x y z
#    x 1.675170 0.000000 0.000000 
#    y 0.000000 1.675170 0.000000 
#    z 0.000000 0.000000 1.611000 
# 
# From -- ./inp_files/1152.got.cif
#   From: 2010.03.12/outbox.cif.g09.slc.cpg/sg123_1_cif.got.tgz:1152.got - 2010.04.06 16:26:55.
