data_PCOD8312980
_publ_section_title
;
Structure prediction by ZEFSAII (Michael W. Deem and Ramdas Pophale) SiO2 
 PCOD8312980
Probable space group: P 4/M M M
;
_chemical_formula_sum "Si O2"
_cell_formula_units_Z 96
_cell_length_a 19.468665
_cell_length_b 19.468665
_cell_length_c 20.802927
_cell_angle_alpha 90.000000
_cell_angle_beta 90.000000
_cell_angle_gamma 90.000000
_cell_volume 7884.910889
_symmetry_space_group_name_H-M "P 4/M M M"
_symmetry_group_IT_number 123
_symmetry_cell_setting 'tetragonal'
loop_
_space_group_symop_operation_xyz
x,y,z
-y,x,z
-x,-y,z
y,-x,z
x,-y,-z
-x,y,-z
y,x,-z
-y,-x,-z
-x,-y,-z
y,-x,-z
x,y,-z
-y,x,-z
-x,y,z
x,-y,z
-y,-x,z
y,x,z
loop_
_atom_site_type_symbol
_atom_site_label
_atom_site_fract_x
_atom_site_fract_y
_atom_site_fract_z
Si Si1 0.667615 0.918329 0.071408
Si Si2 0.918005 0.422443 0.187865
Si Si3 0.577231 0.081694 0.571146
Si Si4 0.187785 0.922180 0.877511
Si Si5 0.337863 0.081738 0.309634
Si Si6 0.077934 0.188432 0.274173
O O1 0.612677 0.889418 0.122613
O O2 0.744040 0.892771 0.088731
O O3 0.667520 0.000000 0.074817
O O4 0.647600 0.892327 0.000000
O O5 0.889719 0.500000 0.190977
O O6 0.889136 0.380480 0.248970
O O7 0.000000 0.422064 0.188144
O O8 0.600180 0.106951 0.500000
O O9 0.500000 0.107496 0.586135
O O10 0.628889 0.111583 0.624815
O O11 0.578286 0.000000 0.573454
O O12 0.123721 0.876280 0.899644
O O13 0.199807 0.918542 0.801670
O O14 0.171811 0.000000 0.899207
O O15 0.258548 0.104951 0.306925
O O16 0.341577 0.000000 0.307612
O O17 0.126055 0.126055 0.297263
O O18 0.000000 0.170997 0.295398
#
# Coordination Sequence:
#
# PCOD8312980 Si02
#       6
#    16  16  16  16  16  16
#     4   9  16  25  34  44  61  82 102 128 163 201
#     4   9  15  22  33  48  63  80 102 124 150 190
#     4   8  13  20  31  50  73  91 104 119 146 189
#     4   9  16  26  37  48  62  80 106 141 181 220
#     4   9  14  22  35  49  66  85 104 128 160 197
#     4   9  16  25  37  50  64  83 109 143 181 217
#
# _framework density 12.175153
#
# number of rings (size 3 to 8) (size 9 to 14) (size 15 to 20)
#    0.000    3.167    1.667    1.000    0.000    3.000 
#    0.000    3.333    0.000    0.500    0.000    2.333 
#    0.000    0.000    0.000    6.500    0.000    0.167 
#
# Total GULP energy -1189807.321870 kJ/mol
# GULP energy per Si atom -12393.826269 kJ/mol
# Density = 1.214744 g / cm^3
# Si number density = 12.175153 Si / 1000 Ang^3
#
#
#
# Elastic Constant Matrix: (Units=GPa)
#
#
# Indices 1 2 3 4 5 6 
#
# 1 57.4205 29.3419 34.2824 0.0000 0.0000 0.0000
# 2 29.3419 57.4205 34.2824 0.0000 0.0000 0.0000
# 3 34.2824 34.2824 81.1868 0.0000 0.0000 0.0000
# 4 0.0000 0.0000 0.0000 12.4739 0.0000 0.0000
# 5 0.0000 0.0000 0.0000 0.0000 12.4739 0.0000
# 6 0.0000 0.0000 0.0000 0.0000 0.0000 0.4866
#
#
#
# Elastic Compliance Matrix: (Units=1/GPa)
#
#
# Indices 1 2 3 4 5 6 
#
# 1 0.026456 -0.009158 -0.007304 0.000000 0.000000 0.000000
# 2 -0.009158 0.026456 -0.007304 0.000000 0.000000 0.000000
# 3 -0.007304 -0.007304 0.018486 0.000000 0.000000 0.000000
# 4 0.000000 0.000000 0.000000 0.080167 0.000000 0.000000
# 5 0.000000 0.000000 0.000000 0.000000 0.080167 0.000000
# 6 0.000000 0.000000 0.000000 0.000000 0.000000 2.055249
#
#
# Mechanical properties :
#
#
# Convention : Reuss Voigt Hill
#
# Bulk Modulus (GPa) = 41.90294 43.53793 42.72043
# Shear Modulus (GPa) = 2.13450 11.62827 6.88138
#
# Velocity S-wave (km/s) = 1.32551 3.09379 2.37997
# Velocity P-wave (km/s) = 6.06911 6.97132 6.53580
#
# Compressibility (1/GPa) = 0.02386468
#
# Stress axis : x y z
#
# Youngs Moduli (GPa) = 37.79834 37.79834 54.09472
#
# Poissons Ratio (x) = 0.34616 0.39513
# Poissons Ratio (y) = 0.34616 0.39513
# Poissons Ratio (z) = 0.27609 0.27609
#
# Static dielectric constant tensor:
#      x y z
#    x 2.323420 0.000000 0.000000 
#    y 0.000000 2.323420 0.000000 
#    z 0.000000 0.000000 2.693360 
# 
# 
# High freq. dielectric constant tensor:
#      x y z
#    x 1.422930 0.000000 0.000000 
#    y 0.000000 1.422930 0.000000 
#    z 0.000000 0.000000 1.465780 
# 
# From -- ./inp_files/5752.got.cif
#   From: 2010.03.12/outbox.cif.g09.slc.cpg/sg123_3_cif.got.tgz:5752.got - 2010.04.06 16:26:55.
