data_PCOD8312988
_publ_section_title
;
Structure prediction by ZEFSAII (Michael W. Deem and Ramdas Pophale) SiO2 
 PCOD8312988
Probable space group: P 4/M M M
;
_chemical_formula_sum "Si O2"
_cell_formula_units_Z 96
_cell_length_a 25.161308
_cell_length_b 25.161308
_cell_length_c 9.433527
_cell_angle_alpha 90.000000
_cell_angle_beta 90.000000
_cell_angle_gamma 90.000000
_cell_volume 5972.285007
_symmetry_space_group_name_H-M "P 4/M M M"
_symmetry_group_IT_number 123
_symmetry_cell_setting 'tetragonal'
loop_
_space_group_symop_operation_xyz
x,y,z
-y,x,z
-x,-y,z
y,-x,z
x,-y,-z
-x,y,-z
y,x,-z
-y,-x,-z
-x,-y,-z
y,-x,-z
x,y,-z
-y,x,-z
-x,y,z
x,-y,z
-y,-x,z
y,x,z
loop_
_atom_site_type_symbol
_atom_site_label
_atom_site_fract_x
_atom_site_fract_y
_atom_site_fract_z
Si Si1 0.061408 0.650952 0.335852
Si Si2 0.643139 0.440690 0.830788
Si Si3 0.061075 0.147340 0.663807
Si Si4 0.936824 0.248368 0.160756
Si Si5 0.439643 0.858333 0.665094
Si Si6 0.240357 0.563124 0.156845
O O1 0.069928 0.666026 0.500000
O O2 0.084207 0.699382 0.242050
O O3 0.091968 0.597141 0.294044
O O4 0.000000 0.639832 0.302266
O O5 0.631801 0.500000 0.771691
O O6 0.598951 0.401050 0.767265
O O7 0.701612 0.419837 0.783903
O O8 0.641167 0.441833 0.000000
O O9 0.066780 0.164154 0.500000
O O10 0.095050 0.095050 0.699238
O O11 0.083315 0.195788 0.758336
O O12 0.000000 0.133905 0.700969
O O13 0.000000 0.248917 0.163821
O O14 0.914976 0.248239 0.000000
O O15 0.437773 0.845984 0.500000
O O16 0.500000 0.871499 0.713843
O O17 0.416185 0.806088 0.741150
O O18 0.239745 0.500000 0.148950
O O19 0.230608 0.587014 0.000000
#
# Coordination Sequence:
#
# PCOD8312988 Si02
#       6
#    16  16  16  16  16  16
#     4   9  17  29  45  64  86 111 138 172 216 262
#     4   8  13  21  35  57  83 109 137 169 205 244
#     4   9  17  29  46  68  93 120 148 178 214 256
#     4   9  17  29  45  64  86 114 149 184 213 247
#     4   9  17  28  43  64  87 110 138 172 209 252
#     4   8  14  25  40  57  79 109 142 172 203 242
#
# _framework density 16.074248999999998
#
# number of rings (size 3 to 8) (size 9 to 14) (size 15 to 20)
#    0.000    3.333    0.000    1.500    0.000    3.667 
#    0.000    3.333    0.000    1.500    0.000   11.667 
#    0.000    0.000    0.000    6.500    0.000    6.667 
#
# Total GULP energy -1189943.848239 kJ/mol
# GULP energy per Si atom -12395.248419 kJ/mol
# Density = 1.603766 g / cm^3
# Si number density = 16.074249 Si / 1000 Ang^3
#
#
#
# Elastic Constant Matrix: (Units=GPa)
#
#
# Indices 1 2 3 4 5 6 
#
# 1 98.0333 61.0659 44.8992 0.0000 0.0000 0.0000
# 2 61.0659 98.0333 44.8992 0.0000 0.0000 0.0000
# 3 44.8992 44.8992 60.9178 0.0000 0.0000 0.0000
# 4 0.0000 0.0000 0.0000 16.8918 0.0000 0.0000
# 5 0.0000 0.0000 0.0000 0.0000 16.8918 0.0000
# 6 0.0000 0.0000 0.0000 0.0000 0.0000 6.0886
#
#
#
# Elastic Compliance Matrix: (Units=1/GPa)
#
#
# Indices 1 2 3 4 5 6 
#
# 1 0.018907 -0.008144 -0.007933 0.000000 0.000000 0.000000
# 2 -0.008144 0.018907 -0.007933 0.000000 0.000000 0.000000
# 3 -0.007933 -0.007933 0.028109 0.000000 0.000000 0.000000
# 4 0.000000 0.000000 0.000000 0.059200 0.000000 0.000000
# 5 0.000000 0.000000 0.000000 0.000000 0.059200 0.000000
# 6 0.000000 0.000000 0.000000 0.000000 0.000000 0.164242
#
#
# Mechanical properties :
#
#
# Convention : Reuss Voigt Hill
#
# Bulk Modulus (GPa) = 55.85368 62.07925 58.96647
# Shear Modulus (GPa) = 12.42077 15.04911 13.73494
#
# Velocity S-wave (km/s) = 2.78279 3.06310 2.92630
# Velocity P-wave (km/s) = 6.71922 7.15641 6.94126
#
# Compressibility (1/GPa) = 0.01790392
#
# Stress axis : x y z
#
# Youngs Moduli (GPa) = 52.89107 52.89107 35.57591
#
# Poissons Ratio (x) = 0.43075 0.28221
# Poissons Ratio (y) = 0.43075 0.28221
# Poissons Ratio (z) = 0.41956 0.41956
#
# Static dielectric constant tensor:
#      x y z
#    x 3.069870 0.000000 0.000000 
#    y 0.000000 3.069870 0.000000 
#    z 0.000000 0.000000 3.030140 
# 
# 
# High freq. dielectric constant tensor:
#      x y z
#    x 1.602150 0.000000 0.000000 
#    y 0.000000 1.602150 0.000000 
#    z 0.000000 0.000000 1.601310 
# 
# From -- ./inp_files/1866.got.cif
#   From: 2010.03.12/outbox.cif.g09.slc.cpg/sg123_1_cif.got.tgz:1866.got - 2010.04.06 16:26:55.
