data_PCOD8312496
_publ_section_title
;
Structure prediction by ZEFSAII (Michael W. Deem and Ramdas Pophale) SiO2 
 PCOD8312496
Probable space group: P 4/M M M
;
_chemical_formula_sum "Si O2"
_cell_formula_units_Z 128
_cell_length_a 17.871810
_cell_length_b 17.871810
_cell_length_c 23.044256
_cell_angle_alpha 90.000000
_cell_angle_beta 90.000000
_cell_angle_gamma 90.000000
_cell_volume 7360.372068
_symmetry_space_group_name_H-M "P 4/M M M"
_symmetry_group_IT_number 123
_symmetry_cell_setting 'tetragonal'
loop_
_space_group_symop_operation_xyz
x,y,z
-y,x,z
-x,-y,z
y,-x,z
x,-y,-z
-x,y,-z
y,x,-z
-y,-x,-z
-x,-y,-z
y,-x,-z
x,y,-z
-y,x,-z
-x,y,z
x,-y,z
-y,-x,z
y,x,z
loop_
_atom_site_type_symbol
_atom_site_label
_atom_site_fract_x
_atom_site_fract_y
_atom_site_fract_z
Si Si1 0.287720 0.410515 0.844785
Si Si2 0.917328 0.667218 0.672063
Si Si3 0.801439 0.323617 0.065148
Si Si4 0.296540 0.414406 0.605574
Si Si5 0.698097 0.819600 0.565466
Si Si6 0.584714 0.220197 0.275037
Si Si7 0.080123 0.803161 0.757015
Si Si8 0.912085 0.789873 0.888326
O O1 0.304313 0.500000 0.845442
O O2 0.365627 0.365627 0.856431
O O3 0.224375 0.391288 0.892905
O O4 0.254425 0.380170 0.783508
O O5 0.889770 0.690149 0.607986
O O6 0.860069 0.614727 0.705589
O O7 0.924182 0.739578 0.710351
O O8 0.000000 0.629754 0.666130
O O9 0.740654 0.259347 0.071140
O O10 0.881045 0.285023 0.080485
O O11 0.806034 0.356016 0.000000
O O12 0.301639 0.500000 0.586358
O O13 0.375883 0.375883 0.592148
O O14 0.231041 0.376320 0.568406
O O15 0.279948 0.404356 0.673806
O O16 0.707314 0.849689 0.500000
O O17 0.769258 0.769258 0.584300
O O18 0.500000 0.204402 0.260229
O O19 0.138951 0.861049 0.732400
O O20 0.101123 0.772718 0.820494
O O21 0.000000 0.844037 0.761826
O O22 0.865059 0.865059 0.906124
O O23 0.000000 0.801142 0.904296
#
# Coordination Sequence:
#
# PCOD8312496 Si02
#       8
#    16  16  16  16  16  16  16  16
#     4  10  20  34  54  78 102 129 161 199 244 294
#     4  10  19  30  48  72  94 119 156 202 241 272
#     4   9  18  32  49  69  95 130 169 204 241 292
#     4   9  17  29  46  68  93 121 153 189 230 280
#     4   9  18  32  48  65  89 124 160 193 237 292
#     4   9  18  32  48  68  96 127 155 184 228 287
#     4   9  17  28  43  66  94 121 150 185 228 278
#     4   9  17  29  47  72 101 133 169 210 255 301
#
# _framework density 17.390425
#
# number of rings (size 3 to 8) (size 9 to 14) (size 15 to 20)
#    0.000    2.750    0.000    1.500    0.000    4.250 
#    0.000    1.250    0.000    3.375    0.000    9.625 
#    0.000    0.000    0.000   11.625    0.000    0.125 
#
# Total GULP energy -1586322.557337 kJ/mol
# GULP energy per Si atom -12393.144979 kJ/mol
# Density = 1.735084 g / cm^3
# Si number density = 17.390425 Si / 1000 Ang^3
#
#
#
# Elastic Constant Matrix: (Units=GPa)
#
#
# Indices 1 2 3 4 5 6 
#
# 1 69.7834 21.8991 17.3302 0.0000 0.0000 0.0000
# 2 21.8991 69.7834 17.3302 0.0000 0.0000 0.0000
# 3 17.3302 17.3302 75.7780 0.0000 0.0000 0.0000
# 4 0.0000 0.0000 0.0000 11.2483 0.0000 0.0000
# 5 0.0000 0.0000 0.0000 0.0000 11.2483 0.0000
# 6 0.0000 0.0000 0.0000 0.0000 0.0000 26.2312
#
#
#
# Elastic Compliance Matrix: (Units=1/GPa)
#
#
# Indices 1 2 3 4 5 6 
#
# 1 0.016412 -0.004472 -0.002731 0.000000 0.000000 0.000000
# 2 -0.004472 0.016412 -0.002731 0.000000 0.000000 0.000000
# 3 -0.002731 -0.002731 0.014445 0.000000 0.000000 0.000000
# 4 0.000000 0.000000 0.000000 0.088903 0.000000 0.000000
# 5 0.000000 0.000000 0.000000 0.000000 0.088903 0.000000
# 6 0.000000 0.000000 0.000000 0.000000 0.000000 0.038123
#
#
# Mechanical properties :
#
#
# Convention : Reuss Voigt Hill
#
# Bulk Modulus (GPa) = 36.49337 36.49596 36.49467
# Shear Modulus (GPa) = 17.11178 20.33125 18.72152
#
# Velocity S-wave (km/s) = 3.14024 3.42293 3.28463
# Velocity P-wave (km/s) = 5.84624 6.05423 5.95114
#
# Compressibility (1/GPa) = 0.02740224
#
# Stress axis : x y z
#
# Youngs Moduli (GPa) = 60.93269 60.93269 69.22642
#
# Poissons Ratio (x) = 0.27250 0.18902
# Poissons Ratio (y) = 0.27250 0.18902
# Poissons Ratio (z) = 0.16638 0.16638
#
# Static dielectric constant tensor:
#      x y z
#    x 3.891790 0.000000 0.000000 
#    y 0.000000 3.891790 0.000000 
#    z 0.000000 0.000000 3.332460 
# 
# 
# High freq. dielectric constant tensor:
#      x y z
#    x 1.659400 0.000000 0.000000 
#    y 0.000000 1.659400 0.000000 
#    z 0.000000 0.000000 1.675990 
# 
# From -- ./inp_files/7691.got.cif
#   From: 2010.03.12/outbox.cif.g09.slc.cpg/sg123_4_cif.got.tgz:7691.got - 2010.04.06 16:26:55.
