data_PCOD8312291
_publ_section_title
;
Structure prediction by ZEFSAII (Michael W. Deem and Ramdas Pophale) SiO2 
 PCOD8312291
Probable space group: P 4/M M M
;
_chemical_formula_sum "Si O2"
_cell_formula_units_Z 96
_cell_length_a 22.926366
_cell_length_b 22.926366
_cell_length_c 15.247427
_cell_angle_alpha 90.000000
_cell_angle_beta 90.000000
_cell_angle_gamma 90.000000
_cell_volume 8014.326018
_symmetry_space_group_name_H-M "P 4/M M M"
_symmetry_group_IT_number 123
_symmetry_cell_setting 'tetragonal'
loop_
_space_group_symop_operation_xyz
x,y,z
-y,x,z
-x,-y,z
y,-x,z
x,-y,-z
-x,y,-z
y,x,-z
-y,-x,-z
-x,-y,-z
y,-x,-z
x,y,-z
-y,x,-z
-x,y,z
x,-y,z
-y,-x,z
y,x,z
loop_
_atom_site_type_symbol
_atom_site_label
_atom_site_fract_x
_atom_site_fract_y
_atom_site_fract_z
Si Si1 0.930560 0.618743 0.596257
Si Si2 0.158698 0.066784 0.265382
Si Si3 0.789707 0.117993 0.900621
Si Si4 0.749170 0.069091 0.597061
Si Si5 0.666732 0.067413 0.899286
Si Si6 0.069359 0.435704 0.772868
O O1 0.909379 0.596087 0.500000
O O2 0.906550 0.684078 0.612695
O O3 0.906873 0.578295 0.674838
O O4 0.000000 0.619733 0.597405
O O5 0.098610 0.098610 0.286751
O O6 0.176262 0.074918 0.164138
O O7 0.208475 0.094549 0.328245
O O8 0.147864 0.000000 0.286984
O O9 0.815589 0.184412 0.888056
O O10 0.720740 0.111331 0.880834
O O11 0.801623 0.096611 0.000000
O O12 0.771323 0.087447 0.500000
O O13 0.747542 0.000000 0.605613
O O14 0.612773 0.091116 0.841744
O O15 0.683507 0.000000 0.874755
O O16 0.647020 0.070656 0.000000
O O17 0.092772 0.500000 0.799589
O O18 0.000000 0.435651 0.772862
#
# Coordination Sequence:
#
# PCOD8312291 Si02
#       6
#    16  16  16  16  16  16
#     4   8  13  21  33  47  61  78 100 124 147 169
#     4  10  19  28  38  50  63  79  97 121 157 203
#     4   9  17  28  41  55  66  76  97 131 167 199
#     4   8  14  25  39  51  61  75  98 126 152 180
#     4   9  16  25  37  50  64  84 106 128 157 191
#     4   9  16  23  31  46  68  91 111 127 143 171
#
# _framework density 11.978548999999999
#
# number of rings (size 3 to 8) (size 9 to 14) (size 15 to 20)
#    0.000    3.167    0.000    2.500    0.000    4.833 
#    0.000    3.333    0.000    0.000    0.000    4.667 
#    0.000    0.000    0.000    0.000    0.000    0.000 
#
# Total GULP energy -1189372.796241 kJ/mol
# GULP energy per Si atom -12389.299961 kJ/mol
# Density = 1.195129 g / cm^3
# Si number density = 11.978549 Si / 1000 Ang^3
#
#
#
# Elastic Constant Matrix: (Units=GPa)
#
#
# Indices 1 2 3 4 5 6 
#
# 1 49.6839 23.6349 27.1549 0.0000 0.0000 0.0000
# 2 23.6349 49.6839 27.1549 0.0000 0.0000 0.0000
# 3 27.1549 27.1549 62.0935 0.0000 0.0000 0.0000
# 4 0.0000 0.0000 0.0000 12.3025 0.0000 0.0000
# 5 0.0000 0.0000 0.0000 0.0000 12.3025 0.0000
# 6 0.0000 0.0000 0.0000 0.0000 0.0000 3.7825
#
#
#
# Elastic Compliance Matrix: (Units=1/GPa)
#
#
# Indices 1 2 3 4 5 6 
#
# 1 0.029282 -0.009107 -0.008823 0.000000 0.000000 0.000000
# 2 -0.009107 0.029282 -0.008823 0.000000 0.000000 0.000000
# 3 -0.008823 -0.008823 0.023822 0.000000 0.000000 0.000000
# 4 0.000000 0.000000 0.000000 0.081285 0.000000 0.000000
# 5 0.000000 0.000000 0.000000 0.000000 0.081285 0.000000
# 6 0.000000 0.000000 0.000000 0.000000 0.000000 0.264376
#
#
# Mechanical properties :
#
#
# Convention : Reuss Voigt Hill
#
# Bulk Modulus (GPa) = 34.62679 35.26120 34.94399
# Shear Modulus (GPa) = 8.73420 11.24526 9.98973
#
# Velocity S-wave (km/s) = 2.70321 3.06728 2.89098
# Velocity P-wave (km/s) = 6.22200 6.48422 6.35446
#
# Compressibility (1/GPa) = 0.02887937
#
# Stress axis : x y z
#
# Youngs Moduli (GPa) = 34.15097 34.15097 41.97886
#
# Poissons Ratio (x) = 0.31103 0.37037
# Poissons Ratio (y) = 0.31103 0.37037
# Poissons Ratio (z) = 0.30130 0.30130
#
# Static dielectric constant tensor:
#      x y z
#    x 2.326500 0.000000 0.000000 
#    y 0.000000 2.326500 0.000000 
#    z 0.000000 0.000000 2.776490 
# 
# 
# High freq. dielectric constant tensor:
#      x y z
#    x 1.411920 0.000000 0.000000 
#    y 0.000000 1.411920 0.000000 
#    z 0.000000 0.000000 1.476680 
# 
# From -- ./inp_files/5748.got.cif
#   From: 2010.03.12/outbox.cif.g09.slc.cpg/sg123_3_cif.got.tgz:5748.got - 2010.04.06 16:26:55.
