data_PCOD8312841
_publ_section_title
;
Structure prediction by ZEFSAII (Michael W. Deem and Ramdas Pophale) SiO2 
 PCOD8312841
Probable space group: P 4/M M M
;
_chemical_formula_sum "Si O2"
_cell_formula_units_Z 120
_cell_length_a 17.625526
_cell_length_b 17.625526
_cell_length_c 21.955292
_cell_angle_alpha 90.000000
_cell_angle_beta 90.000000
_cell_angle_gamma 90.000000
_cell_volume 6820.612719
_symmetry_space_group_name_H-M "P 4/M M M"
_symmetry_group_IT_number 123
_symmetry_cell_setting 'tetragonal'
loop_
_space_group_symop_operation_xyz
x,y,z
-y,x,z
-x,-y,z
y,-x,z
x,-y,-z
-x,y,-z
y,x,-z
-y,-x,-z
-x,-y,-z
y,-x,-z
x,y,-z
-y,x,-z
-x,y,z
x,-y,z
-y,-x,z
y,x,z
loop_
_atom_site_type_symbol
_atom_site_label
_atom_site_fract_x
_atom_site_fract_y
_atom_site_fract_z
Si Si1 0.792347 0.910541 0.294302
Si Si2 0.915474 0.718625 0.168920
Si Si3 0.289740 0.412183 0.428662
Si Si4 0.804191 0.319827 0.933432
Si Si5 0.712903 0.413208 0.846249
Si Si6 0.583874 0.150967 0.767043
Si Si7 0.000000 0.413802 0.428150
Si Si8 0.353704 0.856167 0.361230
O O1 0.874639 0.874639 0.309295
O O2 0.777126 0.894139 0.222727
O O3 0.731486 0.866200 0.335902
O O4 0.791896 0.000000 0.309030
O O5 0.863188 0.724774 0.109578
O O6 0.909903 0.635723 0.198850
O O7 0.000000 0.733236 0.145588
O O8 0.271619 0.410790 0.500000
O O9 0.295077 0.500000 0.405961
O O10 0.369470 0.369470 0.414722
O O11 0.222898 0.365409 0.396006
O O12 0.734521 0.265480 0.944010
O O13 0.770372 0.395429 0.902145
O O14 0.839978 0.339833 0.000000
O O15 0.685874 0.500000 0.850887
O O16 0.638373 0.361628 0.845686
O O17 0.761693 0.396059 0.785173
O O18 0.500000 0.131651 0.789515
O O19 0.588467 0.142173 0.694910
O O20 0.925262 0.371489 0.405650
O O21 0.000000 0.500000 0.404329
O O22 0.000000 0.410630 0.500000
#
# Coordination Sequence:
#
# PCOD8312841 Si02
#       8
#    16  16  16  16  16  16   8  16
#     4  10  20  35  54  78 107 136 171 216 264 317
#     4   9  18  30  46  72 100 126 160 203 250 292
#     4  10  21  36  54  77 106 141 180 219 259 306
#     4   9  17  30  48  67  91 128 167 200 244 304
#     4   9  18  32  48  69  95 125 166 214 262 308
#     4   9  18  30  47  68  96 130 160 194 239 301
#     4  11  22  34  52  80 115 145 170 212 265 318
#     4  11  20  35  53  80 105 137 175 214 263 317
#
# _framework density 17.593727000000001
#
# number of rings (size 3 to 8) (size 9 to 14) (size 15 to 20)
#    0.000    2.333    0.667    2.400    0.933    6.000 
#    0.000    0.667    0.000    0.000    0.000    7.467 
#    0.000    0.533    0.000   12.400    0.000    0.000 
#
# Total GULP energy -1487348.705680 kJ/mol
# GULP energy per Si atom -12394.572547 kJ/mol
# Density = 1.755368 g / cm^3
# Si number density = 17.593727 Si / 1000 Ang^3
#
#
#
# Elastic Constant Matrix: (Units=GPa)
#
#
# Indices 1 2 3 4 5 6 
#
# 1 84.9082 46.3487 25.3128 0.0000 0.0000 0.0000
# 2 46.3487 84.9082 25.3128 0.0000 0.0000 0.0000
# 3 25.3128 25.3128 71.1501 0.0000 0.0000 0.0000
# 4 0.0000 0.0000 0.0000 18.1259 0.0000 0.0000
# 5 0.0000 0.0000 0.0000 0.0000 18.1259 0.0000
# 6 0.0000 0.0000 0.0000 0.0000 0.0000 22.4318
#
#
#
# Elastic Compliance Matrix: (Units=1/GPa)
#
#
# Indices 1 2 3 4 5 6 
#
# 1 0.017382 -0.008552 -0.003142 0.000000 0.000000 0.000000
# 2 -0.008552 0.017382 -0.003142 0.000000 0.000000 0.000000
# 3 -0.003142 -0.003142 0.016290 0.000000 0.000000 0.000000
# 4 0.000000 0.000000 0.000000 0.055170 0.000000 0.000000
# 5 0.000000 0.000000 0.000000 0.000000 0.055170 0.000000
# 6 0.000000 0.000000 0.000000 0.000000 0.000000 0.044580
#
#
# Mechanical properties :
#
#
# Convention : Reuss Voigt Hill
#
# Bulk Modulus (GPa) = 46.76258 48.32391 47.54325
# Shear Modulus (GPa) = 20.59549 21.33617 20.96583
#
# Velocity S-wave (km/s) = 3.42514 3.48618 3.45580
# Velocity P-wave (km/s) = 6.50222 6.61293 6.55781
#
# Compressibility (1/GPa) = 0.02138462
#
# Stress axis : x y z
#
# Youngs Moduli (GPa) = 57.53037 57.53037 61.38697
#
# Poissons Ratio (x) = 0.49199 0.19285
# Poissons Ratio (y) = 0.49199 0.19285
# Poissons Ratio (z) = 0.18073 0.18073
#
# Static dielectric constant tensor:
#      x y z
#    x 3.179150 0.000000 0.000000 
#    y 0.000000 3.179150 0.000000 
#    z 0.000000 0.000000 3.507220 
# 
# 
# High freq. dielectric constant tensor:
#      x y z
#    x 1.672810 0.000000 0.000000 
#    y 0.000000 1.672810 0.000000 
#    z 0.000000 0.000000 1.676610 
# 
# From -- ./inp_files/6819.got.cif
#   From: 2010.03.12/outbox.cif.g09.slc.cpg/sg123_4_cif.got.tgz:6819.got - 2010.04.06 16:26:55.
