data_PCOD8312233
_publ_section_title
;
Structure prediction by ZEFSAII (Michael W. Deem and Ramdas Pophale) SiO2 
 PCOD8312233
Probable space group: P 4/M M M
;
_chemical_formula_sum "Si O2"
_cell_formula_units_Z 120
_cell_length_a 28.088614
_cell_length_b 28.088614
_cell_length_c 7.824675
_cell_angle_alpha 90.000000
_cell_angle_beta 90.000000
_cell_angle_gamma 90.000000
_cell_volume 6173.435685
_symmetry_space_group_name_H-M "P 4/M M M"
_symmetry_group_IT_number 123
_symmetry_cell_setting 'tetragonal'
loop_
_space_group_symop_operation_xyz
x,y,z
-y,x,z
-x,-y,z
y,-x,z
x,-y,-z
-x,y,-z
y,x,-z
-y,-x,-z
-x,-y,-z
y,-x,-z
x,y,-z
-y,x,-z
-x,y,z
x,-y,z
-y,-x,z
y,x,z
loop_
_atom_site_type_symbol
_atom_site_label
_atom_site_fract_x
_atom_site_fract_y
_atom_site_fract_z
Si Si1 0.794623 0.054468 0.807633
Si Si2 0.640901 0.193070 0.694909
Si Si3 0.553301 0.629206 0.296335
Si Si4 0.553179 0.136895 0.198800
Si Si5 0.295491 0.109228 0.693793
Si Si6 0.052856 0.618211 0.803085
Si Si7 0.627922 0.296361 0.297028
Si Si8 0.944399 0.865085 0.500000
O O1 0.750076 0.090520 0.796913
O O2 0.834774 0.068200 0.669690
O O3 0.777483 0.000000 0.773279
O O4 0.815691 0.059119 0.000000
O O5 0.656251 0.199581 0.500000
O O6 0.588095 0.171706 0.700957
O O7 0.681124 0.157730 0.776788
O O8 0.637159 0.244504 0.786858
O O9 0.551665 0.628549 0.500000
O O10 0.500000 0.627309 0.219053
O O11 0.583343 0.583343 0.231866
O O12 0.579291 0.677889 0.233257
O O13 0.500000 0.142302 0.272590
O O14 0.570657 0.083111 0.230287
O O15 0.554889 0.150145 0.000000
O O16 0.278926 0.117996 0.500000
O O17 0.337154 0.070188 0.692270
O O18 0.000000 0.604955 0.746198
O O19 0.056111 0.634236 0.000000
O O20 0.625144 0.291731 0.500000
O O21 0.672078 0.327923 0.238053
O O22 0.912785 0.912785 0.500000
O O23 0.000000 0.879935 0.500000
#
# Coordination Sequence:
#
# PCOD8312233 Si02
#       8
#    16  16  16  16  16  16  16   8
#     4  10  20  35  58  86 116 152 189 227 274 325
#     4   9  18  30  46  67  92 121 162 208 256 304
#     4   8  13  20  31  50  77 108 142 183 234 294
#     4   9  18  31  44  60  86 120 156 199 252 302
#     4  10  18  29  46  71 105 134 170 217 269 321
#     4   9  17  28  43  64  88 120 164 209 255 309
#     4   8  14  26  42  59  81 110 146 187 230 279
#     4  10  22  41  64  92 124 156 191 229 269 317
#
# _framework density 19.438122
#
# number of rings (size 3 to 8) (size 9 to 14) (size 15 to 20)
#    0.000    2.933    0.667    1.600    0.000    3.933 
#    0.000    4.000    0.000    0.400    0.000    5.600 
#    0.000    0.000    0.000    0.000    0.000    0.000 
#
# Total GULP energy -1486986.908416 kJ/mol
# GULP energy per Si atom -12391.557570 kJ/mol
# Density = 1.939388 g / cm^3
# Si number density = 19.438122 Si / 1000 Ang^3
#
#
#
# Elastic Constant Matrix: (Units=GPa)
#
#
# Indices 1 2 3 4 5 6 
#
# 1 146.1032 69.9891 18.9560 0.0000 0.0000 0.0000
# 2 69.9891 146.1032 18.9560 0.0000 0.0000 0.0000
# 3 18.9560 18.9560 50.6472 0.0000 0.0000 0.0000
# 4 0.0000 0.0000 0.0000 9.1849 0.0000 0.0000
# 5 0.0000 0.0000 0.0000 0.0000 9.1849 0.0000
# 6 0.0000 0.0000 0.0000 0.0000 0.0000 20.0094
#
#
#
# Elastic Compliance Matrix: (Units=1/GPa)
#
#
# Indices 1 2 3 4 5 6 
#
# 1 0.009046 -0.004093 -0.001854 0.000000 0.000000 0.000000
# 2 -0.004093 0.009046 -0.001854 0.000000 0.000000 0.000000
# 3 -0.001854 -0.001854 0.021132 0.000000 0.000000 0.000000
# 4 0.000000 0.000000 0.000000 0.108874 0.000000 0.000000
# 5 0.000000 0.000000 0.000000 0.000000 0.108874 0.000000
# 6 0.000000 0.000000 0.000000 0.000000 0.000000 0.049976
#
#
# Mechanical properties :
#
#
# Convention : Reuss Voigt Hill
#
# Bulk Modulus (GPa) = 42.33188 62.07284 52.20236
# Shear Modulus (GPa) = 15.13212 23.33935 19.23573
#
# Velocity S-wave (km/s) = 2.79315 3.46887 3.14918
# Velocity P-wave (km/s) = 5.67691 6.93159 6.33539
#
# Compressibility (1/GPa) = 0.02362286
#
# Stress axis : x y z
#
# Youngs Moduli (GPa) = 110.55191 110.55191 47.32148
#
# Poissons Ratio (x) = 0.45245 0.08772
# Poissons Ratio (y) = 0.45245 0.08772
# Poissons Ratio (z) = 0.20493 0.20493
#
# Static dielectric constant tensor:
#      x y z
#    x 3.647500 0.000000 0.000000 
#    y 0.000000 3.647500 0.000000 
#    z 0.000000 0.000000 3.243500 
# 
# 
# High freq. dielectric constant tensor:
#      x y z
#    x 1.746180 0.000000 0.000000 
#    y 0.000000 1.746180 0.000000 
#    z 0.000000 0.000000 1.732480 
# 
# From -- ./inp_files/2011.got.cif
#   From: 2010.03.12/outbox.cif.g09.slc.cpg/sg123_2_cif.got.tgz:2011.got - 2010.04.06 16:26:55.
