data_PCOD8312926
_publ_section_title
;
Structure prediction by ZEFSAII (Michael W. Deem and Ramdas Pophale) SiO2 
 PCOD8312926
Probable space group: P 4/M M M
;
_chemical_formula_sum "Si O2"
_cell_formula_units_Z 56
_cell_length_a 18.020236
_cell_length_b 18.020236
_cell_length_c 8.744387
_cell_angle_alpha 90.000000
_cell_angle_beta 90.000000
_cell_angle_gamma 90.000000
_cell_volume 2839.555220
_symmetry_space_group_name_H-M "P 4/M M M"
_symmetry_group_IT_number 123
_symmetry_cell_setting 'tetragonal'
loop_
_space_group_symop_operation_xyz
x,y,z
-y,x,z
-x,-y,z
y,-x,z
x,-y,-z
-x,y,-z
y,x,-z
-y,-x,-z
-x,-y,-z
y,-x,-z
x,y,-z
-y,x,-z
-x,y,z
x,-y,z
-y,-x,z
y,x,z
loop_
_atom_site_type_symbol
_atom_site_label
_atom_site_fract_x
_atom_site_fract_y
_atom_site_fract_z
Si Si1 0.000000 0.414359 0.320233
Si Si2 0.197807 0.802194 0.181760
Si Si3 0.416884 0.702845 0.322469
Si Si4 0.917845 0.082156 0.817856
Si Si5 0.640559 0.847213 0.818987
O O1 0.926351 0.378356 0.251780
O O2 0.000000 0.500000 0.274748
O O3 0.000000 0.401807 0.500000
O O4 0.139791 0.860210 0.253913
O O5 0.278471 0.824268 0.241535
O O6 0.195704 0.804297 0.000000
O O7 0.401614 0.718246 0.500000
O O8 0.500000 0.670978 0.297476
O O9 0.357726 0.642275 0.258507
O O10 0.413245 0.781235 0.234660
O O11 0.000000 0.103620 0.760485
O O12 0.915428 0.084573 0.000000
O O13 0.636198 0.854929 0.000000
#
# Coordination Sequence:
#
# PCOD8312926 Si02
#       5
#     8   8  16   8  16
#     4  11  25  43  61  85 118 155 198 246 296 354
#     4   9  19  32  50  81 117 147 184 234 286 341
#     4  10  21  38  60  85 116 155 197 244 298 357
#     4   8  14  25  44  71 104 141 175 211 261 318
#     4  11  22  38  60  88 120 154 194 243 299 358
#
# _framework density 19.721398000000001
#
# number of rings (size 3 to 8) (size 9 to 14) (size 15 to 20)
#    0.000    2.000    1.429    2.571    2.000    5.429 
#    0.000    1.429    0.000    0.000    0.000    2.000 
#    0.000    1.143    0.000    0.000    0.000    0.000 
#
# Total GULP energy -694368.907996 kJ/mol
# GULP energy per Si atom -12399.444786 kJ/mol
# Density = 1.967651 g / cm^3
# Si number density = 19.721398 Si / 1000 Ang^3
#
#
#
# Elastic Constant Matrix: (Units=GPa)
#
#
# Indices 1 2 3 4 5 6 
#
# 1 146.4311 75.1831 38.5531 0.0000 0.0000 0.0000
# 2 75.1831 146.4312 38.5531 0.0000 0.0000 0.0000
# 3 38.5531 38.5531 42.5144 0.0000 0.0000 0.0000
# 4 0.0000 0.0000 0.0000 23.0187 0.0000 0.0000
# 5 0.0000 0.0000 0.0000 0.0000 23.0187 0.0000
# 6 0.0000 0.0000 0.0000 0.0000 0.0000 36.4600
#
#
#
# Elastic Compliance Matrix: (Units=1/GPa)
#
#
# Indices 1 2 3 4 5 6 
#
# 1 0.010314 -0.003722 -0.005978 0.000000 0.000000 0.000000
# 2 -0.003722 0.010314 -0.005978 0.000000 0.000000 0.000000
# 3 -0.005978 -0.005978 0.034364 0.000000 0.000000 0.000000
# 4 0.000000 0.000000 0.000000 0.043443 0.000000 0.000000
# 5 0.000000 0.000000 0.000000 0.000000 0.043443 0.000000
# 6 0.000000 0.000000 0.000000 0.000000 0.000000 0.027427
#
#
# Mechanical properties :
#
#
# Convention : Reuss Voigt Hill
#
# Bulk Modulus (GPa) = 42.30851 71.10614 56.70732
# Shear Modulus (GPa) = 23.97638 28.70530 26.34084
#
# Velocity S-wave (km/s) = 3.49055 3.81929 3.65862
# Velocity P-wave (km/s) = 6.14369 7.45540 6.83110
#
# Compressibility (1/GPa) = 0.02363591
#
# Stress axis : x y z
#
# Youngs Moduli (GPa) = 96.95662 96.95685 29.10063
#
# Poissons Ratio (x) = 0.36083 0.17397
# Poissons Ratio (y) = 0.36083 0.17396
# Poissons Ratio (z) = 0.57961 0.57961
#
# Static dielectric constant tensor:
#      x y z
#    x 3.817120 0.000000 0.000000 
#    y 0.000000 3.817100 0.000000 
#    z 0.000000 0.000000 3.270870 
# 
# 
# High freq. dielectric constant tensor:
#      x y z
#    x 1.781360 0.000000 0.000000 
#    y 0.000000 1.781360 0.000000 
#    z 0.000000 0.000000 1.739390 
# 
# From -- ./inp_files/626.got.cif
#   From: 2010.03.12/outbox.cif.g09.slc.cpg/sg123_1_cif.got.tgz:626.got - 2010.04.06 16:26:55.
