data_PCOD8312630
_publ_section_title
;
Structure prediction by ZEFSAII (Michael W. Deem and Ramdas Pophale) SiO2 
 PCOD8312630
Probable space group: P 4/M M M
;
_chemical_formula_sum "Si O2"
_cell_formula_units_Z 96
_cell_length_a 24.487790
_cell_length_b 24.487790
_cell_length_c 9.338034
_cell_angle_alpha 90.000000
_cell_angle_beta 90.000000
_cell_angle_gamma 90.000000
_cell_volume 5599.569448
_symmetry_space_group_name_H-M "P 4/M M M"
_symmetry_group_IT_number 123
_symmetry_cell_setting 'tetragonal'
loop_
_space_group_symop_operation_xyz
x,y,z
-y,x,z
-x,-y,z
y,-x,z
x,-y,-z
-x,y,-z
y,x,-z
-y,-x,-z
-x,-y,-z
y,-x,-z
x,y,-z
-y,x,-z
-x,y,z
x,-y,z
-y,-x,z
y,x,z
loop_
_atom_site_type_symbol
_atom_site_label
_atom_site_fract_x
_atom_site_fract_y
_atom_site_fract_z
Si Si1 0.562242 0.650265 0.664204
Si Si2 0.147412 0.147412 0.668814
Si Si3 0.939547 0.690447 0.661243
Si Si4 0.348415 0.179648 0.665987
Si Si5 0.764884 0.764884 0.669161
Si Si6 0.436754 0.757574 0.167617
Si Si7 0.938677 0.796804 0.841600
O O1 0.571534 0.668362 0.500000
O O2 0.500000 0.633021 0.691992
O O3 0.598276 0.598276 0.705415
O O4 0.580090 0.699746 0.765083
O O5 0.144115 0.144115 0.500000
O O6 0.191408 0.191408 0.725220
O O7 0.089235 0.162128 0.732526
O O8 0.934885 0.715230 0.500000
O O9 0.886190 0.653331 0.686984
O O10 0.935605 0.736400 0.779641
O O11 0.000000 0.661111 0.676543
O O12 0.358281 0.193995 0.500000
O O13 0.294951 0.214049 0.721475
O O14 0.400359 0.196131 0.759482
O O15 0.765320 0.765320 0.500000
O O16 0.500000 0.770922 0.199667
O O17 0.424500 0.755571 0.000000
O O18 0.000000 0.817574 0.853160
O O19 0.911585 0.796900 0.000000
#
# Coordination Sequence:
#
# PCOD8312630 Si02
#       7
#    16   8  16  16   8  16  16
#     4   9  18  33  53  76 101 131 167 207 253 304
#     4  11  19  33  53  72 102 137 173 212 253 304
#     4   9  17  31  52  77 104 135 169 204 247 302
#     4  10  19  33  53  77 107 137 168 209 254 301
#     4   9  18  31  47  77 110 134 160 202 253 298
#     4  10  22  38  53  72 100 134 175 218 255 300
#     4  10  20  32  47  71 103 137 172 210 255 306
#
# _framework density 17.144176000000002
#
# number of rings (size 3 to 8) (size 9 to 14) (size 15 to 20)
#    0.000    2.333    1.667    1.250    1.167    3.167 
#    0.000    0.833    0.000    0.750    0.000    7.583 
#    0.000    0.000    0.000    0.000    0.000    0.000 
#
# Total GULP energy -1189773.634860 kJ/mol
# GULP energy per Si atom -12393.475363 kJ/mol
# Density = 1.710515 g / cm^3
# Si number density = 17.144176 Si / 1000 Ang^3
#
#
#
# Elastic Constant Matrix: (Units=GPa)
#
#
# Indices 1 2 3 4 5 6 
#
# 1 95.4200 61.7500 53.5016 0.0000 0.0000 0.0000
# 2 61.7500 95.4200 53.5016 0.0000 0.0000 0.0000
# 3 53.5016 53.5016 100.1906 0.0000 0.0000 0.0000
# 4 0.0000 0.0000 0.0000 22.7571 0.0000 0.0000
# 5 0.0000 0.0000 0.0000 0.0000 22.7571 0.0000
# 6 0.0000 0.0000 0.0000 0.0000 0.0000 26.8958
#
#
#
# Elastic Compliance Matrix: (Units=1/GPa)
#
#
# Indices 1 2 3 4 5 6 
#
# 1 0.019848 -0.009852 -0.005338 0.000000 0.000000 0.000000
# 2 -0.009852 0.019848 -0.005338 0.000000 0.000000 0.000000
# 3 -0.005338 -0.005338 0.015682 0.000000 0.000000 0.000000
# 4 0.000000 0.000000 0.000000 0.043942 0.000000 0.000000
# 5 0.000000 0.000000 0.000000 0.000000 0.043942 0.000000
# 6 0.000000 0.000000 0.000000 0.000000 0.000000 0.037181
#
#
# Mechanical properties :
#
#
# Convention : Reuss Voigt Hill
#
# Bulk Modulus (GPa) = 69.81873 69.83745 69.82809
# Shear Modulus (GPa) = 22.09697 22.63381 22.36539
#
# Velocity S-wave (km/s) = 3.59401 3.63740 3.61577
# Velocity P-wave (km/s) = 7.61810 7.64622 7.63217
#
# Compressibility (1/GPa) = 0.01432280
#
# Stress axis : x y z
#
# Youngs Moduli (GPa) = 50.38167 50.38167 63.76607
#
# Poissons Ratio (x) = 0.49634 0.34041
# Poissons Ratio (y) = 0.49634 0.34041
# Poissons Ratio (z) = 0.26896 0.26896
#
# Static dielectric constant tensor:
#      x y z
#    x 3.253730 0.000000 0.000000 
#    y 0.000000 3.253730 0.000000 
#    z 0.000000 0.000000 3.252720 
# 
# 
# High freq. dielectric constant tensor:
#      x y z
#    x 1.650060 0.000000 0.000000 
#    y 0.000000 1.650060 0.000000 
#    z 0.000000 0.000000 1.663310 
# 
# From -- ./inp_files/1698.got.cif
#   From: 2010.03.12/outbox.cif.g09.slc.cpg/sg123_1_cif.got.tgz:1698.got - 2010.04.06 16:26:55.
