data_PCOD8312254
_publ_section_title
;
Structure prediction by ZEFSAII (Michael W. Deem and Ramdas Pophale) SiO2 
 PCOD8312254
Probable space group: P 4/M M M
;
_chemical_formula_sum "Si O2"
_cell_formula_units_Z 104
_cell_length_a 26.745246
_cell_length_b 26.745246
_cell_length_c 8.847388
_cell_angle_alpha 90.000000
_cell_angle_beta 90.000000
_cell_angle_gamma 90.000000
_cell_volume 6328.609040
_symmetry_space_group_name_H-M "P 4/M M M"
_symmetry_group_IT_number 123
_symmetry_cell_setting 'tetragonal'
loop_
_space_group_symop_operation_xyz
x,y,z
-y,x,z
-x,-y,z
y,-x,z
x,-y,-z
-x,y,-z
y,x,-z
-y,-x,-z
-x,-y,-z
y,-x,-z
x,y,-z
-y,x,-z
-x,y,z
x,-y,z
-y,-x,z
y,x,z
loop_
_atom_site_type_symbol
_atom_site_label
_atom_site_fract_x
_atom_site_fract_y
_atom_site_fract_z
Si Si1 0.554903 0.229633 0.675241
Si Si2 0.685556 0.154419 0.321178
Si Si3 0.862357 0.057094 0.675366
Si Si4 0.055832 0.500000 0.179549
Si Si5 0.128894 0.585756 0.178523
Si Si6 0.264582 0.658118 0.322130
Si Si7 0.210907 0.870234 0.822859
O O1 0.562294 0.214132 0.500000
O O2 0.500000 0.254052 0.701751
O O3 0.559261 0.180364 0.775068
O O4 0.599059 0.268602 0.721348
O O5 0.684741 0.151146 0.500000
O O6 0.639554 0.122028 0.256881
O O7 0.679673 0.211643 0.263830
O O8 0.736707 0.131824 0.261415
O O9 0.847912 0.061910 0.500000
O O10 0.913585 0.086416 0.711162
O O11 0.816985 0.079389 0.772497
O O12 0.870814 0.000000 0.724052
O O13 0.084135 0.549981 0.234886
O O14 0.000000 0.500000 0.248043
O O15 0.054527 0.500000 0.000000
O O16 0.128350 0.593240 0.000000
O O17 0.267392 0.664872 0.500000
O O18 0.310092 0.689909 0.247124
O O19 0.177687 0.822313 0.775890
O O20 0.220533 0.871947 0.000000
#
# Coordination Sequence:
#
# PCOD8312254 Si02
#       7
#    16  16  16   8  16  16  16
#     4   9  16  26  42  63  88 116 147 186 230 277
#     4  10  19  31  48  69  93 124 157 194 236 280
#     4   9  18  33  53  76 100 126 156 191 233 281
#     4   9  18  32  49  67  87 113 147 189 236 283
#     4  10  18  30  48  68  88 114 151 192 234 281
#     4   8  14  24  39  61  87 115 147 183 224 270
#     4  10  20  33  50  73 100 129 161 195 232 280
#
# _framework density 16.433311
#
# number of rings (size 3 to 8) (size 9 to 14) (size 15 to 20)
#    0.000    2.692    0.769    2.769    0.000    2.000 
#    0.000    1.538    0.000   10.615    0.000    2.154 
#    0.000    0.308    0.000    4.308    0.000    0.000 
#
# Total GULP energy -1289188.576039 kJ/mol
# GULP energy per Si atom -12396.044000 kJ/mol
# Density = 1.639591 g / cm^3
# Si number density = 16.433311 Si / 1000 Ang^3
#
#
#
# Elastic Constant Matrix: (Units=GPa)
#
#
# Indices 1 2 3 4 5 6 
#
# 1 134.7599 68.4794 32.0071 0.0000 0.0000 0.0000
# 2 68.4794 134.7599 32.0071 0.0000 0.0000 0.0000
# 3 32.0071 32.0071 48.6218 0.0000 0.0000 0.0000
# 4 0.0000 0.0000 0.0000 19.7282 0.0000 0.0000
# 5 0.0000 0.0000 0.0000 0.0000 19.7282 0.0000
# 6 0.0000 0.0000 0.0000 0.0000 0.0000 23.9244
#
#
#
# Elastic Compliance Matrix: (Units=1/GPa)
#
#
# Indices 1 2 3 4 5 6 
#
# 1 0.010647 -0.004440 -0.004086 0.000000 0.000000 0.000000
# 2 -0.004440 0.010647 -0.004086 0.000000 0.000000 0.000000
# 3 -0.004086 -0.004086 0.025947 0.000000 0.000000 0.000000
# 4 0.000000 0.000000 0.000000 0.050689 0.000000 0.000000
# 5 0.000000 0.000000 0.000000 0.000000 0.050689 0.000000
# 6 0.000000 0.000000 0.000000 0.000000 0.000000 0.041798
#
#
# Mechanical properties :
#
#
# Convention : Reuss Voigt Hill
#
# Bulk Modulus (GPa) = 45.42041 64.79209 55.10625
# Shear Modulus (GPa) = 22.42343 25.05270 23.73806
#
# Velocity S-wave (km/s) = 3.69794 3.90873 3.80479
# Velocity P-wave (km/s) = 6.77733 7.73846 7.27379
#
# Compressibility (1/GPa) = 0.02201654
#
# Stress axis : x y z
#
# Youngs Moduli (GPa) = 93.91992 93.91992 38.54053
#
# Poissons Ratio (x) = 0.41701 0.15748
# Poissons Ratio (y) = 0.41701 0.15748
# Poissons Ratio (z) = 0.38378 0.38378
#
# Static dielectric constant tensor:
#      x y z
#    x 3.225920 0.000000 0.000000 
#    y 0.000000 3.225920 0.000000 
#    z 0.000000 0.000000 2.956930 
# 
# 
# High freq. dielectric constant tensor:
#      x y z
#    x 1.622520 0.000000 0.000000 
#    y 0.000000 1.622520 0.000000 
#    z 0.000000 0.000000 1.620780 
# 
# From -- ./inp_files/1957.got.cif
#   From: 2010.03.12/outbox.cif.g09.slc.cpg/sg123_1_cif.got.tgz:1957.got - 2010.04.06 16:26:55.
