data_PCOD8312199
_publ_section_title
;
Structure prediction by ZEFSAII (Michael W. Deem and Ramdas Pophale) SiO2 
 PCOD8312199
Probable space group: P 4/M M M
;
_chemical_formula_sum "Si O2"
_cell_formula_units_Z 112
_cell_length_a 17.723024
_cell_length_b 17.723024
_cell_length_c 22.247100
_cell_angle_alpha 90.000000
_cell_angle_beta 90.000000
_cell_angle_gamma 90.000000
_cell_volume 6987.938242
_symmetry_space_group_name_H-M "P 4/M M M"
_symmetry_group_IT_number 123
_symmetry_cell_setting 'tetragonal'
loop_
_space_group_symop_operation_xyz
x,y,z
-y,x,z
-x,-y,z
y,-x,z
x,-y,-z
-x,y,-z
y,x,-z
-y,-x,-z
-x,-y,-z
y,-x,-z
x,y,-z
-y,x,-z
-x,y,z
x,-y,z
-y,-x,z
y,x,z
loop_
_atom_site_type_symbol
_atom_site_label
_atom_site_fract_x
_atom_site_fract_y
_atom_site_fract_z
Si Si1 0.584809 0.703601 0.873507
Si Si2 0.585282 0.218800 0.248578
Si Si3 0.586093 0.913861 0.570814
Si Si4 0.349903 0.916317 0.815762
Si Si5 0.816082 0.303747 0.650018
Si Si6 0.586861 0.861151 0.067918
Si Si7 0.210233 0.087778 0.739944
O O1 0.500000 0.673655 0.876862
O O2 0.637753 0.637753 0.897266
O O3 0.605707 0.723436 0.804618
O O4 0.596682 0.773270 0.917973
O O5 0.500000 0.230609 0.271775
O O6 0.591434 0.135429 0.220139
O O7 0.643047 0.228785 0.303169
O O8 0.594798 0.904989 0.500000
O O9 0.500000 0.894413 0.590306
O O10 0.644439 0.855474 0.600192
O O11 0.604869 0.000000 0.590093
O O12 0.359812 0.908556 0.887537
O O13 0.263002 0.898324 0.798362
O O14 0.369973 0.000000 0.794557
O O15 0.753307 0.246694 0.621805
O O16 0.880847 0.254726 0.682062
O O17 0.500000 0.885612 0.077428
O O18 0.613060 0.877516 0.000000
O O19 0.132271 0.132271 0.750067
O O20 0.191147 0.000000 0.729714
#
# Coordination Sequence:
#
# PCOD8312199 Si02
#       7
#    16  16  16  16  16  16  16
#     4   9  17  29  43  58  78 103 134 172 208 244
#     4   9  17  28  42  61  86 116 143 167 205 255
#     4   9  18  32  48  66  91 123 155 185 218 259
#     4   9  17  28  42  63  88 109 135 174 211 245
#     4  10  18  28  45  68  93 118 146 181 218 256
#     4   9  18  30  42  58  81 110 139 164 200 253
#     4   9  18  31  46  65  88 113 142 177 216 258
#
# _framework density 16.027618
#
# number of rings (size 3 to 8) (size 9 to 14) (size 15 to 20)
#    0.000    2.857    0.000    3.000    0.000    6.286 
#    0.000    0.714    0.000    0.000    0.000    2.000 
#    0.000    2.571    0.000   22.714    0.000    0.000 
#
# Total GULP energy -1388297.845393 kJ/mol
# GULP energy per Si atom -12395.516477 kJ/mol
# Density = 1.599114 g / cm^3
# Si number density = 16.027618 Si / 1000 Ang^3
#
#
#
# Elastic Constant Matrix: (Units=GPa)
#
#
# Indices 1 2 3 4 5 6 
#
# 1 75.9739 48.3347 27.8860 0.0000 0.0000 0.0000
# 2 48.3347 75.9739 27.8860 0.0000 0.0000 0.0000
# 3 27.8860 27.8860 59.5271 0.0000 0.0000 0.0000
# 4 0.0000 0.0000 0.0000 17.8227 0.0000 0.0000
# 5 0.0000 0.0000 0.0000 0.0000 17.8227 0.0000
# 6 0.0000 0.0000 0.0000 0.0000 0.0000 25.6637
#
#
#
# Elastic Compliance Matrix: (Units=1/GPa)
#
#
# Indices 1 2 3 4 5 6 
#
# 1 0.023183 -0.012998 -0.004771 0.000000 0.000000 0.000000
# 2 -0.012998 0.023183 -0.004771 0.000000 0.000000 0.000000
# 3 -0.004771 -0.004771 0.021269 0.000000 0.000000 0.000000
# 4 0.000000 0.000000 0.000000 0.056108 0.000000 0.000000
# 5 0.000000 0.000000 0.000000 0.000000 0.056108 0.000000
# 6 0.000000 0.000000 0.000000 0.000000 0.000000 0.038966
#
#
# Mechanical properties :
#
#
# Convention : Reuss Voigt Hill
#
# Bulk Modulus (GPa) = 44.33717 46.63203 45.48460
# Shear Modulus (GPa) = 18.42190 19.41969 18.92080
#
# Velocity S-wave (km/s) = 3.39394 3.48464 3.43959
# Velocity P-wave (km/s) = 6.56365 6.73411 6.64942
#
# Compressibility (1/GPa) = 0.02255444
#
# Stress axis : x y z
#
# Youngs Moduli (GPa) = 43.13531 43.13531 47.01585
#
# Poissons Ratio (x) = 0.56066 0.22433
# Poissons Ratio (y) = 0.56066 0.22433
# Poissons Ratio (z) = 0.20581 0.20581
#
# Static dielectric constant tensor:
#      x y z
#    x 2.970060 0.000000 0.000000 
#    y 0.000000 2.970060 0.000000 
#    z 0.000000 0.000000 2.908370 
# 
# 
# High freq. dielectric constant tensor:
#      x y z
#    x 1.607900 0.000000 0.000000 
#    y 0.000000 1.607900 0.000000 
#    z 0.000000 0.000000 1.599350 
# 
# From -- ./inp_files/6660.got.cif
#   From: 2010.03.12/outbox.cif.g09.slc.cpg/sg123_4_cif.got.tgz:6660.got - 2010.04.06 16:26:55.
