data_PCOD8312836
_publ_section_title
;
Structure prediction by ZEFSAII (Michael W. Deem and Ramdas Pophale) SiO2 
 PCOD8312836
Probable space group: P 4/M M M
;
_chemical_formula_sum "Si O2"
_cell_formula_units_Z 120
_cell_length_a 17.548572
_cell_length_b 17.548572
_cell_length_c 20.195341
_cell_angle_alpha 90.000000
_cell_angle_beta 90.000000
_cell_angle_gamma 90.000000
_cell_volume 6219.203310
_symmetry_space_group_name_H-M "P 4/M M M"
_symmetry_group_IT_number 123
_symmetry_cell_setting 'tetragonal'
loop_
_space_group_symop_operation_xyz
x,y,z
-y,x,z
-x,-y,z
y,-x,z
x,-y,-z
-x,y,-z
y,x,-z
-y,-x,-z
-x,-y,-z
y,-x,-z
x,y,-z
-y,x,-z
-x,y,z
x,-y,z
-y,-x,z
y,x,z
loop_
_atom_site_type_symbol
_atom_site_label
_atom_site_fract_x
_atom_site_fract_y
_atom_site_fract_z
Si Si1 0.704392 0.586475 0.173834
Si Si2 0.914933 0.721698 0.256388
Si Si3 0.500000 0.083097 0.078426
Si Si4 0.087594 0.790736 0.605531
Si Si5 0.670114 0.795670 0.573322
Si Si6 0.643276 0.822510 0.924806
Si Si7 0.414419 0.809033 0.294537
Si Si8 0.089985 0.211637 0.884256
O O1 0.704617 0.500000 0.146626
O O2 0.618432 0.618432 0.174934
O O3 0.751198 0.642349 0.124601
O O4 0.733851 0.589904 0.249417
O O5 0.904227 0.781153 0.315769
O O6 0.866188 0.645788 0.263091
O O7 0.893870 0.769269 0.191853
O O8 0.000000 0.690321 0.252875
O O9 0.575580 0.124785 0.103347
O O10 0.500000 0.000000 0.111213
O O11 0.500000 0.077090 0.000000
O O12 0.133226 0.866775 0.583642
O O13 0.123811 0.715187 0.572719
O O14 0.000000 0.798638 0.582451
O O15 0.634057 0.784267 0.500000
O O16 0.729952 0.729952 0.590853
O O17 0.604616 0.791683 0.628639
O O18 0.721499 0.870193 0.926169
O O19 0.627792 0.794737 0.000000
O O20 0.500000 0.843403 0.292172
O O21 0.131248 0.131248 0.901138
O O22 0.000000 0.205289 0.901474
#
# Coordination Sequence:
#
# PCOD8312836 Si02
#       8
#    16  16   8  16  16  16  16  16
#     4  11  23  39  60  86 116 150 188 231 281 337
#     4   9  18  33  51  74 106 143 180 222 277 338
#     4   9  18  34  56  82 115 147 178 228 289 342
#     4   9  17  29  47  71 100 136 180 228 276 327
#     4   9  18  33  53  75 103 143 183 218 263 322
#     4  11  22  38  59  87 117 150 193 237 287 344
#     4  10  20  34  55  84 112 140 177 222 273 327
#     4  11  23  38  58  83 113 153 198 243 292 344
#
# _framework density 19.295075000000001
#
# number of rings (size 3 to 8) (size 9 to 14) (size 15 to 20)
#    0.000    2.067    2.000    1.600    0.000    4.133 
#    0.000    0.000    0.000    2.400    0.000    7.467 
#    0.000    0.000    0.000   12.400    0.000    0.000 
#
# Total GULP energy -1487611.788047 kJ/mol
# GULP energy per Si atom -12396.764900 kJ/mol
# Density = 1.925116 g / cm^3
# Si number density = 19.295075 Si / 1000 Ang^3
#
#
#
# Elastic Constant Matrix: (Units=GPa)
#
#
# Indices 1 2 3 4 5 6 
#
# 1 98.9333 57.2315 18.8524 0.0000 0.0000 0.0000
# 2 57.2315 98.9333 18.8524 0.0000 0.0000 0.0000
# 3 18.8524 18.8524 77.9339 0.0000 0.0000 0.0000
# 4 0.0000 0.0000 0.0000 17.8896 0.0000 0.0000
# 5 0.0000 0.0000 0.0000 0.0000 17.8896 0.0000
# 6 0.0000 0.0000 0.0000 0.0000 0.0000 25.5068
#
#
#
# Elastic Compliance Matrix: (Units=1/GPa)
#
#
# Indices 1 2 3 4 5 6 
#
# 1 0.015390 -0.008590 -0.001645 0.000000 0.000000 0.000000
# 2 -0.008590 0.015390 -0.001645 0.000000 0.000000 0.000000
# 3 -0.001645 -0.001645 0.013627 0.000000 0.000000 0.000000
# 4 0.000000 0.000000 0.000000 0.055898 0.000000 0.000000
# 5 0.000000 0.000000 0.000000 0.000000 0.055898 0.000000
# 6 0.000000 0.000000 0.000000 0.000000 0.000000 0.039205
#
#
# Mechanical properties :
#
#
# Convention : Reuss Voigt Hill
#
# Bulk Modulus (GPa) = 48.43023 51.74144 50.08583
# Shear Modulus (GPa) = 22.11880 24.31481 23.21681
#
# Velocity S-wave (km/s) = 3.38944 3.55372 3.47255
# Velocity P-wave (km/s) = 6.36176 6.61155 6.48786
#
# Compressibility (1/GPa) = 0.02064826
#
# Stress axis : x y z
#
# Youngs Moduli (GPa) = 64.97625 64.97625 73.38218
#
# Poissons Ratio (x) = 0.55812 0.12072
# Poissons Ratio (y) = 0.55812 0.12072
# Poissons Ratio (z) = 0.10689 0.10689
#
# Static dielectric constant tensor:
#      x y z
#    x 3.435890 0.000000 0.000000 
#    y 0.000000 3.435890 0.000000 
#    z 0.000000 0.000000 3.551070 
# 
# 
# High freq. dielectric constant tensor:
#      x y z
#    x 1.738100 0.000000 0.000000 
#    y 0.000000 1.738100 0.000000 
#    z 0.000000 0.000000 1.754970 
# 
# From -- ./inp_files/6779.got.cif
#   From: 2010.03.12/outbox.cif.g09.slc.cpg/sg123_4_cif.got.tgz:6779.got - 2010.04.06 16:26:55.
