data_PCOD8312137
_publ_section_title
;
Structure prediction by ZEFSAII (Michael W. Deem and Ramdas Pophale) SiO2 
 PCOD8312137
Probable space group: P 4/M M M
;
_chemical_formula_sum "Si O2"
_cell_formula_units_Z 112
_cell_length_a 28.598606
_cell_length_b 28.598606
_cell_length_c 9.197135
_cell_angle_alpha 90.000000
_cell_angle_beta 90.000000
_cell_angle_gamma 90.000000
_cell_volume 7522.155212
_symmetry_space_group_name_H-M "P 4/M M M"
_symmetry_group_IT_number 123
_symmetry_cell_setting 'tetragonal'
loop_
_space_group_symop_operation_xyz
x,y,z
-y,x,z
-x,-y,z
y,-x,z
x,-y,-z
-x,y,-z
y,x,-z
-y,-x,-z
-x,-y,-z
y,-x,-z
x,y,-z
-y,x,-z
-x,y,z
x,-y,z
-y,-x,z
y,x,z
loop_
_atom_site_type_symbol
_atom_site_label
_atom_site_fract_x
_atom_site_fract_y
_atom_site_fract_z
Si Si1 0.182451 0.740610 0.828105
Si Si2 0.215531 0.653528 0.329684
Si Si3 0.946595 0.129210 0.168514
Si Si4 0.447283 0.236646 0.331053
Si Si5 0.606633 0.393367 0.329414
Si Si6 0.682023 0.682023 0.329053
Si Si7 0.116095 0.194409 0.336587
Si Si8 0.553404 0.327953 0.842431
O O1 0.228825 0.771176 0.786800
O O2 0.183106 0.688001 0.763691
O O3 0.136235 0.763231 0.758695
O O4 0.176062 0.738248 0.000000
O O5 0.209585 0.665216 0.500000
O O6 0.202728 0.597856 0.301839
O O7 0.267377 0.666284 0.272944
O O8 0.916658 0.083343 0.209204
O O9 0.930450 0.174224 0.261058
O O10 0.000000 0.117708 0.207333
O O11 0.940109 0.142166 0.000000
O O12 0.448689 0.249776 0.500000
O O13 0.500000 0.217750 0.285010
O O14 0.431342 0.282982 0.248843
O O15 0.599846 0.400154 0.500000
O O16 0.644587 0.355413 0.274083
O O17 0.625032 0.440376 0.253952
O O18 0.681216 0.681216 0.500000
O O19 0.104439 0.211721 0.500000
O O20 0.153755 0.153755 0.340886
O O21 0.500000 0.323142 0.876712
O O22 0.579474 0.329872 0.000000
#
# Coordination Sequence:
#
# PCOD8312137 Si02
#       8
#    16  16  16  16   8   8  16  16
#     4  10  19  28  39  58  81 105 135 171 211 256
#     4  10  17  27  40  55  79 105 130 162 199 238
#     4   9  17  29  45  65  90 120 154 194 236 274
#     4   9  17  29  43  57  75 102 133 160 187 226
#     4  11  19  31  47  60  72  91 117 143 176 217
#     4   9  16  25  37  57  78  96 119 153 190 225
#     4   9  17  29  44  60  80 110 145 181 222 266
#     4  10  20  31  42  58  77  93 110 137 177 222
#
# _framework density 14.88935
#
# number of rings (size 3 to 8) (size 9 to 14) (size 15 to 20)
#    0.000    2.429    2.143    1.500    0.000    4.143 
#    0.000    0.714    0.000    0.214    0.000    3.500 
#    0.000    0.000    0.000    0.000    0.000    0.714 
#
# Total GULP energy -1387486.853025 kJ/mol
# GULP energy per Si atom -12388.275473 kJ/mol
# Density = 1.485546 g / cm^3
# Si number density = 14.889350 Si / 1000 Ang^3
#
#
#
# Elastic Constant Matrix: (Units=GPa)
#
#
# Indices 1 2 3 4 5 6 
#
# 1 53.5063 43.1020 33.3707 0.0000 0.0000 0.0000
# 2 43.1020 53.5063 33.3707 0.0000 0.0000 0.0000
# 3 33.3707 33.3707 77.2763 0.0000 0.0000 0.0000
# 4 0.0000 0.0000 0.0000 19.0078 0.0000 0.0000
# 5 0.0000 0.0000 0.0000 0.0000 19.0078 0.0000
# 6 0.0000 0.0000 0.0000 0.0000 0.0000 19.3221
#
#
#
# Elastic Compliance Matrix: (Units=1/GPa)
#
#
# Indices 1 2 3 4 5 6 
#
# 1 0.055433 -0.040681 -0.006370 0.000000 0.000000 0.000000
# 2 -0.040681 0.055433 -0.006370 0.000000 0.000000 0.000000
# 3 -0.006370 -0.006370 0.018443 0.000000 0.000000 0.000000
# 4 0.000000 0.000000 0.000000 0.052610 0.000000 0.000000
# 5 0.000000 0.000000 0.000000 0.000000 0.052610 0.000000
# 6 0.000000 0.000000 0.000000 0.000000 0.000000 0.051754
#
#
# Mechanical properties :
#
#
# Convention : Reuss Voigt Hill
#
# Bulk Modulus (GPa) = 44.51402 44.88619 44.70011
# Shear Modulus (GPa) = 12.48079 16.43056 14.45567
#
# Velocity S-wave (km/s) = 2.89837 3.32552 3.11926
# Velocity P-wave (km/s) = 6.41578 6.70503 6.56200
#
# Compressibility (1/GPa) = 0.02246483
#
# Stress axis : x y z
#
# Youngs Moduli (GPa) = 18.03974 18.03974 54.22231
#
# Poissons Ratio (x) = 0.73388 0.34542
# Poissons Ratio (y) = 0.73388 0.34542
# Poissons Ratio (z) = 0.11492 0.11492
#
# Static dielectric constant tensor:
#      x y z
#    x 2.754220 0.000000 0.000000 
#    y 0.000000 2.754220 0.000000 
#    z 0.000000 0.000000 3.691070 
# 
# 
# High freq. dielectric constant tensor:
#      x y z
#    x 1.535140 0.000000 0.000000 
#    y 0.000000 1.535140 0.000000 
#    z 0.000000 0.000000 1.580370 
# 
# From -- ./inp_files/2196.got.cif
#   From: 2010.03.12/outbox.cif.g09.slc.cpg/sg123_2_cif.got.tgz:2196.got - 2010.04.06 16:26:55.
