data_PCOD8312009
_publ_section_title
;
Structure prediction by ZEFSAII (Michael W. Deem and Ramdas Pophale) SiO2 
 PCOD8312009
Probable space group: I -4 2 D
;
_chemical_formula_sum "Si O2"
_cell_formula_units_Z 72
_cell_length_a 17.235790
_cell_length_b 17.235790
_cell_length_c 14.639508
_cell_angle_alpha 90.000000
_cell_angle_beta 90.000000
_cell_angle_gamma 90.000000
_cell_volume 4348.994610
_symmetry_space_group_name_H-M "I -4 2 D"
_symmetry_group_IT_number 122
_symmetry_cell_setting 'tetragonal'
loop_
_space_group_symop_operation_xyz
x,y,z
y,-x,-z
-x,-y,z
-y,x,-z
x,1/2-y,1/4-z
-x,1/2+y,1/4-z
-y,1/2-x,1/4+z
y,1/2+x,1/4+z
1/2+x,1/2+y,1/2+z
1/2+y,1/2-x,1/2-z
1/2-x,1/2-y,1/2+z
1/2-y,1/2+x,1/2-z
1/2+x,-y,3/4-z
1/2-x,y,3/4-z
1/2-y,-x,3/4+z
1/2+y,x,3/4+z
loop_
_atom_site_type_symbol
_atom_site_label
_atom_site_fract_x
_atom_site_fract_y
_atom_site_fract_z
Si Si1 0.190995 0.052059 0.076779
Si Si2 0.113399 0.116853 0.901274
Si Si3 0.509338 0.687129 0.703421
Si Si4 0.683180 0.813927 0.546289
Si Si5 0.767085 0.250000 0.125000
O O1 0.210551 0.103520 0.164920
O O2 0.150014 0.972363 0.104724
O O3 0.134956 0.099107 0.006918
O O4 0.275934 0.037879 0.036393
O O5 0.174619 0.178901 0.860896
O O6 0.114937 0.038764 0.838984
O O7 0.515584 0.750000 0.625000
O O8 0.595464 0.668125 0.737703
O O9 0.686781 0.750000 0.625000
O O10 0.737630 0.787951 0.462809
#
# Coordination Sequence:
#
# PCOD8312009 Si02
#       5
#    16  16  16  16   8
#     4  11  19  32  54  82 111 141 174 222 281 332
#     4  11  19  32  55  84 111 137 175 227 286 340
#     4   9  17  30  50  80 112 136 166 216 274 335
#     4  11  20  34  53  77 109 147 178 221 274 323
#     4  12  20  34  56  76 104 150 188 214 272 338
#
# _framework density 16.555548999999999
#
# number of rings (size 3 to 8) (size 9 to 14) (size 15 to 20)
#    0.000    1.333    7.778    2.667    0.000    3.111 
#    0.000    0.000    7.333    0.000    0.000    0.000 
#    0.000    0.000    0.000    0.000    0.000    0.000 
#
# Total GULP energy -446230.361174 kJ/mol
# GULP energy per Si atom -12395.287810 kJ/mol
# Density = 1.651787 g / cm^3
# Si number density = 16.555549 Si / 1000 Ang^3
#
#
#
# Elastic Constant Matrix: (Units=GPa)
#
#
# Indices 1 2 3 4 5 6 
#
# 1 84.0609 33.5966 51.7403 0.0000 0.0000 0.0000
# 2 33.5966 84.0609 51.7403 0.0000 0.0000 0.0000
# 3 51.7403 51.7403 83.1740 0.0000 0.0000 0.0000
# 4 0.0000 0.0000 0.0000 25.1484 0.0000 0.0000
# 5 0.0000 0.0000 0.0000 0.0000 25.1484 0.0000
# 6 0.0000 0.0000 0.0000 0.0000 0.0000 17.2834
#
#
#
# Elastic Compliance Matrix: (Units=1/GPa)
#
#
# Indices 1 2 3 4 5 6 
#
# 1 0.019291 -0.000525 -0.011674 0.000000 0.000000 0.000000
# 2 -0.000525 0.019291 -0.011674 0.000000 0.000000 0.000000
# 3 -0.011674 -0.011674 0.026548 0.000000 0.000000 0.000000
# 4 0.000000 0.000000 0.000000 0.039764 0.000000 0.000000
# 5 0.000000 0.000000 0.000000 0.000000 0.039764 0.000000
# 6 0.000000 0.000000 0.000000 0.000000 0.000000 0.057859
#
#
# Mechanical properties :
#
#
# Convention : Reuss Voigt Hill
#
# Bulk Modulus (GPa) = 57.52442 58.38336 57.95389
# Shear Modulus (GPa) = 19.52676 21.13062 20.32869
#
# Velocity S-wave (km/s) = 3.43807 3.57648 3.50795
# Velocity P-wave (km/s) = 7.11211 7.23855 7.17561
#
# Compressibility (1/GPa) = 0.01738392
#
# Stress axis : x y z
#
# Youngs Moduli (GPa) = 51.83632 51.83632 37.66805
#
# Poissons Ratio (x) = 0.02719 0.43975
# Poissons Ratio (y) = 0.02719 0.43975
# Poissons Ratio (z) = 0.60516 0.60516
#
# Static dielectric constant tensor:
#      x y z
#    x 3.244530 0.000000 0.000000 
#    y 0.000000 3.244530 0.000000 
#    z 0.000000 0.000000 3.227270 
# 
# 
# High freq. dielectric constant tensor:
#      x y z
#    x 1.631730 0.000000 0.000000 
#    y 0.000000 1.631730 0.000000 
#    z 0.000000 0.000000 1.604510 
# 
# From -- ./inp_files/4199.got.cif
#   From: 2010.03.12/outbox.cif.g09.slc.cpg/sg122_3_cif.got.tgz:4199.got - 2010.04.06 16:17:16.
