data_PCOD8312938
_publ_section_title
;
Structure prediction by ZEFSAII (Michael W. Deem and Ramdas Pophale) SiO2 
 PCOD8312938
Probable space group: P 4/M M M
;
_chemical_formula_sum "Si O2"
_cell_formula_units_Z 56
_cell_length_a 19.700775
_cell_length_b 19.700775
_cell_length_c 7.439071
_cell_angle_alpha 90.000000
_cell_angle_beta 90.000000
_cell_angle_gamma 90.000000
_cell_volume 2887.256221
_symmetry_space_group_name_H-M "P 4/M M M"
_symmetry_group_IT_number 123
_symmetry_cell_setting 'tetragonal'
loop_
_space_group_symop_operation_xyz
x,y,z
-y,x,z
-x,-y,z
y,-x,z
x,-y,-z
-x,y,-z
y,x,-z
-y,-x,-z
-x,-y,-z
y,-x,-z
x,y,-z
-y,x,-z
-x,y,z
x,-y,z
-y,-x,z
y,x,z
loop_
_atom_site_type_symbol
_atom_site_label
_atom_site_fract_x
_atom_site_fract_y
_atom_site_fract_z
Si Si1 0.681452 0.575272 0.286393
Si Si2 0.166723 0.575048 0.286636
Si Si3 0.808851 0.920939 0.000000
Si Si4 0.300382 0.078724 0.293714
O O1 0.679483 0.579054 0.500000
O O2 0.660006 0.500000 0.222187
O O3 0.629596 0.629596 0.200784
O O4 0.757331 0.591738 0.218361
O O5 0.164494 0.574032 0.500000
O O6 0.144636 0.500000 0.215606
O O7 0.117434 0.633851 0.214291
O O8 0.765408 0.902532 0.823041
O O9 0.877345 0.877345 0.000000
O O10 0.829786 0.000000 0.000000
O O11 0.284816 0.099155 0.500000
O O12 0.317975 0.000000 0.275336
#
# Coordination Sequence:
#
# PCOD8312938 Si02
#       4
#    16  16   8  16
#     4   8  13  20  30  48  77 113 155 201 243 284
#     4   8  14  25  42  66  96 130 168 206 244 291
#     4  10  22  39  57  79 105 131 166 210 254 308
#     4   9  18  33  53  77 105 135 166 203 247 295
#
# _framework density 19.395575999999998
#
# number of rings (size 3 to 8) (size 9 to 14) (size 15 to 20)
#    0.000    3.429    0.000    1.714    0.000    2.714 
#    0.000    7.857    0.000    2.571    0.000    4.000 
#    0.000    0.000    0.000    0.000    0.000   22.857 
#
# Total GULP energy -694022.442973 kJ/mol
# GULP energy per Si atom -12393.257910 kJ/mol
# Density = 1.935143 g / cm^3
# Si number density = 19.395576 Si / 1000 Ang^3
#
#
#
# Elastic Constant Matrix: (Units=GPa)
#
#
# Indices 1 2 3 4 5 6 
#
# 1 126.5282 98.1012 31.5274 0.0000 0.0000 0.0000
# 2 98.1012 126.5282 31.5274 0.0000 0.0000 0.0000
# 3 31.5274 31.5274 58.1412 0.0000 0.0000 0.0000
# 4 0.0000 0.0000 0.0000 1.2293 0.0000 0.0000
# 5 0.0000 0.0000 0.0000 0.0000 1.2293 0.0000
# 6 0.0000 0.0000 0.0000 0.0000 0.0000 48.8373
#
#
#
# Elastic Compliance Matrix: (Units=1/GPa)
#
#
# Indices 1 2 3 4 5 6 
#
# 1 0.020214 -0.014963 -0.002847 0.000000 0.000000 0.000000
# 2 -0.014963 0.020214 -0.002847 0.000000 0.000000 0.000000
# 3 -0.002847 -0.002847 0.020288 0.000000 0.000000 0.000000
# 4 0.000000 0.000000 0.000000 0.813468 0.000000 0.000000
# 5 0.000000 0.000000 0.000000 0.000000 0.813468 0.000000
# 6 0.000000 0.000000 0.000000 0.000000 0.000000 0.020476
#
#
# Mechanical properties :
#
#
# Convention : Reuss Voigt Hill
#
# Bulk Modulus (GPa) = 51.54634 70.38993 60.96814
# Shear Modulus (GPa) = 2.84752 20.26197 11.55475
#
# Velocity S-wave (km/s) = 1.21298 3.23564 2.44343
# Velocity P-wave (km/s) = 5.34750 7.09434 6.28194
#
# Compressibility (1/GPa) = 0.01940002
#
# Stress axis : x y z
#
# Youngs Moduli (GPa) = 49.46960 49.46960 49.29132
#
# Poissons Ratio (x) = 0.74023 0.14035
# Poissons Ratio (y) = 0.74023 0.14035
# Poissons Ratio (z) = 0.14086 0.14086
#
# Static dielectric constant tensor:
#      x y z
#    x 3.674910 0.000000 0.000000 
#    y 0.000000 3.674910 0.000000 
#    z 0.000000 0.000000 3.291750 
# 
# 
# High freq. dielectric constant tensor:
#      x y z
#    x 1.747460 0.000000 0.000000 
#    y 0.000000 1.747460 0.000000 
#    z 0.000000 0.000000 1.736220 
# 
# From -- ./inp_files/603.got.cif
#   From: 2010.03.12/outbox.cif.g09.slc.cpg/sg123_1_cif.got.tgz:603.got - 2010.04.06 16:26:55.
