data_PCOD8312888
_publ_section_title
;
Structure prediction by ZEFSAII (Michael W. Deem and Ramdas Pophale) SiO2 
 PCOD8312888
Probable space group: P 4/M M M
;
_chemical_formula_sum "Si O2"
_cell_formula_units_Z 96
_cell_length_a 24.281889
_cell_length_b 24.281889
_cell_length_c 8.881527
_cell_angle_alpha 90.000000
_cell_angle_beta 90.000000
_cell_angle_gamma 90.000000
_cell_volume 5236.638319
_symmetry_space_group_name_H-M "P 4/M M M"
_symmetry_group_IT_number 123
_symmetry_cell_setting 'tetragonal'
loop_
_space_group_symop_operation_xyz
x,y,z
-y,x,z
-x,-y,z
y,-x,z
x,-y,-z
-x,y,-z
y,x,-z
-y,-x,-z
-x,-y,-z
y,-x,-z
x,y,-z
-y,x,-z
-x,y,z
x,-y,z
-y,-x,z
y,x,z
loop_
_atom_site_type_symbol
_atom_site_label
_atom_site_fract_x
_atom_site_fract_y
_atom_site_fract_z
Si Si1 0.437869 0.938037 0.321138
Si Si2 0.853359 0.235683 0.176109
Si Si3 0.349639 0.437490 0.671344
Si Si4 0.939474 0.854305 0.178935
Si Si5 0.648335 0.847082 0.678107
Si Si6 0.641879 0.269705 0.176056
O O1 0.436284 0.937033 0.500000
O O2 0.500000 0.923256 0.266035
O O3 0.394481 0.892959 0.257120
O O4 0.422111 0.000000 0.265129
O O5 0.795863 0.204138 0.211376
O O6 0.904271 0.198273 0.228190
O O7 0.861141 0.290306 0.271406
O O8 0.855655 0.250121 0.000000
O O9 0.327694 0.431978 0.500000
O O10 0.357803 0.500000 0.720396
O O11 0.408659 0.408659 0.688219
O O12 0.306124 0.410855 0.784504
O O13 0.909749 0.909749 0.237607
O O14 0.000000 0.850776 0.251793
O O15 0.942702 0.855890 0.000000
O O16 0.645232 0.846149 0.500000
O O17 0.633625 0.787105 0.738283
O O18 0.697691 0.302310 0.225811
O O19 0.643835 0.257468 0.000000
#
# Coordination Sequence:
#
# PCOD8312888 Si02
#       6
#    16  16  16  16  16  16
#     4   8  16  33  53  71  95 125 153 186 234 290
#     4   9  18  32  47  65  96 135 165 190 232 291
#     4   9  18  33  53  77 105 136 170 209 250 290
#     4   8  14  25  42  65  93 126 164 204 244 286
#     4  11  21  31  51  80  99 118 158 205 244 289
#     4  10  21  36  52  71 100 137 171 204 247 297
#
# _framework density 18.332370999999998
#
# number of rings (size 3 to 8) (size 9 to 14) (size 15 to 20)
#    0.000    2.833    0.000    3.000    0.000    5.333 
#    0.000    3.333    0.000    3.000    0.000    7.000 
#    0.000    0.000    0.000    3.667    0.000    3.667 
#
# Total GULP energy -1189943.341194 kJ/mol
# GULP energy per Si atom -12395.243137 kJ/mol
# Density = 1.829065 g / cm^3
# Si number density = 18.332371 Si / 1000 Ang^3
#
#
#
# Elastic Constant Matrix: (Units=GPa)
#
#
# Indices 1 2 3 4 5 6 
#
# 1 -139.5736 375.6657 30.5317 0.0000 0.0000 0.0000
# 2 375.6657 -139.5736 30.5317 0.0000 0.0000 0.0000
# 3 30.5317 30.5317 35.6366 0.0000 0.0000 0.0000
# 4 0.0000 0.0000 0.0000 20.0467 0.0000 0.0000
# 5 0.0000 0.0000 0.0000 0.0000 20.0467 0.0000
# 6 0.0000 0.0000 0.0000 0.0000 0.0000 26.2719
#
#
#
# Elastic Compliance Matrix: (Units=1/GPa)
#
#
# Indices 1 2 3 4 5 6 
#
# 1 0.001750 0.003691 -0.004662 0.000000 0.000000 0.000000
# 2 0.003691 0.001750 -0.004662 0.000000 0.000000 0.000000
# 3 -0.004662 -0.004662 0.036049 0.000000 0.000000 0.000000
# 4 0.000000 0.000000 0.000000 0.049884 0.000000 0.000000
# 5 0.000000 0.000000 0.000000 0.000000 0.049884 0.000000
# 6 0.000000 0.000000 0.000000 0.000000 0.000000 0.038064
#
#
# Mechanical properties :
#
#
# Convention : Reuss Voigt Hill
#
# Bulk Modulus (GPa) = 35.35527 69.99415 52.67471
# Shear Modulus (GPa) = 25.24308 -32.07628 -3.41660
#
# Velocity S-wave (km/s) = 3.71478 -4.18749 -1.36665
# Velocity P-wave (km/s) = 6.14223 3.85791 5.12886
#
# Compressibility (1/GPa) = 0.02828433
#
# Stress axis : x y z
#
# Youngs Moduli (GPa) = 571.33737 571.33737 27.73988
#
# Poissons Ratio (x) = -2.10888 0.12932
# Poissons Ratio (y) = -2.10888 0.12932
# Poissons Ratio (z) = 2.66353 2.66353
#
# Static dielectric constant tensor:
#      x y z
#    x 3.625680 0.000000 0.000000 
#    y 0.000000 3.625680 0.000000 
#    z 0.000000 0.000000 3.029710 
# 
# 
# High freq. dielectric constant tensor:
#      x y z
#    x 1.716830 0.000000 0.000000 
#    y 0.000000 1.716830 0.000000 
#    z 0.000000 0.000000 1.673990 
# 
# From -- ./inp_files/1651.got.cif
#   From: 2010.03.12/outbox.cif.g09.slc.cpg/sg123_1_cif.got.tgz:1651.got - 2010.04.06 16:26:55.
