data_PCOD8312850
_publ_section_title
;
Structure prediction by ZEFSAII (Michael W. Deem and Ramdas Pophale) SiO2 
 PCOD8312850
Probable space group: P 4/M M M
;
_chemical_formula_sum "Si O2"
_cell_formula_units_Z 72
_cell_length_a 22.664723
_cell_length_b 22.664723
_cell_length_c 7.686380
_cell_angle_alpha 90.000000
_cell_angle_beta 90.000000
_cell_angle_gamma 90.000000
_cell_volume 3948.413995
_symmetry_space_group_name_H-M "P 4/M M M"
_symmetry_group_IT_number 123
_symmetry_cell_setting 'tetragonal'
loop_
_space_group_symop_operation_xyz
x,y,z
-y,x,z
-x,-y,z
y,-x,z
x,-y,-z
-x,y,-z
y,x,-z
-y,-x,-z
-x,-y,-z
y,-x,-z
x,y,-z
-y,x,-z
-x,y,z
x,-y,z
-y,-x,z
y,x,z
loop_
_atom_site_type_symbol
_atom_site_label
_atom_site_fract_x
_atom_site_fract_y
_atom_site_fract_z
Si Si1 0.727806 0.181350 0.295231
Si Si2 0.676660 0.935938 0.798675
Si Si3 0.333588 0.429599 0.000000
Si Si4 0.389415 0.752764 0.699003
Si Si5 0.129420 0.435840 0.203509
O O1 0.725703 0.180072 0.500000
O O2 0.787975 0.212026 0.226916
O O3 0.726729 0.113641 0.230092
O O4 0.672710 0.220667 0.230131
O O5 0.614771 0.912917 0.716637
O O6 0.693453 0.000000 0.714916
O O7 0.666902 0.945986 0.000000
O O8 0.299247 0.410274 0.174618
O O9 0.343541 0.500000 0.000000
O O10 0.396934 0.396934 0.000000
O O11 0.384732 0.728728 0.500000
O O12 0.435303 0.806856 0.704339
O O13 0.100478 0.500000 0.237568
O O14 0.140082 0.424475 0.000000
#
# Coordination Sequence:
#
# PCOD8312850 Si02
#       5
#    16  16   8  16  16
#     4   9  18  32  51  75  99 126 165 210 255 299
#     4   9  18  30  43  65  99 137 171 201 240 291
#     4  12  26  41  58  78  99 127 163 203 254 316
#     4  10  20  36  57  81 106 128 158 207 262 309
#     4   9  16  28  47  71 100 134 171 206 240 282
#
# _framework density 18.235168000000002
#
# number of rings (size 3 to 8) (size 9 to 14) (size 15 to 20)
#    0.000    2.444    1.111    1.333    1.556    4.556 
#    0.000    2.222    0.000    0.000    0.000    7.778 
#    0.000    0.444    0.000    4.889    0.000    3.556 
#
# Total GULP energy -892156.062384 kJ/mol
# GULP energy per Si atom -12391.056422 kJ/mol
# Density = 1.819366 g / cm^3
# Si number density = 18.235168 Si / 1000 Ang^3
#
#
#
# Elastic Constant Matrix: (Units=GPa)
#
#
# Indices 1 2 3 4 5 6 
#
# 1 125.8724 79.8390 22.2175 0.0000 0.0000 0.0000
# 2 79.8390 125.8724 22.2175 0.0000 0.0000 0.0000
# 3 22.2175 22.2175 54.7836 0.0000 0.0000 0.0000
# 4 0.0000 0.0000 0.0000 12.9341 0.0000 0.0000
# 5 0.0000 0.0000 0.0000 0.0000 12.9341 0.0000
# 6 0.0000 0.0000 0.0000 0.0000 0.0000 13.9986
#
#
#
# Elastic Compliance Matrix: (Units=1/GPa)
#
#
# Indices 1 2 3 4 5 6 
#
# 1 0.013526 -0.008198 -0.002161 0.000000 0.000000 0.000000
# 2 -0.008198 0.013526 -0.002161 0.000000 0.000000 0.000000
# 3 -0.002161 -0.002161 0.020006 0.000000 0.000000 0.000000
# 4 0.000000 0.000000 0.000000 0.077315 0.000000 0.000000
# 5 0.000000 0.000000 0.000000 0.000000 0.077315 0.000000
# 6 0.000000 0.000000 0.000000 0.000000 0.000000 0.071436
#
#
# Mechanical properties :
#
#
# Convention : Reuss Voigt Hill
#
# Bulk Modulus (GPa) = 45.41515 61.67515 53.54515
# Shear Modulus (GPa) = 16.36654 20.12365 18.24510
#
# Velocity S-wave (km/s) = 2.99912 3.32560 3.16657
# Velocity P-wave (km/s) = 6.07884 6.97435 6.54194
#
# Compressibility (1/GPa) = 0.02201908
#
# Stress axis : x y z
#
# Youngs Moduli (GPa) = 73.93366 73.93366 49.98453
#
# Poissons Ratio (x) = 0.60609 0.10800
# Poissons Ratio (y) = 0.60609 0.10800
# Poissons Ratio (z) = 0.15975 0.15975
#
# Static dielectric constant tensor:
#      x y z
#    x 3.642700 0.000000 0.000000 
#    y 0.000000 3.642700 0.000000 
#    z 0.000000 0.000000 3.284860 
# 
# 
# High freq. dielectric constant tensor:
#      x y z
#    x 1.681430 0.000000 0.000000 
#    y 0.000000 1.681430 0.000000 
#    z 0.000000 0.000000 1.704570 
# 
# From -- ./inp_files/1307.got.cif
#   From: 2010.03.12/outbox.cif.g09.slc.cpg/sg123_1_cif.got.tgz:1307.got - 2010.04.06 16:26:55.
