data_PCOD8312282
_publ_section_title
;
Structure prediction by ZEFSAII (Michael W. Deem and Ramdas Pophale) SiO2 
 PCOD8312282
Probable space group: P 4/M M M
;
_chemical_formula_sum "Si O2"
_cell_formula_units_Z 104
_cell_length_a 18.463475
_cell_length_b 18.463475
_cell_length_c 18.005255
_cell_angle_alpha 90.000000
_cell_angle_beta 90.000000
_cell_angle_gamma 90.000000
_cell_volume 6137.989792
_symmetry_space_group_name_H-M "P 4/M M M"
_symmetry_group_IT_number 123
_symmetry_cell_setting 'tetragonal'
loop_
_space_group_symop_operation_xyz
x,y,z
-y,x,z
-x,-y,z
y,-x,z
x,-y,-z
-x,y,-z
y,x,-z
-y,-x,-z
-x,-y,-z
y,-x,-z
x,y,-z
-y,x,-z
-x,y,z
x,-y,z
-y,-x,z
y,x,z
loop_
_atom_site_type_symbol
_atom_site_label
_atom_site_fract_x
_atom_site_fract_y
_atom_site_fract_z
Si Si1 0.741384 0.855571 0.292672
Si Si2 0.918055 0.797037 0.851091
Si Si3 0.078458 0.500000 0.175565
Si Si4 0.356670 0.082414 0.583120
Si Si5 0.357417 0.758135 0.191421
Si Si6 0.359671 0.879455 0.913274
Si Si7 0.173615 0.500000 0.583490
Si Si8 0.225225 0.500000 0.262611
O O1 0.797408 0.797408 0.325933
O O2 0.782586 0.910017 0.236975
O O3 0.707359 0.897850 0.361036
O O4 0.679540 0.815298 0.246413
O O5 0.857622 0.857622 0.876350
O O6 0.908824 0.720841 0.894233
O O7 0.000000 0.826019 0.866034
O O8 0.080046 0.573739 0.126958
O O9 0.140344 0.500000 0.238350
O O10 0.000000 0.500000 0.215703
O O11 0.327133 0.096138 0.500000
O O12 0.428762 0.127153 0.597399
O O13 0.378943 0.000000 0.595375
O O14 0.313991 0.686010 0.178605
O O15 0.365887 0.795556 0.111171
O O16 0.432085 0.733650 0.228065
O O17 0.372462 0.887203 0.000000
O O18 0.207378 0.500000 0.500000
O O19 0.234404 0.500000 0.647825
#
# Coordination Sequence:
#
# PCOD8312282 Si02
#       8
#    16  16   8  16  16  16   8   8
#     4   9  17  31  48  66  90 118 154 199 241 286
#     4  10  21  35  51  70  92 125 168 212 258 302
#     4  10  21  32  48  77 105 133 166 197 233 288
#     4  10  19  29  43  65  94 126 156 189 231 281
#     4   9  18  32  50  72  94 122 160 196 236 285
#     4  10  20  34  51  73 102 132 161 197 245 297
#     4  10  19  31  44  67  99 131 161 191 226 278
#     4  10  18  33  50  70  95 131 160 198 242 280
#
# _framework density 16.943657999999999
#
# number of rings (size 3 to 8) (size 9 to 14) (size 15 to 20)
#    0.000    2.308    1.538    2.769    0.000    4.769 
#    0.000    0.000    0.000    0.692    0.000    1.077 
#    0.000    0.000    0.000   20.615    0.000    0.000 
#
# Total GULP energy -1288848.036860 kJ/mol
# GULP energy per Si atom -12392.769585 kJ/mol
# Density = 1.690509 g / cm^3
# Si number density = 16.943658 Si / 1000 Ang^3
#
#
#
# Elastic Constant Matrix: (Units=GPa)
#
#
# Indices 1 2 3 4 5 6 
#
# 1 67.2585 22.5458 5.6391 0.0000 0.0000 0.0000
# 2 22.5458 67.2585 5.6391 0.0000 0.0000 0.0000
# 3 5.6391 5.6391 60.9084 0.0000 0.0000 0.0000
# 4 0.0000 0.0000 0.0000 14.5712 0.0000 0.0000
# 5 0.0000 0.0000 0.0000 0.0000 14.5712 0.0000
# 6 0.0000 0.0000 0.0000 0.0000 0.0000 6.0711
#
#
#
# Elastic Compliance Matrix: (Units=1/GPa)
#
#
# Indices 1 2 3 4 5 6 
#
# 1 0.016816 -0.005549 -0.001043 0.000000 0.000000 0.000000
# 2 -0.005549 0.016816 -0.001043 0.000000 0.000000 0.000000
# 3 -0.001043 -0.001043 0.016611 0.000000 0.000000 0.000000
# 4 0.000000 0.000000 0.000000 0.068629 0.000000 0.000000
# 5 0.000000 0.000000 0.000000 0.000000 0.068629 0.000000
# 6 0.000000 0.000000 0.000000 0.000000 0.000000 0.164715
#
#
# Mechanical properties :
#
#
# Convention : Reuss Voigt Hill
#
# Bulk Modulus (GPa) = 28.59466 29.23040 28.91253
# Shear Modulus (GPa) = 13.18765 17.81612 15.50189
#
# Velocity S-wave (km/s) = 2.79287 3.24619 3.02803
# Velocity P-wave (km/s) = 5.22620 5.59815 5.41537
#
# Compressibility (1/GPa) = 0.03497157
#
# Stress axis : x y z
#
# Youngs Moduli (GPa) = 59.46838 59.46838 60.20021
#
# Poissons Ratio (x) = 0.33001 0.06279
# Poissons Ratio (y) = 0.33001 0.06279
# Poissons Ratio (z) = 0.06203 0.06203
#
# Static dielectric constant tensor:
#      x y z
#    x 3.118280 0.000000 0.000000 
#    y 0.000000 3.118280 0.000000 
#    z 0.000000 0.000000 3.191310 
# 
# 
# High freq. dielectric constant tensor:
#      x y z
#    x 1.639420 0.000000 0.000000 
#    y 0.000000 1.639420 0.000000 
#    z 0.000000 0.000000 1.650910 
# 
# From -- ./inp_files/5680.got.cif
#   From: 2010.03.12/outbox.cif.g09.slc.cpg/sg123_3_cif.got.tgz:5680.got - 2010.04.06 16:26:55.
