data_PCOD8312047
_publ_section_title
;
Structure prediction by ZEFSAII (Michael W. Deem and Ramdas Pophale) SiO2 
 PCOD8312047
Probable space group: I -4 2 D
;
_chemical_formula_sum "Si O2"
_cell_formula_units_Z 56
_cell_length_a 24.041335
_cell_length_b 24.041335
_cell_length_c 4.958871
_cell_angle_alpha 90.000000
_cell_angle_beta 90.000000
_cell_angle_gamma 90.000000
_cell_volume 2866.156965
_symmetry_space_group_name_H-M "I -4 2 D"
_symmetry_group_IT_number 122
_symmetry_cell_setting 'tetragonal'
loop_
_space_group_symop_operation_xyz
x,y,z
y,-x,-z
-x,-y,z
-y,x,-z
x,1/2-y,1/4-z
-x,1/2+y,1/4-z
-y,1/2-x,1/4+z
y,1/2+x,1/4+z
1/2+x,1/2+y,1/2+z
1/2+y,1/2-x,1/2-z
1/2-x,1/2-y,1/2+z
1/2-y,1/2+x,1/2-z
1/2+x,-y,3/4-z
1/2-x,y,3/4-z
1/2-y,-x,3/4+z
1/2+y,x,3/4+z
loop_
_atom_site_type_symbol
_atom_site_label
_atom_site_fract_x
_atom_site_fract_y
_atom_site_fract_z
Si Si1 0.085261 0.313191 0.049166
Si Si2 0.855183 0.857384 0.711001
Si Si3 0.212191 0.750000 0.125000
Si Si4 0.789606 0.535940 0.614053
O O1 0.125065 0.326115 0.803045
O O2 0.021834 0.320188 0.953362
O O3 0.097497 0.250000 0.125000
O O4 0.097847 0.354101 0.303374
O O5 0.801419 0.827031 0.819713
O O6 0.839716 0.919796 0.616473
O O7 0.250000 0.733434 0.375000
O O8 0.750000 0.555439 0.375000
O O9 0.750000 0.531405 0.875000
#
# Coordination Sequence:
#
# PCOD8312047 Si02
#       4
#    16  16   8  16
#     4  11  23  40  61  87 121 161 207 249 300 373
#     4  12  23  39  60  89 122 161 202 251 307 367
#     4  12  24  34  54  88 128 154 182 236 314 378
#     4  11  23  41  62  87 120 165 210 249 302 372
#
# _framework density 19.538357000000001
#
# number of rings (size 3 to 8) (size 9 to 14) (size 15 to 20)
#    0.000    0.571    1.429   10.286    2.000    0.000 
#    0.000    0.000    0.000    5.143    0.000    0.000 
#    0.000    0.000    0.000    0.000    0.000    0.000 
#
# Total GULP energy -347250.256931 kJ/mol
# GULP energy per Si atom -12401.794890 kJ/mol
# Density = 1.949389 g / cm^3
# Si number density = 19.538357 Si / 1000 Ang^3
#
#
#
# Elastic Constant Matrix: (Units=GPa)
#
#
# Indices 1 2 3 4 5 6 
#
# 1 107.9292 72.4913 47.4656 0.0000 0.0000 0.0000
# 2 72.4913 107.9292 47.4656 0.0000 0.0000 0.0000
# 3 47.4656 47.4656 141.2163 0.0000 0.0000 0.0000
# 4 0.0000 0.0000 0.0000 38.7400 0.0000 0.0000
# 5 0.0000 0.0000 0.0000 0.0000 38.7400 0.0000
# 6 0.0000 0.0000 0.0000 0.0000 0.0000 18.3677
#
#
#
# Elastic Compliance Matrix: (Units=1/GPa)
#
#
# Indices 1 2 3 4 5 6 
#
# 1 0.017476 -0.010742 -0.002263 0.000000 0.000000 0.000000
# 2 -0.010742 0.017476 -0.002263 0.000000 0.000000 0.000000
# 3 -0.002263 -0.002263 0.008603 0.000000 0.000000 0.000000
# 4 0.000000 0.000000 0.000000 0.025813 0.000000 0.000000
# 5 0.000000 0.000000 0.000000 0.000000 0.025813 0.000000
# 6 0.000000 0.000000 0.000000 0.000000 0.000000 0.054443
#
#
# Mechanical properties :
#
#
# Convention : Reuss Voigt Hill
#
# Bulk Modulus (GPa) = 76.82443 76.87999 76.85221
# Shear Modulus (GPa) = 27.10013 31.81304 29.45658
#
# Velocity S-wave (km/s) = 3.72831 4.03952 3.88703
# Velocity P-wave (km/s) = 7.61176 7.82244 7.71782
#
# Compressibility (1/GPa) = 0.01301669
#
# Stress axis : x y z
#
# Youngs Moduli (GPa) = 57.22158 57.22158 116.24150
#
# Poissons Ratio (x) = 0.61470 0.26308
# Poissons Ratio (y) = 0.61470 0.26308
# Poissons Ratio (z) = 0.12951 0.12951
#
# Static dielectric constant tensor:
#      x y z
#    x 3.665320 0.000000 0.000000 
#    y 0.000000 3.665320 0.000000 
#    z 0.000000 0.000000 3.862920 
# 
# 
# High freq. dielectric constant tensor:
#      x y z
#    x 1.751430 0.000000 0.000000 
#    y 0.000000 1.751430 0.000000 
#    z 0.000000 0.000000 1.788400 
# 
# From -- ./inp_files/1010.got.cif
#   From: 2010.03.12/outbox.cif.g09.slc.cpg/sg122_1_cif.got.tgz:1010.got - 2010.04.06 16:17:16.
