data_PCOD8312131
_publ_section_title
;
Structure prediction by ZEFSAII (Michael W. Deem and Ramdas Pophale) SiO2 
 PCOD8312131
Probable space group: P 4/M M M
;
_chemical_formula_sum "Si O2"
_cell_formula_units_Z 112
_cell_length_a 19.550419
_cell_length_b 19.550419
_cell_length_c 19.231096
_cell_angle_alpha 90.000000
_cell_angle_beta 90.000000
_cell_angle_gamma 90.000000
_cell_volume 7350.488033
_symmetry_space_group_name_H-M "P 4/M M M"
_symmetry_group_IT_number 123
_symmetry_cell_setting 'tetragonal'
loop_
_space_group_symop_operation_xyz
x,y,z
-y,x,z
-x,-y,z
y,-x,z
x,-y,-z
-x,y,-z
y,x,-z
-y,-x,-z
-x,-y,-z
y,-x,-z
x,y,-z
-y,x,-z
-x,y,z
x,-y,z
-y,-x,z
y,x,z
loop_
_atom_site_type_symbol
_atom_site_label
_atom_site_fract_x
_atom_site_fract_y
_atom_site_fract_z
Si Si1 0.723756 0.922894 0.716543
Si Si2 0.167710 0.718673 0.924074
Si Si3 0.211307 0.324476 0.215651
Si Si4 0.813434 0.075641 0.155000
Si Si5 0.422858 0.689395 0.710837
Si Si6 0.743507 0.628851 0.575531
Si Si7 0.852500 0.261372 0.421551
O O1 0.674808 0.860255 0.741555
O O2 0.791255 0.919490 0.764343
O O3 0.744164 0.912307 0.635733
O O4 0.691025 0.000000 0.723827
O O5 0.220440 0.779561 0.933320
O O6 0.196542 0.665585 0.866707
O O7 0.097648 0.750073 0.893931
O O8 0.155625 0.683627 0.000000
O O9 0.252957 0.252957 0.229904
O O10 0.257270 0.388602 0.236468
O O11 0.879021 0.120980 0.141529
O O12 0.834553 0.000000 0.133377
O O13 0.500000 0.674167 0.734933
O O14 0.382008 0.617993 0.710077
O O15 0.425317 0.724858 0.634923
O O16 0.742661 0.592029 0.500000
O O17 0.688749 0.688749 0.577525
O O18 0.816518 0.664681 0.588411
O O19 0.882807 0.255946 0.500000
O O20 0.798805 0.201196 0.408140
#
# Coordination Sequence:
#
# PCOD8312131 Si02
#       7
#    16  16  16  16  16  16  16
#     4  10  17  25  40  61  85 109 141 188 234 268
#     4   8  14  25  42  62  81 102 133 177 220 252
#     4   9  16  29  47  64  86 115 147 178 215 266
#     4   9  17  26  37  55  81 115 149 182 223 271
#     4  10  19  30  47  69  93 121 150 180 211 249
#     4   8  14  25  42  63  84 110 147 183 213 252
#     4   9  15  24  40  59  80 109 145 186 230 273
#
# _framework density 15.237083999999999
#
# number of rings (size 3 to 8) (size 9 to 14) (size 15 to 20)
#    0.000    3.000    1.429    3.000    0.000    1.143 
#    0.000    0.000    0.000    0.857    0.000    4.000 
#    0.000    2.286    0.000   35.000    0.000    0.857 
#
# Total GULP energy -1387485.365940 kJ/mol
# GULP energy per Si atom -12388.262196 kJ/mol
# Density = 1.520240 g / cm^3
# Si number density = 15.237084 Si / 1000 Ang^3
#
#
#
# Elastic Constant Matrix: (Units=GPa)
#
#
# Indices 1 2 3 4 5 6 
#
# 1 66.7342 29.4999 39.5299 0.0000 0.0000 0.0000
# 2 29.4999 66.7342 39.5299 0.0000 0.0000 0.0000
# 3 39.5299 39.5299 124.6241 0.0000 0.0000 0.0000
# 4 0.0000 0.0000 0.0000 11.0496 0.0000 0.0000
# 5 0.0000 0.0000 0.0000 0.0000 11.0496 0.0000
# 6 0.0000 0.0000 0.0000 0.0000 0.0000 9.6955
#
#
#
# Elastic Compliance Matrix: (Units=1/GPa)
#
#
# Indices 1 2 3 4 5 6 
#
# 1 0.020455 -0.006402 -0.004458 0.000000 0.000000 0.000000
# 2 -0.006402 0.020455 -0.004458 0.000000 0.000000 0.000000
# 3 -0.004458 -0.004458 0.010852 0.000000 0.000000 0.000000
# 4 0.000000 0.000000 0.000000 0.090501 0.000000 0.000000
# 5 0.000000 0.000000 0.000000 0.000000 0.090501 0.000000
# 6 0.000000 0.000000 0.000000 0.000000 0.000000 0.103141
#
#
# Mechanical properties :
#
#
# Convention : Reuss Voigt Hill
#
# Bulk Modulus (GPa) = 47.32994 52.80134 50.06564
# Shear Modulus (GPa) = 13.38392 16.32779 14.85586
#
# Velocity S-wave (km/s) = 2.96696 3.27705 3.12585
# Velocity P-wave (km/s) = 6.54728 7.00337 6.77916
#
# Compressibility (1/GPa) = 0.02112828
#
# Stress axis : x y z
#
# Youngs Moduli (GPa) = 48.88737 48.88737 92.14890
#
# Poissons Ratio (x) = 0.31296 0.41077
# Poissons Ratio (y) = 0.31296 0.41077
# Poissons Ratio (z) = 0.21792 0.21792
#
# Static dielectric constant tensor:
#      x y z
#    x 2.642380 0.000000 0.000000 
#    y 0.000000 2.642380 0.000000 
#    z 0.000000 0.000000 3.386750 
# 
# 
# High freq. dielectric constant tensor:
#      x y z
#    x 1.547220 0.000000 0.000000 
#    y 0.000000 1.547220 0.000000 
#    z 0.000000 0.000000 1.596790 
# 
# From -- ./inp_files/5908.got.cif
#   From: 2010.03.12/outbox.cif.g09.slc.cpg/sg123_3_cif.got.tgz:5908.got - 2010.04.06 16:26:55.
