data_PCOD8312296
_publ_section_title
;
Structure prediction by ZEFSAII (Michael W. Deem and Ramdas Pophale) SiO2 
 PCOD8312296
Probable space group: P 4/M M M
;
_chemical_formula_sum "Si O2"
_cell_formula_units_Z 80
_cell_length_a 14.344230
_cell_length_b 14.344230
_cell_length_c 25.697971
_cell_angle_alpha 90.000000
_cell_angle_beta 90.000000
_cell_angle_gamma 90.000000
_cell_volume 5287.535731
_symmetry_space_group_name_H-M "P 4/M M M"
_symmetry_group_IT_number 123
_symmetry_cell_setting 'tetragonal'
loop_
_space_group_symop_operation_xyz
x,y,z
-y,x,z
-x,-y,z
y,-x,z
x,-y,-z
-x,y,-z
y,x,-z
-y,-x,-z
-x,-y,-z
y,-x,-z
x,y,-z
-y,x,-z
-x,y,z
x,-y,z
-y,-x,z
y,x,z
loop_
_atom_site_type_symbol
_atom_site_label
_atom_site_fract_x
_atom_site_fract_y
_atom_site_fract_z
Si Si1 0.107044 0.256787 0.441456
Si Si2 0.889481 0.602929 0.644131
Si Si3 0.389270 0.103617 0.758844
Si Si4 0.103814 0.610558 0.058039
Si Si5 0.610952 0.237911 0.149199
O O1 0.118698 0.296708 0.500000
O O2 0.159523 0.159523 0.434827
O O3 0.150593 0.331179 0.401208
O O4 0.000000 0.235809 0.428320
O O5 0.845556 0.500000 0.636563
O O6 0.863789 0.643733 0.701283
O O7 0.000000 0.595670 0.639252
O O8 0.500000 0.097202 0.758984
O O9 0.355639 0.178647 0.800907
O O10 0.349552 0.000000 0.772178
O O11 0.100539 0.500000 0.060383
O O12 0.180292 0.646050 0.098902
O O13 0.000000 0.648420 0.072140
O O14 0.132184 0.644076 0.000000
O O15 0.500000 0.256276 0.148891
O O16 0.662564 0.337437 0.149744
#
# Coordination Sequence:
#
# PCOD8312296 Si02
#       5
#    16  16  16  16  16
#     4   9  17  27  38  54  77 105 134 159 184 221
#     4   8  14  25  41  60  79  97 120 157 206 250
#     4   8  14  26  43  60  77  97 125 165 209 244
#     4   8  14  26  44  62  77  95 123 163 207 237
#     4  10  19  28  39  57  82 112 141 163 186 223
#
# _framework density 15.129922000000001
#
# number of rings (size 3 to 8) (size 9 to 14) (size 15 to 20)
#    0.000    3.400    0.000    2.400    0.000    4.400 
#    0.000    3.000    0.000    0.000    0.000    2.800 
#    0.000    6.800    0.000   11.000    0.000    1.000 
#
# Total GULP energy -991321.286893 kJ/mol
# GULP energy per Si atom -12391.516086 kJ/mol
# Density = 1.509549 g / cm^3
# Si number density = 15.129922 Si / 1000 Ang^3
#
#
#
# Elastic Constant Matrix: (Units=GPa)
#
#
# Indices 1 2 3 4 5 6 
#
# 1 54.6219 31.7432 46.1850 0.0000 0.0000 0.0000
# 2 31.7432 54.6219 46.1850 0.0000 0.0000 0.0000
# 3 46.1850 46.1850 122.9483 0.0000 0.0000 0.0000
# 4 0.0000 0.0000 0.0000 15.1708 0.0000 0.0000
# 5 0.0000 0.0000 0.0000 0.0000 15.1708 0.0000
# 6 0.0000 0.0000 0.0000 0.0000 0.0000 13.0701
#
#
#
# Elastic Compliance Matrix: (Units=1/GPa)
#
#
# Indices 1 2 3 4 5 6 
#
# 1 0.031532 -0.012177 -0.007271 0.000000 0.000000 0.000000
# 2 -0.012177 0.031532 -0.007271 0.000000 0.000000 0.000000
# 3 -0.007271 -0.007271 0.013596 0.000000 0.000000 0.000000
# 4 0.000000 0.000000 0.000000 0.065916 0.000000 0.000000
# 5 0.000000 0.000000 0.000000 0.000000 0.065916 0.000000
# 6 0.000000 0.000000 0.000000 0.000000 0.000000 0.076511
#
#
# Mechanical properties :
#
#
# Convention : Reuss Voigt Hill
#
# Bulk Modulus (GPa) = 43.06032 53.37981 48.22006
# Shear Modulus (GPa) = 14.44339 15.88762 15.16551
#
# Velocity S-wave (km/s) = 3.09305 3.24401 3.16943
# Velocity P-wave (km/s) = 6.42480 7.02773 6.73302
#
# Compressibility (1/GPa) = 0.02322324
#
# Stress axis : x y z
#
# Youngs Moduli (GPa) = 31.71404 31.71404 73.55218
#
# Poissons Ratio (x) = 0.38618 0.53476
# Poissons Ratio (y) = 0.38618 0.53476
# Poissons Ratio (z) = 0.23058 0.23058
#
# Static dielectric constant tensor:
#      x y z
#    x 2.676550 0.000000 0.000000 
#    y 0.000000 2.676550 0.000000 
#    z 0.000000 0.000000 3.389710 
# 
# 
# High freq. dielectric constant tensor:
#      x y z
#    x 1.542320 0.000000 0.000000 
#    y 0.000000 1.542320 0.000000 
#    z 0.000000 0.000000 1.599520 
# 
# From -- ./inp_files/6282.got.cif
#   From: 2010.03.12/outbox.cif.g09.slc.cpg/sg123_4_cif.got.tgz:6282.got - 2010.04.06 16:26:55.
