data_PCOD8312920
_publ_section_title
;
Structure prediction by ZEFSAII (Michael W. Deem and Ramdas Pophale) SiO2 
 PCOD8312920
Probable space group: P 4/M M M
;
_chemical_formula_sum "Si O2"
_cell_formula_units_Z 56
_cell_length_a 17.784185
_cell_length_b 17.784185
_cell_length_c 9.009116
_cell_angle_alpha 90.000000
_cell_angle_beta 90.000000
_cell_angle_gamma 90.000000
_cell_volume 2849.378308
_symmetry_space_group_name_H-M "P 4/M M M"
_symmetry_group_IT_number 123
_symmetry_cell_setting 'tetragonal'
loop_
_space_group_symop_operation_xyz
x,y,z
-y,x,z
-x,-y,z
y,-x,z
x,-y,-z
-x,y,-z
y,x,-z
-y,-x,-z
-x,-y,-z
y,-x,-z
x,y,-z
-y,x,-z
-x,y,z
x,-y,z
-y,-x,z
y,x,z
loop_
_atom_site_type_symbol
_atom_site_label
_atom_site_fract_x
_atom_site_fract_y
_atom_site_fract_z
Si Si1 0.000000 0.417086 0.823642
Si Si2 0.336877 0.850023 0.176062
Si Si3 0.915302 0.201517 0.670100
Si Si4 0.708516 0.413367 0.327288
O O1 0.925041 0.377640 0.764345
O O2 0.000000 0.500000 0.756446
O O3 0.000000 0.417864 0.000000
O O4 0.252717 0.857683 0.236650
O O5 0.378542 0.776986 0.236304
O O6 0.336006 0.844125 0.000000
O O7 0.915156 0.228928 0.500000
O O8 0.883369 0.116632 0.681970
O O9 0.000000 0.203185 0.735652
O O10 0.728659 0.407065 0.500000
O O11 0.695845 0.500000 0.279887
O O12 0.632332 0.367668 0.290269
#
# Coordination Sequence:
#
# PCOD8312920 Si02
#       4
#     8  16  16  16
#     4   9  18  32  51  77 110 145 180 222 271 327
#     4  11  21  36  58  85 117 152 190 233 285 344
#     4  10  21  37  57  81 112 150 192 238 285 335
#     4  10  22  40  61  86 117 153 194 240 289 342
#
# _framework density 19.653410000000001
#
# number of rings (size 3 to 8) (size 9 to 14) (size 15 to 20)
#    0.000    1.857    1.429    2.571    0.000    6.857 
#    0.000    2.857    0.000    3.429    0.000    4.000 
#    0.000    0.000    0.000    0.000    0.000    0.000 
#
# Total GULP energy -694378.479142 kJ/mol
# GULP energy per Si atom -12399.615699 kJ/mol
# Density = 1.960868 g / cm^3
# Si number density = 19.653410 Si / 1000 Ang^3
#
#
#
# Elastic Constant Matrix: (Units=GPa)
#
#
# Indices 1 2 3 4 5 6 
#
# 1 135.0073 85.6960 50.3422 0.0000 0.0000 0.0000
# 2 85.6960 135.0073 50.3422 0.0000 0.0000 0.0000
# 3 50.3422 50.3422 62.7710 0.0000 0.0000 0.0000
# 4 0.0000 0.0000 0.0000 22.1915 0.0000 0.0000
# 5 0.0000 0.0000 0.0000 0.0000 22.1915 0.0000
# 6 0.0000 0.0000 0.0000 0.0000 0.0000 29.9766
#
#
#
# Elastic Compliance Matrix: (Units=1/GPa)
#
#
# Indices 1 2 3 4 5 6 
#
# 1 0.013712 -0.006567 -0.005730 0.000000 0.000000 0.000000
# 2 -0.006567 0.013712 -0.005730 0.000000 0.000000 0.000000
# 3 -0.005730 -0.005730 0.025122 0.000000 0.000000 0.000000
# 4 0.000000 0.000000 0.000000 0.045062 0.000000 0.000000
# 5 0.000000 0.000000 0.000000 0.000000 0.045062 0.000000
# 6 0.000000 0.000000 0.000000 0.000000 0.000000 0.033359
#
#
# Mechanical properties :
#
#
# Convention : Reuss Voigt Hill
#
# Bulk Modulus (GPa) = 60.63851 78.39404 69.51628
# Shear Modulus (GPa) = 22.97967 24.63228 23.80597
#
# Velocity S-wave (km/s) = 3.42313 3.54409 3.48413
# Velocity P-wave (km/s) = 6.82237 7.53142 7.18564
#
# Compressibility (1/GPa) = 0.01649117
#
# Stress axis : x y z
#
# Youngs Moduli (GPa) = 72.92760 72.92760 39.80507
#
# Poissons Ratio (x) = 0.47892 0.22810
# Poissons Ratio (y) = 0.47892 0.22810
# Poissons Ratio (z) = 0.41790 0.41790
#
# Static dielectric constant tensor:
#      x y z
#    x 3.720900 0.000000 0.000000 
#    y 0.000000 3.720900 0.000000 
#    z 0.000000 0.000000 3.348230 
# 
# 
# High freq. dielectric constant tensor:
#      x y z
#    x 1.774930 0.000000 0.000000 
#    y 0.000000 1.774930 0.000000 
#    z 0.000000 0.000000 1.746960 
# 
# From -- ./inp_files/587.got.cif
#   From: 2010.03.12/outbox.cif.g09.slc.cpg/sg123_1_cif.got.tgz:587.got - 2010.04.06 16:26:55.
