data_PCOD8312395
_publ_section_title
;
Structure prediction by ZEFSAII (Michael W. Deem and Ramdas Pophale) SiO2 
 PCOD8312395
Probable space group: P 4/M M M
;
_chemical_formula_sum "Si O2"
_cell_formula_units_Z 88
_cell_length_a 14.554374
_cell_length_b 14.554374
_cell_length_c 27.490387
_cell_angle_alpha 90.000000
_cell_angle_beta 90.000000
_cell_angle_gamma 90.000000
_cell_volume 5823.283250
_symmetry_space_group_name_H-M "P 4/M M M"
_symmetry_group_IT_number 123
_symmetry_cell_setting 'tetragonal'
loop_
_space_group_symop_operation_xyz
x,y,z
-y,x,z
-x,-y,z
y,-x,z
x,-y,-z
-x,y,-z
y,x,-z
-y,-x,-z
-x,-y,-z
y,-x,-z
x,y,-z
-y,x,-z
-x,y,z
x,-y,z
-y,-x,z
y,x,z
loop_
_atom_site_type_symbol
_atom_site_label
_atom_site_fract_x
_atom_site_fract_y
_atom_site_fract_z
Si Si1 0.246718 0.395207 0.829194
Si Si2 0.108076 0.738218 0.000000
Si Si3 0.246379 0.394555 0.718693
Si Si4 0.105395 0.253813 0.555237
Si Si5 0.105831 0.604788 0.911918
Si Si6 0.605474 0.894539 0.362956
O O1 0.278203 0.500000 0.836423
O O2 0.333955 0.333955 0.843230
O O3 0.213797 0.377256 0.774002
O O4 0.162201 0.369720 0.863813
O O5 0.133604 0.676008 0.953746
O O6 0.169073 0.830928 0.000000
O O7 0.000000 0.765497 0.000000
O O8 0.273622 0.500000 0.710112
O O9 0.336255 0.336255 0.705815
O O10 0.163405 0.363854 0.683941
O O11 0.122041 0.287185 0.500000
O O12 0.163967 0.163967 0.567772
O O13 0.136070 0.336523 0.590159
O O14 0.000000 0.226192 0.563848
O O15 0.125775 0.500000 0.929390
O O16 0.000000 0.616104 0.897801
O O17 0.500000 0.876646 0.376689
O O18 0.623361 0.000000 0.349222
#
# Coordination Sequence:
#
# PCOD8312395 Si02
#       6
#    16   8  16  16  16  16
#     4   9  17  28  42  61  84 109 136 165 198 237
#     4  10  19  30  45  63  84 110 137 167 202 239
#     4   9  17  28  42  60  82 108 136 166 199 235
#     4   9  17  28  42  60  81 105 132 162 197 237
#     4   9  17  29  45  64  84 106 134 168 204 240
#     4   9  17  28  42  60  81 105 133 165 201 239
#
# _framework density 15.111750000000001
#
# number of rings (size 3 to 8) (size 9 to 14) (size 15 to 20)
#    0.000    2.909    0.000    1.364    0.000    2.818 
#    0.000    8.182    0.000    0.000    0.000    0.000 
#    0.000    6.545    0.000   50.727    0.000    1.455 
#
# Total GULP energy -1091105.444244 kJ/mol
# GULP energy per Si atom -12398.925503 kJ/mol
# Density = 1.507736 g / cm^3
# Si number density = 15.111750 Si / 1000 Ang^3
#
#
#
# Elastic Constant Matrix: (Units=GPa)
#
#
# Indices 1 2 3 4 5 6 
#
# 1 81.4092 59.2339 66.6581 0.0000 0.0000 0.0000
# 2 59.2339 81.4079 66.6578 0.0000 0.0000 0.0000
# 3 66.6581 66.6578 106.9256 0.0000 0.0000 0.0000
# 4 0.0000 0.0000 0.0000 25.7223 0.0000 0.0000
# 5 0.0000 0.0000 0.0000 0.0000 25.7222 0.0000
# 6 0.0000 0.0000 0.0000 0.0000 0.0000 26.6656
#
#
#
# Elastic Compliance Matrix: (Units=1/GPa)
#
#
# Indices 1 2 3 4 5 6 
#
# 1 0.031239 -0.013858 -0.010835 0.000000 0.000000 0.000000
# 2 -0.013858 0.031239 -0.010836 0.000000 0.000000 0.000000
# 3 -0.010835 -0.010836 0.022862 0.000000 0.000000 0.000000
# 4 0.000000 0.000000 0.000000 0.038877 0.000000 0.000000
# 5 0.000000 0.000000 0.000000 0.000000 0.038877 0.000000
# 6 0.000000 0.000000 0.000000 0.000000 0.000000 0.037502
#
#
# Mechanical properties :
#
#
# Convention : Reuss Voigt Hill
#
# Bulk Modulus (GPa) = 70.01574 72.76024 71.38799
# Shear Modulus (GPa) = 18.08879 20.76820 19.42850
#
# Velocity S-wave (km/s) = 3.46352 3.71119 3.58949
# Velocity P-wave (km/s) = 7.90109 8.16190 8.03255
#
# Compressibility (1/GPa) = 0.01428250
#
# Stress axis : x y z
#
# Youngs Moduli (GPa) = 32.01164 32.01090 43.74012
#
# Poissons Ratio (x) = 0.44359 0.47395
# Poissons Ratio (y) = 0.44360 0.47396
# Poissons Ratio (z) = 0.34686 0.34686
#
# Static dielectric constant tensor:
#      x y z
#    x 2.885550 0.000000 0.000000 
#    y 0.000000 2.885550 0.000000 
#    z 0.000000 0.000000 3.008570 
# 
# 
# High freq. dielectric constant tensor:
#      x y z
#    x 1.573350 0.000000 0.000000 
#    y 0.000000 1.573350 0.000000 
#    z 0.000000 0.000000 1.583520 
# 
# From -- ./inp_files/7951.got.cif
#   From: 2010.03.12/outbox.cif.g09.slc.cpg/sg123_4_cif.got.tgz:7951.got - 2010.04.06 16:26:55.
