data_PCOD8312707
_publ_section_title
;
Structure prediction by ZEFSAII (Michael W. Deem and Ramdas Pophale) SiO2 
 PCOD8312707
Probable space group: P 4/M M M
;
_chemical_formula_sum "Si O2"
_cell_formula_units_Z 120
_cell_length_a 18.395834
_cell_length_b 18.395834
_cell_length_c 19.783110
_cell_angle_alpha 90.000000
_cell_angle_beta 90.000000
_cell_angle_gamma 90.000000
_cell_volume 6694.737140
_symmetry_space_group_name_H-M "P 4/M M M"
_symmetry_group_IT_number 123
_symmetry_cell_setting 'tetragonal'
loop_
_space_group_symop_operation_xyz
x,y,z
-y,x,z
-x,-y,z
y,-x,z
x,-y,-z
-x,y,-z
y,x,-z
-y,-x,-z
-x,-y,-z
y,-x,-z
x,y,-z
-y,x,-z
-x,y,z
x,-y,z
-y,-x,z
y,x,z
loop_
_atom_site_type_symbol
_atom_site_label
_atom_site_fract_x
_atom_site_fract_y
_atom_site_fract_z
Si Si1 0.419730 0.698064 0.500000
Si Si2 0.082882 0.799843 0.280477
Si Si3 0.581118 0.218789 0.261477
Si Si4 0.265153 0.918586 0.575904
Si Si5 0.141005 0.415787 0.076297
Si Si6 0.298326 0.582531 0.875779
Si Si7 0.221882 0.338511 0.606681
Si Si8 0.350321 0.916823 0.204545
O O1 0.500000 0.668902 0.500000
O O2 0.373838 0.626163 0.500000
O O3 0.405457 0.746501 0.565455
O O4 0.135680 0.864321 0.256342
O O5 0.094731 0.789628 0.361512
O O6 0.102476 0.728980 0.235469
O O7 0.000000 0.823256 0.266239
O O8 0.500000 0.226515 0.291305
O O9 0.593657 0.276374 0.202167
O O10 0.643068 0.234724 0.315725
O O11 0.589753 0.135681 0.237196
O O12 0.230077 0.908309 0.500000
O O13 0.330884 0.862228 0.585870
O O14 0.297413 0.000000 0.582137
O O15 0.126110 0.500000 0.098099
O O16 0.227453 0.400694 0.079276
O O17 0.097385 0.358393 0.123740
O O18 0.114108 0.402193 0.000000
O O19 0.325542 0.500000 0.888189
O O20 0.362990 0.637011 0.895982
O O21 0.263279 0.263279 0.588845
O O22 0.369149 0.000000 0.221839
#
# Coordination Sequence:
#
# PCOD8312707 Si02
#       8
#     8  16  16  16  16  16  16  16
#     4  10  22  37  53  75  99 129 174 226 274 320
#     4  10  21  36  55  79 107 139 176 221 269 319
#     4  10  20  32  48  71 100 134 167 208 258 306
#     4  10  20  34  53  78 109 139 173 218 267 319
#     4   9  19  35  53  75 106 142 175 211 260 313
#     4   9  18  32  49  71  99 130 167 209 253 303
#     4  11  20  32  53  75  97 132 175 217 260 313
#     4  10  20  33  51  78 107 136 174 214 253 306
#
# _framework density 17.924527000000001
#
# number of rings (size 3 to 8) (size 9 to 14) (size 15 to 20)
#    0.000    2.133    2.000    2.400    0.000    4.867 
#    0.000    0.667    0.000    1.600    0.000    5.600 
#    0.000    0.000    0.000    2.933    0.000    0.000 
#
# Total GULP energy -1487143.261593 kJ/mol
# GULP energy per Si atom -12392.860513 kJ/mol
# Density = 1.788373 g / cm^3
# Si number density = 17.924527 Si / 1000 Ang^3
#
#
#
# Elastic Constant Matrix: (Units=GPa)
#
#
# Indices 1 2 3 4 5 6 
#
# 1 76.3791 35.5565 18.2840 0.0000 0.0000 0.0000
# 2 35.5565 76.3782 18.2839 0.0000 0.0000 0.0000
# 3 18.2840 18.2839 92.7297 0.0000 0.0000 0.0000
# 4 0.0000 0.0000 0.0000 19.6523 0.0000 0.0000
# 5 0.0000 0.0000 0.0000 0.0000 19.6529 0.0000
# 6 0.0000 0.0000 0.0000 0.0000 0.0000 22.2244
#
#
#
# Elastic Compliance Matrix: (Units=1/GPa)
#
#
# Indices 1 2 3 4 5 6 
#
# 1 0.017023 -0.007474 -0.001883 0.000000 0.000000 0.000000
# 2 -0.007474 0.017023 -0.001883 0.000000 0.000000 0.000000
# 3 -0.001883 -0.001883 0.011527 0.000000 0.000000 0.000000
# 4 0.000000 0.000000 0.000000 0.050885 0.000000 0.000000
# 5 0.000000 0.000000 0.000000 0.000000 0.050883 0.000000
# 6 0.000000 0.000000 0.000000 0.000000 0.000000 0.044996
#
#
# Mechanical properties :
#
#
# Convention : Reuss Voigt Hill
#
# Bulk Modulus (GPa) = 43.30314 43.30398 43.30356
# Shear Modulus (GPa) = 22.47073 23.86342 23.16708
#
# Velocity S-wave (km/s) = 3.54451 3.65270 3.59901
# Velocity P-wave (km/s) = 6.40019 6.48082 6.44063
#
# Compressibility (1/GPa) = 0.02309302
#
# Stress axis : x y z
#
# Youngs Moduli (GPa) = 58.74555 58.74479 86.75652
#
# Poissons Ratio (x) = 0.43905 0.16334
# Poissons Ratio (y) = 0.43906 0.16334
# Poissons Ratio (z) = 0.11060 0.11060
#
# Static dielectric constant tensor:
#      x y z
#    x 3.164700 0.000000 0.000000 
#    y 0.000000 3.164700 0.000000 
#    z 0.000000 0.000000 3.479530 
# 
# 
# High freq. dielectric constant tensor:
#      x y z
#    x 1.679550 0.000000 0.000000 
#    y 0.000000 1.679550 0.000000 
#    z 0.000000 0.000000 1.698020 
# 
# From -- ./inp_files/6856.got.cif
#   From: 2010.03.12/outbox.cif.g09.slc.cpg/sg123_4_cif.got.tgz:6856.got - 2010.04.06 16:26:55.
