data_PCOD8312796
_publ_section_title
;
Structure prediction by ZEFSAII (Michael W. Deem and Ramdas Pophale) SiO2 
 PCOD8312796
Probable space group: P 4/M M M
;
_chemical_formula_sum "Si O2"
_cell_formula_units_Z 68
_cell_length_a 12.959887
_cell_length_b 12.959887
_cell_length_c 24.002467
_cell_angle_alpha 90.000000
_cell_angle_beta 90.000000
_cell_angle_gamma 90.000000
_cell_volume 4031.422459
_symmetry_space_group_name_H-M "P 4/M M M"
_symmetry_group_IT_number 123
_symmetry_cell_setting 'tetragonal'
loop_
_space_group_symop_operation_xyz
x,y,z
-y,x,z
-x,-y,z
y,-x,z
x,-y,-z
-x,y,-z
y,x,-z
-y,-x,-z
-x,-y,-z
y,-x,-z
x,y,-z
-y,x,-z
-x,y,z
x,-y,z
-y,-x,z
y,x,z
loop_
_atom_site_type_symbol
_atom_site_label
_atom_site_fract_x
_atom_site_fract_y
_atom_site_fract_z
Si Si1 0.254511 0.254511 0.937928
Si Si2 0.378604 0.112834 0.861534
Si Si3 0.000000 0.377812 0.562964
Si Si4 0.206448 0.621022 0.625678
Si Si5 0.882070 0.882070 0.000000
Si Si6 0.617393 0.217980 0.248107
O O1 0.347065 0.202868 0.904061
O O2 0.291779 0.291779 0.000000
O O3 0.166932 0.166932 0.944431
O O4 0.500000 0.107235 0.864302
O O5 0.341609 0.137754 0.798353
O O6 0.332745 0.000000 0.877468
O O7 0.893926 0.339357 0.591852
O O8 0.000000 0.500000 0.565198
O O9 0.000000 0.335684 0.500000
O O10 0.234157 0.500000 0.612425
O O11 0.305948 0.694053 0.611569
O O12 0.172506 0.632950 0.690065
O O13 0.000000 0.855171 0.000000
O O14 0.500000 0.245288 0.235898
O O15 0.674363 0.325638 0.241722
#
# Coordination Sequence:
#
# PCOD8312796 Si02
#       6
#     8  16   8  16   4  16
#     4  10  21  34  50  69  96 126 158 201 249 298
#     4  10  20  33  51  74  98 127 163 204 247 296
#     4   9  18  32  50  73 103 139 174 207 245 294
#     4   9  18  31  50  76 106 137 171 211 255 303
#     4   9  18  32  50  70  92 119 154 196 246 297
#     4   9  17  30  48  74 102 130 164 203 250 298
#
# _framework density 16.867495999999999
#
# number of rings (size 3 to 8) (size 9 to 14) (size 15 to 20)
#    0.353    2.294    1.176    0.706    1.647    1.412 
#    0.000    3.529    0.000    0.706    0.000    4.941 
#    0.000    0.000    0.000    0.000    0.000    0.000 
#
# Total GULP energy -842493.039124 kJ/mol
# GULP energy per Si atom -12389.603517 kJ/mol
# Density = 1.682911 g / cm^3
# Si number density = 16.867496 Si / 1000 Ang^3
#
#
#
# Elastic Constant Matrix: (Units=GPa)
#
#
# Indices 1 2 3 4 5 6 
#
# 1 59.9284 33.1613 40.6945 0.0000 0.0000 0.0000
# 2 33.1613 59.9284 40.6945 0.0000 0.0000 0.0000
# 3 40.6945 40.6945 113.5573 0.0000 0.0000 0.0000
# 4 0.0000 0.0000 0.0000 31.2766 0.0000 0.0000
# 5 0.0000 0.0000 0.0000 0.0000 31.2766 0.0000
# 6 0.0000 0.0000 0.0000 0.0000 0.0000 23.4552
#
#
#
# Elastic Compliance Matrix: (Units=1/GPa)
#
#
# Indices 1 2 3 4 5 6 
#
# 1 0.026502 -0.010858 -0.005606 0.000000 0.000000 0.000000
# 2 -0.010858 0.026502 -0.005606 0.000000 0.000000 0.000000
# 3 -0.005606 -0.005606 0.012824 0.000000 0.000000 0.000000
# 4 0.000000 0.000000 0.000000 0.031973 0.000000 0.000000
# 5 0.000000 0.000000 0.000000 0.000000 0.031973 0.000000
# 6 0.000000 0.000000 0.000000 0.000000 0.000000 0.042634
#
#
# Mechanical properties :
#
#
# Convention : Reuss Voigt Hill
#
# Bulk Modulus (GPa) = 46.10999 51.39049 48.75024
# Shear Modulus (GPa) = 22.34374 25.12595 23.73485
#
# Velocity S-wave (km/s) = 3.64354 3.86373 3.75525
# Velocity P-wave (km/s) = 6.71539 7.10196 6.91138
#
# Compressibility (1/GPa) = 0.02168727
#
# Stress axis : x y z
#
# Youngs Moduli (GPa) = 37.73364 37.73364 77.97786
#
# Poissons Ratio (x) = 0.40970 0.43715
# Poissons Ratio (y) = 0.40970 0.43715
# Poissons Ratio (z) = 0.21154 0.21154
#
# Static dielectric constant tensor:
#      x y z
#    x 3.088610 0.000000 0.000000 
#    y 0.000000 3.088610 0.000000 
#    z 0.000000 0.000000 3.358560 
# 
# 
# High freq. dielectric constant tensor:
#      x y z
#    x 1.634630 0.000000 0.000000 
#    y 0.000000 1.634630 0.000000 
#    z 0.000000 0.000000 1.656770 
# 
# From -- ./inp_files/7935.got.cif
#   From: 2010.03.12/outbox.cif.g09.slc.cpg/sg123_4_cif.got.tgz:7935.got - 2010.04.06 16:26:55.
