data_PCOD8312464
_publ_section_title
;
Structure prediction by ZEFSAII (Michael W. Deem and Ramdas Pophale) SiO2 
 PCOD8312464
Probable space group: P 4/M M M
;
_chemical_formula_sum "Si O2"
_cell_formula_units_Z 104
_cell_length_a 17.778850
_cell_length_b 17.778850
_cell_length_c 19.703986
_cell_angle_alpha 90.000000
_cell_angle_beta 90.000000
_cell_angle_gamma 90.000000
_cell_volume 6228.183819
_symmetry_space_group_name_H-M "P 4/M M M"
_symmetry_group_IT_number 123
_symmetry_cell_setting 'tetragonal'
loop_
_space_group_symop_operation_xyz
x,y,z
-y,x,z
-x,-y,z
y,-x,z
x,-y,-z
-x,y,-z
y,x,-z
-y,-x,-z
-x,-y,-z
y,-x,-z
x,y,-z
-y,x,-z
-x,y,z
x,-y,z
-y,-x,z
y,x,z
loop_
_atom_site_type_symbol
_atom_site_label
_atom_site_fract_x
_atom_site_fract_y
_atom_site_fract_z
Si Si1 0.707412 0.589676 0.500000
Si Si2 0.085197 0.793971 0.424047
Si Si3 0.708594 0.589620 0.220561
Si Si4 0.912794 0.667905 0.318117
Si Si5 0.208087 0.086567 0.921450
Si Si6 0.585866 0.224103 0.637396
Si Si7 0.826675 0.703920 0.186583
O O1 0.699976 0.500000 0.500000
O O2 0.623300 0.623300 0.500000
O O3 0.750730 0.623397 0.566315
O O4 0.097689 0.761648 0.500000
O O5 0.131378 0.868623 0.410779
O O6 0.110027 0.732842 0.369934
O O7 0.000000 0.817996 0.411949
O O8 0.705561 0.500000 0.206188
O O9 0.628526 0.628526 0.201318
O O10 0.724317 0.610577 0.299147
O O11 0.776578 0.627801 0.176835
O O12 0.863127 0.598044 0.343358
O O13 0.890814 0.693455 0.242912
O O14 0.000000 0.645202 0.320907
O O15 0.128609 0.128609 0.907860
O O16 0.275457 0.129136 0.882228
O O17 0.199495 0.000000 0.897343
O O18 0.230481 0.090518 0.000000
O O19 0.500000 0.236880 0.623863
O O20 0.771215 0.771215 0.209047
#
# Coordination Sequence:
#
# PCOD8312464 Si02
#       7
#     8  16  16  16  16  16  16
#     4  10  20  33  49  67  87 113 144 180 226 280
#     4   9  18  30  42  58  79 103 137 181 225 268
#     4   9  17  30  48  70  96 122 152 192 235 283
#     4  10  19  30  46  65  86 114 151 192 229 265
#     4   9  17  29  47  72 101 132 164 197 234 278
#     4   9  19  33  45  63  89 116 148 183 224 276
#     4   9  17  30  48  69  94 125 159 193 232 277
#
# _framework density 16.698288000000002
#
# number of rings (size 3 to 8) (size 9 to 14) (size 15 to 20)
#    0.000    2.769    0.000    1.385    1.077    2.692 
#    0.000    1.538    0.000    6.000    0.000    3.231 
#    0.000    0.000    0.000    6.000    0.000    0.000 
#
# Total GULP energy -1288843.372513 kJ/mol
# GULP energy per Si atom -12392.724736 kJ/mol
# Density = 1.666028 g / cm^3
# Si number density = 16.698288 Si / 1000 Ang^3
#
#
#
# Elastic Constant Matrix: (Units=GPa)
#
#
# Indices 1 2 3 4 5 6 
#
# 1 114.5166 4.9259 34.4007 0.0000 0.0000 0.0000
# 2 4.9259 114.5166 34.4007 0.0000 0.0000 0.0000
# 3 34.4007 34.4007 61.1604 0.0000 0.0000 0.0000
# 4 0.0000 0.0000 0.0000 21.1567 0.0000 0.0000
# 5 0.0000 0.0000 0.0000 0.0000 21.1567 0.0000
# 6 0.0000 0.0000 0.0000 0.0000 0.0000 23.5765
#
#
#
# Elastic Compliance Matrix: (Units=1/GPa)
#
#
# Indices 1 2 3 4 5 6 
#
# 1 0.010755 0.001630 -0.006966 0.000000 0.000000 0.000000
# 2 0.001630 0.010755 -0.006966 0.000000 0.000000 0.000000
# 3 -0.006966 -0.006966 0.024187 0.000000 0.000000 0.000000
# 4 0.000000 0.000000 0.000000 0.047266 0.000000 0.000000
# 5 0.000000 0.000000 0.000000 0.000000 0.047266 0.000000
# 6 0.000000 0.000000 0.000000 0.000000 0.000000 0.042415
#
#
# Mechanical properties :
#
#
# Convention : Reuss Voigt Hill
#
# Bulk Modulus (GPa) = 47.41081 48.62756 48.01918
# Shear Modulus (GPa) = 23.33401 27.60905 25.47153
#
# Velocity S-wave (km/s) = 3.74222 4.07062 3.90987
# Velocity P-wave (km/s) = 6.86488 7.16085 7.01443
#
# Compressibility (1/GPa) = 0.02109224
#
# Stress axis : x y z
#
# Youngs Moduli (GPa) = 92.98138 92.98138 41.34493
#
# Poissons Ratio (x) = -0.15156 0.28801
# Poissons Ratio (y) = -0.15156 0.28801
# Poissons Ratio (z) = 0.64771 0.64771
#
# Static dielectric constant tensor:
#      x y z
#    x 3.108210 0.000000 0.000000 
#    y 0.000000 3.108210 0.000000 
#    z 0.000000 0.000000 3.232180 
# 
# 
# High freq. dielectric constant tensor:
#      x y z
#    x 1.638570 0.000000 0.000000 
#    y 0.000000 1.638570 0.000000 
#    z 0.000000 0.000000 1.630080 
# 
# From -- ./inp_files/5599.got.cif
#   From: 2010.03.12/outbox.cif.g09.slc.cpg/sg123_3_cif.got.tgz:5599.got - 2010.04.06 16:26:55.
