data_PCOD8312715
_publ_section_title
;
Structure prediction by ZEFSAII (Michael W. Deem and Ramdas Pophale) SiO2 
 PCOD8312715
Probable space group: P 4/M M M
;
_chemical_formula_sum "Si O2"
_cell_formula_units_Z 96
_cell_length_a 20.859435
_cell_length_b 20.859435
_cell_length_c 11.990335
_cell_angle_alpha 90.000000
_cell_angle_beta 90.000000
_cell_angle_gamma 90.000000
_cell_volume 5217.186946
_symmetry_space_group_name_H-M "P 4/M M M"
_symmetry_group_IT_number 123
_symmetry_cell_setting 'tetragonal'
loop_
_space_group_symop_operation_xyz
x,y,z
-y,x,z
-x,-y,z
y,-x,z
x,-y,-z
-x,y,-z
y,x,-z
-y,-x,-z
-x,-y,-z
y,-x,-z
x,y,-z
-y,x,-z
-x,y,z
x,-y,z
-y,-x,z
y,x,z
loop_
_atom_site_type_symbol
_atom_site_label
_atom_site_fract_x
_atom_site_fract_y
_atom_site_fract_z
Si Si1 0.265663 0.158931 0.124050
Si Si2 0.710014 0.809760 0.500000
Si Si3 0.929191 0.424739 0.626309
Si Si4 0.197997 0.368994 0.713328
Si Si5 0.073526 0.824681 0.256584
Si Si6 0.779586 0.070179 0.500000
Si Si7 0.321061 0.427123 0.629614
O O1 0.210097 0.210097 0.117179
O O2 0.328208 0.194117 0.173672
O O3 0.241172 0.100374 0.201845
O O4 0.282172 0.133315 0.000000
O O5 0.782100 0.782100 0.500000
O O6 0.676331 0.785038 0.389893
O O7 0.716365 0.886258 0.500000
O O8 0.911227 0.405423 0.500000
O O9 0.933484 0.500000 0.637914
O O10 0.871816 0.401402 0.704623
O O11 0.000000 0.396494 0.659212
O O12 0.258603 0.417355 0.710225
O O13 0.113839 0.886161 0.213785
O O14 0.081049 0.822011 0.390032
O O15 0.000000 0.833680 0.219741
O O16 0.749256 0.000000 0.500000
O O17 0.301186 0.417706 0.500000
O O18 0.345190 0.500000 0.649191
O O19 0.378398 0.378398 0.662465
#
# Coordination Sequence:
#
# PCOD8312715 Si02
#       7
#    16   8  16  16  16   8  16
#     4  10  22  38  53  71  98 133 171 215 268 318
#     4  12  20  28  47  76 107 132 161 208 269 318
#     4   9  18  32  49  74 110 144 170 202 248 301
#     4  12  20  31  54  80 106 136 174 219 263 316
#     4  10  20  34  52  73 100 134 173 220 272 328
#     4  10  20  32  49  74 105 138 173 210 263 330
#     4  10  20  33  51  79 114 149 184 219 261 317
#
# _framework density 18.400721999999998
#
# number of rings (size 3 to 8) (size 9 to 14) (size 15 to 20)
#    0.000    1.667    3.333    3.250    0.000    3.333 
#    0.000    0.833    0.000    3.500    0.000    3.500 
#    0.000    0.000    0.000    3.500    0.000    0.167 
#
# Total GULP energy -1189941.483139 kJ/mol
# GULP energy per Si atom -12395.223783 kJ/mol
# Density = 1.835884 g / cm^3
# Si number density = 18.400722 Si / 1000 Ang^3
#
#
#
# Elastic Constant Matrix: (Units=GPa)
#
#
# Indices 1 2 3 4 5 6 
#
# 1 92.2864 39.1507 26.9722 0.0000 0.0000 0.0000
# 2 39.1507 92.2864 26.9722 0.0000 0.0000 0.0000
# 3 26.9722 26.9722 83.7460 0.0000 0.0000 0.0000
# 4 0.0000 0.0000 0.0000 9.5847 0.0000 0.0000
# 5 0.0000 0.0000 0.0000 0.0000 9.5847 0.0000
# 6 0.0000 0.0000 0.0000 0.0000 0.0000 27.8062
#
#
#
# Elastic Compliance Matrix: (Units=1/GPa)
#
#
# Indices 1 2 3 4 5 6 
#
# 1 0.013793 -0.005026 -0.002824 0.000000 0.000000 0.000000
# 2 -0.005026 0.013793 -0.002824 0.000000 0.000000 0.000000
# 3 -0.002824 -0.002824 0.013760 0.000000 0.000000 0.000000
# 4 0.000000 0.000000 0.000000 0.104333 0.000000 0.000000
# 5 0.000000 0.000000 0.000000 0.000000 0.104333 0.000000
# 6 0.000000 0.000000 0.000000 0.000000 0.000000 0.035963
#
#
# Mechanical properties :
#
#
# Convention : Reuss Voigt Hill
#
# Bulk Modulus (GPa) = 50.00168 50.50102 50.25135
# Shear Modulus (GPa) = 15.92415 21.07671 18.50043
#
# Velocity S-wave (km/s) = 2.94498 3.38809 3.17427
# Velocity P-wave (km/s) = 6.22869 6.54295 6.38776
#
# Compressibility (1/GPa) = 0.01999933
#
# Stress axis : x y z
#
# Youngs Moduli (GPa) = 72.49839 72.49839 72.67606
#
# Poissons Ratio (x) = 0.36440 0.20521
# Poissons Ratio (y) = 0.36440 0.20521
# Poissons Ratio (z) = 0.20471 0.20471
#
# Static dielectric constant tensor:
#      x y z
#    x 3.243180 0.000000 0.000000 
#    y 0.000000 3.243180 0.000000 
#    z 0.000000 0.000000 3.234230 
# 
# 
# High freq. dielectric constant tensor:
#      x y z
#    x 1.716250 0.000000 0.000000 
#    y 0.000000 1.716250 0.000000 
#    z 0.000000 0.000000 1.665460 
# 
# From -- ./inp_files/3189.got.cif
#   From: 2010.03.12/outbox.cif.g09.slc.cpg/sg123_2_cif.got.tgz:3189.got - 2010.04.06 16:26:55.
