data_PCOD8312927
_publ_section_title
;
Structure prediction by ZEFSAII (Michael W. Deem and Ramdas Pophale) SiO2 
 PCOD8312927
Probable space group: P 4/M M M
;
_chemical_formula_sum "Si O2"
_cell_formula_units_Z 56
_cell_length_a 18.076724
_cell_length_b 18.076724
_cell_length_c 8.719537
_cell_angle_alpha 90.000000
_cell_angle_beta 90.000000
_cell_angle_gamma 90.000000
_cell_volume 2849.265235
_symmetry_space_group_name_H-M "P 4/M M M"
_symmetry_group_IT_number 123
_symmetry_cell_setting 'tetragonal'
loop_
_space_group_symop_operation_xyz
x,y,z
-y,x,z
-x,-y,z
y,-x,z
x,-y,-z
-x,y,-z
y,x,-z
-y,-x,-z
-x,-y,-z
y,-x,-z
x,y,-z
-y,x,-z
-x,y,z
x,-y,z
-y,-x,z
y,x,z
loop_
_atom_site_type_symbol
_atom_site_label
_atom_site_fract_x
_atom_site_fract_y
_atom_site_fract_z
Si Si1 0.697261 0.302740 0.181530
Si Si2 0.500000 0.082697 0.317801
Si Si3 0.083352 0.796523 0.822096
Si Si4 0.655789 0.147443 0.318704
Si Si5 0.581749 0.418252 0.817488
O O1 0.674708 0.223276 0.238325
O O2 0.639297 0.360704 0.253129
O O3 0.696500 0.303501 0.000000
O O4 0.500000 0.080557 0.500000
O O5 0.574835 0.122307 0.258843
O O6 0.500000 0.000000 0.250722
O O7 0.141198 0.858803 0.762408
O O8 0.090235 0.719991 0.728573
O O9 0.000000 0.826723 0.797308
O O10 0.098664 0.779499 0.000000
O O11 0.655687 0.156790 0.500000
O O12 0.603203 0.500000 0.758719
O O13 0.583471 0.416530 0.000000
#
# Coordination Sequence:
#
# PCOD8312927 Si02
#       5
#     8   8  16  16   8
#     4  11  22  35  56  84 115 149 190 241 288 336
#     4   9  20  38  59  85 116 151 190 234 286 344
#     4  10  21  38  60  86 118 154 191 235 287 343
#     4  11  22  38  60  85 115 155 196 236 286 347
#     4   8  16  32  53  78 108 145 187 229 278 333
#
# _framework density 19.65419
#
# number of rings (size 3 to 8) (size 9 to 14) (size 15 to 20)
#    0.000    2.000    1.429    2.571    2.000    2.000 
#    0.000    3.571    0.000    5.143    0.000    6.000 
#    0.000    0.000    0.000    0.000    0.000    0.000 
#
# Total GULP energy -694335.007304 kJ/mol
# GULP energy per Si atom -12398.839416 kJ/mol
# Density = 1.960946 g / cm^3
# Si number density = 19.654190 Si / 1000 Ang^3
#
#
#
# Elastic Constant Matrix: (Units=GPa)
#
#
# Indices 1 2 3 4 5 6 
#
# 1 149.5223 74.4674 26.2529 0.0000 0.0000 0.0000
# 2 74.4674 149.5220 26.2530 0.0000 0.0000 0.0000
# 3 26.2529 26.2530 45.5777 0.0000 0.0000 0.0000
# 4 0.0000 0.0000 0.0000 -14.6633 0.0000 0.0000
# 5 0.0000 0.0000 0.0000 0.0000 -14.6638 0.0000
# 6 0.0000 0.0000 0.0000 0.0000 0.0000 38.6157
#
#
#
# Elastic Compliance Matrix: (Units=1/GPa)
#
#
# Indices 1 2 3 4 5 6 
#
# 1 0.009242 -0.004081 -0.002973 0.000000 0.000000 0.000000
# 2 -0.004081 0.009243 -0.002973 0.000000 0.000000 0.000000
# 3 -0.002973 -0.002973 0.025365 0.000000 0.000000 0.000000
# 4 0.000000 0.000000 0.000000 -0.068197 0.000000 0.000000
# 5 0.000000 0.000000 0.000000 0.000000 -0.068195 0.000000
# 6 0.000000 0.000000 0.000000 0.000000 0.000000 0.025896
#
#
# Mechanical properties :
#
#
# Convention : Reuss Voigt Hill
#
# Bulk Modulus (GPa) = 42.02331 66.50763 54.26547
# Shear Modulus (GPa) = -129.33363 16.36763 -56.48300
#
# Velocity S-wave (km/s) = -8.12080 2.88892 -5.36664
# Velocity P-wave (km/s) = 8.15489 6.71120 3.27582
#
# Compressibility (1/GPa) = 0.02379631
#
# Stress axis : x y z
#
# Youngs Moduli (GPa) = 108.19595 108.19570 39.42366
#
# Poissons Ratio (x) = 0.44156 0.11721
# Poissons Ratio (y) = 0.44156 0.11721
# Poissons Ratio (z) = 0.32166 0.32167
#
# Static dielectric constant tensor:
#      x y z
#    x 3.755530 0.000000 0.000000 
#    y 0.000000 3.755560 0.000000 
#    z 0.000000 0.000000 3.303360 
# 
# 
# High freq. dielectric constant tensor:
#      x y z
#    x 1.778900 0.000000 0.000000 
#    y 0.000000 1.778900 0.000000 
#    z 0.000000 0.000000 1.736480 
# 
# From -- ./inp_files/618.got.cif
#   From: 2010.03.12/outbox.cif.g09.slc.cpg/sg123_1_cif.got.tgz:618.got - 2010.04.06 16:26:55.
