data_PCOD8312427
_publ_section_title
;
Structure prediction by ZEFSAII (Michael W. Deem and Ramdas Pophale) SiO2 
 PCOD8312427
Probable space group: P 4/M M M
;
_chemical_formula_sum "Si O2"
_cell_formula_units_Z 72
_cell_length_a 13.930657
_cell_length_b 13.930657
_cell_length_c 23.223301
_cell_angle_alpha 90.000000
_cell_angle_beta 90.000000
_cell_angle_gamma 90.000000
_cell_volume 4506.788210
_symmetry_space_group_name_H-M "P 4/M M M"
_symmetry_group_IT_number 123
_symmetry_cell_setting 'tetragonal'
loop_
_space_group_symop_operation_xyz
x,y,z
-y,x,z
-x,-y,z
y,-x,z
x,-y,-z
-x,y,-z
y,x,-z
-y,-x,-z
-x,-y,-z
y,-x,-z
x,y,-z
-y,x,-z
-x,y,z
x,-y,z
-y,-x,z
y,x,z
loop_
_atom_site_type_symbol
_atom_site_label
_atom_site_fract_x
_atom_site_fract_y
_atom_site_fract_z
Si Si1 0.386162 0.770578 0.500000
Si Si2 0.892354 0.613464 0.389788
Si Si3 0.109161 0.388093 0.829279
Si Si4 0.230812 0.613436 0.280820
Si Si5 0.264600 0.110373 0.935964
O O1 0.500000 0.748485 0.500000
O O2 0.331098 0.668903 0.500000
O O3 0.353163 0.832167 0.445033
O O4 0.901682 0.500000 0.389758
O O5 0.837370 0.647729 0.332726
O O6 0.000000 0.658173 0.391294
O O7 0.117045 0.500000 0.839731
O O8 0.177448 0.355602 0.777511
O O9 0.144974 0.340756 0.888565
O O10 0.000000 0.358649 0.813827
O O11 0.252011 0.500000 0.283635
O O12 0.332315 0.667686 0.284682
O O13 0.166035 0.166035 0.926743
O O14 0.238457 0.000000 0.927362
O O15 0.307628 0.129352 0.000000
#
# Coordination Sequence:
#
# PCOD8312427 Si02
#       5
#     8  16  16  16  16
#     4  10  19  30  45  67  96 126 153 181 214 257
#     4   9  17  30  47  65  86 113 146 185 223 252
#     4   9  17  29  45  64  85 110 142 181 221 255
#     4  10  19  30  45  65  90 118 145 174 210 256
#     4   9  17  28  42  61  85 112 141 174 213 259
#
# _framework density 15.975899999999999
#
# number of rings (size 3 to 8) (size 9 to 14) (size 15 to 20)
#    0.000    2.667    0.000    2.333    0.000    5.000 
#    0.000    3.333    0.000    4.000    0.000    0.000 
#    0.000   32.444    0.000   20.667    0.000    0.444 
#
# Total GULP energy -892635.859045 kJ/mol
# GULP energy per Si atom -12397.720265 kJ/mol
# Density = 1.593954 g / cm^3
# Si number density = 15.975900 Si / 1000 Ang^3
#
#
#
# Elastic Constant Matrix: (Units=GPa)
#
#
# Indices 1 2 3 4 5 6 
#
# 1 67.4400 43.9645 52.4449 0.0000 0.0000 0.0000
# 2 43.9645 67.4414 52.4454 0.0000 0.0000 0.0000
# 3 52.4449 52.4454 144.8006 0.0000 0.0000 0.0000
# 4 0.0000 0.0000 0.0000 20.0137 0.0000 0.0000
# 5 0.0000 0.0000 0.0000 0.0000 20.0139 0.0000
# 6 0.0000 0.0000 0.0000 0.0000 0.0000 21.6497
#
#
#
# Elastic Compliance Matrix: (Units=1/GPa)
#
#
# Indices 1 2 3 4 5 6 
#
# 1 0.028109 -0.014488 -0.004933 0.000000 0.000000 0.000000
# 2 -0.014488 0.028108 -0.004933 0.000000 0.000000 0.000000
# 3 -0.004933 -0.004933 0.010480 0.000000 0.000000 0.000000
# 4 0.000000 0.000000 0.000000 0.049966 0.000000 0.000000
# 5 0.000000 0.000000 0.000000 0.000000 0.049965 0.000000
# 6 0.000000 0.000000 0.000000 0.000000 0.000000 0.046190
#
#
# Mechanical properties :
#
#
# Convention : Reuss Voigt Hill
#
# Bulk Modulus (GPa) = 55.59166 64.15464 59.87315
# Shear Modulus (GPa) = 18.68996 21.05727 19.87362
#
# Velocity S-wave (km/s) = 3.42407 3.63446 3.53083
# Velocity P-wave (km/s) = 7.10669 7.60636 7.36077
#
# Compressibility (1/GPa) = 0.01798831
#
# Stress axis : x y z
#
# Youngs Moduli (GPa) = 35.57571 35.57649 95.42240
#
# Poissons Ratio (x) = 0.51542 0.47076
# Poissons Ratio (y) = 0.51541 0.47076
# Poissons Ratio (z) = 0.17551 0.17551
#
# Static dielectric constant tensor:
#      x y z
#    x 2.891690 0.000000 0.000000 
#    y 0.000000 2.891690 0.000000 
#    z 0.000000 0.000000 3.344510 
# 
# 
# High freq. dielectric constant tensor:
#      x y z
#    x 1.594790 0.000000 0.000000 
#    y 0.000000 1.594790 0.000000 
#    z 0.000000 0.000000 1.634570 
# 
# From -- ./inp_files/6259.got.cif
#   From: 2010.03.12/outbox.cif.g09.slc.cpg/sg123_4_cif.got.tgz:6259.got - 2010.04.06 16:26:55.
