data_PCOD8312528
_publ_section_title
;
Structure prediction by ZEFSAII (Michael W. Deem and Ramdas Pophale) SiO2 
 PCOD8312528
Probable space group: P 4/M M M
;
_chemical_formula_sum "Si O2"
_cell_formula_units_Z 92
_cell_length_a 17.492884
_cell_length_b 17.492884
_cell_length_c 18.728998
_cell_angle_alpha 90.000000
_cell_angle_beta 90.000000
_cell_angle_gamma 90.000000
_cell_volume 5731.091942
_symmetry_space_group_name_H-M "P 4/M M M"
_symmetry_group_IT_number 123
_symmetry_cell_setting 'tetragonal'
loop_
_space_group_symop_operation_xyz
x,y,z
-y,x,z
-x,-y,z
y,-x,z
x,-y,-z
-x,y,-z
y,x,-z
-y,-x,-z
-x,-y,-z
y,-x,-z
x,y,-z
-y,x,-z
-x,y,z
x,-y,z
-y,-x,z
y,x,z
loop_
_atom_site_type_symbol
_atom_site_label
_atom_site_fract_x
_atom_site_fract_y
_atom_site_fract_z
Si Si1 0.790540 0.913084 0.581600
Si Si2 0.912782 0.912782 0.000000
Si Si3 0.188535 0.811466 0.078768
Si Si4 0.187390 0.312450 0.320618
Si Si5 0.086671 0.676644 0.082519
Si Si6 0.586997 0.709579 0.418380
Si Si7 0.912309 0.412724 0.782439
O O1 0.762176 0.906090 0.500000
O O2 0.871379 0.871379 0.591978
O O3 0.726801 0.876452 0.631241
O O4 0.802975 0.000000 0.604939
O O5 0.876542 0.876542 0.071280
O O6 0.000000 0.892461 0.000000
O O7 0.147775 0.738415 0.115172
O O8 0.215384 0.784617 0.000000
O O9 0.249920 0.249920 0.293040
O O10 0.226644 0.376449 0.368696
O O11 0.145213 0.354505 0.255938
O O12 0.094360 0.602191 0.132343
O O13 0.000000 0.709673 0.087699
O O14 0.104884 0.655587 0.000000
O O15 0.594094 0.737867 0.500000
O O16 0.500000 0.697150 0.395200
O O17 0.628738 0.628738 0.407900
O O18 0.887849 0.500000 0.767502
O O19 0.000000 0.399084 0.757033
#
# Coordination Sequence:
#
# PCOD8312528 Si02
#       7
#    16   4   8  16  16  16  16
#     4   9  17  29  46  68  92 119 153 192 231 269
#     4   9  14  20  36  64  94 122 150 178 213 256
#     4   8  15  24  42  62  90 116 146 179 218 260
#     4  10  19  31  48  66  91 120 154 188 226 270
#     4   9  17  30  47  67  91 119 151 188 230 272
#     4   9  17  29  46  68  92 119 148 180 221 268
#     4  10  21  34  48  67  91 120 154 191 230 274
#
# _framework density 16.052788
#
# number of rings (size 3 to 8) (size 9 to 14) (size 15 to 20)
#    0.261    2.478    0.000    2.087    1.217    2.783 
#    0.000    3.478    0.000    0.000    0.000    7.304 
#    0.000    0.000    0.000    0.000    0.000    4.870 
#
# Total GULP energy -1139934.484138 kJ/mol
# GULP energy per Si atom -12390.592219 kJ/mol
# Density = 1.601625 g / cm^3
# Si number density = 16.052788 Si / 1000 Ang^3
#
#
#
# Elastic Constant Matrix: (Units=GPa)
#
#
# Indices 1 2 3 4 5 6 
#
# 1 98.0739 51.4140 48.0006 0.0000 0.0000 0.0000
# 2 51.4140 98.0739 48.0006 0.0000 0.0000 0.0000
# 3 48.0006 48.0006 68.7154 0.0000 0.0000 0.0000
# 4 0.0000 0.0000 0.0000 18.8234 0.0000 0.0000
# 5 0.0000 0.0000 0.0000 0.0000 18.8242 0.0000
# 6 0.0000 0.0000 0.0000 0.0000 0.0000 19.0207
#
#
#
# Elastic Compliance Matrix: (Units=1/GPa)
#
#
# Indices 1 2 3 4 5 6 
#
# 1 0.016782 -0.004650 -0.008475 0.000000 0.000000 0.000000
# 2 -0.004650 0.016782 -0.008475 0.000000 0.000000 0.000000
# 3 -0.008475 -0.008475 0.026393 0.000000 0.000000 0.000000
# 4 0.000000 0.000000 0.000000 0.053125 0.000000 0.000000
# 5 0.000000 0.000000 0.000000 0.000000 0.053123 0.000000
# 6 0.000000 0.000000 0.000000 0.000000 0.000000 0.052574
#
#
# Mechanical properties :
#
#
# Convention : Reuss Voigt Hill
#
# Bulk Modulus (GPa) = 59.67368 62.18817 60.93092
# Shear Modulus (GPa) = 18.68718 19.16355 18.92537
#
# Velocity S-wave (km/s) = 3.41560 3.45887 3.43730
# Velocity P-wave (km/s) = 7.26700 7.40105 7.33433
#
# Compressibility (1/GPa) = 0.01675781
#
# Stress axis : x y z
#
# Youngs Moduli (GPa) = 59.58837 59.58834 37.88946
#
# Poissons Ratio (x) = 0.27708 0.32110
# Poissons Ratio (y) = 0.27708 0.32110
# Poissons Ratio (z) = 0.50499 0.50499
#
# Static dielectric constant tensor:
#      x y z
#    x 3.037380 0.000000 0.000000 
#    y 0.000000 3.037380 0.000000 
#    z 0.000000 0.000000 2.862360 
# 
# 
# High freq. dielectric constant tensor:
#      x y z
#    x 1.613920 0.000000 0.000000 
#    y 0.000000 1.613920 0.000000 
#    z 0.000000 0.000000 1.599890 
# 
# From -- ./inp_files/5551.got.cif
#   From: 2010.03.12/outbox.cif.g09.slc.cpg/sg123_3_cif.got.tgz:5551.got - 2010.04.06 16:26:55.
