data_PCOD8312467
_publ_section_title
;
Structure prediction by ZEFSAII (Michael W. Deem and Ramdas Pophale) SiO2 
 PCOD8312467
Probable space group: P 4/M M M
;
_chemical_formula_sum "Si O2"
_cell_formula_units_Z 80
_cell_length_a 17.559803
_cell_length_b 17.559803
_cell_length_c 16.065198
_cell_angle_alpha 90.000000
_cell_angle_beta 90.000000
_cell_angle_gamma 90.000000
_cell_volume 4953.650489
_symmetry_space_group_name_H-M "P 4/M M M"
_symmetry_group_IT_number 123
_symmetry_cell_setting 'tetragonal'
loop_
_space_group_symop_operation_xyz
x,y,z
-y,x,z
-x,-y,z
y,-x,z
x,-y,-z
-x,y,-z
y,x,-z
-y,-x,-z
-x,-y,-z
y,-x,-z
x,y,-z
-y,x,-z
-x,y,z
x,-y,z
-y,-x,z
y,x,z
loop_
_atom_site_type_symbol
_atom_site_label
_atom_site_fract_x
_atom_site_fract_y
_atom_site_fract_z
Si Si1 0.299182 0.825608 0.646429
Si Si2 0.083713 0.201819 0.098333
Si Si3 0.090791 0.216761 0.500000
Si Si4 0.352161 0.088556 0.190869
Si Si5 0.415678 0.297234 0.596767
Si Si6 0.500000 0.090787 0.094718
O O1 0.232999 0.767002 0.673369
O O2 0.265641 0.886276 0.581021
O O3 0.332842 0.868569 0.725052
O O4 0.370401 0.781489 0.606943
O O5 0.142284 0.142284 0.139097
O O6 0.104776 0.286293 0.124753
O O7 0.000000 0.179231 0.131281
O O8 0.087034 0.198114 0.000000
O O9 0.136141 0.136141 0.500000
O O10 0.000000 0.201199 0.500000
O O11 0.427419 0.121021 0.146239
O O12 0.361669 0.000000 0.212247
O O13 0.425083 0.312830 0.500000
O O14 0.500000 0.292914 0.638313
O O15 0.367176 0.367176 0.636896
O O16 0.500000 0.000000 0.089925
O O17 0.500000 0.123316 0.000000
#
# Coordination Sequence:
#
# PCOD8312467 Si02
#       6
#    16  16   8  16  16   8
#     4  10  19  32  49  69  95 129 163 199 245 294
#     4   9  17  29  45  65  89 116 146 184 233 289
#     4  10  20  35  53  71  96 132 174 218 260 298
#     4  10  19  30  46  67  90 119 158 198 237 284
#     4   9  17  30  48  69  94 125 157 190 232 281
#     4   9  18  32  48  67  93 123 154 192 241 295
#
# _framework density 16.149705000000001
#
# number of rings (size 3 to 8) (size 9 to 14) (size 15 to 20)
#    0.000    2.500    1.000    1.800    1.400    2.900 
#    0.000    2.000    0.000    0.600    0.000    2.800 
#    0.000    0.000    0.000    0.000    0.000    8.800 
#
# Total GULP energy -991584.657401 kJ/mol
# GULP energy per Si atom -12394.808218 kJ/mol
# Density = 1.611295 g / cm^3
# Si number density = 16.149705 Si / 1000 Ang^3
#
#
#
# Elastic Constant Matrix: (Units=GPa)
#
#
# Indices 1 2 3 4 5 6 
#
# 1 111.0757 67.0638 38.1741 0.0000 0.0000 0.0000
# 2 67.0638 111.0757 38.1741 0.0000 0.0000 0.0000
# 3 38.1741 38.1741 73.0339 0.0000 0.0000 0.0000
# 4 0.0000 0.0000 0.0000 22.6113 0.0000 0.0000
# 5 0.0000 0.0000 0.0000 0.0000 22.6113 0.0000
# 6 0.0000 0.0000 0.0000 0.0000 0.0000 13.0640
#
#
#
# Elastic Compliance Matrix: (Units=1/GPa)
#
#
# Indices 1 2 3 4 5 6 
#
# 1 0.014978 -0.007744 -0.003781 0.000000 0.000000 0.000000
# 2 -0.007744 0.014978 -0.003781 0.000000 0.000000 0.000000
# 3 -0.003781 -0.003781 0.017645 0.000000 0.000000 0.000000
# 4 0.000000 0.000000 0.000000 0.044226 0.000000 0.000000
# 5 0.000000 0.000000 0.000000 0.000000 0.044226 0.000000
# 6 0.000000 0.000000 0.000000 0.000000 0.000000 0.076546
#
#
# Mechanical properties :
#
#
# Convention : Reuss Voigt Hill
#
# Bulk Modulus (GPa) = 58.86329 64.66768 61.76549
# Shear Modulus (GPa) = 20.09058 21.77554 20.93306
#
# Velocity S-wave (km/s) = 3.53090 3.67598 3.60417
# Velocity P-wave (km/s) = 7.29045 7.62540 7.45980
#
# Compressibility (1/GPa) = 0.01698852
#
# Stress axis : x y z
#
# Youngs Moduli (GPa) = 66.76611 66.76611 56.67306
#
# Poissons Ratio (x) = 0.51700 0.21429
# Poissons Ratio (y) = 0.51700 0.21429
# Poissons Ratio (z) = 0.25246 0.25246
#
# Static dielectric constant tensor:
#      x y z
#    x 3.227550 0.000000 0.000000 
#    y 0.000000 3.227550 0.000000 
#    z 0.000000 0.000000 2.957240 
# 
# 
# High freq. dielectric constant tensor:
#      x y z
#    x 1.618860 0.000000 0.000000 
#    y 0.000000 1.618860 0.000000 
#    z 0.000000 0.000000 1.605320 
# 
# From -- ./inp_files/3961.got.cif
#   From: 2010.03.12/outbox.cif.g09.slc.cpg/sg123_2_cif.got.tgz:3961.got - 2010.04.06 16:26:55.
