data_PCOD8312874
_publ_section_title
;
Structure prediction by ZEFSAII (Michael W. Deem and Ramdas Pophale) SiO2 
 PCOD8312874
Probable space group: P 4/M M M
;
_chemical_formula_sum "Si O2"
_cell_formula_units_Z 56
_cell_length_a 14.414008
_cell_length_b 14.414008
_cell_length_c 13.902020
_cell_angle_alpha 90.000000
_cell_angle_beta 90.000000
_cell_angle_gamma 90.000000
_cell_volume 2888.334093
_symmetry_space_group_name_H-M "P 4/M M M"
_symmetry_group_IT_number 123
_symmetry_cell_setting 'tetragonal'
loop_
_space_group_symop_operation_xyz
x,y,z
-y,x,z
-x,-y,z
y,-x,z
x,-y,-z
-x,y,-z
y,x,-z
-y,-x,-z
-x,-y,-z
y,-x,-z
x,y,-z
-y,x,-z
-x,y,z
x,-y,z
-y,-x,z
y,x,z
loop_
_atom_site_type_symbol
_atom_site_label
_atom_site_fract_x
_atom_site_fract_y
_atom_site_fract_z
Si Si1 0.893549 0.743877 0.613352
Si Si2 0.000000 0.397517 0.888103
Si Si3 0.658778 0.803159 0.892227
Si Si4 0.603919 0.248788 0.695425
O O1 0.890468 0.728123 0.500000
O O2 0.837676 0.837676 0.641734
O O3 0.845310 0.654558 0.661755
O O4 0.000000 0.752054 0.649545
O O5 0.910334 0.337503 0.860152
O O6 0.000000 0.500000 0.837612
O O7 0.000000 0.416205 0.000000
O O8 0.763738 0.763738 0.889547
O O9 0.597787 0.749852 0.812385
O O10 0.615786 0.789982 0.000000
O O11 0.500000 0.253611 0.652946
O O12 0.661923 0.338078 0.658266
#
# Coordination Sequence:
#
# PCOD8312874 Si02
#       4
#    16   8  16  16
#     4   9  19  36  57  82 110 137 168 208 254 306
#     4   9  16  26  44  69  92 120 162 204 244 296
#     4   9  18  32  49  71 101 134 169 214 262 303
#     4  10  21  35  52  75 103 137 176 218 263 310
#
# _framework density 19.388341
#
# number of rings (size 3 to 8) (size 9 to 14) (size 15 to 20)
#    0.000    2.714    0.000    0.857    2.000    3.429 
#    0.000    2.857    0.000    0.429    0.000   11.000 
#    0.000    0.000    0.000    0.000    0.000    0.000 
#
# Total GULP energy -693806.471187 kJ/mol
# GULP energy per Si atom -12389.401271 kJ/mol
# Density = 1.934421 g / cm^3
# Si number density = 19.388341 Si / 1000 Ang^3
#
#
#
# Elastic Constant Matrix: (Units=GPa)
#
#
# Indices 1 2 3 4 5 6 
#
# 1 153.9539 78.8202 20.3636 0.0000 0.0000 0.0000
# 2 78.8202 153.9539 20.3636 0.0000 0.0000 0.0000
# 3 20.3636 20.3636 36.1527 0.0000 0.0000 0.0000
# 4 0.0000 0.0000 0.0000 17.8650 0.0000 0.0000
# 5 0.0000 0.0000 0.0000 0.0000 17.8650 0.0000
# 6 0.0000 0.0000 0.0000 0.0000 0.0000 14.6023
#
#
#
# Elastic Compliance Matrix: (Units=1/GPa)
#
#
# Indices 1 2 3 4 5 6 
#
# 1 0.009038 -0.004272 -0.002684 0.000000 0.000000 0.000000
# 2 -0.004272 0.009038 -0.002684 0.000000 0.000000 0.000000
# 3 -0.002684 -0.002684 0.030684 0.000000 0.000000 0.000000
# 4 0.000000 0.000000 0.000000 0.055975 0.000000 0.000000
# 5 0.000000 0.000000 0.000000 0.000000 0.055975 0.000000
# 6 0.000000 0.000000 0.000000 0.000000 0.000000 0.068482
#
#
# Mechanical properties :
#
#
# Convention : Reuss Voigt Hill
#
# Bulk Modulus (GPa) = 33.92314 64.79506 49.35910
# Shear Modulus (GPa) = 19.35731 25.03399 22.19565
#
# Velocity S-wave (km/s) = 3.16317 3.59721 3.38715
# Velocity P-wave (km/s) = 5.55658 7.12358 6.38831
#
# Compressibility (1/GPa) = 0.02947840
#
# Stress axis : x y z
#
# Youngs Moduli (GPa) = 110.64828 110.64828 32.58981
#
# Poissons Ratio (x) = 0.47269 0.08748
# Poissons Ratio (y) = 0.47269 0.08748
# Poissons Ratio (z) = 0.29702 0.29702
#
# Static dielectric constant tensor:
#      x y z
#    x 3.579900 0.000000 0.000000 
#    y 0.000000 3.579900 0.000000 
#    z 0.000000 0.000000 3.580550 
# 
# 
# High freq. dielectric constant tensor:
#      x y z
#    x 1.740790 0.000000 0.000000 
#    y 0.000000 1.740790 0.000000 
#    z 0.000000 0.000000 1.753080 
# 
# From -- ./inp_files/3727.got.cif
#   From: 2010.03.12/outbox.cif.g09.slc.cpg/sg123_2_cif.got.tgz:3727.got - 2010.04.06 16:26:55.
