data_PCOD8312478
_publ_section_title
;
Structure prediction by ZEFSAII (Michael W. Deem and Ramdas Pophale) SiO2 
 PCOD8312478
Probable space group: P 4/M M M
;
_chemical_formula_sum "Si O2"
_cell_formula_units_Z 72
_cell_length_a 12.446811
_cell_length_b 12.446811
_cell_length_c 28.097046
_cell_angle_alpha 90.000000
_cell_angle_beta 90.000000
_cell_angle_gamma 90.000000
_cell_volume 4352.881582
_symmetry_space_group_name_H-M "P 4/M M M"
_symmetry_group_IT_number 123
_symmetry_cell_setting 'tetragonal'
loop_
_space_group_symop_operation_xyz
x,y,z
-y,x,z
-x,-y,z
y,-x,z
x,-y,-z
-x,y,-z
y,x,-z
-y,-x,-z
-x,-y,-z
y,-x,-z
x,y,-z
-y,x,-z
-x,y,z
x,-y,z
-y,-x,z
y,x,z
loop_
_atom_site_type_symbol
_atom_site_label
_atom_site_fract_x
_atom_site_fract_y
_atom_site_fract_z
Si Si1 0.376366 0.206796 0.314134
Si Si2 0.000000 0.372503 0.946573
Si Si3 0.374005 0.794938 0.887496
Si Si4 0.118317 0.373578 0.785858
Si Si5 0.826612 0.000000 0.443936
Si Si6 0.000000 0.377678 0.621196
O O1 0.500000 0.243960 0.314531
O O2 0.305030 0.305030 0.333966
O O3 0.335156 0.180681 0.260972
O O4 0.358530 0.103705 0.346699
O O5 0.105514 0.332644 0.919028
O O6 0.000000 0.500000 0.947139
O O7 0.000000 0.325396 0.000000
O O8 0.500000 0.773764 0.894446
O O9 0.311251 0.688750 0.904528
O O10 0.342696 0.816255 0.832829
O O11 0.102560 0.500000 0.783173
O O12 0.000000 0.319766 0.787713
O O13 0.708840 0.000000 0.420884
O O14 0.894090 0.894090 0.428643
O O15 0.808627 0.000000 0.500000
O O16 0.000000 0.500000 0.600582
#
# Coordination Sequence:
#
# PCOD8312478 Si02
#       6
#    16   8  16  16   8   8
#     4  10  19  30  46  69  97 128 160 194 232 276
#     4   9  18  33  51  69  89 118 158 192 219 268
#     4  10  19  31  50  74  98 124 153 189 233 278
#     4   9  15  28  47  67  92 122 160 196 225 265
#     4   9  18  33  52  72  95 124 157 198 252 304
#     4  10  19  31  48  71  97 127 165 202 234 275
#
# _framework density 16.540768
#
# number of rings (size 3 to 8) (size 9 to 14) (size 15 to 20)
#    0.000    2.444    2.222    1.667    0.000    1.111 
#    0.000    0.000    0.000    4.333    0.000    5.444 
#    0.000    0.000    0.000   20.667    0.000    0.000 
#
# Total GULP energy -892533.577460 kJ/mol
# GULP energy per Si atom -12396.299687 kJ/mol
# Density = 1.650312 g / cm^3
# Si number density = 16.540768 Si / 1000 Ang^3
#
#
#
# Elastic Constant Matrix: (Units=GPa)
#
#
# Indices 1 2 3 4 5 6 
#
# 1 100.2677 65.9513 38.8696 0.0000 0.0000 0.0000
# 2 65.9513 100.2677 38.8696 0.0000 0.0000 0.0000
# 3 38.8696 38.8696 78.6099 0.0000 0.0000 0.0000
# 4 0.0000 0.0000 0.0000 13.7905 0.0000 0.0000
# 5 0.0000 0.0000 0.0000 0.0000 13.7905 0.0000
# 6 0.0000 0.0000 0.0000 0.0000 0.0000 19.4847
#
#
#
# Elastic Compliance Matrix: (Units=1/GPa)
#
#
# Indices 1 2 3 4 5 6 
#
# 1 0.018483 -0.010657 -0.003870 0.000000 0.000000 0.000000
# 2 -0.010657 0.018483 -0.003870 0.000000 0.000000 0.000000
# 3 -0.003870 -0.003870 0.016548 0.000000 0.000000 0.000000
# 4 0.000000 0.000000 0.000000 0.072514 0.000000 0.000000
# 5 0.000000 0.000000 0.000000 0.000000 0.072514 0.000000
# 6 0.000000 0.000000 0.000000 0.000000 0.000000 0.051322
#
#
# Mechanical properties :
#
#
# Convention : Reuss Voigt Hill
#
# Bulk Modulus (GPa) = 59.80437 62.94735 61.37586
# Shear Modulus (GPa) = 17.10977 18.44347 17.77662
#
# Velocity S-wave (km/s) = 3.21970 3.34283 3.28184
# Velocity P-wave (km/s) = 7.07504 7.28271 7.17962
#
# Compressibility (1/GPa) = 0.01672119
#
# Stress axis : x y z
#
# Youngs Moduli (GPa) = 54.10287 54.10287 60.43101
#
# Poissons Ratio (x) = 0.57659 0.23385
# Poissons Ratio (y) = 0.57659 0.23385
# Poissons Ratio (z) = 0.20936 0.20936
#
# Static dielectric constant tensor:
#      x y z
#    x 2.967220 0.000000 0.000000 
#    y 0.000000 2.967220 0.000000 
#    z 0.000000 0.000000 3.111890 
# 
# 
# High freq. dielectric constant tensor:
#      x y z
#    x 1.625090 0.000000 0.000000 
#    y 0.000000 1.625090 0.000000 
#    z 0.000000 0.000000 1.630020 
# 
# From -- ./inp_files/8302.got.cif
#   From: 2010.03.12/outbox.cif.g09.slc.cpg/sg123_5_cif.got.tgz:8302.got - 2010.04.06 16:26:55.
