data_PCOD8312436
_publ_section_title
;
Structure prediction by ZEFSAII (Michael W. Deem and Ramdas Pophale) SiO2 
 PCOD8312436
Probable space group: P 4/M M M
;
_chemical_formula_sum "Si O2"
_cell_formula_units_Z 120
_cell_length_a 13.785563
_cell_length_b 13.785563
_cell_length_c 38.204057
_cell_angle_alpha 90.000000
_cell_angle_beta 90.000000
_cell_angle_gamma 90.000000
_cell_volume 7260.365743
_symmetry_space_group_name_H-M "P 4/M M M"
_symmetry_group_IT_number 123
_symmetry_cell_setting 'tetragonal'
loop_
_space_group_symop_operation_xyz
x,y,z
-y,x,z
-x,-y,z
y,-x,z
x,-y,-z
-x,y,-z
y,x,-z
-y,-x,-z
-x,-y,-z
y,-x,-z
x,y,-z
-y,x,-z
-x,y,z
x,-y,z
-y,-x,z
y,x,z
loop_
_atom_site_type_symbol
_atom_site_label
_atom_site_fract_x
_atom_site_fract_y
_atom_site_fract_z
Si Si1 0.886440 0.271336 0.093328
Si Si2 0.389125 0.112284 0.162043
Si Si3 0.231231 0.613546 0.770229
Si Si4 0.114877 0.391563 0.567509
Si Si5 0.270401 0.114008 0.634096
Si Si6 0.111996 0.611423 0.702650
Si Si7 0.767875 0.388832 0.040498
Si Si8 0.885286 0.271539 0.500000
O O1 0.830424 0.169577 0.090315
O O2 0.858285 0.321834 0.129731
O O3 0.856506 0.343589 0.062164
O O4 0.000000 0.249464 0.090356
O O5 0.500000 0.137051 0.152092
O O6 0.354268 0.171347 0.195749
O O7 0.378065 0.000000 0.171560
O O8 0.251418 0.500000 0.770085
O O9 0.334601 0.665400 0.770467
O O10 0.172077 0.646425 0.736111
O O11 0.159814 0.500000 0.566533
O O12 0.150967 0.337095 0.602248
O O13 0.148931 0.332427 0.533605
O O14 0.000000 0.399615 0.567869
O O15 0.167349 0.167349 0.632629
O O16 0.324642 0.142646 0.669649
O O17 0.249279 0.000000 0.631461
O O18 0.133856 0.500000 0.693168
O O19 0.000000 0.625989 0.712141
O O20 0.751048 0.500000 0.051500
O O21 0.668390 0.331611 0.048802
O O22 0.796688 0.379772 0.000000
O O23 0.832097 0.167904 0.500000
O O24 0.000000 0.250729 0.500000
#
# Coordination Sequence:
#
# PCOD8312436 Si02
#       8
#    16  16  16  16  16  16  16   8
#     4  10  20  33  49  69  94 124 158 196 235 275
#     4   9  17  30  49  71  91 113 146 188 233 278
#     4  10  19  30  45  65  91 121 150 182 221 268
#     4   9  17  30  47  65  86 114 149 190 229 256
#     4  10  19  30  45  66  93 122 149 178 215 265
#     4   9  17  30  48  68  88 112 147 192 234 263
#     4   9  18  32  50  73  99 125 154 189 230 277
#     4  10  19  30  45  67  96 126 153 181 216 265
#
# _framework density 16.528093999999999
#
# number of rings (size 3 to 8) (size 9 to 14) (size 15 to 20)
#    0.000    2.533    0.000    2.600    0.000    5.667 
#    0.000    1.333    0.000    2.400    0.000    3.733 
#    0.000   29.067    0.000    0.000    0.000    0.000 
#
# Total GULP energy -1488159.414762 kJ/mol
# GULP energy per Si atom -12401.328456 kJ/mol
# Density = 1.649048 g / cm^3
# Si number density = 16.528094 Si / 1000 Ang^3
#
#
#
# Elastic Constant Matrix: (Units=GPa)
#
#
# Indices 1 2 3 4 5 6 
#
# 1 84.5935 52.6015 57.0475 0.0000 0.0000 0.0000
# 2 52.6015 84.5945 57.0477 0.0000 0.0000 0.0000
# 3 57.0475 57.0477 121.9836 0.0000 0.0000 0.0000
# 4 0.0000 0.0000 0.0000 20.6462 0.0000 0.0000
# 5 0.0000 0.0000 0.0000 0.0000 20.6461 0.0000
# 6 0.0000 0.0000 0.0000 0.0000 0.0000 22.6773
#
#
#
# Elastic Compliance Matrix: (Units=1/GPa)
#
#
# Indices 1 2 3 4 5 6 
#
# 1 0.021593 -0.009665 -0.005578 0.000000 0.000000 0.000000
# 2 -0.009665 0.021593 -0.005578 0.000000 0.000000 0.000000
# 3 -0.005578 -0.005578 0.013415 0.000000 0.000000 0.000000
# 4 0.000000 0.000000 0.000000 0.048435 0.000000 0.000000
# 5 0.000000 0.000000 0.000000 0.000000 0.048435 0.000000
# 6 0.000000 0.000000 0.000000 0.000000 0.000000 0.044097
#
#
# Mechanical properties :
#
#
# Convention : Reuss Voigt Hill
#
# Bulk Modulus (GPa) = 66.85358 69.39612 68.12485
# Shear Modulus (GPa) = 20.47530 21.09224 20.78377
#
# Velocity S-wave (km/s) = 3.52350 3.57619 3.54995
# Velocity P-wave (km/s) = 7.55577 7.68961 7.62299
#
# Compressibility (1/GPa) = 0.01495806
#
# Stress axis : x y z
#
# Youngs Moduli (GPa) = 46.31182 46.31237 74.54143
#
# Poissons Ratio (x) = 0.44760 0.41581
# Poissons Ratio (y) = 0.44759 0.41581
# Poissons Ratio (z) = 0.25834 0.25834
#
# Static dielectric constant tensor:
#      x y z
#    x 2.967430 0.000000 0.000000 
#    y 0.000000 2.967430 0.000000 
#    z 0.000000 0.000000 3.298840 
# 
# 
# High freq. dielectric constant tensor:
#      x y z
#    x 1.623410 0.000000 0.000000 
#    y 0.000000 1.623410 0.000000 
#    z 0.000000 0.000000 1.653240 
# 
# From -- ./inp_files/8842.got.cif
#   From: 2010.03.12/outbox.cif.g09.slc.cpg/sg123_5_cif.got.tgz:8842.got - 2010.04.06 16:26:55.
