data_PCOD8312977
_publ_section_title
;
Structure prediction by ZEFSAII (Michael W. Deem and Ramdas Pophale) SiO2 
 PCOD8312977
Probable space group: P 4/M M M
;
_chemical_formula_sum "Si O2"
_cell_formula_units_Z 96
_cell_length_a 25.247052
_cell_length_b 25.247052
_cell_length_c 9.828865
_cell_angle_alpha 90.000000
_cell_angle_beta 90.000000
_cell_angle_gamma 90.000000
_cell_volume 6265.052565
_symmetry_space_group_name_H-M "P 4/M M M"
_symmetry_group_IT_number 123
_symmetry_cell_setting 'tetragonal'
loop_
_space_group_symop_operation_xyz
x,y,z
-y,x,z
-x,-y,z
y,-x,z
x,-y,-z
-x,y,-z
y,x,-z
-y,-x,-z
-x,-y,-z
y,-x,-z
x,y,-z
-y,x,-z
-x,y,z
x,-y,z
-y,-x,z
y,x,z
loop_
_atom_site_type_symbol
_atom_site_label
_atom_site_fract_x
_atom_site_fract_y
_atom_site_fract_z
Si Si1 0.058950 0.259994 0.161506
Si Si2 0.738184 0.347751 0.156842
Si Si3 0.139455 0.651991 0.840569
Si Si4 0.734635 0.441378 0.652626
Si Si5 0.142082 0.940966 0.838085
Si Si6 0.441422 0.139670 0.651837
O O1 0.103871 0.299767 0.215599
O O2 0.072393 0.201089 0.215693
O O3 0.000000 0.277072 0.211499
O O4 0.059810 0.259405 0.000000
O O5 0.705062 0.294939 0.189848
O O6 0.799281 0.335328 0.193525
O O7 0.714184 0.396465 0.243839
O O8 0.732784 0.364372 0.000000
O O9 0.118370 0.600105 0.762238
O O10 0.130990 0.641921 0.000000
O O11 0.715074 0.427565 0.500000
O O12 0.713315 0.500000 0.694906
O O13 0.797453 0.442580 0.657131
O O14 0.100898 0.899102 0.773826
O O15 0.125612 0.000000 0.791298
O O16 0.141156 0.937571 0.000000
O O17 0.425095 0.120938 0.500000
O O18 0.500000 0.117716 0.688179
#
# Coordination Sequence:
#
# PCOD8312977 Si02
#       6
#    16  16  16  16  16  16
#     4   8  14  24  36  50  69  95 130 168 199 229
#     4   9  17  26  35  54  84 108 126 155 195 235
#     4   9  16  25  39  57  75 100 133 164 193 228
#     4   8  14  25  40  56  74 100 134 164 189 224
#     4   8  13  20  30  46  69  97 128 161 197 236
#     4   8  14  25  40  57  77  99 123 156 198 238
#
# _framework density 15.323095
#
# number of rings (size 3 to 8) (size 9 to 14) (size 15 to 20)
#    0.000    3.667    0.000    2.000    0.000    1.833 
#    0.000    7.500    0.000    1.000    0.000    3.500 
#    0.000    0.333    0.000    4.167    0.000    3.833 
#
# Total GULP energy -1189521.085098 kJ/mol
# GULP energy per Si atom -12390.844636 kJ/mol
# Density = 1.528822 g / cm^3
# Si number density = 15.323095 Si / 1000 Ang^3
#
#
#
# Elastic Constant Matrix: (Units=GPa)
#
#
# Indices 1 2 3 4 5 6 
#
# 1 96.7567 66.6614 40.0023 0.0000 0.0000 0.0000
# 2 66.6614 96.7567 40.0023 0.0000 0.0000 0.0000
# 3 40.0023 40.0023 42.8058 0.0000 0.0000 0.0000
# 4 0.0000 0.0000 0.0000 8.6715 0.0000 0.0000
# 5 0.0000 0.0000 0.0000 0.0000 8.6715 0.0000
# 6 0.0000 0.0000 0.0000 0.0000 0.0000 6.2689
#
#
#
# Elastic Compliance Matrix: (Units=1/GPa)
#
#
# Indices 1 2 3 4 5 6 
#
# 1 0.022254 -0.010974 -0.010541 0.000000 0.000000 0.000000
# 2 -0.010974 0.022254 -0.010541 0.000000 0.000000 0.000000
# 3 -0.010541 -0.010541 0.043063 0.000000 0.000000 0.000000
# 4 0.000000 0.000000 0.000000 0.115320 0.000000 0.000000
# 5 0.000000 0.000000 0.000000 0.000000 0.115320 0.000000
# 6 0.000000 0.000000 0.000000 0.000000 0.000000 0.159517
#
#
# Mechanical properties :
#
#
# Convention : Reuss Voigt Hill
#
# Bulk Modulus (GPa) = 42.62921 58.85011 50.73966
# Shear Modulus (GPa) = 9.09654 10.69927 9.89791
#
# Velocity S-wave (km/s) = 2.43913 2.64530 2.54431
# Velocity P-wave (km/s) = 5.98441 6.91518 6.46656
#
# Compressibility (1/GPa) = 0.02345809
#
# Stress axis : x y z
#
# Youngs Moduli (GPa) = 44.93603 44.93603 23.22190
#
# Poissons Ratio (x) = 0.49313 0.24478
# Poissons Ratio (y) = 0.49313 0.24478
# Poissons Ratio (z) = 0.47368 0.47368
#
# Static dielectric constant tensor:
#      x y z
#    x 3.071350 0.000000 0.000000 
#    y 0.000000 3.071350 0.000000 
#    z 0.000000 0.000000 2.740350 
# 
# 
# High freq. dielectric constant tensor:
#      x y z
#    x 1.573310 0.000000 0.000000 
#    y 0.000000 1.573310 0.000000 
#    z 0.000000 0.000000 1.553170 
# 
# From -- ./inp_files/3283.got.cif
#   From: 2010.03.12/outbox.cif.g09.slc.cpg/sg123_2_cif.got.tgz:3283.got - 2010.04.06 16:26:55.
