data_PCOD8312523
_publ_section_title
;
Structure prediction by ZEFSAII (Michael W. Deem and Ramdas Pophale) SiO2 
 PCOD8312523
Probable space group: P 4/M M M
;
_chemical_formula_sum "Si O2"
_cell_formula_units_Z 80
_cell_length_a 12.709070
_cell_length_b 12.709070
_cell_length_c 29.003804
_cell_angle_alpha 90.000000
_cell_angle_beta 90.000000
_cell_angle_gamma 90.000000
_cell_volume 4684.707772
_symmetry_space_group_name_H-M "P 4/M M M"
_symmetry_group_IT_number 123
_symmetry_cell_setting 'tetragonal'
loop_
_space_group_symop_operation_xyz
x,y,z
-y,x,z
-x,-y,z
y,-x,z
x,-y,-z
-x,y,-z
y,x,-z
-y,-x,-z
-x,-y,-z
y,-x,-z
x,y,-z
-y,x,-z
-x,y,z
x,-y,z
-y,-x,z
y,x,z
loop_
_atom_site_type_symbol
_atom_site_label
_atom_site_fract_x
_atom_site_fract_y
_atom_site_fract_z
Si Si1 0.000000 0.170015 0.945500
Si Si2 0.211681 0.622800 0.549950
Si Si3 0.615662 0.122500 0.643724
Si Si4 0.380624 0.206887 0.173587
Si Si5 0.123923 0.714315 0.262589
Si Si6 0.000000 0.377956 0.113479
O O1 0.104102 0.104102 0.929865
O O2 0.000000 0.289100 0.926067
O O3 0.000000 0.181956 0.000000
O O4 0.157315 0.649470 0.500000
O O5 0.227580 0.500000 0.554678
O O6 0.326624 0.673377 0.551862
O O7 0.145186 0.666967 0.593416
O O8 0.500000 0.174990 0.646568
O O9 0.684306 0.164113 0.686200
O O10 0.604103 0.000000 0.649833
O O11 0.500000 0.246979 0.166070
O O12 0.300834 0.300834 0.159748
O O13 0.368592 0.172990 0.226842
O O14 0.357283 0.104211 0.143209
O O15 0.169800 0.830201 0.251780
O O16 0.000000 0.718534 0.257283
O O17 0.000000 0.500000 0.094713
#
# Coordination Sequence:
#
# PCOD8312523 Si02
#       6
#     8  16  16  16  16   8
#     4   9  18  33  53  77 107 142 177 214 256 302
#     4   9  17  28  41  58  80 104 132 168 211 263
#     4   9  17  28  44  63  81 106 140 178 222 271
#     4  10  20  33  50  72  99 132 168 208 251 295
#     4  10  19  31  47  66  91 121 154 193 235 283
#     4  10  19  32  52  76 105 136 172 216 254 298
#
# _framework density 17.076837999999999
#
# number of rings (size 3 to 8) (size 9 to 14) (size 15 to 20)
#    0.000    2.500    1.000    2.100    0.000    2.000 
#    0.000    3.000    0.000    0.000    0.000    2.800 
#    0.000    0.000    0.000   37.200    0.000    0.400 
#
# Total GULP energy -991046.747195 kJ/mol
# GULP energy per Si atom -12388.084340 kJ/mol
# Density = 1.703797 g / cm^3
# Si number density = 17.076838 Si / 1000 Ang^3
#
#
#
# Elastic Constant Matrix: (Units=GPa)
#
#
# Indices 1 2 3 4 5 6 
#
# 1 88.7788 47.6279 34.9923 0.0000 0.0000 0.0000
# 2 47.6279 88.7788 34.9923 0.0000 0.0000 0.0000
# 3 34.9923 34.9923 75.0276 0.0000 0.0000 0.0000
# 4 0.0000 0.0000 0.0000 22.5103 0.0000 0.0000
# 5 0.0000 0.0000 0.0000 0.0000 22.5103 0.0000
# 6 0.0000 0.0000 0.0000 0.0000 0.0000 22.8397
#
#
#
# Elastic Compliance Matrix: (Units=1/GPa)
#
#
# Indices 1 2 3 4 5 6 
#
# 1 0.016969 -0.007332 -0.004495 0.000000 0.000000 0.000000
# 2 -0.007332 0.016969 -0.004495 0.000000 0.000000 0.000000
# 3 -0.004495 -0.004495 0.017521 0.000000 0.000000 0.000000
# 4 0.000000 0.000000 0.000000 0.044424 0.000000 0.000000
# 5 0.000000 0.000000 0.000000 0.000000 0.044424 0.000000
# 6 0.000000 0.000000 0.000000 0.000000 0.000000 0.043783
#
#
# Mechanical properties :
#
#
# Convention : Reuss Voigt Hill
#
# Bulk Modulus (GPa) = 53.14494 54.20113 53.67304
# Shear Modulus (GPa) = 22.42100 22.57021 22.49561
#
# Velocity S-wave (km/s) = 3.62739 3.63944 3.63342
# Velocity P-wave (km/s) = 6.98087 7.03343 7.00720
#
# Compressibility (1/GPa) = 0.01881647
#
# Stress axis : x y z
#
# Youngs Moduli (GPa) = 58.93123 58.93123 57.07449
#
# Poissons Ratio (x) = 0.43208 0.25653
# Poissons Ratio (y) = 0.43208 0.25653
# Poissons Ratio (z) = 0.26487 0.26487
#
# Static dielectric constant tensor:
#      x y z
#    x 3.125550 0.000000 0.000000 
#    y 0.000000 3.125550 0.000000 
#    z 0.000000 0.000000 3.348870 
# 
# 
# High freq. dielectric constant tensor:
#      x y z
#    x 1.646620 0.000000 0.000000 
#    y 0.000000 1.646620 0.000000 
#    z 0.000000 0.000000 1.662330 
# 
# From -- ./inp_files/8336.got.cif
#   From: 2010.03.12/outbox.cif.g09.slc.cpg/sg123_5_cif.got.tgz:8336.got - 2010.04.06 16:26:55.
