data_PCOD8312824
_publ_section_title
;
Structure prediction by ZEFSAII (Michael W. Deem and Ramdas Pophale) SiO2 
 PCOD8312824
Probable space group: P 4/M M M
;
_chemical_formula_sum "Si O2"
_cell_formula_units_Z 72
_cell_length_a 12.754162
_cell_length_b 12.754162
_cell_length_c 24.514981
_cell_angle_alpha 90.000000
_cell_angle_beta 90.000000
_cell_angle_gamma 90.000000
_cell_volume 3987.818823
_symmetry_space_group_name_H-M "P 4/M M M"
_symmetry_group_IT_number 123
_symmetry_cell_setting 'tetragonal'
loop_
_space_group_symop_operation_xyz
x,y,z
-y,x,z
-x,-y,z
y,-x,z
x,-y,-z
-x,y,-z
y,x,-z
-y,-x,-z
-x,-y,-z
y,-x,-z
x,y,-z
-y,x,-z
-x,y,z
x,-y,z
-y,-x,z
y,x,z
loop_
_atom_site_type_symbol
_atom_site_label
_atom_site_fract_x
_atom_site_fract_y
_atom_site_fract_z
Si Si1 0.211803 0.620484 0.768414
Si Si2 0.293727 0.878048 0.125443
Si Si3 0.289205 0.118432 0.336031
Si Si4 0.875662 0.500000 0.938488
Si Si5 0.379826 0.789616 0.438950
O O1 0.225801 0.500000 0.784158
O O2 0.326009 0.673992 0.770240
O O3 0.134469 0.677641 0.810955
O O4 0.162029 0.629572 0.708496
O O5 0.192600 0.807401 0.109735
O O6 0.393865 0.836623 0.091006
O O7 0.267235 0.000000 0.113416
O O8 0.181040 0.181040 0.333576
O O9 0.342253 0.124219 0.395620
O O10 0.260330 0.000000 0.322850
O O11 0.000000 0.500000 0.937229
O O12 0.831753 0.500000 0.000000
O O13 0.359881 0.834177 0.500000
O O14 0.500000 0.761359 0.429643
O O15 0.318100 0.681901 0.428906
#
# Coordination Sequence:
#
# PCOD8312824 Si02
#       5
#    16  16  16   8  16
#     4  10  20  34  53  78 107 138 173 213 258 309
#     4  10  20  34  54  81 111 144 181 222 268 317
#     4  10  21  35  51  72  97 128 167 211 258 307
#     4   9  18  34  56  79 105 141 182 221 260 307
#     4   9  18  32  49  71  99 129 163 203 247 298
#
# _framework density 18.054984000000001
#
# number of rings (size 3 to 8) (size 9 to 14) (size 15 to 20)
#    0.000    2.333    1.111    1.333    0.000    4.444 
#    0.000    2.222    0.000    8.333    0.000    7.000 
#    0.000    0.000    0.000    0.000    0.000    0.000 
#
# Total GULP energy -892805.897629 kJ/mol
# GULP energy per Si atom -12400.081912 kJ/mol
# Density = 1.801389 g / cm^3
# Si number density = 18.054984 Si / 1000 Ang^3
#
#
#
# Elastic Constant Matrix: (Units=GPa)
#
#
# Indices 1 2 3 4 5 6 
#
# 1 100.2944 54.3915 31.1090 0.0000 0.0000 0.0000
# 2 54.3915 100.2944 31.1090 0.0000 0.0000 0.0000
# 3 31.1090 31.1090 88.8726 0.0000 0.0000 0.0000
# 4 0.0000 0.0000 0.0000 21.6730 0.0000 0.0000
# 5 0.0000 0.0000 0.0000 0.0000 21.6730 0.0000
# 6 0.0000 0.0000 0.0000 0.0000 0.0000 15.3033
#
#
#
# Elastic Compliance Matrix: (Units=1/GPa)
#
#
# Indices 1 2 3 4 5 6 
#
# 1 0.014655 -0.007131 -0.002634 0.000000 0.000000 0.000000
# 2 -0.007131 0.014655 -0.002634 0.000000 0.000000 0.000000
# 3 -0.002634 -0.002634 0.013096 0.000000 0.000000 0.000000
# 4 0.000000 0.000000 0.000000 0.046140 0.000000 0.000000
# 5 0.000000 0.000000 0.000000 0.000000 0.046140 0.000000
# 6 0.000000 0.000000 0.000000 0.000000 0.000000 0.065345
#
#
# Mechanical properties :
#
#
# Convention : Reuss Voigt Hill
#
# Bulk Modulus (GPa) = 56.78883 58.07560 57.43222
# Shear Modulus (GPa) = 21.67349 23.25333 22.46341
#
# Velocity S-wave (km/s) = 3.46846 3.59265 3.53110
# Velocity P-wave (km/s) = 6.89651 7.03174 6.96445
#
# Compressibility (1/GPa) = 0.01760910
#
# Stress axis : x y z
#
# Youngs Moduli (GPa) = 68.23802 68.23802 76.35990
#
# Poissons Ratio (x) = 0.48657 0.20111
# Poissons Ratio (y) = 0.48657 0.20111
# Poissons Ratio (z) = 0.17972 0.17972
#
# Static dielectric constant tensor:
#      x y z
#    x 3.173870 0.000000 0.000000 
#    y 0.000000 3.173870 0.000000 
#    z 0.000000 0.000000 3.555110 
# 
# 
# High freq. dielectric constant tensor:
#      x y z
#    x 1.687160 0.000000 0.000000 
#    y 0.000000 1.687160 0.000000 
#    z 0.000000 0.000000 1.710910 
# 
# From -- ./inp_files/7805.got.cif
#   From: 2010.03.12/outbox.cif.g09.slc.cpg/sg123_4_cif.got.tgz:7805.got - 2010.04.06 16:26:55.
