data_PCOD8312731
_publ_section_title
;
Structure prediction by ZEFSAII (Michael W. Deem and Ramdas Pophale) SiO2 
 PCOD8312731
Probable space group: P 4/M M M
;
_chemical_formula_sum "Si O2"
_cell_formula_units_Z 72
_cell_length_a 13.859611
_cell_length_b 13.859611
_cell_length_c 23.053748
_cell_angle_alpha 90.000000
_cell_angle_beta 90.000000
_cell_angle_gamma 90.000000
_cell_volume 4428.367182
_symmetry_space_group_name_H-M "P 4/M M M"
_symmetry_group_IT_number 123
_symmetry_cell_setting 'tetragonal'
loop_
_space_group_symop_operation_xyz
x,y,z
-y,x,z
-x,-y,z
y,-x,z
x,-y,-z
-x,y,-z
y,x,-z
-y,-x,-z
-x,-y,-z
y,-x,-z
x,y,-z
-y,x,-z
-x,y,z
x,-y,z
-y,-x,z
y,x,z
loop_
_atom_site_type_symbol
_atom_site_label
_atom_site_fract_x
_atom_site_fract_y
_atom_site_fract_z
Si Si1 0.269148 0.887754 0.874926
Si Si2 0.613830 0.770594 0.346669
Si Si3 0.735812 0.890348 0.000000
Si Si4 0.890760 0.612819 0.234966
Si Si5 0.733481 0.110659 0.567379
O O1 0.169587 0.830414 0.868482
O O2 0.341499 0.853043 0.824945
O O3 0.244582 0.000000 0.867582
O O4 0.319023 0.867121 0.938809
O O5 0.500000 0.751271 0.350604
O O6 0.668331 0.668331 0.351646
O O7 0.645068 0.821154 0.286786
O O8 0.644420 0.841884 0.398495
O O9 0.836275 0.836275 0.000000
O O10 0.766962 0.000000 0.000000
O O11 0.886197 0.500000 0.225514
O O12 0.000000 0.645725 0.249811
O O13 0.706918 0.118093 0.500000
O O14 0.832597 0.167404 0.581553
O O15 0.748012 0.000000 0.586657
#
# Coordination Sequence:
#
# PCOD8312731 Si02
#       5
#    16  16   8  16  16
#     4   9  16  26  40  58  82 110 139 172 208 248
#     4  10  20  33  49  68  90 117 150 188 228 269
#     4   8  14  23  35  53  77 107 140 170 203 243
#     4   9  17  29  45  64  84 108 140 176 216 263
#     4   9  18  32  50  73  99 125 153 184 218 258
#
# _framework density 16.258813
#
# number of rings (size 3 to 8) (size 9 to 14) (size 15 to 20)
#    0.000    2.889    0.000    1.333    0.000    2.556 
#    0.000    5.000    0.000    3.333    0.000    6.222 
#    0.000    0.000    0.000    0.000    0.000   66.667 
#
# Total GULP energy -892208.837767 kJ/mol
# GULP energy per Si atom -12391.789413 kJ/mol
# Density = 1.622181 g / cm^3
# Si number density = 16.258813 Si / 1000 Ang^3
#
#
#
# Elastic Constant Matrix: (Units=GPa)
#
#
# Indices 1 2 3 4 5 6 
#
# 1 70.6963 39.2769 49.9480 0.0000 0.0000 0.0000
# 2 39.2769 70.6963 49.9480 0.0000 0.0000 0.0000
# 3 49.9480 49.9480 109.0888 0.0000 0.0000 0.0000
# 4 0.0000 0.0000 0.0000 24.0812 0.0000 0.0000
# 5 0.0000 0.0000 0.0000 0.0000 24.0812 0.0000
# 6 0.0000 0.0000 0.0000 0.0000 0.0000 16.8708
#
#
#
# Elastic Compliance Matrix: (Units=1/GPa)
#
#
# Indices 1 2 3 4 5 6 
#
# 1 0.023698 -0.008130 -0.007128 0.000000 0.000000 0.000000
# 2 -0.008130 0.023698 -0.007128 0.000000 0.000000 0.000000
# 3 -0.007128 -0.007128 0.015694 0.000000 0.000000 0.000000
# 4 0.000000 0.000000 0.000000 0.041526 0.000000 0.000000
# 5 0.000000 0.000000 0.000000 0.000000 0.041526 0.000000
# 6 0.000000 0.000000 0.000000 0.000000 0.000000 0.059274
#
#
# Mechanical properties :
#
#
# Convention : Reuss Voigt Hill
#
# Bulk Modulus (GPa) = 54.59102 58.75858 56.67480
# Shear Modulus (GPa) = 19.50888 20.42723 19.96805
#
# Velocity S-wave (km/s) = 3.46771 3.54839 3.50828
# Velocity P-wave (km/s) = 7.04858 7.28053 7.16549
#
# Compressibility (1/GPa) = 0.01831803
#
# Stress axis : x y z
#
# Youngs Moduli (GPa) = 42.19813 42.19813 63.71760
#
# Poissons Ratio (x) = 0.34306 0.45418
# Poissons Ratio (y) = 0.34306 0.45418
# Poissons Ratio (z) = 0.30079 0.30079
#
# Static dielectric constant tensor:
#      x y z
#    x 2.911230 0.000000 0.000000 
#    y 0.000000 2.911230 0.000000 
#    z 0.000000 0.000000 3.506860 
# 
# 
# High freq. dielectric constant tensor:
#      x y z
#    x 1.607310 0.000000 0.000000 
#    y 0.000000 1.607310 0.000000 
#    z 0.000000 0.000000 1.646820 
# 
# From -- ./inp_files/5101.got.cif
#   From: 2010.03.12/outbox.cif.g09.slc.cpg/sg123_3_cif.got.tgz:5101.got - 2010.04.06 16:26:55.
