data_PCOD8312890
_publ_section_title
;
Structure prediction by ZEFSAII (Michael W. Deem and Ramdas Pophale) SiO2 
 PCOD8312890
Probable space group: P 4/M M M
;
_chemical_formula_sum "Si O2"
_cell_formula_units_Z 72
_cell_length_a 13.102860
_cell_length_b 13.102860
_cell_length_c 23.640291
_cell_angle_alpha 90.000000
_cell_angle_beta 90.000000
_cell_angle_gamma 90.000000
_cell_volume 4058.681946
_symmetry_space_group_name_H-M "P 4/M M M"
_symmetry_group_IT_number 123
_symmetry_cell_setting 'tetragonal'
loop_
_space_group_symop_operation_xyz
x,y,z
-y,x,z
-x,-y,z
y,-x,z
x,-y,-z
-x,y,-z
y,x,-z
-y,-x,-z
-x,-y,-z
y,-x,-z
x,y,-z
-y,x,-z
-x,y,z
x,-y,z
-y,-x,z
y,x,z
loop_
_atom_site_type_symbol
_atom_site_label
_atom_site_fract_x
_atom_site_fract_y
_atom_site_fract_z
Si Si1 0.218617 0.383516 0.940171
Si Si2 0.617993 0.215017 0.606437
Si Si3 0.285415 0.117628 0.500000
Si Si4 0.715721 0.882645 0.712797
Si Si5 0.787422 0.619409 0.817487
O O1 0.251422 0.500000 0.939816
O O2 0.323602 0.323602 0.940783
O O3 0.162151 0.359912 0.880326
O O4 0.157283 0.359248 0.000000
O O5 0.500000 0.243903 0.603121
O O6 0.679373 0.320628 0.602949
O O7 0.647563 0.141609 0.554952
O O8 0.639819 0.156103 0.664425
O O9 0.180709 0.180709 0.500000
O O10 0.254072 0.000000 0.500000
O O11 0.821839 0.821839 0.710721
O O12 0.658871 0.869626 0.772617
O O13 0.742986 0.000000 0.703306
O O14 0.763999 0.500000 0.807898
O O15 0.681293 0.681293 0.809781
#
# Coordination Sequence:
#
# PCOD8312890 Si02
#       5
#    16  16   8  16  16
#     4   8  13  21  34  54  83 119 155 190 227 267
#     4  10  21  36  54  78 106 135 168 202 237 283
#     4  10  21  36  54  78 106 136 173 214 254 296
#     4  10  21  36  53  73  95 120 155 198 243 292
#     4   9  17  28  43  66  95 126 160 194 229 275
#
# _framework density 17.739749
#
# number of rings (size 3 to 8) (size 9 to 14) (size 15 to 20)
#    0.000    2.667    0.000    1.667    0.000    4.556 
#    0.000    3.333    0.000   10.667    0.000    3.111 
#    0.000    0.000    0.000    8.667    0.000    0.000 
#
# Total GULP energy -892019.533941 kJ/mol
# GULP energy per Si atom -12389.160194 kJ/mol
# Density = 1.769937 g / cm^3
# Si number density = 17.739749 Si / 1000 Ang^3
#
#
#
# Elastic Constant Matrix: (Units=GPa)
#
#
# Indices 1 2 3 4 5 6 
#
# 1 92.9679 35.8873 40.0083 0.0000 0.0000 0.0000
# 2 35.8873 92.9679 40.0083 0.0000 0.0000 0.0000
# 3 40.0083 40.0083 146.0012 0.0000 0.0000 0.0000
# 4 0.0000 0.0000 0.0000 9.1803 0.0000 0.0000
# 5 0.0000 0.0000 0.0000 0.0000 9.1803 0.0000
# 6 0.0000 0.0000 0.0000 0.0000 0.0000 8.2583
#
#
#
# Elastic Compliance Matrix: (Units=1/GPa)
#
#
# Indices 1 2 3 4 5 6 
#
# 1 0.013436 -0.004084 -0.002563 0.000000 0.000000 0.000000
# 2 -0.004084 0.013436 -0.002563 0.000000 0.000000 0.000000
# 3 -0.002563 -0.002563 0.008254 0.000000 0.000000 0.000000
# 4 0.000000 0.000000 0.000000 0.108929 0.000000 0.000000
# 5 0.000000 0.000000 0.000000 0.000000 0.108929 0.000000
# 6 0.000000 0.000000 0.000000 0.000000 0.000000 0.121090
#
#
# Mechanical properties :
#
#
# Convention : Reuss Voigt Hill
#
# Bulk Modulus (GPa) = 59.85516 62.63831 61.24673
# Shear Modulus (GPa) = 12.56094 19.72600 16.14347
#
# Velocity S-wave (km/s) = 2.66384 3.33823 3.01992
# Velocity P-wave (km/s) = 6.57840 7.08834 6.83813
#
# Compressibility (1/GPa) = 0.01670700
#
# Stress axis : x y z
#
# Youngs Moduli (GPa) = 74.42934 74.42934 121.15690
#
# Poissons Ratio (x) = 0.30393 0.31049
# Poissons Ratio (y) = 0.30393 0.31049
# Poissons Ratio (z) = 0.19074 0.19074
#
# Static dielectric constant tensor:
#      x y z
#    x 2.980650 0.000000 0.000000 
#    y 0.000000 2.980650 0.000000 
#    z 0.000000 0.000000 4.046260 
# 
# 
# High freq. dielectric constant tensor:
#      x y z
#    x 1.660150 0.000000 0.000000 
#    y 0.000000 1.660150 0.000000 
#    z 0.000000 0.000000 1.724100 
# 
# From -- ./inp_files/7807.got.cif
#   From: 2010.03.12/outbox.cif.g09.slc.cpg/sg123_4_cif.got.tgz:7807.got - 2010.04.06 16:26:55.
