data_PCOD8312748
_publ_section_title
;
Structure prediction by ZEFSAII (Michael W. Deem and Ramdas Pophale) SiO2 
 PCOD8312748
Probable space group: P 4/M M M
;
_chemical_formula_sum "Si O2"
_cell_formula_units_Z 64
_cell_length_a 13.731991
_cell_length_b 13.731991
_cell_length_c 20.272031
_cell_angle_alpha 90.000000
_cell_angle_beta 90.000000
_cell_angle_gamma 90.000000
_cell_volume 3822.647763
_symmetry_space_group_name_H-M "P 4/M M M"
_symmetry_group_IT_number 123
_symmetry_cell_setting 'tetragonal'
loop_
_space_group_symop_operation_xyz
x,y,z
-y,x,z
-x,-y,z
y,-x,z
x,-y,-z
-x,y,-z
y,x,-z
-y,-x,-z
-x,-y,-z
y,-x,-z
x,y,-z
-y,x,-z
-x,y,z
x,-y,z
-y,-x,z
y,x,z
loop_
_atom_site_type_symbol
_atom_site_label
_atom_site_fract_x
_atom_site_fract_y
_atom_site_fract_z
Si Si1 0.892264 0.615345 0.804132
Si Si2 0.769265 0.388142 0.926072
Si Si3 0.772283 0.614594 0.677694
Si Si4 0.730708 0.111707 0.423763
O O1 0.900335 0.500000 0.802310
O O2 0.848934 0.650496 0.874174
O O3 0.823676 0.650632 0.744840
O O4 0.000000 0.661370 0.796392
O O5 0.743134 0.500000 0.911912
O O6 0.669198 0.330803 0.916497
O O7 0.811690 0.373828 0.000000
O O8 0.751464 0.500000 0.676825
O O9 0.669194 0.669194 0.670976
O O10 0.843359 0.641510 0.617360
O O11 0.701284 0.121058 0.500000
O O12 0.830351 0.169650 0.408287
O O13 0.747906 0.000000 0.403360
#
# Coordination Sequence:
#
# PCOD8312748 Si02
#       4
#    16  16  16  16
#     4   9  17  29  45  64  86 114 148 185 227 274
#     4   9  17  28  42  62  89 120 153 188 225 268
#     4  10  20  33  49  69  94 124 158 195 234 279
#     4   9  18  32  50  73  99 126 158 196 237 281
#
# _framework density 16.742321
#
# number of rings (size 3 to 8) (size 9 to 14) (size 15 to 20)
#    0.000    2.750    0.000    1.500    0.000    3.250 
#    0.000    6.250    0.000    4.500    0.000    3.500 
#    0.000    4.500    0.000   11.000    0.000    1.000 
#
# Total GULP energy -793527.775098 kJ/mol
# GULP energy per Si atom -12398.871486 kJ/mol
# Density = 1.670422 g / cm^3
# Si number density = 16.742321 Si / 1000 Ang^3
#
#
#
# Elastic Constant Matrix: (Units=GPa)
#
#
# Indices 1 2 3 4 5 6 
#
# 1 91.4851 41.3928 49.3703 0.0000 0.0000 0.0000
# 2 41.3928 91.4851 49.3703 0.0000 0.0000 0.0000
# 3 49.3703 49.3703 101.6494 0.0000 0.0000 0.0000
# 4 0.0000 0.0000 0.0000 24.8207 0.0000 0.0000
# 5 0.0000 0.0000 0.0000 0.0000 24.8207 0.0000
# 6 0.0000 0.0000 0.0000 0.0000 0.0000 10.4687
#
#
#
# Elastic Compliance Matrix: (Units=1/GPa)
#
#
# Indices 1 2 3 4 5 6 
#
# 1 0.015869 -0.004094 -0.005719 0.000000 0.000000 0.000000
# 2 -0.004094 0.015869 -0.005719 0.000000 0.000000 0.000000
# 3 -0.005719 -0.005719 0.015393 0.000000 0.000000 0.000000
# 4 0.000000 0.000000 0.000000 0.040289 0.000000 0.000000
# 5 0.000000 0.000000 0.000000 0.000000 0.040289 0.000000
# 6 0.000000 0.000000 0.000000 0.000000 0.000000 0.095523
#
#
# Mechanical properties :
#
#
# Convention : Reuss Voigt Hill
#
# Bulk Modulus (GPa) = 62.23784 62.76517 62.50151
# Shear Modulus (GPa) = 19.25637 21.65441 20.45539
#
# Velocity S-wave (km/s) = 3.39508 3.60028 3.49919
# Velocity P-wave (km/s) = 7.25420 7.40628 7.33064
#
# Compressibility (1/GPa) = 0.01606740
#
# Stress axis : x y z
#
# Youngs Moduli (GPa) = 63.01420 63.01420 64.96276
#
# Poissons Ratio (x) = 0.25796 0.37155
# Poissons Ratio (y) = 0.25796 0.37155
# Poissons Ratio (z) = 0.36040 0.36040
#
# Static dielectric constant tensor:
#      x y z
#    x 3.033380 0.000000 0.000000 
#    y 0.000000 3.033380 0.000000 
#    z 0.000000 0.000000 3.396670 
# 
# 
# High freq. dielectric constant tensor:
#      x y z
#    x 1.628280 0.000000 0.000000 
#    y 0.000000 1.628280 0.000000 
#    z 0.000000 0.000000 1.661030 
# 
# From -- ./inp_files/4933.got.cif
#   From: 2010.03.12/outbox.cif.g09.slc.cpg/sg123_3_cif.got.tgz:4933.got - 2010.04.06 16:26:55.
