data_PCOD8312352
_publ_section_title
;
Structure prediction by ZEFSAII (Michael W. Deem and Ramdas Pophale) SiO2 
 PCOD8312352
Probable space group: P 4/M M M
;
_chemical_formula_sum "Si O2"
_cell_formula_units_Z 88
_cell_length_a 14.008849
_cell_length_b 14.008849
_cell_length_c 28.541369
_cell_angle_alpha 90.000000
_cell_angle_beta 90.000000
_cell_angle_gamma 90.000000
_cell_volume 5601.182311
_symmetry_space_group_name_H-M "P 4/M M M"
_symmetry_group_IT_number 123
_symmetry_cell_setting 'tetragonal'
loop_
_space_group_symop_operation_xyz
x,y,z
-y,x,z
-x,-y,z
y,-x,z
x,-y,-z
-x,y,-z
y,x,-z
-y,-x,-z
-x,-y,-z
y,-x,-z
x,y,-z
-y,x,-z
-x,y,z
x,-y,z
-y,-x,z
y,x,z
loop_
_atom_site_type_symbol
_atom_site_label
_atom_site_fract_x
_atom_site_fract_y
_atom_site_fract_z
Si Si1 0.738629 0.109492 0.552020
Si Si2 0.605823 0.886647 0.632837
Si Si3 0.393229 0.113008 0.736444
Si Si4 0.730080 0.113533 0.000000
Si Si5 0.267937 0.113202 0.177482
Si Si6 0.887397 0.392854 0.911025
O O1 0.692918 0.122222 0.500000
O O2 0.840414 0.159587 0.554782
O O3 0.670127 0.156189 0.591212
O O4 0.758648 0.000000 0.563517
O O5 0.500000 0.844956 0.625908
O O6 0.643563 0.856733 0.684545
O O7 0.603112 0.000000 0.628518
O O8 0.500000 0.154478 0.745557
O O9 0.318544 0.149587 0.774937
O O10 0.399944 0.000000 0.740113
O O11 0.668517 0.146626 0.044631
O O12 0.831129 0.168872 0.000000
O O13 0.752024 0.000000 0.000000
O O14 0.167061 0.167061 0.172257
O O15 0.338320 0.144329 0.135798
O O16 0.246812 0.000000 0.177097
O O17 0.842579 0.500000 0.912065
O O18 0.000000 0.403004 0.912469
#
# Coordination Sequence:
#
# PCOD8312352 Si02
#       6
#    16  16  16   8  16  16
#     4   9  17  27  38  54  78 109 142 171 198 233
#     4   8  14  25  41  59  77  99 130 170 216 257
#     4   8  14  26  43  60  78 102 134 174 215 247
#     4  10  19  30  45  67  96 126 151 173 202 247
#     4  10  19  29  42  62  89 119 147 173 203 245
#     4   9  17  30  47  64  83 110 146 189 228 250
#
# _framework density 15.710969
#
# number of rings (size 3 to 8) (size 9 to 14) (size 15 to 20)
#    0.000    3.091    0.000    2.455    0.000    4.818 
#    0.000    2.727    0.000    3.273    0.000    5.091 
#    0.000   28.000    0.000   10.000    0.000    5.273 
#
# Total GULP energy -1090507.483084 kJ/mol
# GULP energy per Si atom -12392.130490 kJ/mol
# Density = 1.567521 g / cm^3
# Si number density = 15.710969 Si / 1000 Ang^3
#
#
#
# Elastic Constant Matrix: (Units=GPa)
#
#
# Indices 1 2 3 4 5 6 
#
# 1 60.9100 34.6424 46.9539 0.0000 0.0000 0.0000
# 2 34.6424 60.9111 46.9543 0.0000 0.0000 0.0000
# 3 46.9539 46.9543 141.1643 0.0000 0.0000 0.0000
# 4 0.0000 0.0000 0.0000 16.1115 0.0000 0.0000
# 5 0.0000 0.0000 0.0000 0.0000 16.1122 0.0000
# 6 0.0000 0.0000 0.0000 0.0000 0.0000 4.8657
#
#
#
# Elastic Compliance Matrix: (Units=1/GPa)
#
#
# Indices 1 2 3 4 5 6 
#
# 1 0.026809 -0.011260 -0.005172 0.000000 0.000000 0.000000
# 2 -0.011260 0.026808 -0.005172 0.000000 0.000000 0.000000
# 3 -0.005172 -0.005172 0.010524 0.000000 0.000000 0.000000
# 4 0.000000 0.000000 0.000000 0.062067 0.000000 0.000000
# 5 0.000000 0.000000 0.000000 0.000000 0.062065 0.000000
# 6 0.000000 0.000000 0.000000 0.000000 0.000000 0.205519
#
#
# Mechanical properties :
#
#
# Convention : Reuss Voigt Hill
#
# Bulk Modulus (GPa) = 47.76935 57.78741 52.77838
# Shear Modulus (GPa) = 11.26182 16.38019 13.82101
#
# Velocity S-wave (km/s) = 2.68024 3.23243 2.96920
# Velocity P-wave (km/s) = 6.32846 7.12691 6.73952
#
# Compressibility (1/GPa) = 0.02093392
#
# Stress axis : x y z
#
# Youngs Moduli (GPa) = 37.30138 37.30200 95.01832
#
# Poissons Ratio (x) = 0.42004 0.49140
# Poissons Ratio (y) = 0.42003 0.49139
# Poissons Ratio (z) = 0.19291 0.19291
#
# Static dielectric constant tensor:
#      x y z
#    x 2.771020 0.000000 0.000000 
#    y 0.000000 2.771020 0.000000 
#    z 0.000000 0.000000 3.437890 
# 
# 
# High freq. dielectric constant tensor:
#      x y z
#    x 1.567160 0.000000 0.000000 
#    y 0.000000 1.567160 0.000000 
#    z 0.000000 0.000000 1.627620 
# 
# From -- ./inp_files/7960.got.cif
#   From: 2010.03.12/outbox.cif.g09.slc.cpg/sg123_4_cif.got.tgz:7960.got - 2010.04.06 16:26:55.
