data_PCOD8312194
_publ_section_title
;
Structure prediction by ZEFSAII (Michael W. Deem and Ramdas Pophale) SiO2 
 PCOD8312194
Probable space group: P 4/M M M
;
_chemical_formula_sum "Si O2"
_cell_formula_units_Z 72
_cell_length_a 23.092041
_cell_length_b 23.092041
_cell_length_c 9.092840
_cell_angle_alpha 90.000000
_cell_angle_beta 90.000000
_cell_angle_gamma 90.000000
_cell_volume 4848.687438
_symmetry_space_group_name_H-M "P 4/M M M"
_symmetry_group_IT_number 123
_symmetry_cell_setting 'tetragonal'
loop_
_space_group_symop_operation_xyz
x,y,z
-y,x,z
-x,-y,z
y,-x,z
x,-y,-z
-x,y,-z
y,x,-z
-y,-x,-z
-x,-y,-z
y,-x,-z
x,y,-z
-y,x,-z
-x,y,z
x,-y,z
-y,-x,z
y,x,z
loop_
_atom_site_type_symbol
_atom_site_label
_atom_site_fract_x
_atom_site_fract_y
_atom_site_fract_z
Si Si1 0.349520 0.650481 0.673392
Si Si2 0.500000 0.931687 0.162586
Si Si3 0.433534 0.269431 0.172431
Si Si4 0.168082 0.344747 0.166214
Si Si5 0.934349 0.385707 0.327403
Si Si6 0.732521 0.732521 0.165080
O O1 0.357331 0.642670 0.500000
O O2 0.409932 0.673361 0.743163
O O3 0.301480 0.698521 0.709314
O O4 0.555890 0.911549 0.251231
O O5 0.500000 0.000000 0.148820
O O6 0.500000 0.902955 0.000000
O O7 0.500000 0.258175 0.219473
O O8 0.395506 0.212795 0.214809
O O9 0.428215 0.281858 0.000000
O O10 0.111825 0.338748 0.270998
O O11 0.199556 0.282099 0.180981
O O12 0.146663 0.355799 0.000000
O O13 0.930898 0.394052 0.500000
O O14 0.000000 0.369239 0.279987
O O15 0.711998 0.711998 0.000000
#
# Coordination Sequence:
#
# PCOD8312194 Si02
#       6
#     8   8  16  16  16   8
#     4  10  18  28  44  65  87 106 126 160 204 249
#     4   9  17  29  43  55  71 103 145 179 204 237
#     4   9  18  32  48  64  82 106 134 165 204 250
#     4   9  17  29  47  66  83 106 140 175 206 244
#     4  10  20  31  41  58  86 115 140 170 210 248
#     4   8  16  32  48  62  81 107 136 171 211 248
#
# _framework density 14.849380999999999
#
# number of rings (size 3 to 8) (size 9 to 14) (size 15 to 20)
#    0.000    2.778    0.000    3.333    1.556    6.667 
#    0.000    0.000    0.000    0.333    0.000    2.333 
#    0.000    0.000    0.000    0.000    0.000    0.556 
#
# Total GULP energy -892226.904929 kJ/mol
# GULP energy per Si atom -12392.040346 kJ/mol
# Density = 1.481558 g / cm^3
# Si number density = 14.849381 Si / 1000 Ang^3
#
#
#
# Elastic Constant Matrix: (Units=GPa)
#
#
# Indices 1 2 3 4 5 6 
#
# 1 73.8601 40.1417 34.8589 0.0000 0.0000 0.0000
# 2 40.1417 73.8600 34.8590 0.0000 0.0000 0.0000
# 3 34.8589 34.8590 69.4159 0.0000 0.0000 0.0000
# 4 0.0000 0.0000 0.0000 19.6328 0.0000 0.0000
# 5 0.0000 0.0000 0.0000 0.0000 19.6329 0.0000
# 6 0.0000 0.0000 0.0000 0.0000 0.0000 15.6173
#
#
#
# Elastic Compliance Matrix: (Units=1/GPa)
#
#
# Indices 1 2 3 4 5 6 
#
# 1 0.021159 -0.008499 -0.006357 0.000000 0.000000 0.000000
# 2 -0.008499 0.021159 -0.006357 0.000000 0.000000 0.000000
# 3 -0.006357 -0.006357 0.020791 0.000000 0.000000 0.000000
# 4 0.000000 0.000000 0.000000 0.050935 0.000000 0.000000
# 5 0.000000 0.000000 0.000000 0.000000 0.050935 0.000000
# 6 0.000000 0.000000 0.000000 0.000000 0.000000 0.064032
#
#
# Mechanical properties :
#
#
# Convention : Reuss Voigt Hill
#
# Bulk Modulus (GPa) = 48.35405 48.53946 48.44675
# Shear Modulus (GPa) = 17.96426 18.12837 18.04631
#
# Velocity S-wave (km/s) = 3.48194 3.49781 3.48988
# Velocity P-wave (km/s) = 6.98562 7.00512 6.99538
#
# Compressibility (1/GPa) = 0.02068079
#
# Stress axis : x y z
#
# Youngs Moduli (GPa) = 47.26229 47.26215 48.09782
#
# Poissons Ratio (x) = 0.40168 0.30577
# Poissons Ratio (y) = 0.40168 0.30578
# Poissons Ratio (z) = 0.30046 0.30046
#
# Static dielectric constant tensor:
#      x y z
#    x 2.820920 0.000000 0.000000 
#    y 0.000000 2.820920 0.000000 
#    z 0.000000 0.000000 2.845990 
# 
# 
# High freq. dielectric constant tensor:
#      x y z
#    x 1.540140 0.000000 0.000000 
#    y 0.000000 1.540140 0.000000 
#    z 0.000000 0.000000 1.572230 
# 
# From -- ./inp_files/1383.got.cif
#   From: 2010.03.12/outbox.cif.g09.slc.cpg/sg123_1_cif.got.tgz:1383.got - 2010.04.06 16:26:55.
