data_PCOD8312563
_publ_section_title
;
Structure prediction by ZEFSAII (Michael W. Deem and Ramdas Pophale) SiO2 
 PCOD8312563
Probable space group: P 4/M M M
;
_chemical_formula_sum "Si O2"
_cell_formula_units_Z 112
_cell_length_a 18.779715
_cell_length_b 18.779715
_cell_length_c 19.102246
_cell_angle_alpha 90.000000
_cell_angle_beta 90.000000
_cell_angle_gamma 90.000000
_cell_volume 6736.936098
_symmetry_space_group_name_H-M "P 4/M M M"
_symmetry_group_IT_number 123
_symmetry_cell_setting 'tetragonal'
loop_
_space_group_symop_operation_xyz
x,y,z
-y,x,z
-x,-y,z
y,-x,z
x,-y,-z
-x,y,-z
y,x,-z
-y,-x,-z
-x,-y,-z
y,-x,-z
x,y,-z
-y,x,-z
-x,y,z
x,-y,z
-y,-x,z
y,x,z
loop_
_atom_site_type_symbol
_atom_site_label
_atom_site_fract_x
_atom_site_fract_y
_atom_site_fract_z
Si Si1 0.683798 0.917796 0.799979
Si Si2 0.198461 0.081538 0.687004
Si Si3 0.307223 0.579492 0.719343
Si Si4 0.583543 0.851562 0.312897
Si Si5 0.309415 0.193640 0.920640
Si Si6 0.915989 0.682913 0.420640
Si Si7 0.419390 0.306453 0.885214
O O1 0.757191 0.907882 0.758005
O O2 0.618426 0.889977 0.753634
O O3 0.689397 0.875481 0.872242
O O4 0.670045 0.000000 0.818125
O O5 0.127610 0.127610 0.690295
O O6 0.246315 0.106661 0.621326
O O7 0.174681 0.000000 0.677782
O O8 0.329150 0.500000 0.695884
O O9 0.366781 0.633220 0.690322
O O10 0.231934 0.601857 0.687121
O O11 0.300292 0.583488 0.802215
O O12 0.500000 0.866024 0.308476
O O13 0.613323 0.881657 0.385723
O O14 0.246471 0.246471 0.895568
O O15 0.384139 0.235615 0.916849
O O16 0.296843 0.167863 0.000000
O O17 0.888760 0.689859 0.500000
O O18 0.000000 0.672679 0.416317
O O19 0.500000 0.312433 0.912993
O O20 0.376463 0.376463 0.910610
#
# Coordination Sequence:
#
# PCOD8312563 Si02
#       7
#    16  16  16  16  16  16  16
#     4  10  20  33  50  71  95 125 160 199 242 287
#     4   9  18  32  51  74  99 127 157 192 234 283
#     4   9  17  29  47  70  95 124 157 195 238 283
#     4  10  19  31  49  73  98 126 162 201 241 287
#     4  10  20  33  50  70  93 125 162 199 241 289
#     4   9  19  34  49  69  99 132 164 198 238 281
#     4   9  17  30  47  68  94 123 156 194 236 282
#
# _framework density 16.624769000000001
#
# number of rings (size 3 to 8) (size 9 to 14) (size 15 to 20)
#    0.000    2.571    1.429    1.714    0.000    5.000 
#    0.000    2.143    0.000    0.000    0.000    6.000 
#    0.000    0.000    0.000   16.429    0.000    0.143 
#
# Total GULP energy -1388855.377011 kJ/mol
# GULP energy per Si atom -12400.494438 kJ/mol
# Density = 1.658693 g / cm^3
# Si number density = 16.624769 Si / 1000 Ang^3
#
#
#
# Elastic Constant Matrix: (Units=GPa)
#
#
# Indices 1 2 3 4 5 6 
#
# 1 99.4046 68.1618 43.4681 0.0000 0.0000 0.0000
# 2 68.1618 99.4046 43.4681 0.0000 0.0000 0.0000
# 3 43.4681 43.4681 81.9258 0.0000 0.0000 0.0000
# 4 0.0000 0.0000 0.0000 16.9644 0.0000 0.0000
# 5 0.0000 0.0000 0.0000 0.0000 16.9644 0.0000
# 6 0.0000 0.0000 0.0000 0.0000 0.0000 29.2009
#
#
#
# Elastic Compliance Matrix: (Units=1/GPa)
#
#
# Indices 1 2 3 4 5 6 
#
# 1 0.020121 -0.011886 -0.004369 0.000000 0.000000 0.000000
# 2 -0.011886 0.020121 -0.004369 0.000000 0.000000 0.000000
# 3 -0.004369 -0.004369 0.016842 0.000000 0.000000 0.000000
# 4 0.000000 0.000000 0.000000 0.058947 0.000000 0.000000
# 5 0.000000 0.000000 0.000000 0.000000 0.058947 0.000000
# 6 0.000000 0.000000 0.000000 0.000000 0.000000 0.034246
#
#
# Mechanical properties :
#
#
# Convention : Reuss Voigt Hill
#
# Bulk Modulus (GPa) = 63.15037 65.65902 64.40469
# Shear Modulus (GPa) = 19.55023 21.00173 20.27598
#
# Velocity S-wave (km/s) = 3.43296 3.55812 3.49610
# Velocity P-wave (km/s) = 7.33361 7.51404 7.42437
#
# Compressibility (1/GPa) = 0.01583522
#
# Stress axis : x y z
#
# Youngs Moduli (GPa) = 49.69938 49.69938 59.37386
#
# Poissons Ratio (x) = 0.59075 0.25941
# Poissons Ratio (y) = 0.59075 0.25941
# Poissons Ratio (z) = 0.21714 0.21714
#
# Static dielectric constant tensor:
#      x y z
#    x 3.128060 0.000000 0.000000 
#    y 0.000000 3.128060 0.000000 
#    z 0.000000 0.000000 3.061360 
# 
# 
# High freq. dielectric constant tensor:
#      x y z
#    x 1.638460 0.000000 0.000000 
#    y 0.000000 1.638460 0.000000 
#    z 0.000000 0.000000 1.625670 
# 
# From -- ./inp_files/6655.got.cif
#   From: 2010.03.12/outbox.cif.g09.slc.cpg/sg123_4_cif.got.tgz:6655.got - 2010.04.06 16:26:55.
