data_PCOD8312834
_publ_section_title
;
Structure prediction by ZEFSAII (Michael W. Deem and Ramdas Pophale) SiO2 
 PCOD8312834
Probable space group: P 4/M M M
;
_chemical_formula_sum "Si O2"
_cell_formula_units_Z 120
_cell_length_a 17.969715
_cell_length_b 17.969715
_cell_length_c 19.592164
_cell_angle_alpha 90.000000
_cell_angle_beta 90.000000
_cell_angle_gamma 90.000000
_cell_volume 6326.518553
_symmetry_space_group_name_H-M "P 4/M M M"
_symmetry_group_IT_number 123
_symmetry_cell_setting 'tetragonal'
loop_
_space_group_symop_operation_xyz
x,y,z
-y,x,z
-x,-y,z
y,-x,z
x,-y,-z
-x,y,-z
y,x,-z
-y,-x,-z
-x,-y,-z
y,-x,-z
x,y,-z
-y,x,-z
-x,y,z
x,-y,z
-y,-x,z
y,x,z
loop_
_atom_site_type_symbol
_atom_site_label
_atom_site_fract_x
_atom_site_fract_y
_atom_site_fract_z
Si Si1 0.205820 0.084953 0.203646
Si Si2 0.916317 0.297086 0.923390
Si Si3 0.708719 0.412960 0.211764
Si Si4 0.153997 0.345451 0.577182
Si Si5 0.792842 0.415470 0.922913
Si Si6 0.420395 0.305089 0.577699
Si Si7 0.419098 0.000000 0.580012
Si Si8 0.696172 0.186677 0.719819
O O1 0.133729 0.133729 0.223167
O O2 0.224908 0.095127 0.123891
O O3 0.281007 0.109055 0.244625
O O4 0.187277 0.000000 0.222664
O O5 0.861606 0.363511 0.902650
O O6 0.000000 0.328421 0.915234
O O7 0.900483 0.269572 0.000000
O O8 0.695719 0.500000 0.228977
O O9 0.633468 0.366533 0.227863
O O10 0.727369 0.401636 0.131625
O O11 0.778861 0.384401 0.258861
O O12 0.151521 0.309698 0.500000
O O13 0.216548 0.408976 0.579217
O O14 0.074367 0.376202 0.601016
O O15 0.177147 0.290381 0.638079
O O16 0.821689 0.500000 0.917818
O O17 0.763566 0.398444 0.000000
O O18 0.424703 0.330873 0.500000
O O19 0.500000 0.322452 0.613680
O O20 0.353244 0.353244 0.613215
O O21 0.500000 0.000000 0.615879
O O22 0.430349 0.000000 0.500000
O O23 0.754506 0.245494 0.749438
#
# Coordination Sequence:
#
# PCOD8312834 Si02
#       8
#    16  16  16  16  16  16   8  16
#     4  10  21  37  57  81 111 145 180 220 265 317
#     4   9  17  30  51  80 114 150 186 222 261 313
#     4  10  21  37  55  78 109 144 186 232 279 329
#     4  10  20  34  54  77 104 137 172 215 266 323
#     4   9  17  30  50  76 107 145 188 232 276 322
#     4   9  17  29  46  69  97 129 166 208 253 304
#     4   9  18  32  50  74 102 132 166 206 254 313
#     4  10  21  37  57  79 106 139 175 222 272 320
#
# _framework density 18.967777999999999
#
# number of rings (size 3 to 8) (size 9 to 14) (size 15 to 20)
#    0.000    2.467    1.333    0.800    0.933    4.667 
#    0.000    3.333    0.000    0.000    0.000    5.600 
#    0.000    0.000    0.000    2.933    0.000    0.000 
#
# Total GULP energy -1486567.127921 kJ/mol
# GULP energy per Si atom -12388.059399 kJ/mol
# Density = 1.892461 g / cm^3
# Si number density = 18.967778 Si / 1000 Ang^3
#
#
#
# Elastic Constant Matrix: (Units=GPa)
#
#
# Indices 1 2 3 4 5 6 
#
# 1 103.3603 56.7594 24.1422 0.0000 0.0000 0.0000
# 2 56.7594 103.3603 24.1422 0.0000 0.0000 0.0000
# 3 24.1422 24.1422 91.2016 0.0000 0.0000 0.0000
# 4 0.0000 0.0000 0.0000 14.7561 0.0000 0.0000
# 5 0.0000 0.0000 0.0000 0.0000 14.7561 0.0000
# 6 0.0000 0.0000 0.0000 0.0000 0.0000 27.0556
#
#
#
# Elastic Compliance Matrix: (Units=1/GPa)
#
#
# Indices 1 2 3 4 5 6 
#
# 1 0.014123 -0.007336 -0.001797 0.000000 0.000000 0.000000
# 2 -0.007336 0.014123 -0.001797 0.000000 0.000000 0.000000
# 3 -0.001797 -0.001797 0.011916 0.000000 0.000000 0.000000
# 4 0.000000 0.000000 0.000000 0.067769 0.000000 0.000000
# 5 0.000000 0.000000 0.000000 0.000000 0.067769 0.000000
# 6 0.000000 0.000000 0.000000 0.000000 0.000000 0.036961
#
#
# Mechanical properties :
#
#
# Convention : Reuss Voigt Hill
#
# Bulk Modulus (GPa) = 54.63409 56.44552 55.53981
# Shear Modulus (GPa) = 20.77970 24.17212 22.47591
#
# Velocity S-wave (km/s) = 3.31346 3.57372 3.44605
# Velocity P-wave (km/s) = 6.59582 6.84484 6.72149
#
# Compressibility (1/GPa) = 0.01830359
#
# Stress axis : x y z
#
# Youngs Moduli (GPa) = 70.80671 70.80671 83.92143
#
# Poissons Ratio (x) = 0.51943 0.15078
# Poissons Ratio (y) = 0.51943 0.15078
# Poissons Ratio (z) = 0.12721 0.12721
#
# Static dielectric constant tensor:
#      x y z
#    x 3.486070 0.000000 0.000000 
#    y 0.000000 3.486070 0.000000 
#    z 0.000000 0.000000 3.562100 
# 
# 
# High freq. dielectric constant tensor:
#      x y z
#    x 1.721410 0.000000 0.000000 
#    y 0.000000 1.721410 0.000000 
#    z 0.000000 0.000000 1.739420 
# 
# From -- ./inp_files/6840.got.cif
#   From: 2010.03.12/outbox.cif.g09.slc.cpg/sg123_4_cif.got.tgz:6840.got - 2010.04.06 16:26:55.
