data_PCOD8312678
_publ_section_title
;
Structure prediction by ZEFSAII (Michael W. Deem and Ramdas Pophale) SiO2 
 PCOD8312678
Probable space group: P 4/M M M
;
_chemical_formula_sum "Si O2"
_cell_formula_units_Z 96
_cell_length_a 13.945008
_cell_length_b 13.945008
_cell_length_c 30.536754
_cell_angle_alpha 90.000000
_cell_angle_beta 90.000000
_cell_angle_gamma 90.000000
_cell_volume 5938.276370
_symmetry_space_group_name_H-M "P 4/M M M"
_symmetry_group_IT_number 123
_symmetry_cell_setting 'tetragonal'
loop_
_space_group_symop_operation_xyz
x,y,z
-y,x,z
-x,-y,z
y,-x,z
x,-y,-z
-x,y,-z
y,x,-z
-y,-x,-z
-x,-y,-z
y,-x,-z
x,y,-z
-y,x,-z
-x,y,z
x,-y,z
-y,-x,z
y,x,z
loop_
_atom_site_type_symbol
_atom_site_label
_atom_site_fract_x
_atom_site_fract_y
_atom_site_fract_z
Si Si1 0.386043 0.105604 0.127460
Si Si2 0.237159 0.390730 0.204935
Si Si3 0.235363 0.610084 0.950948
Si Si4 0.388621 0.231940 0.304762
Si Si5 0.113967 0.730531 0.370196
Si Si6 0.113646 0.393241 0.548556
O O1 0.500000 0.098937 0.127245
O O2 0.349893 0.157938 0.171510
O O3 0.349451 0.158781 0.083752
O O4 0.340111 0.000000 0.127400
O O5 0.261199 0.500000 0.193853
O O6 0.335822 0.335822 0.197608
O O7 0.199232 0.378515 0.254372
O O8 0.259526 0.500000 0.941116
O O9 0.334600 0.665401 0.945154
O O10 0.193111 0.623677 0.000000
O O11 0.500000 0.248145 0.317469
O O12 0.331112 0.331112 0.313755
O O13 0.343232 0.145019 0.332291
O O14 0.167410 0.832590 0.364906
O O15 0.148754 0.683883 0.416006
O O16 0.000000 0.747956 0.367829
O O17 0.148767 0.361690 0.500000
O O18 0.153810 0.500000 0.559518
O O19 0.000000 0.397791 0.549737
#
# Coordination Sequence:
#
# PCOD8312678 Si02
#       6
#    16  16  16  16  16  16
#     4   9  17  28  41  58  82 113 147 179 209 242
#     4   9  17  29  45  66  92 118 143 173 210 256
#     4   9  17  28  42  61  85 112 141 174 213 260
#     4   9  18  31  47  69  94 119 149 184 224 273
#     4  10  20  32  46  65  90 121 158 199 238 275
#     4   8  14  26  45  67  88 111 142 181 225 272
#
# _framework density 16.166305999999999
#
# number of rings (size 3 to 8) (size 9 to 14) (size 15 to 20)
#    0.000    3.000    0.000    1.500    0.000    3.000 
#    0.000    5.833    0.000    3.000    0.000    2.333 
#    0.000    5.333    0.000   22.833    0.000    1.667 
#
# Total GULP energy -1189952.925948 kJ/mol
# GULP energy per Si atom -12395.342979 kJ/mol
# Density = 1.612951 g / cm^3
# Si number density = 16.166306 Si / 1000 Ang^3
#
#
#
# Elastic Constant Matrix: (Units=GPa)
#
#
# Indices 1 2 3 4 5 6 
#
# 1 83.0339 39.9362 53.0649 0.0000 0.0000 0.0000
# 2 39.9362 83.0339 53.0649 0.0000 0.0000 0.0000
# 3 53.0649 53.0649 115.2357 0.0000 0.0000 0.0000
# 4 0.0000 0.0000 0.0000 23.7043 0.0000 0.0000
# 5 0.0000 0.0000 0.0000 0.0000 23.7043 0.0000
# 6 0.0000 0.0000 0.0000 0.0000 0.0000 10.9838
#
#
#
# Elastic Compliance Matrix: (Units=1/GPa)
#
#
# Indices 1 2 3 4 5 6 
#
# 1 0.018349 -0.004854 -0.006215 0.000000 0.000000 0.000000
# 2 -0.004854 0.018349 -0.006215 0.000000 0.000000 0.000000
# 3 -0.006215 -0.006215 0.014401 0.000000 0.000000 0.000000
# 4 0.000000 0.000000 0.000000 0.042186 0.000000 0.000000
# 5 0.000000 0.000000 0.000000 0.000000 0.042186 0.000000
# 6 0.000000 0.000000 0.000000 0.000000 0.000000 0.091044
#
#
# Mechanical properties :
#
#
# Convention : Reuss Voigt Hill
#
# Bulk Modulus (GPa) = 60.48072 63.71507 62.09789
# Shear Modulus (GPa) = 18.75514 20.69431 19.72472
#
# Velocity S-wave (km/s) = 3.40977 3.58171 3.49680
# Velocity P-wave (km/s) = 7.27976 7.52348 7.40262
#
# Compressibility (1/GPa) = 0.01653420
#
# Stress axis : x y z
#
# Youngs Moduli (GPa) = 54.49791 54.49791 69.43784
#
# Poissons Ratio (x) = 0.26452 0.43153
# Poissons Ratio (y) = 0.26452 0.43153
# Poissons Ratio (z) = 0.33868 0.33868
#
# Static dielectric constant tensor:
#      x y z
#    x 2.907660 0.000000 0.000000 
#    y 0.000000 2.907660 0.000000 
#    z 0.000000 0.000000 3.397680 
# 
# 
# High freq. dielectric constant tensor:
#      x y z
#    x 1.597050 0.000000 0.000000 
#    y 0.000000 1.597050 0.000000 
#    z 0.000000 0.000000 1.640010 
# 
# From -- ./inp_files/8608.got.cif
#   From: 2010.03.12/outbox.cif.g09.slc.cpg/sg123_5_cif.got.tgz:8608.got - 2010.04.06 16:26:55.
