data_PCOD8312891
_publ_section_title
;
Structure prediction by ZEFSAII (Michael W. Deem and Ramdas Pophale) SiO2 
 PCOD8312891
Probable space group: P 4/M M M
;
_chemical_formula_sum "Si O2"
_cell_formula_units_Z 72
_cell_length_a 13.281139
_cell_length_b 13.281139
_cell_length_c 23.165951
_cell_angle_alpha 90.000000
_cell_angle_beta 90.000000
_cell_angle_gamma 90.000000
_cell_volume 4086.210896
_symmetry_space_group_name_H-M "P 4/M M M"
_symmetry_group_IT_number 123
_symmetry_cell_setting 'tetragonal'
loop_
_space_group_symop_operation_xyz
x,y,z
-y,x,z
-x,-y,z
y,-x,z
x,-y,-z
-x,y,-z
y,x,-z
-y,-x,-z
-x,-y,-z
y,-x,-z
x,y,-z
-y,x,-z
-x,y,z
x,-y,z
-y,-x,z
y,x,z
loop_
_atom_site_type_symbol
_atom_site_label
_atom_site_fract_x
_atom_site_fract_y
_atom_site_fract_z
Si Si1 0.718529 0.116035 0.271174
Si Si2 0.216440 0.617744 0.625293
Si Si3 0.616331 0.780972 0.833901
Si Si4 0.774040 0.386475 0.500000
Si Si5 0.277950 0.884483 0.934108
O O1 0.821927 0.178074 0.270565
O O2 0.656348 0.133806 0.329815
O O3 0.648418 0.145909 0.217738
O O4 0.748136 0.000000 0.266486
O O5 0.239537 0.500000 0.635737
O O6 0.320636 0.679364 0.633982
O O7 0.168671 0.637130 0.560639
O O8 0.500000 0.753600 0.828466
O O9 0.676527 0.676527 0.830779
O O10 0.635257 0.838102 0.894191
O O11 0.739355 0.500000 0.500000
O O12 0.669433 0.330568 0.500000
O O13 0.172927 0.827074 0.922866
O O14 0.258378 0.000000 0.917954
O O15 0.314336 0.872148 0.000000
#
# Coordination Sequence:
#
# PCOD8312891 Si02
#       5
#    16  16  16   8  16
#     4  10  21  36  53  73  96 123 157 197 241 288
#     4   9  17  29  46  70  99 130 163 197 235 281
#     4  10  21  36  53  74 100 129 162 199 238 283
#     4   8  14  25  41  63  94 128 160 196 235 276
#     4   9  18  32  50  74 103 133 166 204 245 289
#
# _framework density 17.620235999999998
#
# number of rings (size 3 to 8) (size 9 to 14) (size 15 to 20)
#    0.000    2.667    0.000    1.333    0.000    4.556 
#    0.000    5.000    0.000   10.000    0.000    3.111 
#    0.000    4.444    0.000    0.000    0.000    0.000 
#
# Total GULP energy -892449.054072 kJ/mol
# GULP energy per Si atom -12395.125751 kJ/mol
# Density = 1.758013 g / cm^3
# Si number density = 17.620236 Si / 1000 Ang^3
#
#
#
# Elastic Constant Matrix: (Units=GPa)
#
#
# Indices 1 2 3 4 5 6 
#
# 1 109.4068 41.6990 53.2359 0.0000 0.0000 0.0000
# 2 41.6990 109.4064 53.2358 0.0000 0.0000 0.0000
# 3 53.2359 53.2358 125.7851 0.0000 0.0000 0.0000
# 4 0.0000 0.0000 0.0000 21.4886 0.0000 0.0000
# 5 0.0000 0.0000 0.0000 0.0000 21.4887 0.0000
# 6 0.0000 0.0000 0.0000 0.0000 0.0000 9.6857
#
#
#
# Elastic Compliance Matrix: (Units=1/GPa)
#
#
# Indices 1 2 3 4 5 6 
#
# 1 0.012100 -0.002670 -0.003991 0.000000 0.000000 0.000000
# 2 -0.002670 0.012100 -0.003991 0.000000 0.000000 0.000000
# 3 -0.003991 -0.003991 0.011328 0.000000 0.000000 0.000000
# 4 0.000000 0.000000 0.000000 0.046536 0.000000 0.000000
# 5 0.000000 0.000000 0.000000 0.000000 0.046536 0.000000
# 6 0.000000 0.000000 0.000000 0.000000 0.000000 0.103245
#
#
# Mechanical properties :
#
#
# Convention : Reuss Voigt Hill
#
# Bulk Modulus (GPa) = 70.30281 71.21552 70.75917
# Shear Modulus (GPa) = 19.38812 23.62779 21.50796
#
# Velocity S-wave (km/s) = 3.32073 3.66587 3.49756
# Velocity P-wave (km/s) = 7.39517 7.64348 7.52035
#
# Compressibility (1/GPa) = 0.01422418
#
# Stress axis : x y z
#
# Youngs Moduli (GPa) = 82.64662 82.64635 88.27422
#
# Poissons Ratio (x) = 0.22064 0.35231
# Poissons Ratio (y) = 0.22064 0.35231
# Poissons Ratio (z) = 0.32985 0.32985
#
# Static dielectric constant tensor:
#      x y z
#    x 3.050110 0.000000 0.000000 
#    y 0.000000 3.050110 0.000000 
#    z 0.000000 0.000000 3.781440 
# 
# 
# High freq. dielectric constant tensor:
#      x y z
#    x 1.663830 0.000000 0.000000 
#    y 0.000000 1.663830 0.000000 
#    z 0.000000 0.000000 1.708600 
# 
# From -- ./inp_files/7842.got.cif
#   From: 2010.03.12/outbox.cif.g09.slc.cpg/sg123_4_cif.got.tgz:7842.got - 2010.04.06 16:26:55.
