data_PCOD8312248
_publ_section_title
;
Structure prediction by ZEFSAII (Michael W. Deem and Ramdas Pophale) SiO2 
 PCOD8312248
Probable space group: P 4/M M M
;
_chemical_formula_sum "Si O2"
_cell_formula_units_Z 128
_cell_length_a 20.250901
_cell_length_b 20.250901
_cell_length_c 19.361170
_cell_angle_alpha 90.000000
_cell_angle_beta 90.000000
_cell_angle_gamma 90.000000
_cell_volume 7939.996288
_symmetry_space_group_name_H-M "P 4/M M M"
_symmetry_group_IT_number 123
_symmetry_cell_setting 'tetragonal'
loop_
_space_group_symop_operation_xyz
x,y,z
-y,x,z
-x,-y,z
y,-x,z
x,-y,-z
-x,y,-z
y,x,-z
-y,-x,-z
-x,-y,-z
y,-x,-z
x,y,-z
-y,x,-z
-x,y,z
x,-y,z
-y,-x,z
y,x,z
loop_
_atom_site_type_symbol
_atom_site_label
_atom_site_fract_x
_atom_site_fract_y
_atom_site_fract_z
Si Si1 0.294735 0.814887 0.576826
Si Si2 0.925784 0.307293 0.920621
Si Si3 0.922964 0.813773 0.828267
Si Si4 0.172949 0.423149 0.920597
Si Si5 0.744290 0.427411 0.576135
Si Si6 0.850703 0.742465 0.280167
Si Si7 0.657105 0.235959 0.805554
Si Si8 0.573230 0.325696 0.712059
O O1 0.283460 0.846726 0.500000
O O2 0.252454 0.747547 0.582416
O O3 0.371558 0.799116 0.588385
O O4 0.276359 0.865489 0.639440
O O5 0.897088 0.243823 0.879783
O O6 0.890803 0.377319 0.907593
O O7 0.000000 0.318985 0.895308
O O8 0.921223 0.286646 0.000000
O O9 0.879653 0.879653 0.841384
O O10 0.911395 0.785271 0.750570
O O11 0.000000 0.831635 0.838600
O O12 0.157776 0.500000 0.901930
O O13 0.228078 0.391817 0.870896
O O14 0.196921 0.417989 0.000000
O O15 0.713151 0.418323 0.500000
O O16 0.778538 0.500000 0.583394
O O17 0.684491 0.422910 0.629893
O O18 0.783861 0.783861 0.279675
O O19 0.833735 0.681574 0.228092
O O20 0.717581 0.282420 0.830264
O O21 0.615678 0.267959 0.744748
O O22 0.500000 0.323555 0.742300
O O23 0.602988 0.397013 0.730292
#
# Coordination Sequence:
#
# PCOD8312248 Si02
#       8
#    16  16  16  16  16  16  16  16
#     4   9  15  24  41  63  88 117 150 192 239 283
#     4   9  18  32  49  70  97 131 167 198 234 281
#     4  10  20  34  53  76 103 135 166 200 239 282
#     4  10  20  32  47  69  96 125 159 200 245 292
#     4   9  16  24  35  55  84 115 148 187 234 287
#     4   9  16  28  46  69  94 120 153 194 238 283
#     4  10  18  30  46  65  89 116 151 196 247 297
#     4  10  19  29  41  56  78 112 151 193 241 290
#
# _framework density 16.120915
#
# number of rings (size 3 to 8) (size 9 to 14) (size 15 to 20)
#    0.000    2.500    2.500    0.750    0.000    1.750 
#    0.000    2.500    0.000    0.375    0.000    3.500 
#    0.000    0.000    0.000   19.625    0.000    0.125 
#
# Total GULP energy -1585727.136439 kJ/mol
# GULP energy per Si atom -12388.493253 kJ/mol
# Density = 1.608422 g / cm^3
# Si number density = 16.120915 Si / 1000 Ang^3
#
#
#
# Elastic Constant Matrix: (Units=GPa)
#
#
# Indices 1 2 3 4 5 6 
#
# 1 67.4802 34.0715 33.6311 0.0000 0.0000 0.0000
# 2 34.0715 67.4802 33.6311 0.0000 0.0000 0.0000
# 3 33.6311 33.6311 87.1544 0.0000 0.0000 0.0000
# 4 0.0000 0.0000 0.0000 19.2785 0.0000 0.0000
# 5 0.0000 0.0000 0.0000 0.0000 19.2785 0.0000
# 6 0.0000 0.0000 0.0000 0.0000 0.0000 15.6210
#
#
#
# Elastic Compliance Matrix: (Units=1/GPa)
#
#
# Indices 1 2 3 4 5 6 
#
# 1 0.021580 -0.008352 -0.005104 0.000000 0.000000 0.000000
# 2 -0.008352 0.021580 -0.005104 0.000000 0.000000 0.000000
# 3 -0.005104 -0.005104 0.015413 0.000000 0.000000 0.000000
# 4 0.000000 0.000000 0.000000 0.051871 0.000000 0.000000
# 5 0.000000 0.000000 0.000000 0.000000 0.051871 0.000000
# 6 0.000000 0.000000 0.000000 0.000000 0.000000 0.064017
#
#
# Mechanical properties :
#
#
# Convention : Reuss Voigt Hill
#
# Bulk Modulus (GPa) = 46.61640 47.19806 46.90723
# Shear Modulus (GPa) = 18.47709 18.88767 18.68238
#
# Velocity S-wave (km/s) = 3.38917 3.42661 3.40794
# Velocity P-wave (km/s) = 6.65543 6.70796 6.68174
#
# Compressibility (1/GPa) = 0.02145168
#
# Stress axis : x y z
#
# Youngs Moduli (GPa) = 46.33873 46.33873 64.87899
#
# Poissons Ratio (x) = 0.38703 0.33117
# Poissons Ratio (y) = 0.38703 0.33117
# Poissons Ratio (z) = 0.23653 0.23653
#
# Static dielectric constant tensor:
#      x y z
#    x 2.890980 0.000000 0.000000 
#    y 0.000000 2.890980 0.000000 
#    z 0.000000 0.000000 3.284150 
# 
# 
# High freq. dielectric constant tensor:
#      x y z
#    x 1.595380 0.000000 0.000000 
#    y 0.000000 1.595380 0.000000 
#    z 0.000000 0.000000 1.630330 
# 
# From -- ./inp_files/5984.got.cif
#   From: 2010.03.12/outbox.cif.g09.slc.cpg/sg123_3_cif.got.tgz:5984.got - 2010.04.06 16:26:55.
