data_PCOD8312089
_publ_section_title
;
Structure prediction by ZEFSAII (Michael W. Deem and Ramdas Pophale) SiO2 
 PCOD8312089
Probable space group: I -4 2 D
;
_chemical_formula_sum "Si O2"
_cell_formula_units_Z 72
_cell_length_a 18.797793
_cell_length_b 18.797793
_cell_length_c 10.028041
_cell_angle_alpha 90.000000
_cell_angle_beta 90.000000
_cell_angle_gamma 90.000000
_cell_volume 3543.478701
_symmetry_space_group_name_H-M "I -4 2 D"
_symmetry_group_IT_number 122
_symmetry_cell_setting 'tetragonal'
loop_
_space_group_symop_operation_xyz
x,y,z
y,-x,-z
-x,-y,z
-y,x,-z
x,1/2-y,1/4-z
-x,1/2+y,1/4-z
-y,1/2-x,1/4+z
y,1/2+x,1/4+z
1/2+x,1/2+y,1/2+z
1/2+y,1/2-x,1/2-z
1/2-x,1/2-y,1/2+z
1/2-y,1/2+x,1/2-z
1/2+x,-y,3/4-z
1/2-x,y,3/4-z
1/2-y,-x,3/4+z
1/2+y,x,3/4+z
loop_
_atom_site_type_symbol
_atom_site_label
_atom_site_fract_x
_atom_site_fract_y
_atom_site_fract_z
Si Si1 0.750000 0.930770 0.875000
Si Si2 0.535079 0.762950 0.381787
Si Si3 0.610950 0.607901 0.753917
Si Si4 0.600456 0.616107 0.439669
Si Si5 0.500000 0.500000 0.314185
Si Si6 0.043112 0.750000 0.625000
O O1 0.680174 0.883196 0.865163
O O2 0.761854 0.975968 0.743744
O O3 0.594568 0.820393 0.416454
O O4 0.564227 0.683084 0.369794
O O5 0.504483 0.786538 0.238910
O O6 0.605712 0.624475 0.597662
O O7 0.554062 0.544269 0.780950
O O8 0.689947 0.589089 0.800849
O O9 0.556708 0.544260 0.405032
#
# Coordination Sequence:
#
# PCOD8312089 Si02
#       6
#     8  16  16  16   8   8
#     4  12  22  41  76 103 136 184 250 296 350 429
#     4  12  25  45  69 105 147 186 240 305 358 427
#     4  12  24  42  71 104 147 187 239 301 367 421
#     4  12  22  42  75 108 134 193 251 295 347 439
#     4  12  21  40  81 108 129 194 265 294 337 428
#     4  12  28  45  64 107 154 184 232 314 368 421
#
# _framework density 20.319016999999999
#
# number of rings (size 3 to 8) (size 9 to 14) (size 15 to 20)
#    0.000    0.000    8.889    2.000    0.000    4.444 
#    0.000    0.000    0.000    0.000    0.000    0.000 
#    0.000    0.000    0.000    0.000    0.000    0.000 
#
# Total GULP energy -446427.926720 kJ/mol
# GULP energy per Si atom -12400.775742 kJ/mol
# Density = 2.027277 g / cm^3
# Si number density = 20.319017 Si / 1000 Ang^3
#
#
#
# Elastic Constant Matrix: (Units=GPa)
#
#
# Indices 1 2 3 4 5 6 
#
# 1 94.0282 13.6104 26.3579 0.0000 0.0000 0.0000
# 2 13.6104 94.0282 26.3579 0.0000 0.0000 0.0000
# 3 26.3579 26.3579 98.0562 0.0000 0.0000 0.0000
# 4 0.0000 0.0000 0.0000 42.5279 0.0000 0.0000
# 5 0.0000 0.0000 0.0000 0.0000 42.5279 0.0000
# 6 0.0000 0.0000 0.0000 0.0000 0.0000 40.9818
#
#
#
# Elastic Compliance Matrix: (Units=1/GPa)
#
#
# Indices 1 2 3 4 5 6 
#
# 1 0.011567 -0.000868 -0.002876 0.000000 0.000000 0.000000
# 2 -0.000868 0.011567 -0.002876 0.000000 0.000000 0.000000
# 3 -0.002876 -0.002876 0.011744 0.000000 0.000000 0.000000
# 4 0.000000 0.000000 0.000000 0.023514 0.000000 0.000000
# 5 0.000000 0.000000 0.000000 0.000000 0.023514 0.000000
# 6 0.000000 0.000000 0.000000 0.000000 0.000000 0.024401
#
#
# Mechanical properties :
#
#
# Convention : Reuss Voigt Hill
#
# Bulk Modulus (GPa) = 46.21409 46.52943 46.37176
# Shear Modulus (GPa) = 39.44466 39.85992 39.65229
#
# Velocity S-wave (km/s) = 4.41076 4.43392 4.42236
# Velocity P-wave (km/s) = 6.98093 7.01156 6.99626
#
# Compressibility (1/GPa) = 0.02163842
#
# Stress axis : x y z
#
# Youngs Moduli (GPa) = 86.45332 86.45332 85.14748
#
# Poissons Ratio (x) = 0.07505 0.24487
# Poissons Ratio (y) = 0.07505 0.24487
# Poissons Ratio (z) = 0.24863 0.24863
#
# Static dielectric constant tensor:
#      x y z
#    x 2.294610 0.000000 0.000000 
#    y 0.000000 2.294610 0.000000 
#    z 0.000000 0.000000 4.190950 
# 
# 
# High freq. dielectric constant tensor:
#      x y z
#    x 1.799150 0.000000 0.000000 
#    y 0.000000 1.799150 0.000000 
#    z 0.000000 0.000000 1.788430 
# 
# From -- ./inp_files/2685.got.cif
#   From: 2010.03.12/outbox.cif.g09.slc.cpg/sg122_2_cif.got.tgz:2685.got - 2010.04.06 16:17:16.
