data_PCOD8312995
_publ_section_title
;
Structure prediction by ZEFSAII (Michael W. Deem and Ramdas Pophale) SiO2 
 PCOD8312995
Probable space group: P 4/M M M
;
_chemical_formula_sum "Si O2"
_cell_formula_units_Z 104
_cell_length_a 14.347677
_cell_length_b 14.347677
_cell_length_c 32.808323
_cell_angle_alpha 90.000000
_cell_angle_beta 90.000000
_cell_angle_gamma 90.000000
_cell_volume 6753.784736
_symmetry_space_group_name_H-M "P 4/M M M"
_symmetry_group_IT_number 123
_symmetry_cell_setting 'tetragonal'
loop_
_space_group_symop_operation_xyz
x,y,z
-y,x,z
-x,-y,z
y,-x,z
x,-y,-z
-x,y,-z
y,x,-z
-y,-x,-z
-x,-y,-z
y,-x,-z
x,y,-z
-y,x,-z
-x,y,z
x,-y,z
-y,-x,z
y,x,z
loop_
_atom_site_type_symbol
_atom_site_label
_atom_site_fract_x
_atom_site_fract_y
_atom_site_fract_z
Si Si1 0.105057 0.254530 0.500000
Si Si2 0.745470 0.106201 0.186925
Si Si3 0.108919 0.260372 0.588147
Si Si4 0.396330 0.889493 0.657000
Si Si5 0.110612 0.603470 0.747256
Si Si6 0.891706 0.739149 0.093628
Si Si7 0.606988 0.757575 0.047973
O O1 0.158994 0.158994 0.500000
O O2 0.125521 0.308036 0.542966
O O3 0.000000 0.221170 0.500000
O O4 0.842948 0.157053 0.193147
O O5 0.669848 0.151452 0.217535
O O6 0.709416 0.116751 0.140795
O O7 0.765121 0.000000 0.198496
O O8 0.162574 0.162574 0.591561
O O9 0.151351 0.329617 0.622023
O O10 0.000000 0.240348 0.595997
O O11 0.500000 0.848870 0.650225
O O12 0.359959 0.860771 0.702137
O O13 0.399948 0.000000 0.653258
O O14 0.151687 0.500000 0.754097
O O15 0.000000 0.599320 0.751000
O O16 0.835177 0.835177 0.084881
O O17 0.848156 0.653846 0.068338
O O18 0.000000 0.754317 0.081190
O O19 0.500000 0.746626 0.062843
O O20 0.664066 0.664066 0.060229
O O21 0.610979 0.773968 0.000000
#
# Coordination Sequence:
#
# PCOD8312995 Si02
#       7
#     8  16  16  16  16  16  16
#     4   8  14  23  33  47  69  97 128 158 187 223
#     4   9  17  28  42  61  85 112 140 169 202 240
#     4   9  16  25  37  53  74 100 128 158 192 230
#     4   8  14  25  39  53  71  97 128 161 196 232
#     4   8  14  25  40  56  74  98 129 164 199 233
#     4   9  18  31  45  63  88 117 149 183 216 251
#     4   9  18  32  49  69  92 116 142 175 217 265
#
# _framework density 15.398771999999999
#
# number of rings (size 3 to 8) (size 9 to 14) (size 15 to 20)
#    0.000    3.385    0.000    0.923    0.000    2.538 
#    0.000    6.538    0.000    2.308    0.000    6.462 
#    0.000    0.615    0.000    3.385    0.000    4.615 
#
# Total GULP energy -1288480.181097 kJ/mol
# GULP energy per Si atom -12389.232511 kJ/mol
# Density = 1.536372 g / cm^3
# Si number density = 15.398772 Si / 1000 Ang^3
#
#
#
# Elastic Constant Matrix: (Units=GPa)
#
#
# Indices 1 2 3 4 5 6 
#
# 1 74.3689 34.3518 43.1906 0.0000 0.0000 0.0000
# 2 34.3518 74.3689 43.1906 0.0000 0.0000 0.0000
# 3 43.1906 43.1906 74.7213 0.0000 0.0000 0.0000
# 4 0.0000 0.0000 0.0000 23.3318 0.0000 0.0000
# 5 0.0000 0.0000 0.0000 0.0000 23.3318 0.0000
# 6 0.0000 0.0000 0.0000 0.0000 0.0000 8.1643
#
#
#
# Elastic Compliance Matrix: (Units=1/GPa)
#
#
# Indices 1 2 3 4 5 6 
#
# 1 0.020999 -0.003990 -0.009832 0.000000 0.000000 0.000000
# 2 -0.003990 0.020999 -0.009832 0.000000 0.000000 0.000000
# 3 -0.009832 -0.009832 0.024749 0.000000 0.000000 0.000000
# 4 0.000000 0.000000 0.000000 0.042860 0.000000 0.000000
# 5 0.000000 0.000000 0.000000 0.000000 0.042860 0.000000
# 6 0.000000 0.000000 0.000000 0.000000 0.000000 0.122484
#
#
# Mechanical properties :
#
#
# Convention : Reuss Voigt Hill
#
# Bulk Modulus (GPa) = 51.43852 51.65834 51.54843
# Shear Modulus (GPa) = 15.20960 17.81400 16.51180
#
# Velocity S-wave (km/s) = 3.14620 3.40493 3.27812
# Velocity P-wave (km/s) = 6.83191 7.00557 6.91928
#
# Compressibility (1/GPa) = 0.01944068
#
# Stress axis : x y z
#
# Youngs Moduli (GPa) = 47.62029 47.62029 40.40529
#
# Poissons Ratio (x) = 0.19000 0.39726
# Poissons Ratio (y) = 0.19000 0.39726
# Poissons Ratio (z) = 0.46820 0.46820
#
# Static dielectric constant tensor:
#      x y z
#    x 2.831220 0.000000 0.000000 
#    y 0.000000 2.831220 0.000000 
#    z 0.000000 0.000000 3.317500 
# 
# 
# High freq. dielectric constant tensor:
#      x y z
#    x 1.562560 0.000000 0.000000 
#    y 0.000000 1.562560 0.000000 
#    z 0.000000 0.000000 1.605390 
# 
# From -- ./inp_files/8740.got.cif
#   From: 2010.03.12/outbox.cif.g09.slc.cpg/sg123_5_cif.got.tgz:8740.got - 2010.04.06 16:26:55.
