data_PCOD8312931
_publ_section_title
;
Structure prediction by ZEFSAII (Michael W. Deem and Ramdas Pophale) SiO2 
 PCOD8312931
Probable space group: P 4/M M M
;
_chemical_formula_sum "Si O2"
_cell_formula_units_Z 56
_cell_length_a 17.891381
_cell_length_b 17.891381
_cell_length_c 8.887247
_cell_angle_alpha 90.000000
_cell_angle_beta 90.000000
_cell_angle_gamma 90.000000
_cell_volume 2844.821221
_symmetry_space_group_name_H-M "P 4/M M M"
_symmetry_group_IT_number 123
_symmetry_cell_setting 'tetragonal'
loop_
_space_group_symop_operation_xyz
x,y,z
-y,x,z
-x,-y,z
y,-x,z
x,-y,-z
-x,y,-z
y,x,-z
-y,-x,-z
-x,-y,-z
y,-x,-z
x,y,-z
-y,x,-z
-x,y,z
x,-y,z
-y,-x,z
y,x,z
loop_
_atom_site_type_symbol
_atom_site_label
_atom_site_fract_x
_atom_site_fract_y
_atom_site_fract_z
Si Si1 0.584018 0.704887 0.174095
Si Si2 0.000000 0.588192 0.172771
Si Si3 0.151515 0.356740 0.678817
Si Si4 0.194484 0.194484 0.676124
Si Si5 0.086109 0.086109 0.170234
O O1 0.500000 0.673740 0.196753
O O2 0.642010 0.642010 0.233275
O O3 0.590323 0.781280 0.267830
O O4 0.599326 0.723375 0.000000
O O5 0.926842 0.619348 0.252600
O O6 0.000000 0.500000 0.187740
O O7 0.000000 0.614163 0.000000
O O8 0.144933 0.360363 0.500000
O O9 0.169881 0.274187 0.742079
O O10 0.202166 0.202166 0.500000
O O11 0.133157 0.133157 0.713115
O O12 0.000000 0.103755 0.200368
O O13 0.107795 0.107795 0.000000
#
# Coordination Sequence:
#
# PCOD8312931 Si02
#       5
#    16   8  16   8   8
#     4  10  21  38  61  89 121 158 201 249 302 361
#     4  11  25  43  63  91 124 157 198 247 299 358
#     4  11  23  41  62  88 122 159 200 247 301 360
#     4  10  23  39  57  84 117 151 194 242 288 345
#     4   9  20  38  58  84 116 149 189 235 284 340
#
# _framework density 19.684892999999999
#
# number of rings (size 3 to 8) (size 9 to 14) (size 15 to 20)
#    0.000    1.714    1.429    2.571    2.000    8.286 
#    0.000    2.143    0.000    0.000    0.000    2.000 
#    0.000    0.000    0.000    0.000    0.000    0.000 
#
# Total GULP energy -694559.210266 kJ/mol
# GULP energy per Si atom -12402.843040 kJ/mol
# Density = 1.964009 g / cm^3
# Si number density = 19.684893 Si / 1000 Ang^3
#
#
#
# Elastic Constant Matrix: (Units=GPa)
#
#
# Indices 1 2 3 4 5 6 
#
# 1 120.6916 71.3051 48.6504 0.0000 0.0000 0.0000
# 2 71.3051 120.6916 48.6504 0.0000 0.0000 0.0000
# 3 48.6504 48.6504 75.7492 0.0000 0.0000 0.0000
# 4 0.0000 0.0000 0.0000 51.3711 0.0000 0.0000
# 5 0.0000 0.0000 0.0000 0.0000 51.3711 0.0000
# 6 0.0000 0.0000 0.0000 0.0000 0.0000 30.8525
#
#
#
# Elastic Compliance Matrix: (Units=1/GPa)
#
#
# Indices 1 2 3 4 5 6 
#
# 1 0.013985 -0.006263 -0.004959 0.000000 0.000000 0.000000
# 2 -0.006263 0.013985 -0.004959 0.000000 0.000000 0.000000
# 3 -0.004959 -0.004959 0.019572 0.000000 0.000000 0.000000
# 4 0.000000 0.000000 0.000000 0.019466 0.000000 0.000000
# 5 0.000000 0.000000 0.000000 0.000000 0.019466 0.000000
# 6 0.000000 0.000000 0.000000 0.000000 0.000000 0.032412
#
#
# Mechanical properties :
#
#
# Convention : Reuss Voigt Hill
#
# Bulk Modulus (GPa) = 65.88520 72.70492 69.29506
# Shear Modulus (GPa) = 31.98773 36.62072 34.30423
#
# Velocity S-wave (km/s) = 4.03549 4.31785 4.17906
# Velocity P-wave (km/s) = 7.43345 7.86594 7.65275
#
# Compressibility (1/GPa) = 0.01517792
#
# Stress axis : x y z
#
# Youngs Moduli (GPa) = 71.50475 71.50475 51.09397
#
# Poissons Ratio (x) = 0.44786 0.25339
# Poissons Ratio (y) = 0.44786 0.25339
# Poissons Ratio (z) = 0.35462 0.35462
#
# Static dielectric constant tensor:
#      x y z
#    x 3.691420 0.000000 0.000000 
#    y 0.000000 3.691420 0.000000 
#    z 0.000000 0.000000 3.514660 
# 
# 
# High freq. dielectric constant tensor:
#      x y z
#    x 1.777750 0.000000 0.000000 
#    y 0.000000 1.777750 0.000000 
#    z 0.000000 0.000000 1.762710 
# 
# From -- ./inp_files/630.got.cif
#   From: 2010.03.12/outbox.cif.g09.slc.cpg/sg123_1_cif.got.tgz:630.got - 2010.04.06 16:26:55.
