data_PCOD8312913
_publ_section_title
;
Structure prediction by ZEFSAII (Michael W. Deem and Ramdas Pophale) SiO2 
 PCOD8312913
Probable space group: P 4/M M M
;
_chemical_formula_sum "Si O2"
_cell_formula_units_Z 64
_cell_length_a 20.119571
_cell_length_b 20.119571
_cell_length_c 8.024443
_cell_angle_alpha 90.000000
_cell_angle_beta 90.000000
_cell_angle_gamma 90.000000
_cell_volume 3248.271554
_symmetry_space_group_name_H-M "P 4/M M M"
_symmetry_group_IT_number 123
_symmetry_cell_setting 'tetragonal'
loop_
_space_group_symop_operation_xyz
x,y,z
-y,x,z
-x,-y,z
y,-x,z
x,-y,-z
-x,y,-z
y,x,-z
-y,-x,-z
-x,-y,-z
y,-x,-z
x,y,-z
-y,x,-z
-x,y,z
x,-y,z
-y,-x,z
y,x,z
loop_
_atom_site_type_symbol
_atom_site_label
_atom_site_fract_x
_atom_site_fract_y
_atom_site_fract_z
Si Si1 0.821559 0.606916 0.809238
Si Si2 0.573062 0.322347 0.693314
Si Si3 0.244998 0.134705 0.812847
Si Si4 0.500000 0.075498 0.303828
Si Si5 0.073811 0.183965 0.500000
O O1 0.755281 0.589812 0.709450
O O2 0.839060 0.682419 0.774041
O O3 0.885410 0.564945 0.755054
O O4 0.805427 0.592309 0.000000
O O5 0.570087 0.338556 0.500000
O O6 0.500000 0.336619 0.772758
O O7 0.629275 0.370726 0.776380
O O8 0.197624 0.197624 0.799204
O O9 0.227052 0.082366 0.668611
O O10 0.240358 0.102936 0.000000
O O11 0.500000 0.071700 0.500000
O O12 0.500000 0.000000 0.230132
O O13 0.121496 0.121496 0.500000
O O14 0.000000 0.155321 0.500000
#
# Coordination Sequence:
#
# PCOD8312913 Si02
#       5
#    16  16  16   8   8
#     4  11  22  38  60  85 116 152 193 241 295 355
#     4  10  21  36  57  84 115 155 200 247 298 353
#     4   9  20  38  60  88 119 152 194 244 294 346
#     4  11  25  41  57  81 116 155 192 233 283 350
#     4  10  22  39  62  91 123 159 196 240 294 352
#
# _framework density 19.702786
#
# number of rings (size 3 to 8) (size 9 to 14) (size 15 to 20)
#    0.000    1.875    1.250    1.875    3.500    4.375 
#    0.000    3.750    0.000    0.000    0.000    5.250 
#    0.000    0.000    0.000    0.000    0.000    0.000 
#
# Total GULP energy -793392.470799 kJ/mol
# GULP energy per Si atom -12396.757356 kJ/mol
# Density = 1.965794 g / cm^3
# Si number density = 19.702786 Si / 1000 Ang^3
#
#
#
# Elastic Constant Matrix: (Units=GPa)
#
#
# Indices 1 2 3 4 5 6 
#
# 1 122.5362 42.9958 33.7680 0.0000 0.0000 0.0000
# 2 42.9958 122.5362 33.7680 0.0000 0.0000 0.0000
# 3 33.7680 33.7680 78.2499 0.0000 0.0000 0.0000
# 4 0.0000 0.0000 0.0000 5.6066 0.0000 0.0000
# 5 0.0000 0.0000 0.0000 0.0000 5.6066 0.0000
# 6 0.0000 0.0000 0.0000 0.0000 0.0000 -19.2377
#
#
#
# Elastic Compliance Matrix: (Units=1/GPa)
#
#
# Indices 1 2 3 4 5 6 
#
# 1 0.009952 -0.002620 -0.003164 0.000000 0.000000 0.000000
# 2 -0.002620 0.009952 -0.003164 0.000000 0.000000 0.000000
# 3 -0.003164 -0.003164 0.015510 0.000000 0.000000 0.000000
# 4 0.000000 0.000000 0.000000 0.178360 0.000000 0.000000
# 5 0.000000 0.000000 0.000000 0.000000 0.178360 0.000000
# 6 0.000000 0.000000 0.000000 0.000000 0.000000 -0.051981
#
#
# Mechanical properties :
#
#
# Convention : Reuss Voigt Hill
#
# Bulk Modulus (GPa) = 57.08347 60.48736 58.78542
# Shear Modulus (GPa) = 13.74043 12.58115 13.16079
#
# Velocity S-wave (km/s) = 2.64367 2.52969 2.58731
# Velocity P-wave (km/s) = 6.19305 6.26889 6.23108
#
# Compressibility (1/GPa) = 0.01751820
#
# Stress axis : x y z
#
# Youngs Moduli (GPa) = 100.48092 100.48092 64.47279
#
# Poissons Ratio (x) = 0.26327 0.20400
# Poissons Ratio (y) = 0.26327 0.20400
# Poissons Ratio (z) = 0.31793 0.31793
#
# Static dielectric constant tensor:
#      x y z
#    x 3.687200 0.000000 0.000000 
#    y 0.000000 3.687200 0.000000 
#    z 0.000000 0.000000 3.798810 
# 
# 
# High freq. dielectric constant tensor:
#      x y z
#    x 1.768110 0.000000 0.000000 
#    y 0.000000 1.768110 0.000000 
#    z 0.000000 0.000000 1.772270 
# 
# From -- ./inp_files/894.got.cif
#   From: 2010.03.12/outbox.cif.g09.slc.cpg/sg123_1_cif.got.tgz:894.got - 2010.04.06 16:26:55.
