data_PCOD8312363
_publ_section_title
;
Structure prediction by ZEFSAII (Michael W. Deem and Ramdas Pophale) SiO2 
 PCOD8312363
Probable space group: P 4/M M M
;
_chemical_formula_sum "Si O2"
_cell_formula_units_Z 120
_cell_length_a 18.421949
_cell_length_b 18.421949
_cell_length_c 22.804002
_cell_angle_alpha 90.000000
_cell_angle_beta 90.000000
_cell_angle_gamma 90.000000
_cell_volume 7738.953225
_symmetry_space_group_name_H-M "P 4/M M M"
_symmetry_group_IT_number 123
_symmetry_cell_setting 'tetragonal'
loop_
_space_group_symop_operation_xyz
x,y,z
-y,x,z
-x,-y,z
y,-x,z
x,-y,-z
-x,y,-z
y,x,-z
-y,-x,-z
-x,-y,-z
y,-x,-z
x,y,-z
-y,x,-z
-x,y,z
x,-y,z
-y,-x,z
y,x,z
loop_
_atom_site_type_symbol
_atom_site_label
_atom_site_fract_x
_atom_site_fract_y
_atom_site_fract_z
Si Si1 0.153933 0.416374 0.155389
Si Si2 0.081024 0.199222 0.161436
Si Si3 0.842662 0.586551 0.566879
Si Si4 0.082386 0.326422 0.251597
Si Si5 0.661735 0.779809 0.327400
Si Si6 0.084259 0.685374 0.932541
Si Si7 0.421429 0.000000 0.568946
Si Si8 0.702743 0.415553 0.223075
O O1 0.140384 0.500000 0.144155
O O2 0.100333 0.392115 0.207515
O O3 0.135333 0.376498 0.094729
O O4 0.237434 0.400208 0.172874
O O5 0.131714 0.131714 0.171267
O O6 0.091165 0.252272 0.216122
O O7 0.100349 0.239564 0.100792
O O8 0.000000 0.168572 0.158739
O O9 0.823148 0.607213 0.500000
O O10 0.840715 0.500000 0.575374
O O11 0.784073 0.624615 0.608794
O O12 0.923499 0.617432 0.584683
O O13 0.138522 0.324420 0.305039
O O14 0.000000 0.336337 0.275417
O O15 0.738176 0.738176 0.332343
O O16 0.607139 0.736210 0.285437
O O17 0.000000 0.663136 0.924187
O O18 0.105214 0.695717 0.000000
O O19 0.500000 0.000000 0.600530
O O20 0.434685 0.000000 0.500000
O O21 0.680849 0.500000 0.225482
O O22 0.631350 0.368651 0.208140
#
# Coordination Sequence:
#
# PCOD8312363 Si02
#       8
#    16  16  16  16  16  16   8  16
#     4   9  17  29  44  65  92 114 139 179 218 250
#     4   9  17  30  46  62  83 109 140 181 220 255
#     4   9  17  29  44  62  87 117 147 178 213 255
#     4   9  18  30  44  62  85 116 148 174 212 264
#     4  10  19  29  44  65  90 117 146 182 219 259
#     4   9  18  30  43  62  88 119 150 173 202 252
#     4   7  12  24  40  58  80 108 139 169 202 242
#     4   9  18  32  48  66  88 113 143 181 223 264
#
# _framework density 15.505974
#
# number of rings (size 3 to 8) (size 9 to 14) (size 15 to 20)
#    0.000    3.000    0.000    2.800    0.933    5.867 
#    0.000    0.667    0.000    0.000    0.000    1.867 
#    0.000    0.000    0.000   15.333    0.000    3.733 
#
# Total GULP energy -1487373.406795 kJ/mol
# GULP energy per Si atom -12394.778390 kJ/mol
# Density = 1.547068 g / cm^3
# Si number density = 15.505974 Si / 1000 Ang^3
#
#
#
# Elastic Constant Matrix: (Units=GPa)
#
#
# Indices 1 2 3 4 5 6 
#
# 1 73.1185 41.7169 18.6559 0.0000 0.0000 0.0000
# 2 41.7169 73.1185 18.6559 0.0000 0.0000 0.0000
# 3 18.6559 18.6559 53.8921 0.0000 0.0000 0.0000
# 4 0.0000 0.0000 0.0000 17.3511 0.0000 0.0000
# 5 0.0000 0.0000 0.0000 0.0000 17.3511 0.0000
# 6 0.0000 0.0000 0.0000 0.0000 0.0000 18.8128
#
#
#
# Elastic Compliance Matrix: (Units=1/GPa)
#
#
# Indices 1 2 3 4 5 6 
#
# 1 0.020829 -0.011017 -0.003397 0.000000 0.000000 0.000000
# 2 -0.011017 0.020829 -0.003397 0.000000 0.000000 0.000000
# 3 -0.003397 -0.003397 0.020907 0.000000 0.000000 0.000000
# 4 0.000000 0.000000 0.000000 0.057633 0.000000 0.000000
# 5 0.000000 0.000000 0.000000 0.000000 0.057633 0.000000
# 6 0.000000 0.000000 0.000000 0.000000 0.000000 0.053155
#
#
# Mechanical properties :
#
#
# Convention : Reuss Voigt Hill
#
# Bulk Modulus (GPa) = 37.11338 39.79848 38.45593
# Shear Modulus (GPa) = 18.14307 18.77638 18.45972
#
# Velocity S-wave (km/s) = 3.42434 3.48359 3.45409
# Velocity P-wave (km/s) = 6.29457 6.47324 6.38453
#
# Compressibility (1/GPa) = 0.02694446
#
# Stress axis : x y z
#
# Youngs Moduli (GPa) = 48.01090 48.01090 47.83052
#
# Poissons Ratio (x) = 0.52893 0.16246
# Poissons Ratio (y) = 0.52893 0.16246
# Poissons Ratio (z) = 0.16307 0.16307
#
# Static dielectric constant tensor:
#      x y z
#    x 2.917120 0.000000 0.000000 
#    y 0.000000 2.917120 0.000000 
#    z 0.000000 0.000000 2.871160 
# 
# 
# High freq. dielectric constant tensor:
#      x y z
#    x 1.584150 0.000000 0.000000 
#    y 0.000000 1.584150 0.000000 
#    z 0.000000 0.000000 1.584860 
# 
# From -- ./inp_files/7653.got.cif
#   From: 2010.03.12/outbox.cif.g09.slc.cpg/sg123_4_cif.got.tgz:7653.got - 2010.04.06 16:26:55.
