data_PCOD8312100
_publ_section_title
;
Structure prediction by ZEFSAII (Michael W. Deem and Ramdas Pophale) SiO2 
 PCOD8312100
Probable space group: I -4 2 D
;
_chemical_formula_sum "Si O2"
_cell_formula_units_Z 48
_cell_length_a 8.550558
_cell_length_b 8.550558
_cell_length_c 25.804275
_cell_angle_alpha 90.000000
_cell_angle_beta 90.000000
_cell_angle_gamma 90.000000
_cell_volume 1886.603240
_symmetry_space_group_name_H-M "I -4 2 D"
_symmetry_group_IT_number 122
_symmetry_cell_setting 'tetragonal'
loop_
_space_group_symop_operation_xyz
x,y,z
y,-x,-z
-x,-y,z
-y,x,-z
x,1/2-y,1/4-z
-x,1/2+y,1/4-z
-y,1/2-x,1/4+z
y,1/2+x,1/4+z
1/2+x,1/2+y,1/2+z
1/2+y,1/2-x,1/2-z
1/2-x,1/2-y,1/2+z
1/2-y,1/2+x,1/2-z
1/2+x,-y,3/4-z
1/2-x,y,3/4-z
1/2-y,-x,3/4+z
1/2+y,x,3/4+z
loop_
_atom_site_type_symbol
_atom_site_label
_atom_site_fract_x
_atom_site_fract_y
_atom_site_fract_z
Si Si1 0.056139 0.839965 0.718397
Si Si2 0.649964 0.899443 0.180391
Si Si3 0.152384 0.915957 0.100936
O O1 0.078274 0.708192 0.761022
O O2 0.220911 0.871561 0.691685
O O3 0.919046 0.779873 0.677831
O O4 0.000000 0.000000 0.744610
O O5 0.500000 0.000000 0.166999
O O6 0.785471 0.952697 0.141489
O O7 0.101364 0.750000 0.125000
O O8 0.000000 0.000000 0.075784
#
# Coordination Sequence:
#
# PCOD8312100 Si02
#       3
#    16  16  16
#     4  12  26  46  80 114 157 217 274 339 419 498
#     4  12  23  52  81 109 157 214 280 337 414 511
#     4  12  28  47  79 118 160 208 272 351 418 500
#
# _framework density 25.442551999999999
#
# number of rings (size 3 to 8) (size 9 to 14) (size 15 to 20)
#    0.000    0.000    6.667    2.000    4.667    0.000 
#    0.000    0.000    0.000    0.000    0.000    0.000 
#    0.000    0.000    0.000    0.000    0.000    0.000 
#
# Total GULP energy -297401.616646 kJ/mol
# GULP energy per Si atom -12391.734027 kJ/mol
# Density = 2.538464 g / cm^3
# Si number density = 25.442552 Si / 1000 Ang^3
#
#
#
# Elastic Constant Matrix: (Units=GPa)
#
#
# Indices 1 2 3 4 5 6 
#
# 1 137.8461 46.4565 6.4138 0.0000 0.0000 0.0000
# 2 46.4565 137.8460 6.4138 0.0000 0.0000 0.0000
# 3 6.4138 6.4138 37.6457 0.0000 0.0000 0.0000
# 4 0.0000 0.0000 0.0000 31.7122 0.0000 0.0000
# 5 0.0000 0.0000 0.0000 0.0000 31.7122 0.0000
# 6 0.0000 0.0000 0.0000 0.0000 0.0000 69.6556
#
#
#
# Elastic Compliance Matrix: (Units=1/GPa)
#
#
# Indices 1 2 3 4 5 6 
#
# 1 0.008217 -0.002726 -0.000936 0.000000 0.000000 0.000000
# 2 -0.002726 0.008217 -0.000936 0.000000 0.000000 0.000000
# 3 -0.000936 -0.000936 0.026882 0.000000 0.000000 0.000000
# 4 0.000000 0.000000 0.000000 0.031534 0.000000 0.000000
# 5 0.000000 0.000000 0.000000 0.000000 0.031534 0.000000
# 6 0.000000 0.000000 0.000000 0.000000 0.000000 0.014356
#
#
# Mechanical properties :
#
#
# Convention : Reuss Voigt Hill
#
# Bulk Modulus (GPa) = 29.30649 47.98954 38.64801
# Shear Modulus (GPa) = 35.38417 43.55293 39.46855
#
# Velocity S-wave (km/s) = 3.73332 4.14190 3.94290
# Velocity P-wave (km/s) = 5.48883 6.46348 5.99599
#
# Compressibility (1/GPa) = 0.03412214
#
# Stress axis : x y z
#
# Youngs Moduli (GPa) = 121.70532 121.70530 37.19929
#
# Poissons Ratio (x) = 0.33172 0.03480
# Poissons Ratio (y) = 0.33172 0.03480
# Poissons Ratio (z) = 0.11386 0.11386
#
# Static dielectric constant tensor:
#      x y z
#    x 5.227650 0.000000 0.000000 
#    y 0.000000 5.227650 0.000000 
#    z 0.000000 0.000000 4.254140 
# 
# 
# High freq. dielectric constant tensor:
#      x y z
#    x 2.035290 0.000000 0.000000 
#    y 0.000000 2.035290 0.000000 
#    z 0.000000 0.000000 1.993340 
# 
# From -- ./inp_files/9027.got.cif
#   From: 2010.03.12/outbox.cif.g09.slc.cpg/sg122_5_cif.got.tgz:9027.got - 2010.04.06 16:17:16.
