data_PCOD8312915
_publ_section_title
;
Structure prediction by ZEFSAII (Michael W. Deem and Ramdas Pophale) SiO2 
 PCOD8312915
Probable space group: P 4/M M M
;
_chemical_formula_sum "Si O2"
_cell_formula_units_Z 72
_cell_length_a 19.779959
_cell_length_b 19.779959
_cell_length_c 10.107599
_cell_angle_alpha 90.000000
_cell_angle_beta 90.000000
_cell_angle_gamma 90.000000
_cell_volume 3954.565542
_symmetry_space_group_name_H-M "P 4/M M M"
_symmetry_group_IT_number 123
_symmetry_cell_setting 'tetragonal'
loop_
_space_group_symop_operation_xyz
x,y,z
-y,x,z
-x,-y,z
y,-x,z
x,-y,-z
-x,y,-z
y,x,-z
-y,-x,-z
-x,-y,-z
y,-x,-z
x,y,-z
-y,x,-z
-x,y,z
x,-y,z
-y,-x,z
y,x,z
loop_
_atom_site_type_symbol
_atom_site_label
_atom_site_fract_x
_atom_site_fract_y
_atom_site_fract_z
Si Si1 0.500000 0.276455 0.856883
Si Si2 0.500000 0.074950 0.157624
Si Si3 0.151568 0.736690 0.653023
Si Si4 0.776874 0.000000 0.650984
Si Si5 0.608870 0.500000 0.650514
Si Si6 0.830131 0.383428 0.151169
Si Si7 0.000000 0.110512 0.858704
O O1 0.500000 0.326182 0.737446
O O2 0.568733 0.234617 0.846082
O O3 0.500000 0.313313 0.000000
O O4 0.430403 0.109038 0.206741
O O5 0.500000 0.000000 0.214816
O O6 0.500000 0.079679 0.000000
O O7 0.162628 0.715257 0.500000
O O8 0.192391 0.807610 0.679471
O O9 0.070708 0.739075 0.683745
O O10 0.181187 0.679866 0.751268
O O11 0.799648 0.000000 0.500000
O O12 0.843737 0.000000 0.733315
O O13 0.566178 0.566178 0.682933
O O14 0.632833 0.500000 0.500000
O O15 0.843346 0.357813 0.000000
O O16 0.933522 0.066479 0.851670
O O17 0.000000 0.150417 0.000000
#
# Coordination Sequence:
#
# PCOD8312915 Si02
#       7
#     8   8  16   8   8  16   8
#     4   9  19  36  55  80 113 145 180 222 266 316
#     4   8  15  30  54  81 107 135 169 212 261 313
#     4  10  22  38  54  76 109 145 182 230 283 331
#     4  10  21  37  55  73  99 138 184 226 271 328
#     4   9  19  35  54  79 109 140 179 223 264 312
#     4   9  19  35  55  80 108 139 179 222 264 319
#     4   9  18  32  50  74 101 125 157 210 272 329
#
# _framework density 18.206803000000001
#
# number of rings (size 3 to 8) (size 9 to 14) (size 15 to 20)
#    0.000    2.778    0.000    2.667    1.556    4.889 
#    0.000    7.222    0.000    0.667    0.000    0.000 
#    0.000    0.000    0.000    0.000    0.000    0.000 
#
# Total GULP energy -892071.345583 kJ/mol
# GULP energy per Si atom -12389.879800 kJ/mol
# Density = 1.816536 g / cm^3
# Si number density = 18.206803 Si / 1000 Ang^3
#
#
#
# Elastic Constant Matrix: (Units=GPa)
#
#
# Indices 1 2 3 4 5 6 
#
# 1 97.6090 21.4157 44.1540 0.0000 0.0000 0.0000
# 2 21.4157 97.6090 44.1540 0.0000 0.0000 0.0000
# 3 44.1540 44.1540 66.2874 0.0000 0.0000 0.0000
# 4 0.0000 0.0000 0.0000 24.5706 0.0000 0.0000
# 5 0.0000 0.0000 0.0000 0.0000 24.5706 0.0000
# 6 0.0000 0.0000 0.0000 0.0000 0.0000 1.9684
#
#
#
# Elastic Compliance Matrix: (Units=1/GPa)
#
#
# Indices 1 2 3 4 5 6 
#
# 1 0.014868 0.001743 -0.011064 0.000000 0.000000 0.000000
# 2 0.001743 0.014868 -0.011064 0.000000 0.000000 0.000000
# 3 -0.011064 -0.011064 0.029826 0.000000 0.000000 0.000000
# 4 0.000000 0.000000 0.000000 0.040699 0.000000 0.000000
# 5 0.000000 0.000000 0.000000 0.000000 0.040699 0.000000
# 6 0.000000 0.000000 0.000000 0.000000 0.000000 0.508030
#
#
# Mechanical properties :
#
#
# Convention : Reuss Voigt Hill
#
# Bulk Modulus (GPa) = 53.22085 53.43919 53.33002
# Shear Modulus (GPa) = 7.18367 20.34069 13.76218
#
# Velocity S-wave (km/s) = 1.98851 3.34608 2.75231
# Velocity P-wave (km/s) = 5.87937 6.65908 6.28133
#
# Compressibility (1/GPa) = 0.01878963
#
# Stress axis : x y z
#
# Youngs Moduli (GPa) = 67.26075 67.26075 33.52825
#
# Poissons Ratio (x) = -0.11724 0.37096
# Poissons Ratio (y) = -0.11724 0.37096
# Poissons Ratio (z) = 0.74419 0.74419
#
# Static dielectric constant tensor:
#      x y z
#    x 3.329540 0.000000 0.000000 
#    y 0.000000 3.329540 0.000000 
#    z 0.000000 0.000000 3.356020 
# 
# 
# High freq. dielectric constant tensor:
#      x y z
#    x 1.700400 0.000000 0.000000 
#    y 0.000000 1.700400 0.000000 
#    z 0.000000 0.000000 1.703330 
# 
# From -- ./inp_files/1255.got.cif
#   From: 2010.03.12/outbox.cif.g09.slc.cpg/sg123_1_cif.got.tgz:1255.got - 2010.04.06 16:26:55.
