data_PCOD8312300
_publ_section_title
;
Structure prediction by ZEFSAII (Michael W. Deem and Ramdas Pophale) SiO2 
 PCOD8312300
Probable space group: P 4/M M M
;
_chemical_formula_sum "Si O2"
_cell_formula_units_Z 88
_cell_length_a 14.203229
_cell_length_b 14.203229
_cell_length_c 27.573189
_cell_angle_alpha 90.000000
_cell_angle_beta 90.000000
_cell_angle_gamma 90.000000
_cell_volume 5562.386678
_symmetry_space_group_name_H-M "P 4/M M M"
_symmetry_group_IT_number 123
_symmetry_cell_setting 'tetragonal'
loop_
_space_group_symop_operation_xyz
x,y,z
-y,x,z
-x,-y,z
y,-x,z
x,-y,-z
-x,y,-z
y,x,-z
-y,-x,-z
-x,-y,-z
y,-x,-z
x,y,-z
-y,x,-z
-x,y,z
x,-y,z
-y,-x,z
y,x,z
loop_
_atom_site_type_symbol
_atom_site_label
_atom_site_fract_x
_atom_site_fract_y
_atom_site_fract_z
Si Si1 0.256599 0.107280 0.774119
Si Si2 0.760053 0.607887 0.943272
Si Si3 0.888139 0.395651 0.306025
Si Si4 0.111496 0.605199 0.586413
Si Si5 0.737016 0.891040 0.884450
Si Si6 0.888023 0.263229 0.500000
O O1 0.156873 0.156873 0.768435
O O2 0.329550 0.153695 0.736131
O O3 0.295645 0.118678 0.828618
O O4 0.237324 0.000000 0.760636
O O5 0.745656 0.500000 0.926802
O O6 0.665315 0.665315 0.929738
O O7 0.849938 0.651974 0.916254
O O8 0.781538 0.614560 0.000000
O O9 0.847354 0.500000 0.297424
O O10 0.857933 0.360288 0.359735
O O11 0.000000 0.398293 0.301931
O O12 0.151780 0.500000 0.576150
O O13 0.148169 0.678989 0.546831
O O14 0.000000 0.599637 0.582936
O O15 0.833537 0.833537 0.894364
O O16 0.754943 0.000000 0.898376
O O17 0.838315 0.161686 0.500000
O O18 0.000000 0.246436 0.500000
#
# Coordination Sequence:
#
# PCOD8312300 Si02
#       6
#    16  16  16  16  16   8
#     4   9  17  28  42  61  86 116 147 176 206 243
#     4   9  18  32  49  69  92 116 142 175 217 266
#     4   8  14  25  41  60  80 102 131 170 214 252
#     4   8  14  26  43  59  75  99 134 176 215 243
#     4   9  18  31  45  63  88 118 153 190 223 255
#     4  10  19  28  39  57  82 112 141 167 200 245
#
# _framework density 15.820546999999999
#
# number of rings (size 3 to 8) (size 9 to 14) (size 15 to 20)
#    0.000    3.273    0.000    1.364    0.000    3.909 
#    0.000    5.455    0.000    0.000    0.000    7.636 
#    0.000    3.273    0.000    8.000    0.000    2.182 
#
# Total GULP energy -1090668.487660 kJ/mol
# GULP energy per Si atom -12393.960087 kJ/mol
# Density = 1.578454 g / cm^3
# Si number density = 15.820547 Si / 1000 Ang^3
#
#
#
# Elastic Constant Matrix: (Units=GPa)
#
#
# Indices 1 2 3 4 5 6 
#
# 1 83.0289 40.8317 48.5821 0.0000 0.0000 0.0000
# 2 40.8317 83.0300 48.5824 0.0000 0.0000 0.0000
# 3 48.5821 48.5824 80.1972 0.0000 0.0000 0.0000
# 4 0.0000 0.0000 0.0000 22.3532 0.0000 0.0000
# 5 0.0000 0.0000 0.0000 0.0000 22.3532 0.0000
# 6 0.0000 0.0000 0.0000 0.0000 0.0000 9.7069
#
#
#
# Elastic Compliance Matrix: (Units=1/GPa)
#
#
# Indices 1 2 3 4 5 6 
#
# 1 0.019541 -0.004157 -0.009320 0.000000 0.000000 0.000000
# 2 -0.004157 0.019541 -0.009320 0.000000 0.000000 0.000000
# 3 -0.009320 -0.009320 0.023761 0.000000 0.000000 0.000000
# 4 0.000000 0.000000 0.000000 0.044736 0.000000 0.000000
# 5 0.000000 0.000000 0.000000 0.000000 0.044736 0.000000
# 6 0.000000 0.000000 0.000000 0.000000 0.000000 0.103019
#
#
# Mechanical properties :
#
#
# Convention : Reuss Voigt Hill
#
# Bulk Modulus (GPa) = 57.96786 58.02763 57.99774
# Shear Modulus (GPa) = 16.30378 18.10001 17.20189
#
# Velocity S-wave (km/s) = 3.21369 3.38610 3.30102
# Velocity P-wave (km/s) = 7.10569 7.21428 7.16019
#
# Compressibility (1/GPa) = 0.01725094
#
# Stress axis : x y z
#
# Youngs Moduli (GPa) = 51.17344 51.17421 42.08619
#
# Poissons Ratio (x) = 0.21272 0.39223
# Poissons Ratio (y) = 0.21271 0.39223
# Poissons Ratio (z) = 0.47692 0.47693
#
# Static dielectric constant tensor:
#      x y z
#    x 2.884530 0.000000 0.000000 
#    y 0.000000 2.884530 0.000000 
#    z 0.000000 0.000000 3.285390 
# 
# 
# High freq. dielectric constant tensor:
#      x y z
#    x 1.583050 0.000000 0.000000 
#    y 0.000000 1.583050 0.000000 
#    z 0.000000 0.000000 1.618980 
# 
# From -- ./inp_files/7153.got.cif
#   From: 2010.03.12/outbox.cif.g09.slc.cpg/sg123_4_cif.got.tgz:7153.got - 2010.04.06 16:26:55.
