data_PCOD8312201
_publ_section_title
;
Structure prediction by ZEFSAII (Michael W. Deem and Ramdas Pophale) SiO2 
 PCOD8312201
Probable space group: P 4/M M M
;
_chemical_formula_sum "Si O2"
_cell_formula_units_Z 112
_cell_length_a 17.725039
_cell_length_b 17.725039
_cell_length_c 20.583518
_cell_angle_alpha 90.000000
_cell_angle_beta 90.000000
_cell_angle_gamma 90.000000
_cell_volume 6466.868090
_symmetry_space_group_name_H-M "P 4/M M M"
_symmetry_group_IT_number 123
_symmetry_cell_setting 'tetragonal'
loop_
_space_group_symop_operation_xyz
x,y,z
-y,x,z
-x,-y,z
y,-x,z
x,-y,-z
-x,y,-z
y,x,-z
-y,-x,-z
-x,-y,-z
y,-x,-z
x,y,-z
-y,x,-z
-x,y,z
x,-y,z
-y,-x,z
y,x,z
loop_
_atom_site_type_symbol
_atom_site_label
_atom_site_fract_x
_atom_site_fract_y
_atom_site_fract_z
Si Si1 0.082930 0.737776 0.242881
Si Si2 0.204587 0.914716 0.103616
Si Si3 0.290057 0.414238 0.669824
Si Si4 0.676051 0.197910 0.427262
Si Si5 0.348260 0.223707 0.208615
Si Si6 0.913502 0.206913 0.617011
Si Si7 0.325920 0.800283 0.069656
O O1 0.089918 0.793001 0.181503
O O2 0.142820 0.669931 0.239961
O O3 0.095027 0.789714 0.305517
O O4 0.000000 0.699591 0.244806
O O5 0.132180 0.867821 0.078749
O O6 0.282015 0.879511 0.075977
O O7 0.197430 0.000000 0.077881
O O8 0.311932 0.500000 0.654595
O O9 0.363749 0.363749 0.656252
O O10 0.220678 0.389499 0.623372
O O11 0.264924 0.408813 0.745546
O O12 0.642023 0.197613 0.500000
O O13 0.741849 0.258152 0.419254
O O14 0.713532 0.116846 0.412000
O O15 0.270008 0.270008 0.208121
O O16 0.378389 0.213557 0.133831
O O17 0.864381 0.135620 0.591497
O O18 0.000000 0.196120 0.594579
O O19 0.266104 0.733897 0.067443
O O20 0.370898 0.800939 0.000000
#
# Coordination Sequence:
#
# PCOD8312201 Si02
#       7
#    16  16  16  16  16  16  16
#     4   9  15  24  41  63  87 118 160 208 253 290
#     4   9  16  23  32  49  77 114 155 199 247 296
#     4  10  20  34  55  81 106 130 154 184 225 277
#     4   9  18  33  52  72  95 128 170 206 234 275
#     4   9  15  27  47  67  92 124 162 200 235 281
#     4  10  18  28  45  68  97 132 171 215 258 297
#     4   8  14  24  39  59  81 108 148 200 245 272
#
# _framework density 17.319047000000001
#
# number of rings (size 3 to 8) (size 9 to 14) (size 15 to 20)
#    0.000    2.857    1.429    2.143    0.000    1.286 
#    0.000    0.000    0.000    4.714    0.000    7.000 
#    0.000    0.000    0.000   12.714    0.000    0.857 
#
# Total GULP energy -1387777.507032 kJ/mol
# GULP energy per Si atom -12390.870598 kJ/mol
# Density = 1.727963 g / cm^3
# Si number density = 17.319047 Si / 1000 Ang^3
#
#
#
# Elastic Constant Matrix: (Units=GPa)
#
#
# Indices 1 2 3 4 5 6 
#
# 1 65.9005 32.2152 25.8656 0.0000 0.0000 0.0000
# 2 32.2152 65.9005 25.8656 0.0000 0.0000 0.0000
# 3 25.8656 25.8656 104.4654 0.0000 0.0000 0.0000
# 4 0.0000 0.0000 0.0000 9.8767 0.0000 0.0000
# 5 0.0000 0.0000 0.0000 0.0000 9.8767 0.0000
# 6 0.0000 0.0000 0.0000 0.0000 0.0000 11.0149
#
#
#
# Elastic Compliance Matrix: (Units=1/GPa)
#
#
# Indices 1 2 3 4 5 6 
#
# 1 0.020704 -0.008982 -0.002902 0.000000 0.000000 0.000000
# 2 -0.008982 0.020704 -0.002902 0.000000 0.000000 0.000000
# 3 -0.002902 -0.002902 0.011010 0.000000 0.000000 0.000000
# 4 0.000000 0.000000 0.000000 0.101248 0.000000 0.000000
# 5 0.000000 0.000000 0.000000 0.000000 0.101248 0.000000
# 6 0.000000 0.000000 0.000000 0.000000 0.000000 0.090786
#
#
# Mechanical properties :
#
#
# Convention : Reuss Voigt Hill
#
# Bulk Modulus (GPa) = 43.77376 44.90659 44.34018
# Shear Modulus (GPa) = 13.05855 16.30832 14.68343
#
# Velocity S-wave (km/s) = 2.74888 3.07195 2.91489
# Velocity P-wave (km/s) = 5.95020 6.21030 6.08164
#
# Compressibility (1/GPa) = 0.02284474
#
# Stress axis : x y z
#
# Youngs Moduli (GPa) = 48.29880 48.29880 90.82785
#
# Poissons Ratio (x) = 0.43382 0.26362
# Poissons Ratio (y) = 0.43382 0.26362
# Poissons Ratio (z) = 0.14018 0.14018
#
# Static dielectric constant tensor:
#      x y z
#    x 2.878290 0.000000 0.000000 
#    y 0.000000 2.878290 0.000000 
#    z 0.000000 0.000000 3.601130 
# 
# 
# High freq. dielectric constant tensor:
#      x y z
#    x 1.627260 0.000000 0.000000 
#    y 0.000000 1.627260 0.000000 
#    z 0.000000 0.000000 1.686910 
# 
# From -- ./inp_files/6676.got.cif
#   From: 2010.03.12/outbox.cif.g09.slc.cpg/sg123_4_cif.got.tgz:6676.got - 2010.04.06 16:26:55.
