data_PCOD8312149
_publ_section_title
;
Structure prediction by ZEFSAII (Michael W. Deem and Ramdas Pophale) SiO2 
 PCOD8312149
Probable space group: P 4/M M M
;
_chemical_formula_sum "Si O2"
_cell_formula_units_Z 64
_cell_length_a 17.587805
_cell_length_b 17.587805
_cell_length_c 11.997143
_cell_angle_alpha 90.000000
_cell_angle_beta 90.000000
_cell_angle_gamma 90.000000
_cell_volume 3711.086858
_symmetry_space_group_name_H-M "P 4/M M M"
_symmetry_group_IT_number 123
_symmetry_cell_setting 'tetragonal'
loop_
_space_group_symop_operation_xyz
x,y,z
-y,x,z
-x,-y,z
y,-x,z
x,-y,-z
-x,y,-z
y,x,-z
-y,-x,-z
-x,-y,-z
y,-x,-z
x,y,-z
-y,x,-z
-x,y,z
x,-y,z
-y,-x,z
y,x,z
loop_
_atom_site_type_symbol
_atom_site_label
_atom_site_fract_x
_atom_site_fract_y
_atom_site_fract_z
Si Si1 0.913377 0.790561 0.763078
Si Si2 0.288714 0.413511 0.765979
Si Si3 0.814042 0.313763 0.374477
Si Si4 0.914756 0.720401 0.000000
Si Si5 0.360040 0.763074 0.000000
O O1 0.864452 0.864452 0.731041
O O2 0.887084 0.717155 0.692056
O O3 0.902695 0.773357 0.893098
O O4 0.000000 0.808620 0.732048
O O5 0.309513 0.500000 0.737744
O O6 0.363808 0.363808 0.743955
O O7 0.219554 0.387703 0.686613
O O8 0.261856 0.407705 0.893214
O O9 0.837922 0.335534 0.500000
O O10 0.750697 0.249304 0.372943
O O11 0.853816 0.652202 0.000000
O O12 0.000000 0.684833 0.000000
O O13 0.277112 0.722889 0.000000
#
# Coordination Sequence:
#
# PCOD8312149 Si02
#       5
#    16  16  16   8   8
#     4  10  19  31  50  76 105 136 170 210 255 302
#     4  10  20  33  53  79 105 133 164 203 252 306
#     4   9  18  33  52  72  95 130 177 217 244 284
#     4  10  18  29  51  78 103 132 169 212 253 293
#     4  10  17  31  53  74 102 137 176 211 241 294
#
# _framework density 17.245621
#
# number of rings (size 3 to 8) (size 9 to 14) (size 15 to 20)
#    0.000    2.250    2.500    1.500    0.000    1.500 
#    0.000    0.000    0.000    8.250    0.000    8.750 
#    0.000    0.000    0.000    0.000    0.000    0.000 
#
# Total GULP energy -793655.835438 kJ/mol
# GULP energy per Si atom -12400.872429 kJ/mol
# Density = 1.720637 g / cm^3
# Si number density = 17.245621 Si / 1000 Ang^3
#
#
#
# Elastic Constant Matrix: (Units=GPa)
#
#
# Indices 1 2 3 4 5 6 
#
# 1 102.7258 56.5860 37.2111 0.0000 0.0000 0.0000
# 2 56.5860 102.7256 37.2110 0.0000 0.0000 0.0000
# 3 37.2111 37.2110 122.6715 0.0000 0.0000 0.0000
# 4 0.0000 0.0000 0.0000 8.8018 0.0000 0.0000
# 5 0.0000 0.0000 0.0000 0.0000 8.8017 0.0000
# 6 0.0000 0.0000 0.0000 0.0000 0.0000 16.8114
#
#
#
# Elastic Compliance Matrix: (Units=1/GPa)
#
#
# Indices 1 2 3 4 5 6 
#
# 1 0.014493 -0.007180 -0.002218 0.000000 0.000000 0.000000
# 2 -0.007180 0.014493 -0.002218 0.000000 0.000000 0.000000
# 3 -0.002218 -0.002218 0.009498 0.000000 0.000000 0.000000
# 4 0.000000 0.000000 0.000000 0.113613 0.000000 0.000000
# 5 0.000000 0.000000 0.000000 0.000000 0.113614 0.000000
# 6 0.000000 0.000000 0.000000 0.000000 0.000000 0.059483
#
#
# Mechanical properties :
#
#
# Convention : Reuss Voigt Hill
#
# Bulk Modulus (GPa) = 65.57074 65.57103 65.57089
# Shear Modulus (GPa) = 14.14376 20.02396 17.08386
#
# Velocity S-wave (km/s) = 2.86691 3.41119 3.15083
# Velocity P-wave (km/s) = 7.00451 7.32253 7.16528
#
# Compressibility (1/GPa) = 0.01525070
#
# Stress axis : x y z
#
# Youngs Moduli (GPa) = 68.99739 68.99720 105.28846
#
# Poissons Ratio (x) = 0.49540 0.23357
# Poissons Ratio (y) = 0.49540 0.23357
# Poissons Ratio (z) = 0.15306 0.15306
#
# Static dielectric constant tensor:
#      x y z
#    x 3.032820 0.000000 0.000000 
#    y 0.000000 3.032820 0.000000 
#    z 0.000000 0.000000 3.404680 
# 
# 
# High freq. dielectric constant tensor:
#      x y z
#    x 1.646470 0.000000 0.000000 
#    y 0.000000 1.646470 0.000000 
#    z 0.000000 0.000000 1.675360 
# 
# From -- ./inp_files/2633.got.cif
#   From: 2010.03.12/outbox.cif.g09.slc.cpg/sg123_2_cif.got.tgz:2633.got - 2010.04.06 16:26:55.
