data_PCOD8312430
_publ_section_title
;
Structure prediction by ZEFSAII (Michael W. Deem and Ramdas Pophale) SiO2 
 PCOD8312430
Probable space group: P 4/M M M
;
_chemical_formula_sum "Si O2"
_cell_formula_units_Z 72
_cell_length_a 13.977551
_cell_length_b 13.977551
_cell_length_c 22.526192
_cell_angle_alpha 90.000000
_cell_angle_beta 90.000000
_cell_angle_gamma 90.000000
_cell_volume 4400.985651
_symmetry_space_group_name_H-M "P 4/M M M"
_symmetry_group_IT_number 123
_symmetry_cell_setting 'tetragonal'
loop_
_space_group_symop_operation_xyz
x,y,z
-y,x,z
-x,-y,z
y,-x,z
x,-y,-z
-x,y,-z
y,x,-z
-y,-x,-z
-x,-y,-z
y,-x,-z
x,y,-z
-y,x,-z
-x,y,z
x,-y,z
-y,-x,z
y,x,z
loop_
_atom_site_type_symbol
_atom_site_label
_atom_site_fract_x
_atom_site_fract_y
_atom_site_fract_z
Si Si1 0.890013 0.734387 0.647666
Si Si2 0.764169 0.609424 0.431358
Si Si3 0.606128 0.113131 0.111103
Si Si4 0.263845 0.109457 0.216929
Si Si5 0.886581 0.268275 0.000000
O O1 0.831487 0.831487 0.634789
O O2 0.852846 0.648485 0.606672
O O3 0.877125 0.700693 0.715639
O O4 0.000000 0.755861 0.632371
O O5 0.792505 0.620318 0.500000
O O6 0.744163 0.500000 0.414174
O O7 0.668056 0.668056 0.416278
O O8 0.500000 0.158851 0.106121
O O9 0.652097 0.145746 0.173623
O O10 0.596912 0.000000 0.108309
O O11 0.671868 0.148038 0.057066
O O12 0.167935 0.167935 0.204202
O O13 0.237184 0.000000 0.203164
O O14 0.833862 0.166139 0.000000
O O15 0.000000 0.248604 0.000000
#
# Coordination Sequence:
#
# PCOD8312430 Si02
#       5
#    16  16  16  16   8
#     4   9  18  31  46  66  93 124 157 191 225 264
#     4   9  18  32  49  69  92 117 147 186 232 281
#     4   9  17  29  44  62  86 116 148 181 216 254
#     4   9  17  29  45  66  92 120 149 181 217 259
#     4  10  19  30  45  65  90 118 147 181 220 265
#
# _framework density 16.359971000000002
#
# number of rings (size 3 to 8) (size 9 to 14) (size 15 to 20)
#    0.000    2.889    0.000    1.000    0.000    3.889 
#    0.000    6.667    0.000    4.000    0.000    3.111 
#    0.000   18.222    0.000    0.000    0.000    0.000 
#
# Total GULP energy -892746.964402 kJ/mol
# GULP energy per Si atom -12399.263394 kJ/mol
# Density = 1.632274 g / cm^3
# Si number density = 16.359971 Si / 1000 Ang^3
#
#
#
# Elastic Constant Matrix: (Units=GPa)
#
#
# Indices 1 2 3 4 5 6 
#
# 1 98.0114 47.6543 54.0098 0.0000 0.0000 0.0000
# 2 47.6543 98.0131 54.0103 0.0000 0.0000 0.0000
# 3 54.0098 54.0103 88.0621 0.0000 0.0000 0.0000
# 4 0.0000 0.0000 0.0000 24.9241 0.0000 0.0000
# 5 0.0000 0.0000 0.0000 0.0000 24.9239 0.0000
# 6 0.0000 0.0000 0.0000 0.0000 0.0000 12.6385
#
#
#
# Elastic Compliance Matrix: (Units=1/GPa)
#
#
# Indices 1 2 3 4 5 6 
#
# 1 0.016225 -0.003633 -0.007723 0.000000 0.000000 0.000000
# 2 -0.003633 0.016225 -0.007723 0.000000 0.000000 0.000000
# 3 -0.007723 -0.007723 0.020829 0.000000 0.000000 0.000000
# 4 0.000000 0.000000 0.000000 0.040122 0.000000 0.000000
# 5 0.000000 0.000000 0.000000 0.000000 0.040122 0.000000
# 6 0.000000 0.000000 0.000000 0.000000 0.000000 0.079123
#
#
# Mechanical properties :
#
#
# Convention : Reuss Voigt Hill
#
# Bulk Modulus (GPa) = 66.13235 66.15950 66.14592
# Shear Modulus (GPa) = 19.54319 21.05810 20.30065
#
# Velocity S-wave (km/s) = 3.46001 3.59161 3.52642
# Velocity P-wave (km/s) = 7.51487 7.59784 7.55647
#
# Compressibility (1/GPa) = 0.01512119
#
# Stress axis : x y z
#
# Youngs Moduli (GPa) = 61.63314 61.63424 48.01053
#
# Poissons Ratio (x) = 0.22391 0.37078
# Poissons Ratio (y) = 0.22391 0.37078
# Poissons Ratio (z) = 0.47599 0.47599
#
# Static dielectric constant tensor:
#      x y z
#    x 3.016080 0.000000 0.000000 
#    y 0.000000 3.016080 0.000000 
#    z 0.000000 0.000000 3.274040 
# 
# 
# High freq. dielectric constant tensor:
#      x y z
#    x 1.613130 0.000000 0.000000 
#    y 0.000000 1.613130 0.000000 
#    z 0.000000 0.000000 1.641400 
# 
# From -- ./inp_files/5154.got.cif
#   From: 2010.03.12/outbox.cif.g09.slc.cpg/sg123_3_cif.got.tgz:5154.got - 2010.04.06 16:26:55.
