data_PCOD8312476
_publ_section_title
;
Structure prediction by ZEFSAII (Michael W. Deem and Ramdas Pophale) SiO2 
 PCOD8312476
Probable space group: P 4/M M M
;
_chemical_formula_sum "Si O2"
_cell_formula_units_Z 128
_cell_length_a 18.159252
_cell_length_b 18.159252
_cell_length_c 22.749175
_cell_angle_alpha 90.000000
_cell_angle_beta 90.000000
_cell_angle_gamma 90.000000
_cell_volume 7501.732305
_symmetry_space_group_name_H-M "P 4/M M M"
_symmetry_group_IT_number 123
_symmetry_cell_setting 'tetragonal'
loop_
_space_group_symop_operation_xyz
x,y,z
-y,x,z
-x,-y,z
y,-x,z
x,-y,-z
-x,y,-z
y,x,-z
-y,-x,-z
-x,-y,-z
y,-x,-z
x,y,-z
-y,x,-z
-x,y,z
x,-y,z
-y,-x,z
y,x,z
loop_
_atom_site_type_symbol
_atom_site_label
_atom_site_fract_x
_atom_site_fract_y
_atom_site_fract_z
Si Si1 0.687680 0.809017 0.142071
Si Si2 0.915965 0.415358 0.930549
Si Si3 0.192950 0.919458 0.818427
Si Si4 0.297614 0.584743 0.362371
Si Si5 0.805168 0.919374 0.680806
Si Si6 0.583595 0.790539 0.247567
Si Si7 0.359120 0.084413 0.326711
Si Si8 0.158813 0.413306 0.564986
O O1 0.742814 0.742814 0.118437
O O2 0.637386 0.850361 0.093573
O O3 0.733471 0.874197 0.171217
O O4 0.636137 0.774757 0.192451
O O5 0.900663 0.500000 0.910986
O O6 0.000000 0.393313 0.910253
O O7 0.911470 0.408410 0.000000
O O8 0.123247 0.876754 0.846818
O O9 0.180524 0.926604 0.749595
O O10 0.198839 0.000000 0.847964
O O11 0.314484 0.500000 0.375192
O O12 0.371822 0.628179 0.375439
O O13 0.273088 0.597368 0.295197
O O14 0.234404 0.615211 0.405759
O O15 0.864081 0.864081 0.651687
O O16 0.724438 0.886621 0.669857
O O17 0.813871 0.000000 0.651301
O O18 0.500000 0.789114 0.224634
O O19 0.596485 0.869617 0.278208
O O20 0.392351 0.091639 0.392140
O O21 0.362133 0.000000 0.305998
O O22 0.148254 0.378184 0.500000
O O23 0.161648 0.500000 0.559598
#
# Coordination Sequence:
#
# PCOD8312476 Si02
#       8
#    16  16  16  16  16  16  16  16
#     4  11  20  30  49  74 101 131 164 204 245 287
#     4   9  19  36  55  74 100 135 171 207 249 297
#     4   9  17  28  42  63  91 123 158 193 231 274
#     4   9  18  32  49  68  91 117 148 187 227 273
#     4   9  17  29  44  63  90 121 152 190 233 276
#     4  10  20  32  46  67  96 130 161 189 232 289
#     4  10  19  30  46  69  94 120 155 199 240 277
#     4   9  19  34  48  64  89 120 151 184 229 285
#
# _framework density 17.062725
#
# number of rings (size 3 to 8) (size 9 to 14) (size 15 to 20)
#    0.000    2.500    1.250    2.625    0.000    4.625 
#    0.000    1.875    0.000    0.000    0.000    1.750 
#    0.000    2.250    0.000   19.875    0.000    0.250 
#
# Total GULP energy -1586248.012840 kJ/mol
# GULP energy per Si atom -12392.562600 kJ/mol
# Density = 1.702389 g / cm^3
# Si number density = 17.062725 Si / 1000 Ang^3
#
#
#
# Elastic Constant Matrix: (Units=GPa)
#
#
# Indices 1 2 3 4 5 6 
#
# 1 73.9851 37.0213 13.0512 0.0000 0.0000 0.0000
# 2 37.0213 73.9851 13.0512 0.0000 0.0000 0.0000
# 3 13.0512 13.0512 44.0829 0.0000 0.0000 0.0000
# 4 0.0000 0.0000 0.0000 14.8131 0.0000 0.0000
# 5 0.0000 0.0000 0.0000 0.0000 14.8131 0.0000
# 6 0.0000 0.0000 0.0000 0.0000 0.0000 24.3183
#
#
#
# Elastic Compliance Matrix: (Units=1/GPa)
#
#
# Indices 1 2 3 4 5 6 
#
# 1 0.018368 -0.008685 -0.002867 0.000000 0.000000 0.000000
# 2 -0.008685 0.018368 -0.002867 0.000000 0.000000 0.000000
# 3 -0.002867 -0.002867 0.024382 0.000000 0.000000 0.000000
# 4 0.000000 0.000000 0.000000 0.067508 0.000000 0.000000
# 5 0.000000 0.000000 0.000000 0.000000 0.067508 0.000000
# 6 0.000000 0.000000 0.000000 0.000000 0.000000 0.041121
#
#
# Mechanical properties :
#
#
# Convention : Reuss Voigt Hill
#
# Bulk Modulus (GPa) = 30.97839 35.36671 33.17255
# Shear Modulus (GPa) = 18.06015 19.38419 18.72217
#
# Velocity S-wave (km/s) = 3.25692 3.37420 3.31608
# Velocity P-wave (km/s) = 5.68669 5.99606 5.84342
#
# Compressibility (1/GPa) = 0.03228057
#
# Stress axis : x y z
#
# Youngs Moduli (GPa) = 54.44252 54.44252 41.01396
#
# Poissons Ratio (x) = 0.47286 0.11757
# Poissons Ratio (y) = 0.47286 0.11757
# Poissons Ratio (z) = 0.15607 0.15607
#
# Static dielectric constant tensor:
#      x y z
#    x 3.289770 0.000000 0.000000 
#    y 0.000000 3.289770 0.000000 
#    z 0.000000 0.000000 2.994450 
# 
# 
# High freq. dielectric constant tensor:
#      x y z
#    x 1.657810 0.000000 0.000000 
#    y 0.000000 1.657810 0.000000 
#    z 0.000000 0.000000 1.623240 
# 
# From -- ./inp_files/7670.got.cif
#   From: 2010.03.12/outbox.cif.g09.slc.cpg/sg123_4_cif.got.tgz:7670.got - 2010.04.06 16:26:55.
