data_PCOD8312954
_publ_section_title
;
Structure prediction by ZEFSAII (Michael W. Deem and Ramdas Pophale) SiO2 
 PCOD8312954
Probable space group: P 4/M M M
;
_chemical_formula_sum "Si O2"
_cell_formula_units_Z 96
_cell_length_a 24.318192
_cell_length_b 24.318192
_cell_length_c 8.946307
_cell_angle_alpha 90.000000
_cell_angle_beta 90.000000
_cell_angle_gamma 90.000000
_cell_volume 5290.617490
_symmetry_space_group_name_H-M "P 4/M M M"
_symmetry_group_IT_number 123
_symmetry_cell_setting 'tetragonal'
loop_
_space_group_symop_operation_xyz
x,y,z
-y,x,z
-x,-y,z
y,-x,z
x,-y,-z
-x,y,-z
y,x,-z
-y,-x,-z
-x,-y,-z
y,-x,-z
x,y,-z
-y,x,-z
-x,y,z
x,-y,z
-y,-x,z
y,x,z
loop_
_atom_site_type_symbol
_atom_site_label
_atom_site_fract_x
_atom_site_fract_y
_atom_site_fract_z
Si Si1 0.935187 0.438520 0.330245
Si Si2 0.353928 0.560795 0.177980
Si Si3 0.148412 0.762304 0.675677
Si Si4 0.148266 0.061674 0.322285
Si Si5 0.439106 0.232007 0.177706
Si Si6 0.141370 0.356304 0.176981
O O1 0.914976 0.429588 0.500000
O O2 0.917130 0.500000 0.275245
O O3 0.912520 0.389506 0.227288
O O4 0.000000 0.433742 0.321282
O O5 0.371440 0.500000 0.230545
O O6 0.395958 0.604043 0.250631
O O7 0.292982 0.574792 0.236441
O O8 0.355118 0.564129 0.000000
O O9 0.145923 0.751312 0.500000
O O10 0.204032 0.795969 0.716712
O O11 0.095430 0.797710 0.728184
O O12 0.146110 0.704569 0.758742
O O13 0.146944 0.059133 0.500000
O O14 0.093611 0.093611 0.265100
O O15 0.149667 0.000000 0.254024
O O16 0.500000 0.214218 0.234623
O O17 0.392327 0.192030 0.240847
O O18 0.438938 0.230893 0.000000
O O19 0.141601 0.351443 0.000000
#
# Coordination Sequence:
#
# PCOD8312954 Si02
#       6
#    16  16  16  16  16  16
#     4   9  19  36  55  74  99 132 167 201 241 296
#     4   8  13  21  33  50  75 108 144 181 222 270
#     4   9  19  35  50  66  96 136 171 202 241 294
#     4   8  14  26  46  71  96 122 152 187 229 276
#     4   8  15  27  40  57  85 118 148 183 234 290
#     4  11  21  31  49  75  98 123 162 211 255 295
#
# _framework density 18.145329
#
# number of rings (size 3 to 8) (size 9 to 14) (size 15 to 20)
#    0.000    3.167    0.000    3.500    0.000    3.333 
#    0.000    5.833    0.000    0.000    0.000    0.000 
#    0.000    0.000    0.000    3.667    0.000    4.167 
#
# Total GULP energy -1189647.744564 kJ/mol
# GULP energy per Si atom -12392.164006 kJ/mol
# Density = 1.810403 g / cm^3
# Si number density = 18.145329 Si / 1000 Ang^3
#
#
#
# Elastic Constant Matrix: (Units=GPa)
#
#
# Indices 1 2 3 4 5 6 
#
# 1 150.8369 85.0206 34.0304 0.0000 0.0000 0.0000
# 2 85.0206 150.8369 34.0304 0.0000 0.0000 0.0000
# 3 34.0304 34.0304 33.4311 0.0000 0.0000 0.0000
# 4 0.0000 0.0000 0.0000 16.9281 0.0000 0.0000
# 5 0.0000 0.0000 0.0000 0.0000 16.9281 0.0000
# 6 0.0000 0.0000 0.0000 0.0000 0.0000 12.9227
#
#
#
# Elastic Compliance Matrix: (Units=1/GPa)
#
#
# Indices 1 2 3 4 5 6 
#
# 1 0.010599 -0.004595 -0.006111 0.000000 0.000000 0.000000
# 2 -0.004595 0.010599 -0.006111 0.000000 0.000000 0.000000
# 3 -0.006111 -0.006111 0.042353 0.000000 0.000000 0.000000
# 4 0.000000 0.000000 0.000000 0.059073 0.000000 0.000000
# 5 0.000000 0.000000 0.000000 0.000000 0.059073 0.000000
# 6 0.000000 0.000000 0.000000 0.000000 0.000000 0.077383
#
#
# Mechanical properties :
#
#
# Convention : Reuss Voigt Hill
#
# Bulk Modulus (GPa) = 33.42677 71.25197 52.33937
# Shear Modulus (GPa) = 16.51874 21.49066 19.00470
#
# Velocity S-wave (km/s) = 3.02049 3.44519 3.23981
# Velocity P-wave (km/s) = 5.53409 7.42822 6.54998
#
# Compressibility (1/GPa) = 0.02991614
#
# Stress axis : x y z
#
# Youngs Moduli (GPa) = 94.35270 94.35270 23.61100
#
# Poissons Ratio (x) = 0.43358 0.14428
# Poissons Ratio (y) = 0.43358 0.14428
# Poissons Ratio (z) = 0.57658 0.57658
#
# Static dielectric constant tensor:
#      x y z
#    x 3.607010 0.000000 0.000000 
#    y 0.000000 3.607010 0.000000 
#    z 0.000000 0.000000 2.836070 
# 
# 
# High freq. dielectric constant tensor:
#      x y z
#    x 1.710360 0.000000 0.000000 
#    y 0.000000 1.710360 0.000000 
#    z 0.000000 0.000000 1.648200 
# 
# From -- ./inp_files/1617.got.cif
#   From: 2010.03.12/outbox.cif.g09.slc.cpg/sg123_1_cif.got.tgz:1617.got - 2010.04.06 16:26:55.
