data_PCOD8312765
_publ_section_title
;
Structure prediction by ZEFSAII (Michael W. Deem and Ramdas Pophale) SiO2 
 PCOD8312765
Probable space group: P 4/M M M
;
_chemical_formula_sum "Si O2"
_cell_formula_units_Z 84
_cell_length_a 12.451388
_cell_length_b 12.451388
_cell_length_c 30.755283
_cell_angle_alpha 90.000000
_cell_angle_beta 90.000000
_cell_angle_gamma 90.000000
_cell_volume 4768.208752
_symmetry_space_group_name_H-M "P 4/M M M"
_symmetry_group_IT_number 123
_symmetry_cell_setting 'tetragonal'
loop_
_space_group_symop_operation_xyz
x,y,z
-y,x,z
-x,-y,z
y,-x,z
x,-y,-z
-x,y,-z
y,x,-z
-y,-x,-z
-x,-y,-z
y,-x,-z
x,y,-z
-y,x,-z
-x,y,z
x,-y,z
-y,-x,z
y,x,z
loop_
_atom_site_type_symbol
_atom_site_label
_atom_site_fract_x
_atom_site_fract_y
_atom_site_fract_z
Si Si1 0.209059 0.380117 0.285266
Si Si2 0.500000 0.685749 0.500000
Si Si3 0.880282 0.292177 0.370888
Si Si4 0.500000 0.127669 0.049023
Si Si5 0.705626 0.878695 0.202228
Si Si6 0.124356 0.500000 0.429060
Si Si7 0.124801 0.299401 0.104239
O O1 0.229290 0.500000 0.301257
O O2 0.324736 0.324736 0.281529
O O3 0.135324 0.319592 0.320194
O O4 0.150867 0.382916 0.238281
O O5 0.392997 0.607004 0.500000
O O6 0.500000 0.772211 0.460761
O O7 0.799208 0.200793 0.387042
O O8 0.860710 0.396245 0.399660
O O9 0.000000 0.247274 0.377002
O O10 0.606372 0.169288 0.073366
O O11 0.500000 0.000000 0.049946
O O12 0.500000 0.172671 0.000000
O O13 0.811919 0.811919 0.212090
O O14 0.660295 0.857291 0.153781
O O15 0.742311 0.000000 0.207114
O O16 0.000000 0.500000 0.449048
O O17 0.191382 0.191382 0.094540
O O18 0.000000 0.273153 0.095056
#
# Coordination Sequence:
#
# PCOD8312765 Si02
#       7
#    16   4  16   8  16   8  16
#     4  10  20  33  49  71 100 135 176 217 255 298
#     4  11  23  38  58  84 113 141 172 216 272 329
#     4  10  20  34  53  78 108 141 177 216 258 305
#     4   9  18  32  49  70  95 124 158 196 241 295
#     4   9  18  30  46  70  98 129 164 202 244 291
#     4  10  20  37  59  81 107 140 180 222 262 310
#     4   9  18  32  50  74 101 129 163 202 247 297
#
# _framework density 17.616676999999999
#
# number of rings (size 3 to 8) (size 9 to 14) (size 15 to 20)
#    0.000    2.429    0.952    1.286    1.333    2.286 
#    0.000    1.905    0.000    3.714    0.000    3.333 
#    0.000    6.857    0.000    0.000    0.000    0.000 
#
# Total GULP energy -1041080.798117 kJ/mol
# GULP energy per Si atom -12393.819025 kJ/mol
# Density = 1.757658 g / cm^3
# Si number density = 17.616677 Si / 1000 Ang^3
#
#
#
# Elastic Constant Matrix: (Units=GPa)
#
#
# Indices 1 2 3 4 5 6 
#
# 1 92.5171 71.3072 44.3404 0.0000 0.0000 0.0000
# 2 71.3072 92.5169 44.3403 0.0000 0.0000 0.0000
# 3 44.3404 44.3403 90.5001 0.0000 0.0000 0.0000
# 4 0.0000 0.0000 0.0000 24.9671 0.0000 0.0000
# 5 0.0000 0.0000 0.0000 0.0000 24.9669 0.0000
# 6 0.0000 0.0000 0.0000 0.0000 0.0000 21.0975
#
#
#
# Elastic Compliance Matrix: (Units=1/GPa)
#
#
# Indices 1 2 3 4 5 6 
#
# 1 0.027728 -0.019420 -0.004070 0.000000 0.000000 0.000000
# 2 -0.019420 0.027728 -0.004070 0.000000 0.000000 0.000000
# 3 -0.004070 -0.004070 0.015038 0.000000 0.000000 0.000000
# 4 0.000000 0.000000 0.000000 0.040053 0.000000 0.000000
# 5 0.000000 0.000000 0.000000 0.000000 0.040053 0.000000
# 6 0.000000 0.000000 0.000000 0.000000 0.000000 0.047399
#
#
# Mechanical properties :
#
#
# Convention : Reuss Voigt Hill
#
# Bulk Modulus (GPa) = 65.05302 66.16777 65.61040
# Shear Modulus (GPa) = 19.36156 21.90938 20.63547
#
# Velocity S-wave (km/s) = 3.31879 3.53040 3.42623
# Velocity P-wave (km/s) = 7.18978 7.36611 7.27848
#
# Compressibility (1/GPa) = 0.01537208
#
# Stress axis : x y z
#
# Youngs Moduli (GPa) = 36.06506 36.06498 66.49798
#
# Poissons Ratio (x) = 0.70039 0.27066
# Poissons Ratio (y) = 0.70040 0.27066
# Poissons Ratio (z) = 0.14679 0.14679
#
# Static dielectric constant tensor:
#      x y z
#    x 3.232580 0.000000 0.000000 
#    y 0.000000 3.232580 0.000000 
#    z 0.000000 0.000000 3.416790 
# 
# 
# High freq. dielectric constant tensor:
#      x y z
#    x 1.673850 0.000000 0.000000 
#    y 0.000000 1.673850 0.000000 
#    z 0.000000 0.000000 1.683370 
# 
# From -- ./inp_files/8550.got.cif
#   From: 2010.03.12/outbox.cif.g09.slc.cpg/sg123_5_cif.got.tgz:8550.got - 2010.04.06 16:26:55.
