data_PCOD8312141
_publ_section_title
;
Structure prediction by ZEFSAII (Michael W. Deem and Ramdas Pophale) SiO2 
 PCOD8312141
Probable space group: P 4/M M M
;
_chemical_formula_sum "Si O2"
_cell_formula_units_Z 112
_cell_length_a 20.178037
_cell_length_b 20.178037
_cell_length_c 16.557405
_cell_angle_alpha 90.000000
_cell_angle_beta 90.000000
_cell_angle_gamma 90.000000
_cell_volume 6741.400051
_symmetry_space_group_name_H-M "P 4/M M M"
_symmetry_group_IT_number 123
_symmetry_cell_setting 'tetragonal'
loop_
_space_group_symop_operation_xyz
x,y,z
-y,x,z
-x,-y,z
y,-x,z
x,-y,-z
-x,y,-z
y,x,-z
-y,-x,-z
-x,-y,-z
y,-x,-z
x,y,-z
-y,x,-z
-x,y,z
x,-y,z
-y,-x,z
y,x,z
loop_
_atom_site_type_symbol
_atom_site_label
_atom_site_fract_x
_atom_site_fract_y
_atom_site_fract_z
Si Si1 0.077600 0.186689 0.406560
Si Si2 0.318695 0.425327 0.735363
Si Si3 0.694342 0.850191 0.681240
Si Si4 0.228042 0.669521 0.162707
Si Si5 0.369366 0.738336 0.412979
Si Si6 0.572425 0.075225 0.742060
Si Si7 0.575052 0.869357 0.911487
O O1 0.085356 0.209269 0.500000
O O2 0.118943 0.118943 0.391238
O O3 0.105095 0.243663 0.346536
O O4 0.000000 0.173623 0.386389
O O5 0.330874 0.500000 0.764812
O O6 0.389783 0.389783 0.725874
O O7 0.274072 0.386258 0.798360
O O8 0.276547 0.426766 0.651863
O O9 0.705517 0.817716 0.769509
O O10 0.682589 0.794385 0.614547
O O11 0.626791 0.891982 0.685493
O O12 0.273251 0.726750 0.122413
O O13 0.187535 0.630922 0.094276
O O14 0.400424 0.757793 0.500000
O O15 0.328755 0.671245 0.421546
O O16 0.500000 0.107663 0.724736
O O17 0.588290 0.080029 0.838109
O O18 0.570937 0.000000 0.716655
O O19 0.500000 0.840432 0.904717
O O20 0.583948 0.903401 0.000000
#
# Coordination Sequence:
#
# PCOD8312141 Si02
#       7
#    16  16  16  16  16  16  16
#     4  10  20  32  47  67  90 117 148 182 219 258
#     4   9  17  28  41  57  78 106 140 177 217 260
#     4  10  17  28  47  67  85 109 144 179 209 250
#     4   9  17  28  43  62  84 109 134 167 212 254
#     4   9  17  28  42  60  81 104 132 171 215 253
#     4   9  18  31  45  62  86 114 140 168 204 243
#     4   9  17  28  43  63  84 107 137 169 198 236
#
# _framework density 16.613759999999999
#
# number of rings (size 3 to 8) (size 9 to 14) (size 15 to 20)
#    0.000    2.714    0.000    3.429    0.000    5.714 
#    0.000    2.143    0.000    1.286    0.000    7.000 
#    0.000    0.000    0.000   13.286    0.000    3.143 
#
# Total GULP energy -1387549.560454 kJ/mol
# GULP energy per Si atom -12388.835361 kJ/mol
# Density = 1.657595 g / cm^3
# Si number density = 16.613760 Si / 1000 Ang^3
#
#
#
# Elastic Constant Matrix: (Units=GPa)
#
#
# Indices 1 2 3 4 5 6 
#
# 1 77.2346 30.2503 8.1632 0.0000 0.0000 0.0000
# 2 30.2503 77.2346 8.1632 0.0000 0.0000 0.0000
# 3 8.1632 8.1632 38.2212 0.0000 0.0000 0.0000
# 4 0.0000 0.0000 0.0000 15.8595 0.0000 0.0000
# 5 0.0000 0.0000 0.0000 0.0000 15.8595 0.0000
# 6 0.0000 0.0000 0.0000 0.0000 0.0000 23.1886
#
#
#
# Elastic Compliance Matrix: (Units=1/GPa)
#
#
# Indices 1 2 3 4 5 6 
#
# 1 0.015450 -0.005834 -0.002054 0.000000 0.000000 0.000000
# 2 -0.005834 0.015450 -0.002054 0.000000 0.000000 0.000000
# 3 -0.002054 -0.002054 0.027041 0.000000 0.000000 0.000000
# 4 0.000000 0.000000 0.000000 0.063054 0.000000 0.000000
# 5 0.000000 0.000000 0.000000 0.000000 0.063054 0.000000
# 6 0.000000 0.000000 0.000000 0.000000 0.000000 0.043125
#
#
# Mechanical properties :
#
#
# Convention : Reuss Voigt Hill
#
# Bulk Modulus (GPa) = 26.27626 31.76042 29.01834
# Shear Modulus (GPa) = 19.25001 20.72246 19.98624
#
# Velocity S-wave (km/s) = 3.40763 3.53556 3.47218
# Velocity P-wave (km/s) = 5.59758 5.98542 5.79475
#
# Compressibility (1/GPa) = 0.03805716
#
# Stress axis : x y z
#
# Youngs Moduli (GPa) = 64.72644 64.72644 36.98129
#
# Poissons Ratio (x) = 0.37762 0.07595
# Poissons Ratio (y) = 0.37762 0.07595
# Poissons Ratio (z) = 0.13293 0.13293
#
# Static dielectric constant tensor:
#      x y z
#    x 3.107860 0.000000 0.000000 
#    y 0.000000 3.107860 0.000000 
#    z 0.000000 0.000000 3.094410 
# 
# 
# High freq. dielectric constant tensor:
#      x y z
#    x 1.630760 0.000000 0.000000 
#    y 0.000000 1.630760 0.000000 
#    z 0.000000 0.000000 1.621640 
# 
# From -- ./inp_files/5871.got.cif
#   From: 2010.03.12/outbox.cif.g09.slc.cpg/sg123_3_cif.got.tgz:5871.got - 2010.04.06 16:26:55.
