data_PCOD8312839
_publ_section_title
;
Structure prediction by ZEFSAII (Michael W. Deem and Ramdas Pophale) SiO2 
 PCOD8312839
Probable space group: P 4/M M M
;
_chemical_formula_sum "Si O2"
_cell_formula_units_Z 120
_cell_length_a 27.887002
_cell_length_b 27.887002
_cell_length_c 7.948498
_cell_angle_alpha 90.000000
_cell_angle_beta 90.000000
_cell_angle_gamma 90.000000
_cell_volume 6181.426718
_symmetry_space_group_name_H-M "P 4/M M M"
_symmetry_group_IT_number 123
_symmetry_cell_setting 'tetragonal'
loop_
_space_group_symop_operation_xyz
x,y,z
-y,x,z
-x,-y,z
y,-x,z
x,-y,-z
-x,y,-z
y,x,-z
-y,-x,-z
-x,-y,-z
y,-x,-z
x,y,-z
-y,x,-z
-x,y,z
x,-y,z
-y,-x,z
y,x,z
loop_
_atom_site_type_symbol
_atom_site_label
_atom_site_fract_x
_atom_site_fract_y
_atom_site_fract_z
Si Si1 0.443599 0.636324 0.000000
Si Si2 0.605938 0.316131 0.309985
Si Si3 0.132042 0.554214 0.699306
Si Si4 0.126900 0.794008 0.308626
Si Si5 0.128670 0.053399 0.700718
Si Si6 0.690882 0.130473 0.190365
Si Si7 0.052867 0.625849 0.693953
Si Si8 0.620995 0.211202 0.806614
O O1 0.432245 0.667245 0.168375
O O2 0.500000 0.623582 0.000000
O O3 0.413126 0.586875 0.000000
O O4 0.585984 0.325945 0.500000
O O5 0.655163 0.344837 0.279951
O O6 0.618069 0.260028 0.297654
O O7 0.137042 0.560528 0.500000
O O8 0.123618 0.500000 0.754163
O O9 0.086359 0.583839 0.770483
O O10 0.181133 0.572099 0.784464
O O11 0.118298 0.777729 0.500000
O O12 0.173554 0.826447 0.293824
O O13 0.080820 0.823309 0.239884
O O14 0.135981 0.747728 0.196522
O O15 0.127770 0.052588 0.500000
O O16 0.081780 0.081780 0.766937
O O17 0.128300 0.000000 0.777234
O O18 0.675865 0.081382 0.283934
O O19 0.664525 0.177821 0.265517
O O20 0.673345 0.125608 0.000000
O O21 0.044639 0.615581 0.500000
O O22 0.000000 0.627492 0.781352
O O23 0.629286 0.225195 0.000000
#
# Coordination Sequence:
#
# PCOD8312839 Si02
#       8
#     8  16  16  16  16  16  16  16
#     4  10  22  41  64  92 126 160 197 241 283 329
#     4  10  21  38  61  88 119 156 196 238 285 337
#     4   9  18  32  50  74 103 133 170 218 267 319
#     4   9  18  32  48  68  97 130 164 203 248 304
#     4   8  14  25  42  65  92 121 154 196 248 307
#     4  10  21  34  50  73 101 134 173 220 268 318
#     4   9  18  33  52  72  96 130 171 214 263 318
#     4  10  20  35  53  75 108 145 180 224 277 330
#
# _framework density 19.412994000000001
#
# number of rings (size 3 to 8) (size 9 to 14) (size 15 to 20)
#    0.000    2.667    0.667    1.600    0.000    4.733 
#    0.000    6.000    0.000    0.000    0.000    5.600 
#    0.000    0.000    0.000    2.933    0.000    2.933 
#
# Total GULP energy -1487553.743375 kJ/mol
# GULP energy per Si atom -12396.281195 kJ/mol
# Density = 1.936881 g / cm^3
# Si number density = 19.412994 Si / 1000 Ang^3
#
#
#
# Elastic Constant Matrix: (Units=GPa)
#
#
# Indices 1 2 3 4 5 6 
#
# 1 138.9271 49.3126 26.3489 0.0000 0.0000 0.0000
# 2 49.3126 138.9265 26.3487 0.0000 0.0000 0.0000
# 3 26.3489 26.3487 58.1954 0.0000 0.0000 0.0000
# 4 0.0000 0.0000 0.0000 16.3597 0.0000 0.0000
# 5 0.0000 0.0000 0.0000 0.0000 16.3596 0.0000
# 6 0.0000 0.0000 0.0000 0.0000 0.0000 13.6014
#
#
#
# Elastic Compliance Matrix: (Units=1/GPa)
#
#
# Indices 1 2 3 4 5 6 
#
# 1 0.008621 -0.002538 -0.002754 0.000000 0.000000 0.000000
# 2 -0.002538 0.008621 -0.002754 0.000000 0.000000 0.000000
# 3 -0.002754 -0.002754 0.019678 0.000000 0.000000 0.000000
# 4 0.000000 0.000000 0.000000 0.061126 0.000000 0.000000
# 5 0.000000 0.000000 0.000000 0.000000 0.061126 0.000000
# 6 0.000000 0.000000 0.000000 0.000000 0.000000 0.073522
#
#
# Mechanical properties :
#
#
# Convention : Reuss Voigt Hill
#
# Bulk Modulus (GPa) = 48.01439 60.00771 54.01105
# Shear Modulus (GPa) = 19.55194 24.86674 22.20934
#
# Velocity S-wave (km/s) = 3.17702 3.58289 3.38604
# Velocity P-wave (km/s) = 6.18423 6.93501 6.57035
#
# Compressibility (1/GPa) = 0.02082709
#
# Stress axis : x y z
#
# Youngs Moduli (GPa) = 115.99327 115.99283 50.81905
#
# Poissons Ratio (x) = 0.29436 0.13998
# Poissons Ratio (y) = 0.29436 0.13997
# Poissons Ratio (z) = 0.31949 0.31949
#
# Static dielectric constant tensor:
#      x y z
#    x 3.554440 0.000000 0.000000 
#    y 0.000000 3.554440 0.000000 
#    z 0.000000 0.000000 3.388100 
# 
# 
# High freq. dielectric constant tensor:
#      x y z
#    x 1.750340 0.000000 0.000000 
#    y 0.000000 1.750340 0.000000 
#    z 0.000000 0.000000 1.741390 
# 
# From -- ./inp_files/2067.got.cif
#   From: 2010.03.12/outbox.cif.g09.slc.cpg/sg123_2_cif.got.tgz:2067.got - 2010.04.06 16:26:55.
