data_PCOD8312610
_publ_section_title
;
Structure prediction by ZEFSAII (Michael W. Deem and Ramdas Pophale) SiO2 
 PCOD8312610
Probable space group: P 4/M M M
;
_chemical_formula_sum "Si O2"
_cell_formula_units_Z 72
_cell_length_a 21.254681
_cell_length_b 21.254681
_cell_length_c 8.781209
_cell_angle_alpha 90.000000
_cell_angle_beta 90.000000
_cell_angle_gamma 90.000000
_cell_volume 3967.011837
_symmetry_space_group_name_H-M "P 4/M M M"
_symmetry_group_IT_number 123
_symmetry_cell_setting 'tetragonal'
loop_
_space_group_symop_operation_xyz
x,y,z
-y,x,z
-x,-y,z
y,-x,z
x,-y,-z
-x,y,-z
y,x,-z
-y,-x,-z
-x,-y,-z
y,-x,-z
x,y,-z
-y,x,-z
-x,y,z
x,-y,z
-y,-x,z
y,x,z
loop_
_atom_site_type_symbol
_atom_site_label
_atom_site_fract_x
_atom_site_fract_y
_atom_site_fract_z
Si Si1 0.930745 0.500000 0.679699
Si Si2 0.829303 0.401911 0.679603
Si Si3 0.163515 0.266650 0.177079
Si Si4 0.928101 0.826690 0.676729
Si Si5 0.598800 0.500000 0.181035
Si Si6 0.500000 0.260460 0.819217
O O1 0.937988 0.500000 0.500000
O O2 0.893325 0.437373 0.731321
O O3 0.000000 0.500000 0.756512
O O4 0.820007 0.407061 0.500000
O O5 0.831405 0.329989 0.727881
O O6 0.771197 0.436399 0.759039
O O7 0.224154 0.224154 0.215284
O O8 0.100528 0.230175 0.225740
O O9 0.159519 0.283036 0.000000
O O10 0.922460 0.808267 0.500000
O O11 0.891428 0.891428 0.711535
O O12 0.000000 0.836903 0.726421
O O13 0.562177 0.562177 0.239030
O O14 0.668948 0.500000 0.246616
O O15 0.600573 0.500000 0.000000
O O16 0.500000 0.258068 0.000000
#
# Coordination Sequence:
#
# PCOD8312610 Si02
#       6
#     8  16  16  16   8   8
#     4   8  16  32  52  73  97 126 161 200 243 295
#     4  10  20  34  53  76 102 133 170 213 260 307
#     4  10  21  36  53  74 102 136 174 217 264 312
#     4   9  18  33  53  77 105 137 173 213 258 309
#     4   8  15  29  49  73  99 127 163 206 247 289
#     4  10  19  32  52  77 106 138 171 208 251 302
#
# _framework density 18.149681000000001
#
# number of rings (size 3 to 8) (size 9 to 14) (size 15 to 20)
#    0.000    2.667    0.000    2.667    0.000    3.778 
#    0.000    5.556    0.000   13.333    0.000    6.222 
#    0.000    0.000    0.000    0.000    0.000    0.000 
#
# Total GULP energy -892775.927896 kJ/mol
# GULP energy per Si atom -12399.665665 kJ/mol
# Density = 1.810837 g / cm^3
# Si number density = 18.149681 Si / 1000 Ang^3
#
#
#
# Elastic Constant Matrix: (Units=GPa)
#
#
# Indices 1 2 3 4 5 6 
#
# 1 152.3314 64.5155 35.0584 0.0000 0.0000 0.0000
# 2 64.5155 152.3314 35.0584 0.0000 0.0000 0.0000
# 3 35.0584 35.0584 55.1971 0.0000 0.0000 0.0000
# 4 0.0000 0.0000 0.0000 27.4026 0.0000 0.0000
# 5 0.0000 0.0000 0.0000 0.0000 27.4026 0.0000
# 6 0.0000 0.0000 0.0000 0.0000 0.0000 9.6061
#
#
#
# Elastic Compliance Matrix: (Units=1/GPa)
#
#
# Indices 1 2 3 4 5 6 
#
# 1 0.008595 -0.002792 -0.003686 0.000000 0.000000 0.000000
# 2 -0.002792 0.008595 -0.003686 0.000000 0.000000 0.000000
# 3 -0.003686 -0.003686 0.022799 0.000000 0.000000 0.000000
# 4 0.000000 0.000000 0.000000 0.036493 0.000000 0.000000
# 5 0.000000 0.000000 0.000000 0.000000 0.036493 0.000000
# 6 0.000000 0.000000 0.000000 0.000000 0.000000 0.104101
#
#
# Mechanical properties :
#
#
# Convention : Reuss Voigt Hill
#
# Bulk Modulus (GPa) = 50.85966 69.90274 60.38120
# Shear Modulus (GPa) = 20.49526 27.89743 24.19634
#
# Velocity S-wave (km/s) = 3.36406 3.92481 3.65520
# Velocity P-wave (km/s) = 6.57057 7.69006 7.15225
#
# Compressibility (1/GPa) = 0.01966195
#
# Stress axis : x y z
#
# Youngs Moduli (GPa) = 116.34082 116.34082 43.86111
#
# Poissons Ratio (x) = 0.32483 0.16167
# Poissons Ratio (y) = 0.32483 0.16167
# Poissons Ratio (z) = 0.42884 0.42884
#
# Static dielectric constant tensor:
#      x y z
#    x 3.494910 0.000000 0.000000 
#    y 0.000000 3.494910 0.000000 
#    z 0.000000 0.000000 3.201960 
# 
# 
# High freq. dielectric constant tensor:
#      x y z
#    x 1.706930 0.000000 0.000000 
#    y 0.000000 1.706930 0.000000 
#    z 0.000000 0.000000 1.689650 
# 
# From -- ./inp_files/1198.got.cif
#   From: 2010.03.12/outbox.cif.g09.slc.cpg/sg123_1_cif.got.tgz:1198.got - 2010.04.06 16:26:55.
