data_PCOD8312484
_publ_section_title
;
Structure prediction by ZEFSAII (Michael W. Deem and Ramdas Pophale) SiO2 
 PCOD8312484
Probable space group: P 4/M M M
;
_chemical_formula_sum "Si O2"
_cell_formula_units_Z 112
_cell_length_a 18.805214
_cell_length_b 18.805214
_cell_length_c 18.656776
_cell_angle_alpha 90.000000
_cell_angle_beta 90.000000
_cell_angle_gamma 90.000000
_cell_volume 6597.709010
_symmetry_space_group_name_H-M "P 4/M M M"
_symmetry_group_IT_number 123
_symmetry_cell_setting 'tetragonal'
loop_
_space_group_symop_operation_xyz
x,y,z
-y,x,z
-x,-y,z
y,-x,z
x,-y,-z
-x,y,-z
y,x,-z
-y,-x,-z
-x,-y,-z
y,-x,-z
x,y,-z
-y,x,-z
-x,y,z
x,-y,z
-y,-x,z
y,x,z
loop_
_atom_site_type_symbol
_atom_site_label
_atom_site_fract_x
_atom_site_fract_y
_atom_site_fract_z
Si Si1 0.918105 0.800797 0.850697
Si Si2 0.153607 0.417680 0.788903
Si Si3 0.709702 0.917806 0.286340
Si Si4 0.345925 0.918034 0.081907
Si Si5 0.281859 0.166850 0.578561
Si Si6 0.753893 0.420578 0.420901
Si Si7 0.420321 0.308071 0.729846
O O1 0.867679 0.867679 0.867528
O O2 0.899910 0.768865 0.772857
O O3 0.903229 0.738108 0.907826
O O4 0.000000 0.826731 0.854964
O O5 0.132139 0.500000 0.776355
O O6 0.113803 0.367257 0.732715
O O7 0.133374 0.394342 0.869645
O O8 0.236977 0.406382 0.775251
O O9 0.740420 0.888779 0.361018
O O10 0.697259 0.000000 0.294573
O O11 0.361487 0.000000 0.103879
O O12 0.366617 0.903161 0.000000
O O13 0.262947 0.135311 0.500000
O O14 0.241159 0.241159 0.591178
O O15 0.365894 0.181095 0.584250
O O16 0.716713 0.412278 0.500000
O O17 0.786023 0.500000 0.412296
O O18 0.700323 0.406565 0.355503
O O19 0.500000 0.335341 0.743109
O O20 0.366963 0.366963 0.760256
#
# Coordination Sequence:
#
# PCOD8312484 Si02
#       7
#    16  16  16  16  16  16  16
#     4   9  18  32  50  72  98 128 160 194 234 283
#     4  10  20  33  50  74  99 127 164 199 232 279
#     4  10  20  32  47  68  96 129 161 200 248 290
#     4   9  19  35  53  75 103 131 157 189 235 286
#     4  10  19  30  47  68  90 123 166 206 245 290
#     4   9  17  29  46  69  96 124 158 201 245 288
#     4  10  20  33  50  72  98 129 165 207 251 293
#
# _framework density 16.97559
#
# number of rings (size 3 to 8) (size 9 to 14) (size 15 to 20)
#    0.000    2.429    1.429    2.143    0.000    5.429 
#    0.000    0.714    0.000    0.000    0.000    7.000 
#    0.000    0.000    0.000   16.429    0.000    0.000 
#
# Total GULP energy -1388222.424850 kJ/mol
# GULP energy per Si atom -12394.843079 kJ/mol
# Density = 1.693695 g / cm^3
# Si number density = 16.975590 Si / 1000 Ang^3
#
#
#
# Elastic Constant Matrix: (Units=GPa)
#
#
# Indices 1 2 3 4 5 6 
#
# 1 61.5027 52.7065 33.7283 0.0000 0.0000 0.0000
# 2 52.7065 61.5027 33.7283 0.0000 0.0000 0.0000
# 3 33.7283 33.7283 96.1197 0.0000 0.0000 0.0000
# 4 0.0000 0.0000 0.0000 16.1695 0.0000 0.0000
# 5 0.0000 0.0000 0.0000 0.0000 16.1695 0.0000
# 6 0.0000 0.0000 0.0000 0.0000 0.0000 26.6472
#
#
#
# Elastic Compliance Matrix: (Units=1/GPa)
#
#
# Indices 1 2 3 4 5 6 
#
# 1 0.062365 -0.051320 -0.003876 0.000000 0.000000 0.000000
# 2 -0.051320 0.062365 -0.003876 0.000000 0.000000 0.000000
# 3 -0.003876 -0.003876 0.013124 0.000000 0.000000 0.000000
# 4 0.000000 0.000000 0.000000 0.061845 0.000000 0.000000
# 5 0.000000 0.000000 0.000000 0.000000 0.061845 0.000000
# 6 0.000000 0.000000 0.000000 0.000000 0.000000 0.037527
#
#
# Mechanical properties :
#
#
# Convention : Reuss Voigt Hill
#
# Bulk Modulus (GPa) = 50.73331 51.05015 50.89173
# Shear Modulus (GPa) = 11.79846 18.39471 15.09658
#
# Velocity S-wave (km/s) = 2.63919 3.29538 2.98537
# Velocity P-wave (km/s) = 6.26403 6.67962 6.47516
#
# Compressibility (1/GPa) = 0.01971091
#
# Stress axis : x y z
#
# Youngs Moduli (GPa) = 16.03459 16.03459 76.19832
#
# Poissons Ratio (x) = 0.82290 0.29532
# Poissons Ratio (y) = 0.82290 0.29532
# Poissons Ratio (z) = 0.06215 0.06215
#
# Static dielectric constant tensor:
#      x y z
#    x 3.041700 0.000000 0.000000 
#    y 0.000000 3.041700 0.000000 
#    z 0.000000 0.000000 3.321740 
# 
# 
# High freq. dielectric constant tensor:
#      x y z
#    x 1.640210 0.000000 0.000000 
#    y 0.000000 1.640210 0.000000 
#    z 0.000000 0.000000 1.656580 
# 
# From -- ./inp_files/6646.got.cif
#   From: 2010.03.12/outbox.cif.g09.slc.cpg/sg123_4_cif.got.tgz:6646.got - 2010.04.06 16:26:55.
