data_PCOD8312408
_publ_section_title
;
Structure prediction by ZEFSAII (Michael W. Deem and Ramdas Pophale) SiO2 
 PCOD8312408
Probable space group: P 4/M M M
;
_chemical_formula_sum "Si O2"
_cell_formula_units_Z 96
_cell_length_a 14.203437
_cell_length_b 14.203437
_cell_length_c 30.487655
_cell_angle_alpha 90.000000
_cell_angle_beta 90.000000
_cell_angle_gamma 90.000000
_cell_volume 6150.507039
_symmetry_space_group_name_H-M "P 4/M M M"
_symmetry_group_IT_number 123
_symmetry_cell_setting 'tetragonal'
loop_
_space_group_symop_operation_xyz
x,y,z
-y,x,z
-x,-y,z
y,-x,z
x,-y,-z
-x,y,-z
y,x,-z
-y,-x,-z
-x,-y,-z
y,-x,-z
x,y,-z
-y,x,-z
-x,y,z
x,-y,z
-y,-x,z
y,x,z
loop_
_atom_site_type_symbol
_atom_site_label
_atom_site_fract_x
_atom_site_fract_y
_atom_site_fract_z
Si Si1 0.108077 0.392076 0.582409
Si Si2 0.261035 0.108629 0.076305
Si Si3 0.735547 0.890373 0.500000
Si Si4 0.107588 0.609276 0.746309
Si Si5 0.235415 0.610274 0.665229
Si Si6 0.395712 0.888409 0.000000
Si Si7 0.107532 0.259482 0.824821
O O1 0.123676 0.500000 0.567867
O O2 0.136317 0.325932 0.542206
O O3 0.174067 0.364870 0.622782
O O4 0.000000 0.376250 0.596751
O O5 0.165382 0.165382 0.067764
O O6 0.298217 0.124016 0.125903
O O7 0.236787 0.000000 0.066927
O O8 0.341635 0.145967 0.043596
O O9 0.831525 0.831525 0.500000
O O10 0.763189 0.000000 0.500000
O O11 0.120130 0.500000 0.755744
O O12 0.174643 0.642450 0.707059
O O13 0.138703 0.660179 0.790969
O O14 0.000000 0.633065 0.733274
O O15 0.260457 0.500000 0.667108
O O16 0.332654 0.667347 0.664052
O O17 0.500000 0.843229 0.000000
O O18 0.403714 0.000000 0.000000
O O19 0.166085 0.166085 0.815478
O O20 0.000000 0.230124 0.817702
#
# Coordination Sequence:
#
# PCOD8312408 Si02
#       7
#    16  16   8  16  16   8  16
#     4   9  17  30  48  68  87 108 139 179 218 251
#     4   9  17  28  42  61  85 112 140 169 202 243
#     4  10  19  30  45  65  90 118 145 173 206 247
#     4   9  17  29  45  64  84 108 141 179 215 248
#     4  10  19  30  45  64  87 114 141 172 211 255
#     4   9  17  28  41  57  79 107 137 169 205 242
#     4   9  17  28  42  61  85 112 140 170 204 244
#
# _framework density 15.608470000000001
#
# number of rings (size 3 to 8) (size 9 to 14) (size 15 to 20)
#    0.000    2.750    0.000    2.000    0.000    4.250 
#    0.000    5.000    0.000    1.500    0.000    0.000 
#    0.000   20.667    0.000   12.333    0.000    1.000 
#
# Total GULP energy -1190332.840370 kJ/mol
# GULP energy per Si atom -12399.300421 kJ/mol
# Density = 1.557294 g / cm^3
# Si number density = 15.608470 Si / 1000 Ang^3
#
#
#
# Elastic Constant Matrix: (Units=GPa)
#
#
# Indices 1 2 3 4 5 6 
#
# 1 76.6832 51.3869 62.5855 0.0000 0.0000 0.0000
# 2 51.3869 76.6832 62.5855 0.0000 0.0000 0.0000
# 3 62.5855 62.5855 128.5403 0.0000 0.0000 0.0000
# 4 0.0000 0.0000 0.0000 23.6072 0.0000 0.0000
# 5 0.0000 0.0000 0.0000 0.0000 23.6072 0.0000
# 6 0.0000 0.0000 0.0000 0.0000 0.0000 24.3433
#
#
#
# Elastic Compliance Matrix: (Units=1/GPa)
#
#
# Indices 1 2 3 4 5 6 
#
# 1 0.027215 -0.012317 -0.007254 0.000000 0.000000 0.000000
# 2 -0.012317 0.027215 -0.007254 0.000000 0.000000 0.000000
# 3 -0.007254 -0.007254 0.014843 0.000000 0.000000 0.000000
# 4 0.000000 0.000000 0.000000 0.042360 0.000000 0.000000
# 5 0.000000 0.000000 0.000000 0.000000 0.042360 0.000000
# 6 0.000000 0.000000 0.000000 0.000000 0.000000 0.041079
#
#
# Mechanical properties :
#
#
# Convention : Reuss Voigt Hill
#
# Bulk Modulus (GPa) = 64.00388 70.55805 67.28097
# Shear Modulus (GPa) = 19.69065 21.33476 20.51271
#
# Velocity S-wave (km/s) = 3.55566 3.70113 3.62913
# Velocity P-wave (km/s) = 7.61261 7.97293 7.79485
#
# Compressibility (1/GPa) = 0.01562405
#
# Stress axis : x y z
#
# Youngs Moduli (GPa) = 36.74501 36.74501 67.37157
#
# Poissons Ratio (x) = 0.45259 0.48868
# Poissons Ratio (y) = 0.45259 0.48868
# Poissons Ratio (z) = 0.26653 0.26653
#
# Static dielectric constant tensor:
#      x y z
#    x 2.873760 0.000000 0.000000 
#    y 0.000000 2.873760 0.000000 
#    z 0.000000 0.000000 3.171720 
# 
# 
# High freq. dielectric constant tensor:
#      x y z
#    x 1.584540 0.000000 0.000000 
#    y 0.000000 1.584540 0.000000 
#    z 0.000000 0.000000 1.613890 
# 
# From -- ./inp_files/8664.got.cif
#   From: 2010.03.12/outbox.cif.g09.slc.cpg/sg123_5_cif.got.tgz:8664.got - 2010.04.06 16:26:55.
