data_PCOD8312311
_publ_section_title
;
Structure prediction by ZEFSAII (Michael W. Deem and Ramdas Pophale) SiO2 
 PCOD8312311
Probable space group: P 4/M M M
;
_chemical_formula_sum "Si O2"
_cell_formula_units_Z 112
_cell_length_a 19.603570
_cell_length_b 19.603570
_cell_length_c 19.035750
_cell_angle_alpha 90.000000
_cell_angle_beta 90.000000
_cell_angle_gamma 90.000000
_cell_volume 7315.437902
_symmetry_space_group_name_H-M "P 4/M M M"
_symmetry_group_IT_number 123
_symmetry_cell_setting 'tetragonal'
loop_
_space_group_symop_operation_xyz
x,y,z
-y,x,z
-x,-y,z
y,-x,z
x,-y,-z
-x,y,-z
y,x,-z
-y,-x,-z
-x,-y,-z
y,-x,-z
x,y,-z
-y,x,-z
-x,y,z
x,-y,z
-y,-x,z
y,x,z
loop_
_atom_site_type_symbol
_atom_site_label
_atom_site_fract_x
_atom_site_fract_y
_atom_site_fract_z
Si Si1 0.722939 0.836634 0.789067
Si Si2 0.785825 0.328693 0.922497
Si Si3 0.421927 0.688356 0.842530
Si Si4 0.744982 0.365725 0.703445
Si Si5 0.820927 0.422898 0.420428
Si Si6 0.698072 0.922147 0.419902
Si Si7 0.920537 0.191932 0.693150
O O1 0.771097 0.771097 0.790235
O O2 0.693360 0.846430 0.868271
O O3 0.662556 0.816662 0.735062
O O4 0.764079 0.903290 0.763320
O O5 0.731091 0.268910 0.927318
O O6 0.749256 0.396134 0.892746
O O7 0.816911 0.343112 0.000000
O O8 0.500000 0.673583 0.859868
O O9 0.380302 0.619699 0.858829
O O10 0.413303 0.709140 0.761215
O O11 0.696013 0.303988 0.680895
O O12 0.759379 0.409514 0.633604
O O13 0.793880 0.412091 0.500000
O O14 0.848471 0.500000 0.410668
O O15 0.881489 0.370639 0.403196
O O16 0.721500 0.912057 0.500000
O O17 0.762188 0.898189 0.373206
O O18 0.680405 0.000000 0.402277
O O19 0.878119 0.121882 0.690933
O O20 0.000000 0.172730 0.693257
#
# Coordination Sequence:
#
# PCOD8312311 Si02
#       7
#    16  16  16  16  16  16  16
#     4   8  14  26  44  64  84 110 144 180 218 259
#     4   8  14  25  42  63  85 108 137 177 220 258
#     4   9  17  27  40  58  83 117 150 184 227 273
#     4   9  16  28  43  59  82 111 147 189 232 273
#     4  10  19  28  41  63  88 113 144 188 239 283
#     4   9  18  31  45  62  86 119 155 186 221 269
#     4  10  19  31  48  69  94 123 154 189 225 264
#
# _framework density 15.310088
#
# number of rings (size 3 to 8) (size 9 to 14) (size 15 to 20)
#    0.000    3.000    1.429    2.143    0.000    1.429 
#    0.000    2.857    0.000    0.429    0.000    4.000 
#    0.000    0.000    0.000   22.571    0.000    0.714 
#
# Total GULP energy -1388011.096882 kJ/mol
# GULP energy per Si atom -12392.956222 kJ/mol
# Density = 1.527524 g / cm^3
# Si number density = 15.310088 Si / 1000 Ang^3
#
#
#
# Elastic Constant Matrix: (Units=GPa)
#
#
# Indices 1 2 3 4 5 6 
#
# 1 67.5757 37.8701 40.6618 0.0000 0.0000 0.0000
# 2 37.8701 67.5757 40.6618 0.0000 0.0000 0.0000
# 3 40.6618 40.6618 110.6878 0.0000 0.0000 0.0000
# 4 0.0000 0.0000 0.0000 15.5488 0.0000 0.0000
# 5 0.0000 0.0000 0.0000 0.0000 15.5488 0.0000
# 6 0.0000 0.0000 0.0000 0.0000 0.0000 14.2467
#
#
#
# Elastic Compliance Matrix: (Units=1/GPa)
#
#
# Indices 1 2 3 4 5 6 
#
# 1 0.023448 -0.010216 -0.004861 0.000000 0.000000 0.000000
# 2 -0.010216 0.023448 -0.004861 0.000000 0.000000 0.000000
# 3 -0.004861 -0.004861 0.012606 0.000000 0.000000 0.000000
# 4 0.000000 0.000000 0.000000 0.064314 0.000000 0.000000
# 5 0.000000 0.000000 0.000000 0.000000 0.064314 0.000000
# 6 0.000000 0.000000 0.000000 0.000000 0.000000 0.070192
#
#
# Mechanical properties :
#
#
# Convention : Reuss Voigt Hill
#
# Bulk Modulus (GPa) = 50.95074 53.80294 52.37684
# Shear Modulus (GPa) = 16.40749 17.51189 16.95969
#
# Velocity S-wave (km/s) = 3.27720 3.38570 3.33189
# Velocity P-wave (km/s) = 6.90446 7.10650 7.00621
#
# Compressibility (1/GPa) = 0.01962680
#
# Stress axis : x y z
#
# Youngs Moduli (GPa) = 42.64735 42.64735 79.32803
#
# Poissons Ratio (x) = 0.43567 0.38562
# Poissons Ratio (y) = 0.43567 0.38562
# Poissons Ratio (z) = 0.20731 0.20731
#
# Static dielectric constant tensor:
#      x y z
#    x 2.721940 0.000000 0.000000 
#    y 0.000000 2.721940 0.000000 
#    z 0.000000 0.000000 3.262810 
# 
# 
# High freq. dielectric constant tensor:
#      x y z
#    x 1.562770 0.000000 0.000000 
#    y 0.000000 1.562770 0.000000 
#    z 0.000000 0.000000 1.592350 
# 
# From -- ./inp_files/5888.got.cif
#   From: 2010.03.12/outbox.cif.g09.slc.cpg/sg123_3_cif.got.tgz:5888.got - 2010.04.06 16:26:55.
