data_PCOD8312743
_publ_section_title
;
Structure prediction by ZEFSAII (Michael W. Deem and Ramdas Pophale) SiO2 
 PCOD8312743
Probable space group: P 4/M M M
;
_chemical_formula_sum "Si O2"
_cell_formula_units_Z 112
_cell_length_a 13.916687
_cell_length_b 13.916687
_cell_length_c 35.663287
_cell_angle_alpha 90.000000
_cell_angle_beta 90.000000
_cell_angle_gamma 90.000000
_cell_volume 6907.057761
_symmetry_space_group_name_H-M "P 4/M M M"
_symmetry_group_IT_number 123
_symmetry_cell_setting 'tetragonal'
loop_
_space_group_symop_operation_xyz
x,y,z
-y,x,z
-x,-y,z
y,-x,z
x,-y,-z
-x,y,-z
y,x,-z
-y,-x,-z
-x,-y,-z
y,-x,-z
x,y,-z
-y,x,-z
-x,y,z
x,-y,z
-y,-x,z
y,x,z
loop_
_atom_site_type_symbol
_atom_site_label
_atom_site_fract_x
_atom_site_fract_y
_atom_site_fract_z
Si Si1 0.393359 0.886495 0.110175
Si Si2 0.610294 0.765065 0.541957
Si Si3 0.388343 0.768566 0.238725
Si Si4 0.236785 0.609434 0.675854
Si Si5 0.733741 0.110431 0.042322
Si Si6 0.271280 0.885861 0.181596
Si Si7 0.105776 0.614222 0.609318
O O1 0.500000 0.840486 0.114350
O O2 0.348834 0.852955 0.070489
O O3 0.323845 0.852756 0.143489
O O4 0.403179 0.000000 0.111379
O O5 0.623940 0.807814 0.500000
O O6 0.500000 0.740980 0.550362
O O7 0.665426 0.665426 0.546703
O O8 0.651018 0.841207 0.571857
O O9 0.500000 0.752977 0.227672
O O10 0.331248 0.668753 0.231229
O O11 0.378506 0.801639 0.281854
O O12 0.341896 0.855226 0.215220
O O13 0.260723 0.500000 0.666298
O O14 0.335907 0.664094 0.669848
O O15 0.158011 0.650659 0.647048
O O16 0.830953 0.169048 0.049190
O O17 0.760387 0.000000 0.050500
O O18 0.694818 0.124445 0.000000
O O19 0.169284 0.830717 0.184255
O O20 0.252067 0.000000 0.183415
O O21 0.099293 0.500000 0.609159
O O22 0.000000 0.660190 0.609270
#
# Coordination Sequence:
#
# PCOD8312743 Si02
#       7
#    16  16  16  16  16  16  16
#     4   9  17  29  45  64  86 114 147 182 223 271
#     4   9  17  28  42  61  85 112 141 174 213 260
#     4   9  18  31  47  69  95 123 156 191 227 270
#     4   9  17  29  45  66  92 119 147 180 217 259
#     4   9  17  28  42  62  89 120 153 188 225 268
#     4  10  20  33  49  69  93 121 154 192 233 278
#     4   9  17  28  41  58  82 113 147 180 213 250
#
# _framework density 16.215298000000001
#
# number of rings (size 3 to 8) (size 9 to 14) (size 15 to 20)
#    0.000    2.857    0.000    1.286    0.000    2.714 
#    0.000    7.143    0.000    5.143    0.000    0.000 
#    0.000    7.143    0.000   12.571    0.000    1.143 
#
# Total GULP energy -1388448.007325 kJ/mol
# GULP energy per Si atom -12396.857208 kJ/mol
# Density = 1.617839 g / cm^3
# Si number density = 16.215298 Si / 1000 Ang^3
#
#
#
# Elastic Constant Matrix: (Units=GPa)
#
#
# Indices 1 2 3 4 5 6 
#
# 1 85.6472 41.2364 52.9560 0.0000 0.0000 0.0000
# 2 41.2364 85.6472 52.9560 0.0000 0.0000 0.0000
# 3 52.9560 52.9560 116.8760 0.0000 0.0000 0.0000
# 4 0.0000 0.0000 0.0000 24.4820 0.0000 0.0000
# 5 0.0000 0.0000 0.0000 0.0000 24.4820 0.0000
# 6 0.0000 0.0000 0.0000 0.0000 0.0000 11.4331
#
#
#
# Elastic Compliance Matrix: (Units=1/GPa)
#
#
# Indices 1 2 3 4 5 6 
#
# 1 0.017596 -0.004921 -0.005743 0.000000 0.000000 0.000000
# 2 -0.004921 0.017596 -0.005743 0.000000 0.000000 0.000000
# 3 -0.005743 -0.005743 0.013760 0.000000 0.000000 0.000000
# 4 0.000000 0.000000 0.000000 0.040846 0.000000 0.000000
# 5 0.000000 0.000000 0.000000 0.000000 0.040846 0.000000
# 6 0.000000 0.000000 0.000000 0.000000 0.000000 0.087466
#
#
# Mechanical properties :
#
#
# Convention : Reuss Voigt Hill
#
# Bulk Modulus (GPa) = 61.96404 64.71857 63.34131
# Shear Modulus (GPa) = 19.50807 21.48088 20.49447
#
# Velocity S-wave (km/s) = 3.47229 3.64363 3.55899
# Velocity P-wave (km/s) = 7.37374 7.59606 7.48572
#
# Compressibility (1/GPa) = 0.01613839
#
# Stress axis : x y z
#
# Youngs Moduli (GPa) = 56.83096 56.83096 72.67257
#
# Poissons Ratio (x) = 0.27967 0.41736
# Poissons Ratio (y) = 0.27967 0.41736
# Poissons Ratio (z) = 0.32638 0.32638
#
# Static dielectric constant tensor:
#      x y z
#    x 2.958390 0.000000 0.000000 
#    y 0.000000 2.958390 0.000000 
#    z 0.000000 0.000000 3.354420 
# 
# 
# High freq. dielectric constant tensor:
#      x y z
#    x 1.601400 0.000000 0.000000 
#    y 0.000000 1.601400 0.000000 
#    z 0.000000 0.000000 1.642300 
# 
# From -- ./inp_files/8771.got.cif
#   From: 2010.03.12/outbox.cif.g09.slc.cpg/sg123_5_cif.got.tgz:8771.got - 2010.04.06 16:26:55.
