data_PCOD8312695
_publ_section_title
;
Structure prediction by ZEFSAII (Michael W. Deem and Ramdas Pophale) SiO2 
 PCOD8312695
Probable space group: P 4/M M M
;
_chemical_formula_sum "Si O2"
_cell_formula_units_Z 120
_cell_length_a 27.407597
_cell_length_b 27.407597
_cell_length_c 9.266130
_cell_angle_alpha 90.000000
_cell_angle_beta 90.000000
_cell_angle_gamma 90.000000
_cell_volume 6960.497928
_symmetry_space_group_name_H-M "P 4/M M M"
_symmetry_group_IT_number 123
_symmetry_cell_setting 'tetragonal'
loop_
_space_group_symop_operation_xyz
x,y,z
-y,x,z
-x,-y,z
y,-x,z
x,-y,-z
-x,y,-z
y,x,-z
-y,-x,-z
-x,-y,-z
y,-x,-z
x,y,-z
-y,x,-z
-x,y,z
x,-y,z
-y,-x,z
y,x,z
loop_
_atom_site_type_symbol
_atom_site_label
_atom_site_fract_x
_atom_site_fract_y
_atom_site_fract_z
Si Si1 0.385562 0.084402 0.672046
Si Si2 0.277157 0.641262 0.661010
Si Si3 0.053984 0.277447 0.669884
Si Si4 0.554764 0.158707 0.164902
Si Si5 0.213979 0.705560 0.840968
Si Si6 0.553857 0.273648 0.162700
Si Si7 0.000000 0.442290 0.831043
Si Si8 0.146845 0.223768 0.330883
O O1 0.391229 0.079543 0.500000
O O2 0.329241 0.076282 0.720780
O O3 0.404486 0.136772 0.727177
O O4 0.419978 0.046577 0.753033
O O5 0.258231 0.631690 0.500000
O O6 0.318837 0.681164 0.661401
O O7 0.230515 0.657278 0.756529
O O8 0.299037 0.591745 0.728489
O O9 0.048145 0.279460 0.500000
O O10 0.089644 0.231325 0.710704
O O11 0.000000 0.268938 0.739145
O O12 0.500000 0.138886 0.199968
O O13 0.554736 0.216134 0.187818
O O14 0.568038 0.144893 0.000000
O O15 0.260411 0.739590 0.859107
O O16 0.173075 0.732660 0.750402
O O17 0.193887 0.691215 0.000000
O O18 0.500000 0.294248 0.195884
O O19 0.569257 0.286665 0.000000
O O20 0.000000 0.500000 0.808979
O O21 0.000000 0.428440 0.000000
O O22 0.154870 0.232500 0.500000
O O23 0.170623 0.170623 0.287539
#
# Coordination Sequence:
#
# PCOD8312695 Si02
#       8
#    16  16  16  16  16  16   8  16
#     4  11  21  33  49  68  88 117 157 196 241 292
#     4  10  20  32  47  69  97 127 160 198 239 284
#     4   9  18  33  49  67  95 125 151 189 241 289
#     4   9  19  35  50  65  89 120 154 197 247 288
#     4   9  17  29  45  67  95 125 155 188 231 279
#     4   9  19  35  52  70  94 124 158 196 239 287
#     4  11  23  37  51  65  85 115 153 205 260 295
#     4   9  17  30  50  73  94 119 155 196 235 281
#
# _framework density 17.240145999999999
#
# number of rings (size 3 to 8) (size 9 to 14) (size 15 to 20)
#    0.000    2.467    0.667    2.600    1.867    5.600 
#    0.000    2.000    0.000    0.000    0.000    0.000 
#    0.000    0.533    0.000    6.667    0.000    2.133 
#
# Total GULP energy -1487069.055452 kJ/mol
# GULP energy per Si atom -12392.242129 kJ/mol
# Density = 1.720091 g / cm^3
# Si number density = 17.240146 Si / 1000 Ang^3
#
#
#
# Elastic Constant Matrix: (Units=GPa)
#
#
# Indices 1 2 3 4 5 6 
#
# 1 59.9683 21.4272 25.5459 0.0000 0.0000 0.0000
# 2 21.4272 59.9683 25.5459 0.0000 0.0000 0.0000
# 3 25.5459 25.5459 72.4918 0.0000 0.0000 0.0000
# 4 0.0000 0.0000 0.0000 17.2651 0.0000 0.0000
# 5 0.0000 0.0000 0.0000 0.0000 17.2651 0.0000
# 6 0.0000 0.0000 0.0000 0.0000 0.0000 7.5236
#
#
#
# Elastic Compliance Matrix: (Units=1/GPa)
#
#
# Indices 1 2 3 4 5 6 
#
# 1 0.020861 -0.005086 -0.005559 0.000000 0.000000 0.000000
# 2 -0.005086 0.020861 -0.005559 0.000000 0.000000 0.000000
# 3 -0.005559 -0.005559 0.017713 0.000000 0.000000 0.000000
# 4 0.000000 0.000000 0.000000 0.057920 0.000000 0.000000
# 5 0.000000 0.000000 0.000000 0.000000 0.057920 0.000000
# 6 0.000000 0.000000 0.000000 0.000000 0.000000 0.132915
#
#
# Mechanical properties :
#
#
# Convention : Reuss Voigt Hill
#
# Bulk Modulus (GPa) = 37.00068 37.49626 37.24847
# Shear Modulus (GPa) = 14.30182 16.40473 15.35328
#
# Velocity S-wave (km/s) = 2.88334 3.08805 2.98745
# Velocity P-wave (km/s) = 5.70906 5.87464 5.79244
#
# Compressibility (1/GPa) = 0.02702653
#
# Stress axis : x y z
#
# Youngs Moduli (GPa) = 47.93692 47.93692 56.45673
#
# Poissons Ratio (x) = 0.24379 0.31385
# Poissons Ratio (y) = 0.24379 0.31385
# Poissons Ratio (z) = 0.26649 0.26649
#
# Static dielectric constant tensor:
#      x y z
#    x 3.330880 0.000000 0.000000 
#    y 0.000000 3.330880 0.000000 
#    z 0.000000 0.000000 3.300710 
# 
# 
# High freq. dielectric constant tensor:
#      x y z
#    x 1.645600 0.000000 0.000000 
#    y 0.000000 1.645600 0.000000 
#    z 0.000000 0.000000 1.662560 
# 
# From -- ./inp_files/2061.got.cif
#   From: 2010.03.12/outbox.cif.g09.slc.cpg/sg123_2_cif.got.tgz:2061.got - 2010.04.06 16:26:55.
