data_PCOD8312962
_publ_section_title
;
Structure prediction by ZEFSAII (Michael W. Deem and Ramdas Pophale) SiO2 
 PCOD8312962
Probable space group: P 4/M M M
;
_chemical_formula_sum "Si O2"
_cell_formula_units_Z 88
_cell_length_a 17.836943
_cell_length_b 17.836943
_cell_length_c 14.085093
_cell_angle_alpha 90.000000
_cell_angle_beta 90.000000
_cell_angle_gamma 90.000000
_cell_volume 4481.264392
_symmetry_space_group_name_H-M "P 4/M M M"
_symmetry_group_IT_number 123
_symmetry_cell_setting 'tetragonal'
loop_
_space_group_symop_operation_xyz
x,y,z
-y,x,z
-x,-y,z
y,-x,z
x,-y,-z
-x,y,-z
y,x,-z
-y,-x,-z
-x,-y,-z
y,-x,-z
x,y,-z
-y,x,-z
-x,y,z
x,-y,z
-y,-x,z
y,x,z
loop_
_atom_site_type_symbol
_atom_site_label
_atom_site_fract_x
_atom_site_fract_y
_atom_site_fract_z
Si Si1 0.702390 0.916238 0.393161
Si Si2 0.584691 0.791439 0.606578
Si Si3 0.663252 0.149425 0.887500
Si Si4 0.412928 0.707972 0.207903
Si Si5 0.000000 0.583240 0.112989
Si Si6 0.085810 0.798137 0.214218
O O1 0.730475 0.898956 0.500000
O O2 0.637258 0.859731 0.361905
O O3 0.772524 0.907321 0.323426
O O4 0.668753 0.000000 0.386139
O O5 0.603779 0.762944 0.500000
O O6 0.500000 0.821919 0.611951
O O7 0.595714 0.723008 0.679475
O O8 0.621889 0.222748 0.849238
O O9 0.747799 0.140513 0.851009
O O10 0.622544 0.074744 0.848101
O O11 0.662478 0.154866 0.000000
O O12 0.500000 0.697364 0.178861
O O13 0.367821 0.632180 0.182646
O O14 0.000000 0.500000 0.153684
O O15 0.000000 0.584564 0.000000
O O16 0.117260 0.882741 0.207911
O O17 0.000000 0.796581 0.177548
#
# Coordination Sequence:
#
# PCOD8312962 Si02
#       6
#    16  16  16  16   8  16
#     4   9  18  33  54  83 118 154 192 233 282 343
#     4   9  18  33  54  83 119 155 190 231 283 345
#     4  11  22  39  61  89 120 150 190 240 297 355
#     4  11  24  41  61  87 118 155 201 247 294 348
#     4   9  18  34  58  86 116 148 180 221 282 354
#     4  11  23  39  59  85 117 154 198 242 288 343
#
# _framework density 19.637315000000001
#
# number of rings (size 3 to 8) (size 9 to 14) (size 15 to 20)
#    0.000    1.909    2.727    1.091    0.000    4.000 
#    0.000    3.636    0.000    0.000    0.000    7.636 
#    0.000    0.000    0.000    0.000    0.000    0.000 
#
# Total GULP energy -1091067.722287 kJ/mol
# GULP energy per Si atom -12398.496844 kJ/mol
# Density = 1.959262 g / cm^3
# Si number density = 19.637315 Si / 1000 Ang^3
#
#
#
# Elastic Constant Matrix: (Units=GPa)
#
#
# Indices 1 2 3 4 5 6 
#
# 1 110.2077 79.1551 32.2510 0.0000 0.0000 0.0000
# 2 79.1551 110.2077 32.2510 0.0000 0.0000 0.0000
# 3 32.2510 32.2510 71.2145 0.0000 0.0000 0.0000
# 4 0.0000 0.0000 0.0000 19.1099 0.0000 0.0000
# 5 0.0000 0.0000 0.0000 0.0000 19.1099 0.0000
# 6 0.0000 0.0000 0.0000 0.0000 0.0000 28.8309
#
#
#
# Elastic Compliance Matrix: (Units=1/GPa)
#
#
# Indices 1 2 3 4 5 6 
#
# 1 0.019224 -0.012980 -0.002828 0.000000 0.000000 0.000000
# 2 -0.012980 0.019224 -0.002828 0.000000 0.000000 0.000000
# 3 -0.002828 -0.002828 0.016603 0.000000 0.000000 0.000000
# 4 0.000000 0.000000 0.000000 0.052329 0.000000 0.000000
# 5 0.000000 0.000000 0.000000 0.000000 0.052329 0.000000
# 6 0.000000 0.000000 0.000000 0.000000 0.000000 0.034685
#
#
# Mechanical properties :
#
#
# Convention : Reuss Voigt Hill
#
# Bulk Modulus (GPa) = 56.24168 64.32715 60.28441
# Shear Modulus (GPa) = 21.04460 23.27501 22.15981
#
# Velocity S-wave (km/s) = 3.27718 3.44647 3.36289
# Velocity P-wave (km/s) = 6.55914 6.97612 6.77084
#
# Compressibility (1/GPa) = 0.01778041
#
# Stress axis : x y z
#
# Youngs Moduli (GPa) = 52.01898 52.01898 60.22890
#
# Poissons Ratio (x) = 0.67519 0.17031
# Poissons Ratio (y) = 0.67519 0.17031
# Poissons Ratio (z) = 0.14710 0.14710
#
# Static dielectric constant tensor:
#      x y z
#    x 3.480610 0.000000 0.000000 
#    y 0.000000 3.480610 0.000000 
#    z 0.000000 0.000000 3.638790 
# 
# 
# High freq. dielectric constant tensor:
#      x y z
#    x 1.753320 0.000000 0.000000 
#    y 0.000000 1.753320 0.000000 
#    z 0.000000 0.000000 1.771180 
# 
# From -- ./inp_files/4048.got.cif
#   From: 2010.03.12/outbox.cif.g09.slc.cpg/sg123_3_cif.got.tgz:4048.got - 2010.04.06 16:26:55.
