data_PCOD8312027
_publ_section_title
;
Structure prediction by ZEFSAII (Michael W. Deem and Ramdas Pophale) SiO2 
 PCOD8312027
Probable space group: I -4 2 D
;
_chemical_formula_sum "Si O2"
_cell_formula_units_Z 80
_cell_length_a 17.108091
_cell_length_b 17.108091
_cell_length_c 12.582681
_cell_angle_alpha 90.000000
_cell_angle_beta 90.000000
_cell_angle_gamma 90.000000
_cell_volume 3682.784356
_symmetry_space_group_name_H-M "I -4 2 D"
_symmetry_group_IT_number 122
_symmetry_cell_setting 'tetragonal'
loop_
_space_group_symop_operation_xyz
x,y,z
y,-x,-z
-x,-y,z
-y,x,-z
x,1/2-y,1/4-z
-x,1/2+y,1/4-z
-y,1/2-x,1/4+z
y,1/2+x,1/4+z
1/2+x,1/2+y,1/2+z
1/2+y,1/2-x,1/2-z
1/2-x,1/2-y,1/2+z
1/2-y,1/2+x,1/2-z
1/2+x,-y,3/4-z
1/2-x,y,3/4-z
1/2-y,-x,3/4+z
1/2+y,x,3/4+z
loop_
_atom_site_type_symbol
_atom_site_label
_atom_site_fract_x
_atom_site_fract_y
_atom_site_fract_z
Si Si1 0.923842 0.084937 0.958571
Si Si2 0.820124 0.552425 0.810623
Si Si3 0.792297 0.385694 0.764660
Si Si4 0.839176 0.841281 0.869298
Si Si5 0.590571 0.013605 0.507105
O O1 0.953108 0.122152 0.848054
O O2 0.849845 0.129954 0.009014
O O3 0.992242 0.094256 0.049682
O O4 0.750000 0.593660 0.875000
O O5 0.786119 0.479300 0.742198
O O6 0.860433 0.616550 0.735594
O O7 0.878108 0.510237 0.892712
O O8 0.750000 0.362558 0.875000
O O9 0.749215 0.341954 0.667053
O O10 0.750000 0.872332 0.875000
O O11 0.896780 0.886353 0.785661
O O12 0.500000 0.000000 0.500280
#
# Coordination Sequence:
#
# PCOD8312027 Si02
#       5
#    16  16  16  16  16
#     4   9  17  37  63  90 132 173 219 279 343 422
#     4  11  25  45  67  97 140 188 234 291 361 424
#     4  11  25  46  68 101 139 187 241 300 353 434
#     4  11  22  42  68 102 138 177 228 299 362 409
#     4  11  21  43  66  99 135 183 234 284 348 447
#
# _framework density 21.722697
#
# number of rings (size 3 to 8) (size 9 to 14) (size 15 to 20)
#    0.000    1.400    8.000    0.600    2.800    1.600 
#    7.200    1.000    0.000    0.000    0.000    0.000 
#    0.000    0.000    0.000    0.000    0.000    0.000 
#
# Total GULP energy -495567.882466 kJ/mol
# GULP energy per Si atom -12389.197062 kJ/mol
# Density = 2.167325 g / cm^3
# Si number density = 21.722697 Si / 1000 Ang^3
#
#
#
# Elastic Constant Matrix: (Units=GPa)
#
#
# Indices 1 2 3 4 5 6 
#
# 1 105.5807 28.1212 42.6176 0.0000 0.0000 0.0000
# 2 28.1212 105.5807 42.6176 0.0000 0.0000 0.0000
# 3 42.6176 42.6176 80.2880 0.0000 0.0000 0.0000
# 4 0.0000 0.0000 0.0000 28.0556 0.0000 0.0000
# 5 0.0000 0.0000 0.0000 0.0000 28.0556 0.0000
# 6 0.0000 0.0000 0.0000 0.0000 0.0000 32.6218
#
#
#
# Elastic Compliance Matrix: (Units=1/GPa)
#
#
# Indices 1 2 3 4 5 6 
#
# 1 0.012107 -0.000803 -0.006001 0.000000 0.000000 0.000000
# 2 -0.000803 0.012107 -0.006001 0.000000 0.000000 0.000000
# 3 -0.006001 -0.006001 0.018826 0.000000 0.000000 0.000000
# 4 0.000000 0.000000 0.000000 0.035644 0.000000 0.000000
# 5 0.000000 0.000000 0.000000 0.000000 0.035644 0.000000
# 6 0.000000 0.000000 0.000000 0.000000 0.000000 0.030654
#
#
# Mechanical properties :
#
#
# Convention : Reuss Voigt Hill
#
# Bulk Modulus (GPa) = 57.36438 57.57360 57.46899
# Shear Modulus (GPa) = 28.34462 29.61948 28.98205
#
# Velocity S-wave (km/s) = 3.61617 3.69660 3.65661
# Velocity P-wave (km/s) = 6.62575 6.69188 6.65890
#
# Compressibility (1/GPa) = 0.01743242
#
# Stress axis : x y z
#
# Youngs Moduli (GPa) = 82.59438 82.59438 53.11924
#
# Poissons Ratio (x) = 0.06629 0.31875
# Poissons Ratio (y) = 0.06629 0.31875
# Poissons Ratio (z) = 0.49562 0.49562
#
# Static dielectric constant tensor:
#      x y z
#    x 3.919830 0.000000 0.000000 
#    y 0.000000 3.919830 0.000000 
#    z 0.000000 0.000000 4.149090 
# 
# 
# High freq. dielectric constant tensor:
#      x y z
#    x 1.845990 0.000000 0.000000 
#    y 0.000000 1.845990 0.000000 
#    z 0.000000 0.000000 1.839110 
# 
# From -- ./inp_files/5301.got.cif
#   From: 2010.03.12/outbox.cif.g09.slc.cpg/sg122_3_cif.got.tgz:5301.got - 2010.04.06 16:17:16.
