data_PCOD8312037
_publ_section_title
;
Structure prediction by ZEFSAII (Michael W. Deem and Ramdas Pophale) SiO2 
 PCOD8312037
Probable space group: I -4 2 D
;
_chemical_formula_sum "Si O2"
_cell_formula_units_Z 64
_cell_length_a 10.435519
_cell_length_b 10.435519
_cell_length_c 24.239644
_cell_angle_alpha 90.000000
_cell_angle_beta 90.000000
_cell_angle_gamma 90.000000
_cell_volume 2639.698608
_symmetry_space_group_name_H-M "I -4 2 D"
_symmetry_group_IT_number 122
_symmetry_cell_setting 'tetragonal'
loop_
_space_group_symop_operation_xyz
x,y,z
y,-x,-z
-x,-y,z
-y,x,-z
x,1/2-y,1/4-z
-x,1/2+y,1/4-z
-y,1/2-x,1/4+z
y,1/2+x,1/4+z
1/2+x,1/2+y,1/2+z
1/2+y,1/2-x,1/2-z
1/2-x,1/2-y,1/2+z
1/2-y,1/2+x,1/2-z
1/2+x,-y,3/4-z
1/2-x,y,3/4-z
1/2-y,-x,3/4+z
1/2+y,x,3/4+z
loop_
_atom_site_type_symbol
_atom_site_label
_atom_site_fract_x
_atom_site_fract_y
_atom_site_fract_z
Si Si1 0.788480 0.576268 0.530437
Si Si2 0.942786 0.802115 0.490088
Si Si3 0.030555 0.182594 0.072686
Si Si4 0.895598 0.765686 0.880276
O O1 0.882940 0.697834 0.532273
O O2 0.638492 0.606211 0.540212
O O3 0.793335 0.521983 0.468299
O O4 0.827400 0.471653 0.576847
O O5 0.963328 0.743808 0.429118
O O6 0.078690 0.845015 0.514274
O O7 0.097882 0.250000 0.125000
O O8 0.911222 0.098191 0.095995
O O9 0.750000 0.717943 0.875000
#
# Coordination Sequence:
#
# PCOD8312037 Si02
#       4
#    16  16  16  16
#     4  12  23  45  75 109 148 199 241 307 399 441
#     4  11  27  53  71 103 156 204 263 318 375 474
#     4  11  22  40  73 112 148 178 240 310 367 460
#     4  11  23  47  71 113 153 188 246 322 376 457
#
# _framework density 24.245191999999999
#
# number of rings (size 3 to 8) (size 9 to 14) (size 15 to 20)
#    0.000    0.750    7.500    0.750    3.500    0.000 
#    9.000    3.750    0.000    0.000    0.000    0.000 
#    0.000    0.000    0.000    0.000    0.000    0.000 
#
# Total GULP energy -396685.143357 kJ/mol
# GULP energy per Si atom -12396.410730 kJ/mol
# Density = 2.419001 g / cm^3
# Si number density = 24.245192 Si / 1000 Ang^3
#
#
#
# Elastic Constant Matrix: (Units=GPa)
#
#
# Indices 1 2 3 4 5 6 
#
# 1 105.6126 48.5116 44.7295 0.0000 0.0000 0.0000
# 2 48.5116 105.6126 44.7295 0.0000 0.0000 0.0000
# 3 44.7295 44.7295 141.2508 0.0000 0.0000 0.0000
# 4 0.0000 0.0000 0.0000 37.9938 0.0000 0.0000
# 5 0.0000 0.0000 0.0000 0.0000 37.9938 0.0000
# 6 0.0000 0.0000 0.0000 0.0000 0.0000 27.9490
#
#
#
# Elastic Compliance Matrix: (Units=1/GPa)
#
#
# Indices 1 2 3 4 5 6 
#
# 1 0.012731 -0.004782 -0.002517 0.000000 0.000000 0.000000
# 2 -0.004782 0.012731 -0.002517 0.000000 0.000000 0.000000
# 3 -0.002517 -0.002517 0.008674 0.000000 0.000000 0.000000
# 4 0.000000 0.000000 0.000000 0.026320 0.000000 0.000000
# 5 0.000000 0.000000 0.000000 0.000000 0.026320 0.000000
# 6 0.000000 0.000000 0.000000 0.000000 0.000000 0.035779
#
#
# Mechanical properties :
#
#
# Convention : Reuss Voigt Hill
#
# Bulk Modulus (GPa) = 68.94904 69.82411 69.38658
# Shear Modulus (GPa) = 34.00830 35.08769 34.54800
#
# Velocity S-wave (km/s) = 3.74930 3.80834 3.77894
# Velocity P-wave (km/s) = 6.87335 6.94259 6.90806
#
# Compressibility (1/GPa) = 0.01450347
#
# Stress axis : x y z
#
# Youngs Moduli (GPa) = 78.54768 78.54768 115.28827
#
# Poissons Ratio (x) = 0.37559 0.29022
# Poissons Ratio (y) = 0.37559 0.29022
# Poissons Ratio (z) = 0.19773 0.19773
#
# Static dielectric constant tensor:
#      x y z
#    x 4.179430 0.000000 0.000000 
#    y 0.000000 4.179430 0.000000 
#    z 0.000000 0.000000 4.742130 
# 
# 
# High freq. dielectric constant tensor:
#      x y z
#    x 1.948410 0.000000 0.000000 
#    y 0.000000 1.948410 0.000000 
#    z 0.000000 0.000000 1.978010 
# 
# From -- ./inp_files/7834.got.cif
#   From: 2010.03.12/outbox.cif.g09.slc.cpg/sg122_4_cif.got.tgz:7834.got - 2010.04.06 16:17:16.
