data_PCOD8312244
_publ_section_title
;
Structure prediction by ZEFSAII (Michael W. Deem and Ramdas Pophale) SiO2 
 PCOD8312244
Probable space group: P 4/M M M
;
_chemical_formula_sum "Si O2"
_cell_formula_units_Z 88
_cell_length_a 17.776437
_cell_length_b 17.776437
_cell_length_c 15.789979
_cell_angle_alpha 90.000000
_cell_angle_beta 90.000000
_cell_angle_gamma 90.000000
_cell_volume 4989.660403
_symmetry_space_group_name_H-M "P 4/M M M"
_symmetry_group_IT_number 123
_symmetry_cell_setting 'tetragonal'
loop_
_space_group_symop_operation_xyz
x,y,z
-y,x,z
-x,-y,z
y,-x,z
x,-y,-z
-x,y,-z
y,x,-z
-y,-x,-z
-x,-y,-z
y,-x,-z
x,y,-z
-y,x,-z
-x,y,z
x,-y,z
-y,-x,z
y,x,z
loop_
_atom_site_type_symbol
_atom_site_label
_atom_site_fract_x
_atom_site_fract_y
_atom_site_fract_z
Si Si1 0.085437 0.584784 0.735890
Si Si2 0.583560 0.299344 0.100009
Si Si3 0.086458 0.205814 0.158989
Si Si4 0.136684 0.360193 0.904417
Si Si5 0.912614 0.208478 0.500000
Si Si6 0.146900 0.267364 0.327523
O O1 0.109794 0.500000 0.711669
O O2 0.085382 0.594329 0.838035
O O3 0.144336 0.643104 0.692648
O O4 0.000000 0.600621 0.704919
O O5 0.500000 0.300278 0.140347
O O6 0.631739 0.368262 0.138631
O O7 0.625840 0.222576 0.122749
O O8 0.577758 0.308175 0.000000
O O9 0.129163 0.129163 0.136172
O O10 0.120795 0.271638 0.101192
O O11 0.095534 0.225633 0.258087
O O12 0.000000 0.193616 0.136644
O O13 0.120315 0.388757 0.000000
O O14 0.871898 0.128103 0.500000
O O15 0.889479 0.256697 0.581189
O O16 0.000000 0.191076 0.500000
O O17 0.231806 0.231806 0.324724
#
# Coordination Sequence:
#
# PCOD8312244 Si02
#       6
#    16  16  16  16   8  16
#     4  10  20  33  49  70  97 124 153 196 243 284
#     4   9  17  28  42  61  84 109 139 176 217 264
#     4  10  20  33  49  68  91 120 155 196 240 285
#     4  10  19  32  48  65  88 119 157 195 233 282
#     4  10  18  29  49  73  99 131 164 200 238 280
#     4   9  18  33  51  71  96 128 163 193 229 283
#
# _framework density 17.636471
#
# number of rings (size 3 to 8) (size 9 to 14) (size 15 to 20)
#    0.000    2.364    0.000    4.364    0.000    4.818 
#    0.000    2.273    0.000    4.909    0.000    1.273 
#    0.000    0.364    0.000    0.000    0.000    5.091 
#
# Total GULP energy -1090853.525513 kJ/mol
# GULP energy per Si atom -12396.062790 kJ/mol
# Density = 1.759633 g / cm^3
# Si number density = 17.636471 Si / 1000 Ang^3
#
#
#
# Elastic Constant Matrix: (Units=GPa)
#
#
# Indices 1 2 3 4 5 6 
#
# 1 121.7335 84.5385 19.5761 0.0000 0.0000 0.0000
# 2 84.5385 121.7335 19.5761 0.0000 0.0000 0.0000
# 3 19.5761 19.5761 66.1397 0.0000 0.0000 0.0000
# 4 0.0000 0.0000 0.0000 12.0888 0.0000 0.0000
# 5 0.0000 0.0000 0.0000 0.0000 12.0890 0.0000
# 6 0.0000 0.0000 0.0000 0.0000 0.0000 26.5179
#
#
#
# Elastic Compliance Matrix: (Units=1/GPa)
#
#
# Indices 1 2 3 4 5 6 
#
# 1 0.016011 -0.010874 -0.001520 0.000000 0.000000 0.000000
# 2 -0.010874 0.016011 -0.001520 0.000000 0.000000 0.000000
# 3 -0.001520 -0.001520 0.016019 0.000000 0.000000 0.000000
# 4 0.000000 0.000000 0.000000 0.082722 0.000000 0.000000
# 5 0.000000 0.000000 0.000000 0.000000 0.082720 0.000000
# 6 0.000000 0.000000 0.000000 0.000000 0.000000 0.037710
#
#
# Mechanical properties :
#
#
# Convention : Reuss Voigt Hill
#
# Bulk Modulus (GPa) = 49.47733 61.88757 55.68245
# Shear Modulus (GPa) = 17.49717 22.53352 20.01534
#
# Velocity S-wave (km/s) = 3.15318 3.57832 3.37246
# Velocity P-wave (km/s) = 6.43208 7.22768 6.84145
#
# Compressibility (1/GPa) = 0.02021128
#
# Stress axis : x y z
#
# Youngs Moduli (GPa) = 62.45736 62.45735 62.42401
#
# Poissons Ratio (x) = 0.67919 0.09490
# Poissons Ratio (y) = 0.67919 0.09491
# Poissons Ratio (z) = 0.09495 0.09496
#
# Static dielectric constant tensor:
#      x y z
#    x 3.330230 0.000000 0.000000 
#    y 0.000000 3.330230 0.000000 
#    z 0.000000 0.000000 3.118110 
# 
# 
# High freq. dielectric constant tensor:
#      x y z
#    x 1.677270 0.000000 0.000000 
#    y 0.000000 1.677270 0.000000 
#    z 0.000000 0.000000 1.651010 
# 
# From -- ./inp_files/4075.got.cif
#   From: 2010.03.12/outbox.cif.g09.slc.cpg/sg123_3_cif.got.tgz:4075.got - 2010.04.06 16:26:55.
