data_PCOD8312381
_publ_section_title
;
Structure prediction by ZEFSAII (Michael W. Deem and Ramdas Pophale) SiO2 
 PCOD8312381
Probable space group: P 4/M M M
;
_chemical_formula_sum "Si O2"
_cell_formula_units_Z 80
_cell_length_a 24.339927
_cell_length_b 24.339927
_cell_length_c 9.095836
_cell_angle_alpha 90.000000
_cell_angle_beta 90.000000
_cell_angle_gamma 90.000000
_cell_volume 5388.664735
_symmetry_space_group_name_H-M "P 4/M M M"
_symmetry_group_IT_number 123
_symmetry_cell_setting 'tetragonal'
loop_
_space_group_symop_operation_xyz
x,y,z
-y,x,z
-x,-y,z
y,-x,z
x,-y,-z
-x,y,-z
y,x,-z
-y,-x,-z
-x,-y,-z
y,-x,-z
x,y,-z
-y,x,-z
-x,y,z
x,-y,z
-y,-x,z
y,x,z
loop_
_atom_site_type_symbol
_atom_site_label
_atom_site_fract_x
_atom_site_fract_y
_atom_site_fract_z
Si Si1 0.711994 0.000000 0.661320
Si Si2 0.120278 0.562494 0.670861
Si Si3 0.651816 0.807042 0.167132
Si Si4 0.000000 0.584023 0.660234
Si Si5 0.179842 0.820159 0.335227
Si Si6 0.104754 0.252354 0.835194
Si Si7 0.727590 0.272411 0.667273
O O1 0.727618 0.947768 0.752292
O O2 0.740140 0.000000 0.500000
O O3 0.648014 0.000000 0.640440
O O4 0.118676 0.581315 0.500000
O O5 0.140574 0.500000 0.687344
O O6 0.164997 0.599634 0.754183
O O7 0.057790 0.567000 0.739153
O O8 0.700278 0.850513 0.165885
O O9 0.673311 0.751945 0.250782
O O10 0.635660 0.790965 0.000000
O O11 0.000000 0.554904 0.500000
O O12 0.163592 0.836409 0.500000
O O13 0.126091 0.800601 0.250344
O O14 0.226175 0.773826 0.334204
O O15 0.089457 0.235094 0.000000
O O16 0.711520 0.288481 0.500000
#
# Coordination Sequence:
#
# PCOD8312381 Si02
#       7
#     8  16  16   8   8  16   8
#     4  11  19  28  45  63  82 111 145 179 214 257
#     4  10  19  31  46  62  82 113 154 194 227 259
#     4  10  19  30  44  62  86 110 138 176 222 267
#     4   9  17  29  44  59  79 109 150 194 228 255
#     4   9  17  29  45  63  81 104 134 167 206 256
#     4  10  19  30  43  61  85 110 135 169 215 262
#     4   9  17  29  47  65  81 103 136 173 214 263
#
# _framework density 14.845978000000001
#
# number of rings (size 3 to 8) (size 9 to 14) (size 15 to 20)
#    0.000    2.200    2.000    2.400    0.000    5.600 
#    0.000    0.500    0.000    1.200    0.000    0.000 
#    0.000    0.400    0.000    4.000    0.000    2.900 
#
# Total GULP energy -991442.600823 kJ/mol
# GULP energy per Si atom -12393.032510 kJ/mol
# Density = 1.481219 g / cm^3
# Si number density = 14.845978 Si / 1000 Ang^3
#
#
#
# Elastic Constant Matrix: (Units=GPa)
#
#
# Indices 1 2 3 4 5 6 
#
# 1 51.1420 40.0374 38.7902 0.0000 0.0000 0.0000
# 2 40.0374 51.1418 38.7903 0.0000 0.0000 0.0000
# 3 38.7902 38.7903 123.3086 0.0000 0.0000 0.0000
# 4 0.0000 0.0000 0.0000 21.1078 0.0000 0.0000
# 5 0.0000 0.0000 0.0000 0.0000 21.1078 0.0000
# 6 0.0000 0.0000 0.0000 0.0000 0.0000 22.3394
#
#
#
# Elastic Compliance Matrix: (Units=1/GPa)
#
#
# Indices 1 2 3 4 5 6 
#
# 1 0.052514 -0.037539 -0.004711 0.000000 0.000000 0.000000
# 2 -0.037539 0.052515 -0.004711 0.000000 0.000000 0.000000
# 3 -0.004711 -0.004711 0.011074 0.000000 0.000000 0.000000
# 4 0.000000 0.000000 0.000000 0.047376 0.000000 0.000000
# 5 0.000000 0.000000 0.000000 0.000000 0.047376 0.000000
# 6 0.000000 0.000000 0.000000 0.000000 0.000000 0.044764
#
#
# Mechanical properties :
#
#
# Convention : Reuss Voigt Hill
#
# Bulk Modulus (GPa) = 45.08340 51.20316 48.14328
# Shear Modulus (GPa) = 14.00818 20.10929 17.05873
#
# Velocity S-wave (km/s) = 3.07509 3.68438 3.39344
# Velocity P-wave (km/s) = 6.56061 7.25700 6.91757
#
# Compressibility (1/GPa) = 0.02218111
#
# Stress axis : x y z
#
# Youngs Moduli (GPa) = 19.04239 19.04226 90.30365
#
# Poissons Ratio (x) = 0.71482 0.42542
# Poissons Ratio (y) = 0.71483 0.42544
# Poissons Ratio (z) = 0.08971 0.08971
#
# Static dielectric constant tensor:
#      x y z
#    x 2.699420 0.000000 0.000000 
#    y 0.000000 2.699420 0.000000 
#    z 0.000000 0.000000 3.102410 
# 
# 
# High freq. dielectric constant tensor:
#      x y z
#    x 1.539320 0.000000 0.000000 
#    y 0.000000 1.539320 0.000000 
#    z 0.000000 0.000000 1.576920 
# 
# From -- ./inp_files/1519.got.cif
#   From: 2010.03.12/outbox.cif.g09.slc.cpg/sg123_1_cif.got.tgz:1519.got - 2010.04.06 16:26:55.
