data_PCOD8312627
_publ_section_title
;
Structure prediction by ZEFSAII (Michael W. Deem and Ramdas Pophale) SiO2 
 PCOD8312627
Probable space group: P 4/M M M
;
_chemical_formula_sum "Si O2"
_cell_formula_units_Z 72
_cell_length_a 19.126926
_cell_length_b 19.126926
_cell_length_c 10.388472
_cell_angle_alpha 90.000000
_cell_angle_beta 90.000000
_cell_angle_gamma 90.000000
_cell_volume 3800.511306
_symmetry_space_group_name_H-M "P 4/M M M"
_symmetry_group_IT_number 123
_symmetry_cell_setting 'tetragonal'
loop_
_space_group_symop_operation_xyz
x,y,z
-y,x,z
-x,-y,z
y,-x,z
x,-y,-z
-x,y,-z
y,x,-z
-y,-x,-z
-x,-y,-z
y,-x,-z
x,y,-z
-y,x,-z
-x,y,z
x,-y,z
-y,-x,z
y,x,z
loop_
_atom_site_type_symbol
_atom_site_label
_atom_site_fract_x
_atom_site_fract_y
_atom_site_fract_z
Si Si1 0.422076 0.917603 0.000000
Si Si2 0.306367 0.580512 0.145155
Si Si3 0.774418 0.661545 0.356647
Si Si4 0.183868 0.076000 0.146890
Si Si5 0.921213 0.336443 0.250231
O O1 0.380887 0.894901 0.127686
O O2 0.500000 0.883581 0.000000
O O3 0.428309 0.000000 0.000000
O O4 0.322366 0.500000 0.171900
O O5 0.379350 0.620651 0.161788
O O6 0.251073 0.607302 0.249417
O O7 0.276021 0.591920 0.000000
O O8 0.752908 0.636480 0.500000
O O9 0.738002 0.738002 0.329815
O O10 0.859316 0.660220 0.355022
O O11 0.132079 0.132079 0.211459
O O12 0.255862 0.074200 0.219308
O O13 0.147715 0.000000 0.156118
O O14 0.199074 0.096211 0.000000
O O15 0.000000 0.360820 0.297218
#
# Coordination Sequence:
#
# PCOD8312627 Si02
#       5
#     8  16  16  16  16
#     4   9  18  32  49  72 101 129 161 212 271 318
#     4   9  19  36  59  87 115 144 179 217 261 316
#     4  10  22  38  54  77 111 147 182 223 273 325
#     4   9  16  26  42  67  99 132 168 212 262 318
#     4  10  19  33  52  74 100 135 183 227 269 318
#
# _framework density 18.94482
#
# number of rings (size 3 to 8) (size 9 to 14) (size 15 to 20)
#    0.000    2.556    1.111    0.667    1.556    2.222 
#    0.000    2.222    0.000    0.000    0.000    7.778 
#    0.000    0.000    0.000   20.667    0.000    0.222 
#
# Total GULP energy -891997.873322 kJ/mol
# GULP energy per Si atom -12388.859352 kJ/mol
# Density = 1.890170 g / cm^3
# Si number density = 18.944820 Si / 1000 Ang^3
#
#
#
# Elastic Constant Matrix: (Units=GPa)
#
#
# Indices 1 2 3 4 5 6 
#
# 1 97.8392 34.5783 43.3543 0.0000 0.0000 0.0000
# 2 34.5783 97.8392 43.3543 0.0000 0.0000 0.0000
# 3 43.3543 43.3543 88.4655 0.0000 0.0000 0.0000
# 4 0.0000 0.0000 0.0000 18.6357 0.0000 0.0000
# 5 0.0000 0.0000 0.0000 0.0000 18.6357 0.0000
# 6 0.0000 0.0000 0.0000 0.0000 0.0000 13.9147
#
#
#
# Elastic Compliance Matrix: (Units=1/GPa)
#
#
# Indices 1 2 3 4 5 6 
#
# 1 0.013464 -0.002344 -0.005450 0.000000 0.000000 0.000000
# 2 -0.002344 0.013464 -0.005450 0.000000 0.000000 0.000000
# 3 -0.005450 -0.005450 0.016645 0.000000 0.000000 0.000000
# 4 0.000000 0.000000 0.000000 0.053660 0.000000 0.000000
# 5 0.000000 0.000000 0.000000 0.000000 0.053660 0.000000
# 6 0.000000 0.000000 0.000000 0.000000 0.000000 0.071866
#
#
# Mechanical properties :
#
#
# Convention : Reuss Voigt Hill
#
# Bulk Modulus (GPa) = 58.52359 58.52417 58.52388
# Shear Modulus (GPa) = 19.61227 21.09438 20.35332
#
# Velocity S-wave (km/s) = 3.22099 3.34048 3.28128
# Velocity P-wave (km/s) = 6.69266 6.77033 6.73161
#
# Compressibility (1/GPa) = 0.01708713
#
# Stress axis : x y z
#
# Youngs Moduli (GPa) = 74.27204 74.27204 60.07663
#
# Poissons Ratio (x) = 0.17406 0.32741
# Poissons Ratio (y) = 0.17406 0.32741
# Poissons Ratio (z) = 0.40477 0.40477
#
# Static dielectric constant tensor:
#      x y z
#    x 3.647550 0.000000 0.000000 
#    y 0.000000 3.647550 0.000000 
#    z 0.000000 0.000000 3.263120 
# 
# 
# High freq. dielectric constant tensor:
#      x y z
#    x 1.735220 0.000000 0.000000 
#    y 0.000000 1.735220 0.000000 
#    z 0.000000 0.000000 1.707700 
# 
# From -- ./inp_files/2710.got.cif
#   From: 2010.03.12/outbox.cif.g09.slc.cpg/sg123_2_cif.got.tgz:2710.got - 2010.04.06 16:26:55.
