data_PCOD8312822
_publ_section_title
;
Structure prediction by ZEFSAII (Michael W. Deem and Ramdas Pophale) SiO2 
 PCOD8312822
Probable space group: P 4/M M M
;
_chemical_formula_sum "Si O2"
_cell_formula_units_Z 72
_cell_length_a 19.193018
_cell_length_b 19.193018
_cell_length_c 10.357401
_cell_angle_alpha 90.000000
_cell_angle_beta 90.000000
_cell_angle_gamma 90.000000
_cell_volume 3815.375899
_symmetry_space_group_name_H-M "P 4/M M M"
_symmetry_group_IT_number 123
_symmetry_cell_setting 'tetragonal'
loop_
_space_group_symop_operation_xyz
x,y,z
-y,x,z
-x,-y,z
y,-x,z
x,-y,-z
-x,y,-z
y,x,-z
-y,-x,-z
-x,-y,-z
y,-x,-z
x,y,-z
-y,x,-z
-x,y,z
x,-y,z
-y,-x,z
y,x,z
loop_
_atom_site_type_symbol
_atom_site_label
_atom_site_fract_x
_atom_site_fract_y
_atom_site_fract_z
Si Si1 0.342443 0.919695 0.257751
Si Si2 0.798845 0.420579 0.642022
Si Si3 0.580068 0.307225 0.145080
Si Si4 0.191804 0.078782 0.350460
Si Si5 0.578861 0.081982 0.000000
O O1 0.377702 0.870720 0.364115
O O2 0.259207 0.907925 0.260752
O O3 0.375882 0.894620 0.122733
O O4 0.360069 0.000000 0.289279
O O5 0.764009 0.414536 0.500000
O O6 0.817229 0.500000 0.676437
O O7 0.747334 0.389751 0.750799
O O8 0.500000 0.324446 0.175677
O O9 0.620764 0.379237 0.159729
O O10 0.589063 0.276270 0.000000
O O11 0.212381 0.090972 0.500000
O O12 0.130861 0.130861 0.306000
O O13 0.164372 0.000000 0.330652
O O14 0.500000 0.115187 0.000000
O O15 0.570296 0.000000 0.000000
#
# Coordination Sequence:
#
# PCOD8312822 Si02
#       5
#    16  16  16  16   8
#     4  10  20  34  53  78 106 140 184 227 268 318
#     4  10  21  34  50  76 109 144 178 217 268 321
#     4   9  19  36  57  80 106 137 175 221 271 324
#     4   9  18  33  53  77 105 137 175 223 279 335
#     4   9  18  32  51  76 105 139 177 220 269 314
#
# _framework density 18.871009999999998
#
# number of rings (size 3 to 8) (size 9 to 14) (size 15 to 20)
#    0.000    2.556    0.000    1.333    1.556    4.444 
#    0.000    3.889    0.000    0.000    0.000    3.111 
#    0.000    4.444    0.000    0.000    0.000    0.000 
#
# Total GULP energy -892588.046139 kJ/mol
# GULP energy per Si atom -12397.056196 kJ/mol
# Density = 1.882806 g / cm^3
# Si number density = 18.871010 Si / 1000 Ang^3
#
#
#
# Elastic Constant Matrix: (Units=GPa)
#
#
# Indices 1 2 3 4 5 6 
#
# 1 97.1726 58.5095 52.2617 0.0000 0.0000 0.0000
# 2 58.5095 97.1726 52.2617 0.0000 0.0000 0.0000
# 3 52.2617 52.2617 101.7057 0.0000 0.0000 0.0000
# 4 0.0000 0.0000 0.0000 26.0399 0.0000 0.0000
# 5 0.0000 0.0000 0.0000 0.0000 26.0399 0.0000
# 6 0.0000 0.0000 0.0000 0.0000 0.0000 32.9373
#
#
#
# Elastic Compliance Matrix: (Units=1/GPa)
#
#
# Indices 1 2 3 4 5 6 
#
# 1 0.017835 -0.008029 -0.005039 0.000000 0.000000 0.000000
# 2 -0.008029 0.017835 -0.005039 0.000000 0.000000 0.000000
# 3 -0.005039 -0.005039 0.015011 0.000000 0.000000 0.000000
# 4 0.000000 0.000000 0.000000 0.038403 0.000000 0.000000
# 5 0.000000 0.000000 0.000000 0.000000 0.038403 0.000000
# 6 0.000000 0.000000 0.000000 0.000000 0.000000 0.030361
#
#
# Mechanical properties :
#
#
# Convention : Reuss Voigt Hill
#
# Bulk Modulus (GPa) = 69.11974 69.12409 69.12192
# Shear Modulus (GPa) = 25.14018 25.87130 25.50574
#
# Velocity S-wave (km/s) = 3.65391 3.70666 3.68038
# Velocity P-wave (km/s) = 7.38298 7.41811 7.40057
#
# Compressibility (1/GPa) = 0.01446765
#
# Stress axis : x y z
#
# Youngs Moduli (GPa) = 56.06797 56.06797 66.61765
#
# Poissons Ratio (x) = 0.45017 0.33570
# Poissons Ratio (y) = 0.45017 0.33570
# Poissons Ratio (z) = 0.28253 0.28253
#
# Static dielectric constant tensor:
#      x y z
#    x 3.358590 0.000000 0.000000 
#    y 0.000000 3.358590 0.000000 
#    z 0.000000 0.000000 3.521520 
# 
# 
# High freq. dielectric constant tensor:
#      x y z
#    x 1.724290 0.000000 0.000000 
#    y 0.000000 1.724290 0.000000 
#    z 0.000000 0.000000 1.728540 
# 
# From -- ./inp_files/1077.got.cif
#   From: 2010.03.12/outbox.cif.g09.slc.cpg/sg123_1_cif.got.tgz:1077.got - 2010.04.06 16:26:55.
