data_PCOD8312639
_publ_section_title
;
Structure prediction by ZEFSAII (Michael W. Deem and Ramdas Pophale) SiO2 
 PCOD8312639
Probable space group: P 4/M M M
;
_chemical_formula_sum "Si O2"
_cell_formula_units_Z 80
_cell_length_a 12.774071
_cell_length_b 12.774071
_cell_length_c 28.475083
_cell_angle_alpha 90.000000
_cell_angle_beta 90.000000
_cell_angle_gamma 90.000000
_cell_volume 4646.475484
_symmetry_space_group_name_H-M "P 4/M M M"
_symmetry_group_IT_number 123
_symmetry_cell_setting 'tetragonal'
loop_
_space_group_symop_operation_xyz
x,y,z
-y,x,z
-x,-y,z
y,-x,z
x,-y,-z
-x,y,-z
y,x,-z
-y,-x,-z
-x,-y,-z
y,-x,-z
x,y,-z
-y,x,-z
-x,y,z
x,-y,z
-y,-x,z
y,x,z
loop_
_atom_site_type_symbol
_atom_site_label
_atom_site_fract_x
_atom_site_fract_y
_atom_site_fract_z
Si Si1 0.875879 0.500000 0.447038
Si Si2 0.121748 0.705560 0.391603
Si Si3 0.121373 0.878628 0.948049
Si Si4 0.378521 0.621480 0.051936
Si Si5 0.211811 0.622946 0.700192
Si Si6 0.622452 0.881199 0.199182
Si Si7 0.750047 0.249954 0.125654
O O1 0.832096 0.500000 0.500000
O O2 0.836875 0.393800 0.421755
O O3 0.000000 0.500000 0.445877
O O4 0.193256 0.806745 0.403990
O O5 0.132216 0.673745 0.337123
O O6 0.000000 0.732720 0.402206
O O7 0.179794 0.820207 0.907219
O O8 0.000000 0.854376 0.942176
O O9 0.158364 0.841637 0.000000
O O10 0.354430 0.500000 0.057582
O O11 0.321110 0.678891 0.093466
O O12 0.341176 0.658825 0.000000
O O13 0.221224 0.500000 0.691787
O O14 0.326936 0.673065 0.694113
O O15 0.168924 0.651835 0.751175
O O16 0.500000 0.873693 0.189803
O O17 0.678170 0.822281 0.157293
O O18 0.661885 0.000000 0.199605
#
# Coordination Sequence:
#
# PCOD8312639 Si02
#       7
#     8  16   8   8  16  16   8
#     4   9  18  34  56  83 111 143 189 238 278 323
#     4  10  20  34  56  83 111 149 189 232 279 329
#     4   9  19  35  53  73  97 129 171 214 254 300
#     4   9  19  35  53  73  99 131 165 204 253 312
#     4  10  19  34  54  78 106 142 183 219 262 316
#     4  10  21  34  49  72 103 135 166 208 255 308
#     4  12  19  32  52  78 100 130 167 210 256 304
#
# _framework density 17.217351000000001
#
# number of rings (size 3 to 8) (size 9 to 14) (size 15 to 20)
#    0.000    2.100    2.000    2.700    0.000    1.600 
#    0.000    0.000    0.000    0.300    0.000   11.900 
#    0.000    0.000    0.000    0.000    0.000    0.000 
#
# Total GULP energy -991900.510457 kJ/mol
# GULP energy per Si atom -12398.756381 kJ/mol
# Density = 1.717816 g / cm^3
# Si number density = 17.217351 Si / 1000 Ang^3
#
#
#
# Elastic Constant Matrix: (Units=GPa)
#
#
# Indices 1 2 3 4 5 6 
#
# 1 80.6604 60.5477 45.6095 0.0000 0.0000 0.0000
# 2 60.5477 80.6602 45.6096 0.0000 0.0000 0.0000
# 3 45.6095 45.6096 110.7432 0.0000 0.0000 0.0000
# 4 0.0000 0.0000 0.0000 26.8564 0.0000 0.0000
# 5 0.0000 0.0000 0.0000 0.0000 26.8563 0.0000
# 6 0.0000 0.0000 0.0000 0.0000 0.0000 26.0696
#
#
#
# Elastic Compliance Matrix: (Units=1/GPa)
#
#
# Indices 1 2 3 4 5 6 
#
# 1 0.029684 -0.020036 -0.003974 0.000000 0.000000 0.000000
# 2 -0.020036 0.029685 -0.003974 0.000000 0.000000 0.000000
# 3 -0.003974 -0.003974 0.012303 0.000000 0.000000 0.000000
# 4 0.000000 0.000000 0.000000 0.037235 0.000000 0.000000
# 5 0.000000 0.000000 0.000000 0.000000 0.037235 0.000000
# 6 0.000000 0.000000 0.000000 0.000000 0.000000 0.038359
#
#
# Mechanical properties :
#
#
# Convention : Reuss Voigt Hill
#
# Bulk Modulus (GPa) = 63.67251 63.95527 63.81389
# Shear Modulus (GPa) = 20.34975 23.97625 22.16300
#
# Velocity S-wave (km/s) = 3.44165 3.73576 3.59172
# Velocity P-wave (km/s) = 7.27016 7.47223 7.37189
#
# Compressibility (1/GPa) = 0.01570537
#
# Stress axis : x y z
#
# Youngs Moduli (GPa) = 33.68771 33.68755 81.27984
#
# Poissons Ratio (x) = 0.67495 0.32299
# Poissons Ratio (y) = 0.67496 0.32300
# Poissons Ratio (z) = 0.13387 0.13387
#
# Static dielectric constant tensor:
#      x y z
#    x 3.260520 0.000000 0.000000 
#    y 0.000000 3.260550 0.000000 
#    z 0.000000 0.000000 3.355090 
# 
# 
# High freq. dielectric constant tensor:
#      x y z
#    x 1.659970 0.000000 0.000000 
#    y 0.000000 1.659970 0.000000 
#    z 0.000000 0.000000 1.678320 
# 
# From -- ./inp_files/8428.got.cif
#   From: 2010.03.12/outbox.cif.g09.slc.cpg/sg123_5_cif.got.tgz:8428.got - 2010.04.06 16:26:55.
