data_PCOD8312798
_publ_section_title
;
Structure prediction by ZEFSAII (Michael W. Deem and Ramdas Pophale) SiO2 
 PCOD8312798
Probable space group: P 4/M M M
;
_chemical_formula_sum "Si O2"
_cell_formula_units_Z 64
_cell_length_a 19.048355
_cell_length_b 19.048355
_cell_length_c 10.252529
_cell_angle_alpha 90.000000
_cell_angle_beta 90.000000
_cell_angle_gamma 90.000000
_cell_volume 3720.025861
_symmetry_space_group_name_H-M "P 4/M M M"
_symmetry_group_IT_number 123
_symmetry_cell_setting 'tetragonal'
loop_
_space_group_symop_operation_xyz
x,y,z
-y,x,z
-x,-y,z
y,-x,z
x,-y,-z
-x,y,-z
y,x,-z
-y,-x,-z
-x,-y,-z
y,-x,-z
x,y,-z
-y,x,-z
-x,y,z
x,-y,z
-y,-x,z
y,x,z
loop_
_atom_site_type_symbol
_atom_site_label
_atom_site_fract_x
_atom_site_fract_y
_atom_site_fract_z
Si Si1 0.582231 0.785827 0.246496
Si Si2 0.583308 0.300711 0.500000
Si Si3 0.654430 0.080281 0.152822
Si Si4 0.076691 0.814230 0.845497
Si Si5 0.417065 0.303952 0.000000
O O1 0.500000 0.794450 0.242292
O O2 0.605977 0.745760 0.376424
O O3 0.611620 0.864901 0.240244
O O4 0.608361 0.739910 0.124802
O O5 0.500000 0.318788 0.500000
O O6 0.625933 0.374068 0.500000
O O7 0.734757 0.094156 0.191345
O O8 0.632812 0.000000 0.187165
O O9 0.640588 0.094106 0.000000
O O10 0.134620 0.865381 0.781726
O O11 0.000000 0.835295 0.790782
O O12 0.076360 0.821854 0.000000
O O13 0.500000 0.318855 0.000000
O O14 0.379187 0.379187 0.000000
#
# Coordination Sequence:
#
# PCOD8312798 Si02
#       5
#    16   8  16  16   8
#     4  10  20  35  52  75 102 130 169 212 255 306
#     4  10  22  39  57  77 105 137 172 218 266 318
#     4   9  17  30  48  73 103 133 169 210 253 307
#     4   8  14  23  35  56  87 121 158 198 238 284
#     4  10  20  33  51  75 101 129 166 210 258 314
#
# _framework density 17.204183
#
# number of rings (size 3 to 8) (size 9 to 14) (size 15 to 20)
#    0.000    2.750    1.250    2.250    0.000    3.000 
#    0.000    3.125    0.000    6.750    0.000    0.000 
#    0.000    0.000    0.000    0.000    0.000   20.000 
#
# Total GULP energy -793335.637043 kJ/mol
# GULP energy per Si atom -12395.869329 kJ/mol
# Density = 1.716503 g / cm^3
# Si number density = 17.204183 Si / 1000 Ang^3
#
#
#
# Elastic Constant Matrix: (Units=GPa)
#
#
# Indices 1 2 3 4 5 6 
#
# 1 81.4264 60.4210 39.9483 0.0000 0.0000 0.0000
# 2 60.4210 81.4224 39.9476 0.0000 0.0000 0.0000
# 3 39.9483 39.9476 89.9226 0.0000 0.0000 0.0000
# 4 0.0000 0.0000 0.0000 14.0227 0.0000 0.0000
# 5 0.0000 0.0000 0.0000 0.0000 14.0234 0.0000
# 6 0.0000 0.0000 0.0000 0.0000 0.0000 39.4251
#
#
#
# Elastic Compliance Matrix: (Units=1/GPa)
#
#
# Indices 1 2 3 4 5 6 
#
# 1 0.028506 -0.019104 -0.004177 0.000000 0.000000 0.000000
# 2 -0.019104 0.028508 -0.004177 0.000000 0.000000 0.000000
# 3 -0.004177 -0.004177 0.014832 0.000000 0.000000 0.000000
# 4 0.000000 0.000000 0.000000 0.071313 0.000000 0.000000
# 5 0.000000 0.000000 0.000000 0.000000 0.071309 0.000000
# 6 0.000000 0.000000 0.000000 0.000000 0.000000 0.025365
#
#
# Mechanical properties :
#
#
# Convention : Reuss Voigt Hill
#
# Bulk Modulus (GPa) = 59.07041 59.26724 59.16883
# Shear Modulus (GPa) = 16.64484 20.99121 18.81803
#
# Velocity S-wave (km/s) = 3.11382 3.49681 3.31086
# Velocity P-wave (km/s) = 6.88021 7.12936 7.00589
#
# Compressibility (1/GPa) = 0.01692895
#
# Stress axis : x y z
#
# Youngs Moduli (GPa) = 35.07993 35.07807 67.42151
#
# Poissons Ratio (x) = 0.67014 0.28162
# Poissons Ratio (y) = 0.67018 0.28164
# Poissons Ratio (z) = 0.14653 0.14653
#
# Static dielectric constant tensor:
#      x y z
#    x 3.342230 0.000000 0.000000 
#    y 0.000000 3.342240 0.000000 
#    z 0.000000 0.000000 3.081550 
# 
# 
# High freq. dielectric constant tensor:
#      x y z
#    x 1.668320 0.000000 0.000000 
#    y 0.000000 1.668320 0.000000 
#    z 0.000000 0.000000 1.621870 
# 
# From -- ./inp_files/2671.got.cif
#   From: 2010.03.12/outbox.cif.g09.slc.cpg/sg123_2_cif.got.tgz:2671.got - 2010.04.06 16:26:55.
