data_PCOD8312019
_publ_section_title
;
Structure prediction by ZEFSAII (Michael W. Deem and Ramdas Pophale) SiO2 
 PCOD8312019
Probable space group: I -4 2 D
;
_chemical_formula_sum "Si O2"
_cell_formula_units_Z 56
_cell_length_a 24.040299
_cell_length_b 24.040299
_cell_length_c 4.978581
_cell_angle_alpha 90.000000
_cell_angle_beta 90.000000
_cell_angle_gamma 90.000000
_cell_volume 2877.301069
_symmetry_space_group_name_H-M "I -4 2 D"
_symmetry_group_IT_number 122
_symmetry_cell_setting 'tetragonal'
loop_
_space_group_symop_operation_xyz
x,y,z
y,-x,-z
-x,-y,z
-y,x,-z
x,1/2-y,1/4-z
-x,1/2+y,1/4-z
-y,1/2-x,1/4+z
y,1/2+x,1/4+z
1/2+x,1/2+y,1/2+z
1/2+y,1/2-x,1/2-z
1/2-x,1/2-y,1/2+z
1/2-y,1/2+x,1/2-z
1/2+x,-y,3/4-z
1/2-x,y,3/4-z
1/2-y,-x,3/4+z
1/2+y,x,3/4+z
loop_
_atom_site_type_symbol
_atom_site_label
_atom_site_fract_x
_atom_site_fract_y
_atom_site_fract_z
Si Si1 0.071162 0.312768 0.105462
Si Si2 0.867583 0.850109 0.648254
Si Si3 0.250000 0.712945 0.875000
Si Si4 0.787710 0.549723 0.606132
O O1 0.093398 0.250000 0.125000
O O2 0.081790 0.345421 0.386178
O O3 0.108310 0.344137 0.894562
O O4 0.007647 0.312391 0.009254
O O5 0.823251 0.802528 0.719449
O O6 0.840092 0.910338 0.618069
O O7 0.230367 0.750000 0.625000
O O8 0.750000 0.577000 0.375000
O O9 0.750000 0.541138 0.875000
#
# Coordination Sequence:
#
# PCOD8312019 Si02
#       4
#    16  16   8  16
#     4  11  21  39  60  85 116 163 210 244 299 377
#     4  12  22  38  61  87 122 160 202 250 308 366
#     4  12  22  34  54  88 126 154 186 238 316 382
#     4  11  23  40  61  89 122 158 207 256 301 369
#
# _framework density 19.462683999999999
#
# number of rings (size 3 to 8) (size 9 to 14) (size 15 to 20)
#    0.000    0.571    2.857    8.571    0.000    0.000 
#    0.000    0.000    0.000    5.143    0.000    0.000 
#    0.000    0.000    0.000    0.000    0.000    0.000 
#
# Total GULP energy -347127.967985 kJ/mol
# GULP energy per Si atom -12397.427428 kJ/mol
# Density = 1.941839 g / cm^3
# Si number density = 19.462684 Si / 1000 Ang^3
#
#
#
# Elastic Constant Matrix: (Units=GPa)
#
#
# Indices 1 2 3 4 5 6 
#
# 1 95.1231 52.6135 33.7456 0.0000 0.0000 0.0000
# 2 52.6135 95.1231 33.7456 0.0000 0.0000 0.0000
# 3 33.7456 33.7456 106.9938 0.0000 0.0000 0.0000
# 4 0.0000 0.0000 0.0000 35.1833 0.0000 0.0000
# 5 0.0000 0.0000 0.0000 0.0000 35.1833 0.0000
# 6 0.0000 0.0000 0.0000 0.0000 0.0000 29.2974
#
#
#
# Elastic Compliance Matrix: (Units=1/GPa)
#
#
# Indices 1 2 3 4 5 6 
#
# 1 0.015716 -0.007808 -0.002494 0.000000 0.000000 0.000000
# 2 -0.007808 0.015716 -0.002494 0.000000 0.000000 0.000000
# 3 -0.002494 -0.002494 0.010920 0.000000 0.000000 0.000000
# 4 0.000000 0.000000 0.000000 0.028423 0.000000 0.000000
# 5 0.000000 0.000000 0.000000 0.000000 0.028423 0.000000
# 6 0.000000 0.000000 0.000000 0.000000 0.000000 0.034133
#
#
# Mechanical properties :
#
#
# Convention : Reuss Voigt Hill
#
# Bulk Modulus (GPa) = 59.66861 59.71659 59.69260
# Shear Modulus (GPa) = 30.39345 31.74183 31.06764
#
# Velocity S-wave (km/s) = 3.95603 4.04283 3.99967
# Velocity P-wave (km/s) = 7.18272 7.24858 7.21572
#
# Compressibility (1/GPa) = 0.01675923
#
# Stress axis : x y z
#
# Youngs Moduli (GPa) = 63.62873 63.62873 91.57766
#
# Poissons Ratio (x) = 0.49681 0.22842
# Poissons Ratio (y) = 0.49681 0.22842
# Poissons Ratio (z) = 0.15871 0.15871
#
# Static dielectric constant tensor:
#      x y z
#    x 3.442370 0.000000 0.000000 
#    y 0.000000 3.442370 0.000000 
#    z 0.000000 0.000000 3.722100 
# 
# 
# High freq. dielectric constant tensor:
#      x y z
#    x 1.745610 0.000000 0.000000 
#    y 0.000000 1.745610 0.000000 
#    z 0.000000 0.000000 1.784990 
# 
# From -- ./inp_files/999.got.cif
#   From: 2010.03.12/outbox.cif.g09.slc.cpg/sg122_1_cif.got.tgz:999.got - 2010.04.06 16:17:16.
