data_PCOD8312641
_publ_section_title
;
Structure prediction by ZEFSAII (Michael W. Deem and Ramdas Pophale) SiO2 
 PCOD8312641
Probable space group: P 4/M M M
;
_chemical_formula_sum "Si O2"
_cell_formula_units_Z 72
_cell_length_a 20.286778
_cell_length_b 20.286778
_cell_length_c 9.594288
_cell_angle_alpha 90.000000
_cell_angle_beta 90.000000
_cell_angle_gamma 90.000000
_cell_volume 3948.561479
_symmetry_space_group_name_H-M "P 4/M M M"
_symmetry_group_IT_number 123
_symmetry_cell_setting 'tetragonal'
loop_
_space_group_symop_operation_xyz
x,y,z
-y,x,z
-x,-y,z
y,-x,z
x,-y,-z
-x,y,-z
y,x,-z
-y,-x,-z
-x,-y,-z
y,-x,-z
x,y,-z
-y,x,-z
-x,y,z
x,-y,z
-y,-x,z
y,x,z
loop_
_atom_site_type_symbol
_atom_site_label
_atom_site_fract_x
_atom_site_fract_y
_atom_site_fract_z
Si Si1 0.741677 0.574743 0.840846
Si Si2 0.190356 0.809645 0.665647
Si Si3 0.390365 0.889271 0.850573
Si Si4 0.922925 0.756729 0.155385
Si Si5 0.574518 0.000000 0.646079
Si Si6 0.698783 0.698783 0.333421
O O1 0.717559 0.500000 0.804933
O O2 0.819849 0.575727 0.827232
O O3 0.714757 0.627295 0.730347
O O4 0.720557 0.593076 0.000000
O O5 0.184807 0.815194 0.500000
O O6 0.117892 0.795834 0.728449
O O7 0.245795 0.754205 0.705925
O O8 0.312050 0.884933 0.851283
O O9 0.411157 0.934264 0.726114
O O10 0.413842 0.918497 0.000000
O O11 0.000000 0.749285 0.200154
O O12 0.918923 0.789176 0.000000
O O13 0.500000 0.000000 0.605438
O O14 0.615171 0.000000 0.500000
O O15 0.692933 0.692933 0.500000
#
# Coordination Sequence:
#
# PCOD8312641 Si02
#       6
#    16   8  16  16   8   8
#     4  10  21  37  59  85 112 147 192 241 288 333
#     4  11  23  37  57  86 117 154 193 233 286 342
#     4  10  19  34  55  78 106 144 190 233 276 330
#     4  10  20  36  59  85 112 147 190 237 287 334
#     4  11  23  33  43  67 107 153 192 227 274 331
#     4  11  23  37  57  86 119 156 193 233 288 348
#
# _framework density 18.234487999999999
#
# number of rings (size 3 to 8) (size 9 to 14) (size 15 to 20)
#    0.000    1.667    3.333    1.667    0.000    5.333 
#    0.000    0.000    0.000    0.667    0.000    4.667 
#    0.000    0.000    0.000    0.000    0.000    0.000 
#
# Total GULP energy -891974.363582 kJ/mol
# GULP energy per Si atom -12388.532828 kJ/mol
# Density = 1.819299 g / cm^3
# Si number density = 18.234488 Si / 1000 Ang^3
#
#
#
# Elastic Constant Matrix: (Units=GPa)
#
#
# Indices 1 2 3 4 5 6 
#
# 1 73.5658 30.5898 49.3219 0.0000 0.0000 0.0000
# 2 30.5898 73.5659 49.3221 0.0000 0.0000 0.0000
# 3 49.3219 49.3221 141.4809 0.0000 0.0000 0.0000
# 4 0.0000 0.0000 0.0000 -2.9716 0.0000 0.0000
# 5 0.0000 0.0000 0.0000 0.0000 -2.9716 0.0000
# 6 0.0000 0.0000 0.0000 0.0000 0.0000 28.1905
#
#
#
# Elastic Compliance Matrix: (Units=1/GPa)
#
#
# Indices 1 2 3 4 5 6 
#
# 1 0.018801 -0.004468 -0.004997 0.000000 0.000000 0.000000
# 2 -0.004468 0.018801 -0.004997 0.000000 0.000000 0.000000
# 3 -0.004997 -0.004997 0.010552 0.000000 0.000000 0.000000
# 4 0.000000 0.000000 0.000000 -0.336522 0.000000 0.000000
# 5 0.000000 0.000000 0.000000 0.000000 -0.336523 0.000000
# 6 0.000000 0.000000 0.000000 0.000000 0.000000 0.035473
#
#
# Mechanical properties :
#
#
# Convention : Reuss Voigt Hill
#
# Bulk Modulus (GPa) = 51.99782 60.78669 56.39226
# Shear Modulus (GPa) = -9.02390 15.07473 3.02542
#
# Velocity S-wave (km/s) = -2.22700 2.87839 1.28949
# Velocity P-wave (km/s) = 4.68672 6.66748 5.76284
#
# Compressibility (1/GPa) = 0.01923158
#
# Stress axis : x y z
#
# Youngs Moduli (GPa) = 53.18847 53.18839 94.76892
#
# Poissons Ratio (x) = 0.23763 0.47354
# Poissons Ratio (y) = 0.23763 0.47354
# Poissons Ratio (z) = 0.26577 0.26577
#
# Static dielectric constant tensor:
#      x y z
#    x 3.279170 0.000000 0.000000 
#    y 0.000000 3.279170 0.000000 
#    z 0.000000 0.000000 2.398160 
# 
# 
# High freq. dielectric constant tensor:
#      x y z
#    x 1.690460 0.000000 0.000000 
#    y 0.000000 1.690460 0.000000 
#    z 0.000000 0.000000 1.716990 
# 
# From -- ./inp_files/1144.got.cif
#   From: 2010.03.12/outbox.cif.g09.slc.cpg/sg123_1_cif.got.tgz:1144.got - 2010.04.06 16:26:55.
