data_PCOD8312014
_publ_section_title
;
Structure prediction by ZEFSAII (Michael W. Deem and Ramdas Pophale) SiO2 
 PCOD8312014
Probable space group: I -4 2 D
;
_chemical_formula_sum "Si O2"
_cell_formula_units_Z 64
_cell_length_a 21.471764
_cell_length_b 21.471764
_cell_length_c 6.510275
_cell_angle_alpha 90.000000
_cell_angle_beta 90.000000
_cell_angle_gamma 90.000000
_cell_volume 3001.475372
_symmetry_space_group_name_H-M "I -4 2 D"
_symmetry_group_IT_number 122
_symmetry_cell_setting 'tetragonal'
loop_
_space_group_symop_operation_xyz
x,y,z
y,-x,-z
-x,-y,z
-y,x,-z
x,1/2-y,1/4-z
-x,1/2+y,1/4-z
-y,1/2-x,1/4+z
y,1/2+x,1/4+z
1/2+x,1/2+y,1/2+z
1/2+y,1/2-x,1/2-z
1/2-x,1/2-y,1/2+z
1/2-y,1/2+x,1/2-z
1/2+x,-y,3/4-z
1/2-x,y,3/4-z
1/2-y,-x,3/4+z
1/2+y,x,3/4+z
loop_
_atom_site_type_symbol
_atom_site_label
_atom_site_fract_x
_atom_site_fract_y
_atom_site_fract_z
Si Si1 0.810593 0.904047 0.993674
Si Si2 0.675038 0.982898 0.397810
Si Si3 0.118722 0.129246 0.606855
Si Si4 0.812571 0.704853 0.959498
O O1 0.750000 0.927781 0.875000
O O2 0.858979 0.869471 0.843457
O O3 0.789492 0.857278 0.174423
O O4 0.840000 0.962590 0.116199
O O5 0.750000 0.990202 0.375000
O O6 0.635826 0.044819 0.354524
O O7 0.644937 0.934241 0.238801
O O8 0.142272 0.189310 0.479169
O O9 0.846260 0.750000 0.125000
O O10 0.750000 0.738487 0.875000
#
# Coordination Sequence:
#
# PCOD8312014 Si02
#       4
#    16  16  16  16
#     4  11  20  43  68  93 135 178 220 285 352 409
#     4  11  25  45  70  98 136 182 226 288 351 417
#     4  11  25  45  66  98 137 179 235 290 345 424
#     4  11  23  36  63 102 138 176 218 289 364 430
#
# _framework density 21.322845999999998
#
# number of rings (size 3 to 8) (size 9 to 14) (size 15 to 20)
#    0.000    1.000    5.000    2.250    3.500    4.500 
#    0.000    0.000    0.000    0.000    0.000    0.000 
#    0.000    0.000    0.000    0.000    0.000    0.000 
#
# Total GULP energy -396685.186470 kJ/mol
# GULP energy per Si atom -12396.412077 kJ/mol
# Density = 2.127431 g / cm^3
# Si number density = 21.322846 Si / 1000 Ang^3
#
#
#
# Elastic Constant Matrix: (Units=GPa)
#
#
# Indices 1 2 3 4 5 6 
#
# 1 94.3097 32.9406 35.6050 0.0000 0.0000 0.0000
# 2 32.9406 94.3097 35.6050 0.0000 0.0000 0.0000
# 3 35.6050 35.6050 130.4859 0.0000 0.0000 0.0000
# 4 0.0000 0.0000 0.0000 31.0769 0.0000 0.0000
# 5 0.0000 0.0000 0.0000 0.0000 31.0769 0.0000
# 6 0.0000 0.0000 0.0000 0.0000 0.0000 22.0910
#
#
#
# Elastic Compliance Matrix: (Units=1/GPa)
#
#
# Indices 1 2 3 4 5 6 
#
# 1 0.012785 -0.003510 -0.002531 0.000000 0.000000 0.000000
# 2 -0.003510 0.012785 -0.002531 0.000000 0.000000 0.000000
# 3 -0.002531 -0.002531 0.009045 0.000000 0.000000 0.000000
# 4 0.000000 0.000000 0.000000 0.032178 0.000000 0.000000
# 5 0.000000 0.000000 0.000000 0.000000 0.032178 0.000000
# 6 0.000000 0.000000 0.000000 0.000000 0.000000 0.045267
#
#
# Mechanical properties :
#
#
# Convention : Reuss Voigt Hill
#
# Bulk Modulus (GPa) = 57.23687 58.60074 57.91881
# Shear Modulus (GPa) = 29.90341 31.17927 30.54134
#
# Velocity S-wave (km/s) = 3.74894 3.82808 3.78872
# Velocity P-wave (km/s) = 6.75579 6.86158 6.80889
#
# Compressibility (1/GPa) = 0.01747126
#
# Stress axis : x y z
#
# Youngs Moduli (GPa) = 78.21792 78.21792 110.56114
#
# Poissons Ratio (x) = 0.27455 0.27980
# Poissons Ratio (y) = 0.27455 0.27980
# Poissons Ratio (z) = 0.19795 0.19795
#
# Static dielectric constant tensor:
#      x y z
#    x 3.650840 0.000000 0.000000 
#    y 0.000000 3.650840 0.000000 
#    z 0.000000 0.000000 4.377170 
# 
# 
# High freq. dielectric constant tensor:
#      x y z
#    x 1.815990 0.000000 0.000000 
#    y 0.000000 1.815990 0.000000 
#    z 0.000000 0.000000 1.863810 
# 
# From -- ./inp_files/1079.got.cif
#   From: 2010.03.12/outbox.cif.g09.slc.cpg/sg122_1_cif.got.tgz:1079.got - 2010.04.06 16:17:16.
