data_PCOD8312202
_publ_section_title
;
Structure prediction by ZEFSAII (Michael W. Deem and Ramdas Pophale) SiO2 
 PCOD8312202
Probable space group: P 4/M M M
;
_chemical_formula_sum "Si O2"
_cell_formula_units_Z 96
_cell_length_a 24.207627
_cell_length_b 24.207627
_cell_length_c 9.227650
_cell_angle_alpha 90.000000
_cell_angle_beta 90.000000
_cell_angle_gamma 90.000000
_cell_volume 5407.487840
_symmetry_space_group_name_H-M "P 4/M M M"
_symmetry_group_IT_number 123
_symmetry_cell_setting 'tetragonal'
loop_
_space_group_symop_operation_xyz
x,y,z
-y,x,z
-x,-y,z
y,-x,z
x,-y,-z
-x,y,-z
y,x,-z
-y,-x,-z
-x,-y,-z
y,-x,-z
x,y,-z
-y,x,-z
-x,y,z
x,-y,z
-y,-x,z
y,x,z
loop_
_atom_site_type_symbol
_atom_site_label
_atom_site_fract_x
_atom_site_fract_y
_atom_site_fract_z
Si Si1 0.377611 0.755882 0.671865
Si Si2 0.170171 0.170171 0.828077
Si Si3 0.648322 0.438434 0.327433
Si Si4 0.747476 0.747476 0.671928
Si Si5 0.935107 0.648309 0.161267
Si Si6 0.771001 0.061157 0.828023
Si Si7 0.562787 0.865380 0.671907
O O1 0.378518 0.752274 0.500000
O O2 0.405431 0.700776 0.736383
O O3 0.314538 0.761616 0.723913
O O4 0.413146 0.807369 0.728542
O O5 0.211667 0.211667 0.752120
O O6 0.107390 0.184572 0.778182
O O7 0.176797 0.176797 0.000000
O O8 0.652444 0.440651 0.500000
O O9 0.647067 0.500000 0.262095
O O10 0.592772 0.407229 0.278242
O O11 0.754482 0.754482 0.500000
O O12 0.921156 0.709482 0.225070
O O13 0.913494 0.600698 0.265725
O O14 0.000000 0.641328 0.153123
O O15 0.909586 0.641342 0.000000
O O16 0.787380 0.000000 0.766446
O O17 0.768732 0.057222 0.000000
O O18 0.565058 0.868820 0.500000
O O19 0.500000 0.871994 0.727723
#
# Coordination Sequence:
#
# PCOD8312202 Si02
#       7
#    16   8  16   8  16  16  16
#     4   9  16  28  42  59  84 116 149 180 224 279
#     4  10  18  28  48  75  96 119 153 189 222 258
#     4   9  15  23  36  54  79 113 150 183 216 262
#     4  10  18  28  46  68  92 119 149 188 230 272
#     4   9  18  33  50  65  86 119 154 186 223 268
#     4   8  15  29  48  70  96 124 152 183 222 267
#     4  10  20  31  44  64  89 117 150 189 230 272
#
# _framework density 17.753159
#
# number of rings (size 3 to 8) (size 9 to 14) (size 15 to 20)
#    0.000    2.833    0.833    2.500    0.000    3.167 
#    0.000    2.500    0.000    1.750    0.000    1.750 
#    0.000    0.000    0.000    0.750    0.000    2.333 
#
# Total GULP energy -1189918.066757 kJ/mol
# GULP energy per Si atom -12394.979862 kJ/mol
# Density = 1.771275 g / cm^3
# Si number density = 17.753159 Si / 1000 Ang^3
#
#
#
# Elastic Constant Matrix: (Units=GPa)
#
#
# Indices 1 2 3 4 5 6 
#
# 1 127.1293 81.0483 19.8442 0.0000 0.0000 0.0000
# 2 81.0483 127.1293 19.8442 0.0000 0.0000 0.0000
# 3 19.8442 19.8442 14.1267 0.0000 0.0000 0.0000
# 4 0.0000 0.0000 0.0000 15.7234 0.0000 0.0000
# 5 0.0000 0.0000 0.0000 0.0000 15.7234 0.0000
# 6 0.0000 0.0000 0.0000 0.0000 0.0000 31.0119
#
#
#
# Elastic Compliance Matrix: (Units=1/GPa)
#
#
# Indices 1 2 3 4 5 6 
#
# 1 0.014131 -0.007570 -0.009216 0.000000 0.000000 0.000000
# 2 -0.007570 0.014131 -0.009216 0.000000 0.000000 0.000000
# 3 -0.009216 -0.009216 0.096680 0.000000 0.000000 0.000000
# 4 0.000000 0.000000 0.000000 0.063600 0.000000 0.000000
# 5 0.000000 0.000000 0.000000 0.000000 0.063600 0.000000
# 6 0.000000 0.000000 0.000000 0.000000 0.000000 0.032246
#
#
# Mechanical properties :
#
#
# Convention : Reuss Voigt Hill
#
# Bulk Modulus (GPa) = 13.71039 56.65094 35.18066
# Shear Modulus (GPa) = 13.86186 22.33497 18.09841
#
# Velocity S-wave (km/s) = 2.79733 3.55080 3.19634
# Velocity P-wave (km/s) = 4.26298 6.98502 5.78634
#
# Compressibility (1/GPa) = 0.07293740
#
# Stress axis : x y z
#
# Youngs Moduli (GPa) = 70.76767 70.76767 10.34345
#
# Poissons Ratio (x) = 0.53572 0.09532
# Poissons Ratio (y) = 0.53572 0.09532
# Poissons Ratio (z) = 0.65218 0.65218
#
# Static dielectric constant tensor:
#      x y z
#    x 3.522370 0.000000 0.000000 
#    y 0.000000 3.522370 0.000000 
#    z 0.000000 0.000000 2.806000 
# 
# 
# High freq. dielectric constant tensor:
#      x y z
#    x 1.693100 0.000000 0.000000 
#    y 0.000000 1.693100 0.000000 
#    z 0.000000 0.000000 1.624860 
# 
# From -- ./inp_files/3353.got.cif
#   From: 2010.03.12/outbox.cif.g09.slc.cpg/sg123_2_cif.got.tgz:3353.got - 2010.04.06 16:26:55.
