data_PCOD8312665
_publ_section_title
;
Structure prediction by ZEFSAII (Michael W. Deem and Ramdas Pophale) SiO2 
 PCOD8312665
Probable space group: P 4/M M M
;
_chemical_formula_sum "Si O2"
_cell_formula_units_Z 72
_cell_length_a 12.745849
_cell_length_b 12.745849
_cell_length_c 24.796448
_cell_angle_alpha 90.000000
_cell_angle_beta 90.000000
_cell_angle_gamma 90.000000
_cell_volume 4028.348289
_symmetry_space_group_name_H-M "P 4/M M M"
_symmetry_group_IT_number 123
_symmetry_cell_setting 'tetragonal'
loop_
_space_group_symop_operation_xyz
x,y,z
-y,x,z
-x,-y,z
y,-x,z
x,-y,-z
-x,y,-z
y,x,-z
-y,-x,-z
-x,-y,-z
y,-x,-z
x,y,-z
-y,x,-z
-x,y,z
x,-y,z
-y,-x,z
y,x,z
loop_
_atom_site_type_symbol
_atom_site_label
_atom_site_fract_x
_atom_site_fract_y
_atom_site_fract_z
Si Si1 0.289803 0.879721 0.768934
Si Si2 0.377965 0.785428 0.667776
Si Si3 0.624339 0.116970 0.558554
Si Si4 0.622310 0.205649 0.875332
Si Si5 0.375596 0.000000 0.060788
O O1 0.177002 0.822999 0.766597
O O2 0.349055 0.874028 0.711486
O O3 0.364254 0.824183 0.812776
O O4 0.270465 0.000000 0.784245
O O5 0.500000 0.763618 0.666402
O O6 0.322547 0.677454 0.685254
O O7 0.332982 0.817020 0.608921
O O8 0.656389 0.166214 0.500000
O O9 0.500000 0.110865 0.563155
O O10 0.671170 0.000000 0.562459
O O11 0.500000 0.232163 0.886666
O O12 0.692862 0.307139 0.890600
O O13 0.663409 0.106175 0.910027
O O14 0.500000 0.000000 0.061907
O O15 0.331459 0.000000 0.000000
#
# Coordination Sequence:
#
# PCOD8312665 Si02
#       5
#    16  16  16  16   8
#     4  10  20  34  53  77 103 131 166 209 258 311
#     4  10  20  31  45  67  94 128 168 208 251 299
#     4   8  14  26  44  64  85 112 151 200 250 296
#     4  10  20  34  54  81 111 144 180 219 264 313
#     4   9  18  34  56  79 105 141 182 221 258 301
#
# _framework density 17.873331
#
# number of rings (size 3 to 8) (size 9 to 14) (size 15 to 20)
#    0.000    2.556    1.111    2.000    0.000    3.778 
#    0.000    0.000    0.000    4.333    0.000    7.000 
#    0.000    0.000    0.000   20.667    0.000    1.111 
#
# Total GULP energy -892414.931112 kJ/mol
# GULP energy per Si atom -12394.651821 kJ/mol
# Density = 1.783265 g / cm^3
# Si number density = 17.873331 Si / 1000 Ang^3
#
#
#
# Elastic Constant Matrix: (Units=GPa)
#
#
# Indices 1 2 3 4 5 6 
#
# 1 85.9410 46.0231 29.3433 0.0000 0.0000 0.0000
# 2 46.0231 85.9410 29.3433 0.0000 0.0000 0.0000
# 3 29.3433 29.3433 108.7053 0.0000 0.0000 0.0000
# 4 0.0000 0.0000 0.0000 19.9302 0.0000 0.0000
# 5 0.0000 0.0000 0.0000 0.0000 19.9302 0.0000
# 6 0.0000 0.0000 0.0000 0.0000 0.0000 17.3903
#
#
#
# Elastic Compliance Matrix: (Units=1/GPa)
#
#
# Indices 1 2 3 4 5 6 
#
# 1 0.016832 -0.008220 -0.002325 0.000000 0.000000 0.000000
# 2 -0.008220 0.016832 -0.002325 0.000000 0.000000 0.000000
# 3 -0.002325 -0.002325 0.010454 0.000000 0.000000 0.000000
# 4 0.000000 0.000000 0.000000 0.050175 0.000000 0.000000
# 5 0.000000 0.000000 0.000000 0.000000 0.050175 0.000000
# 6 0.000000 0.000000 0.000000 0.000000 0.000000 0.057503
#
#
# Mechanical properties :
#
#
# Convention : Reuss Voigt Hill
#
# Bulk Modulus (GPa) = 54.40971 54.44517 54.42744
# Shear Modulus (GPa) = 21.38255 23.17529 22.27892
#
# Velocity S-wave (km/s) = 3.46256 3.60480 3.53440
# Velocity P-wave (km/s) = 6.81863 6.91765 6.86832
#
# Compressibility (1/GPa) = 0.01837907
#
# Stress axis : x y z
#
# Youngs Moduli (GPa) = 59.41238 59.41238 95.65585
#
# Poissons Ratio (x) = 0.48836 0.22236
# Poissons Ratio (y) = 0.48836 0.22236
# Poissons Ratio (z) = 0.13811 0.13811
#
# Static dielectric constant tensor:
#      x y z
#    x 3.081500 0.000000 0.000000 
#    y 0.000000 3.081500 0.000000 
#    z 0.000000 0.000000 3.631190 
# 
# 
# High freq. dielectric constant tensor:
#      x y z
#    x 1.670300 0.000000 0.000000 
#    y 0.000000 1.670300 0.000000 
#    z 0.000000 0.000000 1.707320 
# 
# From -- ./inp_files/7798.got.cif
#   From: 2010.03.12/outbox.cif.g09.slc.cpg/sg123_4_cif.got.tgz:7798.got - 2010.04.06 16:26:55.
