data_PCOD8312305
_publ_section_title
;
Structure prediction by ZEFSAII (Michael W. Deem and Ramdas Pophale) SiO2 
 PCOD8312305
Probable space group: P 4/M M M
;
_chemical_formula_sum "Si O2"
_cell_formula_units_Z 96
_cell_length_a 14.050694
_cell_length_b 14.050694
_cell_length_c 31.245236
_cell_angle_alpha 90.000000
_cell_angle_beta 90.000000
_cell_angle_gamma 90.000000
_cell_volume 6168.497040
_symmetry_space_group_name_H-M "P 4/M M M"
_symmetry_group_IT_number 123
_symmetry_cell_setting 'tetragonal'
loop_
_space_group_symop_operation_xyz
x,y,z
-y,x,z
-x,-y,z
y,-x,z
x,-y,-z
-x,y,-z
y,x,-z
-y,-x,-z
-x,-y,-z
y,-x,-z
x,y,-z
-y,x,-z
-x,y,z
x,-y,z
-y,-x,z
y,x,z
loop_
_atom_site_type_symbol
_atom_site_label
_atom_site_fract_x
_atom_site_fract_y
_atom_site_fract_z
Si Si1 0.393926 0.887093 0.423046
Si Si2 0.740490 0.892732 0.000000
Si Si3 0.111316 0.267968 0.907212
Si Si4 0.887122 0.393865 0.671990
Si Si5 0.887137 0.733882 0.749707
Si Si6 0.887107 0.736013 0.500000
Si Si7 0.605963 0.887397 0.170837
O O1 0.500000 0.847647 0.432835
O O2 0.361264 0.854136 0.375532
O O3 0.320625 0.849432 0.458391
O O4 0.397068 0.000000 0.425384
O O5 0.685934 0.871113 0.044982
O O6 0.838789 0.838789 0.000000
O O7 0.773922 0.000000 0.000000
O O8 0.170901 0.170901 0.901200
O O9 0.147316 0.345748 0.873250
O O10 0.000000 0.243272 0.899758
O O11 0.847421 0.500000 0.681974
O O12 0.850457 0.318966 0.706896
O O13 0.000000 0.398051 0.674336
O O14 0.835740 0.835740 0.752688
O O15 0.853606 0.668977 0.789258
O O16 0.000000 0.752624 0.749827
O O17 0.839785 0.839785 0.500000
O O18 0.000000 0.750723 0.500000
O O19 0.500000 0.842682 0.173961
O O20 0.597645 0.000000 0.171493
#
# Coordination Sequence:
#
# PCOD8312305 Si02
#       7
#    16   8  16  16  16   8  16
#     4   8  14  26  44  62  78 100 135 180 223 249
#     4   8  14  23  35  53  79 111 142 168 193 225
#     4   9  16  26  40  59  84 112 140 168 198 235
#     4   8  14  26  44  63  81 103 134 173 213 247
#     4  10  19  29  42  61  86 115 143 168 195 233
#     4  10  19  28  39  57  84 118 149 173 200 239
#     4   9  17  29  43  57  75 102 137 176 214 247
#
# _framework density 15.562948
#
# number of rings (size 3 to 8) (size 9 to 14) (size 15 to 20)
#    0.000    3.167    0.000    2.250    0.000    4.167 
#    0.000    2.083    0.000    5.500    0.000    4.667 
#    0.000   18.333    0.000   14.667    0.000   20.000 
#
# Total GULP energy -1189366.896347 kJ/mol
# GULP energy per Si atom -12389.238504 kJ/mol
# Density = 1.552753 g / cm^3
# Si number density = 15.562948 Si / 1000 Ang^3
#
#
#
# Elastic Constant Matrix: (Units=GPa)
#
#
# Indices 1 2 3 4 5 6 
#
# 1 57.5932 32.0529 46.4978 0.0000 0.0000 0.0000
# 2 32.0529 57.5932 46.4978 0.0000 0.0000 0.0000
# 3 46.4978 46.4978 144.5777 0.0000 0.0000 0.0000
# 4 0.0000 0.0000 0.0000 19.0404 0.0000 0.0000
# 5 0.0000 0.0000 0.0000 0.0000 19.0404 0.0000
# 6 0.0000 0.0000 0.0000 0.0000 0.0000 4.7653
#
#
#
# Elastic Compliance Matrix: (Units=1/GPa)
#
#
# Indices 1 2 3 4 5 6 
#
# 1 0.027947 -0.011207 -0.005384 0.000000 0.000000 0.000000
# 2 -0.011207 0.027947 -0.005384 0.000000 0.000000 0.000000
# 3 -0.005384 -0.005384 0.010380 0.000000 0.000000 0.000000
# 4 0.000000 0.000000 0.000000 0.052520 0.000000 0.000000
# 5 0.000000 0.000000 0.000000 0.000000 0.052520 0.000000
# 6 0.000000 0.000000 0.000000 0.000000 0.000000 0.209852
#
#
# Mechanical properties :
#
#
# Convention : Reuss Voigt Hill
#
# Bulk Modulus (GPa) = 44.79400 56.65127 50.72264
# Shear Modulus (GPa) = 11.55921 17.55026 14.55473
#
# Velocity S-wave (km/s) = 2.72828 3.36176 3.06145
# Velocity P-wave (km/s) = 6.22653 7.17976 6.72007
#
# Compressibility (1/GPa) = 0.02232442
#
# Stress axis : x y z
#
# Youngs Moduli (GPa) = 35.78225 35.78225 96.34254
#
# Poissons Ratio (x) = 0.40101 0.51868
# Poissons Ratio (y) = 0.40101 0.51868
# Poissons Ratio (z) = 0.19264 0.19264
#
# Static dielectric constant tensor:
#      x y z
#    x 2.697090 0.000000 0.000000 
#    y 0.000000 2.697090 0.000000 
#    z 0.000000 0.000000 3.534450 
# 
# 
# High freq. dielectric constant tensor:
#      x y z
#    x 1.556740 0.000000 0.000000 
#    y 0.000000 1.556740 0.000000 
#    z 0.000000 0.000000 1.625200 
# 
# From -- ./inp_files/8674.got.cif
#   From: 2010.03.12/outbox.cif.g09.slc.cpg/sg123_5_cif.got.tgz:8674.got - 2010.04.06 16:26:55.
