data_PCOD8312010
_publ_section_title
;
Structure prediction by ZEFSAII (Michael W. Deem and Ramdas Pophale) SiO2 
 PCOD8312010
Probable space group: I -4 2 D
;
_chemical_formula_sum "Si O2"
_cell_formula_units_Z 84
_cell_length_a 22.243832
_cell_length_b 22.243832
_cell_length_c 9.449705
_cell_angle_alpha 90.000000
_cell_angle_beta 90.000000
_cell_angle_gamma 90.000000
_cell_volume 4675.601224
_symmetry_space_group_name_H-M "I -4 2 D"
_symmetry_group_IT_number 122
_symmetry_cell_setting 'tetragonal'
loop_
_space_group_symop_operation_xyz
x,y,z
y,-x,-z
-x,-y,z
-y,x,-z
x,1/2-y,1/4-z
-x,1/2+y,1/4-z
-y,1/2-x,1/4+z
y,1/2+x,1/4+z
1/2+x,1/2+y,1/2+z
1/2+y,1/2-x,1/2-z
1/2-x,1/2-y,1/2+z
1/2-y,1/2+x,1/2-z
1/2+x,-y,3/4-z
1/2-x,y,3/4-z
1/2-y,-x,3/4+z
1/2+y,x,3/4+z
loop_
_atom_site_type_symbol
_atom_site_label
_atom_site_fract_x
_atom_site_fract_y
_atom_site_fract_z
Si Si1 0.574840 0.303654 0.530514
Si Si2 0.415527 0.047671 0.277098
Si Si3 0.996030 0.120334 0.816392
Si Si4 0.695039 0.240579 0.468641
Si Si5 0.500000 0.500000 0.500000
Si Si6 0.624544 0.125269 0.468918
O O1 0.546418 0.250000 0.625000
O O2 0.527858 0.326825 0.416122
O O3 0.634555 0.280110 0.448687
O O4 0.589539 0.356877 0.638489
O O5 0.480022 0.079478 0.279283
O O6 0.371319 0.082093 0.169498
O O7 0.390249 0.050293 0.437046
O O8 0.057480 0.145825 0.748854
O O9 0.005496 0.058156 0.900077
O O10 0.719671 0.250000 0.625000
O O11 0.750000 0.263593 0.375000
O O12 0.680159 0.170231 0.440494
#
# Coordination Sequence:
#
# PCOD8312010 Si02
#       6
#    16  16  16  16   4  16
#     4   9  20  37  55  77 111 147 185 232 273 327
#     4   9  18  30  48  79 116 145 176 217 274 337
#     4  11  19  32  55  87 112 149 183 219 282 336
#     4   9  20  39  59  74 100 146 190 239 280 323
#     4  12  20  28  62  84 120 148 190 220 268 356
#     4   9  18  35  53  77 112 140 182 233 273 329
#
# _framework density 17.965603000000002
#
# number of rings (size 3 to 8) (size 9 to 14) (size 15 to 20)
#    0.000    2.857    1.905    2.286    0.000    1.524 
#    0.000   14.286    0.000    0.000    0.000    0.000 
#    0.000    0.000    0.000    0.000    0.000    0.000 
#
# Total GULP energy -520540.640821 kJ/mol
# GULP energy per Si atom -12393.824781 kJ/mol
# Density = 1.792471 g / cm^3
# Si number density = 17.965603 Si / 1000 Ang^3
#
#
#
# Elastic Constant Matrix: (Units=GPa)
#
#
# Indices 1 2 3 4 5 6 
#
# 1 75.6632 38.0664 47.3901 0.0000 0.0000 0.0000
# 2 38.0664 75.6632 47.3901 0.0000 0.0000 0.0000
# 3 47.3901 47.3901 96.2392 0.0000 0.0000 0.0000
# 4 0.0000 0.0000 0.0000 32.3550 0.0000 0.0000
# 5 0.0000 0.0000 0.0000 0.0000 32.3550 0.0000
# 6 0.0000 0.0000 0.0000 0.0000 0.0000 12.2698
#
#
#
# Elastic Compliance Matrix: (Units=1/GPa)
#
#
# Indices 1 2 3 4 5 6 
#
# 1 0.020755 -0.005843 -0.007343 0.000000 0.000000 0.000000
# 2 -0.005843 0.020755 -0.007343 0.000000 0.000000 0.000000
# 3 -0.007343 -0.007343 0.017623 0.000000 0.000000 0.000000
# 4 0.000000 0.000000 0.000000 0.030907 0.000000 0.000000
# 5 0.000000 0.000000 0.000000 0.000000 0.030907 0.000000
# 6 0.000000 0.000000 0.000000 0.000000 0.000000 0.081501
#
#
# Mechanical properties :
#
#
# Convention : Reuss Voigt Hill
#
# Bulk Modulus (GPa) = 55.32564 57.02875 56.17720
# Shear Modulus (GPa) = 20.03758 23.04392 21.54075
#
# Velocity S-wave (km/s) = 3.34328 3.58532 3.46641
# Velocity P-wave (km/s) = 6.76502 6.99654 6.88176
#
# Compressibility (1/GPa) = 0.01807480
#
# Stress axis : x y z
#
# Youngs Moduli (GPa) = 48.18061 48.18061 56.74517
#
# Poissons Ratio (x) = 0.28151 0.41669
# Poissons Ratio (y) = 0.28151 0.41669
# Poissons Ratio (z) = 0.35380 0.35380
#
# Static dielectric constant tensor:
#      x y z
#    x 3.159240 0.000000 0.000000 
#    y 0.000000 3.159240 0.000000 
#    z 0.000000 0.000000 3.446010 
# 
# 
# High freq. dielectric constant tensor:
#      x y z
#    x 1.679760 0.000000 0.000000 
#    y 0.000000 1.679760 0.000000 
#    z 0.000000 0.000000 1.706230 
# 
# From -- ./inp_files/2832.got.cif
#   From: 2010.03.12/outbox.cif.g09.slc.cpg/sg122_2_cif.got.tgz:2832.got - 2010.04.06 16:17:16.
