data_PCOD8312655
_publ_section_title
;
Structure prediction by ZEFSAII (Michael W. Deem and Ramdas Pophale) SiO2 
 PCOD8312655
Probable space group: P 4/M M M
;
_chemical_formula_sum "Si O2"
_cell_formula_units_Z 96
_cell_length_a 21.773948
_cell_length_b 21.773948
_cell_length_c 13.743924
_cell_angle_alpha 90.000000
_cell_angle_beta 90.000000
_cell_angle_gamma 90.000000
_cell_volume 6516.060497
_symmetry_space_group_name_H-M "P 4/M M M"
_symmetry_group_IT_number 123
_symmetry_cell_setting 'tetragonal'
loop_
_space_group_symop_operation_xyz
x,y,z
-y,x,z
-x,-y,z
y,-x,z
x,-y,-z
-x,y,-z
y,x,-z
-y,-x,-z
-x,-y,-z
y,-x,-z
x,y,-z
-y,x,-z
-x,y,z
x,-y,z
-y,-x,z
y,x,z
loop_
_atom_site_type_symbol
_atom_site_label
_atom_site_fract_x
_atom_site_fract_y
_atom_site_fract_z
Si Si1 0.887195 0.745114 0.388319
Si Si2 0.568860 0.193188 0.385341
Si Si3 0.612946 0.935061 0.386990
Si Si4 0.258604 0.844706 0.891446
Si Si5 0.685709 0.781968 0.721297
Si Si6 0.172443 0.071887 0.221663
O O1 0.886767 0.765144 0.500000
O O2 0.928712 0.685467 0.368612
O O3 0.818058 0.727825 0.356608
O O4 0.914367 0.802852 0.329994
O O5 0.585376 0.198493 0.500000
O O6 0.500000 0.217169 0.365275
O O7 0.574848 0.122864 0.347031
O O8 0.617487 0.231192 0.320822
O O9 0.598805 0.938440 0.500000
O O10 0.591895 0.000000 0.338455
O O11 0.208546 0.791454 0.889411
O O12 0.314359 0.822860 0.820888
O O13 0.225752 0.906594 0.853276
O O14 0.284481 0.855903 0.000000
O O15 0.715318 0.715318 0.739745
O O16 0.109175 0.109175 0.204088
O O17 0.158883 0.000000 0.206133
#
# Coordination Sequence:
#
# PCOD8312655 Si02
#       6
#    16  16  16  16  16  16
#     4   9  16  26  40  58  79  98 121 161 206 241
#     4   9  17  26  35  53  85 119 143 164 189 218
#     4   8  13  21  34  51  70  96 129 158 185 223
#     4   8  15  29  47  64  78  90 113 158 211 253
#     4   9  16  26  43  64  81 101 131 164 200 241
#     4  10  20  30  40  55  73  97 129 162 201 249
#
# _framework density 14.732827
#
# number of rings (size 3 to 8) (size 9 to 14) (size 15 to 20)
#    0.000    3.167    0.000    3.500    0.000    4.167 
#    0.000    1.667    0.000    0.500    0.000    3.500 
#    0.000    0.333    0.000   14.000    0.000    0.500 
#
# Total GULP energy -1189370.898410 kJ/mol
# GULP energy per Si atom -12389.280192 kJ/mol
# Density = 1.469929 g / cm^3
# Si number density = 14.732827 Si / 1000 Ang^3
#
#
#
# Elastic Constant Matrix: (Units=GPa)
#
#
# Indices 1 2 3 4 5 6 
#
# 1 67.3400 21.8722 31.1428 0.0000 0.0000 0.0000
# 2 21.8722 67.3400 31.1428 0.0000 0.0000 0.0000
# 3 31.1428 31.1428 90.4946 0.0000 0.0000 0.0000
# 4 0.0000 0.0000 0.0000 12.5727 0.0000 0.0000
# 5 0.0000 0.0000 0.0000 0.0000 12.5727 0.0000
# 6 0.0000 0.0000 0.0000 0.0000 0.0000 7.9691
#
#
#
# Elastic Compliance Matrix: (Units=1/GPa)
#
#
# Indices 1 2 3 4 5 6 
#
# 1 0.018374 -0.003620 -0.005078 0.000000 0.000000 0.000000
# 2 -0.003620 0.018374 -0.005078 0.000000 0.000000 0.000000
# 3 -0.005078 -0.005078 0.014545 0.000000 0.000000 0.000000
# 4 0.000000 0.000000 0.000000 0.079537 0.000000 0.000000
# 5 0.000000 0.000000 0.000000 0.000000 0.079537 0.000000
# 6 0.000000 0.000000 0.000000 0.000000 0.000000 0.125485
#
#
# Mechanical properties :
#
#
# Convention : Reuss Voigt Hill
#
# Bulk Modulus (GPa) = 42.11680 43.72116 42.91898
# Shear Modulus (GPa) = 13.46558 16.02401 14.74479
#
# Velocity S-wave (km/s) = 3.02650 3.30152 3.16699
# Velocity P-wave (km/s) = 6.39234 6.65386 6.52441
#
# Compressibility (1/GPa) = 0.02374349
#
# Stress axis : x y z
#
# Youngs Moduli (GPa) = 54.42504 54.42504 68.75152
#
# Poissons Ratio (x) = 0.19700 0.34909
# Poissons Ratio (y) = 0.19700 0.34909
# Poissons Ratio (z) = 0.27634 0.27634
#
# Static dielectric constant tensor:
#      x y z
#    x 2.707420 0.000000 0.000000 
#    y 0.000000 2.707420 0.000000 
#    z 0.000000 0.000000 2.889110 
# 
# 
# High freq. dielectric constant tensor:
#      x y z
#    x 1.536190 0.000000 0.000000 
#    y 0.000000 1.536190 0.000000 
#    z 0.000000 0.000000 1.542110 
# 
# From -- ./inp_files/4355.got.cif
#   From: 2010.03.12/outbox.cif.g09.slc.cpg/sg123_3_cif.got.tgz:4355.got - 2010.04.06 16:26:55.
