data_PCOD8312017
_publ_section_title
;
Structure prediction by ZEFSAII (Michael W. Deem and Ramdas Pophale) SiO2 
 PCOD8312017
Probable space group: I -4 2 D
;
_chemical_formula_sum "Si O2"
_cell_formula_units_Z 96
_cell_length_a 20.010989
_cell_length_b 20.010989
_cell_length_c 12.113289
_cell_angle_alpha 90.000000
_cell_angle_beta 90.000000
_cell_angle_gamma 90.000000
_cell_volume 4850.641580
_symmetry_space_group_name_H-M "I -4 2 D"
_symmetry_group_IT_number 122
_symmetry_cell_setting 'tetragonal'
loop_
_space_group_symop_operation_xyz
x,y,z
y,-x,-z
-x,-y,z
-y,x,-z
x,1/2-y,1/4-z
-x,1/2+y,1/4-z
-y,1/2-x,1/4+z
y,1/2+x,1/4+z
1/2+x,1/2+y,1/2+z
1/2+y,1/2-x,1/2-z
1/2-x,1/2-y,1/2+z
1/2-y,1/2+x,1/2-z
1/2+x,-y,3/4-z
1/2-x,y,3/4-z
1/2-y,-x,3/4+z
1/2+y,x,3/4+z
loop_
_atom_site_type_symbol
_atom_site_label
_atom_site_fract_x
_atom_site_fract_y
_atom_site_fract_z
Si Si1 0.903284 0.948941 0.658181
Si Si2 0.482424 0.860372 0.003369
Si Si3 0.761084 0.398987 0.001841
Si Si4 0.443487 0.588983 0.477884
Si Si5 0.882739 0.325308 0.088775
Si Si6 0.885248 0.096222 0.577169
O O1 0.841225 0.935088 0.740230
O O2 0.893722 0.906447 0.548021
O O3 0.970652 0.923738 0.717817
O O4 0.908680 0.025862 0.627476
O O5 0.424525 0.849927 0.096461
O O6 0.527082 0.793794 0.992692
O O7 0.445685 0.874610 0.889099
O O8 0.807984 0.340888 0.049012
O O9 0.694752 0.397626 0.077583
O O10 0.750000 0.380583 0.875000
O O11 0.515121 0.586293 0.538269
O O12 0.393584 0.628861 0.555153
O O13 0.891757 0.250000 0.125000
#
# Coordination Sequence:
#
# PCOD8312017 Si02
#       6
#    16  16  16  16  16  16
#     4  11  21  38  66 100 128 158 210 278 339 382
#     4  11  23  39  62 100 133 168 209 272 339 389
#     4  11  22  46  65  92 134 171 221 273 329 389
#     4  11  22  41  66  95 135 169 212 264 323 396
#     4  11  25  44  65  93 130 185 216 258 321 395
#     4  12  22  38  69 102 128 162 217 282 339 388
#
# _framework density 19.791198000000001
#
# number of rings (size 3 to 8) (size 9 to 14) (size 15 to 20)
#    0.000    0.833    8.333    1.500    4.667    0.000 
#    0.000    5.000    0.000    0.000    0.000    0.000 
#    0.000    0.000    0.000    0.000    0.000    0.000 
#
# Total GULP energy -595243.076318 kJ/mol
# GULP energy per Si atom -12400.897423 kJ/mol
# Density = 1.974615 g / cm^3
# Si number density = 19.791198 Si / 1000 Ang^3
#
#
#
# Elastic Constant Matrix: (Units=GPa)
#
#
# Indices 1 2 3 4 5 6 
#
# 1 87.6794 12.6304 33.7959 0.0000 0.0000 0.0000
# 2 12.6304 87.6794 33.7959 0.0000 0.0000 0.0000
# 3 33.7959 33.7959 125.2179 0.0000 0.0000 0.0000
# 4 0.0000 0.0000 0.0000 -19.3591 0.0000 0.0000
# 5 0.0000 0.0000 0.0000 0.0000 -19.3591 0.0000
# 6 0.0000 0.0000 0.0000 0.0000 0.0000 15.5339
#
#
#
# Elastic Compliance Matrix: (Units=1/GPa)
#
#
# Indices 1 2 3 4 5 6 
#
# 1 0.012755 -0.000570 -0.003289 0.000000 0.000000 0.000000
# 2 -0.000570 0.012755 -0.003289 0.000000 0.000000 0.000000
# 3 -0.003289 -0.003289 0.009761 0.000000 0.000000 0.000000
# 4 0.000000 0.000000 0.000000 -0.051655 0.000000 0.000000
# 5 0.000000 0.000000 0.000000 0.000000 -0.051655 0.000000
# 6 0.000000 0.000000 0.000000 0.000000 0.000000 0.064375
#
#
# Mechanical properties :
#
#
# Convention : Reuss Voigt Hill
#
# Bulk Modulus (GPa) = 47.67195 51.22459 49.44827
# Shear Modulus (GPa) = 283.72540 10.05343 146.88941
#
# Velocity S-wave (km/s) = 11.98627 2.25627 8.62442
# Velocity P-wave (km/s) = 14.68675 5.72070 11.14511
#
# Compressibility (1/GPa) = 0.02097669
#
# Stress axis : x y z
#
# Youngs Moduli (GPa) = 78.40127 78.40127 102.44520
#
# Poissons Ratio (x) = 0.04467 0.33692
# Poissons Ratio (y) = 0.04467 0.33692
# Poissons Ratio (z) = 0.25784 0.25784
#
# Static dielectric constant tensor:
#      x y z
#    x 4.460040 0.000000 0.000000 
#    y 0.000000 4.460040 0.000000 
#    z 0.000000 0.000000 3.783130 
# 
# 
# High freq. dielectric constant tensor:
#      x y z
#    x 1.757040 0.000000 0.000000 
#    y 0.000000 1.757040 0.000000 
#    z 0.000000 0.000000 1.788790 
# 
# From -- ./inp_files/4443.got.cif
#   From: 2010.03.12/outbox.cif.g09.slc.cpg/sg122_3_cif.got.tgz:4443.got - 2010.04.06 16:17:16.
