data_PCOD8312758
_publ_section_title
;
Structure prediction by ZEFSAII (Michael W. Deem and Ramdas Pophale) SiO2 
 PCOD8312758
Probable space group: P 4/M M M
;
_chemical_formula_sum "Si O2"
_cell_formula_units_Z 96
_cell_length_a 13.795435
_cell_length_b 13.795435
_cell_length_c 30.161119
_cell_angle_alpha 90.000000
_cell_angle_beta 90.000000
_cell_angle_gamma 90.000000
_cell_volume 5740.084011
_symmetry_space_group_name_H-M "P 4/M M M"
_symmetry_group_IT_number 123
_symmetry_cell_setting 'tetragonal'
loop_
_space_group_symop_operation_xyz
x,y,z
-y,x,z
-x,-y,z
y,-x,z
x,-y,-z
-x,y,-z
y,x,-z
-y,-x,-z
-x,-y,-z
y,-x,-z
x,y,-z
-y,x,-z
-x,y,z
x,-y,z
-y,-x,z
y,x,z
loop_
_atom_site_type_symbol
_atom_site_label
_atom_site_fract_x
_atom_site_fract_y
_atom_site_fract_z
Si Si1 0.614746 0.773262 0.413727
Si Si2 0.614505 0.108866 0.500000
Si Si3 0.893405 0.615390 0.000000
Si Si4 0.230825 0.388985 0.819896
Si Si5 0.111916 0.268637 0.654941
Si Si6 0.389134 0.765636 0.919851
Si Si7 0.733086 0.889870 0.757244
O O1 0.500000 0.752274 0.413088
O O2 0.670291 0.670291 0.412591
O O3 0.648867 0.832302 0.456978
O O4 0.643313 0.839369 0.371824
O O5 0.500000 0.099775 0.500000
O O6 0.659735 0.000000 0.500000
O O7 0.841322 0.653169 0.955441
O O8 0.898905 0.500000 0.000000
O O9 0.000000 0.661348 0.000000
O O10 0.257140 0.500000 0.810241
O O11 0.327939 0.327939 0.810756
O O12 0.192637 0.374709 0.870237
O O13 0.145492 0.356266 0.787137
O O14 0.167821 0.167821 0.644875
O O15 0.121662 0.297675 0.706221
O O16 0.000000 0.254908 0.640986
O O17 0.500000 0.742831 0.930329
O O18 0.336016 0.663985 0.925370
O O19 0.828968 0.828968 0.768543
O O20 0.757718 0.000000 0.769079
#
# Coordination Sequence:
#
# PCOD8312758 Si02
#       7
#    16   8   8  16  16  16  16
#     4  10  20  33  49  70  97 129 165 202 237 276
#     4   9  17  30  49  71  93 119 153 193 236 279
#     4   9  17  28  41  59  85 115 145 177 213 256
#     4   9  18  31  46  66  92 121 154 191 230 274
#     4   9  18  32  50  72  96 122 153 191 237 287
#     4   9  17  29  45  65  89 116 146 182 223 267
#     4   9  18  32  49  70  95 121 152 192 236 282
#
# _framework density 16.724495000000001
#
# number of rings (size 3 to 8) (size 9 to 14) (size 15 to 20)
#    0.000    2.833    0.000    1.000    0.000    3.500 
#    0.000    6.667    0.000    3.000    0.000    4.667 
#    0.000    8.667    0.000    0.000    0.000    0.500 
#
# Total GULP energy -1190299.564546 kJ/mol
# GULP energy per Si atom -12398.953797 kJ/mol
# Density = 1.668643 g / cm^3
# Si number density = 16.724495 Si / 1000 Ang^3
#
#
#
# Elastic Constant Matrix: (Units=GPa)
#
#
# Indices 1 2 3 4 5 6 
#
# 1 100.8990 44.7381 55.3694 0.0000 0.0000 0.0000
# 2 44.7381 100.8990 55.3694 0.0000 0.0000 0.0000
# 3 55.3694 55.3694 95.3491 0.0000 0.0000 0.0000
# 4 0.0000 0.0000 0.0000 26.3800 0.0000 0.0000
# 5 0.0000 0.0000 0.0000 0.0000 26.3800 0.0000
# 6 0.0000 0.0000 0.0000 0.0000 0.0000 12.9177
#
#
#
# Elastic Compliance Matrix: (Units=1/GPa)
#
#
# Indices 1 2 3 4 5 6 
#
# 1 0.015051 -0.002755 -0.007140 0.000000 0.000000 0.000000
# 2 -0.002755 0.015051 -0.007140 0.000000 0.000000 0.000000
# 3 -0.007140 -0.007140 0.018780 0.000000 0.000000 0.000000
# 4 0.000000 0.000000 0.000000 0.037908 0.000000 0.000000
# 5 0.000000 0.000000 0.000000 0.000000 0.037908 0.000000
# 6 0.000000 0.000000 0.000000 0.000000 0.000000 0.077413
#
#
# Mechanical properties :
#
#
# Convention : Reuss Voigt Hill
#
# Bulk Modulus (GPa) = 67.51678 67.56674 67.54176
# Shear Modulus (GPa) = 20.73680 22.58021 21.65850
#
# Velocity S-wave (km/s) = 3.52505 3.67840 3.60254
# Velocity P-wave (km/s) = 7.55153 7.65038 7.60112
#
# Compressibility (1/GPa) = 0.01481113
#
# Stress axis : x y z
#
# Youngs Moduli (GPa) = 66.44199 66.44199 53.24758
#
# Poissons Ratio (x) = 0.18307 0.38019
# Poissons Ratio (y) = 0.18307 0.38019
# Poissons Ratio (z) = 0.47440 0.47440
#
# Static dielectric constant tensor:
#      x y z
#    x 3.068350 0.000000 0.000000 
#    y 0.000000 3.068350 0.000000 
#    z 0.000000 0.000000 3.350610 
# 
# 
# High freq. dielectric constant tensor:
#      x y z
#    x 1.632310 0.000000 0.000000 
#    y 0.000000 1.632310 0.000000 
#    z 0.000000 0.000000 1.656530 
# 
# From -- ./inp_files/8145.got.cif
#   From: 2010.03.12/outbox.cif.g09.slc.cpg/sg123_5_cif.got.tgz:8145.got - 2010.04.06 16:26:55.
