data_PCOD8312848
_publ_section_title
;
Structure prediction by ZEFSAII (Michael W. Deem and Ramdas Pophale) SiO2 
 PCOD8312848
Probable space group: P 4/M M M
;
_chemical_formula_sum "Si O2"
_cell_formula_units_Z 56
_cell_length_a 17.974043
_cell_length_b 17.974043
_cell_length_c 9.358777
_cell_angle_alpha 90.000000
_cell_angle_beta 90.000000
_cell_angle_gamma 90.000000
_cell_volume 3023.504726
_symmetry_space_group_name_H-M "P 4/M M M"
_symmetry_group_IT_number 123
_symmetry_cell_setting 'tetragonal'
loop_
_space_group_symop_operation_xyz
x,y,z
-y,x,z
-x,-y,z
y,-x,z
x,-y,-z
-x,y,-z
y,x,-z
-y,-x,-z
-x,-y,-z
y,-x,-z
x,y,-z
-y,x,-z
-x,y,z
x,-y,z
-y,-x,z
y,x,z
loop_
_atom_site_type_symbol
_atom_site_label
_atom_site_fract_x
_atom_site_fract_y
_atom_site_fract_z
Si Si1 0.809732 0.190269 0.167751
Si Si2 0.294737 0.415699 0.334803
Si Si3 0.416806 0.000000 0.830415
Si Si4 0.643900 0.157551 0.830263
Si Si5 0.914291 0.085710 0.338643
O O1 0.829390 0.272286 0.220820
O O2 0.867295 0.132706 0.229713
O O3 0.816093 0.183908 0.000000
O O4 0.275701 0.400491 0.500000
O O5 0.323918 0.500000 0.312999
O O6 0.359173 0.359173 0.281296
O O7 0.219608 0.406865 0.243691
O O8 0.377043 0.925026 0.775318
O O9 0.500000 0.000000 0.769324
O O10 0.416594 0.000000 0.000000
O O11 0.633540 0.165416 0.000000
O O12 0.892788 0.107213 0.500000
O O13 0.000000 0.103236 0.309692
#
# Coordination Sequence:
#
# PCOD8312848 Si02
#       5
#     8  16   8  16   8
#     4  10  21  33  53  82 109 139 180 230 276 321
#     4  10  21  37  57  81 110 144 182 226 275 327
#     4   9  18  32  53  79 106 139 174 212 261 319
#     4  10  20  36  56  80 109 142 181 222 269 326
#     4   9  20  38  56  76 106 145 187 227 270 324
#
# _framework density 18.521552
#
# number of rings (size 3 to 8) (size 9 to 14) (size 15 to 20)
#    0.000    2.286    1.429    1.286    2.000    3.714 
#    0.000    2.857    0.000    2.571    0.000    2.000 
#    0.000    0.000    0.000    0.000    0.000    0.000 
#
# Total GULP energy -694438.752812 kJ/mol
# GULP energy per Si atom -12400.692014 kJ/mol
# Density = 1.847940 g / cm^3
# Si number density = 18.521552 Si / 1000 Ang^3
#
#
#
# Elastic Constant Matrix: (Units=GPa)
#
#
# Indices 1 2 3 4 5 6 
#
# 1 65.4316 146.2848 27.1398 0.0000 0.0000 0.0000
# 2 146.2848 65.4409 27.1405 0.0000 0.0000 0.0000
# 3 27.1398 27.1405 21.8843 0.0000 0.0000 0.0000
# 4 0.0000 0.0000 0.0000 22.4023 0.0000 0.0000
# 5 0.0000 0.0000 0.0000 0.0000 22.4026 0.0000
# 6 0.0000 0.0000 0.0000 0.0000 0.0000 36.0948
#
#
#
# Elastic Compliance Matrix: (Units=1/GPa)
#
#
# Indices 1 2 3 4 5 6 
#
# 1 -0.002722 0.009647 -0.008588 0.000000 0.000000 0.000000
# 2 0.009647 -0.002722 -0.008588 0.000000 0.000000 0.000000
# 3 -0.008588 -0.008588 0.066996 0.000000 0.000000 0.000000
# 4 0.000000 0.000000 0.000000 0.044638 0.000000 0.000000
# 5 0.000000 0.000000 0.000000 0.000000 0.044638 0.000000
# 6 0.000000 0.000000 0.000000 0.000000 0.000000 0.027705
#
#
# Mechanical properties :
#
#
# Convention : Reuss Voigt Hill
#
# Bulk Modulus (GPa) = 21.50832 61.54302 41.52567
# Shear Modulus (GPa) = 23.91320 12.99274 18.45297
#
# Velocity S-wave (km/s) = 3.59709 2.65144 3.15984
# Velocity P-wave (km/s) = 5.37493 6.53249 5.98178
#
# Compressibility (1/GPa) = 0.04649363
#
# Stress axis : x y z
#
# Youngs Moduli (GPa) = -367.34566 -367.43355 14.92624
#
# Poissons Ratio (x) = 3.54459 0.12819
# Poissons Ratio (y) = 3.54374 0.12819
# Poissons Ratio (z) = -3.15473 -3.15564
#
# Static dielectric constant tensor:
#      x y z
#    x 3.558770 0.000000 0.000000 
#    y 0.000000 3.558780 0.000000 
#    z 0.000000 0.000000 3.139990 
# 
# 
# High freq. dielectric constant tensor:
#      x y z
#    x 1.729050 0.000000 0.000000 
#    y 0.000000 1.729050 0.000000 
#    z 0.000000 0.000000 1.693340 
# 
# From -- ./inp_files/640.got.cif
#   From: 2010.03.12/outbox.cif.g09.slc.cpg/sg123_1_cif.got.tgz:640.got - 2010.04.06 16:26:55.
