data_PCOD8312738
_publ_section_title
;
Structure prediction by ZEFSAII (Michael W. Deem and Ramdas Pophale) SiO2 
 PCOD8312738
Probable space group: P 4/M M M
;
_chemical_formula_sum "Si O2"
_cell_formula_units_Z 104
_cell_length_a 18.133883
_cell_length_b 18.133883
_cell_length_c 16.794675
_cell_angle_alpha 90.000000
_cell_angle_beta 90.000000
_cell_angle_gamma 90.000000
_cell_volume 5522.722512
_symmetry_space_group_name_H-M "P 4/M M M"
_symmetry_group_IT_number 123
_symmetry_cell_setting 'tetragonal'
loop_
_space_group_symop_operation_xyz
x,y,z
-y,x,z
-x,-y,z
y,-x,z
x,-y,-z
-x,y,-z
y,x,-z
-y,-x,-z
-x,-y,-z
y,-x,-z
x,y,-z
-y,x,-z
-x,y,z
x,-y,z
-y,-x,z
y,x,z
loop_
_atom_site_type_symbol
_atom_site_label
_atom_site_fract_x
_atom_site_fract_y
_atom_site_fract_z
Si Si1 0.301726 0.417570 0.165968
Si Si2 0.194881 0.081358 0.592365
Si Si3 0.159054 0.335689 0.638309
Si Si4 0.417532 0.304046 0.355680
Si Si5 0.185546 0.307524 0.189446
Si Si6 0.420039 0.914584 0.500000
Si Si7 0.796649 0.915712 0.906833
O O1 0.299659 0.500000 0.129187
O O2 0.376190 0.376190 0.136553
O O3 0.300432 0.420961 0.260962
O O4 0.229659 0.370321 0.139171
O O5 0.212523 0.073551 0.500000
O O6 0.112290 0.112290 0.607043
O O7 0.249442 0.142809 0.627289
O O8 0.201864 0.000000 0.632549
O O9 0.239876 0.363656 0.611533
O O10 0.149471 0.347404 0.733314
O O11 0.102393 0.378916 0.582604
O O12 0.500000 0.297208 0.391665
O O13 0.381719 0.381719 0.382870
O O14 0.244809 0.244809 0.216403
O O15 0.120739 0.273336 0.136433
O O16 0.500000 0.874840 0.500000
O O17 0.431682 0.000000 0.500000
O O18 0.871546 0.871546 0.885674
O O19 0.806577 0.000000 0.878090
O O20 0.780066 0.911834 0.000000
#
# Coordination Sequence:
#
# PCOD8312738 Si02
#       7
#    16  16  16  16  16   8  16
#     4   8  14  25  43  69 100 131 165 205 247 295
#     4  10  20  33  49  69  92 120 156 199 248 301
#     4  11  19  34  53  72  97 130 172 217 257 304
#     4   9  17  29  46  70  98 128 163 203 249 300
#     4   9  18  32  51  76 103 135 174 213 255 307
#     4  11  24  38  51  72 102 132 169 223 278 322
#     4   9  18  33  54  81 111 141 174 214 261 314
#
# _framework density 18.831292999999999
#
# number of rings (size 3 to 8) (size 9 to 14) (size 15 to 20)
#    0.000    2.538    0.769    3.231    0.000    2.462 
#    0.000    3.077    0.000    0.923    0.000    3.231 
#    0.000    1.846    0.000    6.154    0.000    4.769 
#
# Total GULP energy -1288518.277385 kJ/mol
# GULP energy per Si atom -12389.598821 kJ/mol
# Density = 1.878843 g / cm^3
# Si number density = 18.831293 Si / 1000 Ang^3
#
#
#
# Elastic Constant Matrix: (Units=GPa)
#
#
# Indices 1 2 3 4 5 6 
#
# 1 133.8534 79.6509 27.2566 0.0000 0.0000 0.0000
# 2 79.6509 133.8534 27.2566 0.0000 0.0000 0.0000
# 3 27.2566 27.2566 35.7839 0.0000 0.0000 0.0000
# 4 0.0000 0.0000 0.0000 17.4052 0.0000 0.0000
# 5 0.0000 0.0000 0.0000 0.0000 17.4052 0.0000
# 6 0.0000 0.0000 0.0000 0.0000 0.0000 5.9709
#
#
#
# Elastic Compliance Matrix: (Units=1/GPa)
#
#
# Indices 1 2 3 4 5 6 
#
# 1 0.012132 -0.006317 -0.004429 0.000000 0.000000 0.000000
# 2 -0.006317 0.012132 -0.004429 0.000000 0.000000 0.000000
# 3 -0.004429 -0.004429 0.034693 0.000000 0.000000 0.000000
# 4 0.000000 0.000000 0.000000 0.057454 0.000000 0.000000
# 5 0.000000 0.000000 0.000000 0.000000 0.057454 0.000000
# 6 0.000000 0.000000 0.000000 0.000000 0.000000 0.167480
#
#
# Mechanical properties :
#
#
# Convention : Reuss Voigt Hill
#
# Bulk Modulus (GPa) = 34.95784 63.53543 49.24663
# Shear Modulus (GPa) = 13.11542 19.44469 16.28005
#
# Velocity S-wave (km/s) = 2.64193 3.21685 2.94346
# Velocity P-wave (km/s) = 5.28303 6.90000 6.14494
#
# Compressibility (1/GPa) = 0.02860589
#
# Stress axis : x y z
#
# Youngs Moduli (GPa) = 82.42690 82.42690 28.82462
#
# Poissons Ratio (x) = 0.52072 0.12766
# Poissons Ratio (y) = 0.52072 0.12766
# Poissons Ratio (z) = 0.36507 0.36507
#
# Static dielectric constant tensor:
#      x y z
#    x 3.675900 0.000000 0.000000 
#    y 0.000000 3.675900 0.000000 
#    z 0.000000 0.000000 3.084660 
# 
# 
# High freq. dielectric constant tensor:
#      x y z
#    x 1.731930 0.000000 0.000000 
#    y 0.000000 1.731930 0.000000 
#    z 0.000000 0.000000 1.687730 
# 
# From -- ./inp_files/5650.got.cif
#   From: 2010.03.12/outbox.cif.g09.slc.cpg/sg123_3_cif.got.tgz:5650.got - 2010.04.06 16:26:55.
