data_PCOD8312266
_publ_section_title
;
Structure prediction by ZEFSAII (Michael W. Deem and Ramdas Pophale) SiO2 
 PCOD8312266
Probable space group: P 4/M M M
;
_chemical_formula_sum "Si O2"
_cell_formula_units_Z 96
_cell_length_a 22.604798
_cell_length_b 22.604798
_cell_length_c 11.740836
_cell_angle_alpha 90.000000
_cell_angle_beta 90.000000
_cell_angle_gamma 90.000000
_cell_volume 5999.295896
_symmetry_space_group_name_H-M "P 4/M M M"
_symmetry_group_IT_number 123
_symmetry_cell_setting 'tetragonal'
loop_
_space_group_symop_operation_xyz
x,y,z
-y,x,z
-x,-y,z
y,-x,z
x,-y,-z
-x,y,-z
y,x,-z
-y,-x,-z
-x,-y,-z
y,-x,-z
x,y,-z
-y,x,-z
-x,y,z
x,-y,z
-y,-x,z
y,x,z
loop_
_atom_site_type_symbol
_atom_site_label
_atom_site_fract_x
_atom_site_fract_y
_atom_site_fract_z
Si Si1 0.935858 0.617671 0.368123
Si Si2 0.433216 0.185222 0.365451
Si Si3 0.324998 0.230545 0.757083
Si Si4 0.262890 0.873689 0.368493
Si Si5 0.932878 0.837461 0.767757
Si Si6 0.794116 0.893358 0.000000
Si Si7 0.199792 0.298556 0.000000
O O1 0.940642 0.602001 0.500000
O O2 0.881344 0.579273 0.317725
O O3 0.923200 0.686950 0.349980
O O4 0.000000 0.602679 0.310799
O O5 0.421097 0.187130 0.500000
O O6 0.500000 0.203774 0.335252
O O7 0.388101 0.231181 0.307026
O O8 0.295883 0.295883 0.750370
O O9 0.278853 0.184946 0.701495
O O10 0.337557 0.211318 0.887552
O O11 0.257434 0.855471 0.500000
O O12 0.200986 0.899601 0.327172
O O13 0.900612 0.900612 0.778212
O O14 0.000000 0.849058 0.729691
O O15 0.932865 0.803000 0.887950
O O16 0.727519 0.866914 0.000000
O O17 0.840288 0.840288 0.000000
O O18 0.243406 0.243406 0.000000
#
# Coordination Sequence:
#
# PCOD8312266 Si02
#       7
#    16  16  16  16  16   8   8
#     4   8  14  25  41  61  85 114 148 183 218 259
#     4   9  18  30  43  65  99 133 162 192 223 262
#     4  10  18  30  50  73  95 120 152 190 234 279
#     4  10  19  30  46  69  94 113 138 183 235 284
#     4  11  22  34  48  63  82 110 144 185 233 286
#     4   9  17  33  50  66  84 104 135 179 233 284
#     4   9  16  29  50  73  94 112 140 189 239 281
#
# _framework density 16.001877
#
# number of rings (size 3 to 8) (size 9 to 14) (size 15 to 20)
#    0.000    2.500    1.667    2.750    0.000    3.833 
#    0.000    2.083    0.000    1.500    0.000    1.167 
#    0.000    3.333    0.000    1.833    0.000    4.667 
#
# Total GULP energy -1190011.042316 kJ/mol
# GULP energy per Si atom -12395.948357 kJ/mol
# Density = 1.596546 g / cm^3
# Si number density = 16.001877 Si / 1000 Ang^3
#
#
#
# Elastic Constant Matrix: (Units=GPa)
#
#
# Indices 1 2 3 4 5 6 
#
# 1 82.6449 35.2241 29.7184 0.0000 0.0000 0.0000
# 2 35.2241 82.6449 29.7184 0.0000 0.0000 0.0000
# 3 29.7184 29.7184 78.8717 0.0000 0.0000 0.0000
# 4 0.0000 0.0000 0.0000 16.9348 0.0000 0.0000
# 5 0.0000 0.0000 0.0000 0.0000 16.9348 0.0000
# 6 0.0000 0.0000 0.0000 0.0000 0.0000 11.6566
#
#
#
# Elastic Compliance Matrix: (Units=1/GPa)
#
#
# Indices 1 2 3 4 5 6 
#
# 1 0.015781 -0.005307 -0.003947 0.000000 0.000000 0.000000
# 2 -0.005307 0.015781 -0.003947 0.000000 0.000000 0.000000
# 3 -0.003947 -0.003947 0.015653 0.000000 0.000000 0.000000
# 4 0.000000 0.000000 0.000000 0.059050 0.000000 0.000000
# 5 0.000000 0.000000 0.000000 0.000000 0.059050 0.000000
# 6 0.000000 0.000000 0.000000 0.000000 0.000000 0.085788
#
#
# Mechanical properties :
#
#
# Convention : Reuss Voigt Hill
#
# Bulk Modulus (GPa) = 48.04276 48.16483 48.10379
# Shear Modulus (GPa) = 17.57834 19.07197 18.32515
#
# Velocity S-wave (km/s) = 3.31798 3.45608 3.38773
# Velocity P-wave (km/s) = 6.69082 6.78902 6.74010
#
# Compressibility (1/GPa) = 0.02081479
#
# Stress axis : x y z
#
# Youngs Moduli (GPa) = 63.36754 63.36754 63.88584
#
# Poissons Ratio (x) = 0.33628 0.25213
# Poissons Ratio (y) = 0.33628 0.25213
# Poissons Ratio (z) = 0.25009 0.25009
#
# Static dielectric constant tensor:
#      x y z
#    x 2.857810 0.000000 0.000000 
#    y 0.000000 2.857810 0.000000 
#    z 0.000000 0.000000 3.068220 
# 
# 
# High freq. dielectric constant tensor:
#      x y z
#    x 1.589180 0.000000 0.000000 
#    y 0.000000 1.589180 0.000000 
#    z 0.000000 0.000000 1.603480 
# 
# From -- ./inp_files/3317.got.cif
#   From: 2010.03.12/outbox.cif.g09.slc.cpg/sg123_2_cif.got.tgz:3317.got - 2010.04.06 16:26:55.
