data_PCOD8312783
_publ_section_title
;
Structure prediction by ZEFSAII (Michael W. Deem and Ramdas Pophale) SiO2 
 PCOD8312783
Probable space group: P 4/M M M
;
_chemical_formula_sum "Si O2"
_cell_formula_units_Z 72
_cell_length_a 13.298253
_cell_length_b 13.298253
_cell_length_c 23.214032
_cell_angle_alpha 90.000000
_cell_angle_beta 90.000000
_cell_angle_gamma 90.000000
_cell_volume 4105.251431
_symmetry_space_group_name_H-M "P 4/M M M"
_symmetry_group_IT_number 123
_symmetry_cell_setting 'tetragonal'
loop_
_space_group_symop_operation_xyz
x,y,z
-y,x,z
-x,-y,z
y,-x,z
x,-y,-z
-x,y,-z
y,x,-z
-y,-x,-z
-x,-y,-z
y,-x,-z
x,y,-z
-y,x,-z
-x,y,z
x,-y,z
-y,-x,z
y,x,z
loop_
_atom_site_type_symbol
_atom_site_label
_atom_site_fract_x
_atom_site_fract_y
_atom_site_fract_z
Si Si1 0.115520 0.276664 0.936298
Si Si2 0.617546 0.217033 0.607574
Si Si3 0.282941 0.118081 0.500000
Si Si4 0.721038 0.881507 0.711246
Si Si5 0.880907 0.610220 0.825662
O O1 0.170515 0.170515 0.932503
O O2 0.159074 0.350516 0.887387
O O3 0.000000 0.252259 0.923868
O O4 0.130371 0.325739 0.000000
O O5 0.500000 0.242219 0.602683
O O6 0.677629 0.322372 0.606603
O O7 0.651565 0.146298 0.555414
O O8 0.637940 0.155226 0.665866
O O9 0.176860 0.176860 0.500000
O O10 0.258720 0.000000 0.500000
O O11 0.827319 0.827319 0.698894
O O12 0.683558 0.848124 0.774318
O O13 0.738303 0.000000 0.705671
O O14 0.833525 0.500000 0.815514
O O15 0.000000 0.601620 0.826907
#
# Coordination Sequence:
#
# PCOD8312783 Si02
#       5
#    16  16   8  16  16
#     4   9  17  28  42  62  89 120 153 189 230 280
#     4  10  21  36  54  77 103 132 169 210 251 296
#     4  10  21  36  54  78 106 136 171 208 248 298
#     4  10  20  33  50  73 100 130 164 200 240 290
#     4   9  17  29  45  64  87 118 155 193 234 279
#
# _framework density 17.538511
#
# number of rings (size 3 to 8) (size 9 to 14) (size 15 to 20)
#    0.000    2.444    0.000    2.333    0.000    4.333 
#    0.000    3.333    0.000   10.000    0.000    0.000 
#    0.000    4.000    0.000    9.778    0.000    0.889 
#
# Total GULP energy -892660.558917 kJ/mol
# GULP energy per Si atom -12398.063318 kJ/mol
# Density = 1.749859 g / cm^3
# Si number density = 17.538511 Si / 1000 Ang^3
#
#
#
# Elastic Constant Matrix: (Units=GPa)
#
#
# Indices 1 2 3 4 5 6 
#
# 1 101.0284 45.1362 41.4193 0.0000 0.0000 0.0000
# 2 45.1362 101.0284 41.4193 0.0000 0.0000 0.0000
# 3 41.4193 41.4193 129.3098 0.0000 0.0000 0.0000
# 4 0.0000 0.0000 0.0000 17.7324 0.0000 0.0000
# 5 0.0000 0.0000 0.0000 0.0000 17.7324 0.0000
# 6 0.0000 0.0000 0.0000 0.0000 0.0000 11.6455
#
#
#
# Elastic Compliance Matrix: (Units=1/GPa)
#
#
# Indices 1 2 3 4 5 6 
#
# 1 0.013125 -0.004766 -0.002677 0.000000 0.000000 0.000000
# 2 -0.004766 0.013125 -0.002677 0.000000 0.000000 0.000000
# 3 -0.002677 -0.002677 0.009449 0.000000 0.000000 0.000000
# 4 0.000000 0.000000 0.000000 0.056394 0.000000 0.000000
# 5 0.000000 0.000000 0.000000 0.000000 0.056394 0.000000
# 6 0.000000 0.000000 0.000000 0.000000 0.000000 0.085870
#
#
# Mechanical properties :
#
#
# Convention : Reuss Voigt Hill
#
# Bulk Modulus (GPa) = 64.69655 65.25735 64.97695
# Shear Modulus (GPa) = 19.24913 22.98152 21.11533
#
# Velocity S-wave (km/s) = 3.31650 3.62380 3.47355
# Velocity P-wave (km/s) = 7.18568 7.40257 7.29493
#
# Compressibility (1/GPa) = 0.01545678
#
# Stress axis : x y z
#
# Youngs Moduli (GPa) = 76.18857 76.18857 105.83552
#
# Poissons Ratio (x) = 0.36313 0.28337
# Poissons Ratio (y) = 0.36313 0.28337
# Poissons Ratio (z) = 0.20399 0.20399
#
# Static dielectric constant tensor:
#      x y z
#    x 3.093830 0.000000 0.000000 
#    y 0.000000 3.093830 0.000000 
#    z 0.000000 0.000000 3.639560 
# 
# 
# High freq. dielectric constant tensor:
#      x y z
#    x 1.659390 0.000000 0.000000 
#    y 0.000000 1.659390 0.000000 
#    z 0.000000 0.000000 1.703010 
# 
# From -- ./inp_files/7809.got.cif
#   From: 2010.03.12/outbox.cif.g09.slc.cpg/sg123_4_cif.got.tgz:7809.got - 2010.04.06 16:26:55.
