data_PCOD8312263
_publ_section_title
;
Structure prediction by ZEFSAII (Michael W. Deem and Ramdas Pophale) SiO2 
 PCOD8312263
Probable space group: P 4/M M M
;
_chemical_formula_sum "Si O2"
_cell_formula_units_Z 120
_cell_length_a 18.620545
_cell_length_b 18.620545
_cell_length_c 21.024641
_cell_angle_alpha 90.000000
_cell_angle_beta 90.000000
_cell_angle_gamma 90.000000
_cell_volume 7289.762261
_symmetry_space_group_name_H-M "P 4/M M M"
_symmetry_group_IT_number 123
_symmetry_cell_setting 'tetragonal'
loop_
_space_group_symop_operation_xyz
x,y,z
-y,x,z
-x,-y,z
y,-x,z
x,-y,-z
-x,y,-z
y,x,-z
-y,-x,-z
-x,-y,-z
y,-x,-z
x,y,-z
-y,x,-z
-x,y,z
x,-y,z
-y,-x,z
y,x,z
loop_
_atom_site_type_symbol
_atom_site_label
_atom_site_fract_x
_atom_site_fract_y
_atom_site_fract_z
Si Si1 0.287102 0.916672 0.374078
Si Si2 0.917035 0.347670 0.810339
Si Si3 0.850220 0.417029 0.072072
Si Si4 0.303716 0.418264 0.880109
Si Si5 0.799570 0.917051 0.750829
Si Si6 0.915020 0.796603 0.500000
Si Si7 0.150896 0.581926 0.309650
Si Si8 0.579827 0.306296 0.733357
O O1 0.230352 0.898526 0.318991
O O2 0.251174 0.892390 0.439715
O O3 0.363270 0.877440 0.363167
O O4 0.305979 0.000000 0.374254
O O5 0.898181 0.368019 0.882288
O O6 0.898745 0.263519 0.800890
O O7 0.875660 0.397862 0.760748
O O8 0.000000 0.360740 0.796206
O O9 0.863725 0.500000 0.089730
O O10 0.766595 0.398157 0.079889
O O11 0.873756 0.400534 0.000000
O O12 0.327354 0.500000 0.892530
O O13 0.368512 0.368512 0.904026
O O14 0.285695 0.404179 0.806350
O O15 0.868254 0.868254 0.766279
O O16 0.823897 0.000000 0.755359
O O17 0.871408 0.871408 0.500000
O O18 0.000000 0.815569 0.500000
O O19 0.127044 0.500000 0.325341
O O20 0.236679 0.588215 0.310296
O O21 0.500000 0.338595 0.727583
O O22 0.634312 0.365689 0.707404
#
# Coordination Sequence:
#
# PCOD8312263 Si02
#       8
#    16  16  16  16  16   8  16  16
#     4   9  19  33  48  71 101 131 162 196 234 274
#     4  10  20  32  47  69  94 119 151 191 233 279
#     4  10  20  33  47  64  89 120 153 190 233 280
#     4   9  17  30  45  63  88 116 149 188 228 270
#     4   9  18  32  50  73  98 123 153 189 231 279
#     4  10  20  35  53  73 101 133 166 202 238 280
#     4  10  18  30  49  72  96 125 162 197 232 279
#     4   9  17  28  44  66  91 119 152 191 232 274
#
# _framework density 16.461442999999999
#
# number of rings (size 3 to 8) (size 9 to 14) (size 15 to 20)
#    0.000    2.533    1.333    2.000    0.000    6.067 
#    0.000    2.333    0.000    3.600    0.000    1.867 
#    0.000    0.000    0.000    2.933    0.000   10.667 
#
# Total GULP energy -1487970.710174 kJ/mol
# GULP energy per Si atom -12399.755918 kJ/mol
# Density = 1.642398 g / cm^3
# Si number density = 16.461443 Si / 1000 Ang^3
#
#
#
# Elastic Constant Matrix: (Units=GPa)
#
#
# Indices 1 2 3 4 5 6 
#
# 1 88.1514 62.3935 36.2431 0.0000 0.0000 0.0000
# 2 62.3935 88.1514 36.2431 0.0000 0.0000 0.0000
# 3 36.2431 36.2431 75.2151 0.0000 0.0000 0.0000
# 4 0.0000 0.0000 0.0000 18.6478 0.0000 0.0000
# 5 0.0000 0.0000 0.0000 0.0000 18.6478 0.0000
# 6 0.0000 0.0000 0.0000 0.0000 0.0000 32.5839
#
#
#
# Elastic Compliance Matrix: (Units=1/GPa)
#
#
# Indices 1 2 3 4 5 6 
#
# 1 0.023736 -0.015087 -0.004168 0.000000 0.000000 0.000000
# 2 -0.015087 0.023736 -0.004168 0.000000 0.000000 0.000000
# 3 -0.004168 -0.004168 0.017312 0.000000 0.000000 0.000000
# 4 0.000000 0.000000 0.000000 0.053626 0.000000 0.000000
# 5 0.000000 0.000000 0.000000 0.000000 0.053626 0.000000
# 6 0.000000 0.000000 0.000000 0.000000 0.000000 0.030690
#
#
# Mechanical properties :
#
#
# Convention : Reuss Voigt Hill
#
# Bulk Modulus (GPa) = 55.74343 57.91970 56.83156
# Shear Modulus (GPa) = 19.56566 21.75178 20.65872
#
# Velocity S-wave (km/s) = 3.45131 3.63902 3.54641
# Velocity P-wave (km/s) = 7.05823 7.27448 7.16717
#
# Compressibility (1/GPa) = 0.01793933
#
# Stress axis : x y z
#
# Youngs Moduli (GPa) = 42.12984 42.12984 57.76434
#
# Poissons Ratio (x) = 0.63561 0.24075
# Poissons Ratio (y) = 0.63561 0.24075
# Poissons Ratio (z) = 0.17559 0.17559
#
# Static dielectric constant tensor:
#      x y z
#    x 3.074860 0.000000 0.000000 
#    y 0.000000 3.074860 0.000000 
#    z 0.000000 0.000000 3.048130 
# 
# 
# High freq. dielectric constant tensor:
#      x y z
#    x 1.632480 0.000000 0.000000 
#    y 0.000000 1.632480 0.000000 
#    z 0.000000 0.000000 1.605920 
# 
# From -- ./inp_files/6788.got.cif
#   From: 2010.03.12/outbox.cif.g09.slc.cpg/sg123_4_cif.got.tgz:6788.got - 2010.04.06 16:26:55.
