data_PCOD8312569
_publ_section_title
;
Structure prediction by ZEFSAII (Michael W. Deem and Ramdas Pophale) SiO2 
 PCOD8312569
Probable space group: P 4/M M M
;
_chemical_formula_sum "Si O2"
_cell_formula_units_Z 68
_cell_length_a 17.687823
_cell_length_b 17.687823
_cell_length_c 12.658411
_cell_angle_alpha 90.000000
_cell_angle_beta 90.000000
_cell_angle_gamma 90.000000
_cell_volume 3960.298851
_symmetry_space_group_name_H-M "P 4/M M M"
_symmetry_group_IT_number 123
_symmetry_cell_setting 'tetragonal'
loop_
_space_group_symop_operation_xyz
x,y,z
-y,x,z
-x,-y,z
y,-x,z
x,-y,-z
-x,y,-z
y,x,-z
-y,-x,-z
-x,-y,-z
y,-x,-z
x,y,-z
-y,x,-z
-x,y,z
x,-y,z
-y,-x,z
y,x,z
loop_
_atom_site_type_symbol
_atom_site_label
_atom_site_fract_x
_atom_site_fract_y
_atom_site_fract_z
Si Si1 0.214222 0.414799 0.270811
Si Si2 0.749960 0.130533 0.500000
Si Si3 0.625841 0.257806 0.500000
Si Si4 0.700158 0.084293 0.284036
Si Si5 0.699136 0.300865 0.880319
Si Si6 0.181353 0.818648 0.838629
Si Si7 0.911518 0.088482 0.000000
O O1 0.206351 0.500000 0.228060
O O2 0.246168 0.419827 0.390858
O O3 0.131257 0.377244 0.272212
O O4 0.268280 0.370168 0.189079
O O5 0.836307 0.163694 0.500000
O O6 0.696476 0.202757 0.500000
O O7 0.730013 0.077340 0.402596
O O8 0.656304 0.343697 0.500000
O O9 0.768035 0.125919 0.228118
O O10 0.685869 0.000000 0.238801
O O11 0.762801 0.237200 0.901429
O O12 0.673745 0.326256 0.000000
O O13 0.126941 0.873060 0.901384
O O14 0.000000 0.105698 0.000000
#
# Coordination Sequence:
#
# PCOD8312569 Si02
#       7
#    16   8   8  16   8   8   4
#     4  10  20  33  54  82 110 137 171 216 260 311
#     4   9  15  28  47  72 102 134 177 215 248 300
#     4   9  15  30  53  78 104 134 173 211 254 306
#     4  10  19  31  51  76 105 140 173 211 261 315
#     4  10  20  36  57  77 101 139 183 215 249 306
#     4  10  19  35  52  72  95 131 182 222 258 304
#     4  11  22  34  50  72  96 124 166 229 292 318
#
# _framework density 17.170421000000001
#
# number of rings (size 3 to 8) (size 9 to 14) (size 15 to 20)
#    0.000    2.176    2.941    1.412    0.000    0.941 
#    0.000    0.000    0.000    4.588    0.000    5.765 
#    0.000    0.000    0.000    0.000    0.000    0.000 
#
# Total GULP energy -842433.784064 kJ/mol
# GULP energy per Si atom -12388.732119 kJ/mol
# Density = 1.713134 g / cm^3
# Si number density = 17.170421 Si / 1000 Ang^3
#
#
#
# Elastic Constant Matrix: (Units=GPa)
#
#
# Indices 1 2 3 4 5 6 
#
# 1 110.0407 68.0433 39.7933 0.0000 0.0000 0.0000
# 2 68.0433 110.0389 39.7930 0.0000 0.0000 0.0000
# 3 39.7933 39.7930 112.5169 0.0000 0.0000 0.0000
# 4 0.0000 0.0000 0.0000 -216.4478 0.0000 0.0000
# 5 0.0000 0.0000 0.0000 0.0000 -217.0746 0.0000
# 6 0.0000 0.0000 0.0000 0.0000 0.0000 15.8543
#
#
#
# Elastic Compliance Matrix: (Units=1/GPa)
#
#
# Indices 1 2 3 4 5 6 
#
# 1 0.015240 -0.008571 -0.002359 0.000000 0.000000 0.000000
# 2 -0.008571 0.015241 -0.002359 0.000000 0.000000 0.000000
# 3 -0.002359 -0.002359 0.010556 0.000000 0.000000 0.000000
# 4 0.000000 0.000000 0.000000 -0.004620 0.000000 0.000000
# 5 0.000000 0.000000 0.000000 0.000000 -0.004607 0.000000
# 6 0.000000 0.000000 0.000000 0.000000 0.000000 0.063074
#
#
# Mechanical properties :
#
#
# Convention : Reuss Voigt Hill
#
# Bulk Modulus (GPa) = 69.15665 69.76176 69.45920
# Shear Modulus (GPa) = 39.59407 -71.20248 -15.80421
#
# Velocity S-wave (km/s) = 4.80724 -6.44656 -3.03715
# Velocity P-wave (km/s) = 8.43663 3.83322 5.31428
#
# Compressibility (1/GPa) = 0.01445992
#
# Stress axis : x y z
#
# Youngs Moduli (GPa) = 65.61512 65.61409 94.73311
#
# Poissons Ratio (x) = 0.56238 0.22345
# Poissons Ratio (y) = 0.56239 0.22345
# Poissons Ratio (z) = 0.15477 0.15477
#
# Static dielectric constant tensor:
#      x y z
#    x 3.056500 0.000000 0.000000 
#    y 0.000000 3.056510 0.000000 
#    z 0.000000 0.000000 -4.599580 
# 
# 
# High freq. dielectric constant tensor:
#      x y z
#    x 1.650380 0.000000 0.000000 
#    y 0.000000 1.650390 0.000000 
#    z 0.000000 0.000000 1.664590 
# 
# From -- ./inp_files/2814.got.cif
#   From: 2010.03.12/outbox.cif.g09.slc.cpg/sg123_2_cif.got.tgz:2814.got - 2010.04.06 16:26:55.
