data_PCOD8312081
_publ_section_title
;
Structure prediction by ZEFSAII (Michael W. Deem and Ramdas Pophale) SiO2 
 PCOD8312081
Probable space group: I -4 2 D
;
_chemical_formula_sum "Si O2"
_cell_formula_units_Z 32
_cell_length_a 10.254461
_cell_length_b 10.254461
_cell_length_c 12.216338
_cell_angle_alpha 90.000000
_cell_angle_beta 90.000000
_cell_angle_gamma 90.000000
_cell_volume 1284.596444
_symmetry_space_group_name_H-M "I -4 2 D"
_symmetry_group_IT_number 122
_symmetry_cell_setting 'tetragonal'
loop_
_space_group_symop_operation_xyz
x,y,z
y,-x,-z
-x,-y,z
-y,x,-z
x,1/2-y,1/4-z
-x,1/2+y,1/4-z
-y,1/2-x,1/4+z
y,1/2+x,1/4+z
1/2+x,1/2+y,1/2+z
1/2+y,1/2-x,1/2-z
1/2-x,1/2-y,1/2+z
1/2-y,1/2+x,1/2-z
1/2+x,-y,3/4-z
1/2-x,y,3/4-z
1/2-y,-x,3/4+z
1/2+y,x,3/4+z
loop_
_atom_site_type_symbol
_atom_site_label
_atom_site_fract_x
_atom_site_fract_y
_atom_site_fract_z
Si Si1 0.855801 0.536772 0.463345
Si Si2 0.321957 0.927020 0.201150
O O1 0.750000 0.490668 0.375000
O O2 0.848920 0.692122 0.482671
O O3 0.821927 0.462783 0.574108
O O4 0.000000 0.500000 0.420233
O O5 0.443556 0.832230 0.224558
#
# Coordination Sequence:
#
# PCOD8312081 Si02
#       2
#    16  16
#     4  12  30  48  80 119 164 210 277 344 414 487
#     4  11  26  50  79 110 154 216 272 328 414 499
#
# _framework density 24.910549
#
# number of rings (size 3 to 8) (size 9 to 14) (size 15 to 20)
#    0.000    0.500    5.000    1.500   14.000    0.000 
#    0.000    0.000    0.000    0.000    0.000    0.000 
#    0.000    0.000    0.000    0.000    0.000    0.000 
#
# Total GULP energy -198539.070883 kJ/mol
# GULP energy per Si atom -12408.691930 kJ/mol
# Density = 2.485385 g / cm^3
# Si number density = 24.910549 Si / 1000 Ang^3
#
#
#
# Elastic Constant Matrix: (Units=GPa)
#
#
# Indices 1 2 3 4 5 6 
#
# 1 80.3244 -5.8011 43.6284 0.0000 0.0000 0.0000
# 2 -5.8011 80.3244 43.6284 0.0000 0.0000 0.0000
# 3 43.6284 43.6284 189.8525 0.0000 0.0000 0.0000
# 4 0.0000 0.0000 0.0000 44.8868 0.0000 0.0000
# 5 0.0000 0.0000 0.0000 0.0000 44.8868 0.0000
# 6 0.0000 0.0000 0.0000 0.0000 0.0000 24.6456
#
#
#
# Elastic Compliance Matrix: (Units=1/GPa)
#
#
# Indices 1 2 3 4 5 6 
#
# 1 0.014985 0.003374 -0.004219 0.000000 0.000000 0.000000
# 2 0.003374 0.014985 -0.004219 0.000000 0.000000 0.000000
# 3 -0.004219 -0.004219 0.007206 0.000000 0.000000 0.000000
# 4 0.000000 0.000000 0.000000 0.022278 0.000000 0.000000
# 5 0.000000 0.000000 0.000000 0.000000 0.022278 0.000000
# 6 0.000000 0.000000 0.000000 0.000000 0.000000 0.040575
#
#
# Mechanical properties :
#
#
# Convention : Reuss Voigt Hill
#
# Bulk Modulus (GPa) = 36.97178 57.04583 47.00881
# Shear Modulus (GPa) = 35.34800 40.82021 38.08410
#
# Velocity S-wave (km/s) = 3.77104 4.05244 3.91427
# Velocity P-wave (km/s) = 5.81679 6.69674 6.27222
#
# Compressibility (1/GPa) = 0.02704765
#
# Stress axis : x y z
#
# Youngs Moduli (GPa) = 66.73523 66.73522 138.76952
#
# Poissons Ratio (x) = -0.22514 0.58543
# Poissons Ratio (y) = -0.22514 0.58543
# Poissons Ratio (z) = 0.28154 0.28154
#
# Static dielectric constant tensor:
#      x y z
#    x 4.737630 0.000000 0.000000 
#    y 0.000000 4.737630 0.000000 
#    z 0.000000 0.000000 4.512200 
# 
# 
# High freq. dielectric constant tensor:
#      x y z
#    x 1.997270 0.000000 0.000000 
#    y 0.000000 1.997270 0.000000 
#    z 0.000000 0.000000 1.999550 
# 
# From -- ./inp_files/3260.got.cif
#   From: 2010.03.12/outbox.cif.g09.slc.cpg/sg122_2_cif.got.tgz:3260.got - 2010.04.06 16:17:16.
