data_PCOD8312101
_publ_section_title
;
Structure prediction by ZEFSAII (Michael W. Deem and Ramdas Pophale) SiO2 
 PCOD8312101
Probable space group: I -4 2 D
;
_chemical_formula_sum "Si O2"
_cell_formula_units_Z 72
_cell_length_a 13.550215
_cell_length_b 13.550215
_cell_length_c 17.086462
_cell_angle_alpha 90.000000
_cell_angle_beta 90.000000
_cell_angle_gamma 90.000000
_cell_volume 3137.216694
_symmetry_space_group_name_H-M "I -4 2 D"
_symmetry_group_IT_number 122
_symmetry_cell_setting 'tetragonal'
loop_
_space_group_symop_operation_xyz
x,y,z
y,-x,-z
-x,-y,z
-y,x,-z
x,1/2-y,1/4-z
-x,1/2+y,1/4-z
-y,1/2-x,1/4+z
y,1/2+x,1/4+z
1/2+x,1/2+y,1/2+z
1/2+y,1/2-x,1/2-z
1/2-x,1/2-y,1/2+z
1/2-y,1/2+x,1/2-z
1/2+x,-y,3/4-z
1/2-x,y,3/4-z
1/2-y,-x,3/4+z
1/2+y,x,3/4+z
loop_
_atom_site_type_symbol
_atom_site_label
_atom_site_fract_x
_atom_site_fract_y
_atom_site_fract_z
Si Si1 0.645584 0.280302 0.978124
Si Si2 0.688463 0.832469 0.797632
Si Si3 0.562933 0.750000 0.125000
Si Si4 0.087618 0.433095 0.864466
Si Si5 0.486753 0.736359 0.413973
O O1 0.707254 0.368519 0.941696
O O2 0.574001 0.223755 0.916708
O O3 0.721798 0.201695 0.014081
O O4 0.584456 0.335083 0.044564
O O5 0.750000 0.849781 0.875000
O O6 0.572911 0.844644 0.821713
O O7 0.726186 0.912040 0.735597
O O8 0.499261 0.838365 0.081774
O O9 0.000000 0.500000 0.831057
O O10 0.043167 0.341468 0.911094
#
# Coordination Sequence:
#
# PCOD8312101 Si02
#       5
#    16  16   8  16  16
#     4  12  24  47  73 109 152 193 257 333 407 461
#     4  12  27  52  74 110 157 213 266 330 409 491
#     4  12  24  38  70 108 144 184 244 328 392 456
#     4  12  24  41  72 113 146 186 253 323 405 473
#     4  12  27  47  77 107 157 208 262 331 402 496
#
# _framework density 22.950279999999999
#
# number of rings (size 3 to 8) (size 9 to 14) (size 15 to 20)
#    0.000    0.000    6.667    2.667    3.111    2.222 
#    4.000    0.000    0.000    0.000    0.000    0.000 
#    0.000    0.000    0.000    0.000    0.000    0.000 
#
# Total GULP energy -446097.292722 kJ/mol
# GULP energy per Si atom -12391.591464 kJ/mol
# Density = 2.289804 g / cm^3
# Si number density = 22.950280 Si / 1000 Ang^3
#
#
#
# Elastic Constant Matrix: (Units=GPa)
#
#
# Indices 1 2 3 4 5 6 
#
# 1 -72.6461 225.5506 69.8299 -0.0001 0.0000 0.0002
# 2 225.5506 -72.6459 69.8300 0.0001 0.0000 -0.0001
# 3 69.8299 69.8300 139.8715 0.0000 0.0000 0.0000
# 4 -0.0001 0.0001 0.0000 16.2529 0.0000 0.0000
# 5 0.0000 0.0000 0.0000 0.0000 16.2529 0.0000
# 6 0.0002 -0.0001 0.0000 0.0000 0.0000 -58.1602
#
#
#
# Elastic Compliance Matrix: (Units=1/GPa)
#
#
# Indices 1 2 3 4 5 6 
#
# 1 0.004334 0.007688 -0.006002 0.000000 0.000000 0.000000
# 2 0.007688 0.004334 -0.006002 0.000000 0.000000 0.000000
# 3 -0.006002 -0.006002 0.013142 0.000000 0.000000 0.000000
# 4 0.000000 0.000000 0.000000 0.061528 0.000000 0.000000
# 5 0.000000 0.000000 0.000000 0.000000 0.061528 0.000000
# 6 0.000000 0.000000 0.000000 0.000000 0.000000 -0.017194
#
#
# Mechanical properties :
#
#
# Convention : Reuss Voigt Hill
#
# Bulk Modulus (GPa) = 75.88026 80.55561 78.21794
# Shear Modulus (GPa) = 35.53730 -29.83963 2.84883
#
# Velocity S-wave (km/s) = 3.93930 -3.60972 1.11535
# Velocity P-wave (km/s) = 7.33658 4.21934 5.98449
#
# Compressibility (1/GPa) = 0.01317866
#
# Stress axis : x y z
#
# Youngs Moduli (GPa) = 230.71841 230.71829 76.09031
#
# Poissons Ratio (x) = -1.77371 0.45669
# Poissons Ratio (y) = -1.77371 0.45669
# Poissons Ratio (z) = 1.38476 1.38476
#
# Static dielectric constant tensor:
#      x y z
#    x 4.285530 0.000000 0.000000 
#    y 0.000000 4.285530 0.000000 
#    z 0.000000 0.000000 11.100600 
# 
# 
# High freq. dielectric constant tensor:
#      x y z
#    x 1.918080 0.000000 0.000000 
#    y 0.000000 1.918080 0.000000 
#    z 0.000000 0.000000 1.897880 
# 
# From -- ./inp_files/6126.got.cif
#   From: 2010.03.12/outbox.cif.g09.slc.cpg/sg122_4_cif.got.tgz:6126.got - 2010.04.06 16:17:16.
