data_PCOD8312468
_publ_section_title
;
Structure prediction by ZEFSAII (Michael W. Deem and Ramdas Pophale) SiO2 
 PCOD8312468
Probable space group: P 4/M M M
;
_chemical_formula_sum "Si O2"
_cell_formula_units_Z 80
_cell_length_a 12.648316
_cell_length_b 12.648316
_cell_length_c 28.971093
_cell_angle_alpha 90.000000
_cell_angle_beta 90.000000
_cell_angle_gamma 90.000000
_cell_volume 4634.792493
_symmetry_space_group_name_H-M "P 4/M M M"
_symmetry_group_IT_number 123
_symmetry_cell_setting 'tetragonal'
loop_
_space_group_symop_operation_xyz
x,y,z
-y,x,z
-x,-y,z
y,-x,z
x,-y,-z
-x,y,-z
y,x,-z
-y,-x,-z
-x,-y,-z
y,-x,-z
x,y,-z
-y,x,-z
-x,y,z
x,-y,z
-y,-x,z
y,x,z
loop_
_atom_site_type_symbol
_atom_site_label
_atom_site_fract_x
_atom_site_fract_y
_atom_site_fract_z
Si Si1 0.286870 0.875507 0.855424
Si Si2 0.378787 0.207468 0.553895
Si Si3 0.874737 0.617824 0.050020
Si Si4 0.204850 0.378331 0.234189
Si Si5 0.374421 0.000000 0.606328
Si Si6 0.000000 0.374521 0.710525
O O1 0.171240 0.828761 0.843558
O O2 0.315066 0.834095 0.906720
O O3 0.371562 0.828267 0.819541
O O4 0.282712 0.000000 0.851070
O O5 0.369951 0.181836 0.500000
O O6 0.500000 0.232895 0.567751
O O7 0.309023 0.309023 0.567734
O O8 0.333714 0.105332 0.580700
O O9 0.827754 0.500000 0.054031
O O10 0.000000 0.612011 0.052705
O O11 0.840505 0.666856 0.000000
O O12 0.232279 0.500000 0.245966
O O13 0.307385 0.307385 0.245602
O O14 0.106137 0.334410 0.264138
O O15 0.500000 0.000000 0.605001
O O16 0.330581 0.000000 0.658429
O O17 0.000000 0.500000 0.711669
#
# Coordination Sequence:
#
# PCOD8312468 Si02
#       6
#    16  16  16  16   8   8
#     4  10  19  30  46  67  93 127 164 203 247 295
#     4   9  17  29  47  73 104 137 172 210 253 299
#     4   8  14  25  42  63  85 112 150 197 245 292
#     4  10  20  34  53  76 100 127 161 202 249 299
#     4   9  17  30  49  71  96 131 172 210 245 286
#     4   9  18  33  52  72  96 128 167 206 244 297
#
# _framework density 17.260750999999999
#
# number of rings (size 3 to 8) (size 9 to 14) (size 15 to 20)
#    0.000    2.800    1.000    1.500    0.000    3.800 
#    0.000    1.000    0.000    0.600    0.000   11.200 
#    0.000    0.000    0.000   18.600    0.000    1.000 
#
# Total GULP energy -991479.382078 kJ/mol
# GULP energy per Si atom -12393.492276 kJ/mol
# Density = 1.722146 g / cm^3
# Si number density = 17.260751 Si / 1000 Ang^3
#
#
#
# Elastic Constant Matrix: (Units=GPa)
#
#
# Indices 1 2 3 4 5 6 
#
# 1 83.8582 55.7660 39.2657 0.0000 0.0000 0.0000
# 2 55.7660 83.8582 39.2657 0.0000 0.0000 0.0000
# 3 39.2657 39.2657 96.3504 0.0000 0.0000 0.0000
# 4 0.0000 0.0000 0.0000 16.3578 0.0000 0.0000
# 5 0.0000 0.0000 0.0000 0.0000 16.3578 0.0000
# 6 0.0000 0.0000 0.0000 0.0000 0.0000 15.1906
#
#
#
# Elastic Compliance Matrix: (Units=1/GPa)
#
#
# Indices 1 2 3 4 5 6 
#
# 1 0.022445 -0.013153 -0.003787 0.000000 0.000000 0.000000
# 2 -0.013153 0.022445 -0.003787 0.000000 0.000000 0.000000
# 3 -0.003787 -0.003787 0.013465 0.000000 0.000000 0.000000
# 4 0.000000 0.000000 0.000000 0.061133 0.000000 0.000000
# 5 0.000000 0.000000 0.000000 0.000000 0.061133 0.000000
# 6 0.000000 0.000000 0.000000 0.000000 0.000000 0.065830
#
#
# Mechanical properties :
#
#
# Convention : Reuss Voigt Hill
#
# Bulk Modulus (GPa) = 59.16424 59.18461 59.17443
# Shear Modulus (GPa) = 17.03365 18.23252 17.63308
#
# Velocity S-wave (km/s) = 3.14481 3.25360 3.19967
# Velocity P-wave (km/s) = 6.89475 6.96258 6.92875
#
# Compressibility (1/GPa) = 0.01690210
#
# Stress axis : x y z
#
# Youngs Moduli (GPa) = 44.55433 44.55433 74.26544
#
# Poissons Ratio (x) = 0.58600 0.28122
# Poissons Ratio (y) = 0.58600 0.28122
# Poissons Ratio (z) = 0.16872 0.16872
#
# Static dielectric constant tensor:
#      x y z
#    x 3.024010 0.000000 0.000000 
#    y 0.000000 3.024010 0.000000 
#    z 0.000000 0.000000 3.488950 
# 
# 
# High freq. dielectric constant tensor:
#      x y z
#    x 1.643810 0.000000 0.000000 
#    y 0.000000 1.643810 0.000000 
#    z 0.000000 0.000000 1.676940 
# 
# From -- ./inp_files/8391.got.cif
#   From: 2010.03.12/outbox.cif.g09.slc.cpg/sg123_5_cif.got.tgz:8391.got - 2010.04.06 16:26:55.
