data_PCOD8312333
_publ_section_title
;
Structure prediction by ZEFSAII (Michael W. Deem and Ramdas Pophale) SiO2 
 PCOD8312333
Probable space group: P 4/M M M
;
_chemical_formula_sum "Si O2"
_cell_formula_units_Z 88
_cell_length_a 14.297783
_cell_length_b 14.297783
_cell_length_c 27.974776
_cell_angle_alpha 90.000000
_cell_angle_beta 90.000000
_cell_angle_gamma 90.000000
_cell_volume 5718.788307
_symmetry_space_group_name_H-M "P 4/M M M"
_symmetry_group_IT_number 123
_symmetry_cell_setting 'tetragonal'
loop_
_space_group_symop_operation_xyz
x,y,z
-y,x,z
-x,-y,z
y,-x,z
x,-y,-z
-x,y,-z
y,x,-z
-y,-x,-z
-x,-y,-z
y,-x,-z
x,y,-z
-y,x,-z
-x,y,z
x,-y,z
-y,-x,z
y,x,z
loop_
_atom_site_type_symbol
_atom_site_label
_atom_site_fract_x
_atom_site_fract_y
_atom_site_fract_z
Si Si1 0.396208 0.889266 0.000000
Si Si2 0.237079 0.610577 0.637259
Si Si3 0.104172 0.610917 0.553392
Si Si4 0.893160 0.607822 0.274379
Si Si5 0.107981 0.740331 0.917856
Si Si6 0.106721 0.257612 0.809792
O O1 0.341630 0.855657 0.047388
O O2 0.500000 0.844235 0.000000
O O3 0.404904 0.000000 0.000000
O O4 0.258427 0.500000 0.634841
O O5 0.335493 0.664507 0.639959
O O6 0.180381 0.647632 0.591002
O O7 0.174406 0.637344 0.682741
O O8 0.133934 0.642709 0.500000
O O9 0.100268 0.500000 0.556732
O O10 0.000000 0.649862 0.565400
O O11 0.881114 0.500000 0.261783
O O12 0.862835 0.661618 0.226603
O O13 0.000000 0.630227 0.289545
O O14 0.165485 0.834516 0.928026
O O15 0.123155 0.704881 0.863604
O O16 0.000000 0.764815 0.928166
O O17 0.165463 0.165463 0.798974
O O18 0.000000 0.228077 0.801974
#
# Coordination Sequence:
#
# PCOD8312333 Si02
#       6
#     8  16  16  16  16  16
#     4   9  17  28  41  57  79 107 137 169 203 236
#     4  10  19  29  42  60  84 114 143 171 205 246
#     4   8  14  26  44  63  81 102 131 169 209 243
#     4   9  17  29  45  63  81 104 138 179 219 252
#     4   9  17  28  42  61  85 112 139 166 198 240
#     4   9  17  28  42  61  85 111 137 166 201 244
#
# _framework density 15.387874
#
# number of rings (size 3 to 8) (size 9 to 14) (size 15 to 20)
#    0.000    3.000    0.000    1.909    0.000    3.818 
#    0.000    5.455    0.000    1.636    0.000    2.545 
#    0.000    6.182    0.000   21.455    0.000    1.818 
#
# Total GULP energy -1090883.385436 kJ/mol
# GULP energy per Si atom -12396.402107 kJ/mol
# Density = 1.535285 g / cm^3
# Si number density = 15.387874 Si / 1000 Ang^3
#
#
#
# Elastic Constant Matrix: (Units=GPa)
#
#
# Indices 1 2 3 4 5 6 
#
# 1 71.1813 44.5647 58.3311 0.0000 0.0000 0.0000
# 2 44.5647 71.1813 58.3311 0.0000 0.0000 0.0000
# 3 58.3311 58.3311 122.9976 0.0000 0.0000 0.0000
# 4 0.0000 0.0000 0.0000 22.0320 0.0000 0.0000
# 5 0.0000 0.0000 0.0000 0.0000 22.0320 0.0000
# 6 0.0000 0.0000 0.0000 0.0000 0.0000 18.7833
#
#
#
# Elastic Compliance Matrix: (Units=1/GPa)
#
#
# Indices 1 2 3 4 5 6 
#
# 1 0.027061 -0.010510 -0.007849 0.000000 0.000000 0.000000
# 2 -0.010510 0.027061 -0.007849 0.000000 0.000000 0.000000
# 3 -0.007849 -0.007849 0.015575 0.000000 0.000000 0.000000
# 4 0.000000 0.000000 0.000000 0.045389 0.000000 0.000000
# 5 0.000000 0.000000 0.000000 0.000000 0.045389 0.000000
# 6 0.000000 0.000000 0.000000 0.000000 0.000000 0.053239
#
#
# Mechanical properties :
#
#
# Convention : Reuss Voigt Hill
#
# Bulk Modulus (GPa) = 57.86976 65.31268 61.59122
# Shear Modulus (GPa) = 18.38985 19.51167 18.95076
#
# Velocity S-wave (km/s) = 3.46075 3.56475 3.51314
# Velocity P-wave (km/s) = 7.32517 7.71230 7.52123
#
# Compressibility (1/GPa) = 0.01728018
#
# Stress axis : x y z
#
# Youngs Moduli (GPa) = 36.95391 36.95391 64.20481
#
# Poissons Ratio (x) = 0.38838 0.50396
# Poissons Ratio (y) = 0.38838 0.50396
# Poissons Ratio (z) = 0.29006 0.29006
#
# Static dielectric constant tensor:
#      x y z
#    x 2.806990 0.000000 0.000000 
#    y 0.000000 2.806990 0.000000 
#    z 0.000000 0.000000 3.214460 
# 
# 
# High freq. dielectric constant tensor:
#      x y z
#    x 1.567200 0.000000 0.000000 
#    y 0.000000 1.567200 0.000000 
#    z 0.000000 0.000000 1.606350 
# 
# From -- ./inp_files/7986.got.cif
#   From: 2010.03.12/outbox.cif.g09.slc.cpg/sg123_4_cif.got.tgz:7986.got - 2010.04.06 16:26:55.
