data_PCOD8312819
_publ_section_title
;
Structure prediction by ZEFSAII (Michael W. Deem and Ramdas Pophale) SiO2 
 PCOD8312819
Probable space group: P 4/M M M
;
_chemical_formula_sum "Si O2"
_cell_formula_units_Z 72
_cell_length_a 21.240492
_cell_length_b 21.240492
_cell_length_c 8.835159
_cell_angle_alpha 90.000000
_cell_angle_beta 90.000000
_cell_angle_gamma 90.000000
_cell_volume 3986.057085
_symmetry_space_group_name_H-M "P 4/M M M"
_symmetry_group_IT_number 123
_symmetry_cell_setting 'tetragonal'
loop_
_space_group_symop_operation_xyz
x,y,z
-y,x,z
-x,-y,z
y,-x,z
x,-y,-z
-x,y,-z
y,x,-z
-y,-x,-z
-x,-y,-z
y,-x,-z
x,y,-z
-y,x,-z
-x,y,z
x,-y,z
-y,-x,z
y,x,z
loop_
_atom_site_type_symbol
_atom_site_label
_atom_site_fract_x
_atom_site_fract_y
_atom_site_fract_z
Si Si1 0.073362 0.500000 0.676830
Si Si2 0.161173 0.598702 0.178875
Si Si3 0.400888 0.500000 0.819658
Si Si4 0.163147 0.733897 0.323533
Si Si5 0.826718 0.928119 0.175337
Si Si6 0.737902 0.500000 0.178409
O O1 0.087962 0.500000 0.500000
O O2 0.101619 0.436340 0.748065
O O3 0.000000 0.500000 0.712953
O O4 0.167880 0.669641 0.232704
O O5 0.224426 0.562172 0.229798
O O6 0.151961 0.596761 0.000000
O O7 0.437784 0.437784 0.763616
O O8 0.331285 0.500000 0.746248
O O9 0.397848 0.500000 0.000000
O O10 0.158946 0.718996 0.500000
O O11 0.224052 0.775949 0.283268
O O12 0.100220 0.770210 0.273919
O O13 0.891584 0.891584 0.209110
O O14 0.837211 0.000000 0.224198
O O15 0.807714 0.922200 0.000000
O O16 0.730181 0.500000 0.000000
#
# Coordination Sequence:
#
# PCOD8312819 Si02
#       6
#     8  16   8  16  16   8
#     4  10  21  37  56  77 103 136 171 208 255 311
#     4  10  20  34  53  76 102 133 170 213 259 304
#     4   8  13  22  38  62  94 129 159 188 227 277
#     4  10  21  36  53  74 102 136 174 215 258 307
#     4   9  18  33  53  77 104 133 166 205 250 301
#     4   8  16  29  44  68  99 128 161 200 243 293
#
# _framework density 18.062963
#
# number of rings (size 3 to 8) (size 9 to 14) (size 15 to 20)
#    0.000    2.667    0.000    2.667    0.000    4.667 
#    0.000    3.333    0.000    0.000    0.000    3.111 
#    0.000    0.000    0.000   44.000    0.000   39.556 
#
# Total GULP energy -892787.660441 kJ/mol
# GULP energy per Si atom -12399.828617 kJ/mol
# Density = 1.802185 g / cm^3
# Si number density = 18.062963 Si / 1000 Ang^3
#
#
#
# Elastic Constant Matrix: (Units=GPa)
#
#
# Indices 1 2 3 4 5 6 
#
# 1 153.8858 72.3865 46.8098 0.0000 0.0000 0.0000
# 2 72.3865 153.8858 46.8098 0.0000 0.0000 0.0000
# 3 46.8098 46.8098 63.2786 0.0000 0.0000 0.0000
# 4 0.0000 0.0000 0.0000 23.0812 0.0000 0.0000
# 5 0.0000 0.0000 0.0000 0.0000 23.0812 0.0000
# 6 0.0000 0.0000 0.0000 0.0000 0.0000 12.6714
#
#
#
# Elastic Compliance Matrix: (Units=1/GPa)
#
#
# Indices 1 2 3 4 5 6 
#
# 1 0.009319 -0.002951 -0.004711 0.000000 0.000000 0.000000
# 2 -0.002951 0.009319 -0.004711 0.000000 0.000000 0.000000
# 3 -0.004711 -0.004711 0.022773 0.000000 0.000000 0.000000
# 4 0.000000 0.000000 0.000000 0.043325 0.000000 0.000000
# 5 0.000000 0.000000 0.000000 0.000000 0.043325 0.000000
# 6 0.000000 0.000000 0.000000 0.000000 0.000000 0.078918
#
#
# Mechanical properties :
#
#
# Convention : Reuss Voigt Hill
#
# Bulk Modulus (GPa) = 60.00276 78.11803 69.06039
# Shear Modulus (GPa) = 21.07201 25.43638 23.25419
#
# Velocity S-wave (km/s) = 3.41924 3.75668 3.59192
# Velocity P-wave (km/s) = 6.99135 7.88406 7.45109
#
# Compressibility (1/GPa) = 0.01666590
#
# Stress axis : x y z
#
# Youngs Moduli (GPa) = 107.30337 107.30337 43.91110
#
# Poissons Ratio (x) = 0.31662 0.20687
# Poissons Ratio (y) = 0.31662 0.20687
# Poissons Ratio (z) = 0.50553 0.50553
#
# Static dielectric constant tensor:
#      x y z
#    x 3.483360 0.000000 0.000000 
#    y 0.000000 3.483360 0.000000 
#    z 0.000000 0.000000 3.189650 
# 
# 
# High freq. dielectric constant tensor:
#      x y z
#    x 1.703350 0.000000 0.000000 
#    y 0.000000 1.703350 0.000000 
#    z 0.000000 0.000000 1.685410 
# 
# From -- ./inp_files/1224.got.cif
#   From: 2010.03.12/outbox.cif.g09.slc.cpg/sg123_1_cif.got.tgz:1224.got - 2010.04.06 16:26:55.
