data_PCOD8312179
_publ_section_title
;
Structure prediction by ZEFSAII (Michael W. Deem and Ramdas Pophale) SiO2 
 PCOD8312179
Probable space group: P 4/M M M
;
_chemical_formula_sum "Si O2"
_cell_formula_units_Z 128
_cell_length_a 19.345591
_cell_length_b 19.345591
_cell_length_c 25.533150
_cell_angle_alpha 90.000000
_cell_angle_beta 90.000000
_cell_angle_gamma 90.000000
_cell_volume 9555.829674
_symmetry_space_group_name_H-M "P 4/M M M"
_symmetry_group_IT_number 123
_symmetry_cell_setting 'tetragonal'
loop_
_space_group_symop_operation_xyz
x,y,z
-y,x,z
-x,-y,z
y,-x,z
x,-y,-z
-x,y,-z
y,x,-z
-y,-x,-z
-x,-y,-z
y,-x,-z
x,y,-z
-y,x,-z
-x,y,z
x,-y,z
-y,-x,z
y,x,z
loop_
_atom_site_type_symbol
_atom_site_label
_atom_site_fract_x
_atom_site_fract_y
_atom_site_fract_z
Si Si1 0.809504 0.078917 0.807192
Si Si2 0.315551 0.576147 0.562277
Si Si3 0.082451 0.578125 0.254191
Si Si4 0.577758 0.082222 0.058031
Si Si5 0.159375 0.420518 0.560991
Si Si6 0.809252 0.078783 0.684608
Si Si7 0.338997 0.081552 0.353999
Si Si8 0.662463 0.917767 0.844626
O O1 0.874231 0.125770 0.823890
O O2 0.792370 0.085523 0.745935
O O3 0.742198 0.105101 0.838873
O O4 0.828403 0.000000 0.821557
O O5 0.319421 0.577069 0.500000
O O6 0.336977 0.500000 0.582686
O O7 0.367644 0.632357 0.587021
O O8 0.237729 0.593285 0.579598
O O9 0.110592 0.500000 0.253962
O O10 0.111296 0.616283 0.305738
O O11 0.112073 0.617138 0.203205
O O12 0.000000 0.579565 0.253774
O O13 0.500000 0.107697 0.071205
O O14 0.631210 0.111983 0.101043
O O15 0.579004 0.000000 0.059424
O O16 0.599697 0.108270 0.000000
O O17 0.150013 0.403829 0.500000
O O18 0.138449 0.500000 0.572396
O O19 0.111251 0.367794 0.591996
O O20 0.872695 0.127306 0.667538
O O21 0.741183 0.102275 0.653043
O O22 0.829961 0.000000 0.671008
O O23 0.346526 0.000000 0.356050
O O24 0.658383 0.000000 0.843206
#
# Coordination Sequence:
#
# PCOD8312179 Si02
#       8
#    16  16  16  16  16  16  16  16
#     4   9  16  26  39  54  73  96 123 159 203 246
#     4   8  14  25  40  57  76  96 119 148 180 213
#     4   9  15  22  34  52  72  95 120 145 177 217
#     4   8  13  20  31  50  75 100 124 148 175 212
#     4   9  18  30  41  55  78 107 133 155 182 217
#     4   9  17  29  43  59  78  97 121 157 201 246
#     4  10  18  28  40  56  77  98 124 158 188 221
#     4   9  14  22  35  51  72  96 120 149 186 225
#
# _framework density 13.394964
#
# number of rings (size 3 to 8) (size 9 to 14) (size 15 to 20)
#    0.000    3.125    1.250    1.875    0.000    3.375 
#    0.000    2.500    0.000    0.375    0.000    0.000 
#    0.000    0.000    0.000    7.625    0.000    0.250 
#
# Total GULP energy -1586559.463487 kJ/mol
# GULP energy per Si atom -12394.995808 kJ/mol
# Density = 1.336448 g / cm^3
# Si number density = 13.394964 Si / 1000 Ang^3
#
#
#
# Elastic Constant Matrix: (Units=GPa)
#
#
# Indices 1 2 3 4 5 6 
#
# 1 67.0519 46.8426 35.7147 0.0000 0.0000 0.0000
# 2 46.8426 67.0519 35.7147 0.0000 0.0000 0.0000
# 3 35.7147 35.7147 64.2720 0.0000 0.0000 0.0000
# 4 0.0000 0.0000 0.0000 14.0454 0.0000 0.0000
# 5 0.0000 0.0000 0.0000 0.0000 14.0454 0.0000
# 6 0.0000 0.0000 0.0000 0.0000 0.0000 15.6976
#
#
#
# Elastic Compliance Matrix: (Units=1/GPa)
#
#
# Indices 1 2 3 4 5 6 
#
# 1 0.031479 -0.018003 -0.007489 0.000000 0.000000 0.000000
# 2 -0.018003 0.031479 -0.007489 0.000000 0.000000 0.000000
# 3 -0.007489 -0.007489 0.023882 0.000000 0.000000 0.000000
# 4 0.000000 0.000000 0.000000 0.071197 0.000000 0.000000
# 5 0.000000 0.000000 0.000000 0.000000 0.071197 0.000000
# 6 0.000000 0.000000 0.000000 0.000000 0.000000 0.063704
#
#
# Mechanical properties :
#
#
# Convention : Reuss Voigt Hill
#
# Bulk Modulus (GPa) = 47.89275 48.32440 48.10858
# Shear Modulus (GPa) = 13.66643 14.09794 13.88219
#
# Velocity S-wave (km/s) = 3.19763 3.24772 3.22277
# Velocity P-wave (km/s) = 7.03314 7.08649 7.05987
#
# Compressibility (1/GPa) = 0.02087999
#
# Stress axis : x y z
#
# Youngs Moduli (GPa) = 31.76673 31.76673 41.87337
#
# Poissons Ratio (x) = 0.57189 0.31358
# Poissons Ratio (y) = 0.57189 0.31358
# Poissons Ratio (z) = 0.23789 0.23789
#
# Static dielectric constant tensor:
#      x y z
#    x 2.600300 0.000000 0.000000 
#    y 0.000000 2.600300 0.000000 
#    z 0.000000 0.000000 2.627570 
# 
# 
# High freq. dielectric constant tensor:
#      x y z
#    x 1.490030 0.000000 0.000000 
#    y 0.000000 1.490030 0.000000 
#    z 0.000000 0.000000 1.490190 
# 
# From -- ./inp_files/7724.got.cif
#   From: 2010.03.12/outbox.cif.g09.slc.cpg/sg123_4_cif.got.tgz:7724.got - 2010.04.06 16:26:55.
