data_PCOD8312453
_publ_section_title
;
Structure prediction by ZEFSAII (Michael W. Deem and Ramdas Pophale) SiO2 
 PCOD8312453
Probable space group: P 4/M M M
;
_chemical_formula_sum "Si O2"
_cell_formula_units_Z 88
_cell_length_a 13.633195
_cell_length_b 13.633195
_cell_length_c 28.206724
_cell_angle_alpha 90.000000
_cell_angle_beta 90.000000
_cell_angle_gamma 90.000000
_cell_volume 5242.614716
_symmetry_space_group_name_H-M "P 4/M M M"
_symmetry_group_IT_number 123
_symmetry_cell_setting 'tetragonal'
loop_
_space_group_symop_operation_xyz
x,y,z
-y,x,z
-x,-y,z
y,-x,z
x,-y,-z
-x,y,-z
y,x,-z
-y,-x,-z
-x,-y,-z
y,-x,-z
x,y,-z
-y,x,-z
-x,y,z
x,-y,z
-y,-x,z
y,x,z
loop_
_atom_site_type_symbol
_atom_site_label
_atom_site_fract_x
_atom_site_fract_y
_atom_site_fract_z
Si Si1 0.273352 0.884194 0.357293
Si Si2 0.883735 0.609291 0.552349
Si Si3 0.884940 0.271372 0.909155
Si Si4 0.111490 0.386721 0.184398
Si Si5 0.225328 0.614954 0.278964
Si Si6 0.390716 0.883461 0.000000
O O1 0.170020 0.829981 0.348416
O O2 0.315651 0.846961 0.407745
O O3 0.351957 0.855099 0.317369
O O4 0.254170 0.000000 0.355687
O O5 0.849710 0.645494 0.500000
O O6 0.841394 0.500000 0.562074
O O7 0.000000 0.603808 0.554504
O O8 0.834199 0.165802 0.910400
O O9 0.854702 0.325925 0.861076
O O10 0.000000 0.252530 0.912567
O O11 0.846204 0.335475 0.953142
O O12 0.120106 0.500000 0.170471
O O13 0.182108 0.359625 0.227595
O O14 0.000000 0.360683 0.198930
O O15 0.246549 0.500000 0.285013
O O16 0.327063 0.672938 0.286205
O O17 0.500000 0.838654 0.000000
O O18 0.396253 0.000000 0.000000
#
# Coordination Sequence:
#
# PCOD8312453 Si02
#       6
#    16  16  16  16  16   8
#     4  10  20  32  47  68  94 125 161 199 238 282
#     4   8  14  26  45  67  89 115 150 192 234 273
#     4  10  19  30  45  66  94 125 154 185 221 265
#     4   9  17  30  49  71  93 119 153 193 233 270
#     4  10  20  33  50  72  96 122 154 193 238 288
#     4   9  17  30  47  65  85 111 147 191 233 266
#
# _framework density 16.785516999999999
#
# number of rings (size 3 to 8) (size 9 to 14) (size 15 to 20)
#    0.000    2.636    0.000    3.000    0.000    4.909 
#    0.000    0.000    0.000    1.636    0.000    5.091 
#    0.000   13.818    0.000   16.909    0.000    0.909 
#
# Total GULP energy -1091066.665707 kJ/mol
# GULP energy per Si atom -12398.484838 kJ/mol
# Density = 1.674731 g / cm^3
# Si number density = 16.785517 Si / 1000 Ang^3
#
#
#
# Elastic Constant Matrix: (Units=GPa)
#
#
# Indices 1 2 3 4 5 6 
#
# 1 75.6300 41.8876 47.6470 0.0000 0.0000 0.0000
# 2 41.8876 75.6300 47.6470 0.0000 0.0000 0.0000
# 3 47.6470 47.6470 121.6868 0.0000 0.0000 0.0000
# 4 0.0000 0.0000 0.0000 21.1358 0.0000 0.0000
# 5 0.0000 0.0000 0.0000 0.0000 21.1358 0.0000
# 6 0.0000 0.0000 0.0000 0.0000 0.0000 17.8733
#
#
#
# Elastic Compliance Matrix: (Units=1/GPa)
#
#
# Indices 1 2 3 4 5 6 
#
# 1 0.021052 -0.008584 -0.004882 0.000000 0.000000 0.000000
# 2 -0.008584 0.021052 -0.004882 0.000000 0.000000 0.000000
# 3 -0.004882 -0.004882 0.012041 0.000000 0.000000 0.000000
# 4 0.000000 0.000000 0.000000 0.047313 0.000000 0.000000
# 5 0.000000 0.000000 0.000000 0.000000 0.047313 0.000000
# 6 0.000000 0.000000 0.000000 0.000000 0.000000 0.055949
#
#
# Mechanical properties :
#
#
# Convention : Reuss Voigt Hill
#
# Bulk Modulus (GPa) = 57.30878 60.81221 59.06050
# Shear Modulus (GPa) = 20.22383 21.08000 20.65192
#
# Velocity S-wave (km/s) = 3.47484 3.54763 3.51143
# Velocity P-wave (km/s) = 7.09333 7.28619 7.19041
#
# Compressibility (1/GPa) = 0.01744933
#
# Stress axis : x y z
#
# Youngs Moduli (GPa) = 47.50107 47.50107 83.05036
#
# Poissons Ratio (x) = 0.40775 0.40545
# Poissons Ratio (y) = 0.40775 0.40545
# Poissons Ratio (z) = 0.23190 0.23190
#
# Static dielectric constant tensor:
#      x y z
#    x 2.939140 0.000000 0.000000 
#    y 0.000000 2.939140 0.000000 
#    z 0.000000 0.000000 3.417400 
# 
# 
# High freq. dielectric constant tensor:
#      x y z
#    x 1.628090 0.000000 0.000000 
#    y 0.000000 1.628090 0.000000 
#    z 0.000000 0.000000 1.666330 
# 
# From -- ./inp_files/7157.got.cif
#   From: 2010.03.12/outbox.cif.g09.slc.cpg/sg123_4_cif.got.tgz:7157.got - 2010.04.06 16:26:55.
