data_PCOD8312384
_publ_section_title
;
Structure prediction by ZEFSAII (Michael W. Deem and Ramdas Pophale) SiO2 
 PCOD8312384
Probable space group: P 4/M M M
;
_chemical_formula_sum "Si O2"
_cell_formula_units_Z 96
_cell_length_a 18.661883
_cell_length_b 18.661883
_cell_length_c 18.733707
_cell_angle_alpha 90.000000
_cell_angle_beta 90.000000
_cell_angle_gamma 90.000000
_cell_volume 6524.310900
_symmetry_space_group_name_H-M "P 4/M M M"
_symmetry_group_IT_number 123
_symmetry_cell_setting 'tetragonal'
loop_
_space_group_symop_operation_xyz
x,y,z
-y,x,z
-x,-y,z
y,-x,z
x,-y,-z
-x,y,-z
y,x,-z
-y,-x,-z
-x,-y,-z
y,-x,-z
x,y,-z
-y,x,-z
-x,y,z
x,-y,z
-y,-x,z
y,x,z
loop_
_atom_site_type_symbol
_atom_site_label
_atom_site_fract_x
_atom_site_fract_y
_atom_site_fract_z
Si Si1 0.917032 0.199182 0.580090
Si Si2 0.800588 0.916923 0.851436
Si Si3 0.420327 0.914825 0.793629
Si Si4 0.580131 0.580131 0.915073
Si Si5 0.693417 0.306584 0.915315
Si Si6 0.335550 0.146581 0.082562
Si Si7 0.916395 0.285838 0.288135
O O1 0.906869 0.229897 0.500000
O O2 0.874964 0.125037 0.589943
O O3 0.886182 0.258428 0.635646
O O4 0.000000 0.181617 0.596244
O O5 0.871740 0.871740 0.867536
O O6 0.738551 0.896310 0.907257
O O7 0.773386 0.899563 0.771696
O O8 0.820156 0.000000 0.860880
O O9 0.500000 0.887475 0.773797
O O10 0.399649 0.888531 0.872654
O O11 0.362972 0.883676 0.735772
O O12 0.417252 0.000000 0.795090
O O13 0.500000 0.600333 0.888844
O O14 0.636668 0.636668 0.882554
O O15 0.582641 0.582641 0.000000
O O16 0.673816 0.227445 0.888680
O O17 0.691642 0.308359 0.000000
O O18 0.357826 0.143987 0.000000
O O19 0.000000 0.297599 0.296366
#
# Coordination Sequence:
#
# PCOD8312384 Si02
#       7
#    16  16  16   8   8  16  16
#     4   9  16  25  39  61  88 117 148 180 213 248
#     4  10  19  30  44  59  77 106 143 180 221 264
#     4   9  18  31  46  63  81 105 138 176 221 266
#     4   8  14  25  40  58  80 103 124 145 176 227
#     4   9  17  28  43  60  79 104 132 160 198 249
#     4  10  19  31  44  60  82 106 134 174 220 265
#     4   8  15  28  43  58  79 107 135 167 210 256
#
# _framework density 14.714198
#
# number of rings (size 3 to 8) (size 9 to 14) (size 15 to 20)
#    0.000    2.917    0.833    2.250    0.000    2.667 
#    0.000    3.333    0.000    3.500    0.000    4.667 
#    0.000    0.000    0.000    0.000    0.000    0.000 
#
# Total GULP energy -1189844.470033 kJ/mol
# GULP energy per Si atom -12394.213230 kJ/mol
# Density = 1.468071 g / cm^3
# Si number density = 14.714198 Si / 1000 Ang^3
#
#
#
# Elastic Constant Matrix: (Units=GPa)
#
#
# Indices 1 2 3 4 5 6 
#
# 1 67.9681 41.6296 25.6143 0.0000 0.0000 0.0000
# 2 41.6296 67.9682 25.6144 0.0000 0.0000 0.0000
# 3 25.6143 25.6144 73.1934 0.0000 0.0000 0.0000
# 4 0.0000 0.0000 0.0000 12.2395 0.0000 0.0000
# 5 0.0000 0.0000 0.0000 0.0000 12.2395 0.0000
# 6 0.0000 0.0000 0.0000 0.0000 0.0000 22.0001
#
#
#
# Elastic Compliance Matrix: (Units=1/GPa)
#
#
# Indices 1 2 3 4 5 6 
#
# 1 0.024438 -0.013529 -0.003817 0.000000 0.000000 0.000000
# 2 -0.013529 0.024438 -0.003818 0.000000 0.000000 0.000000
# 3 -0.003817 -0.003818 0.016334 0.000000 0.000000 0.000000
# 4 0.000000 0.000000 0.000000 0.081703 0.000000 0.000000
# 5 0.000000 0.000000 0.000000 0.000000 0.081703 0.000000
# 6 0.000000 0.000000 0.000000 0.000000 0.000000 0.045454
#
#
# Mechanical properties :
#
#
# Convention : Reuss Voigt Hill
#
# Bulk Modulus (GPa) = 43.70329 43.87181 43.78755
# Shear Modulus (GPa) = 15.43084 17.04723 16.23904
#
# Velocity S-wave (km/s) = 3.24188 3.40745 3.32570
# Velocity P-wave (km/s) = 6.61657 6.73511 6.67610
#
# Compressibility (1/GPa) = 0.02288157
#
# Stress axis : x y z
#
# Youngs Moduli (GPa) = 40.92001 40.91993 61.22057
#
# Poissons Ratio (x) = 0.55362 0.23371
# Poissons Ratio (y) = 0.55362 0.23372
# Poissons Ratio (z) = 0.15621 0.15622
#
# Static dielectric constant tensor:
#      x y z
#    x 2.951690 0.000000 0.000000 
#    y 0.000000 2.951680 0.000000 
#    z 0.000000 0.000000 2.893980 
# 
# 
# High freq. dielectric constant tensor:
#      x y z
#    x 1.552040 0.000000 0.000000 
#    y 0.000000 1.552040 0.000000 
#    z 0.000000 0.000000 1.536210 
# 
# From -- ./inp_files/6577.got.cif
#   From: 2010.03.12/outbox.cif.g09.slc.cpg/sg123_4_cif.got.tgz:6577.got - 2010.04.06 16:26:55.
