data_PCOD8312883
_publ_section_title
;
Structure prediction by ZEFSAII (Michael W. Deem and Ramdas Pophale) SiO2 
 PCOD8312883
Probable space group: P 4/M M M
;
_chemical_formula_sum "Si O2"
_cell_formula_units_Z 56
_cell_length_a 13.673365
_cell_length_b 13.673365
_cell_length_c 17.390166
_cell_angle_alpha 90.000000
_cell_angle_beta 90.000000
_cell_angle_gamma 90.000000
_cell_volume 3251.281268
_symmetry_space_group_name_H-M "P 4/M M M"
_symmetry_group_IT_number 123
_symmetry_cell_setting 'tetragonal'
loop_
_space_group_symop_operation_xyz
x,y,z
-y,x,z
-x,-y,z
y,-x,z
x,-y,-z
-x,y,-z
y,x,-z
-y,-x,-z
-x,-y,-z
y,-x,-z
x,y,-z
-y,x,-z
-x,y,z
x,-y,z
-y,-x,z
y,x,z
loop_
_atom_site_type_symbol
_atom_site_label
_atom_site_fract_x
_atom_site_fract_y
_atom_site_fract_z
Si Si1 0.230751 0.610967 0.198982
Si Si2 0.111467 0.269753 0.912441
Si Si3 0.771157 0.613117 0.375202
Si Si4 0.275618 0.115050 0.500000
O O1 0.258960 0.500000 0.181581
O O2 0.326833 0.673168 0.179680
O O3 0.142184 0.642555 0.143836
O O4 0.196725 0.625019 0.286810
O O5 0.172940 0.172940 0.893361
O O6 0.000000 0.241914 0.896729
O O7 0.128165 0.304720 0.000000
O O8 0.756047 0.500000 0.397860
O O9 0.668760 0.668760 0.391505
O O10 0.857292 0.660930 0.425123
O O11 0.172381 0.172381 0.500000
O O12 0.253473 0.000000 0.500000
#
# Coordination Sequence:
#
# PCOD8312883 Si02
#       4
#    16  16  16   8
#     4   9  18  32  49  70  97 127 158 192 229 272
#     4   9  18  32  49  69  93 121 154 194 239 284
#     4   9  18  32  50  73  99 126 156 190 230 276
#     4  10  21  36  52  70  94 124 159 198 236 276
#
# _framework density 17.223977999999999
#
# number of rings (size 3 to 8) (size 9 to 14) (size 15 to 20)
#    0.000    2.857    0.000    0.429    0.000    4.429 
#    0.000    8.571    0.000    2.571    0.000   12.000 
#    0.000    0.000    0.000    0.000    0.000    0.000 
#
# Total GULP energy -694432.483512 kJ/mol
# GULP energy per Si atom -12400.580063 kJ/mol
# Density = 1.718478 g / cm^3
# Si number density = 17.223978 Si / 1000 Ang^3
#
#
#
# Elastic Constant Matrix: (Units=GPa)
#
#
# Indices 1 2 3 4 5 6 
#
# 1 117.8202 48.5997 56.7450 0.0000 0.0000 0.0000
# 2 48.5997 117.8202 56.7450 0.0000 0.0000 0.0000
# 3 56.7450 56.7450 88.4529 0.0000 0.0000 0.0000
# 4 0.0000 0.0000 0.0000 26.7155 0.0000 0.0000
# 5 0.0000 0.0000 0.0000 0.0000 26.7155 0.0000
# 6 0.0000 0.0000 0.0000 0.0000 0.0000 12.8621
#
#
#
# Elastic Compliance Matrix: (Units=1/GPa)
#
#
# Indices 1 2 3 4 5 6 
#
# 1 0.012564 -0.001882 -0.006853 0.000000 0.000000 0.000000
# 2 -0.001882 0.012564 -0.006853 0.000000 0.000000 0.000000
# 3 -0.006853 -0.006853 0.020098 0.000000 0.000000 0.000000
# 4 0.000000 0.000000 0.000000 0.037431 0.000000 0.000000
# 5 0.000000 0.000000 0.000000 0.000000 0.037431 0.000000
# 6 0.000000 0.000000 0.000000 0.000000 0.000000 0.077748
#
#
# Mechanical properties :
#
#
# Convention : Reuss Voigt Hill
#
# Bulk Modulus (GPa) = 71.17007 72.03030 71.60019
# Shear Modulus (GPa) = 21.39517 24.05885 22.72701
#
# Velocity S-wave (km/s) = 3.52827 3.74146 3.63643
# Velocity P-wave (km/s) = 7.61632 7.78301 7.70012
#
# Compressibility (1/GPa) = 0.01405085
#
# Stress axis : x y z
#
# Youngs Moduli (GPa) = 79.58968 79.58968 49.75564
#
# Poissons Ratio (x) = 0.14980 0.34097
# Poissons Ratio (y) = 0.14980 0.34097
# Poissons Ratio (z) = 0.54543 0.54543
#
# Static dielectric constant tensor:
#      x y z
#    x 3.133770 0.000000 0.000000 
#    y 0.000000 3.133770 0.000000 
#    z 0.000000 0.000000 3.413010 
# 
# 
# High freq. dielectric constant tensor:
#      x y z
#    x 1.656700 0.000000 0.000000 
#    y 0.000000 1.656700 0.000000 
#    z 0.000000 0.000000 1.676110 
# 
# From -- ./inp_files/3688.got.cif
#   From: 2010.03.12/outbox.cif.g09.slc.cpg/sg123_2_cif.got.tgz:3688.got - 2010.04.06 16:26:55.
