data_PCOD8312664
_publ_section_title
;
Structure prediction by ZEFSAII (Michael W. Deem and Ramdas Pophale) SiO2 
 PCOD8312664
Probable space group: P 4/M M M
;
_chemical_formula_sum "Si O2"
_cell_formula_units_Z 76
_cell_length_a 12.531265
_cell_length_b 12.531265
_cell_length_c 26.616571
_cell_angle_alpha 90.000000
_cell_angle_beta 90.000000
_cell_angle_gamma 90.000000
_cell_volume 4179.669414
_symmetry_space_group_name_H-M "P 4/M M M"
_symmetry_group_IT_number 123
_symmetry_cell_setting 'tetragonal'
loop_
_space_group_symop_operation_xyz
x,y,z
-y,x,z
-x,-y,z
y,-x,z
x,-y,-z
-x,y,-z
y,x,-z
-y,-x,-z
-x,-y,-z
y,-x,-z
x,y,-z
-y,x,-z
-x,y,z
x,-y,z
-y,-x,z
y,x,z
loop_
_atom_site_type_symbol
_atom_site_label
_atom_site_fract_x
_atom_site_fract_y
_atom_site_fract_z
Si Si1 0.208180 0.379356 0.748384
Si Si2 0.292570 0.119821 0.351617
Si Si3 0.287683 0.877363 0.843264
Si Si4 0.381145 0.126452 0.945719
Si Si5 0.500000 0.875916 0.581326
Si Si6 0.500000 0.685320 0.500000
O O1 0.230388 0.500000 0.732535
O O2 0.322443 0.322443 0.753523
O O3 0.136591 0.322336 0.706457
O O4 0.144887 0.377646 0.801385
O O5 0.200298 0.200298 0.369508
O O6 0.395753 0.138847 0.385305
O O7 0.248786 0.000000 0.357994
O O8 0.180173 0.819828 0.824934
O O9 0.318964 0.828273 0.897628
O O10 0.261067 0.000000 0.847902
O O11 0.500000 0.174071 0.944151
O O12 0.386992 0.000000 0.940626
O O13 0.328364 0.157687 0.000000
O O14 0.500000 0.772081 0.545125
O O15 0.500000 0.000000 0.558448
O O16 0.393527 0.606474 0.500000
#
# Coordination Sequence:
#
# PCOD8312664 Si02
#       6
#    16  16  16  16   8   4
#     4  10  20  34  52  75 102 131 168 211 258 315
#     4  10  20  34  54  80 110 145 183 225 270 318
#     4  10  20  31  45  66  92 126 166 208 253 302
#     4   8  14  26  44  64  84 109 147 197 250 301
#     4  10  20  37  60  83 111 149 192 232 268 316
#     4  11  23  38  58  86 121 153 184 230 280 325
#
# _framework density 18.183257000000001
#
# number of rings (size 3 to 8) (size 9 to 14) (size 15 to 20)
#    0.000    2.368    1.053    2.684    0.000    3.158 
#    0.000    0.000    0.000    3.789    0.000    2.947 
#    0.000    7.579    0.000   19.579    0.000    1.053 
#
# Total GULP energy -941511.610818 kJ/mol
# GULP energy per Si atom -12388.310669 kJ/mol
# Density = 1.814187 g / cm^3
# Si number density = 18.183257 Si / 1000 Ang^3
#
#
#
# Elastic Constant Matrix: (Units=GPa)
#
#
# Indices 1 2 3 4 5 6 
#
# 1 97.6074 60.7080 35.8994 0.0000 0.0000 0.0000
# 2 60.7080 97.6072 35.8994 0.0000 0.0000 0.0000
# 3 35.8994 35.8994 96.1580 0.0000 0.0000 0.0000
# 4 0.0000 0.0000 0.0000 23.5363 0.0000 0.0000
# 5 0.0000 0.0000 0.0000 0.0000 23.5360 0.0000
# 6 0.0000 0.0000 0.0000 0.0000 0.0000 22.0932
#
#
#
# Elastic Compliance Matrix: (Units=1/GPa)
#
#
# Indices 1 2 3 4 5 6 
#
# 1 0.017352 -0.009748 -0.002839 0.000000 0.000000 0.000000
# 2 -0.009748 0.017352 -0.002839 0.000000 0.000000 0.000000
# 3 -0.002839 -0.002839 0.012519 0.000000 0.000000 0.000000
# 4 0.000000 0.000000 0.000000 0.042488 0.000000 0.000000
# 5 0.000000 0.000000 0.000000 0.000000 0.042488 0.000000
# 6 0.000000 0.000000 0.000000 0.000000 0.000000 0.045263
#
#
# Mechanical properties :
#
#
# Convention : Reuss Voigt Hill
#
# Bulk Modulus (GPa) = 61.08063 61.82069 61.45066
# Shear Modulus (GPa) = 23.38942 24.42416 23.90679
#
# Velocity S-wave (km/s) = 3.59042 3.66898 3.62991
# Velocity P-wave (km/s) = 7.13111 7.21256 7.17195
#
# Compressibility (1/GPa) = 0.01637180
#
# Stress axis : x y z
#
# Youngs Moduli (GPa) = 57.62902 57.62890 79.87694
#
# Poissons Ratio (x) = 0.56179 0.22676
# Poissons Ratio (y) = 0.56179 0.22676
# Poissons Ratio (z) = 0.16360 0.16360
#
# Static dielectric constant tensor:
#      x y z
#    x 3.267740 0.000000 0.000000 
#    y 0.000000 3.267740 0.000000 
#    z 0.000000 0.000000 3.595930 
# 
# 
# High freq. dielectric constant tensor:
#      x y z
#    x 1.692290 0.000000 0.000000 
#    y 0.000000 1.692290 0.000000 
#    z 0.000000 0.000000 1.713660 
# 
# From -- ./inp_files/8364.got.cif
#   From: 2010.03.12/outbox.cif.g09.slc.cpg/sg123_5_cif.got.tgz:8364.got - 2010.04.06 16:26:55.
