data_PCOD8312737
_publ_section_title
;
Structure prediction by ZEFSAII (Michael W. Deem and Ramdas Pophale) SiO2 
 PCOD8312737
Probable space group: P 4/M M M
;
_chemical_formula_sum "Si O2"
_cell_formula_units_Z 112
_cell_length_a 13.873635
_cell_length_b 13.873635
_cell_length_c 35.809608
_cell_angle_alpha 90.000000
_cell_angle_beta 90.000000
_cell_angle_gamma 90.000000
_cell_volume 6892.552709
_symmetry_space_group_name_H-M "P 4/M M M"
_symmetry_group_IT_number 123
_symmetry_cell_setting 'tetragonal'
loop_
_space_group_symop_operation_xyz
x,y,z
-y,x,z
-x,-y,z
y,-x,z
x,-y,-z
-x,y,-z
y,x,-z
-y,-x,-z
-x,-y,-z
y,-x,-z
x,y,-z
-y,x,-z
-x,y,z
x,-y,z
-y,-x,z
y,x,z
loop_
_atom_site_type_symbol
_atom_site_label
_atom_site_fract_x
_atom_site_fract_y
_atom_site_fract_z
Si Si1 0.734573 0.109918 0.539498
Si Si2 0.235918 0.610073 0.760645
Si Si3 0.609249 0.887500 0.170279
Si Si4 0.729593 0.113812 0.098507
Si Si5 0.388570 0.768470 0.323559
Si Si6 0.610551 0.233757 0.043402
Si Si7 0.112754 0.727708 0.620686
O O1 0.676745 0.133242 0.500000
O O2 0.833926 0.166075 0.539184
O O3 0.681405 0.132181 0.578978
O O4 0.765541 0.000000 0.539612
O O5 0.262991 0.500000 0.766913
O O6 0.334439 0.665562 0.767350
O O7 0.158072 0.645175 0.790862
O O8 0.195293 0.627711 0.718928
O O9 0.500000 0.855832 0.160310
O O10 0.679250 0.854916 0.137101
O O11 0.615212 0.000000 0.176541
O O12 0.831873 0.168128 0.095310
O O13 0.658314 0.144677 0.065206
O O14 0.748566 0.000000 0.095918
O O15 0.500000 0.745728 0.331682
O O16 0.329382 0.670619 0.331634
O O17 0.352994 0.854450 0.350045
O O18 0.500000 0.247959 0.055907
O O19 0.667210 0.332791 0.052569
O O20 0.617752 0.207534 0.000000
O O21 0.173852 0.826149 0.626422
O O22 0.000000 0.751078 0.626973
#
# Coordination Sequence:
#
# PCOD8312737 Si02
#       7
#    16  16  16  16  16  16  16
#     4   8  13  21  34  53  78 108 139 170 205 246
#     4   9  17  29  45  65  89 114 139 171 212 259
#     4   9  17  29  46  68  91 115 145 179 216 261
#     4  10  20  33  49  68  91 121 157 196 234 268
#     4   9  18  31  46  65  87 112 145 183 222 263
#     4   9  18  32  50  73  99 125 153 185 223 270
#     4   9  17  28  42  62  88 116 145 176 210 252
#
# _framework density 16.249423
#
# number of rings (size 3 to 8) (size 9 to 14) (size 15 to 20)
#    0.000    3.000    0.000    0.857    0.000    2.857 
#    0.000    6.429    0.000    0.429    0.000    6.000 
#    0.000    3.429    0.000    5.571    0.000    0.143 
#
# Total GULP energy -1387723.979012 kJ/mol
# GULP energy per Si atom -12390.392670 kJ/mol
# Density = 1.621244 g / cm^3
# Si number density = 16.249423 Si / 1000 Ang^3
#
#
#
# Elastic Constant Matrix: (Units=GPa)
#
#
# Indices 1 2 3 4 5 6 
#
# 1 75.9551 38.0115 53.1794 0.0000 0.0000 0.0000
# 2 38.0115 75.9551 53.1794 0.0000 0.0000 0.0000
# 3 53.1794 53.1794 110.6415 0.0000 0.0000 0.0000
# 4 0.0000 0.0000 0.0000 23.5904 0.0000 0.0000
# 5 0.0000 0.0000 0.0000 0.0000 23.5904 0.0000
# 6 0.0000 0.0000 0.0000 0.0000 0.0000 16.2976
#
#
#
# Elastic Compliance Matrix: (Units=1/GPa)
#
#
# Indices 1 2 3 4 5 6 
#
# 1 0.021133 -0.005221 -0.007648 0.000000 0.000000 0.000000
# 2 -0.005221 0.021133 -0.007648 0.000000 0.000000 0.000000
# 3 -0.007648 -0.007648 0.016390 0.000000 0.000000 0.000000
# 4 0.000000 0.000000 0.000000 0.042390 0.000000 0.000000
# 5 0.000000 0.000000 0.000000 0.000000 0.042390 0.000000
# 6 0.000000 0.000000 0.000000 0.000000 0.000000 0.061359
#
#
# Mechanical properties :
#
#
# Convention : Reuss Voigt Hill
#
# Bulk Modulus (GPa) = 56.74710 61.25469 59.00090
# Shear Modulus (GPa) = 19.86452 20.57445 20.21948
#
# Velocity S-wave (km/s) = 3.50018 3.56218 3.53132
# Velocity P-wave (km/s) = 7.16473 7.39576 7.28116
#
# Compressibility (1/GPa) = 0.01762205
#
# Stress axis : x y z
#
# Youngs Moduli (GPa) = 47.31836 47.31836 61.01210
#
# Poissons Ratio (x) = 0.24707 0.46662
# Poissons Ratio (y) = 0.24707 0.46662
# Poissons Ratio (z) = 0.36189 0.36189
#
# Static dielectric constant tensor:
#      x y z
#    x 2.914490 0.000000 0.000000 
#    y 0.000000 2.914490 0.000000 
#    z 0.000000 0.000000 3.520140 
# 
# 
# High freq. dielectric constant tensor:
#      x y z
#    x 1.607370 0.000000 0.000000 
#    y 0.000000 1.607370 0.000000 
#    z 0.000000 0.000000 1.645150 
# 
# From -- ./inp_files/8758.got.cif
#   From: 2010.03.12/outbox.cif.g09.slc.cpg/sg123_5_cif.got.tgz:8758.got - 2010.04.06 16:26:55.
