data_PCOD8312106
_publ_section_title
;
Structure prediction by ZEFSAII (Michael W. Deem and Ramdas Pophale) SiO2 
 PCOD8312106
Probable space group: I -4 2 D
;
_chemical_formula_sum "Si O2"
_cell_formula_units_Z 96
_cell_length_a 14.109816
_cell_length_b 14.109816
_cell_length_c 20.765648
_cell_angle_alpha 90.000000
_cell_angle_beta 90.000000
_cell_angle_gamma 90.000000
_cell_volume 4134.168644
_symmetry_space_group_name_H-M "I -4 2 D"
_symmetry_group_IT_number 122
_symmetry_cell_setting 'tetragonal'
loop_
_space_group_symop_operation_xyz
x,y,z
y,-x,-z
-x,-y,z
-y,x,-z
x,1/2-y,1/4-z
-x,1/2+y,1/4-z
-y,1/2-x,1/4+z
y,1/2+x,1/4+z
1/2+x,1/2+y,1/2+z
1/2+y,1/2-x,1/2-z
1/2-x,1/2-y,1/2+z
1/2-y,1/2+x,1/2-z
1/2+x,-y,3/4-z
1/2-x,y,3/4-z
1/2-y,-x,3/4+z
1/2+y,x,3/4+z
loop_
_atom_site_type_symbol
_atom_site_label
_atom_site_fract_x
_atom_site_fract_y
_atom_site_fract_z
Si Si1 0.930304 0.420469 0.895868
Si Si2 0.713328 0.002432 0.495033
Si Si3 0.497568 0.213328 0.504967
Si Si4 0.069696 0.579531 0.395868
Si Si5 0.669303 0.323723 0.472085
Si Si6 0.323723 0.169303 0.222085
O O1 0.842847 0.471721 0.930686
O O2 0.888727 0.354606 0.840773
O O3 0.000000 0.500000 0.866513
O O4 0.991059 0.357455 0.945297
O O5 0.786898 0.087417 0.510269
O O6 0.642545 0.991059 0.554703
O O7 0.770711 0.905466 0.481439
O O8 0.471721 0.157153 0.569314
O O9 0.594534 0.270711 0.518561
O O10 0.412583 0.286898 0.489731
O O11 0.111273 0.645394 0.340773
O O12 0.000000 0.500000 0.366513
O O13 0.750000 0.250000 0.450457
#
# Coordination Sequence:
#
# PCOD8312106 Si02
#       6
#    16  16  16  16  16  16
#     4  12  24  48  72 106 143 193 243 303 370 442
#     4  12  25  45  70 104 140 192 236 306 352 448
#     4  12  25  45  70 104 140 192 236 306 352 448
#     4  12  24  48  72 106 143 193 243 303 370 442
#     4  12  28  48  74 106 143 199 247 303 378 438
#     4  12  28  48  74 106 143 199 247 303 378 438
#
# _framework density 23.221115000000001
#
# number of rings (size 3 to 8) (size 9 to 14) (size 15 to 20)
#    0.000    0.000    6.667    2.000    9.333    0.000 
#    0.000    0.000    0.000    0.000    0.000    0.000 
#    0.000    0.000    0.000    0.000    0.000    0.000 
#
# Total GULP energy -595422.059209 kJ/mol
# GULP energy per Si atom -12404.626234 kJ/mol
# Density = 2.316826 g / cm^3
# Si number density = 23.221115 Si / 1000 Ang^3
#
#
#
# Elastic Constant Matrix: (Units=GPa)
#
#
# Indices 1 2 3 4 5 6 
#
# 1 126.3343 47.0482 6.3461 0.0000 0.0000 0.0000
# 2 47.0482 126.3343 6.3461 0.0000 0.0000 0.0000
# 3 6.3461 6.3461 40.3101 0.0000 0.0000 0.0000
# 4 0.0000 0.0000 0.0000 18.4022 0.0000 0.0000
# 5 0.0000 0.0000 0.0000 0.0000 18.4022 0.0000
# 6 0.0000 0.0000 0.0000 0.0000 0.0000 91.0434
#
#
#
# Elastic Compliance Matrix: (Units=1/GPa)
#
#
# Indices 1 2 3 4 5 6 
#
# 1 0.009224 -0.003389 -0.000919 0.000000 0.000000 0.000000
# 2 -0.003389 0.009224 -0.000919 0.000000 0.000000 0.000000
# 3 -0.000919 -0.000919 0.025097 0.000000 0.000000 0.000000
# 4 0.000000 0.000000 0.000000 0.054341 0.000000 0.000000
# 5 0.000000 0.000000 0.000000 0.000000 0.054341 0.000000
# 6 0.000000 0.000000 0.000000 0.000000 0.000000 0.010984
#
#
# Mechanical properties :
#
#
# Convention : Reuss Voigt Hill
#
# Bulk Modulus (GPa) = 30.21859 45.82883 38.02371
# Shear Modulus (GPa) = 27.07187 41.11879 34.09533
#
# Velocity S-wave (km/s) = 3.41813 4.21259 3.83598
# Velocity P-wave (km/s) = 5.34975 6.59090 6.00249
#
# Compressibility (1/GPa) = 0.03309222
#
# Stress axis : x y z
#
# Youngs Moduli (GPa) = 108.41643 108.41643 39.84558
#
# Poissons Ratio (x) = 0.36741 0.03660
# Poissons Ratio (y) = 0.36741 0.03660
# Poissons Ratio (z) = 0.09959 0.09959
#
# Static dielectric constant tensor:
#      x y z
#    x 4.758580 0.000000 0.000000 
#    y 0.000000 4.758580 0.000000 
#    z 0.000000 0.000000 3.647780 
# 
# 
# High freq. dielectric constant tensor:
#      x y z
#    x 1.946550 0.000000 0.000000 
#    y 0.000000 1.946550 0.000000 
#    z 0.000000 0.000000 1.875190 
# 
# From -- ./inp_files/7275.got.cif
#   From: 2010.03.12/outbox.cif.g09.slc.cpg/sg122_4_cif.got.tgz:7275.got - 2010.04.06 16:17:16.
