data_PCOD8312295
_publ_section_title
;
Structure prediction by ZEFSAII (Michael W. Deem and Ramdas Pophale) SiO2 
 PCOD8312295
Probable space group: P 4/M M M
;
_chemical_formula_sum "Si O2"
_cell_formula_units_Z 72
_cell_length_a 14.116179
_cell_length_b 14.116179
_cell_length_c 23.288187
_cell_angle_alpha 90.000000
_cell_angle_beta 90.000000
_cell_angle_gamma 90.000000
_cell_volume 4640.555737
_symmetry_space_group_name_H-M "P 4/M M M"
_symmetry_group_IT_number 123
_symmetry_cell_setting 'tetragonal'
loop_
_space_group_symop_operation_xyz
x,y,z
-y,x,z
-x,-y,z
y,-x,z
x,-y,-z
-x,y,-z
y,x,-z
-y,-x,-z
-x,-y,-z
y,-x,-z
x,y,-z
-y,x,-z
-x,y,z
x,-y,z
-y,-x,z
y,x,z
loop_
_atom_site_type_symbol
_atom_site_label
_atom_site_fract_x
_atom_site_fract_y
_atom_site_fract_z
Si Si1 0.112419 0.264187 0.000000
Si Si2 0.887617 0.394791 0.896549
Si Si3 0.387627 0.894396 0.563797
Si Si4 0.387556 0.236147 0.333344
Si Si5 0.387629 0.105187 0.769946
O O1 0.148404 0.322011 0.055556
O O2 0.161968 0.161968 0.000000
O O3 0.000000 0.247654 0.000000
O O4 0.845288 0.500000 0.908490
O O5 0.857379 0.357558 0.833240
O O6 0.000000 0.402185 0.899043
O O7 0.354575 0.862469 0.500000
O O8 0.500000 0.897816 0.566811
O O9 0.350587 0.820277 0.610697
O O10 0.348455 0.000000 0.577415
O O11 0.500000 0.252201 0.333426
O O12 0.338692 0.338692 0.332742
O O13 0.351504 0.177742 0.278046
O O14 0.500000 0.097800 0.767362
O O15 0.345200 0.000000 0.758158
#
# Coordination Sequence:
#
# PCOD8312295 Si02
#       5
#     8  16  16  16  16
#     4  10  19  28  39  57  82 112 139 159 186 231
#     4   8  14  26  44  63  80  97 123 167 217 252
#     4   8  14  26  44  62  77  95 124 167 214 245
#     4  10  19  28  39  57  83 115 144 165 188 226
#     4   8  14  26  44  63  80  98 125 168 219 255
#
# _framework density 15.515383999999999
#
# number of rings (size 3 to 8) (size 9 to 14) (size 15 to 20)
#    0.000    3.333    0.000    3.000    0.000    5.667 
#    0.000    0.000    0.000    0.000    0.000    3.111 
#    0.000   10.667    0.000    9.778    0.000    1.556 
#
# Total GULP energy -892209.489873 kJ/mol
# GULP energy per Si atom -12391.798470 kJ/mol
# Density = 1.548007 g / cm^3
# Si number density = 15.515384 Si / 1000 Ang^3
#
#
#
# Elastic Constant Matrix: (Units=GPa)
#
#
# Indices 1 2 3 4 5 6 
#
# 1 53.3710 33.4387 44.6187 0.0000 0.0000 0.0000
# 2 33.4387 53.3710 44.6187 0.0000 0.0000 0.0000
# 3 44.6187 44.6187 135.2396 0.0000 0.0000 0.0000
# 4 0.0000 0.0000 0.0000 8.8776 0.0000 0.0000
# 5 0.0000 0.0000 0.0000 0.0000 8.8776 0.0000
# 6 0.0000 0.0000 0.0000 0.0000 0.0000 14.8441
#
#
#
# Elastic Compliance Matrix: (Units=1/GPa)
#
#
# Indices 1 2 3 4 5 6 
#
# 1 0.033801 -0.016369 -0.005751 0.000000 0.000000 0.000000
# 2 -0.016369 0.033801 -0.005751 0.000000 0.000000 0.000000
# 3 -0.005751 -0.005751 0.011189 0.000000 0.000000 0.000000
# 4 0.000000 0.000000 0.000000 0.112643 0.000000 0.000000
# 5 0.000000 0.000000 0.000000 0.000000 0.112643 0.000000
# 6 0.000000 0.000000 0.000000 0.000000 0.000000 0.067367
#
#
# Mechanical properties :
#
#
# Convention : Reuss Voigt Hill
#
# Bulk Modulus (GPa) = 43.38839 54.14821 48.76830
# Shear Modulus (GPa) = 11.49776 14.47358 12.98567
#
# Velocity S-wave (km/s) = 2.72519 3.05758 2.89615
# Velocity P-wave (km/s) = 6.15854 6.88771 6.53330
#
# Compressibility (1/GPa) = 0.02304764
#
# Stress axis : x y z
#
# Youngs Moduli (GPa) = 29.58526 29.58526 89.37312
#
# Poissons Ratio (x) = 0.48429 0.51398
# Poissons Ratio (y) = 0.48429 0.51398
# Poissons Ratio (z) = 0.17014 0.17014
#
# Static dielectric constant tensor:
#      x y z
#    x 2.647300 0.000000 0.000000 
#    y 0.000000 2.647300 0.000000 
#    z 0.000000 0.000000 3.542330 
# 
# 
# High freq. dielectric constant tensor:
#      x y z
#    x 1.554110 0.000000 0.000000 
#    y 0.000000 1.554110 0.000000 
#    z 0.000000 0.000000 1.618740 
# 
# From -- ./inp_files/6283.got.cif
#   From: 2010.03.12/outbox.cif.g09.slc.cpg/sg123_4_cif.got.tgz:6283.got - 2010.04.06 16:26:55.
