data_PCOD8312576
_publ_section_title
;
Structure prediction by ZEFSAII (Michael W. Deem and Ramdas Pophale) SiO2 
 PCOD8312576
Probable space group: P 4/M M M
;
_chemical_formula_sum "Si O2"
_cell_formula_units_Z 80
_cell_length_a 18.117955
_cell_length_b 18.117955
_cell_length_c 13.731089
_cell_angle_alpha 90.000000
_cell_angle_beta 90.000000
_cell_angle_gamma 90.000000
_cell_volume 4507.371304
_symmetry_space_group_name_H-M "P 4/M M M"
_symmetry_group_IT_number 123
_symmetry_cell_setting 'tetragonal'
loop_
_space_group_symop_operation_xyz
x,y,z
-y,x,z
-x,-y,z
y,-x,z
x,-y,-z
-x,y,-z
y,x,-z
-y,-x,-z
-x,-y,-z
y,-x,-z
x,y,-z
-y,x,-z
-x,y,z
x,-y,z
-y,-x,z
y,x,z
loop_
_atom_site_type_symbol
_atom_site_label
_atom_site_fract_x
_atom_site_fract_y
_atom_site_fract_z
Si Si1 0.086834 0.721642 0.393484
Si Si2 0.583157 0.698921 0.884796
Si Si3 0.579640 0.085390 0.708395
Si Si4 0.651221 0.854235 0.112473
Si Si5 0.202183 0.913025 0.802387
O O1 0.119275 0.743936 0.500000
O O2 0.121919 0.643064 0.359235
O O3 0.103502 0.782771 0.311962
O O4 0.000000 0.710974 0.401365
O O5 0.500000 0.701395 0.840174
O O6 0.627111 0.627111 0.844591
O O7 0.630815 0.770840 0.856164
O O8 0.577239 0.694177 0.000000
O O9 0.500000 0.123337 0.688272
O O10 0.601240 0.092203 0.822037
O O11 0.573521 0.000000 0.683755
O O12 0.737024 0.872145 0.131628
O O13 0.632305 0.868966 0.000000
O O14 0.122777 0.877224 0.827153
O O15 0.200522 0.000000 0.825900
#
# Coordination Sequence:
#
# PCOD8312576 Si02
#       5
#    16  16  16  16  16
#     4   8  15  29  47  66  90 119 149 184 230 285
#     4   9  17  28  43  64  89 119 154 189 226 267
#     4   9  17  27  41  66  96 124 158 197 235 277
#     4  10  19  32  48  65  90 125 163 200 238 283
#     4  10  21  35  51  71  92 117 154 200 251 308
#
# _framework density 17.748704
#
# number of rings (size 3 to 8) (size 9 to 14) (size 15 to 20)
#    0.000    2.800    0.000    3.000    0.000    5.200 
#    0.000    4.000    0.000    0.000    0.000    4.200 
#    0.000    0.000    0.000    0.000    0.000    3.600 
#
# Total GULP energy -991164.759190 kJ/mol
# GULP energy per Si atom -12389.559490 kJ/mol
# Density = 1.770831 g / cm^3
# Si number density = 17.748704 Si / 1000 Ang^3
#
#
#
# Elastic Constant Matrix: (Units=GPa)
#
#
# Indices 1 2 3 4 5 6 
#
# 1 84.8744 56.5150 0.8121 0.0000 0.0000 0.0000
# 2 56.5150 84.8744 0.8121 0.0000 0.0000 0.0000
# 3 0.8121 0.8121 41.2706 0.0000 0.0000 0.0000
# 4 0.0000 0.0000 0.0000 8.8751 0.0000 0.0000
# 5 0.0000 0.0000 0.0000 0.0000 8.8751 0.0000
# 6 0.0000 0.0000 0.0000 0.0000 0.0000 26.0989
#
#
#
# Elastic Compliance Matrix: (Units=1/GPa)
#
#
# Indices 1 2 3 4 5 6 
#
# 1 0.021168 -0.014094 -0.000139 0.000000 0.000000 0.000000
# 2 -0.014094 0.021168 -0.000139 0.000000 0.000000 0.000000
# 3 -0.000139 -0.000139 0.024236 0.000000 0.000000 0.000000
# 4 0.000000 0.000000 0.000000 0.112675 0.000000 0.000000
# 5 0.000000 0.000000 0.000000 0.000000 0.112675 0.000000
# 6 0.000000 0.000000 0.000000 0.000000 0.000000 0.038316
#
#
# Mechanical properties :
#
#
# Convention : Reuss Voigt Hill
#
# Bulk Modulus (GPa) = 26.43581 36.36645 31.40113
# Shear Modulus (GPa) = 13.45565 18.96181 16.20873
#
# Velocity S-wave (km/s) = 2.75638 3.27211 3.02526
# Velocity P-wave (km/s) = 5.00570 5.89997 5.47114
#
# Compressibility (1/GPa) = 0.03782748
#
# Stress axis : x y z
#
# Youngs Moduli (GPa) = 47.24109 47.24109 41.26129
#
# Poissons Ratio (x) = 0.66580 0.00574
# Poissons Ratio (y) = 0.66580 0.00574
# Poissons Ratio (z) = 0.00658 0.00658
#
# Static dielectric constant tensor:
#      x y z
#    x 3.299710 0.000000 0.000000 
#    y 0.000000 3.299710 0.000000 
#    z 0.000000 0.000000 3.340300 
# 
# 
# High freq. dielectric constant tensor:
#      x y z
#    x 1.672950 0.000000 0.000000 
#    y 0.000000 1.672950 0.000000 
#    z 0.000000 0.000000 1.659450 
# 
# From -- ./inp_files/3896.got.cif
#   From: 2010.03.12/outbox.cif.g09.slc.cpg/sg123_2_cif.got.tgz:3896.got - 2010.04.06 16:26:55.
