data_PCOD8312843
_publ_section_title
;
Structure prediction by ZEFSAII (Michael W. Deem and Ramdas Pophale) SiO2 
 PCOD8312843
Probable space group: P 4/M M M
;
_chemical_formula_sum "Si O2"
_cell_formula_units_Z 72
_cell_length_a 18.881466
_cell_length_b 18.881466
_cell_length_c 10.755625
_cell_angle_alpha 90.000000
_cell_angle_beta 90.000000
_cell_angle_gamma 90.000000
_cell_volume 3834.485269
_symmetry_space_group_name_H-M "P 4/M M M"
_symmetry_group_IT_number 123
_symmetry_cell_setting 'tetragonal'
loop_
_space_group_symop_operation_xyz
x,y,z
-y,x,z
-x,-y,z
y,-x,z
x,-y,-z
-x,y,-z
y,x,-z
-y,-x,-z
-x,-y,-z
y,-x,-z
x,y,-z
-y,x,-z
-x,y,z
x,-y,z
-y,-x,z
y,x,z
loop_
_atom_site_type_symbol
_atom_site_label
_atom_site_fract_x
_atom_site_fract_y
_atom_site_fract_z
Si Si1 0.195803 0.919404 0.643688
Si Si2 0.916484 0.580310 0.000000
Si Si3 0.206726 0.577418 0.641405
Si Si4 0.081968 0.347046 0.747670
Si Si5 0.418031 0.581970 0.134018
Si Si6 0.657575 0.657575 0.647691
O O1 0.217414 0.906744 0.500000
O O2 0.132227 0.867774 0.684368
O O3 0.263481 0.903636 0.730378
O O4 0.169537 0.000000 0.663051
O O5 0.891750 0.626584 0.117521
O O6 0.884135 0.500000 0.000000
O O7 0.000000 0.573225 0.000000
O O8 0.223750 0.563062 0.500000
O O9 0.214218 0.500000 0.709336
O O10 0.127569 0.607605 0.651483
O O11 0.262013 0.637612 0.687642
O O12 0.000000 0.364637 0.722634
O O13 0.401079 0.500000 0.135200
O O14 0.389874 0.610127 0.264167
O O15 0.387638 0.612363 0.000000
O O16 0.643566 0.643566 0.500000
#
# Coordination Sequence:
#
# PCOD8312843 Si02
#       6
#    16   8  16  16   8   8
#     4   9  18  32  53  81 112 148 187 227 276 332
#     4   9  18  34  55  76 103 141 181 226 276 323
#     4  10  21  35  53  79 107 138 176 220 274 329
#     4  10  20  35  55  80 108 142 184 224 272 332
#     4   9  18  34  56  80 106 138 178 225 275 324
#     4  10  21  37  55  76 108 146 183 226 275 334
#
# _framework density 18.776966999999999
#
# number of rings (size 3 to 8) (size 9 to 14) (size 15 to 20)
#    0.000    2.444    0.000    2.333    1.556    4.222 
#    2.000    3.333    0.000    0.000    0.000    0.000 
#    0.000    4.444    0.000    0.000    0.000    0.000 
#
# Total GULP energy -892001.739151 kJ/mol
# GULP energy per Si atom -12388.913044 kJ/mol
# Density = 1.873423 g / cm^3
# Si number density = 18.776967 Si / 1000 Ang^3
#
#
#
# Elastic Constant Matrix: (Units=GPa)
#
#
# Indices 1 2 3 4 5 6 
#
# 1 124.4556 73.3364 37.4712 0.0000 0.0000 0.0000
# 2 73.3364 124.4552 37.4712 0.0000 0.0000 0.0000
# 3 37.4712 37.4712 66.3692 0.0000 0.0000 0.0000
# 4 0.0000 0.0000 0.0000 22.3159 0.0000 0.0000
# 5 0.0000 0.0000 0.0000 0.0000 22.3160 0.0000
# 6 0.0000 0.0000 0.0000 0.0000 0.0000 31.8571
#
#
#
# Elastic Compliance Matrix: (Units=1/GPa)
#
#
# Indices 1 2 3 4 5 6 
#
# 1 0.012997 -0.006565 -0.003631 0.000000 0.000000 0.000000
# 2 -0.006565 0.012997 -0.003631 0.000000 0.000000 0.000000
# 3 -0.003631 -0.003631 0.019168 0.000000 0.000000 0.000000
# 4 0.000000 0.000000 0.000000 0.044811 0.000000 0.000000
# 5 0.000000 0.000000 0.000000 0.000000 0.044811 0.000000
# 6 0.000000 0.000000 0.000000 0.000000 0.000000 0.031390
#
#
# Mechanical properties :
#
#
# Convention : Reuss Voigt Hill
#
# Bulk Modulus (GPa) = 57.12353 67.98196 62.55275
# Shear Modulus (GPa) = 25.04204 26.43123 25.73663
#
# Velocity S-wave (km/s) = 3.65589 3.75592 3.70624
# Velocity P-wave (km/s) = 6.95046 7.42246 7.19033
#
# Compressibility (1/GPa) = 0.01750592
#
# Stress axis : x y z
#
# Youngs Moduli (GPa) = 76.94138 76.94108 52.17157
#
# Poissons Ratio (x) = 0.50514 0.18945
# Poissons Ratio (y) = 0.50514 0.18945
# Poissons Ratio (z) = 0.27939 0.27939
#
# Static dielectric constant tensor:
#      x y z
#    x 3.509020 0.000000 0.000000 
#    y 0.000000 3.509020 0.000000 
#    z 0.000000 0.000000 3.467650 
# 
# 
# High freq. dielectric constant tensor:
#      x y z
#    x 1.726900 0.000000 0.000000 
#    y 0.000000 1.726900 0.000000 
#    z 0.000000 0.000000 1.710350 
# 
# From -- ./inp_files/2776.got.cif
#   From: 2010.03.12/outbox.cif.g09.slc.cpg/sg123_2_cif.got.tgz:2776.got - 2010.04.06 16:26:55.
