data_PCOD8312535
_publ_section_title
;
Structure prediction by ZEFSAII (Michael W. Deem and Ramdas Pophale) SiO2 
 PCOD8312535
Probable space group: P 4/M M M
;
_chemical_formula_sum "Si O2"
_cell_formula_units_Z 120
_cell_length_a 18.309041
_cell_length_b 18.309041
_cell_length_c 21.318467
_cell_angle_alpha 90.000000
_cell_angle_beta 90.000000
_cell_angle_gamma 90.000000
_cell_volume 7146.397450
_symmetry_space_group_name_H-M "P 4/M M M"
_symmetry_group_IT_number 123
_symmetry_cell_setting 'tetragonal'
loop_
_space_group_symop_operation_xyz
x,y,z
-y,x,z
-x,-y,z
y,-x,z
x,-y,-z
-x,y,-z
y,x,-z
-y,-x,-z
-x,-y,-z
y,-x,-z
x,y,-z
-y,x,-z
-x,y,z
x,-y,z
-y,-x,z
y,x,z
loop_
_atom_site_type_symbol
_atom_site_label
_atom_site_fract_x
_atom_site_fract_y
_atom_site_fract_z
Si Si1 0.417634 0.082565 0.574192
Si Si2 0.719782 0.163044 0.389760
Si Si3 0.416148 0.824324 0.833621
Si Si4 0.203196 0.084673 0.138830
Si Si5 0.654492 0.085559 0.068613
Si Si6 0.700336 0.583686 0.929636
Si Si7 0.162436 0.721779 0.246102
Si Si8 0.084908 0.199292 0.500000
O O1 0.414546 0.083173 0.500000
O O2 0.500000 0.098972 0.597714
O O3 0.366682 0.149711 0.598602
O O4 0.394301 0.000000 0.597064
O O5 0.754157 0.245844 0.400836
O O6 0.732238 0.139818 0.318170
O O7 0.758947 0.107925 0.437019
O O8 0.500000 0.819523 0.810526
O O9 0.406214 0.892908 0.880077
O O10 0.390738 0.757151 0.877049
O O11 0.363660 0.830412 0.773050
O O12 0.129808 0.129808 0.126067
O O13 0.264352 0.110743 0.089178
O O14 0.236764 0.099487 0.207627
O O15 0.182992 0.000000 0.132556
O O16 0.652595 0.000000 0.064674
O O17 0.637146 0.119370 0.000000
O O18 0.680658 0.500000 0.920113
O O19 0.625897 0.625897 0.917908
O O20 0.731341 0.598355 0.000000
O O21 0.240609 0.759392 0.232491
O O22 0.119138 0.119138 0.500000
O O23 0.000000 0.189460 0.500000
#
# Coordination Sequence:
#
# PCOD8312535 Si02
#       8
#    16  16  16  16  16  16  16   8
#     4   9  17  29  46  69  98 129 157 190 236 290
#     4  10  19  31  50  73  96 126 165 205 240 281
#     4  10  19  31  48  69  92 118 153 197 235 271
#     4   9  18  32  48  67  90 116 152 196 239 285
#     4   9  18  32  48  65  88 119 149 180 227 284
#     4   9  17  28  43  65  92 121 153 189 229 274
#     4   9  19  34  49  66  92 127 161 193 235 285
#     4  10  20  33  51  75 101 129 160 196 236 278
#
# _framework density 16.791678000000001
#
# number of rings (size 3 to 8) (size 9 to 14) (size 15 to 20)
#    0.000    2.667    0.667    1.600    0.000    3.800 
#    0.000    1.333    0.000    0.000    0.000    5.600 
#    0.000    0.267    0.000    4.400    0.000    2.133 
#
# Total GULP energy -1486792.320440 kJ/mol
# GULP energy per Si atom -12389.936004 kJ/mol
# Density = 1.675346 g / cm^3
# Si number density = 16.791678 Si / 1000 Ang^3
#
#
#
# Elastic Constant Matrix: (Units=GPa)
#
#
# Indices 1 2 3 4 5 6 
#
# 1 72.6601 36.5250 19.8688 0.0000 0.0000 0.0000
# 2 36.5250 72.6601 19.8688 0.0000 0.0000 0.0000
# 3 19.8688 19.8688 84.2333 0.0000 0.0000 0.0000
# 4 0.0000 0.0000 0.0000 16.3323 0.0000 0.0000
# 5 0.0000 0.0000 0.0000 0.0000 16.3323 0.0000
# 6 0.0000 0.0000 0.0000 0.0000 0.0000 27.7156
#
#
#
# Elastic Compliance Matrix: (Units=1/GPa)
#
#
# Indices 1 2 3 4 5 6 
#
# 1 0.018846 -0.008828 -0.002363 0.000000 0.000000 0.000000
# 2 -0.008828 0.018846 -0.002363 0.000000 0.000000 0.000000
# 3 -0.002363 -0.002363 0.012987 0.000000 0.000000 0.000000
# 4 0.000000 0.000000 0.000000 0.061228 0.000000 0.000000
# 5 0.000000 0.000000 0.000000 0.000000 0.061228 0.000000
# 6 0.000000 0.000000 0.000000 0.000000 0.000000 0.036081
#
#
# Mechanical properties :
#
#
# Convention : Reuss Voigt Hill
#
# Bulk Modulus (GPa) = 42.42424 42.45321 42.43873
# Shear Modulus (GPa) = 20.47653 22.29544 21.38598
#
# Velocity S-wave (km/s) = 3.49584 3.64781 3.57263
# Velocity P-wave (km/s) = 6.45093 6.56347 6.50744
#
# Compressibility (1/GPa) = 0.02357143
#
# Stress axis : x y z
#
# Youngs Moduli (GPa) = 53.06054 53.06054 77.00211
#
# Poissons Ratio (x) = 0.46839 0.18197
# Poissons Ratio (y) = 0.46839 0.18197
# Poissons Ratio (z) = 0.12539 0.12539
#
# Static dielectric constant tensor:
#      x y z
#    x 3.203480 0.000000 0.000000 
#    y 0.000000 3.203480 0.000000 
#    z 0.000000 0.000000 3.306260 
# 
# 
# High freq. dielectric constant tensor:
#      x y z
#    x 1.638440 0.000000 0.000000 
#    y 0.000000 1.638440 0.000000 
#    z 0.000000 0.000000 1.642310 
# 
# From -- ./inp_files/6801.got.cif
#   From: 2010.03.12/outbox.cif.g09.slc.cpg/sg123_4_cif.got.tgz:6801.got - 2010.04.06 16:26:55.
