data_PCOD8312094
_publ_section_title
;
Structure prediction by ZEFSAII (Michael W. Deem and Ramdas Pophale) SiO2 
 PCOD8312094
Probable space group: I -4 2 D
;
_chemical_formula_sum "Si O2"
_cell_formula_units_Z 108
_cell_length_a 30.995835
_cell_length_b 30.995835
_cell_length_c 5.194072
_cell_angle_alpha 90.000000
_cell_angle_beta 90.000000
_cell_angle_gamma 90.000000
_cell_volume 4990.162017
_symmetry_space_group_name_H-M "I -4 2 D"
_symmetry_group_IT_number 122
_symmetry_cell_setting 'tetragonal'
loop_
_space_group_symop_operation_xyz
x,y,z
y,-x,-z
-x,-y,z
-y,x,-z
x,1/2-y,1/4-z
-x,1/2+y,1/4-z
-y,1/2-x,1/4+z
y,1/2+x,1/4+z
1/2+x,1/2+y,1/2+z
1/2+y,1/2-x,1/2-z
1/2-x,1/2-y,1/2+z
1/2-y,1/2+x,1/2-z
1/2+x,-y,3/4-z
1/2-x,y,3/4-z
1/2-y,-x,3/4+z
1/2+y,x,3/4+z
loop_
_atom_site_type_symbol
_atom_site_label
_atom_site_fract_x
_atom_site_fract_y
_atom_site_fract_z
Si Si1 0.631698 0.590744 0.206229
Si Si2 0.923954 0.794015 0.269036
Si Si3 0.856435 0.354824 0.433845
Si Si4 0.250000 0.641437 0.875000
Si Si5 0.088778 0.531594 0.084132
Si Si6 0.494223 0.139782 0.406485
Si Si7 0.791853 0.793135 0.999832
Si Si8 0.000000 0.000000 0.000000
O O1 0.656197 0.613679 0.440615
O O2 0.581755 0.585418 0.273420
O O3 0.653041 0.543741 0.191376
O O4 0.638248 0.616543 0.942066
O O5 0.898198 0.829821 0.102145
O O6 0.889750 0.784679 0.493012
O O7 0.967986 0.815319 0.368754
O O8 0.935815 0.750000 0.125000
O O9 0.824426 0.313454 0.463353
O O10 0.279528 0.669868 0.690479
O O11 0.110211 0.523758 0.362681
O O12 0.041132 0.511112 0.073082
O O13 0.115521 0.507973 0.864227
O O14 0.750000 0.816293 0.875000
O O15 0.772540 0.750000 0.125000
#
# Coordination Sequence:
#
# PCOD8312094 Si02
#       8
#    16  16  16   8  16  16  16   4
#     4  12  25  45  70 100 143 197 237 293 363 447
#     4  12  25  42  75 106 139 184 244 315 350 427
#     4  12  24  46  72 105 141 190 245 285 368 442
#     4  12  22  42  70 112 144 180 238 298 374 416
#     4  12  25  42  70 103 146 187 239 308 371 429
#     4  12  28  45  69 107 144 192 244 305 373 427
#     4  12  25  41  72 112 149 182 229 304 375 446
#     4  12  28  42  68 110 148 186 256 306 376 442
#
# _framework density 21.642586000000001
#
# number of rings (size 3 to 8) (size 9 to 14) (size 15 to 20)
#    0.000    0.000    8.148    1.778    4.148    0.593 
#    0.000    0.741    0.000    0.000    0.000    0.000 
#    0.000    0.000    0.000    0.000    0.000    0.000 
#
# Total GULP energy -669621.660455 kJ/mol
# GULP energy per Si atom -12400.401120 kJ/mol
# Density = 2.159333 g / cm^3
# Si number density = 21.642586 Si / 1000 Ang^3
#
#
#
# Elastic Constant Matrix: (Units=GPa)
#
#
# Indices 1 2 3 4 5 6 
#
# 1 130.9362 60.0164 37.1975 0.0000 0.0000 0.0000
# 2 60.0164 130.9362 37.1975 0.0000 0.0000 0.0000
# 3 37.1975 37.1975 104.2231 0.0000 0.0000 0.0000
# 4 0.0000 0.0000 0.0000 33.4572 0.0000 0.0000
# 5 0.0000 0.0000 0.0000 0.0000 33.4572 0.0000
# 6 0.0000 0.0000 0.0000 0.0000 0.0000 17.0539
#
#
#
# Elastic Compliance Matrix: (Units=1/GPa)
#
#
# Indices 1 2 3 4 5 6 
#
# 1 0.010092 -0.004009 -0.002171 0.000000 0.000000 0.000000
# 2 -0.004009 0.010092 -0.002171 0.000000 0.000000 0.000000
# 3 -0.002171 -0.002171 0.011144 0.000000 0.000000 0.000000
# 4 0.000000 0.000000 0.000000 0.029889 0.000000 0.000000
# 5 0.000000 0.000000 0.000000 0.000000 0.029889 0.000000
# 6 0.000000 0.000000 0.000000 0.000000 0.000000 0.058637
#
#
# Mechanical properties :
#
#
# Convention : Reuss Voigt Hill
#
# Bulk Modulus (GPa) = 68.37097 70.54649 69.45873
# Shear Modulus (GPa) = 29.18521 32.23929 30.71225
#
# Velocity S-wave (km/s) = 3.67619 3.86375 3.77114
# Velocity P-wave (km/s) = 7.04831 7.25063 7.15019
#
# Compressibility (1/GPa) = 0.01462609
#
# Stress axis : x y z
#
# Youngs Moduli (GPa) = 99.09272 99.09272 89.73093
#
# Poissons Ratio (x) = 0.39725 0.19480
# Poissons Ratio (y) = 0.39725 0.19480
# Poissons Ratio (z) = 0.21512 0.21512
#
# Static dielectric constant tensor:
#      x y z
#    x 4.080870 0.000000 0.000000 
#    y 0.000000 4.080870 0.000000 
#    z 0.000000 0.000000 3.984610 
# 
# 
# High freq. dielectric constant tensor:
#      x y z
#    x 1.849670 0.000000 0.000000 
#    y 0.000000 1.849670 0.000000 
#    z 0.000000 0.000000 1.854860 
# 
# From -- ./inp_files/1548.got.cif
#   From: 2010.03.12/outbox.cif.g09.slc.cpg/sg122_1_cif.got.tgz:1548.got - 2010.04.06 16:17:16.
