data_PCOD8312916
_publ_section_title
;
Structure prediction by ZEFSAII (Michael W. Deem and Ramdas Pophale) SiO2 
 PCOD8312916
Probable space group: P 4/M M M
;
_chemical_formula_sum "Si O2"
_cell_formula_units_Z 96
_cell_length_a 24.044140
_cell_length_b 24.044140
_cell_length_c 8.987612
_cell_angle_alpha 90.000000
_cell_angle_beta 90.000000
_cell_angle_gamma 90.000000
_cell_volume 5195.924256
_symmetry_space_group_name_H-M "P 4/M M M"
_symmetry_group_IT_number 123
_symmetry_cell_setting 'tetragonal'
loop_
_space_group_symop_operation_xyz
x,y,z
-y,x,z
-x,-y,z
y,-x,z
x,-y,-z
-x,y,-z
y,x,-z
-y,-x,-z
-x,-y,-z
y,-x,-z
x,y,-z
-y,x,-z
-x,y,z
x,-y,z
-y,-x,z
y,x,z
loop_
_atom_site_type_symbol
_atom_site_label
_atom_site_fract_x
_atom_site_fract_y
_atom_site_fract_z
Si Si1 0.149799 0.759118 0.826415
Si Si2 0.562841 0.652010 0.331165
Si Si3 0.563998 0.764047 0.827873
Si Si4 0.640237 0.147335 0.675447
Si Si5 0.062469 0.150130 0.823068
Si Si6 0.065266 0.437468 0.168696
O O1 0.205636 0.794365 0.793986
O O2 0.151146 0.702476 0.735836
O O3 0.096010 0.794681 0.774024
O O4 0.145397 0.744752 0.000000
O O5 0.574499 0.672260 0.500000
O O6 0.500000 0.631220 0.314035
O O7 0.600642 0.600642 0.284890
O O8 0.576038 0.701090 0.217386
O O9 0.500000 0.780212 0.794386
O O10 0.604269 0.801242 0.730602
O O11 0.578483 0.772043 0.000000
O O12 0.643437 0.148007 0.500000
O O13 0.609437 0.091425 0.727432
O O14 0.095276 0.095276 0.764996
O O15 0.000000 0.151145 0.755651
O O16 0.060226 0.148243 0.000000
O O17 0.080985 0.500000 0.222632
O O18 0.000000 0.428720 0.175106
O O19 0.087120 0.429543 0.000000
#
# Coordination Sequence:
#
# PCOD8312916 Si02
#       6
#    16  16  16  16  16  16
#     4   9  19  36  54  72 100 140 183 221 256 302
#     4   9  18  33  53  78 108 139 171 210 258 312
#     4  10  21  37  56  76 100 133 173 215 259 310
#     4  12  24  35  53  80 107 136 172 216 267 320
#     4   8  14  26  47  76 107 137 169 207 252 299
#     4   9  19  37  59  81 107 140 176 213 254 304
#
# _framework density 18.476019999999998
#
# number of rings (size 3 to 8) (size 9 to 14) (size 15 to 20)
#    0.000    2.500    0.000    4.000    0.000    6.000 
#    0.000    4.167    0.000    0.000    0.000    2.333 
#    0.000    0.000    0.000    3.667    0.000    3.667 
#
# Total GULP energy -1190262.942086 kJ/mol
# GULP energy per Si atom -12398.572313 kJ/mol
# Density = 1.843397 g / cm^3
# Si number density = 18.476020 Si / 1000 Ang^3
#
#
#
# Elastic Constant Matrix: (Units=GPa)
#
#
# Indices 1 2 3 4 5 6 
#
# 1 133.7189 73.2124 61.4890 0.0000 0.0000 0.0000
# 2 73.2124 133.7189 61.4890 0.0000 0.0000 0.0000
# 3 61.4890 61.4890 91.9389 0.0000 0.0000 0.0000
# 4 0.0000 0.0000 0.0000 17.1314 0.0000 0.0000
# 5 0.0000 0.0000 0.0000 0.0000 17.1314 0.0000
# 6 0.0000 0.0000 0.0000 0.0000 0.0000 33.0461
#
#
#
# Elastic Compliance Matrix: (Units=1/GPa)
#
#
# Indices 1 2 3 4 5 6 
#
# 1 0.012274 -0.004253 -0.005364 0.000000 0.000000 0.000000
# 2 -0.004253 0.012274 -0.005364 0.000000 0.000000 0.000000
# 3 -0.005364 -0.005364 0.018052 0.000000 0.000000 0.000000
# 4 0.000000 0.000000 0.000000 0.058372 0.000000 0.000000
# 5 0.000000 0.000000 0.000000 0.000000 0.058372 0.000000
# 6 0.000000 0.000000 0.000000 0.000000 0.000000 0.030261
#
#
# Mechanical properties :
#
#
# Convention : Reuss Voigt Hill
#
# Bulk Modulus (GPa) = 79.13703 83.52861 81.33282
# Shear Modulus (GPa) = 22.34338 24.34085 23.34212
#
# Velocity S-wave (km/s) = 3.48130 3.63358 3.55825
# Velocity P-wave (km/s) = 7.68665 7.93166 7.81011
#
# Compressibility (1/GPa) = 0.01263631
#
# Stress axis : x y z
#
# Youngs Moduli (GPa) = 81.47480 81.47480 55.39640
#
# Poissons Ratio (x) = 0.34655 0.29715
# Poissons Ratio (y) = 0.34655 0.29715
# Poissons Ratio (z) = 0.43703 0.43703
#
# Static dielectric constant tensor:
#      x y z
#    x 3.509120 0.000000 0.000000 
#    y 0.000000 3.509120 0.000000 
#    z 0.000000 0.000000 3.214390 
# 
# 
# High freq. dielectric constant tensor:
#      x y z
#    x 1.722270 0.000000 0.000000 
#    y 0.000000 1.722270 0.000000 
#    z 0.000000 0.000000 1.693140 
# 
# From -- ./inp_files/1626.got.cif
#   From: 2010.03.12/outbox.cif.g09.slc.cpg/sg123_1_cif.got.tgz:1626.got - 2010.04.06 16:26:55.
