data_PCOD8312720
_publ_section_title
;
Structure prediction by ZEFSAII (Michael W. Deem and Ramdas Pophale) SiO2 
 PCOD8312720
Probable space group: P 4/M M M
;
_chemical_formula_sum "Si O2"
_cell_formula_units_Z 106
_cell_length_a 15.012837
_cell_length_b 15.012837
_cell_length_c 28.435072
_cell_angle_alpha 90.000000
_cell_angle_beta 90.000000
_cell_angle_gamma 90.000000
_cell_volume 6408.846516
_symmetry_space_group_name_H-M "P 4/M M M"
_symmetry_group_IT_number 123
_symmetry_cell_setting 'tetragonal'
loop_
_space_group_symop_operation_xyz
x,y,z
-y,x,z
-x,-y,z
y,-x,z
x,-y,-z
-x,y,-z
y,x,-z
-y,-x,-z
-x,-y,-z
y,-x,-z
x,y,-z
-y,x,-z
-x,y,z
x,-y,z
-y,-x,z
y,x,z
loop_
_atom_site_type_symbol
_atom_site_label
_atom_site_fract_x
_atom_site_fract_y
_atom_site_fract_z
Si Si1 0.098871 0.605393 0.226799
Si Si2 0.599942 0.813340 0.400924
Si Si3 0.748284 0.604058 0.296523
Si Si4 0.247018 0.102584 0.945746
Si Si5 0.894676 0.598651 0.878264
Si Si6 0.500000 0.500000 0.403876
Si Si7 0.632228 0.367773 0.446667
Si Si8 0.242720 0.099404 0.445782
O O1 0.091975 0.500000 0.230577
O O2 0.171827 0.640595 0.263637
O O3 0.130363 0.631623 0.174222
O O4 0.000000 0.645448 0.237851
O O5 0.500000 0.852511 0.402441
O O6 0.622369 0.776277 0.349583
O O7 0.612395 0.735843 0.438966
O O8 0.668583 0.890853 0.414362
O O9 0.726725 0.500000 0.287480
O O10 0.658288 0.658288 0.284975
O O11 0.158715 0.158715 0.933987
O O12 0.329593 0.141561 0.915650
O O13 0.226045 0.000000 0.932805
O O14 0.274442 0.112240 0.000000
O O15 0.853682 0.500000 0.888461
O O16 0.000000 0.591297 0.882722
O O17 0.575098 0.424903 0.410765
O O18 0.606637 0.393363 0.500000
O O19 0.266911 0.117196 0.500000
O O20 0.167213 0.167213 0.427959
O O21 0.205528 0.000000 0.438614
#
# Coordination Sequence:
#
# PCOD8312720 Si02
#       8
#    16  16  16  16  16   2   8  16
#     4   8  15  29  48  67  88 114 148 192 236 276
#     4  11  22  35  50  71  98 128 156 191 233 275
#     4  10  20  33  47  68  95 124 157 187 222 269
#     4   9  17  27  39  59  89 123 157 189 221 265
#     4   8  14  26  44  65  87 112 145 189 240 283
#     4  12  25  32  48  80  92 120 184 208 220 276
#     4  12  21  32  48  68  95 124 157 197 229 266
#     4  10  21  37  56  76  98 123 152 187 228 274
#
# _framework density 16.539636999999999
#
# number of rings (size 3 to 8) (size 9 to 14) (size 15 to 20)
#    0.000    2.415    2.264    1.698    0.000    3.170 
#    0.000    5.283    0.000    0.000    0.000    0.000 
#    0.000    0.604    0.000    1.962    0.000    0.453 
#
# Total GULP energy -1313293.931687 kJ/mol
# GULP energy per Si atom -12389.565393 kJ/mol
# Density = 1.650199 g / cm^3
# Si number density = 16.539637 Si / 1000 Ang^3
#
#
#
# Elastic Constant Matrix: (Units=GPa)
#
#
# Indices 1 2 3 4 5 6 
#
# 1 85.4313 44.0425 41.8001 0.0000 0.0000 0.0000
# 2 44.0425 85.4312 41.8000 0.0000 0.0000 0.0000
# 3 41.8001 41.8000 74.0080 0.0000 0.0000 0.0000
# 4 0.0000 0.0000 0.0000 18.1593 0.0000 0.0000
# 5 0.0000 0.0000 0.0000 0.0000 18.1593 0.0000
# 6 0.0000 0.0000 0.0000 0.0000 0.0000 15.3877
#
#
#
# Elastic Compliance Matrix: (Units=1/GPa)
#
#
# Indices 1 2 3 4 5 6 
#
# 1 0.018159 -0.006002 -0.006866 0.000000 0.000000 0.000000
# 2 -0.006002 0.018159 -0.006866 0.000000 0.000000 0.000000
# 3 -0.006866 -0.006866 0.021268 0.000000 0.000000 0.000000
# 4 0.000000 0.000000 0.000000 0.055068 0.000000 0.000000
# 5 0.000000 0.000000 0.000000 0.000000 0.055068 0.000000
# 6 0.000000 0.000000 0.000000 0.000000 0.000000 0.064987
#
#
# Mechanical properties :
#
#
# Convention : Reuss Voigt Hill
#
# Bulk Modulus (GPa) = 55.19656 55.57284 55.38470
# Shear Modulus (GPa) = 17.97146 18.15645 18.06396
#
# Velocity S-wave (km/s) = 3.29989 3.31683 3.30837
# Velocity P-wave (km/s) = 6.92559 6.95279 6.93920
#
# Compressibility (1/GPa) = 0.01811707
#
# Stress axis : x y z
#
# Youngs Moduli (GPa) = 55.06859 55.06858 47.01804
#
# Poissons Ratio (x) = 0.33052 0.32285
# Poissons Ratio (y) = 0.33052 0.32285
# Poissons Ratio (z) = 0.37812 0.37812
#
# Static dielectric constant tensor:
#      x y z
#    x 3.278960 0.000000 0.000000 
#    y 0.000000 3.278960 0.000000 
#    z 0.000000 0.000000 3.186320 
# 
# 
# High freq. dielectric constant tensor:
#      x y z
#    x 1.623470 0.000000 0.000000 
#    y 0.000000 1.623470 0.000000 
#    z 0.000000 0.000000 1.625840 
# 
# From -- ./inp_files/8819.got.cif
#   From: 2010.03.12/outbox.cif.g09.slc.cpg/sg123_5_cif.got.tgz:8819.got - 2010.04.06 16:26:55.
