data_PCOD8312953
_publ_section_title
;
Structure prediction by ZEFSAII (Michael W. Deem and Ramdas Pophale) SiO2 
 PCOD8312953
Probable space group: P 4/M M M
;
_chemical_formula_sum "Si O2"
_cell_formula_units_Z 48
_cell_length_a 17.265106
_cell_length_b 17.265106
_cell_length_c 8.892416
_cell_angle_alpha 90.000000
_cell_angle_beta 90.000000
_cell_angle_gamma 90.000000
_cell_volume 2650.685910
_symmetry_space_group_name_H-M "P 4/M M M"
_symmetry_group_IT_number 123
_symmetry_cell_setting 'tetragonal'
loop_
_space_group_symop_operation_xyz
x,y,z
-y,x,z
-x,-y,z
y,-x,z
x,-y,-z
-x,y,-z
y,x,-z
-y,-x,-z
-x,-y,-z
y,-x,-z
x,y,-z
-y,x,-z
-x,y,z
x,-y,z
-y,-x,z
y,x,z
loop_
_atom_site_type_symbol
_atom_site_label
_atom_site_fract_x
_atom_site_fract_y
_atom_site_fract_z
Si Si1 0.915346 0.204905 0.178727
Si Si2 0.376391 0.500000 0.678614
Si Si3 0.199699 0.500000 0.321992
Si Si4 0.620082 0.088178 0.823394
O O1 0.851558 0.148443 0.251741
O O2 0.898710 0.292137 0.229036
O O3 0.000000 0.178654 0.236263
O O4 0.913079 0.200593 0.000000
O O5 0.423070 0.423070 0.733976
O O6 0.373844 0.500000 0.500000
O O7 0.288164 0.500000 0.742223
O O8 0.201720 0.500000 0.500000
O O9 0.153130 0.574313 0.266134
O O10 0.593717 0.000000 0.783857
O O11 0.608517 0.102119 0.000000
#
# Coordination Sequence:
#
# PCOD8312953 Si02
#       4
#    16   8   8  16
#     4   8  14  25  42  65  92 122 156 191 225 263
#     4   8  16  33  52  67  89 120 147 176 224 283
#     4  11  21  30  48  76  93 108 148 197 229 261
#     4   9  18  32  47  64  93 131 159 179 218 277
#
# _framework density 18.108522000000001
#
# number of rings (size 3 to 8) (size 9 to 14) (size 15 to 20)
#    0.000    3.167    0.000    3.500    0.000    4.333 
#    0.000    1.667    0.000    3.000    0.000    4.667 
#    0.000    0.000    0.000    7.333    0.000    7.333 
#
# Total GULP energy -594793.724226 kJ/mol
# GULP energy per Si atom -12391.535921 kJ/mol
# Density = 1.806731 g / cm^3
# Si number density = 18.108522 Si / 1000 Ang^3
#
#
#
# Elastic Constant Matrix: (Units=GPa)
#
#
# Indices 1 2 3 4 5 6 
#
# 1 158.9162 101.2688 25.8128 0.0000 0.0000 0.0000
# 2 101.2688 158.9162 25.8128 0.0000 0.0000 0.0000
# 3 25.8128 25.8128 26.2526 0.0000 0.0000 0.0000
# 4 0.0000 0.0000 0.0000 15.9616 0.0000 0.0000
# 5 0.0000 0.0000 0.0000 0.0000 15.9616 0.0000
# 6 0.0000 0.0000 0.0000 0.0000 0.0000 97.8966
#
#
#
# Elastic Compliance Matrix: (Units=1/GPa)
#
#
# Indices 1 2 3 4 5 6 
#
# 1 0.011061 -0.006286 -0.004695 0.000000 0.000000 0.000000
# 2 -0.006286 0.011061 -0.004695 0.000000 0.000000 0.000000
# 3 -0.004695 -0.004695 0.047324 0.000000 0.000000 0.000000
# 4 0.000000 0.000000 0.000000 0.062650 0.000000 0.000000
# 5 0.000000 0.000000 0.000000 0.000000 0.062650 0.000000
# 6 0.000000 0.000000 0.000000 0.000000 0.000000 0.010215
#
#
# Mechanical properties :
#
#
# Convention : Reuss Voigt Hill
#
# Bulk Modulus (GPa) = 26.25078 72.20823 49.22950
# Shear Modulus (GPa) = 20.07941 38.70999 29.39470
#
# Velocity S-wave (km/s) = 3.33353 4.62851 4.03333
# Velocity P-wave (km/s) = 5.41705 8.27804 6.99537
#
# Compressibility (1/GPa) = 0.03809410
#
# Stress axis : x y z
#
# Youngs Moduli (GPa) = 90.40836 90.40836 21.13087
#
# Poissons Ratio (x) = 0.56830 0.09921
# Poissons Ratio (y) = 0.56830 0.09921
# Poissons Ratio (z) = 0.42447 0.42447
#
# Static dielectric constant tensor:
#      x y z
#    x 3.723780 0.000000 0.000000 
#    y 0.000000 3.723780 0.000000 
#    z 0.000000 0.000000 2.780400 
# 
# 
# High freq. dielectric constant tensor:
#      x y z
#    x 1.710760 0.000000 0.000000 
#    y 0.000000 1.710760 0.000000 
#    z 0.000000 0.000000 1.644230 
# 
# From -- ./inp_files/430.got.cif
#   From: 2010.03.12/outbox.cif.g09.slc.cpg/sg123_1_cif.got.tgz:430.got - 2010.04.06 16:26:55.
