data_PCOD8312604
_publ_section_title
;
Structure prediction by ZEFSAII (Michael W. Deem and Ramdas Pophale) SiO2 
 PCOD8312604
Probable space group: P 4/M M M
;
_chemical_formula_sum "Si O2"
_cell_formula_units_Z 80
_cell_length_a 12.442283
_cell_length_b 12.442283
_cell_length_c 30.755047
_cell_angle_alpha 90.000000
_cell_angle_beta 90.000000
_cell_angle_gamma 90.000000
_cell_volume 4761.201320
_symmetry_space_group_name_H-M "P 4/M M M"
_symmetry_group_IT_number 123
_symmetry_cell_setting 'tetragonal'
loop_
_space_group_symop_operation_xyz
x,y,z
-y,x,z
-x,-y,z
y,-x,z
x,-y,-z
-x,y,-z
y,x,-z
-y,-x,-z
-x,-y,-z
y,-x,-z
x,y,-z
-y,x,-z
-x,y,z
x,-y,z
-y,-x,z
y,x,z
loop_
_atom_site_type_symbol
_atom_site_label
_atom_site_fract_x
_atom_site_fract_y
_atom_site_fract_z
Si Si1 0.700717 0.874190 0.000000
Si Si2 0.623035 0.796472 0.602132
Si Si3 0.376966 0.796486 0.297444
Si Si4 0.000000 0.372148 0.549103
Si Si5 0.623543 0.200681 0.909220
Si Si6 0.000000 0.627728 0.853745
Si Si7 0.627877 0.000000 0.244371
O O1 0.631344 0.839615 0.041446
O O2 0.816252 0.816252 0.000000
O O3 0.723289 0.000000 0.000000
O O4 0.500000 0.770487 0.589994
O O5 0.690098 0.690098 0.591206
O O6 0.633806 0.830064 0.652343
O O7 0.670135 0.894171 0.573672
O O8 0.500000 0.770432 0.285312
O O9 0.309883 0.690118 0.286508
O O10 0.329926 0.894199 0.268991
O O11 0.000000 0.500000 0.550422
O O12 0.000000 0.327799 0.500000
O O13 0.500000 0.228689 0.898650
O O14 0.692617 0.307384 0.900822
O O15 0.669231 0.106764 0.878036
O O16 0.000000 0.672581 0.804687
O O17 0.000000 0.500000 0.854803
O O18 0.500000 0.000000 0.245583
#
# Coordination Sequence:
#
# PCOD8312604 Si02
#       7
#     8  16  16   8  16   8   8
#     4  10  19  32  52  76 102 133 168 205 244 286
#     4   9  17  29  46  69  96 124 155 192 234 281
#     4   9  17  29  47  71  97 125 156 192 235 282
#     4   9  17  29  45  64  88 122 162 198 231 273
#     4  10  20  33  51  75 101 130 162 197 239 286
#     4   9  18  32  50  69  92 125 165 202 232 275
#     4   9  17  30  48  69  92 123 162 199 233 273
#
# _framework density 16.802482999999999
#
# number of rings (size 3 to 8) (size 9 to 14) (size 15 to 20)
#    0.000    2.700    1.000    0.900    0.000    4.700 
#    0.000    2.000    0.000    2.700    0.000   13.300 
#    0.000    0.000    0.000    0.000    0.000    0.000 
#
# Total GULP energy -992035.170818 kJ/mol
# GULP energy per Si atom -12400.439635 kJ/mol
# Density = 1.676424 g / cm^3
# Si number density = 16.802483 Si / 1000 Ang^3
#
#
#
# Elastic Constant Matrix: (Units=GPa)
#
#
# Indices 1 2 3 4 5 6 
#
# 1 96.9177 55.0449 48.7156 0.0000 0.0000 0.0000
# 2 55.0449 96.9177 48.7156 0.0000 0.0000 0.0000
# 3 48.7156 48.7156 104.5912 0.0000 0.0000 0.0000
# 4 0.0000 0.0000 0.0000 17.0516 0.0000 0.0000
# 5 0.0000 0.0000 0.0000 0.0000 17.0516 0.0000
# 6 0.0000 0.0000 0.0000 0.0000 0.0000 7.7608
#
#
#
# Elastic Compliance Matrix: (Units=1/GPa)
#
#
# Indices 1 2 3 4 5 6 
#
# 1 0.016632 -0.007250 -0.004370 0.000000 0.000000 0.000000
# 2 -0.007250 0.016632 -0.004370 0.000000 0.000000 0.000000
# 3 -0.004370 -0.004370 0.013632 0.000000 0.000000 0.000000
# 4 0.000000 0.000000 0.000000 0.058646 0.000000 0.000000
# 5 0.000000 0.000000 0.000000 0.000000 0.058646 0.000000
# 6 0.000000 0.000000 0.000000 0.000000 0.000000 0.128853
#
#
# Mechanical properties :
#
#
# Convention : Reuss Voigt Hill
#
# Bulk Modulus (GPa) = 67.03971 67.04213 67.04092
# Shear Modulus (GPa) = 15.15186 18.10281 16.62734
#
# Velocity S-wave (km/s) = 3.00619 3.28592 3.14917
# Velocity P-wave (km/s) = 7.21352 7.37449 7.29445
#
# Compressibility (1/GPa) = 0.01491653
#
# Stress axis : x y z
#
# Youngs Moduli (GPa) = 60.12450 60.12450 73.35706
#
# Poissons Ratio (x) = 0.43588 0.32058
# Poissons Ratio (y) = 0.43588 0.32058
# Poissons Ratio (z) = 0.26275 0.26275
#
# Static dielectric constant tensor:
#      x y z
#    x 3.020010 0.000000 0.000000 
#    y 0.000000 3.020010 0.000000 
#    z 0.000000 0.000000 3.310320 
# 
# 
# High freq. dielectric constant tensor:
#      x y z
#    x 1.631830 0.000000 0.000000 
#    y 0.000000 1.631830 0.000000 
#    z 0.000000 0.000000 1.652860 
# 
# From -- ./inp_files/8414.got.cif
#   From: 2010.03.12/outbox.cif.g09.slc.cpg/sg123_5_cif.got.tgz:8414.got - 2010.04.06 16:26:55.
