data_PCOD8312663
_publ_section_title
;
Structure prediction by ZEFSAII (Michael W. Deem and Ramdas Pophale) SiO2 
 PCOD8312663
Probable space group: P 4/M M M
;
_chemical_formula_sum "Si O2"
_cell_formula_units_Z 56
_cell_length_a 15.011023
_cell_length_b 15.011023
_cell_length_c 14.823226
_cell_angle_alpha 90.000000
_cell_angle_beta 90.000000
_cell_angle_gamma 90.000000
_cell_volume 3340.129544
_symmetry_space_group_name_H-M "P 4/M M M"
_symmetry_group_IT_number 123
_symmetry_cell_setting 'tetragonal'
loop_
_space_group_symop_operation_xyz
x,y,z
-y,x,z
-x,-y,z
y,-x,z
x,-y,-z
-x,y,-z
y,x,-z
-y,-x,-z
-x,-y,-z
y,-x,-z
x,y,-z
-y,x,-z
-x,y,z
x,-y,z
-y,-x,z
y,x,z
loop_
_atom_site_type_symbol
_atom_site_label
_atom_site_fract_x
_atom_site_fract_y
_atom_site_fract_z
Si Si1 0.901568 0.605821 0.601124
Si Si2 0.000000 0.399168 0.105133
Si Si3 0.671372 0.811453 0.102816
Si Si4 0.741808 0.398874 0.722195
O O1 0.879993 0.640084 0.500000
O O2 0.900878 0.500000 0.602306
O O3 0.827937 0.641857 0.670806
O O4 0.000000 0.639749 0.631129
O O5 0.914595 0.339384 0.132241
O O6 0.000000 0.500000 0.150242
O O7 0.000000 0.415903 0.000000
O O8 0.773458 0.773458 0.112361
O O9 0.608556 0.755601 0.169968
O O10 0.637689 0.797471 0.000000
O O11 0.723736 0.500000 0.694588
O O12 0.656308 0.343693 0.690376
#
# Coordination Sequence:
#
# PCOD8312663 Si02
#       4
#    16   8  16  16
#     4   8  15  29  48  68  89 113 143 184 234 282
#     4   9  16  26  44  67  86 112 154 198 238 280
#     4   9  18  31  45  65  95 125 154 195 243 285
#     4  10  20  31  45  66  92 126 162 194 231 276
#
# _framework density 16.765816000000001
#
# number of rings (size 3 to 8) (size 9 to 14) (size 15 to 20)
#    0.000    3.000    0.000    1.714    2.000    2.571 
#    0.000    0.000    0.000    0.429    0.000   11.000 
#    0.000    0.571    0.000    3.143    0.000    0.286 
#
# Total GULP energy -693735.106887 kJ/mol
# GULP energy per Si atom -12388.126909 kJ/mol
# Density = 1.672766 g / cm^3
# Si number density = 16.765816 Si / 1000 Ang^3
#
#
#
# Elastic Constant Matrix: (Units=GPa)
#
#
# Indices 1 2 3 4 5 6 
#
# 1 97.0562 63.9657 33.1786 0.0000 0.0000 0.0000
# 2 63.9657 97.0562 33.1786 0.0000 0.0000 0.0000
# 3 33.1786 33.1786 68.2696 0.0000 0.0000 0.0000
# 4 0.0000 0.0000 0.0000 16.1848 0.0000 0.0000
# 5 0.0000 0.0000 0.0000 0.0000 16.1848 0.0000
# 6 0.0000 0.0000 0.0000 0.0000 0.0000 20.1549
#
#
#
# Elastic Compliance Matrix: (Units=1/GPa)
#
#
# Indices 1 2 3 4 5 6 
#
# 1 0.018993 -0.011227 -0.003774 0.000000 0.000000 0.000000
# 2 -0.011227 0.018993 -0.003774 0.000000 0.000000 0.000000
# 3 -0.003774 -0.003774 0.018316 0.000000 0.000000 0.000000
# 4 0.000000 0.000000 0.000000 0.061787 0.000000 0.000000
# 5 0.000000 0.000000 0.000000 0.000000 0.061787 0.000000
# 6 0.000000 0.000000 0.000000 0.000000 0.000000 0.049616
#
#
# Mechanical properties :
#
#
# Convention : Reuss Voigt Hill
#
# Bulk Modulus (GPa) = 53.32993 58.11422 55.72207
# Shear Modulus (GPa) = 18.29546 19.30882 18.80214
#
# Velocity S-wave (km/s) = 3.30697 3.39732 3.35245
# Velocity P-wave (km/s) = 6.81610 7.08002 6.94931
#
# Compressibility (1/GPa) = 0.01875120
#
# Stress axis : x y z
#
# Youngs Moduli (GPa) = 52.65131 52.65131 54.59669
#
# Poissons Ratio (x) = 0.59113 0.20605
# Poissons Ratio (y) = 0.59113 0.20605
# Poissons Ratio (z) = 0.19871 0.19871
#
# Static dielectric constant tensor:
#      x y z
#    x 3.145720 0.000000 0.000000 
#    y 0.000000 3.145720 0.000000 
#    z 0.000000 0.000000 3.292080 
# 
# 
# High freq. dielectric constant tensor:
#      x y z
#    x 1.618960 0.000000 0.000000 
#    y 0.000000 1.618960 0.000000 
#    z 0.000000 0.000000 1.654160 
# 
# From -- ./inp_files/3686.got.cif
#   From: 2010.03.12/outbox.cif.g09.slc.cpg/sg123_2_cif.got.tgz:3686.got - 2010.04.06 16:26:55.
