data_PCOD8312609
_publ_section_title
;
Structure prediction by ZEFSAII (Michael W. Deem and Ramdas Pophale) SiO2 
 PCOD8312609
Probable space group: P 4/M M M
;
_chemical_formula_sum "Si O2"
_cell_formula_units_Z 80
_cell_length_a 13.024884
_cell_length_b 13.024884
_cell_length_c 27.476408
_cell_angle_alpha 90.000000
_cell_angle_beta 90.000000
_cell_angle_gamma 90.000000
_cell_volume 4661.306762
_symmetry_space_group_name_H-M "P 4/M M M"
_symmetry_group_IT_number 123
_symmetry_cell_setting 'tetragonal'
loop_
_space_group_symop_operation_xyz
x,y,z
-y,x,z
-x,-y,z
y,-x,z
x,-y,-z
-x,y,-z
y,x,-z
-y,-x,-z
-x,-y,-z
y,-x,-z
x,y,-z
-y,x,-z
-x,y,z
x,-y,z
-y,-x,z
y,x,z
loop_
_atom_site_type_symbol
_atom_site_label
_atom_site_fract_x
_atom_site_fract_y
_atom_site_fract_z
Si Si1 0.118264 0.280116 0.804922
Si Si2 0.614432 0.784058 0.000000
Si Si3 0.000000 0.378610 0.554732
Si Si4 0.210030 0.622232 0.391642
Si Si5 0.117968 0.285138 0.087801
Si Si6 0.619613 0.886308 0.708072
O O1 0.169053 0.169053 0.803246
O O2 0.139732 0.331417 0.857947
O O3 0.161267 0.348138 0.760322
O O4 0.000000 0.260499 0.796807
O O5 0.630098 0.852759 0.951916
O O6 0.500000 0.741771 0.000000
O O7 0.685459 0.685459 0.000000
O O8 0.105726 0.342810 0.580587
O O9 0.000000 0.500000 0.555201
O O10 0.000000 0.334454 0.500000
O O11 0.233876 0.500000 0.400017
O O12 0.307796 0.692205 0.408885
O O13 0.191389 0.648989 0.335013
O O14 0.182159 0.182159 0.078036
O O15 0.000000 0.253841 0.082117
O O16 0.500000 0.901311 0.708838
O O17 0.668746 0.000000 0.699240
#
# Coordination Sequence:
#
# PCOD8312609 Si02
#       6
#    16   8   8  16  16  16
#     4   9  17  28  43  65  94 125 157 194 235 281
#     4  10  21  36  52  68  88 114 147 192 240 288
#     4   9  18  34  54  75  99 131 173 209 240 290
#     4  10  19  32  52  77 105 136 170 210 255 301
#     4   9  18  31  46  68  96 125 158 193 232 281
#     4   9  16  28  46  68  94 126 167 209 244 284
#
# _framework density 17.162569000000001
#
# number of rings (size 3 to 8) (size 9 to 14) (size 15 to 20)
#    0.000    2.700    1.000    0.900    0.000    2.700 
#    0.000    4.000    0.000    2.100    0.000    3.500 
#    0.000    4.800    0.000    0.000    0.000    0.000 
#
# Total GULP energy -991160.426889 kJ/mol
# GULP energy per Si atom -12389.505336 kJ/mol
# Density = 1.712351 g / cm^3
# Si number density = 17.162569 Si / 1000 Ang^3
#
#
#
# Elastic Constant Matrix: (Units=GPa)
#
#
# Indices 1 2 3 4 5 6 
#
# 1 66.5219 35.2879 40.1513 0.0000 0.0000 0.0000
# 2 35.2879 66.5219 40.1513 0.0000 0.0000 0.0000
# 3 40.1513 40.1513 127.4005 0.0000 0.0000 0.0000
# 4 0.0000 0.0000 0.0000 22.1268 0.0000 0.0000
# 5 0.0000 0.0000 0.0000 0.0000 22.1268 0.0000
# 6 0.0000 0.0000 0.0000 0.0000 0.0000 19.8154
#
#
#
# Elastic Compliance Matrix: (Units=1/GPa)
#
#
# Indices 1 2 3 4 5 6 
#
# 1 0.022544 -0.009472 -0.004120 0.000000 0.000000 0.000000
# 2 -0.009472 0.022544 -0.004120 0.000000 0.000000 0.000000
# 3 -0.004120 -0.004120 0.010446 0.000000 0.000000 0.000000
# 4 0.000000 0.000000 0.000000 0.045194 0.000000 0.000000
# 5 0.000000 0.000000 0.000000 0.000000 0.045194 0.000000
# 6 0.000000 0.000000 0.000000 0.000000 0.000000 0.050466
#
#
# Mechanical properties :
#
#
# Convention : Reuss Voigt Hill
#
# Bulk Modulus (GPa) = 49.72491 54.62501 52.17496
# Shear Modulus (GPa) = 20.96306 22.47070 21.71688
#
# Velocity S-wave (km/s) = 3.49870 3.62233 3.56105
# Velocity P-wave (km/s) = 6.73476 7.02795 6.88292
#
# Compressibility (1/GPa) = 0.02011064
#
# Stress axis : x y z
#
# Youngs Moduli (GPa) = 44.35775 44.35775 95.73113
#
# Poissons Ratio (x) = 0.42017 0.39438
# Poissons Ratio (y) = 0.42017 0.39438
# Poissons Ratio (z) = 0.18274 0.18274
#
# Static dielectric constant tensor:
#      x y z
#    x 3.022470 0.000000 0.000000 
#    y 0.000000 3.022470 0.000000 
#    z 0.000000 0.000000 3.736230 
# 
# 
# High freq. dielectric constant tensor:
#      x y z
#    x 1.638740 0.000000 0.000000 
#    y 0.000000 1.638740 0.000000 
#    z 0.000000 0.000000 1.681590 
# 
# From -- ./inp_files/8387.got.cif
#   From: 2010.03.12/outbox.cif.g09.slc.cpg/sg123_5_cif.got.tgz:8387.got - 2010.04.06 16:26:55.
