data_PCOD8312175
_publ_section_title
;
Structure prediction by ZEFSAII (Michael W. Deem and Ramdas Pophale) SiO2 
 PCOD8312175
Probable space group: P 4/M M M
;
_chemical_formula_sum "Si O2"
_cell_formula_units_Z 96
_cell_length_a 24.525176
_cell_length_b 24.525176
_cell_length_c 8.679943
_cell_angle_alpha 90.000000
_cell_angle_beta 90.000000
_cell_angle_gamma 90.000000
_cell_volume 5220.849073
_symmetry_space_group_name_H-M "P 4/M M M"
_symmetry_group_IT_number 123
_symmetry_cell_setting 'tetragonal'
loop_
_space_group_symop_operation_xyz
x,y,z
-y,x,z
-x,-y,z
y,-x,z
x,-y,-z
-x,y,-z
y,x,-z
-y,-x,-z
-x,-y,-z
y,-x,-z
x,y,-z
-y,x,-z
-x,y,z
x,-y,z
-y,-x,z
y,x,z
loop_
_atom_site_type_symbol
_atom_site_label
_atom_site_fract_x
_atom_site_fract_y
_atom_site_fract_z
Si Si1 0.734893 0.648302 0.183242
Si Si2 0.561449 0.648302 0.183223
Si Si3 0.439341 0.060329 0.183363
Si Si4 0.350624 0.142298 0.182281
Si Si5 0.267090 0.061712 0.319039
Si Si6 0.059429 0.856116 0.683075
O O1 0.701895 0.701895 0.240908
O O2 0.702652 0.593854 0.238578
O O3 0.796338 0.649184 0.252426
O O4 0.737216 0.648763 0.000000
O O5 0.500000 0.648108 0.252713
O O6 0.594473 0.594473 0.239588
O O7 0.558650 0.648031 0.000000
O O8 0.500000 0.071791 0.244941
O O9 0.401141 0.107714 0.251945
O O10 0.419975 0.000000 0.238847
O O11 0.438271 0.061872 0.000000
O O12 0.297316 0.108844 0.226501
O O13 0.354815 0.146364 0.000000
O O14 0.274295 0.071541 0.500000
O O15 0.205331 0.069694 0.263879
O O16 0.286674 0.000000 0.276651
O O17 0.061819 0.858622 0.500000
O O18 0.104778 0.895223 0.758378
O O19 0.000000 0.875821 0.740051
#
# Coordination Sequence:
#
# PCOD8312175 Si02
#       6
#    16  16  16  16  16  16
#     4   8  15  26  36  51  79 108 133 170 217 251
#     4   8  13  21  33  50  76 111 146 178 213 253
#     4   8  14  24  37  56  81 100 118 159 212 242
#     4  10  18  27  44  65  80 104 145 179 201 242
#     4   9  18  31  44  60  86 115 137 165 211 256
#     4   8  14  25  41  61  84 109 137 169 206 248
#
# _framework density 18.387813999999999
#
# number of rings (size 3 to 8) (size 9 to 14) (size 15 to 20)
#    0.000    3.500    0.000    3.000    0.000    2.667 
#    0.000    5.000    0.000    0.500    0.000    2.333 
#    0.000    0.000    0.000    4.167    0.000    4.500 
#
# Total GULP energy -1189397.529150 kJ/mol
# GULP energy per Si atom -12389.557595 kJ/mol
# Density = 1.834596 g / cm^3
# Si number density = 18.387814 Si / 1000 Ang^3
#
#
#
# Elastic Constant Matrix: (Units=GPa)
#
#
# Indices 1 2 3 4 5 6 
#
# 1 167.9192 99.7757 5.2490 0.0000 0.0000 0.0000
# 2 99.7757 167.9192 5.2490 0.0000 0.0000 0.0000
# 3 5.2490 5.2490 1.3642 0.0000 0.0000 0.0000
# 4 0.0000 0.0000 0.0000 11.2038 0.0000 0.0000
# 5 0.0000 0.0000 0.0000 0.0000 11.2038 0.0000
# 6 0.0000 0.0000 0.0000 0.0000 0.0000 18.6196
#
#
#
# Elastic Compliance Matrix: (Units=1/GPa)
#
#
# Indices 1 2 3 4 5 6 
#
# 1 0.009537 -0.005138 -0.016927 0.000000 0.000000 0.000000
# 2 -0.005138 0.009537 -0.016927 0.000000 0.000000 0.000000
# 3 -0.016927 -0.016927 0.863260 0.000000 0.000000 0.000000
# 4 0.000000 0.000000 0.000000 0.089255 0.000000 0.000000
# 5 0.000000 0.000000 0.000000 0.000000 0.089255 0.000000
# 6 0.000000 0.000000 0.000000 0.000000 0.000000 0.053707
#
#
# Mechanical properties :
#
#
# Convention : Reuss Voigt Hill
#
# Bulk Modulus (GPa) = 1.24324 61.97225 31.60774
# Shear Modulus (GPa) = 3.42313 23.33404 13.37858
#
# Velocity S-wave (km/s) = 1.36590 3.56616 2.70029
# Velocity P-wave (km/s) = 1.77909 7.12269 5.19124
#
# Compressibility (1/GPa) = 0.80435083
#
# Stress axis : x y z
#
# Youngs Moduli (GPa) = 104.85302 104.85302 1.15840
#
# Poissons Ratio (x) = 0.53871 0.01961
# Poissons Ratio (y) = 0.53871 0.01961
# Poissons Ratio (z) = 1.77485 1.77485
#
# Static dielectric constant tensor:
#      x y z
#    x 3.776320 0.000000 0.000000 
#    y 0.000000 3.776320 0.000000 
#    z 0.000000 0.000000 2.618170 
# 
# 
# High freq. dielectric constant tensor:
#      x y z
#    x 1.720790 0.000000 0.000000 
#    y 0.000000 1.720790 0.000000 
#    z 0.000000 0.000000 1.636100 
# 
# From -- ./inp_files/1655.got.cif
#   From: 2010.03.12/outbox.cif.g09.slc.cpg/sg123_1_cif.got.tgz:1655.got - 2010.04.06 16:26:55.
