data_PCOD8312460
_publ_section_title
;
Structure prediction by ZEFSAII (Michael W. Deem and Ramdas Pophale) SiO2 
 PCOD8312460
Probable space group: P 4/M M M
;
_chemical_formula_sum "Si O2"
_cell_formula_units_Z 88
_cell_length_a 13.521142
_cell_length_b 13.521142
_cell_length_c 28.387457
_cell_angle_alpha 90.000000
_cell_angle_beta 90.000000
_cell_angle_gamma 90.000000
_cell_volume 5189.831253
_symmetry_space_group_name_H-M "P 4/M M M"
_symmetry_group_IT_number 123
_symmetry_cell_setting 'tetragonal'
loop_
_space_group_symop_operation_xyz
x,y,z
-y,x,z
-x,-y,z
y,-x,z
x,-y,-z
-x,y,-z
y,x,-z
-y,-x,-z
-x,-y,-z
y,-x,-z
x,y,-z
-y,x,-z
-x,y,z
x,-y,z
-y,-x,z
y,x,z
loop_
_atom_site_type_symbol
_atom_site_label
_atom_site_fract_x
_atom_site_fract_y
_atom_site_fract_z
Si Si1 0.117030 0.610347 0.907181
Si Si2 0.613609 0.227080 0.552454
Si Si3 0.617129 0.108918 0.358714
Si Si4 0.883485 0.722869 0.186101
Si Si5 0.776238 0.383487 0.733413
Si Si6 0.116850 0.724556 0.000000
O O1 0.163244 0.500000 0.904795
O O2 0.152234 0.673912 0.862629
O O3 0.000000 0.601814 0.907071
O O4 0.152725 0.663226 0.954708
O O5 0.628132 0.181412 0.500000
O O6 0.500000 0.252514 0.562573
O O7 0.669909 0.330092 0.557503
O O8 0.654520 0.149972 0.590946
O O9 0.500000 0.100270 0.358482
O O10 0.651114 0.180528 0.316800
O O11 0.663975 0.000000 0.351661
O O12 0.826493 0.826493 0.193011
O O13 0.856513 0.646065 0.227316
O O14 0.000000 0.745086 0.186829
O O15 0.755513 0.500000 0.735718
O O16 0.672908 0.327093 0.742058
O O17 0.168796 0.831205 0.000000
O O18 0.000000 0.744342 0.000000
#
# Coordination Sequence:
#
# PCOD8312460 Si02
#       6
#    16  16  16  16  16   8
#     4   9  17  30  48  68  91 121 157 198 242 284
#     4   9  17  28  42  62  89 120 153 189 230 278
#     4   9  17  29  45  64  87 117 152 189 230 276
#     4  10  20  33  50  73 100 130 164 200 239 286
#     4  10  20  33  50  72  97 126 160 197 239 287
#     4  10  19  30  45  67  96 128 161 197 240 291
#
# _framework density 16.956235
#
# number of rings (size 3 to 8) (size 9 to 14) (size 15 to 20)
#    0.000    2.545    0.000    2.455    0.000    3.909 
#    0.000    2.727    0.000    6.545    0.000    0.000 
#    0.000   17.091    0.000    8.000    0.000    0.727 
#
# Total GULP energy -1091079.150616 kJ/mol
# GULP energy per Si atom -12398.626712 kJ/mol
# Density = 1.691764 g / cm^3
# Si number density = 16.956235 Si / 1000 Ang^3
#
#
#
# Elastic Constant Matrix: (Units=GPa)
#
#
# Indices 1 2 3 4 5 6 
#
# 1 79.1645 37.6372 37.6238 0.0000 0.0000 0.0000
# 2 37.6372 79.1636 37.6237 0.0000 0.0000 0.0000
# 3 37.6238 37.6237 133.2435 0.0000 0.0000 0.0000
# 4 0.0000 0.0000 0.0000 24.9827 0.0000 0.0000
# 5 0.0000 0.0000 0.0000 0.0000 24.9828 0.0000
# 6 0.0000 0.0000 0.0000 0.0000 0.0000 14.4392
#
#
#
# Elastic Compliance Matrix: (Units=1/GPa)
#
#
# Indices 1 2 3 4 5 6 
#
# 1 0.017273 -0.006808 -0.002955 0.000000 0.000000 0.000000
# 2 -0.006808 0.017273 -0.002955 0.000000 0.000000 0.000000
# 3 -0.002955 -0.002955 0.009174 0.000000 0.000000 0.000000
# 4 0.000000 0.000000 0.000000 0.040028 0.000000 0.000000
# 5 0.000000 0.000000 0.000000 0.000000 0.040028 0.000000
# 6 0.000000 0.000000 0.000000 0.000000 0.000000 0.069256
#
#
# Mechanical properties :
#
#
# Convention : Reuss Voigt Hill
#
# Bulk Modulus (GPa) = 54.69192 57.48232 56.08712
# Shear Modulus (GPa) = 22.26558 24.79340 23.52949
#
# Velocity S-wave (km/s) = 3.62763 3.82802 3.72917
# Velocity P-wave (km/s) = 7.06194 7.31521 7.18969
#
# Compressibility (1/GPa) = 0.01828424
#
# Stress axis : x y z
#
# Youngs Moduli (GPa) = 57.89397 57.89326 109.00492
#
# Poissons Ratio (x) = 0.39412 0.32212
# Poissons Ratio (y) = 0.39413 0.32212
# Poissons Ratio (z) = 0.17108 0.17108
#
# Static dielectric constant tensor:
#      x y z
#    x 3.000440 0.000000 0.000000 
#    y 0.000000 3.000440 0.000000 
#    z 0.000000 0.000000 3.503110 
# 
# 
# High freq. dielectric constant tensor:
#      x y z
#    x 1.632670 0.000000 0.000000 
#    y 0.000000 1.632670 0.000000 
#    z 0.000000 0.000000 1.676310 
# 
# From -- ./inp_files/8496.got.cif
#   From: 2010.03.12/outbox.cif.g09.slc.cpg/sg123_5_cif.got.tgz:8496.got - 2010.04.06 16:26:55.
