data_PCOD8312286
_publ_section_title
;
Structure prediction by ZEFSAII (Michael W. Deem and Ramdas Pophale) SiO2 
 PCOD8312286
Probable space group: P 4/M M M
;
_chemical_formula_sum "Si O2"
_cell_formula_units_Z 96
_cell_length_a 20.912490
_cell_length_b 20.912490
_cell_length_c 11.702443
_cell_angle_alpha 90.000000
_cell_angle_beta 90.000000
_cell_angle_gamma 90.000000
_cell_volume 5117.855587
_symmetry_space_group_name_H-M "P 4/M M M"
_symmetry_group_IT_number 123
_symmetry_cell_setting 'tetragonal'
loop_
_space_group_symop_operation_xyz
x,y,z
-y,x,z
-x,-y,z
y,-x,z
x,-y,-z
-x,y,-z
y,x,-z
-y,-x,-z
-x,-y,-z
y,-x,-z
x,y,-z
-y,x,-z
-x,y,z
x,-y,z
-y,-x,z
y,x,z
loop_
_atom_site_type_symbol
_atom_site_label
_atom_site_fract_x
_atom_site_fract_y
_atom_site_fract_z
Si Si1 0.571678 0.930425 0.135468
Si Si2 0.201726 0.630573 0.864391
Si Si3 0.842175 0.258443 0.268133
Si Si4 0.823090 0.927971 0.868665
Si Si5 0.805915 0.303173 0.500000
Si Si6 0.271764 0.428107 0.500000
Si Si7 0.572824 0.323645 0.253544
O O1 0.500000 0.925925 0.183556
O O2 0.609231 0.868696 0.181719
O O3 0.601266 0.000000 0.172745
O O4 0.570636 0.926285 0.000000
O O5 0.205128 0.702184 0.816215
O O6 0.257311 0.587530 0.810906
O O7 0.208986 0.628338 0.000000
O O8 0.807958 0.192043 0.294881
O O9 0.908375 0.239284 0.206068
O O10 0.851045 0.293661 0.389485
O O11 0.884835 0.884835 0.843179
O O12 0.842325 0.000000 0.837328
O O13 0.801686 0.921396 0.000000
O O14 0.743202 0.256799 0.500000
O O15 0.784722 0.376771 0.500000
O O16 0.242265 0.500000 0.500000
O O17 0.315619 0.418062 0.388913
O O18 0.500000 0.343341 0.224071
O O19 0.620409 0.379592 0.210367
#
# Coordination Sequence:
#
# PCOD8312286 Si02
#       7
#    16  16  16  16   8   8  16
#     4   8  15  29  47  67  94 127 162 201 245 297
#     4  11  21  32  51  79 109 139 175 220 273 334
#     4  10  20  33  52  77 105 136 174 223 279 332
#     4   9  18  33  53  80 116 155 194 235 278 327
#     4  10  18  34  57  77 103 137 172 216 276 342
#     4  10  20  36  59  84 107 133 174 229 284 340
#     4  11  23  38  57  80 107 141 183 233 287 344
#
# _framework density 18.757857000000001
#
# number of rings (size 3 to 8) (size 9 to 14) (size 15 to 20)
#    0.000    2.167    1.667    2.750    0.000    4.000 
#    0.000    2.917    0.000    1.500    0.000    1.750 
#    0.000    8.667    0.000    0.000    0.000    0.000 
#
# Total GULP energy -1189704.376446 kJ/mol
# GULP energy per Si atom -12392.753921 kJ/mol
# Density = 1.871516 g / cm^3
# Si number density = 18.757857 Si / 1000 Ang^3
#
#
#
# Elastic Constant Matrix: (Units=GPa)
#
#
# Indices 1 2 3 4 5 6 
#
# 1 111.1116 49.0938 44.6549 0.0000 0.0000 0.0000
# 2 49.0938 111.1117 44.6550 0.0000 0.0000 0.0000
# 3 44.6549 44.6550 85.2645 0.0000 0.0000 0.0000
# 4 0.0000 0.0000 0.0000 22.5164 0.0000 0.0000
# 5 0.0000 0.0000 0.0000 0.0000 22.5165 0.0000
# 6 0.0000 0.0000 0.0000 0.0000 0.0000 24.3798
#
#
#
# Elastic Compliance Matrix: (Units=1/GPa)
#
#
# Indices 1 2 3 4 5 6 
#
# 1 0.012470 -0.003654 -0.004617 0.000000 0.000000 0.000000
# 2 -0.003654 0.012470 -0.004617 0.000000 0.000000 0.000000
# 3 -0.004617 -0.004617 0.016564 0.000000 0.000000 0.000000
# 4 0.000000 0.000000 0.000000 0.044412 0.000000 0.000000
# 5 0.000000 0.000000 0.000000 0.000000 0.044412 0.000000
# 6 0.000000 0.000000 0.000000 0.000000 0.000000 0.041018
#
#
# Mechanical properties :
#
#
# Convention : Reuss Voigt Hill
#
# Bulk Modulus (GPa) = 63.58169 64.92167 64.25168
# Shear Modulus (GPa) = 24.70779 25.15484 24.93131
#
# Velocity S-wave (km/s) = 3.63326 3.66598 3.64966
# Velocity P-wave (km/s) = 7.18125 7.25291 7.21717
#
# Compressibility (1/GPa) = 0.01572780
#
# Stress axis : x y z
#
# Youngs Moduli (GPa) = 80.19169 80.19161 60.37072
#
# Poissons Ratio (x) = 0.29304 0.27873
# Poissons Ratio (y) = 0.29304 0.27874
# Poissons Ratio (z) = 0.37025 0.37025
#
# Static dielectric constant tensor:
#      x y z
#    x 3.498590 0.000000 0.000000 
#    y 0.000000 3.498590 0.000000 
#    z 0.000000 0.000000 3.425160 
# 
# 
# High freq. dielectric constant tensor:
#      x y z
#    x 1.722410 0.000000 0.000000 
#    y 0.000000 1.722410 0.000000 
#    z 0.000000 0.000000 1.709770 
# 
# From -- ./inp_files/3179.got.cif
#   From: 2010.03.12/outbox.cif.g09.slc.cpg/sg123_2_cif.got.tgz:3179.got - 2010.04.06 16:26:55.
