data_PCOD8312649
_publ_section_title
;
Structure prediction by ZEFSAII (Michael W. Deem and Ramdas Pophale) SiO2 
 PCOD8312649
Probable space group: P 4/M M M
;
_chemical_formula_sum "Si O2"
_cell_formula_units_Z 96
_cell_length_a 23.793400
_cell_length_b 23.793400
_cell_length_c 9.296126
_cell_angle_alpha 90.000000
_cell_angle_beta 90.000000
_cell_angle_gamma 90.000000
_cell_volume 5262.777545
_symmetry_space_group_name_H-M "P 4/M M M"
_symmetry_group_IT_number 123
_symmetry_cell_setting 'tetragonal'
loop_
_space_group_symop_operation_xyz
x,y,z
-y,x,z
-x,-y,z
y,-x,z
x,-y,-z
-x,y,-z
y,x,-z
-y,-x,-z
-x,-y,-z
y,-x,-z
x,y,-z
-y,x,-z
-x,y,z
x,-y,z
-y,-x,z
y,x,z
loop_
_atom_site_type_symbol
_atom_site_label
_atom_site_fract_x
_atom_site_fract_y
_atom_site_fract_z
Si Si1 0.378670 0.751110 0.669638
Si Si2 0.065206 0.221126 0.168298
Si Si3 0.747637 0.252364 0.669796
Si Si4 0.066077 0.651654 0.160142
Si Si5 0.436572 0.652459 0.164689
Si Si6 0.436649 0.864464 0.330170
Si Si7 0.837578 0.837578 0.327733
O O1 0.380061 0.741214 0.500000
O O2 0.315103 0.763384 0.722495
O O3 0.401124 0.695374 0.741850
O O4 0.417778 0.802525 0.718036
O O5 0.080851 0.285229 0.211673
O O6 0.101718 0.179195 0.265487
O O7 0.000000 0.208890 0.201817
O O8 0.077669 0.211194 0.000000
O O9 0.750835 0.249166 0.500000
O O10 0.792224 0.207777 0.731719
O O11 0.090258 0.605469 0.266503
O O12 0.000000 0.643795 0.158511
O O13 0.090309 0.641680 0.000000
O O14 0.500000 0.648650 0.223023
O O15 0.408978 0.591023 0.180276
O O16 0.435247 0.672912 0.000000
O O17 0.433621 0.870666 0.500000
O O18 0.500000 0.874928 0.273880
O O19 0.840485 0.840485 0.500000
#
# Coordination Sequence:
#
# PCOD8312649 Si02
#       7
#    16  16   8  16  16  16   8
#     4  10  19  35  55  74 100 135 171 209 259 318
#     4   9  19  37  58  80 111 149 185 222 268 320
#     4   9  18  31  51  79 107 133 165 212 266 313
#     4   9  19  36  56  77 103 139 183 228 270 311
#     4  10  21  36  53  74  99 127 163 208 258 313
#     4  10  21  34  49  73 105 140 176 217 270 329
#     4  11  21  33  55  88 118 144 180 223 265 313
#
# _framework density 18.241318
#
# number of rings (size 3 to 8) (size 9 to 14) (size 15 to 20)
#    0.000    2.333    0.833    2.750    0.000    5.167 
#    0.000    5.833    0.000    0.250    0.000    2.917 
#    0.000    0.000    0.000    0.000    0.000    0.000 
#
# Total GULP energy -1190423.449954 kJ/mol
# GULP energy per Si atom -12400.244270 kJ/mol
# Density = 1.819980 g / cm^3
# Si number density = 18.241318 Si / 1000 Ang^3
#
#
#
# Elastic Constant Matrix: (Units=GPa)
#
#
# Indices 1 2 3 4 5 6 
#
# 1 100.5552 59.5670 40.0738 0.0000 0.0000 0.0000
# 2 59.5670 100.5552 40.0737 0.0000 0.0000 0.0000
# 3 40.0738 40.0737 43.1716 0.0000 0.0000 0.0000
# 4 0.0000 0.0000 0.0000 27.5418 0.0000 0.0000
# 5 0.0000 0.0000 0.0000 0.0000 27.5418 0.0000
# 6 0.0000 0.0000 0.0000 0.0000 0.0000 30.6182
#
#
#
# Elastic Compliance Matrix: (Units=1/GPa)
#
#
# Indices 1 2 3 4 5 6 
#
# 1 0.018031 -0.006366 -0.010828 0.000000 0.000000 0.000000
# 2 -0.006366 0.018031 -0.010828 0.000000 0.000000 0.000000
# 3 -0.010828 -0.010828 0.043265 0.000000 0.000000 0.000000
# 4 0.000000 0.000000 0.000000 0.036308 0.000000 0.000000
# 5 0.000000 0.000000 0.000000 0.000000 0.036308 0.000000
# 6 0.000000 0.000000 0.000000 0.000000 0.000000 0.032660
#
#
# Mechanical properties :
#
#
# Convention : Reuss Voigt Hill
#
# Bulk Modulus (GPa) = 42.94888 58.19011 50.56949
# Shear Modulus (GPa) = 20.12797 24.11152 22.11975
#
# Velocity S-wave (km/s) = 3.32539 3.63961 3.48604
# Velocity P-wave (km/s) = 6.19195 7.04498 6.63220
#
# Compressibility (1/GPa) = 0.02328350
#
# Stress axis : x y z
#
# Youngs Moduli (GPa) = 55.45941 55.45960 23.11312
#
# Poissons Ratio (x) = 0.35306 0.25027
# Poissons Ratio (y) = 0.35306 0.25027
# Poissons Ratio (z) = 0.60052 0.60052
#
# Static dielectric constant tensor:
#      x y z
#    x 3.395920 0.000000 0.000000 
#    y 0.000000 3.395930 0.000000 
#    z 0.000000 0.000000 3.318820 
# 
# 
# High freq. dielectric constant tensor:
#      x y z
#    x 1.708470 0.000000 0.000000 
#    y 0.000000 1.708470 0.000000 
#    z 0.000000 0.000000 1.693290 
# 
# From -- ./inp_files/1672.got.cif
#   From: 2010.03.12/outbox.cif.g09.slc.cpg/sg123_1_cif.got.tgz:1672.got - 2010.04.06 16:26:55.
