data_PCOD8312237
_publ_section_title
;
Structure prediction by ZEFSAII (Michael W. Deem and Ramdas Pophale) SiO2 
 PCOD8312237
Probable space group: P 4/M M M
;
_chemical_formula_sum "Si O2"
_cell_formula_units_Z 96
_cell_length_a 17.810559
_cell_length_b 17.810559
_cell_length_c 18.834263
_cell_angle_alpha 90.000000
_cell_angle_beta 90.000000
_cell_angle_gamma 90.000000
_cell_volume 5974.529796
_symmetry_space_group_name_H-M "P 4/M M M"
_symmetry_group_IT_number 123
_symmetry_cell_setting 'tetragonal'
loop_
_space_group_symop_operation_xyz
x,y,z
-y,x,z
-x,-y,z
y,-x,z
x,-y,-z
-x,y,-z
y,x,-z
-y,-x,-z
-x,-y,-z
y,-x,-z
x,y,-z
-y,x,-z
-x,y,z
x,-y,z
-y,-x,z
y,x,z
loop_
_atom_site_type_symbol
_atom_site_label
_atom_site_fract_x
_atom_site_fract_y
_atom_site_fract_z
Si Si1 0.706382 0.585611 0.582021
Si Si2 0.084379 0.203566 0.147092
Si Si3 0.318224 0.803323 0.684192
Si Si4 0.916086 0.200618 0.313822
Si Si5 0.415319 0.913402 0.222121
Si Si6 0.646305 0.912239 0.922785
O O1 0.729890 0.589526 0.500000
O O2 0.696524 0.500000 0.607698
O O3 0.627311 0.627311 0.595290
O O4 0.772714 0.625020 0.625370
O O5 0.131112 0.131112 0.125637
O O6 0.087604 0.221245 0.230704
O O7 0.119408 0.274419 0.105851
O O8 0.000000 0.186397 0.123135
O O9 0.265405 0.734596 0.715061
O O10 0.262969 0.864496 0.647220
O O11 0.365865 0.847963 0.742932
O O12 0.882538 0.117463 0.326852
O O13 0.000000 0.202420 0.344532
O O14 0.500000 0.907091 0.250676
O O15 0.416138 0.896610 0.137356
O O16 0.385267 0.000000 0.236218
O O17 0.655629 0.000000 0.933359
O O18 0.625438 0.876038 0.000000
#
# Coordination Sequence:
#
# PCOD8312237 Si02
#       6
#    16  16  16  16  16  16
#     4   9  18  32  50  73  99 125 151 178 211 255
#     4   9  16  26  39  56  80 110 146 186 225 267
#     4  10  18  29  47  68  93 121 149 182 219 268
#     4   9  16  26  42  62  85 115 151 190 228 265
#     4  10  19  30  46  66  87 115 152 192 233 275
#     4   9  17  28  40  55  78 108 143 185 231 275
#
# _framework density 16.068211000000002
#
# number of rings (size 3 to 8) (size 9 to 14) (size 15 to 20)
#    0.000    2.667    1.667    1.000    0.000    1.167 
#    0.000    4.167    0.000    2.000    0.000    8.167 
#    0.000    0.000    0.000    6.500    0.000    0.167 
#
# Total GULP energy -1189265.762261 kJ/mol
# GULP energy per Si atom -12388.185024 kJ/mol
# Density = 1.603164 g / cm^3
# Si number density = 16.068211 Si / 1000 Ang^3
#
#
#
# Elastic Constant Matrix: (Units=GPa)
#
#
# Indices 1 2 3 4 5 6 
#
# 1 99.2869 51.8255 38.5872 0.0000 0.0000 0.0000
# 2 51.8255 99.2869 38.5872 0.0000 0.0000 0.0000
# 3 38.5872 38.5872 46.2352 0.0000 0.0000 0.0000
# 4 0.0000 0.0000 0.0000 18.4597 0.0000 0.0000
# 5 0.0000 0.0000 0.0000 0.0000 18.4597 0.0000
# 6 0.0000 0.0000 0.0000 0.0000 0.0000 22.7524
#
#
#
# Elastic Compliance Matrix: (Units=1/GPa)
#
#
# Indices 1 2 3 4 5 6 
#
# 1 0.016302 -0.004768 -0.009626 0.000000 0.000000 0.000000
# 2 -0.004768 0.016302 -0.009626 0.000000 0.000000 0.000000
# 3 -0.009626 -0.009626 0.037696 0.000000 0.000000 0.000000
# 4 0.000000 0.000000 0.000000 0.054172 0.000000 0.000000
# 5 0.000000 0.000000 0.000000 0.000000 0.054172 0.000000
# 6 0.000000 0.000000 0.000000 0.000000 0.000000 0.043951
#
#
# Mechanical properties :
#
#
# Convention : Reuss Voigt Hill
#
# Bulk Modulus (GPa) = 44.92424 55.86767 50.39596
# Shear Modulus (GPa) = 17.98216 19.65496 18.81856
#
# Velocity S-wave (km/s) = 3.34895 3.50125 3.42594
# Velocity P-wave (km/s) = 6.55539 7.15469 6.86158
#
# Compressibility (1/GPa) = 0.02225970
#
# Stress axis : x y z
#
# Youngs Moduli (GPa) = 61.34346 61.34346 26.52835
#
# Poissons Ratio (x) = 0.29249 0.25535
# Poissons Ratio (y) = 0.29249 0.25535
# Poissons Ratio (z) = 0.59048 0.59048
#
# Static dielectric constant tensor:
#      x y z
#    x 3.090690 0.000000 0.000000 
#    y 0.000000 3.090690 0.000000 
#    z 0.000000 0.000000 2.930710 
# 
# 
# High freq. dielectric constant tensor:
#      x y z
#    x 1.613340 0.000000 0.000000 
#    y 0.000000 1.613340 0.000000 
#    z 0.000000 0.000000 1.583760 
# 
# From -- ./inp_files/5456.got.cif
#   From: 2010.03.12/outbox.cif.g09.slc.cpg/sg123_3_cif.got.tgz:5456.got - 2010.04.06 16:26:55.
