data_PCOD8312958
_publ_section_title
;
Structure prediction by ZEFSAII (Michael W. Deem and Ramdas Pophale) SiO2 
 PCOD8312958
Probable space group: P 4/M M M
;
_chemical_formula_sum "Si O2"
_cell_formula_units_Z 56
_cell_length_a 18.188641
_cell_length_b 18.188641
_cell_length_c 8.593127
_cell_angle_alpha 90.000000
_cell_angle_beta 90.000000
_cell_angle_gamma 90.000000
_cell_volume 2842.835517
_symmetry_space_group_name_H-M "P 4/M M M"
_symmetry_group_IT_number 123
_symmetry_cell_setting 'tetragonal'
loop_
_space_group_symop_operation_xyz
x,y,z
-y,x,z
-x,-y,z
y,-x,z
x,-y,-z
-x,y,-z
y,x,-z
-y,-x,-z
-x,-y,-z
y,-x,-z
x,y,-z
-y,x,-z
-x,y,z
x,-y,z
-y,-x,z
y,x,z
loop_
_atom_site_type_symbol
_atom_site_label
_atom_site_fract_x
_atom_site_fract_y
_atom_site_fract_z
Si Si1 0.000000 0.583641 0.316104
Si Si2 0.196774 0.803227 0.314619
Si Si3 0.418529 0.698445 0.184648
Si Si4 0.918979 0.918979 0.315062
Si Si5 0.648191 0.850248 0.816126
O O1 0.073206 0.622746 0.256061
O O2 0.000000 0.500000 0.255735
O O3 0.000000 0.588214 0.500000
O O4 0.200743 0.799258 0.500000
O O5 0.138527 0.861474 0.248959
O O6 0.272844 0.829131 0.245896
O O7 0.500000 0.676125 0.243928
O O8 0.358121 0.641880 0.256553
O O9 0.404120 0.782658 0.236077
O O10 0.414183 0.693454 0.000000
O O11 0.918216 0.918216 0.500000
O O12 0.000000 0.897372 0.254282
O O13 0.649572 0.859381 0.000000
#
# Coordination Sequence:
#
# PCOD8312958 Si02
#       5
#     8   8  16   8  16
#     4  11  25  43  63  91 124 157 200 253 311 380
#     4  11  22  35  58  88 119 157 201 250 303 356
#     4   9  17  31  53  82 116 151 191 242 297 354
#     4   8  16  32  53  78 108 143 184 231 285 348
#     4  11  22  39  60  86 121 161 204 249 302 367
#
# _framework density 19.698643000000001
#
# number of rings (size 3 to 8) (size 9 to 14) (size 15 to 20)
#    0.000    2.000    1.429    3.000    2.000    2.571 
#    0.000    1.429    0.000    0.000    0.000    4.000 
#    0.000    1.143    0.000    0.000    0.000    0.000 
#
# Total GULP energy -694201.850215 kJ/mol
# GULP energy per Si atom -12396.461611 kJ/mol
# Density = 1.965381 g / cm^3
# Si number density = 19.698643 Si / 1000 Ang^3
#
#
#
# Elastic Constant Matrix: (Units=GPa)
#
#
# Indices 1 2 3 4 5 6 
#
# 1 163.8751 95.6494 25.1920 0.0000 0.0000 0.0000
# 2 95.6494 163.8752 25.1921 0.0000 0.0000 0.0000
# 3 25.1920 25.1921 34.9692 0.0000 0.0000 0.0000
# 4 0.0000 0.0000 0.0000 26.0273 0.0000 0.0000
# 5 0.0000 0.0000 0.0000 0.0000 26.0274 0.0000
# 6 0.0000 0.0000 0.0000 0.0000 0.0000 37.4184
#
#
#
# Elastic Compliance Matrix: (Units=1/GPa)
#
#
# Indices 1 2 3 4 5 6 
#
# 1 0.009568 -0.005089 -0.003227 0.000000 0.000000 0.000000
# 2 -0.005089 0.009568 -0.003227 0.000000 0.000000 0.000000
# 3 -0.003227 -0.003227 0.033246 0.000000 0.000000 0.000000
# 4 0.000000 0.000000 0.000000 0.038421 0.000000 0.000000
# 5 0.000000 0.000000 0.000000 0.000000 0.038421 0.000000
# 6 0.000000 0.000000 0.000000 0.000000 0.000000 0.026725
#
#
# Mechanical properties :
#
#
# Convention : Reuss Voigt Hill
#
# Bulk Modulus (GPa) = 34.13317 72.75405 53.44361
# Shear Modulus (GPa) = 26.48268 32.34035 29.41151
#
# Velocity S-wave (km/s) = 3.67057 4.05625 3.86822
# Velocity P-wave (km/s) = 5.94386 7.67798 6.86588
#
# Compressibility (1/GPa) = 0.02929701
#
# Stress axis : x y z
#
# Youngs Moduli (GPa) = 104.50985 104.50990 30.07836
#
# Poissons Ratio (x) = 0.53182 0.09707
# Poissons Ratio (y) = 0.53182 0.09707
# Poissons Ratio (z) = 0.33728 0.33728
#
# Static dielectric constant tensor:
#      x y z
#    x 3.898860 0.000000 0.000000 
#    y 0.000000 3.898860 0.000000 
#    z 0.000000 0.000000 3.286490 
# 
# 
# High freq. dielectric constant tensor:
#      x y z
#    x 1.784640 0.000000 0.000000 
#    y 0.000000 1.784640 0.000000 
#    z 0.000000 0.000000 1.733550 
# 
# From -- ./inp_files/632.got.cif
#   From: 2010.03.12/outbox.cif.g09.slc.cpg/sg123_1_cif.got.tgz:632.got - 2010.04.06 16:26:55.
