data_PCOD8312326
_publ_section_title
;
Structure prediction by ZEFSAII (Michael W. Deem and Ramdas Pophale) SiO2 
 PCOD8312326
Probable space group: P 4/M M M
;
_chemical_formula_sum "Si O2"
_cell_formula_units_Z 72
_cell_length_a 14.019590
_cell_length_b 14.019590
_cell_length_c 23.436329
_cell_angle_alpha 90.000000
_cell_angle_beta 90.000000
_cell_angle_gamma 90.000000
_cell_volume 4606.384773
_symmetry_space_group_name_H-M "P 4/M M M"
_symmetry_group_IT_number 123
_symmetry_cell_setting 'tetragonal'
loop_
_space_group_symop_operation_xyz
x,y,z
-y,x,z
-x,-y,z
y,-x,z
x,-y,-z
-x,y,-z
y,x,-z
-y,-x,-z
-x,-y,-z
y,-x,-z
x,y,-z
-y,x,-z
-x,y,z
x,-y,z
-y,-x,z
y,x,z
loop_
_atom_site_type_symbol
_atom_site_label
_atom_site_fract_x
_atom_site_fract_y
_atom_site_fract_z
Si Si1 0.886947 0.395747 0.500000
Si Si2 0.387016 0.233456 0.272294
Si Si3 0.105965 0.387125 0.833511
Si Si4 0.893175 0.613950 0.622314
Si Si5 0.764212 0.390429 0.935509
O O1 0.838189 0.500000 0.500000
O O2 0.858682 0.344293 0.439931
O O3 0.000000 0.407692 0.500000
O O4 0.500000 0.251856 0.271317
O O5 0.335553 0.335553 0.269319
O O6 0.352165 0.169572 0.219277
O O7 0.352291 0.179438 0.329235
O O8 0.097311 0.500000 0.831337
O O9 0.153544 0.354010 0.892951
O O10 0.000000 0.341859 0.829588
O O11 0.895168 0.500000 0.618793
O O12 0.000000 0.650622 0.637280
O O13 0.737812 0.500000 0.922932
O O14 0.667917 0.332084 0.924697
O O15 0.802332 0.376630 0.000000
#
# Coordination Sequence:
#
# PCOD8312326 Si02
#       5
#     8  16  16  16  16
#     4   7  10  18  35  58  79  99 127 165 209 251
#     4  10  19  29  41  58  82 112 143 171 199 237
#     4   9  17  29  44  60  78 102 134 174 218 255
#     4   8  13  23  40  60  80 102 131 170 213 248
#     4   9  17  28  42  62  89 119 147 171 194 227
#
# _framework density 15.630478999999999
#
# number of rings (size 3 to 8) (size 9 to 14) (size 15 to 20)
#    0.000    3.222    0.000    2.667    0.000    3.556 
#    0.000    3.889    0.000    4.000    0.000    0.000 
#    0.000   25.333    0.000    9.778    0.000   25.778 
#
# Total GULP energy -892079.784388 kJ/mol
# GULP energy per Si atom -12389.997005 kJ/mol
# Density = 1.559490 g / cm^3
# Si number density = 15.630479 Si / 1000 Ang^3
#
#
#
# Elastic Constant Matrix: (Units=GPa)
#
#
# Indices 1 2 3 4 5 6 
#
# 1 58.6214 33.2132 45.6889 0.0000 0.0000 0.0000
# 2 33.2132 58.6214 45.6889 0.0000 0.0000 0.0000
# 3 45.6889 45.6889 141.7240 0.0000 0.0000 0.0000
# 4 0.0000 0.0000 0.0000 15.3599 0.0000 0.0000
# 5 0.0000 0.0000 0.0000 0.0000 15.3599 0.0000
# 6 0.0000 0.0000 0.0000 0.0000 0.0000 3.9815
#
#
#
# Elastic Compliance Matrix: (Units=1/GPa)
#
#
# Indices 1 2 3 4 5 6 
#
# 1 0.027695 -0.011663 -0.005168 0.000000 0.000000 0.000000
# 2 -0.011663 0.027695 -0.005168 0.000000 0.000000 0.000000
# 3 -0.005168 -0.005168 0.010388 0.000000 0.000000 0.000000
# 4 0.000000 0.000000 0.000000 0.065105 0.000000 0.000000
# 5 0.000000 0.000000 0.000000 0.000000 0.065105 0.000000
# 6 0.000000 0.000000 0.000000 0.000000 0.000000 0.251161
#
#
# Mechanical properties :
#
#
# Convention : Reuss Voigt Hill
#
# Bulk Modulus (GPa) = 45.91676 56.46098 51.18887
# Shear Modulus (GPa) = 10.03198 15.89864 12.96531
#
# Velocity S-wave (km/s) = 2.53617 3.19275 2.88321
# Velocity P-wave (km/s) = 6.16574 7.05637 6.62604
#
# Compressibility (1/GPa) = 0.02177854
#
# Stress axis : x y z
#
# Youngs Moduli (GPa) = 36.10820 36.10820 96.26236
#
# Poissons Ratio (x) = 0.42112 0.49751
# Poissons Ratio (y) = 0.42112 0.49751
# Poissons Ratio (z) = 0.18662 0.18662
#
# Static dielectric constant tensor:
#      x y z
#    x 2.676480 0.000000 0.000000 
#    y 0.000000 2.676480 0.000000 
#    z 0.000000 0.000000 3.504110 
# 
# 
# High freq. dielectric constant tensor:
#      x y z
#    x 1.556810 0.000000 0.000000 
#    y 0.000000 1.556810 0.000000 
#    z 0.000000 0.000000 1.629080 
# 
# From -- ./inp_files/7827.got.cif
#   From: 2010.03.12/outbox.cif.g09.slc.cpg/sg123_4_cif.got.tgz:7827.got - 2010.04.06 16:26:55.
