data_PCOD8312184
_publ_section_title
;
Structure prediction by ZEFSAII (Michael W. Deem and Ramdas Pophale) SiO2 
 PCOD8312184
Probable space group: P 4/M M M
;
_chemical_formula_sum "Si O2"
_cell_formula_units_Z 64
_cell_length_a 19.154575
_cell_length_b 19.154575
_cell_length_c 11.937632
_cell_angle_alpha 90.000000
_cell_angle_beta 90.000000
_cell_angle_gamma 90.000000
_cell_volume 4379.890243
_symmetry_space_group_name_H-M "P 4/M M M"
_symmetry_group_IT_number 123
_symmetry_cell_setting 'tetragonal'
loop_
_space_group_symop_operation_xyz
x,y,z
-y,x,z
-x,-y,z
y,-x,z
x,-y,-z
-x,y,-z
y,x,-z
-y,-x,-z
-x,-y,-z
y,-x,-z
x,y,-z
-y,x,-z
-x,y,z
x,-y,z
-y,-x,z
y,x,z
loop_
_atom_site_type_symbol
_atom_site_label
_atom_site_fract_x
_atom_site_fract_y
_atom_site_fract_z
Si Si1 0.918200 0.365251 0.236956
Si Si2 0.688500 0.197633 0.371388
Si Si3 0.918328 0.500000 0.622964
Si Si4 0.082295 0.422068 0.000000
Si Si5 0.578359 0.312255 0.366965
O O1 0.870601 0.304625 0.291316
O O2 0.896273 0.432735 0.308037
O O3 0.895432 0.378244 0.108909
O O4 0.000000 0.346261 0.247267
O O5 0.679209 0.173728 0.500000
O O6 0.759636 0.240365 0.357221
O O7 0.622602 0.244312 0.331287
O O8 0.881507 0.500000 0.500000
O O9 0.000000 0.500000 0.605662
O O10 0.115976 0.500000 0.000000
O O11 0.000000 0.432631 0.000000
O O12 0.575348 0.315268 0.500000
O O13 0.500000 0.308792 0.315986
O O14 0.618020 0.381981 0.322785
#
# Coordination Sequence:
#
# PCOD8312184 Si02
#       5
#    16  16   8   8  16
#     4  10  18  28  43  61  82 109 142 174 205 249
#     4   9  18  30  41  57  84 112 135 168 218 264
#     4   9  16  23  35  61  87 102 126 166 203 236
#     4   9  16  28  41  58  86 116 141 172 215 250
#     4   8  14  23  34  49  70  99 133 166 203 244
#
# _framework density 14.612238
#
# number of rings (size 3 to 8) (size 9 to 14) (size 15 to 20)
#    0.000    3.000    1.250    2.250    1.750    1.750 
#    0.000    1.875    0.000    0.000    0.000    0.000 
#    0.000    0.500    0.000    2.750    0.000   26.500 
#
# Total GULP energy -793109.025334 kJ/mol
# GULP energy per Si atom -12392.328521 kJ/mol
# Density = 1.457898 g / cm^3
# Si number density = 14.612238 Si / 1000 Ang^3
#
#
#
# Elastic Constant Matrix: (Units=GPa)
#
#
# Indices 1 2 3 4 5 6 
#
# 1 68.1043 26.6663 35.0518 0.0000 0.0000 0.0000
# 2 26.6663 68.1043 35.0518 0.0000 0.0000 0.0000
# 3 35.0518 35.0518 96.2051 0.0000 0.0000 0.0000
# 4 0.0000 0.0000 0.0000 16.1523 0.0000 0.0000
# 5 0.0000 0.0000 0.0000 0.0000 16.1523 0.0000
# 6 0.0000 0.0000 0.0000 0.0000 0.0000 13.9509
#
#
#
# Elastic Compliance Matrix: (Units=1/GPa)
#
#
# Indices 1 2 3 4 5 6 
#
# 1 0.019289 -0.004844 -0.005263 0.000000 0.000000 0.000000
# 2 -0.004844 0.019289 -0.005263 0.000000 0.000000 0.000000
# 3 -0.005263 -0.005263 0.014229 0.000000 0.000000 0.000000
# 4 0.000000 0.000000 0.000000 0.061911 0.000000 0.000000
# 5 0.000000 0.000000 0.000000 0.000000 0.061911 0.000000
# 6 0.000000 0.000000 0.000000 0.000000 0.000000 0.071680
#
#
# Mechanical properties :
#
#
# Convention : Reuss Voigt Hill
#
# Bulk Modulus (GPa) = 45.31532 47.32816 46.32174
# Shear Modulus (GPa) = 17.45789 18.29401 17.87595
#
# Velocity S-wave (km/s) = 3.46026 3.54215 3.50144
# Velocity P-wave (km/s) = 6.85884 7.01347 6.93659
#
# Compressibility (1/GPa) = 0.02206759
#
# Stress axis : x y z
#
# Youngs Moduli (GPa) = 51.84396 51.84396 70.27662
#
# Poissons Ratio (x) = 0.25112 0.36986
# Poissons Ratio (y) = 0.25112 0.36986
# Poissons Ratio (z) = 0.27285 0.27285
#
# Static dielectric constant tensor:
#      x y z
#    x 2.731040 0.000000 0.000000 
#    y 0.000000 2.731040 0.000000 
#    z 0.000000 0.000000 2.797360 
# 
# 
# High freq. dielectric constant tensor:
#      x y z
#    x 1.536000 0.000000 0.000000 
#    y 0.000000 1.536000 0.000000 
#    z 0.000000 0.000000 1.535830 
# 
# From -- ./inp_files/2870.got.cif
#   From: 2010.03.12/outbox.cif.g09.slc.cpg/sg123_2_cif.got.tgz:2870.got - 2010.04.06 16:26:55.
