data_PCOD8312349
_publ_section_title
;
Structure prediction by ZEFSAII (Michael W. Deem and Ramdas Pophale) SiO2 
 PCOD8312349
Probable space group: P 4/M M M
;
_chemical_formula_sum "Si O2"
_cell_formula_units_Z 88
_cell_length_a 13.802335
_cell_length_b 13.802335
_cell_length_c 28.369167
_cell_angle_alpha 90.000000
_cell_angle_beta 90.000000
_cell_angle_gamma 90.000000
_cell_volume 5404.452597
_symmetry_space_group_name_H-M "P 4/M M M"
_symmetry_group_IT_number 123
_symmetry_cell_setting 'tetragonal'
loop_
_space_group_symop_operation_xyz
x,y,z
-y,x,z
-x,-y,z
y,-x,z
x,-y,-z
-x,y,-z
y,x,-z
-y,-x,-z
-x,-y,-z
y,-x,-z
x,y,-z
-y,x,-z
-x,y,z
x,-y,z
-y,-x,z
y,x,z
loop_
_atom_site_type_symbol
_atom_site_label
_atom_site_fract_x
_atom_site_fract_y
_atom_site_fract_z
Si Si1 0.608840 0.762930 0.000000
Si Si2 0.232766 0.613651 0.638571
Si Si3 0.108132 0.614928 0.552116
Si Si4 0.887936 0.610142 0.270129
Si Si5 0.225750 0.613949 0.897376
Si Si6 0.113517 0.271668 0.822176
O O1 0.631397 0.818153 0.950601
O O2 0.500000 0.728670 0.000000
O O3 0.662320 0.662320 0.000000
O O4 0.250626 0.500000 0.634994
O O5 0.337236 0.662765 0.642105
O O6 0.178404 0.655739 0.592454
O O7 0.170923 0.642444 0.684141
O O8 0.146183 0.645237 0.500000
O O9 0.103890 0.500000 0.556382
O O10 0.000000 0.656707 0.559958
O O11 0.862720 0.500000 0.255433
O O12 0.859417 0.680229 0.227541
O O13 0.000000 0.619699 0.283367
O O14 0.245964 0.500000 0.887868
O O15 0.325824 0.674177 0.889826
O O16 0.143204 0.652588 0.862626
O O17 0.170937 0.170937 0.827516
O O18 0.000000 0.249103 0.826525
#
# Coordination Sequence:
#
# PCOD8312349 Si02
#       6
#     8  16  16  16  16  16
#     4   8  14  25  41  63  92 122 150 182 219 260
#     4  10  19  29  42  61  88 121 151 177 206 246
#     4   8  14  26  44  63  81 103 136 181 227 259
#     4   9  17  30  49  70  88 108 139 181 228 272
#     4   9  17  29  46  69  96 124 153 184 220 264
#     4  10  20  33  49  68  90 117 149 187 230 274
#
# _framework density 16.282871
#
# number of rings (size 3 to 8) (size 9 to 14) (size 15 to 20)
#    0.000    2.909    0.000    2.182    0.000    4.273 
#    0.000    2.273    0.000    1.636    0.000    5.091 
#    0.000    6.909    0.000    8.000    0.000    0.727 
#
# Total GULP energy -1090547.078867 kJ/mol
# GULP energy per Si atom -12392.580442 kJ/mol
# Density = 1.624581 g / cm^3
# Si number density = 16.282871 Si / 1000 Ang^3
#
#
#
# Elastic Constant Matrix: (Units=GPa)
#
#
# Indices 1 2 3 4 5 6 
#
# 1 69.1742 39.5111 53.6942 0.0000 0.0000 0.0000
# 2 39.5111 69.1742 53.6942 0.0000 0.0000 0.0000
# 3 53.6942 53.6942 136.7719 0.0000 0.0000 0.0000
# 4 0.0000 0.0000 0.0000 21.6424 0.0000 0.0000
# 5 0.0000 0.0000 0.0000 0.0000 21.6424 0.0000
# 6 0.0000 0.0000 0.0000 0.0000 0.0000 16.9090
#
#
#
# Elastic Compliance Matrix: (Units=1/GPa)
#
#
# Indices 1 2 3 4 5 6 
#
# 1 0.024372 -0.009340 -0.005901 0.000000 0.000000 0.000000
# 2 -0.009340 0.024372 -0.005901 0.000000 0.000000 0.000000
# 3 -0.005901 -0.005901 0.011945 0.000000 0.000000 0.000000
# 4 0.000000 0.000000 0.000000 0.046206 0.000000 0.000000
# 5 0.000000 0.000000 0.000000 0.000000 0.046206 0.000000
# 6 0.000000 0.000000 0.000000 0.000000 0.000000 0.059140
#
#
# Mechanical properties :
#
#
# Convention : Reuss Voigt Hill
#
# Bulk Modulus (GPa) = 54.33761 63.21326 58.77544
# Shear Modulus (GPa) = 19.18217 20.58682 19.88450
#
# Velocity S-wave (km/s) = 3.43601 3.55959 3.49835
# Velocity P-wave (km/s) = 7.01320 7.46997 7.24519
#
# Compressibility (1/GPa) = 0.01840346
#
# Stress axis : x y z
#
# Youngs Moduli (GPa) = 41.03112 41.03112 83.71831
#
# Poissons Ratio (x) = 0.38324 0.49403
# Poissons Ratio (y) = 0.38324 0.49403
# Poissons Ratio (z) = 0.24213 0.24213
#
# Static dielectric constant tensor:
#      x y z
#    x 2.850690 0.000000 0.000000 
#    y 0.000000 2.850690 0.000000 
#    z 0.000000 0.000000 3.464630 
# 
# 
# High freq. dielectric constant tensor:
#      x y z
#    x 1.603460 0.000000 0.000000 
#    y 0.000000 1.603460 0.000000 
#    z 0.000000 0.000000 1.648420 
# 
# From -- ./inp_files/7985.got.cif
#   From: 2010.03.12/outbox.cif.g09.slc.cpg/sg123_4_cif.got.tgz:7985.got - 2010.04.06 16:26:55.
