data_PCOD8312120
_publ_section_title
;
Structure prediction by ZEFSAII (Michael W. Deem and Ramdas Pophale) SiO2 
 PCOD8312120
Probable space group: P 4/M M M
;
_chemical_formula_sum "Si O2"
_cell_formula_units_Z 112
_cell_length_a 20.795166
_cell_length_b 20.795166
_cell_length_c 19.562727
_cell_angle_alpha 90.000000
_cell_angle_beta 90.000000
_cell_angle_gamma 90.000000
_cell_volume 8459.684712
_symmetry_space_group_name_H-M "P 4/M M M"
_symmetry_group_IT_number 123
_symmetry_cell_setting 'tetragonal'
loop_
_space_group_symop_operation_xyz
x,y,z
-y,x,z
-x,-y,z
y,-x,z
x,-y,-z
-x,y,-z
y,x,-z
-y,-x,-z
-x,-y,-z
y,-x,-z
x,y,-z
-y,x,-z
-x,y,z
x,-y,z
-y,-x,z
y,x,z
loop_
_atom_site_type_symbol
_atom_site_label
_atom_site_fract_x
_atom_site_fract_y
_atom_site_fract_z
Si Si1 0.925886 0.822753 0.844637
Si Si2 0.125763 0.227299 0.710743
Si Si3 0.923518 0.694754 0.077591
Si Si4 0.925299 0.570630 0.844959
Si Si5 0.923852 0.428373 0.574702
Si Si6 0.926299 0.176922 0.424208
Si Si7 0.075147 0.360385 0.291146
O O1 0.882744 0.882744 0.870168
O O2 0.918071 0.813526 0.763129
O O3 0.900225 0.758281 0.882295
O O4 0.000000 0.837685 0.862497
O O5 0.198691 0.198691 0.712983
O O6 0.098090 0.225381 0.633758
O O7 0.121032 0.301677 0.731909
O O8 0.894498 0.629153 0.111023
O O9 0.000000 0.692182 0.082288
O O10 0.898908 0.698914 0.000000
O O11 0.894571 0.500000 0.861713
O O12 0.915808 0.583673 0.764361
O O13 0.000000 0.567325 0.863155
O O14 0.904482 0.399898 0.500000
O O15 0.895053 0.500000 0.582115
O O16 0.898032 0.384216 0.635796
O O17 0.000000 0.432417 0.581356
O O18 0.914161 0.207093 0.500000
O O19 0.890630 0.109371 0.416026
O O20 0.000000 0.161193 0.412625
O O21 0.000000 0.338470 0.293887
#
# Coordination Sequence:
#
# PCOD8312120 Si02
#       7
#    16  16  16  16  16  16  16
#     4  10  19  31  45  59  75  97 127 164 204 241
#     4  10  19  29  40  52  69  94 123 156 191 229
#     4   9  17  29  43  58  76  96 116 141 180 230
#     4   9  16  25  39  59  78  94 113 137 170 218
#     4   8  14  23  34  52  76  96 115 141 175 219
#     4   9  17  27  37  49  64  82 108 145 187 229
#     4  10  16  24  39  54  71  94 120 147 182 224
#
# _framework density 13.239264
#
# number of rings (size 3 to 8) (size 9 to 14) (size 15 to 20)
#    0.000    2.714    1.429    2.143    0.000    3.143 
#    0.000    3.571    0.000    2.571    0.000    2.000 
#    0.000    0.000    0.000    0.000    0.000    0.000 
#
# Total GULP energy -1387785.305806 kJ/mol
# GULP energy per Si atom -12390.940230 kJ/mol
# Density = 1.320913 g / cm^3
# Si number density = 13.239264 Si / 1000 Ang^3
#
#
#
# Elastic Constant Matrix: (Units=GPa)
#
#
# Indices 1 2 3 4 5 6 
#
# 1 58.9056 26.1817 22.8774 0.0000 0.0000 0.0000
# 2 26.1817 58.9056 22.8774 0.0000 0.0000 0.0000
# 3 22.8774 22.8774 76.0378 0.0000 0.0000 0.0000
# 4 0.0000 0.0000 0.0000 13.0488 0.0000 0.0000
# 5 0.0000 0.0000 0.0000 0.0000 13.0488 0.0000
# 6 0.0000 0.0000 0.0000 0.0000 0.0000 4.5424
#
#
#
# Elastic Compliance Matrix: (Units=1/GPa)
#
#
# Indices 1 2 3 4 5 6 
#
# 1 0.022290 -0.008269 -0.004219 0.000000 0.000000 0.000000
# 2 -0.008269 0.022290 -0.004219 0.000000 0.000000 0.000000
# 3 -0.004219 -0.004219 0.015690 0.000000 0.000000 0.000000
# 4 0.000000 0.000000 0.000000 0.076635 0.000000 0.000000
# 5 0.000000 0.000000 0.000000 0.000000 0.076635 0.000000
# 6 0.000000 0.000000 0.000000 0.000000 0.000000 0.220150
#
#
# Mechanical properties :
#
#
# Convention : Reuss Voigt Hill
#
# Bulk Modulus (GPa) = 37.23295 37.52468 37.37881
# Shear Modulus (GPa) = 10.50302 14.25552 12.37927
#
# Velocity S-wave (km/s) = 2.81966 3.28496 3.06116
# Velocity P-wave (km/s) = 6.22774 6.54163 6.38662
#
# Compressibility (1/GPa) = 0.02685793
#
# Stress axis : x y z
#
# Youngs Moduli (GPa) = 44.86338 44.86338 63.73574
#
# Poissons Ratio (x) = 0.37097 0.26887
# Poissons Ratio (y) = 0.37097 0.26887
# Poissons Ratio (z) = 0.18926 0.18926
#
# Static dielectric constant tensor:
#      x y z
#    x 2.457250 0.000000 0.000000 
#    y 0.000000 2.457250 0.000000 
#    z 0.000000 0.000000 2.904690 
# 
# 
# High freq. dielectric constant tensor:
#      x y z
#    x 1.462910 0.000000 0.000000 
#    y 0.000000 1.462910 0.000000 
#    z 0.000000 0.000000 1.523170 
# 
# From -- ./inp_files/5930.got.cif
#   From: 2010.03.12/outbox.cif.g09.slc.cpg/sg123_3_cif.got.tgz:5930.got - 2010.04.06 16:26:55.
