data_PCOD8312440
_publ_section_title
;
Structure prediction by ZEFSAII (Michael W. Deem and Ramdas Pophale) SiO2 
 PCOD8312440
Probable space group: P 4/M M M
;
_chemical_formula_sum "Si O2"
_cell_formula_units_Z 88
_cell_length_a 13.643248
_cell_length_b 13.643248
_cell_length_c 28.176997
_cell_angle_alpha 90.000000
_cell_angle_beta 90.000000
_cell_angle_gamma 90.000000
_cell_volume 5244.815954
_symmetry_space_group_name_H-M "P 4/M M M"
_symmetry_group_IT_number 123
_symmetry_cell_setting 'tetragonal'
loop_
_space_group_symop_operation_xyz
x,y,z
-y,x,z
-x,-y,z
y,-x,z
x,-y,-z
-x,y,-z
y,x,-z
-y,-x,-z
-x,-y,-z
y,-x,-z
x,y,-z
-y,x,-z
-x,y,z
x,-y,z
-y,-x,z
y,x,z
loop_
_atom_site_type_symbol
_atom_site_label
_atom_site_fract_x
_atom_site_fract_y
_atom_site_fract_z
Si Si1 0.274553 0.115744 0.733570
Si Si2 0.774750 0.384844 0.812800
Si Si3 0.888533 0.386327 0.092557
Si Si4 0.270413 0.885199 0.000000
Si Si5 0.887398 0.270870 0.446940
Si Si6 0.391800 0.116013 0.358473
O O1 0.171314 0.171314 0.740566
O O2 0.351323 0.145424 0.774228
O O3 0.320914 0.150103 0.683720
O O4 0.254359 0.000000 0.735773
O O5 0.754203 0.500000 0.806948
O O6 0.672619 0.327382 0.805837
O O7 0.818689 0.358693 0.863984
O O8 0.881985 0.500000 0.080038
O O9 0.000000 0.357121 0.105755
O O10 0.851138 0.329271 0.046412
O O11 0.164786 0.835215 0.000000
O O12 0.252485 0.000000 0.000000
O O13 0.873033 0.314549 0.500000
O O14 0.830384 0.169617 0.440747
O O15 0.847854 0.349715 0.409068
O O16 0.000000 0.244982 0.436733
O O17 0.500000 0.162593 0.351959
O O18 0.400713 0.000000 0.357760
#
# Coordination Sequence:
#
# PCOD8312440 Si02
#       6
#    16  16  16   8  16  16
#     4  10  20  33  50  72  97 125 157 192 232 280
#     4  10  20  33  50  72  97 126 160 197 237 281
#     4   9  17  30  49  71  92 116 151 195 240 283
#     4  10  19  30  45  65  92 124 155 189 228 273
#     4   9  17  28  42  62  89 120 153 189 230 278
#     4   9  17  29  45  64  87 117 152 188 226 269
#
# _framework density 16.778473000000002
#
# number of rings (size 3 to 8) (size 9 to 14) (size 15 to 20)
#    0.000    2.545    0.000    2.455    0.000    3.909 
#    0.000    2.727    0.000    3.273    0.000    2.545 
#    0.000    9.818    0.000    8.000    0.000    0.727 
#
# Total GULP energy -1091143.216260 kJ/mol
# GULP energy per Si atom -12399.354730 kJ/mol
# Density = 1.674028 g / cm^3
# Si number density = 16.778473 Si / 1000 Ang^3
#
#
#
# Elastic Constant Matrix: (Units=GPa)
#
#
# Indices 1 2 3 4 5 6 
#
# 1 77.6494 40.6283 45.9397 0.0000 0.0000 0.0000
# 2 40.6283 77.6478 45.9395 0.0000 0.0000 0.0000
# 3 45.9397 45.9395 122.6788 0.0000 0.0000 0.0000
# 4 0.0000 0.0000 0.0000 24.7166 0.0000 0.0000
# 5 0.0000 0.0000 0.0000 0.0000 24.7169 0.0000
# 6 0.0000 0.0000 0.0000 0.0000 0.0000 16.9993
#
#
#
# Elastic Compliance Matrix: (Units=1/GPa)
#
#
# Indices 1 2 3 4 5 6 
#
# 1 0.019467 -0.007545 -0.004465 0.000000 0.000000 0.000000
# 2 -0.007545 0.019468 -0.004465 0.000000 0.000000 0.000000
# 3 -0.004465 -0.004465 0.011495 0.000000 0.000000 0.000000
# 4 0.000000 0.000000 0.000000 0.040459 0.000000 0.000000
# 5 0.000000 0.000000 0.000000 0.000000 0.040458 0.000000
# 6 0.000000 0.000000 0.000000 0.000000 0.000000 0.058826
#
#
# Mechanical properties :
#
#
# Convention : Reuss Voigt Hill
#
# Bulk Modulus (GPa) = 57.20144 60.33232 58.76688
# Shear Modulus (GPa) = 21.83890 22.98445 22.41168
#
# Velocity S-wave (km/s) = 3.61169 3.70520 3.65874
# Velocity P-wave (km/s) = 7.18043 7.37163 7.27666
#
# Compressibility (1/GPa) = 0.01748208
#
# Stress axis : x y z
#
# Youngs Moduli (GPa) = 51.36786 51.36673 86.99228
#
# Poissons Ratio (x) = 0.38754 0.38840
# Poissons Ratio (y) = 0.38755 0.38841
# Poissons Ratio (z) = 0.22935 0.22935
#
# Static dielectric constant tensor:
#      x y z
#    x 2.998070 0.000000 0.000000 
#    y 0.000000 2.998070 0.000000 
#    z 0.000000 0.000000 3.395530 
# 
# 
# High freq. dielectric constant tensor:
#      x y z
#    x 1.630520 0.000000 0.000000 
#    y 0.000000 1.630520 0.000000 
#    z 0.000000 0.000000 1.665700 
# 
# From -- ./inp_files/7167.got.cif
#   From: 2010.03.12/outbox.cif.g09.slc.cpg/sg123_4_cif.got.tgz:7167.got - 2010.04.06 16:26:55.
