data_PCOD8312647
_publ_section_title
;
Structure prediction by ZEFSAII (Michael W. Deem and Ramdas Pophale) SiO2 
 PCOD8312647
Probable space group: P 4/M M M
;
_chemical_formula_sum "Si O2"
_cell_formula_units_Z 72
_cell_length_a 21.508045
_cell_length_b 21.508045
_cell_length_c 7.767119
_cell_angle_alpha 90.000000
_cell_angle_beta 90.000000
_cell_angle_gamma 90.000000
_cell_volume 3593.038179
_symmetry_space_group_name_H-M "P 4/M M M"
_symmetry_group_IT_number 123
_symmetry_cell_setting 'tetragonal'
loop_
_space_group_symop_operation_xyz
x,y,z
-y,x,z
-x,-y,z
y,-x,z
x,-y,-z
-x,y,-z
y,x,-z
-y,-x,-z
-x,-y,-z
y,-x,-z
x,y,-z
-y,x,-z
-x,y,z
x,-y,z
-y,-x,z
y,x,z
loop_
_atom_site_type_symbol
_atom_site_label
_atom_site_fract_x
_atom_site_fract_y
_atom_site_fract_z
Si Si1 0.427907 0.232955 0.804316
Si Si2 0.324780 0.573304 0.500000
Si Si3 0.000000 0.309908 0.310215
Si Si4 0.330913 0.137271 0.295115
Si Si5 0.163759 0.000000 0.309231
Si Si6 0.219055 0.219055 0.688619
Si Si7 0.128999 0.871001 0.187051
O O1 0.500000 0.219166 0.779614
O O2 0.406910 0.286415 0.670672
O O3 0.395863 0.167434 0.759333
O O4 0.412776 0.254494 0.000000
O O5 0.340393 0.500000 0.500000
O O6 0.389443 0.610558 0.500000
O O7 0.066128 0.328996 0.218460
O O8 0.000000 0.340628 0.500000
O O9 0.000000 0.236955 0.323641
O O10 0.321265 0.132910 0.500000
O O11 0.277841 0.184918 0.218185
O O12 0.140382 0.056924 0.200369
O O13 0.134260 0.000000 0.500000
O O14 0.241174 0.241174 0.500000
O O15 0.166351 0.166351 0.667568
O O16 0.152197 0.847803 0.000000
#
# Coordination Sequence:
#
# PCOD8312647 Si02
#       7
#    16   8   8  16   8   8   8
#     4  10  22  40  62  90 125 164 205 249 298 351
#     4  10  22  41  66  95 131 169 203 246 296 350
#     4   9  18  33  57  85 111 145 193 244 298 356
#     4  10  19  34  58  88 118 152 198 248 298 354
#     4  11  21  40  60  72  98 145 188 226 286 359
#     4  10  20  34  57  85 112 148 188 233 290 356
#     4  12  24  37  53  80 112 138 177 236 297 353
#
# _framework density 20.038751999999999
#
# number of rings (size 3 to 8) (size 9 to 14) (size 15 to 20)
#    0.000    1.778    3.333    1.333    1.556    1.667 
#    0.000    2.222    0.000    3.333    0.000    3.111 
#    0.000    0.000    0.000    0.000    0.000    0.000 
#
# Total GULP energy -892132.788251 kJ/mol
# GULP energy per Si atom -12390.733170 kJ/mol
# Density = 1.999314 g / cm^3
# Si number density = 20.038752 Si / 1000 Ang^3
#
#
#
# Elastic Constant Matrix: (Units=GPa)
#
#
# Indices 1 2 3 4 5 6 
#
# 1 109.3713 53.3742 30.2099 0.0000 0.0000 0.0000
# 2 53.3742 109.3792 30.2109 0.0000 0.0000 0.0000
# 3 30.2099 30.2109 83.7063 0.0000 0.0000 0.0000
# 4 0.0000 0.0000 0.0000 15.2154 0.0000 0.0000
# 5 0.0000 0.0000 0.0000 0.0000 15.2154 0.0000
# 6 0.0000 0.0000 0.0000 0.0000 0.0000 42.6147
#
#
#
# Elastic Compliance Matrix: (Units=1/GPa)
#
#
# Indices 1 2 3 4 5 6 
#
# 1 0.012476 -0.005381 -0.002561 0.000000 0.000000 0.000000
# 2 -0.005381 0.012475 -0.002561 0.000000 0.000000 0.000000
# 3 -0.002561 -0.002561 0.013795 0.000000 0.000000 0.000000
# 4 0.000000 0.000000 0.000000 0.065723 0.000000 0.000000
# 5 0.000000 0.000000 0.000000 0.000000 0.065723 0.000000
# 6 0.000000 0.000000 0.000000 0.000000 0.000000 0.023466
#
#
# Mechanical properties :
#
#
# Convention : Reuss Voigt Hill
#
# Bulk Modulus (GPa) = 56.36248 58.89410 57.62829
# Shear Modulus (GPa) = 22.66783 27.18655 24.92719
#
# Velocity S-wave (km/s) = 3.36698 3.68734 3.53079
# Velocity P-wave (km/s) = 6.58052 6.89801 6.74113
#
# Compressibility (1/GPa) = 0.01774230
#
# Stress axis : x y z
#
# Youngs Moduli (GPa) = 80.15138 80.15724 72.49062
#
# Poissons Ratio (x) = 0.43132 0.18563
# Poissons Ratio (y) = 0.43128 0.18562
# Poissons Ratio (z) = 0.20525 0.20525
#
# Static dielectric constant tensor:
#      x y z
#    x 3.593040 0.000000 0.000000 
#    y 0.000000 3.593040 0.000000 
#    z 0.000000 0.000000 3.636420 
# 
# 
# High freq. dielectric constant tensor:
#      x y z
#    x 1.775320 0.000000 0.000000 
#    y 0.000000 1.775320 0.000000 
#    z 0.000000 0.000000 1.770020 
# 
# From -- ./inp_files/1235.got.cif
#   From: 2010.03.12/outbox.cif.g09.slc.cpg/sg123_1_cif.got.tgz:1235.got - 2010.04.06 16:26:55.
