data_PCOD8312871
_publ_section_title
;
Structure prediction by ZEFSAII (Michael W. Deem and Ramdas Pophale) SiO2 
 PCOD8312871
Probable space group: P 4/M M M
;
_chemical_formula_sum "Si O2"
_cell_formula_units_Z 96
_cell_length_a 23.792129
_cell_length_b 23.792129
_cell_length_c 8.965414
_cell_angle_alpha 90.000000
_cell_angle_beta 90.000000
_cell_angle_gamma 90.000000
_cell_volume 5075.010683
_symmetry_space_group_name_H-M "P 4/M M M"
_symmetry_group_IT_number 123
_symmetry_cell_setting 'tetragonal'
loop_
_space_group_symop_operation_xyz
x,y,z
-y,x,z
-x,-y,z
y,-x,z
x,-y,-z
-x,y,-z
y,x,-z
-y,-x,-z
-x,-y,-z
y,-x,-z
x,y,-z
-y,x,-z
-x,y,z
x,-y,z
-y,-x,z
y,x,z
loop_
_atom_site_type_symbol
_atom_site_label
_atom_site_fract_x
_atom_site_fract_y
_atom_site_fract_z
Si Si1 0.378846 0.751246 0.675228
Si Si2 0.065136 0.224629 0.325018
Si Si3 0.749535 0.250466 0.675438
Si Si4 0.064631 0.660665 0.171512
Si Si5 0.563163 0.651132 0.170420
Si Si6 0.436525 0.853000 0.174160
Si Si7 0.835212 0.835212 0.822597
O O1 0.384646 0.750760 0.500000
O O2 0.314477 0.763795 0.721453
O O3 0.397110 0.690993 0.733943
O O4 0.421123 0.796707 0.740543
O O5 0.076787 0.219853 0.500000
O O6 0.082979 0.286898 0.272766
O O7 0.102875 0.179453 0.238537
O O8 0.000000 0.212752 0.285599
O O9 0.759550 0.240451 0.500000
O O10 0.789969 0.210032 0.767507
O O11 0.097822 0.605565 0.224591
O O12 0.000000 0.645683 0.195776
O O13 0.077507 0.676360 0.000000
O O14 0.500000 0.650387 0.234557
O O15 0.588343 0.588343 0.181790
O O16 0.563460 0.672422 0.000000
O O17 0.500000 0.871090 0.215817
O O18 0.430880 0.840662 0.000000
O O19 0.836205 0.836205 0.000000
#
# Coordination Sequence:
#
# PCOD8312871 Si02
#       7
#    16  16   8  16  16  16   8
#     4  11  22  37  55  77 105 139 178 223 276 330
#     4  10  21  38  60  85 117 156 192 230 279 332
#     4  10  22  38  56  80 112 144 180 229 280 334
#     4   9  18  34  56  81 109 144 189 237 281 327
#     4  10  21  37  57  79 103 133 169 213 267 329
#     4  10  21  35  51  75 108 145 184 226 276 335
#     4  12  24  36  58  91 121 151 189 234 279 323
#
# _framework density 18.916215000000001
#
# number of rings (size 3 to 8) (size 9 to 14) (size 15 to 20)
#    0.000    1.833    0.833    3.250    0.000    8.833 
#    0.000    2.500    0.000    0.250    0.000    6.417 
#    0.000    0.000    0.000    0.000    0.000    0.000 
#
# Total GULP energy -1190704.649906 kJ/mol
# GULP energy per Si atom -12403.173437 kJ/mol
# Density = 1.887316 g / cm^3
# Si number density = 18.916215 Si / 1000 Ang^3
#
#
#
# Elastic Constant Matrix: (Units=GPa)
#
#
# Indices 1 2 3 4 5 6 
#
# 1 113.4971 62.1446 53.5294 0.0000 0.0000 0.0000
# 2 62.1446 113.4974 53.5291 0.0000 0.0000 0.0000
# 3 53.5294 53.5291 72.7989 0.0000 0.0000 0.0000
# 4 0.0000 0.0000 0.0000 24.1771 0.0000 0.0000
# 5 0.0000 0.0000 0.0000 0.0000 24.1770 0.0000
# 6 0.0000 0.0000 0.0000 0.0000 0.0000 33.2822
#
#
#
# Elastic Compliance Matrix: (Units=1/GPa)
#
#
# Indices 1 2 3 4 5 6 
#
# 1 0.014895 -0.004578 -0.007587 0.000000 0.000000 0.000000
# 2 -0.004578 0.014895 -0.007586 0.000000 0.000000 0.000000
# 3 -0.007587 -0.007586 0.024893 0.000000 0.000000 0.000000
# 4 0.000000 0.000000 0.000000 0.041362 0.000000 0.000000
# 5 0.000000 0.000000 0.000000 0.000000 0.041362 0.000000
# 6 0.000000 0.000000 0.000000 0.000000 0.000000 0.030046
#
#
# Mechanical properties :
#
#
# Convention : Reuss Voigt Hill
#
# Bulk Modulus (GPa) = 65.86628 70.91106 68.38867
# Shear Modulus (GPa) = 23.58311 25.03326 24.30818
#
# Velocity S-wave (km/s) = 3.53471 3.64177 3.58864
# Velocity P-wave (km/s) = 7.18015 7.43314 7.30774
#
# Compressibility (1/GPa) = 0.01518228
#
# Stress axis : x y z
#
# Youngs Moduli (GPa) = 67.13441 67.13508 40.17135
#
# Poissons Ratio (x) = 0.30733 0.30477
# Poissons Ratio (y) = 0.30733 0.30476
# Poissons Ratio (z) = 0.50933 0.50932
#
# Static dielectric constant tensor:
#      x y z
#    x 3.556730 0.000000 0.000000 
#    y 0.000000 3.556730 0.000000 
#    z 0.000000 0.000000 3.423790 
# 
# 
# High freq. dielectric constant tensor:
#      x y z
#    x 1.736480 0.000000 0.000000 
#    y 0.000000 1.736480 0.000000 
#    z 0.000000 0.000000 1.732200 
# 
# From -- ./inp_files/1671.got.cif
#   From: 2010.03.12/outbox.cif.g09.slc.cpg/sg123_1_cif.got.tgz:1671.got - 2010.04.06 16:26:55.
