data_PCOD8312375
_publ_section_title
;
Structure prediction by ZEFSAII (Michael W. Deem and Ramdas Pophale) SiO2 
 PCOD8312375
Probable space group: P 4/M M M
;
_chemical_formula_sum "Si O2"
_cell_formula_units_Z 56
_cell_length_a 18.182317
_cell_length_b 18.182317
_cell_length_c 9.818867
_cell_angle_alpha 90.000000
_cell_angle_beta 90.000000
_cell_angle_gamma 90.000000
_cell_volume 3246.084552
_symmetry_space_group_name_H-M "P 4/M M M"
_symmetry_group_IT_number 123
_symmetry_cell_setting 'tetragonal'
loop_
_space_group_symop_operation_xyz
x,y,z
-y,x,z
-x,-y,z
y,-x,z
x,-y,-z
-x,y,-z
y,x,-z
-y,-x,-z
-x,-y,-z
y,-x,-z
x,y,-z
-y,x,-z
-x,y,z
x,-y,z
-y,-x,z
y,x,z
loop_
_atom_site_type_symbol
_atom_site_label
_atom_site_fract_x
_atom_site_fract_y
_atom_site_fract_z
Si Si1 0.582452 0.699926 0.162279
Si Si2 0.000000 0.583533 0.162359
Si Si3 0.150572 0.346882 0.838322
Si Si4 0.182230 0.182230 0.838893
Si Si5 0.085252 0.085252 0.348625
O O1 0.500000 0.682217 0.213317
O O2 0.637811 0.637811 0.220547
O O3 0.605378 0.780660 0.216821
O O4 0.586278 0.699658 0.000000
O O5 0.926675 0.622894 0.220865
O O6 0.000000 0.500000 0.214154
O O7 0.000000 0.586939 0.000000
O O8 0.162105 0.263771 0.789525
O O9 0.148982 0.351518 0.000000
O O10 0.127025 0.127025 0.769069
O O11 0.173906 0.173906 0.000000
O O12 0.110389 0.110389 0.500000
O O13 0.000000 0.102168 0.329277
#
# Coordination Sequence:
#
# PCOD8312375 Si02
#       5
#    16   8  16   8   8
#     4   9  15  23  34  48  74 116 159 193 229 276
#     4   9  16  24  36  54  80 117 152 180 219 279
#     4   9  16  26  37  56  86 116 146 185 234 280
#     4  10  19  29  47  72  97 122 152 193 240 278
#     4   9  20  38  54  68  92 125 157 190 228 274
#
# _framework density 17.251553000000001
#
# number of rings (size 3 to 8) (size 9 to 14) (size 15 to 20)
#    0.000    2.857    1.429    1.286    2.000    4.286 
#    0.000    2.143    0.000    0.000    0.000    0.000 
#    0.000    5.714    0.000    0.000    0.000    1.714 
#
# Total GULP energy -694166.995941 kJ/mol
# GULP energy per Si atom -12395.839213 kJ/mol
# Density = 1.721229 g / cm^3
# Si number density = 17.251553 Si / 1000 Ang^3
#
#
#
# Elastic Constant Matrix: (Units=GPa)
#
#
# Indices 1 2 3 4 5 6 
#
# 1 158.7734 92.6852 14.9547 0.0000 0.0000 0.0000
# 2 92.6852 158.7734 14.9547 0.0000 0.0000 0.0000
# 3 14.9547 14.9547 10.9905 0.0000 0.0000 0.0000
# 4 0.0000 0.0000 0.0000 3.8766 0.0000 0.0000
# 5 0.0000 0.0000 0.0000 0.0000 3.8766 0.0000
# 6 0.0000 0.0000 0.0000 0.0000 0.0000 37.1874
#
#
#
# Elastic Compliance Matrix: (Units=1/GPa)
#
#
# Indices 1 2 3 4 5 6 
#
# 1 0.009938 -0.005193 -0.006456 0.000000 0.000000 0.000000
# 2 -0.005193 0.009938 -0.006456 0.000000 0.000000 0.000000
# 3 -0.006456 -0.006456 0.108557 0.000000 0.000000 0.000000
# 4 0.000000 0.000000 0.000000 0.257961 0.000000 0.000000
# 5 0.000000 0.000000 0.000000 0.000000 0.257961 0.000000
# 6 0.000000 0.000000 0.000000 0.000000 0.000000 0.026891
#
#
# Mechanical properties :
#
#
# Convention : Reuss Voigt Hill
#
# Bulk Modulus (GPa) = 10.84337 63.74740 37.29539
# Shear Modulus (GPa) = 6.77325 22.71761 14.74543
#
# Velocity S-wave (km/s) = 1.98361 3.63277 2.92675
# Velocity P-wave (km/s) = 3.39784 7.39107 5.75210
#
# Compressibility (1/GPa) = 0.09222223
#
# Stress axis : x y z
#
# Youngs Moduli (GPa) = 100.62379 100.62379 9.21173
#
# Poissons Ratio (x) = 0.52257 0.05947
# Poissons Ratio (y) = 0.52257 0.05947
# Poissons Ratio (z) = 0.64964 0.64964
#
# Static dielectric constant tensor:
#      x y z
#    x 3.454570 0.000000 0.000000 
#    y 0.000000 3.454570 0.000000 
#    z 0.000000 0.000000 2.403100 
# 
# 
# High freq. dielectric constant tensor:
#      x y z
#    x 1.682750 0.000000 0.000000 
#    y 0.000000 1.682750 0.000000 
#    z 0.000000 0.000000 1.569880 
# 
# From -- ./inp_files/627.got.cif
#   From: 2010.03.12/outbox.cif.g09.slc.cpg/sg123_1_cif.got.tgz:627.got - 2010.04.06 16:26:55.
