data_PCOD8312097
_publ_section_title
;
Structure prediction by ZEFSAII (Michael W. Deem and Ramdas Pophale) SiO2 
 PCOD8312097
Probable space group: I -4 2 D
;
_chemical_formula_sum "Si O2"
_cell_formula_units_Z 64
_cell_length_a 22.801308
_cell_length_b 22.801308
_cell_length_c 4.944941
_cell_angle_alpha 90.000000
_cell_angle_beta 90.000000
_cell_angle_gamma 90.000000
_cell_volume 2570.873078
_symmetry_space_group_name_H-M "I -4 2 D"
_symmetry_group_IT_number 122
_symmetry_cell_setting 'tetragonal'
loop_
_space_group_symop_operation_xyz
x,y,z
y,-x,-z
-x,-y,z
-y,x,-z
x,1/2-y,1/4-z
-x,1/2+y,1/4-z
-y,1/2-x,1/4+z
y,1/2+x,1/4+z
1/2+x,1/2+y,1/2+z
1/2+y,1/2-x,1/2-z
1/2-x,1/2-y,1/2+z
1/2-y,1/2+x,1/2-z
1/2+x,-y,3/4-z
1/2-x,y,3/4-z
1/2-y,-x,3/4+z
1/2+y,x,3/4+z
loop_
_atom_site_type_symbol
_atom_site_label
_atom_site_fract_x
_atom_site_fract_y
_atom_site_fract_z
Si Si1 0.418907 0.750000 0.625000
Si Si2 0.623646 0.464174 0.866088
Si Si3 0.750000 0.840123 0.375000
Si Si4 0.250000 0.659877 0.375000
Si Si5 0.376354 0.464174 0.366088
Si Si6 0.418907 0.250000 0.125000
O O1 0.380113 0.770757 0.370608
O O2 0.459186 0.693437 0.582183
O O3 0.602918 0.515977 0.663045
O O4 0.596068 0.403932 0.750000
O O5 0.693437 0.459186 0.917817
O O6 0.602918 0.484023 0.163045
O O7 0.697966 0.802034 0.500000
O O8 0.270757 0.619887 0.620608
#
# Coordination Sequence:
#
# PCOD8312097 Si02
#       6
#     8  16   8   8  16   8
#     4  12  25  45  70 100 138 184 237 295 358 428
#     4  12  26  46  72 103 140 185 237 296 359 428
#     4  12  23  39  64 100 142 186 233 287 356 432
#     4  12  23  39  64 100 142 186 233 287 356 432
#     4  12  26  46  72 103 140 185 237 296 359 428
#     4  12  25  45  70 100 138 184 237 295 358 428
#
# _framework density 24.894265999999998
#
# number of rings (size 3 to 8) (size 9 to 14) (size 15 to 20)
#    0.000    0.000    0.000   12.000    0.000    3.000 
#    0.000    0.000    0.000    0.000    0.000    0.000 
#    0.000    0.000    0.000    0.000    0.000    0.000 
#
# Total GULP energy -396562.457146 kJ/mol
# GULP energy per Si atom -12392.576786 kJ/mol
# Density = 2.483761 g / cm^3
# Si number density = 24.894266 Si / 1000 Ang^3
#
#
#
# Elastic Constant Matrix: (Units=GPa)
#
#
# Indices 1 2 3 4 5 6 
#
# 1 87.0013 14.7339 19.6052 0.0000 0.0000 0.0000
# 2 14.7339 87.0013 19.6052 0.0000 0.0000 0.0000
# 3 19.6052 19.6052 158.6680 0.0000 0.0000 0.0000
# 4 0.0000 0.0000 0.0000 44.4386 0.0000 0.0000
# 5 0.0000 0.0000 0.0000 0.0000 44.4386 0.0000
# 6 0.0000 0.0000 0.0000 0.0000 0.0000 188.5781
#
#
#
# Elastic Compliance Matrix: (Units=1/GPa)
#
#
# Indices 1 2 3 4 5 6 
#
# 1 0.012079 -0.001758 -0.001275 0.000000 0.000000 0.000000
# 2 -0.001758 0.012079 -0.001275 0.000000 0.000000 0.000000
# 3 -0.001275 -0.001275 0.006618 0.000000 0.000000 0.000000
# 4 0.000000 0.000000 0.000000 0.022503 0.000000 0.000000
# 5 0.000000 0.000000 0.000000 0.000000 0.022503 0.000000
# 6 0.000000 0.000000 0.000000 0.000000 0.000000 0.005303
#
#
# Mechanical properties :
#
#
# Convention : Reuss Voigt Hill
#
# Bulk Modulus (GPa) = 45.12955 48.95103 47.04029
# Shear Modulus (GPa) = 51.49935 74.07282 62.78609
#
# Velocity S-wave (km/s) = 4.55326 5.46073 5.02751
# Velocity P-wave (km/s) = 6.76836 7.71140 7.25522
#
# Compressibility (1/GPa) = 0.02215843
#
# Stress axis : x y z
#
# Youngs Moduli (GPa) = 82.78677 82.78677 151.11183
#
# Poissons Ratio (x) = 0.14556 0.19271
# Poissons Ratio (y) = 0.14556 0.19271
# Poissons Ratio (z) = 0.10558 0.10558
#
# Static dielectric constant tensor:
#      x y z
#    x 4.247590 0.000000 0.000000 
#    y 0.000000 4.247590 0.000000 
#    z 0.000000 0.000000 4.874770 
# 
# 
# High freq. dielectric constant tensor:
#      x y z
#    x 1.987670 0.000000 0.000000 
#    y 0.000000 1.987670 0.000000 
#    z 0.000000 0.000000 2.017610 
# 
# From -- ./inp_files/1179.got.cif
#   From: 2010.03.12/outbox.cif.g09.slc.cpg/sg122_1_cif.got.tgz:1179.got - 2010.04.06 16:17:16.
