data_PCOD8312214
_publ_section_title
;
Structure prediction by ZEFSAII (Michael W. Deem and Ramdas Pophale) SiO2 
 PCOD8312214
Probable space group: P 4/M M M
;
_chemical_formula_sum "Si O2"
_cell_formula_units_Z 112
_cell_length_a 19.475274
_cell_length_b 19.475274
_cell_length_c 20.337094
_cell_angle_alpha 90.000000
_cell_angle_beta 90.000000
_cell_angle_gamma 90.000000
_cell_volume 7713.581083
_symmetry_space_group_name_H-M "P 4/M M M"
_symmetry_group_IT_number 123
_symmetry_cell_setting 'tetragonal'
loop_
_space_group_symop_operation_xyz
x,y,z
-y,x,z
-x,-y,z
y,-x,z
x,-y,-z
-x,y,-z
y,x,-z
-y,-x,-z
-x,-y,-z
y,-x,-z
x,y,-z
-y,x,-z
-x,y,z
x,-y,z
-y,-x,z
y,x,z
loop_
_atom_site_type_symbol
_atom_site_label
_atom_site_fract_x
_atom_site_fract_y
_atom_site_fract_z
Si Si1 0.339697 0.081018 0.681930
Si Si2 0.081904 0.422459 0.808011
Si Si3 0.420807 0.161390 0.576390
Si Si4 0.683701 0.424155 0.421783
Si Si5 0.077910 0.187839 0.874592
Si Si6 0.077851 0.811260 0.719582
Si Si7 0.081651 0.332379 0.926958
O O1 0.380615 0.109958 0.745218
O O2 0.370990 0.111738 0.615901
O O3 0.259631 0.101285 0.685686
O O4 0.348329 0.000000 0.678914
O O5 0.110281 0.500000 0.804780
O O6 0.110924 0.387081 0.874478
O O7 0.000000 0.421751 0.808637
O O8 0.403110 0.152251 0.500000
O O9 0.500000 0.141838 0.589727
O O10 0.406174 0.239103 0.600017
O O11 0.680008 0.423597 0.500000
O O12 0.663190 0.500000 0.396014
O O13 0.631285 0.368716 0.391015
O O14 0.123696 0.123696 0.897220
O O15 0.082227 0.200354 0.797121
O O16 0.107046 0.255859 0.909592
O O17 0.000000 0.171741 0.896284
O O18 0.127849 0.872152 0.695578
O O19 0.000000 0.831048 0.699328
O O20 0.000000 0.332735 0.923258
O O21 0.107513 0.352572 0.000000
#
# Coordination Sequence:
#
# PCOD8312214 Si02
#       7
#    16  16  16  16  16  16  16
#     4  10  18  29  44  61  82 107 136 170 206 243
#     4   9  16  26  40  57  76 100 131 164 198 236
#     4   9  18  30  42  60  87 115 140 167 202 243
#     4   8  14  25  40  58  81 107 134 164 196 231
#     4   9  16  27  41  57  79 105 134 169 208 250
#     4   9  17  29  45  63  83 106 134 171 212 253
#     4   9  16  26  39  55  77 103 129 161 201 239
#
# _framework density 14.519845
#
# number of rings (size 3 to 8) (size 9 to 14) (size 15 to 20)
#    0.000    3.000    1.429    1.286    0.000    2.714 
#    0.000    4.286    0.000    0.000    0.000    2.000 
#    0.000    0.000    0.000    3.143    0.000    0.143 
#
# Total GULP energy -1388397.984515 kJ/mol
# GULP energy per Si atom -12396.410576 kJ/mol
# Density = 1.448680 g / cm^3
# Si number density = 14.519845 Si / 1000 Ang^3
#
#
#
# Elastic Constant Matrix: (Units=GPa)
#
#
# Indices 1 2 3 4 5 6 
#
# 1 72.2675 50.5153 35.7739 0.0000 0.0000 0.0000
# 2 50.5153 72.2675 35.7739 0.0000 0.0000 0.0000
# 3 35.7739 35.7739 59.7783 0.0000 0.0000 0.0000
# 4 0.0000 0.0000 0.0000 14.7136 0.0000 0.0000
# 5 0.0000 0.0000 0.0000 0.0000 14.7136 0.0000
# 6 0.0000 0.0000 0.0000 0.0000 0.0000 19.1949
#
#
#
# Elastic Compliance Matrix: (Units=1/GPa)
#
#
# Indices 1 2 3 4 5 6 
#
# 1 0.029239 -0.016733 -0.007484 0.000000 0.000000 0.000000
# 2 -0.016733 0.029239 -0.007484 0.000000 0.000000 0.000000
# 3 -0.007484 -0.007484 0.025686 0.000000 0.000000 0.000000
# 4 0.000000 0.000000 0.000000 0.067964 0.000000 0.000000
# 5 0.000000 0.000000 0.000000 0.000000 0.067964 0.000000
# 6 0.000000 0.000000 0.000000 0.000000 0.000000 0.052097
#
#
# Mechanical properties :
#
#
# Convention : Reuss Voigt Hill
#
# Bulk Modulus (GPa) = 48.16628 49.82661 48.99644
# Shear Modulus (GPa) = 14.59806 15.20778 14.90292
#
# Velocity S-wave (km/s) = 3.17422 3.23983 3.20720
# Velocity P-wave (km/s) = 6.83220 6.95601 6.89438
#
# Compressibility (1/GPa) = 0.02076141
#
# Stress axis : x y z
#
# Youngs Moduli (GPa) = 34.20105 34.20105 38.93220
#
# Poissons Ratio (x) = 0.57230 0.29136
# Poissons Ratio (y) = 0.57230 0.29136
# Poissons Ratio (z) = 0.25595 0.25595
#
# Static dielectric constant tensor:
#      x y z
#    x 2.810470 0.000000 0.000000 
#    y 0.000000 2.810470 0.000000 
#    z 0.000000 0.000000 2.679450 
# 
# 
# High freq. dielectric constant tensor:
#      x y z
#    x 1.539100 0.000000 0.000000 
#    y 0.000000 1.539100 0.000000 
#    z 0.000000 0.000000 1.534160 
# 
# From -- ./inp_files/5903.got.cif
#   From: 2010.03.12/outbox.cif.g09.slc.cpg/sg123_3_cif.got.tgz:5903.got - 2010.04.06 16:26:55.
