data_PCOD8312267
_publ_section_title
;
Structure prediction by ZEFSAII (Michael W. Deem and Ramdas Pophale) SiO2 
 PCOD8312267
Probable space group: P 4/M M M
;
_chemical_formula_sum "Si O2"
_cell_formula_units_Z 88
_cell_length_a 17.917628
_cell_length_b 17.917628
_cell_length_c 14.135903
_cell_angle_alpha 90.000000
_cell_angle_beta 90.000000
_cell_angle_gamma 90.000000
_cell_volume 4538.209993
_symmetry_space_group_name_H-M "P 4/M M M"
_symmetry_group_IT_number 123
_symmetry_cell_setting 'tetragonal'
loop_
_space_group_symop_operation_xyz
x,y,z
-y,x,z
-x,-y,z
y,-x,z
x,-y,-z
-x,y,-z
y,x,-z
-y,-x,-z
-x,-y,-z
y,-x,-z
x,y,-z
-y,x,-z
-x,y,z
x,-y,z
-y,-x,z
y,x,z
loop_
_atom_site_type_symbol
_atom_site_label
_atom_site_fract_x
_atom_site_fract_y
_atom_site_fract_z
Si Si1 0.200492 0.916022 0.193178
Si Si2 0.709273 0.411436 0.773885
Si Si3 0.189199 0.314377 0.893707
Si Si4 0.755271 0.081874 0.396669
Si Si5 0.500000 0.918456 0.612281
Si Si6 0.623842 0.808371 0.393034
O O1 0.132918 0.867083 0.149234
O O2 0.280889 0.881752 0.163126
O O3 0.189921 0.914913 0.307205
O O4 0.194954 0.000000 0.153249
O O5 0.695013 0.500000 0.781509
O O6 0.632040 0.367961 0.797946
O O7 0.776763 0.387999 0.844154
O O8 0.734137 0.385813 0.668932
O O9 0.252827 0.252827 0.893914
O O10 0.164377 0.335236 0.000000
O O11 0.795960 0.087162 0.500000
O O12 0.704835 0.155275 0.387832
O O13 0.713355 0.000000 0.392902
O O14 0.500000 0.926542 0.500000
O O15 0.428974 0.872923 0.647849
O O16 0.500000 0.000000 0.660139
O O17 0.602972 0.785253 0.500000
#
# Coordination Sequence:
#
# PCOD8312267 Si02
#       6
#    16  16  16  16   8  16
#     4  10  20  34  54  82 116 155 197 236 276 325
#     4  11  23  39  59  84 112 144 185 230 280 341
#     4   9  19  38  62  84 106 136 178 229 284 338
#     4   9  17  29  48  77 113 150 189 235 282 326
#     4   9  16  26  44  72 108 146 180 217 268 326
#     4  10  18  30  50  78 111 146 185 227 274 329
#
# _framework density 19.390905
#
# number of rings (size 3 to 8) (size 9 to 14) (size 15 to 20)
#    0.000    2.273    2.727    0.545    0.000    4.000 
#    0.000    1.818    0.000    0.000    0.000   10.182 
#    0.000    0.000    0.000    0.000    0.000    0.000 
#
# Total GULP energy -1090215.151895 kJ/mol
# GULP energy per Si atom -12388.808544 kJ/mol
# Density = 1.934677 g / cm^3
# Si number density = 19.390905 Si / 1000 Ang^3
#
#
#
# Elastic Constant Matrix: (Units=GPa)
#
#
# Indices 1 2 3 4 5 6 
#
# 1 97.6800 47.8871 24.7330 0.0000 0.0000 0.0000
# 2 47.8871 97.6800 24.7330 0.0000 0.0000 0.0000
# 3 24.7330 24.7330 97.0802 0.0000 0.0000 0.0000
# 4 0.0000 0.0000 0.0000 16.5110 0.0000 0.0000
# 5 0.0000 0.0000 0.0000 0.0000 16.5110 0.0000
# 6 0.0000 0.0000 0.0000 0.0000 0.0000 25.9077
#
#
#
# Elastic Compliance Matrix: (Units=1/GPa)
#
#
# Indices 1 2 3 4 5 6 
#
# 1 0.013802 -0.006281 -0.001916 0.000000 0.000000 0.000000
# 2 -0.006281 0.013802 -0.001916 0.000000 0.000000 0.000000
# 3 -0.001916 -0.001916 0.011277 0.000000 0.000000 0.000000
# 4 0.000000 0.000000 0.000000 0.060566 0.000000 0.000000
# 5 0.000000 0.000000 0.000000 0.000000 0.060566 0.000000
# 6 0.000000 0.000000 0.000000 0.000000 0.000000 0.038599
#
#
# Mechanical properties :
#
#
# Convention : Reuss Voigt Hill
#
# Bulk Modulus (GPa) = 53.60664 54.12737 53.86700
# Shear Modulus (GPa) = 22.21674 24.79177 23.50425
#
# Velocity S-wave (km/s) = 3.38854 3.57953 3.48534
# Velocity P-wave (km/s) = 6.55857 6.71256 6.63601
#
# Compressibility (1/GPa) = 0.01865441
#
# Stress axis : x y z
#
# Youngs Moduli (GPa) = 72.45340 72.45340 88.67558
#
# Poissons Ratio (x) = 0.45509 0.16991
# Poissons Ratio (y) = 0.45509 0.16991
# Poissons Ratio (z) = 0.13882 0.13882
#
# Static dielectric constant tensor:
#      x y z
#    x 3.409420 0.000000 0.000000 
#    y 0.000000 3.409420 0.000000 
#    z 0.000000 0.000000 3.619100 
# 
# 
# High freq. dielectric constant tensor:
#      x y z
#    x 1.735100 0.000000 0.000000 
#    y 0.000000 1.735100 0.000000 
#    z 0.000000 0.000000 1.744160 
# 
# From -- ./inp_files/4097.got.cif
#   From: 2010.03.12/outbox.cif.g09.slc.cpg/sg123_3_cif.got.tgz:4097.got - 2010.04.06 16:26:55.
