data_PCOD8312917
_publ_section_title
;
Structure prediction by ZEFSAII (Michael W. Deem and Ramdas Pophale) SiO2 
 PCOD8312917
Probable space group: P 4/M M M
;
_chemical_formula_sum "Si O2"
_cell_formula_units_Z 96
_cell_length_a 23.956218
_cell_length_b 23.956218
_cell_length_c 8.716933
_cell_angle_alpha 90.000000
_cell_angle_beta 90.000000
_cell_angle_gamma 90.000000
_cell_volume 5002.651169
_symmetry_space_group_name_H-M "P 4/M M M"
_symmetry_group_IT_number 123
_symmetry_cell_setting 'tetragonal'
loop_
_space_group_symop_operation_xyz
x,y,z
-y,x,z
-x,-y,z
y,-x,z
x,-y,-z
-x,y,-z
y,x,-z
-y,-x,-z
-x,-y,-z
y,-x,-z
x,y,-z
-y,x,-z
-x,y,z
x,-y,z
-y,-x,z
y,x,z
loop_
_atom_site_type_symbol
_atom_site_label
_atom_site_fract_x
_atom_site_fract_y
_atom_site_fract_z
Si Si1 0.564038 0.723958 0.680207
Si Si2 0.249945 0.126915 0.820981
Si Si3 0.150864 0.063143 0.675518
Si Si4 0.666752 0.666752 0.180971
Si Si5 0.435520 0.840836 0.176850
Si Si6 0.753803 0.753803 0.680875
Si Si7 0.938342 0.358106 0.181248
O O1 0.572057 0.717278 0.500000
O O2 0.500000 0.712076 0.729959
O O3 0.603890 0.680188 0.765123
O O4 0.581517 0.786519 0.727166
O O5 0.190953 0.100567 0.778798
O O6 0.261901 0.183981 0.732219
O O7 0.296530 0.082038 0.773758
O O8 0.251180 0.141180 0.000000
O O9 0.171948 0.065219 0.500000
O O10 0.088811 0.088811 0.688633
O O11 0.149045 0.000000 0.737674
O O12 0.710313 0.710313 0.250098
O O13 0.670094 0.670094 0.000000
O O14 0.500000 0.855298 0.195025
O O15 0.402771 0.893982 0.245769
O O16 0.419092 0.829479 0.000000
O O17 0.749673 0.749673 0.500000
O O18 0.000000 0.367875 0.253502
O O19 0.942209 0.364973 0.000000
#
# Coordination Sequence:
#
# PCOD8312917 Si02
#       7
#    16  16  16   8  16   8  16
#     4  10  21  38  60  86 119 158 197 238 287 341
#     4  11  21  35  55  79 107 143 182 226 285 347
#     4  10  21  37  56  77 103 137 176 221 276 340
#     4  12  24  38  60  91 123 155 195 240 285 336
#     4   9  17  31  53  79 108 146 192 239 284 331
#     4  12  24  38  58  84 116 148 184 234 288 345
#     4   9  18  31  48  74 107 141 180 228 280 334
#
# _framework density 19.189824000000002
#
# number of rings (size 3 to 8) (size 9 to 14) (size 15 to 20)
#    0.000    1.833    0.833    4.000    0.000    3.833 
#    0.000    3.333    0.000    2.750    0.000    5.250 
#    0.000    0.000    0.000    0.000    0.000    0.000 
#
# Total GULP energy -1190596.044972 kJ/mol
# GULP energy per Si atom -12402.042135 kJ/mol
# Density = 1.914615 g / cm^3
# Si number density = 19.189824 Si / 1000 Ang^3
#
#
#
# Elastic Constant Matrix: (Units=GPa)
#
#
# Indices 1 2 3 4 5 6 
#
# 1 120.9859 66.4611 44.0566 0.0000 0.0000 0.0000
# 2 66.4611 120.9859 44.0566 0.0000 0.0000 0.0000
# 3 44.0566 44.0566 85.3974 0.0000 0.0000 0.0000
# 4 0.0000 0.0000 0.0000 25.7531 0.0000 0.0000
# 5 0.0000 0.0000 0.0000 0.0000 25.7531 0.0000
# 6 0.0000 0.0000 0.0000 0.0000 0.0000 33.1978
#
#
#
# Elastic Compliance Matrix: (Units=1/GPa)
#
#
# Indices 1 2 3 4 5 6 
#
# 1 0.012692 -0.005649 -0.003633 0.000000 0.000000 0.000000
# 2 -0.005649 0.012692 -0.003633 0.000000 0.000000 0.000000
# 3 -0.003633 -0.003633 0.015459 0.000000 0.000000 0.000000
# 4 0.000000 0.000000 0.000000 0.038830 0.000000 0.000000
# 5 0.000000 0.000000 0.000000 0.000000 0.038830 0.000000
# 6 0.000000 0.000000 0.000000 0.000000 0.000000 0.030123
#
#
# Mechanical properties :
#
#
# Convention : Reuss Voigt Hill
#
# Bulk Modulus (GPa) = 66.61811 70.72421 68.67116
# Shear Modulus (GPa) = 27.86143 28.46047 28.16095
#
# Velocity S-wave (km/s) = 3.81450 3.85528 3.83494
# Velocity P-wave (km/s) = 7.36147 7.53344 7.44795
#
# Compressibility (1/GPa) = 0.01501093
#
# Stress axis : x y z
#
# Youngs Moduli (GPa) = 78.79266 78.79266 64.68774
#
# Poissons Ratio (x) = 0.44508 0.23504
# Poissons Ratio (y) = 0.44508 0.23504
# Poissons Ratio (z) = 0.28628 0.28628
#
# Static dielectric constant tensor:
#      x y z
#    x 3.649060 0.000000 0.000000 
#    y 0.000000 3.649060 0.000000 
#    z 0.000000 0.000000 3.362540 
# 
# 
# High freq. dielectric constant tensor:
#      x y z
#    x 1.749420 0.000000 0.000000 
#    y 0.000000 1.749420 0.000000 
#    z 0.000000 0.000000 1.731610 
# 
# From -- ./inp_files/1694.got.cif
#   From: 2010.03.12/outbox.cif.g09.slc.cpg/sg123_1_cif.got.tgz:1694.got - 2010.04.06 16:26:55.
