data_PCOD8312973
_publ_section_title
;
Structure prediction by ZEFSAII (Michael W. Deem and Ramdas Pophale) SiO2 
 PCOD8312973
Probable space group: P 4/M M M
;
_chemical_formula_sum "Si O2"
_cell_formula_units_Z 64
_cell_length_a 20.145685
_cell_length_b 20.145685
_cell_length_c 9.413204
_cell_angle_alpha 90.000000
_cell_angle_beta 90.000000
_cell_angle_gamma 90.000000
_cell_volume 3820.335892
_symmetry_space_group_name_H-M "P 4/M M M"
_symmetry_group_IT_number 123
_symmetry_cell_setting 'tetragonal'
loop_
_space_group_symop_operation_xyz
x,y,z
-y,x,z
-x,-y,z
y,-x,z
x,-y,-z
-x,y,-z
y,x,-z
-y,-x,-z
-x,-y,-z
y,-x,-z
x,y,-z
-y,x,-z
-x,y,z
x,-y,z
-y,-x,z
y,x,z
loop_
_atom_site_type_symbol
_atom_site_label
_atom_site_fract_x
_atom_site_fract_y
_atom_site_fract_z
Si Si1 0.073695 0.327281 0.331167
Si Si2 0.074195 0.821242 0.331009
Si Si3 0.575729 0.682882 0.164729
Si Si4 0.812487 0.576364 0.333587
O O1 0.073127 0.329795 0.500000
O O2 0.092848 0.253062 0.279691
O O3 0.127019 0.379737 0.272037
O O4 0.000000 0.346018 0.274617
O O5 0.076665 0.824133 0.500000
O O6 0.126605 0.873396 0.264625
O O7 0.000000 0.839850 0.278705
O O8 0.500000 0.663914 0.201213
O O9 0.620236 0.620236 0.208673
O O10 0.599346 0.746055 0.254587
O O11 0.584080 0.700920 0.000000
O O12 0.801459 0.588466 0.500000
O O13 0.829473 0.500000 0.300216
#
# Coordination Sequence:
#
# PCOD8312973 Si02
#       4
#    16  16  16  16
#     4   8  14  24  37  55  80 108 138 172 207 243
#     4   8  13  20  29  43  66  96 129 164 200 237
#     4   9  18  32  48  65  86 112 141 174 212 254
#     4   9  17  28  43  64  87 110 138 173 211 249
#
# _framework density 16.752455000000001
#
# number of rings (size 3 to 8) (size 9 to 14) (size 15 to 20)
#    0.000    3.500    0.000    1.500    0.000    2.500 
#    0.000    7.500    0.000    0.750    0.000    7.000 
#    0.000    0.000    0.000    0.000    0.000    0.000 
#
# Total GULP energy -793267.013139 kJ/mol
# GULP energy per Si atom -12394.797080 kJ/mol
# Density = 1.671433 g / cm^3
# Si number density = 16.752455 Si / 1000 Ang^3
#
#
#
# Elastic Constant Matrix: (Units=GPa)
#
#
# Indices 1 2 3 4 5 6 
#
# 1 133.9135 104.8119 27.3728 0.0000 0.0000 0.0000
# 2 104.8119 133.9135 27.3728 0.0000 0.0000 0.0000
# 3 27.3728 27.3728 17.1261 0.0000 0.0000 0.0000
# 4 0.0000 0.0000 0.0000 12.4389 0.0000 0.0000
# 5 0.0000 0.0000 0.0000 0.0000 12.4389 0.0000
# 6 0.0000 0.0000 0.0000 0.0000 0.0000 41.9028
#
#
#
# Elastic Compliance Matrix: (Units=1/GPa)
#
#
# Indices 1 2 3 4 5 6 
#
# 1 0.020488 -0.013875 -0.010569 0.000000 0.000000 0.000000
# 2 -0.013875 0.020488 -0.010569 0.000000 0.000000 0.000000
# 3 -0.010569 -0.010569 0.092176 0.000000 0.000000 0.000000
# 4 0.000000 0.000000 0.000000 0.080393 0.000000 0.000000
# 5 0.000000 0.000000 0.000000 0.000000 0.080393 0.000000
# 6 0.000000 0.000000 0.000000 0.000000 0.000000 0.023865
#
#
# Mechanical properties :
#
#
# Convention : Reuss Voigt Hill
#
# Bulk Modulus (GPa) = 15.84161 67.11866 41.48014
# Shear Modulus (GPa) = 12.22885 21.71583 16.97234
#
# Velocity S-wave (km/s) = 2.70473 3.60429 3.18642
# Velocity P-wave (km/s) = 4.38531 7.58111 6.19290
#
# Compressibility (1/GPa) = 0.06312489
#
# Stress axis : x y z
#
# Youngs Moduli (GPa) = 48.81015 48.81015 10.84882
#
# Poissons Ratio (x) = 0.67724 0.11466
# Poissons Ratio (y) = 0.67724 0.11466
# Poissons Ratio (z) = 0.51588 0.51588
#
# Static dielectric constant tensor:
#      x y z
#    x 3.397180 0.000000 0.000000 
#    y 0.000000 3.397180 0.000000 
#    z 0.000000 0.000000 2.618110 
# 
# 
# High freq. dielectric constant tensor:
#      x y z
#    x 1.651520 0.000000 0.000000 
#    y 0.000000 1.651520 0.000000 
#    z 0.000000 0.000000 1.584660 
# 
# From -- ./inp_files/864.got.cif
#   From: 2010.03.12/outbox.cif.g09.slc.cpg/sg123_1_cif.got.tgz:864.got - 2010.04.06 16:26:55.
