data_PCOD8312079
_publ_section_title
;
Structure prediction by ZEFSAII (Michael W. Deem and Ramdas Pophale) SiO2 
 PCOD8312079
Probable space group: I -4 2 D
;
_chemical_formula_sum "Si O2"
_cell_formula_units_Z 36
_cell_length_a 10.984384
_cell_length_b 10.984384
_cell_length_c 12.979008
_cell_angle_alpha 90.000000
_cell_angle_beta 90.000000
_cell_angle_gamma 90.000000
_cell_volume 1566.004169
_symmetry_space_group_name_H-M "I -4 2 D"
_symmetry_group_IT_number 122
_symmetry_cell_setting 'tetragonal'
loop_
_space_group_symop_operation_xyz
x,y,z
y,-x,-z
-x,-y,z
-y,x,-z
x,1/2-y,1/4-z
-x,1/2+y,1/4-z
-y,1/2-x,1/4+z
y,1/2+x,1/4+z
1/2+x,1/2+y,1/2+z
1/2+y,1/2-x,1/2-z
1/2-x,1/2-y,1/2+z
1/2-y,1/2+x,1/2-z
1/2+x,-y,3/4-z
1/2-x,y,3/4-z
1/2-y,-x,3/4+z
1/2+y,x,3/4+z
loop_
_atom_site_type_symbol
_atom_site_label
_atom_site_fract_x
_atom_site_fract_y
_atom_site_fract_z
Si Si1 0.724645 0.813623 0.524638
Si Si2 0.500000 0.000000 0.750000
Si Si3 0.227972 0.932199 0.139619
O O1 0.668685 0.750000 0.625000
O O2 0.829442 0.724460 0.479200
O O3 0.614559 0.828643 0.442829
O O4 0.774368 0.945933 0.555411
O O5 0.601402 0.054251 0.672534
#
# Coordination Sequence:
#
# PCOD8312079 Si02
#       3
#    16   4  16
#     4  11  26  48  72 110 144 195 248 306 364 444
#     4  12  24  48  80 100 154 196 244 300 356 472
#     4  11  27  46  72 109 147 193 246 303 375 429
#
# _framework density 22.988444000000001
#
# number of rings (size 3 to 8) (size 9 to 14) (size 15 to 20)
#    0.000    0.889    4.444    0.000   12.444    0.889 
#    0.000    0.000    0.000    0.000    0.000    0.000 
#    0.000    0.000    0.000    0.000    0.000    0.000 
#
# Total GULP energy -223069.454543 kJ/mol
# GULP energy per Si atom -12392.747475 kJ/mol
# Density = 2.293612 g / cm^3
# Si number density = 22.988444 Si / 1000 Ang^3
#
#
#
# Elastic Constant Matrix: (Units=GPa)
#
#
# Indices 1 2 3 4 5 6 
#
# 1 132.5632 42.4504 62.4200 0.0000 0.0000 0.0000
# 2 42.4504 132.5632 62.4200 0.0000 0.0000 0.0000
# 3 62.4200 62.4200 145.8953 0.0000 0.0000 0.0000
# 4 0.0000 0.0000 0.0000 44.7257 0.0000 0.0000
# 5 0.0000 0.0000 0.0000 0.0000 44.7256 0.0000
# 6 0.0000 0.0000 0.0000 0.0000 0.0000 27.1174
#
#
#
# Elastic Compliance Matrix: (Units=1/GPa)
#
#
# Indices 1 2 3 4 5 6 
#
# 1 0.009660 -0.001437 -0.003518 0.000000 0.000000 0.000000
# 2 -0.001437 0.009660 -0.003518 0.000000 0.000000 0.000000
# 3 -0.003518 -0.003518 0.009865 0.000000 0.000000 0.000000
# 4 0.000000 0.000000 0.000000 0.022359 0.000000 0.000000
# 5 0.000000 0.000000 0.000000 0.000000 0.022359 0.000000
# 6 0.000000 0.000000 0.000000 0.000000 0.000000 0.036877
#
#
# Mechanical properties :
#
#
# Convention : Reuss Voigt Hill
#
# Bulk Modulus (GPa) = 81.70967 82.84471 82.27719
# Shear Modulus (GPa) = 37.93454 39.56250 38.74852
#
# Velocity S-wave (km/s) = 4.06662 4.15296 4.11002
# Velocity P-wave (km/s) = 7.59413 7.68843 7.64142
#
# Compressibility (1/GPa) = 0.01223845
#
# Stress axis : x y z
#
# Youngs Moduli (GPa) = 103.51567 103.51568 101.37021
#
# Poissons Ratio (x) = 0.14873 0.35666
# Poissons Ratio (y) = 0.14873 0.35666
# Poissons Ratio (z) = 0.36421 0.36421
#
# Static dielectric constant tensor:
#      x y z
#    x 4.130760 0.000000 0.000000 
#    y 0.000000 4.130760 0.000000 
#    z 0.000000 0.000000 4.668410 
# 
# 
# High freq. dielectric constant tensor:
#      x y z
#    x 1.890960 0.000000 0.000000 
#    y 0.000000 1.890960 0.000000 
#    z 0.000000 0.000000 1.943070 
# 
# From -- ./inp_files/3334.got.cif
#   From: 2010.03.12/outbox.cif.g09.slc.cpg/sg122_2_cif.got.tgz:3334.got - 2010.04.06 16:17:16.
