data_PCOD8312007
_publ_section_title
;
Structure prediction by ZEFSAII (Michael W. Deem and Ramdas Pophale) SiO2 
 PCOD8312007
Probable space group: I -4 2 D
;
_chemical_formula_sum "Si O2"
_cell_formula_units_Z 96
_cell_length_a 21.298613
_cell_length_b 21.298613
_cell_length_c 12.406170
_cell_angle_alpha 90.000000
_cell_angle_beta 90.000000
_cell_angle_gamma 90.000000
_cell_volume 5627.822258
_symmetry_space_group_name_H-M "I -4 2 D"
_symmetry_group_IT_number 122
_symmetry_cell_setting 'tetragonal'
loop_
_space_group_symop_operation_xyz
x,y,z
y,-x,-z
-x,-y,z
-y,x,-z
x,1/2-y,1/4-z
-x,1/2+y,1/4-z
-y,1/2-x,1/4+z
y,1/2+x,1/4+z
1/2+x,1/2+y,1/2+z
1/2+y,1/2-x,1/2-z
1/2-x,1/2-y,1/2+z
1/2-y,1/2+x,1/2-z
1/2+x,-y,3/4-z
1/2-x,y,3/4-z
1/2-y,-x,3/4+z
1/2+y,x,3/4+z
loop_
_atom_site_type_symbol
_atom_site_label
_atom_site_fract_x
_atom_site_fract_y
_atom_site_fract_z
Si Si1 0.214682 0.808638 0.543800
Si Si2 0.161765 0.854866 0.931413
Si Si3 0.689605 0.963608 0.950543
Si Si4 0.956960 0.087965 0.021640
Si Si5 0.789185 0.660800 0.569466
Si Si6 0.782541 0.403280 0.530408
O O1 0.214511 0.750000 0.625000
O O2 0.282574 0.822662 0.492279
O O3 0.164258 0.798127 0.448584
O O4 0.198025 0.873118 0.605901
O O5 0.169303 0.783009 0.963525
O O6 0.179702 0.863827 0.808083
O O7 0.089322 0.872167 0.946964
O O8 0.207734 0.896256 0.007440
O O9 0.750000 0.955584 0.875000
O O10 0.625835 0.971388 0.881472
O O11 0.682040 0.904283 0.028429
O O12 0.698259 0.024050 0.026674
O O13 0.020839 0.076125 0.954161
#
# Coordination Sequence:
#
# PCOD8312007 Si02
#       6
#    16  16  16  16  16  16
#     4  11  19  35  56  79 108 146 181 219 267 327
#     4  11  18  32  54  88 107 141 178 211 283 329
#     4  12  21  34  56  83 112 139 176 229 275 319
#     4  11  22  35  53  80 114 140 176 225 278 327
#     4  11  22  33  56  84 111 142 182 222 271 328
#     4  11  20  33  56  80 112 143 174 221 274 321
#
# _framework density 17.058108000000001
#
# number of rings (size 3 to 8) (size 9 to 14) (size 15 to 20)
#    0.000    0.833    8.333    2.500    0.000    0.000 
#    0.000    0.000    7.333    0.000    0.000    0.000 
#    0.000    0.000    0.000    0.000    0.000    0.000 
#
# Total GULP energy -595176.669301 kJ/mol
# GULP energy per Si atom -12399.513944 kJ/mol
# Density = 1.701928 g / cm^3
# Si number density = 17.058108 Si / 1000 Ang^3
#
#
#
# Elastic Constant Matrix: (Units=GPa)
#
#
# Indices 1 2 3 4 5 6 
#
# 1 108.0804 25.7508 44.0507 0.0000 0.0000 0.0000
# 2 25.7508 108.0804 44.0507 0.0000 0.0000 0.0000
# 3 44.0507 44.0507 90.2559 0.0000 0.0000 0.0000
# 4 0.0000 0.0000 0.0000 26.9625 0.0000 0.0000
# 5 0.0000 0.0000 0.0000 0.0000 26.9625 0.0000
# 6 0.0000 0.0000 0.0000 0.0000 0.0000 21.0823
#
#
#
# Elastic Compliance Matrix: (Units=1/GPa)
#
#
# Indices 1 2 3 4 5 6 
#
# 1 0.011578 -0.000568 -0.005373 0.000000 0.000000 0.000000
# 2 -0.000568 0.011578 -0.005373 0.000000 0.000000 0.000000
# 3 -0.005373 -0.005373 0.016325 0.000000 0.000000 0.000000
# 4 0.000000 0.000000 0.000000 0.037089 0.000000 0.000000
# 5 0.000000 0.000000 0.000000 0.000000 0.037089 0.000000
# 6 0.000000 0.000000 0.000000 0.000000 0.000000 0.047433
#
#
# Mechanical properties :
#
#
# Convention : Reuss Voigt Hill
#
# Bulk Modulus (GPa) = 59.34642 59.34678 59.34660
# Shear Modulus (GPa) = 26.40790 27.83908 27.12349
#
# Velocity S-wave (km/s) = 3.93888 4.04420 3.99189
# Velocity P-wave (km/s) = 7.45336 7.52821 7.49088
#
# Compressibility (1/GPa) = 0.01685022
#
# Stress axis : x y z
#
# Youngs Moduli (GPa) = 86.37207 86.37207 61.25722
#
# Poissons Ratio (x) = 0.04910 0.32915
# Poissons Ratio (y) = 0.04910 0.32915
# Poissons Ratio (z) = 0.46410 0.46410
#
# Static dielectric constant tensor:
#      x y z
#    x 3.277740 0.000000 0.000000 
#    y 0.000000 3.277740 0.000000 
#    z 0.000000 0.000000 3.117860 
# 
# 
# High freq. dielectric constant tensor:
#      x y z
#    x 1.655840 0.000000 0.000000 
#    y 0.000000 1.655840 0.000000 
#    z 0.000000 0.000000 1.636820 
# 
# From -- ./inp_files/4478.got.cif
#   From: 2010.03.12/outbox.cif.g09.slc.cpg/sg122_3_cif.got.tgz:4478.got - 2010.04.06 16:17:16.
