data_PCOD8312426
_publ_section_title
;
Structure prediction by ZEFSAII (Michael W. Deem and Ramdas Pophale) SiO2 
 PCOD8312426
Probable space group: P 4/M M M
;
_chemical_formula_sum "Si O2"
_cell_formula_units_Z 72
_cell_length_a 14.003078
_cell_length_b 14.003078
_cell_length_c 23.004064
_cell_angle_alpha 90.000000
_cell_angle_beta 90.000000
_cell_angle_gamma 90.000000
_cell_volume 4510.779344
_symmetry_space_group_name_H-M "P 4/M M M"
_symmetry_group_IT_number 123
_symmetry_cell_setting 'tetragonal'
loop_
_space_group_symop_operation_xyz
x,y,z
-y,x,z
-x,-y,z
y,-x,z
x,-y,-z
-x,y,-z
y,x,-z
-y,-x,-z
-x,-y,-z
y,-x,-z
x,y,-z
-y,x,-z
-x,y,z
x,-y,z
-y,-x,z
y,x,z
loop_
_atom_site_type_symbol
_atom_site_label
_atom_site_fract_x
_atom_site_fract_y
_atom_site_fract_z
Si Si1 0.613063 0.106103 0.829942
Si Si2 0.109628 0.609650 0.610588
Si Si3 0.609660 0.764488 0.065697
Si Si4 0.612152 0.232821 0.722575
Si Si5 0.111475 0.266323 0.500000
O O1 0.500000 0.097866 0.826395
O O2 0.645159 0.152803 0.890959
O O3 0.649758 0.170322 0.776705
O O4 0.658294 0.000000 0.826051
O O5 0.124582 0.500000 0.592445
O O6 0.174672 0.637701 0.664817
O O7 0.141076 0.673295 0.556307
O O8 0.000000 0.628299 0.628316
O O9 0.500000 0.737534 0.078110
O O10 0.668429 0.668429 0.077089
O O11 0.623961 0.802519 0.000000
O O12 0.500000 0.255164 0.727393
O O13 0.666603 0.333398 0.721968
O O14 0.166696 0.166696 0.500000
O O15 0.000000 0.242223 0.500000
#
# Coordination Sequence:
#
# PCOD8312426 Si02
#       5
#    16  16  16  16   8
#     4   9  17  29  44  61  82 110 144 181 219 253
#     4   9  17  30  48  68  88 112 145 184 223 258
#     4   9  17  28  42  62  89 119 148 177 210 253
#     4  10  19  30  45  65  90 118 145 174 209 253
#     4  10  19  30  45  65  90 118 147 181 220 263
#
# _framework density 15.961764000000001
#
# number of rings (size 3 to 8) (size 9 to 14) (size 15 to 20)
#    0.000    2.667    0.000    2.333    0.000    5.000 
#    0.000    3.333    0.000    4.000    0.000    0.000 
#    0.000   27.556    0.000    9.778    0.000    0.889 
#
# Total GULP energy -892783.033839 kJ/mol
# GULP energy per Si atom -12399.764359 kJ/mol
# Density = 1.592543 g / cm^3
# Si number density = 15.961764 Si / 1000 Ang^3
#
#
#
# Elastic Constant Matrix: (Units=GPa)
#
#
# Indices 1 2 3 4 5 6 
#
# 1 77.2050 49.3863 57.1916 0.0000 0.0000 0.0000
# 2 49.3863 77.2050 57.1916 0.0000 0.0000 0.0000
# 3 57.1916 57.1916 129.3497 0.0000 0.0000 0.0000
# 4 0.0000 0.0000 0.0000 22.0668 0.0000 0.0000
# 5 0.0000 0.0000 0.0000 0.0000 22.0668 0.0000
# 6 0.0000 0.0000 0.0000 0.0000 0.0000 20.1480
#
#
#
# Elastic Compliance Matrix: (Units=1/GPa)
#
#
# Indices 1 2 3 4 5 6 
#
# 1 0.024551 -0.011396 -0.005816 0.000000 0.000000 0.000000
# 2 -0.011396 0.024551 -0.005816 0.000000 0.000000 0.000000
# 3 -0.005816 -0.005816 0.012874 0.000000 0.000000 0.000000
# 4 0.000000 0.000000 0.000000 0.045317 0.000000 0.000000
# 5 0.000000 0.000000 0.000000 0.000000 0.045317 0.000000
# 6 0.000000 0.000000 0.000000 0.000000 0.000000 0.049633
#
#
# Mechanical properties :
#
#
# Convention : Reuss Voigt Hill
#
# Bulk Modulus (GPa) = 62.81956 67.92207 65.37081
# Shear Modulus (GPa) = 19.71555 20.85566 20.28560
#
# Velocity S-wave (km/s) = 3.51832 3.61862 3.56882
# Velocity P-wave (km/s) = 7.47974 7.75271 7.61745
#
# Compressibility (1/GPa) = 0.01591861
#
# Stress axis : x y z
#
# Youngs Moduli (GPa) = 40.73161 40.73161 77.67340
#
# Poissons Ratio (x) = 0.46418 0.45178
# Poissons Ratio (y) = 0.46418 0.45178
# Poissons Ratio (z) = 0.23691 0.23691
#
# Static dielectric constant tensor:
#      x y z
#    x 2.885610 0.000000 0.000000 
#    y 0.000000 2.885610 0.000000 
#    z 0.000000 0.000000 3.241740 
# 
# 
# High freq. dielectric constant tensor:
#      x y z
#    x 1.593250 0.000000 0.000000 
#    y 0.000000 1.593250 0.000000 
#    z 0.000000 0.000000 1.632410 
# 
# From -- ./inp_files/6293.got.cif
#   From: 2010.03.12/outbox.cif.g09.slc.cpg/sg123_4_cif.got.tgz:6293.got - 2010.04.06 16:26:55.
