data_PCOD8312904
_publ_section_title
;
Structure prediction by ZEFSAII (Michael W. Deem and Ramdas Pophale) SiO2 
 PCOD8312904
Probable space group: P 4/M M M
;
_chemical_formula_sum "Si O2"
_cell_formula_units_Z 88
_cell_length_a 13.552815
_cell_length_b 13.552815
_cell_length_c 28.285507
_cell_angle_alpha 90.000000
_cell_angle_beta 90.000000
_cell_angle_gamma 90.000000
_cell_volume 5195.447825
_symmetry_space_group_name_H-M "P 4/M M M"
_symmetry_group_IT_number 123
_symmetry_cell_setting 'tetragonal'
loop_
_space_group_symop_operation_xyz
x,y,z
-y,x,z
-x,-y,z
y,-x,z
x,-y,-z
-x,y,-z
y,x,-z
-y,-x,-z
-x,-y,-z
y,-x,-z
x,y,-z
-y,x,-z
-x,y,z
x,-y,z
-y,-x,z
y,x,z
loop_
_atom_site_type_symbol
_atom_site_label
_atom_site_fract_x
_atom_site_fract_y
_atom_site_fract_z
Si Si1 0.616893 0.778982 0.414333
Si Si2 0.112099 0.268292 0.227710
Si Si3 0.886871 0.270639 0.947751
Si Si4 0.885283 0.275706 0.334200
Si Si5 0.391787 0.117668 0.140601
Si Si6 0.882401 0.720029 0.500000
O O1 0.500000 0.759523 0.419378
O O2 0.673719 0.673719 0.417135
O O3 0.639013 0.834722 0.365217
O O4 0.655695 0.851937 0.454826
O O5 0.163104 0.163104 0.224700
O O6 0.124704 0.313599 0.280173
O O7 0.157900 0.340082 0.188153
O O8 0.000000 0.246543 0.215309
O O9 0.833909 0.166092 0.945033
O O10 0.843033 0.341251 0.907325
O O11 0.000000 0.247789 0.937304
O O12 0.872426 0.319184 0.000000
O O13 0.828287 0.171714 0.342285
O O14 0.000000 0.259509 0.347971
O O15 0.500000 0.163913 0.140891
O O16 0.395907 0.000000 0.140831
O O17 0.825506 0.825506 0.500000
O O18 0.000000 0.739534 0.500000
#
# Coordination Sequence:
#
# PCOD8312904 Si02
#       6
#    16  16  16  16  16   8
#     4  10  21  36  53  74  99 127 163 206 248 290
#     4   9  17  29  45  66  93 122 151 184 221 264
#     4   9  17  28  42  61  85 112 141 174 213 260
#     4   9  18  31  47  70  98 127 160 195 232 279
#     4   9  17  28  41  58  82 113 148 183 217 254
#     4  10  21  36  54  78 106 134 165 198 234 282
#
# _framework density 16.937904
#
# number of rings (size 3 to 8) (size 9 to 14) (size 15 to 20)
#    0.000    2.727    0.000    1.364    0.000    3.727 
#    0.000    6.364    0.000    8.182    0.000    0.000 
#    0.000    5.818    0.000    8.000    0.000    0.727 
#
# Total GULP energy -1090731.182355 kJ/mol
# GULP energy per Si atom -12394.672527 kJ/mol
# Density = 1.689935 g / cm^3
# Si number density = 16.937904 Si / 1000 Ang^3
#
#
#
# Elastic Constant Matrix: (Units=GPa)
#
#
# Indices 1 2 3 4 5 6 
#
# 1 96.4963 44.7502 51.9073 0.0000 0.0000 0.0000
# 2 44.7502 96.4963 51.9073 0.0000 0.0000 0.0000
# 3 51.9073 51.9073 128.0397 0.0000 0.0000 0.0000
# 4 0.0000 0.0000 0.0000 20.9003 0.0000 0.0000
# 5 0.0000 0.0000 0.0000 0.0000 20.9003 0.0000
# 6 0.0000 0.0000 0.0000 0.0000 0.0000 8.9849
#
#
#
# Elastic Compliance Matrix: (Units=1/GPa)
#
#
# Indices 1 2 3 4 5 6 
#
# 1 0.014705 -0.004620 -0.004088 0.000000 0.000000 0.000000
# 2 -0.004620 0.014705 -0.004088 0.000000 0.000000 0.000000
# 3 -0.004088 -0.004088 0.011125 0.000000 0.000000 0.000000
# 4 0.000000 0.000000 0.000000 0.047846 0.000000 0.000000
# 5 0.000000 0.000000 0.000000 0.000000 0.047846 0.000000
# 6 0.000000 0.000000 0.000000 0.000000 0.000000 0.111297
#
#
# Mechanical properties :
#
#
# Convention : Reuss Voigt Hill
#
# Bulk Modulus (GPa) = 66.93013 68.68467 67.80740
# Shear Modulus (GPa) = 17.97923 21.65493 19.81708
#
# Velocity S-wave (km/s) = 3.26157 3.57948 3.42421
# Velocity P-wave (km/s) = 7.33380 7.59753 7.46683
#
# Compressibility (1/GPa) = 0.01494095
#
# Stress axis : x y z
#
# Youngs Moduli (GPa) = 68.00445 68.00445 89.88836
#
# Poissons Ratio (x) = 0.31419 0.36749
# Poissons Ratio (y) = 0.31419 0.36749
# Poissons Ratio (z) = 0.27803 0.27803
#
# Static dielectric constant tensor:
#      x y z
#    x 3.015640 0.000000 0.000000 
#    y 0.000000 3.015640 0.000000 
#    z 0.000000 0.000000 3.584580 
# 
# 
# High freq. dielectric constant tensor:
#      x y z
#    x 1.629520 0.000000 0.000000 
#    y 0.000000 1.629520 0.000000 
#    z 0.000000 0.000000 1.678380 
# 
# From -- ./inp_files/8473.got.cif
#   From: 2010.03.12/outbox.cif.g09.slc.cpg/sg123_5_cif.got.tgz:8473.got - 2010.04.06 16:26:55.
