data_PCOD8312682
_publ_section_title
;
Structure prediction by ZEFSAII (Michael W. Deem and Ramdas Pophale) SiO2 
 PCOD8312682
Probable space group: P 4/M M M
;
_chemical_formula_sum "Si O2"
_cell_formula_units_Z 48
_cell_length_a 13.687997
_cell_length_b 13.687997
_cell_length_c 15.194585
_cell_angle_alpha 90.000000
_cell_angle_beta 90.000000
_cell_angle_gamma 90.000000
_cell_volume 2846.876619
_symmetry_space_group_name_H-M "P 4/M M M"
_symmetry_group_IT_number 123
_symmetry_cell_setting 'tetragonal'
loop_
_space_group_symop_operation_xyz
x,y,z
-y,x,z
-x,-y,z
y,-x,z
x,-y,-z
-x,y,-z
y,x,-z
-y,-x,-z
-x,-y,-z
y,-x,-z
x,y,-z
-y,x,-z
-x,y,z
x,-y,z
-y,-x,z
y,x,z
loop_
_atom_site_type_symbol
_atom_site_label
_atom_site_fract_x
_atom_site_fract_y
_atom_site_fract_z
Si Si1 0.385266 0.771421 0.736792
Si Si2 0.887966 0.270354 0.601400
Si Si3 0.891026 0.615873 0.097234
O O1 0.500000 0.751043 0.737090
O O2 0.331699 0.668302 0.722431
O O3 0.359808 0.846066 0.658359
O O4 0.346089 0.817334 0.828363
O O5 0.876891 0.301123 0.500000
O O6 0.828745 0.171256 0.622305
O O7 0.000000 0.250550 0.626590
O O8 0.895583 0.500000 0.102166
O O9 0.000000 0.657685 0.114654
O O10 0.854639 0.649097 0.000000
#
# Coordination Sequence:
#
# PCOD8312682 Si02
#       3
#    16  16  16
#     4  10  20  32  46  65  91 124 162 202 238 272
#     4   9  18  32  50  73  98 121 147 182 227 281
#     4   8  14  26  45  67  88 111 143 185 232 279
#
# _framework density 16.860583999999999
#
# number of rings (size 3 to 8) (size 9 to 14) (size 15 to 20)
#    0.000    3.000    0.000    2.000    0.000    4.000 
#    0.000    3.333    0.000    0.000    0.000    9.333 
#    0.000    0.000    0.000   31.000    0.000    2.000 
#
# Total GULP energy -595029.438995 kJ/mol
# GULP energy per Si atom -12396.446646 kJ/mol
# Density = 1.682221 g / cm^3
# Si number density = 16.860584 Si / 1000 Ang^3
#
#
#
# Elastic Constant Matrix: (Units=GPa)
#
#
# Indices 1 2 3 4 5 6 
#
# 1 82.7142 34.5369 47.3074 0.0000 0.0000 0.0000
# 2 34.5369 82.7142 47.3074 0.0000 0.0000 0.0000
# 3 47.3074 47.3074 99.4849 0.0000 0.0000 0.0000
# 4 0.0000 0.0000 0.0000 24.3703 0.0000 0.0000
# 5 0.0000 0.0000 0.0000 0.0000 24.3703 0.0000
# 6 0.0000 0.0000 0.0000 0.0000 0.0000 10.9322
#
#
#
# Elastic Compliance Matrix: (Units=1/GPa)
#
#
# Indices 1 2 3 4 5 6 
#
# 1 0.017298 -0.003459 -0.006581 0.000000 0.000000 0.000000
# 2 -0.003459 0.017298 -0.006581 0.000000 0.000000 0.000000
# 3 -0.006581 -0.006581 0.016310 0.000000 0.000000 0.000000
# 4 0.000000 0.000000 0.000000 0.041034 0.000000 0.000000
# 5 0.000000 0.000000 0.000000 0.000000 0.041034 0.000000
# 6 0.000000 0.000000 0.000000 0.000000 0.000000 0.091473
#
#
# Mechanical properties :
#
#
# Convention : Reuss Voigt Hill
#
# Bulk Modulus (GPa) = 56.60807 58.13518 57.37163
# Shear Modulus (GPa) = 18.96990 20.98532 19.97761
#
# Velocity S-wave (km/s) = 3.35789 3.53177 3.44593
# Velocity P-wave (km/s) = 6.97718 7.15444 7.06636
#
# Compressibility (1/GPa) = 0.01766533
#
# Stress axis : x y z
#
# Youngs Moduli (GPa) = 57.81069 57.81069 61.31048
#
# Poissons Ratio (x) = 0.19996 0.40347
# Poissons Ratio (y) = 0.19996 0.40347
# Poissons Ratio (z) = 0.38044 0.38044
#
# Static dielectric constant tensor:
#      x y z
#    x 2.957920 0.000000 0.000000 
#    y 0.000000 2.957920 0.000000 
#    z 0.000000 0.000000 3.489410 
# 
# 
# High freq. dielectric constant tensor:
#      x y z
#    x 1.630080 0.000000 0.000000 
#    y 0.000000 1.630080 0.000000 
#    z 0.000000 0.000000 1.665190 
# 
# From -- ./inp_files/2314.got.cif
#   From: 2010.03.12/outbox.cif.g09.slc.cpg/sg123_2_cif.got.tgz:2314.got - 2010.04.06 16:26:55.
