data_PCOD8312554
_publ_section_title
;
Structure prediction by ZEFSAII (Michael W. Deem and Ramdas Pophale) SiO2 
 PCOD8312554
Probable space group: P 4/M M M
;
_chemical_formula_sum "Si O2"
_cell_formula_units_Z 112
_cell_length_a 15.196713
_cell_length_b 15.196713
_cell_length_c 27.117068
_cell_angle_alpha 90.000000
_cell_angle_beta 90.000000
_cell_angle_gamma 90.000000
_cell_volume 6262.418016
_symmetry_space_group_name_H-M "P 4/M M M"
_symmetry_group_IT_number 123
_symmetry_cell_setting 'tetragonal'
loop_
_space_group_symop_operation_xyz
x,y,z
-y,x,z
-x,-y,z
y,-x,z
x,-y,-z
-x,y,-z
y,x,-z
-y,-x,-z
-x,-y,-z
y,-x,-z
x,y,-z
-y,x,-z
-x,y,z
x,-y,z
-y,-x,z
y,x,z
loop_
_atom_site_type_symbol
_atom_site_label
_atom_site_fract_x
_atom_site_fract_y
_atom_site_fract_z
Si Si1 0.598301 0.811028 0.309073
Si Si2 0.902174 0.315855 0.554511
Si Si3 0.735520 0.596251 0.587010
Si Si4 0.399397 0.742455 0.202182
Si Si5 0.100427 0.600265 0.870348
Si Si6 0.236777 0.902342 0.656266
Si Si7 0.899640 0.757031 0.057256
O O1 0.500000 0.852864 0.307142
O O2 0.606216 0.742377 0.353997
O O3 0.618514 0.757810 0.259663
O O4 0.669250 0.888102 0.317304
O O5 0.891078 0.272968 0.500000
O O6 0.830709 0.392422 0.561749
O O7 0.888393 0.243090 0.597063
O O8 0.000000 0.357379 0.560052
O O9 0.700010 0.500000 0.572872
O O10 0.667957 0.667957 0.565869
O O11 0.500000 0.712532 0.192590
O O12 0.334942 0.665059 0.183170
O O13 0.378735 0.833840 0.174430
O O14 0.113507 0.500000 0.889413
O O15 0.122596 0.666570 0.914717
O O16 0.000000 0.613821 0.851557
O O17 0.165894 0.834107 0.677659
O O18 0.204140 0.000000 0.668996
O O19 0.835404 0.835404 0.075305
O O20 0.000000 0.787354 0.067579
O O21 0.884851 0.736701 0.000000
#
# Coordination Sequence:
#
# PCOD8312554 Si02
#       7
#    16  16  16  16  16  16  16
#     4   9  18  33  52  72  93 119 154 196 240 277
#     4   9  18  33  53  73  90 113 148 190 235 274
#     4  10  20  33  49  69  95 125 154 185 221 267
#     4  10  19  31  49  71  97 127 156 192 236 281
#     4   9  18  31  46  67  94 124 161 200 236 276
#     4  10  20  33  50  72  98 126 154 185 222 270
#     4   9  17  29  46  68  94 124 157 195 239 285
#
# _framework density 17.884466
#
# number of rings (size 3 to 8) (size 9 to 14) (size 15 to 20)
#    0.000    2.571    0.000    3.000    0.000    3.429 
#    0.000    7.143    0.000    2.571    0.000    3.000 
#    0.000    3.429    0.000   13.286    0.000    0.286 
#
# Total GULP energy -1388269.666518 kJ/mol
# GULP energy per Si atom -12395.264880 kJ/mol
# Density = 1.784376 g / cm^3
# Si number density = 17.884466 Si / 1000 Ang^3
#
#
#
# Elastic Constant Matrix: (Units=GPa)
#
#
# Indices 1 2 3 4 5 6 
#
# 1 115.6964 81.0980 36.1899 0.0000 0.0000 0.0000
# 2 81.0980 115.6964 36.1899 0.0000 0.0000 0.0000
# 3 36.1899 36.1899 52.3542 0.0000 0.0000 0.0000
# 4 0.0000 0.0000 0.0000 18.6919 0.0000 0.0000
# 5 0.0000 0.0000 0.0000 0.0000 18.6919 0.0000
# 6 0.0000 0.0000 0.0000 0.0000 0.0000 22.0944
#
#
#
# Elastic Compliance Matrix: (Units=1/GPa)
#
#
# Indices 1 2 3 4 5 6 
#
# 1 0.017858 -0.011045 -0.004710 0.000000 0.000000 0.000000
# 2 -0.011045 0.017858 -0.004710 0.000000 0.000000 0.000000
# 3 -0.004710 -0.004710 0.025612 0.000000 0.000000 0.000000
# 4 0.000000 0.000000 0.000000 0.053499 0.000000 0.000000
# 5 0.000000 0.000000 0.000000 0.000000 0.053499 0.000000
# 6 0.000000 0.000000 0.000000 0.000000 0.000000 0.045260
#
#
# Mechanical properties :
#
#
# Convention : Reuss Voigt Hill
#
# Bulk Modulus (GPa) = 49.02025 65.63360 57.32692
# Shear Modulus (GPa) = 19.13384 20.58024 19.85704
#
# Velocity S-wave (km/s) = 3.27442 3.39593 3.33572
# Velocity P-wave (km/s) = 6.46256 7.22182 6.85271
#
# Compressibility (1/GPa) = 0.02039973
#
# Stress axis : x y z
#
# Youngs Moduli (GPa) = 55.99603 55.99603 39.04374
#
# Poissons Ratio (x) = 0.61846 0.18390
# Poissons Ratio (y) = 0.61846 0.18390
# Poissons Ratio (z) = 0.26374 0.26374
#
# Static dielectric constant tensor:
#      x y z
#    x 3.273940 0.000000 0.000000 
#    y 0.000000 3.273940 0.000000 
#    z 0.000000 0.000000 3.196860 
# 
# 
# High freq. dielectric constant tensor:
#      x y z
#    x 1.685540 0.000000 0.000000 
#    y 0.000000 1.685540 0.000000 
#    z 0.000000 0.000000 1.675140 
# 
# From -- ./inp_files/8168.got.cif
#   From: 2010.03.12/outbox.cif.g09.slc.cpg/sg123_5_cif.got.tgz:8168.got - 2010.04.06 16:26:55.
