data_PCOD8312012
_publ_section_title
;
Structure prediction by ZEFSAII (Michael W. Deem and Ramdas Pophale) SiO2 
 PCOD8312012
Probable space group: I -4 2 D
;
_chemical_formula_sum "Si O2"
_cell_formula_units_Z 72
_cell_length_a 16.896175
_cell_length_b 16.896175
_cell_length_c 12.688765
_cell_angle_alpha 90.000000
_cell_angle_beta 90.000000
_cell_angle_gamma 90.000000
_cell_volume 3622.397890
_symmetry_space_group_name_H-M "I -4 2 D"
_symmetry_group_IT_number 122
_symmetry_cell_setting 'tetragonal'
loop_
_space_group_symop_operation_xyz
x,y,z
y,-x,-z
-x,-y,z
-y,x,-z
x,1/2-y,1/4-z
-x,1/2+y,1/4-z
-y,1/2-x,1/4+z
y,1/2+x,1/4+z
1/2+x,1/2+y,1/2+z
1/2+y,1/2-x,1/2-z
1/2-x,1/2-y,1/2+z
1/2-y,1/2+x,1/2-z
1/2+x,-y,3/4-z
1/2-x,y,3/4-z
1/2-y,-x,3/4+z
1/2+y,x,3/4+z
loop_
_atom_site_type_symbol
_atom_site_label
_atom_site_fract_x
_atom_site_fract_y
_atom_site_fract_z
Si Si1 0.818696 0.250000 0.125000
Si Si2 0.292298 0.905733 0.125753
Si Si3 0.262658 0.425778 0.171817
Si Si4 0.816482 0.573485 0.957764
Si Si5 0.907678 0.833323 0.608342
O O1 0.765937 0.170364 0.134239
O O2 0.876234 0.260297 0.225252
O O3 0.371317 0.891113 0.060155
O O4 0.326864 0.936916 0.237897
O O5 0.252135 0.979387 0.064348
O O6 0.352377 0.406898 0.134848
O O7 0.206114 0.403157 0.075943
O O8 0.750000 0.601391 0.875000
O O9 0.837205 0.481482 0.939535
O O10 0.860627 0.750000 0.625000
#
# Coordination Sequence:
#
# PCOD8312012 Si02
#       5
#     8  16  16  16  16
#     4  12  26  40  62  90 124 176 206 250 300 376
#     4  12  22  40  66  91 124 161 211 256 312 370
#     4  12  24  39  62  92 127 161 210 256 307 374
#     4  11  21  37  63  94 120 159 200 261 318 364
#     4  11  19  39  63  92 124 154 201 266 321 354
#
# _framework density 19.876336999999999
#
# number of rings (size 3 to 8) (size 9 to 14) (size 15 to 20)
#    0.000    0.444   10.000    0.000    0.000    2.667 
#    0.000    2.222    0.000    3.333    0.000    0.000 
#    0.000    0.000    0.000    0.000    0.000    0.000 
#
# Total GULP energy -446030.502697 kJ/mol
# GULP energy per Si atom -12389.736186 kJ/mol
# Density = 1.983110 g / cm^3
# Si number density = 19.876337 Si / 1000 Ang^3
#
#
#
# Elastic Constant Matrix: (Units=GPa)
#
#
# Indices 1 2 3 4 5 6 
#
# 1 75.1461 37.1802 42.5457 0.0000 0.0000 0.0000
# 2 37.1802 75.1461 42.5457 0.0000 0.0000 0.0000
# 3 42.5457 42.5457 132.2284 0.0000 0.0000 0.0000
# 4 0.0000 0.0000 0.0000 26.8157 0.0000 0.0000
# 5 0.0000 0.0000 0.0000 0.0000 26.8157 0.0000
# 6 0.0000 0.0000 0.0000 0.0000 0.0000 16.4428
#
#
#
# Elastic Compliance Matrix: (Units=1/GPa)
#
#
# Indices 1 2 3 4 5 6 
#
# 1 0.019056 -0.007284 -0.003788 0.000000 0.000000 0.000000
# 2 -0.007284 0.019056 -0.003788 0.000000 0.000000 0.000000
# 3 -0.003788 -0.003788 0.010000 0.000000 0.000000 0.000000
# 4 0.000000 0.000000 0.000000 0.037292 0.000000 0.000000
# 5 0.000000 0.000000 0.000000 0.000000 0.037292 0.000000
# 6 0.000000 0.000000 0.000000 0.000000 0.000000 0.060817
#
#
# Mechanical properties :
#
#
# Convention : Reuss Voigt Hill
#
# Bulk Modulus (GPa) = 54.36806 58.56264 56.46535
# Shear Modulus (GPa) = 22.79346 24.69810 23.74578
#
# Velocity S-wave (km/s) = 3.39006 3.52886 3.46016
# Velocity P-wave (km/s) = 6.53727 6.79200 6.66585
#
# Compressibility (1/GPa) = 0.01839315
#
# Stress axis : x y z
#
# Youngs Moduli (GPa) = 52.47771 52.47771 99.99853
#
# Poissons Ratio (x) = 0.38223 0.37877
# Poissons Ratio (y) = 0.38223 0.37877
# Poissons Ratio (z) = 0.19877 0.19877
#
# Static dielectric constant tensor:
#      x y z
#    x 3.589140 0.000000 0.000000 
#    y 0.000000 3.589140 0.000000 
#    z 0.000000 0.000000 3.694910 
# 
# 
# High freq. dielectric constant tensor:
#      x y z
#    x 1.766610 0.000000 0.000000 
#    y 0.000000 1.766610 0.000000 
#    z 0.000000 0.000000 1.773920 
# 
# From -- ./inp_files/4176.got.cif
#   From: 2010.03.12/outbox.cif.g09.slc.cpg/sg122_3_cif.got.tgz:4176.got - 2010.04.06 16:17:16.
