data_PCOD8312511
_publ_section_title
;
Structure prediction by ZEFSAII (Michael W. Deem and Ramdas Pophale) SiO2 
 PCOD8312511
Probable space group: P 4/M M M
;
_chemical_formula_sum "Si O2"
_cell_formula_units_Z 80
_cell_length_a 23.289880
_cell_length_b 23.289880
_cell_length_c 9.155018
_cell_angle_alpha 90.000000
_cell_angle_beta 90.000000
_cell_angle_gamma 90.000000
_cell_volume 4965.851226
_symmetry_space_group_name_H-M "P 4/M M M"
_symmetry_group_IT_number 123
_symmetry_cell_setting 'tetragonal'
loop_
_space_group_symop_operation_xyz
x,y,z
-y,x,z
-x,-y,z
y,-x,z
x,-y,-z
-x,y,-z
y,x,-z
-y,-x,-z
-x,-y,-z
y,-x,-z
x,y,-z
-y,x,-z
-x,y,z
x,-y,z
-y,-x,z
y,x,z
loop_
_atom_site_type_symbol
_atom_site_label
_atom_site_fract_x
_atom_site_fract_y
_atom_site_fract_z
Si Si1 0.772438 0.630748 0.326499
Si Si2 0.325487 0.937177 0.828640
Si Si3 0.826344 0.736186 0.830406
Si Si4 0.565048 0.133433 0.171687
Si Si5 0.354468 0.645533 0.670870
Si Si6 0.566231 0.433770 0.838445
O O1 0.779519 0.627753 0.500000
O O2 0.792508 0.692733 0.271518
O O3 0.807260 0.578357 0.254470
O O4 0.707294 0.625092 0.270638
O O5 0.272226 0.894075 0.790012
O O6 0.387369 0.912832 0.774166
O O7 0.314642 0.000000 0.755963
O O8 0.329381 0.945168 0.000000
O O9 0.800866 0.800866 0.802760
O O10 0.817483 0.718966 0.000000
O O11 0.500000 0.112942 0.209776
O O12 0.571502 0.144572 0.000000
O O13 0.349783 0.650218 0.500000
O O14 0.400797 0.599203 0.713832
O O15 0.579581 0.500000 0.816781
O O16 0.586024 0.413977 0.000000
#
# Coordination Sequence:
#
# PCOD8312511 Si02
#       6
#    16  16  16  16   8   8
#     4  10  19  31  45  64  90 114 141 176 216 262
#     4   8  14  25  42  65  90 115 146 185 223 255
#     4   9  16  27  45  67  89 114 144 178 217 257
#     4   9  18  31  45  63  87 116 151 186 220 258
#     4  10  21  33  47  68  88 108 136 170 213 265
#     4   9  20  38  54  66  80 100 130 168 212 263
#
# _framework density 16.110028
#
# number of rings (size 3 to 8) (size 9 to 14) (size 15 to 20)
#    0.000    2.900    1.000    2.100    0.000    3.600 
#    0.000    6.500    0.000    9.600    0.000    5.600 
#    0.000    0.400    0.000    5.600    0.000    0.000 
#
# Total GULP energy -991127.893981 kJ/mol
# GULP energy per Si atom -12389.098675 kJ/mol
# Density = 1.607336 g / cm^3
# Si number density = 16.110028 Si / 1000 Ang^3
#
#
#
# Elastic Constant Matrix: (Units=GPa)
#
#
# Indices 1 2 3 4 5 6 
#
# 1 59.9387 113.4899 15.4801 0.0000 0.0000 0.0000
# 2 113.4899 59.9314 15.4766 0.0000 0.0000 0.0000
# 3 15.4801 15.4766 22.8577 0.0000 0.0000 0.0000
# 4 0.0000 0.0000 0.0000 10.6949 0.0000 0.0000
# 5 0.0000 0.0000 0.0000 0.0000 10.6951 0.0000
# 6 0.0000 0.0000 0.0000 0.0000 0.0000 19.3975
#
#
#
# Elastic Compliance Matrix: (Units=1/GPa)
#
#
# Indices 1 2 3 4 5 6 
#
# 1 -0.006057 0.012616 -0.004440 0.000000 0.000000 0.000000
# 2 0.012616 -0.006057 -0.004443 0.000000 0.000000 0.000000
# 3 -0.004440 -0.004443 0.049764 0.000000 0.000000 0.000000
# 4 0.000000 0.000000 0.000000 0.093503 0.000000 0.000000
# 5 0.000000 0.000000 0.000000 0.000000 0.093501 0.000000
# 6 0.000000 0.000000 0.000000 0.000000 0.000000 0.051553
#
#
# Mechanical properties :
#
#
# Convention : Reuss Voigt Hill
#
# Bulk Modulus (GPa) = 22.16499 47.95787 35.06143
# Shear Modulus (GPa) = 17.61925 8.04291 12.83108
#
# Velocity S-wave (km/s) = 3.31067 2.23681 2.82523
# Velocity P-wave (km/s) = 5.32940 6.04191 5.69680
#
# Compressibility (1/GPa) = 0.04511620
#
# Stress axis : x y z
#
# Youngs Moduli (GPa) = -165.11022 -165.10160 20.09477
#
# Poissons Ratio (x) = 2.08287 0.08922
# Poissons Ratio (y) = 2.08298 0.08928
# Poissons Ratio (z) = -0.73312 -0.73351
#
# Static dielectric constant tensor:
#      x y z
#    x 3.265300 0.000000 0.000000 
#    y 0.000000 3.265300 0.000000 
#    z 0.000000 0.000000 2.851980 
# 
# 
# High freq. dielectric constant tensor:
#      x y z
#    x 1.606180 0.000000 0.000000 
#    y 0.000000 1.606180 0.000000 
#    z 0.000000 0.000000 1.600720 
# 
# From -- ./inp_files/1447.got.cif
#   From: 2010.03.12/outbox.cif.g09.slc.cpg/sg123_1_cif.got.tgz:1447.got - 2010.04.06 16:26:55.
