data_PCOD8312269
_publ_section_title
;
Structure prediction by ZEFSAII (Michael W. Deem and Ramdas Pophale) SiO2 
 PCOD8312269
Probable space group: P 4/M M M
;
_chemical_formula_sum "Si O2"
_cell_formula_units_Z 104
_cell_length_a 26.583693
_cell_length_b 26.583693
_cell_length_c 8.607269
_cell_angle_alpha 90.000000
_cell_angle_beta 90.000000
_cell_angle_gamma 90.000000
_cell_volume 6082.694458
_symmetry_space_group_name_H-M "P 4/M M M"
_symmetry_group_IT_number 123
_symmetry_cell_setting 'tetragonal'
loop_
_space_group_symop_operation_xyz
x,y,z
-y,x,z
-x,-y,z
y,-x,z
x,-y,-z
-x,y,-z
y,x,-z
-y,-x,-z
-x,-y,-z
y,-x,-z
x,y,-z
-y,x,-z
-x,y,z
x,-y,z
-y,-x,z
y,x,z
loop_
_atom_site_type_symbol
_atom_site_label
_atom_site_fract_x
_atom_site_fract_y
_atom_site_fract_z
Si Si1 0.443634 0.000000 0.315129
Si Si2 0.369029 0.286712 0.680150
Si Si3 0.944254 0.267086 0.820554
Si Si4 0.370446 0.913835 0.682801
Si Si5 0.184663 0.662212 0.819234
Si Si6 0.233461 0.152956 0.683029
Si Si7 0.557298 0.361726 0.818833
O O1 0.414996 0.950002 0.256602
O O2 0.500000 0.000000 0.246561
O O3 0.444043 0.000000 0.500000
O O4 0.369520 0.272552 0.500000
O O5 0.322072 0.322072 0.723211
O O6 0.365207 0.236424 0.780020
O O7 0.420572 0.314757 0.723882
O O8 0.940070 0.317515 0.720009
O O9 0.901671 0.227897 0.764161
O O10 0.000000 0.243723 0.795896
O O11 0.934814 0.280702 0.000000
O O12 0.374175 0.904287 0.500000
O O13 0.375041 0.860618 0.770746
O O14 0.180036 0.714471 0.726935
O O15 0.181822 0.674401 0.000000
O O16 0.232133 0.145442 0.500000
O O17 0.187387 0.187387 0.740581
O O18 0.500000 0.370262 0.767063
O O19 0.587437 0.412563 0.777506
O O20 0.561753 0.348936 0.000000
#
# Coordination Sequence:
#
# PCOD8312269 Si02
#       7
#     8  16  16  16  16  16  16
#     4   9  18  32  51  73  93 117 155 203 250 291
#     4  10  20  34  52  73  98 129 165 201 238 286
#     4  10  19  30  47  70  97 128 163 201 240 288
#     4  10  18  31  51  71  93 123 160 202 246 292
#     4  11  21  32  49  72  98 129 162 200 245 294
#     4  10  20  32  47  70 100 131 164 202 243 289
#     4   9  18  33  53  77 103 129 157 191 234 285
#
# _framework density 17.097684999999998
#
# number of rings (size 3 to 8) (size 9 to 14) (size 15 to 20)
#    0.000    2.077    0.769    5.538    0.000    5.385 
#    0.000    1.538    0.000    6.462    0.000    2.154 
#    0.000    0.308    0.000    3.385    0.000    2.462 
#
# Total GULP energy -1289684.385068 kJ/mol
# GULP energy per Si atom -12400.811395 kJ/mol
# Density = 1.705877 g / cm^3
# Si number density = 17.097685 Si / 1000 Ang^3
#
#
#
# Elastic Constant Matrix: (Units=GPa)
#
#
# Indices 1 2 3 4 5 6 
#
# 1 120.9976 55.1620 21.5449 0.0000 0.0000 0.0000
# 2 55.1620 120.9976 21.5449 0.0000 0.0000 0.0000
# 3 21.5449 21.5449 43.1422 0.0000 0.0000 0.0000
# 4 0.0000 0.0000 0.0000 22.3112 0.0000 0.0000
# 5 0.0000 0.0000 0.0000 0.0000 22.3112 0.0000
# 6 0.0000 0.0000 0.0000 0.0000 0.0000 25.3398
#
#
#
# Elastic Compliance Matrix: (Units=1/GPa)
#
#
# Indices 1 2 3 4 5 6 
#
# 1 0.010828 -0.004361 -0.003229 0.000000 0.000000 0.000000
# 2 -0.004361 0.010828 -0.003229 0.000000 0.000000 0.000000
# 3 -0.003229 -0.003229 0.026405 0.000000 0.000000 0.000000
# 4 0.000000 0.000000 0.000000 0.044821 0.000000 0.000000
# 5 0.000000 0.000000 0.000000 0.000000 0.044821 0.000000
# 6 0.000000 0.000000 0.000000 0.000000 0.000000 0.039464
#
#
# Mechanical properties :
#
#
# Convention : Reuss Voigt Hill
#
# Bulk Modulus (GPa) = 37.84967 53.51566 45.68266
# Shear Modulus (GPa) = 24.08336 26.45148 25.26742
#
# Velocity S-wave (km/s) = 3.75717 3.93756 3.84842
# Velocity P-wave (km/s) = 6.40368 7.21390 6.82083
#
# Compressibility (1/GPa) = 0.02642031
#
# Stress axis : x y z
#
# Youngs Moduli (GPa) = 92.35333 92.35333 37.87224
#
# Poissons Ratio (x) = 0.40279 0.12230
# Poissons Ratio (y) = 0.40279 0.12230
# Poissons Ratio (z) = 0.29824 0.29824
#
# Static dielectric constant tensor:
#      x y z
#    x 3.253580 0.000000 0.000000 
#    y 0.000000 3.253580 0.000000 
#    z 0.000000 0.000000 3.195090 
# 
# 
# High freq. dielectric constant tensor:
#      x y z
#    x 1.646750 0.000000 0.000000 
#    y 0.000000 1.646750 0.000000 
#    z 0.000000 0.000000 1.666510 
# 
# From -- ./inp_files/1946.got.cif
#   From: 2010.03.12/outbox.cif.g09.slc.cpg/sg123_1_cif.got.tgz:1946.got - 2010.04.06 16:26:55.
