data_PCOD8312636
_publ_section_title
;
Structure prediction by ZEFSAII (Michael W. Deem and Ramdas Pophale) SiO2 
 PCOD8312636
Probable space group: P 4/M M M
;
_chemical_formula_sum "Si O2"
_cell_formula_units_Z 104
_cell_length_a 26.223243
_cell_length_b 26.223243
_cell_length_c 8.910708
_cell_angle_alpha 90.000000
_cell_angle_beta 90.000000
_cell_angle_gamma 90.000000
_cell_volume 6127.523861
_symmetry_space_group_name_H-M "P 4/M M M"
_symmetry_group_IT_number 123
_symmetry_cell_setting 'tetragonal'
loop_
_space_group_symop_operation_xyz
x,y,z
-y,x,z
-x,-y,z
y,-x,z
x,-y,-z
-x,y,-z
y,x,-z
-y,-x,-z
-x,-y,-z
y,-x,-z
x,y,-z
-y,x,-z
-x,y,z
x,-y,z
-y,-x,z
y,x,z
loop_
_atom_site_type_symbol
_atom_site_label
_atom_site_fract_x
_atom_site_fract_y
_atom_site_fract_z
Si Si1 0.439925 0.000000 0.170077
Si Si2 0.444614 0.365993 0.677994
Si Si3 0.738061 0.943428 0.327423
Si Si4 0.161653 0.755834 0.822164
Si Si5 0.443072 0.748696 0.322585
Si Si6 0.917320 0.377199 0.326758
Si Si7 0.357501 0.184600 0.824008
O O1 0.422004 0.951829 0.264595
O O2 0.500000 0.000000 0.163845
O O3 0.417519 0.000000 0.000000
O O4 0.439435 0.365986 0.500000
O O5 0.500000 0.387408 0.725063
O O6 0.401694 0.401694 0.752671
O O7 0.438440 0.308795 0.736445
O O8 0.753132 0.935576 0.500000
O O9 0.763472 0.896169 0.238488
O O10 0.677258 0.944218 0.307535
O O11 0.757240 0.000000 0.272482
O O12 0.198278 0.801723 0.764786
O O13 0.186053 0.701785 0.767452
O O14 0.157699 0.756252 0.000000
O O15 0.437698 0.753055 0.500000
O O16 0.500000 0.769821 0.275951
O O17 0.393859 0.774266 0.250514
O O18 0.903052 0.387531 0.500000
O O19 0.868749 0.381155 0.221663
O O20 0.359480 0.192646 0.000000
#
# Coordination Sequence:
#
# PCOD8312636 Si02
#       7
#     8  16  16  16  16  16  16
#     4  11  23  35  47  67  95 123 155 201 250 293
#     4   8  14  25  42  65  91 116 144 182 229 283
#     4   9  17  31  51  75  99 125 162 204 241 283
#     4   9  19  34  49  71 104 135 164 201 245 294
#     4   9  18  32  47  64  89 121 156 195 239 291
#     4  10  19  34  52  69  91 121 158 200 243 291
#     4  10  20  33  50  71  93 124 162 203 248 290
#
# _framework density 16.972597
#
# number of rings (size 3 to 8) (size 9 to 14) (size 15 to 20)
#    0.000    2.692    0.769    2.077    0.000    4.154 
#    0.000    0.769    0.000    0.000    0.000    0.000 
#    0.000    0.308    0.000    6.769    0.000    5.846 
#
# Total GULP energy -1288637.073503 kJ/mol
# GULP energy per Si atom -12390.741091 kJ/mol
# Density = 1.693397 g / cm^3
# Si number density = 16.972597 Si / 1000 Ang^3
#
#
#
# Elastic Constant Matrix: (Units=GPa)
#
#
# Indices 1 2 3 4 5 6 
#
# 1 102.3292 67.7305 24.4691 0.0000 0.0000 0.0000
# 2 67.7305 102.3292 24.4691 0.0000 0.0000 0.0000
# 3 24.4691 24.4691 27.4487 0.0000 0.0000 0.0000
# 4 0.0000 0.0000 0.0000 19.7970 0.0000 0.0000
# 5 0.0000 0.0000 0.0000 0.0000 19.7970 0.0000
# 6 0.0000 0.0000 0.0000 0.0000 0.0000 39.7983
#
#
#
# Elastic Compliance Matrix: (Units=1/GPa)
#
#
# Indices 1 2 3 4 5 6 
#
# 1 0.018406 -0.010497 -0.007051 0.000000 0.000000 0.000000
# 2 -0.010497 0.018406 -0.007051 0.000000 0.000000 0.000000
# 3 -0.007051 -0.007051 0.049002 0.000000 0.000000 0.000000
# 4 0.000000 0.000000 0.000000 0.050513 0.000000 0.000000
# 5 0.000000 0.000000 0.000000 0.000000 0.050513 0.000000
# 6 0.000000 0.000000 0.000000 0.000000 0.000000 0.025127
#
#
# Mechanical properties :
#
#
# Convention : Reuss Voigt Hill
#
# Bulk Modulus (GPa) = 27.30901 51.71606 39.51254
# Shear Modulus (GPa) = 18.29033 23.57437 20.93235
#
# Velocity S-wave (km/s) = 3.28630 3.73093 3.51565
# Velocity P-wave (km/s) = 5.52492 7.00687 6.30955
#
# Compressibility (1/GPa) = 0.03661796
#
# Stress axis : x y z
#
# Youngs Moduli (GPa) = 54.32998 54.32998 20.40727
#
# Poissons Ratio (x) = 0.57029 0.14389
# Poissons Ratio (y) = 0.57029 0.14389
# Poissons Ratio (z) = 0.38306 0.38306
#
# Static dielectric constant tensor:
#      x y z
#    x 3.094500 0.000000 0.000000 
#    y 0.000000 3.094500 0.000000 
#    z 0.000000 0.000000 3.042070 
# 
# 
# High freq. dielectric constant tensor:
#      x y z
#    x 1.645570 0.000000 0.000000 
#    y 0.000000 1.645570 0.000000 
#    z 0.000000 0.000000 1.640140 
# 
# From -- ./inp_files/1913.got.cif
#   From: 2010.03.12/outbox.cif.g09.slc.cpg/sg123_1_cif.got.tgz:1913.got - 2010.04.06 16:26:55.
