data_PCOD8312887
_publ_section_title
;
Structure prediction by ZEFSAII (Michael W. Deem and Ramdas Pophale) SiO2 
 PCOD8312887
Probable space group: P 4/M M M
;
_chemical_formula_sum "Si O2"
_cell_formula_units_Z 88
_cell_length_a 13.343360
_cell_length_b 13.343360
_cell_length_c 27.726090
_cell_angle_alpha 90.000000
_cell_angle_beta 90.000000
_cell_angle_gamma 90.000000
_cell_volume 4936.498794
_symmetry_space_group_name_H-M "P 4/M M M"
_symmetry_group_IT_number 123
_symmetry_cell_setting 'tetragonal'
loop_
_space_group_symop_operation_xyz
x,y,z
-y,x,z
-x,-y,z
y,-x,z
x,-y,-z
-x,y,-z
y,x,-z
-y,-x,-z
-x,-y,-z
y,-x,-z
x,y,-z
-y,x,-z
-x,y,z
x,-y,z
-y,-x,z
y,x,z
loop_
_atom_site_type_symbol
_atom_site_label
_atom_site_fract_x
_atom_site_fract_y
_atom_site_fract_z
Si Si1 0.385494 0.779044 0.000000
Si Si2 0.116186 0.719766 0.637996
Si Si3 0.276966 0.115260 0.191938
Si Si4 0.614951 0.223446 0.444816
Si Si5 0.780310 0.383828 0.724917
Si Si6 0.885365 0.276566 0.918088
O O1 0.363764 0.844498 0.952441
O O2 0.500000 0.746631 0.000000
O O3 0.322557 0.677444 0.000000
O O4 0.176143 0.823858 0.640952
O O5 0.136766 0.662727 0.587832
O O6 0.147216 0.646972 0.681373
O O7 0.000000 0.746384 0.641693
O O8 0.172057 0.172057 0.201269
O O9 0.363314 0.162142 0.225063
O O10 0.313124 0.127983 0.136884
O O11 0.258434 0.000000 0.205475
O O12 0.626114 0.188075 0.500000
O O13 0.500000 0.241665 0.430598
O O14 0.671722 0.328279 0.435429
O O15 0.753507 0.500000 0.721304
O O16 0.676296 0.323705 0.722167
O O17 0.826079 0.173922 0.928126
O O18 0.000000 0.253491 0.930433
#
# Coordination Sequence:
#
# PCOD8312887 Si02
#       6
#     8  16  16  16  16  16
#     4  10  21  36  52  70  94 124 161 206 250 292
#     4  10  21  36  53  74 100 129 163 203 245 291
#     4   9  18  32  50  74 103 133 165 200 238 283
#     4   9  18  32  50  74 103 133 166 204 245 290
#     4  10  21  36  53  74 100 129 163 203 245 290
#     4   9  18  32  50  74 103 132 162 197 238 286
#
# _framework density 17.826401000000001
#
# number of rings (size 3 to 8) (size 9 to 14) (size 15 to 20)
#    0.000    2.545    0.000    1.364    0.000    5.364 
#    0.000    5.455    0.000    8.182    0.000    7.636 
#    0.000    0.000    0.000    0.000    0.000    0.000 
#
# Total GULP energy -1091399.738114 kJ/mol
# GULP energy per Si atom -12402.269751 kJ/mol
# Density = 1.778583 g / cm^3
# Si number density = 17.826401 Si / 1000 Ang^3
#
#
#
# Elastic Constant Matrix: (Units=GPa)
#
#
# Indices 1 2 3 4 5 6 
#
# 1 130.0663 49.4591 55.8696 0.0000 0.0000 0.0000
# 2 49.4591 130.0655 55.8695 0.0000 0.0000 0.0000
# 3 55.8696 55.8695 100.8904 0.0000 0.0000 0.0000
# 4 0.0000 0.0000 0.0000 24.1049 0.0000 0.0000
# 5 0.0000 0.0000 0.0000 0.0000 24.1048 0.0000
# 6 0.0000 0.0000 0.0000 0.0000 0.0000 10.8960
#
#
#
# Elastic Compliance Matrix: (Units=1/GPa)
#
#
# Indices 1 2 3 4 5 6 
#
# 1 0.010453 -0.001953 -0.004707 0.000000 0.000000 0.000000
# 2 -0.001953 0.010453 -0.004707 0.000000 0.000000 0.000000
# 3 -0.004707 -0.004707 0.015125 0.000000 0.000000 0.000000
# 4 0.000000 0.000000 0.000000 0.041485 0.000000 0.000000
# 5 0.000000 0.000000 0.000000 0.000000 0.041485 0.000000
# 6 0.000000 0.000000 0.000000 0.000000 0.000000 0.091777
#
#
# Mechanical properties :
#
#
# Convention : Reuss Voigt Hill
#
# Bulk Modulus (GPa) = 75.20569 75.93538 75.57054
# Shear Modulus (GPa) = 21.01329 25.14274 23.07801
#
# Velocity S-wave (km/s) = 3.43705 3.75963 3.60195
# Velocity P-wave (km/s) = 7.61778 7.84449 7.73197
#
# Compressibility (1/GPa) = 0.01329687
#
# Stress axis : x y z
#
# Youngs Moduli (GPa) = 95.66735 95.66666 66.11632
#
# Poissons Ratio (x) = 0.18683 0.31121
# Poissons Ratio (y) = 0.18684 0.31121
# Poissons Ratio (z) = 0.45030 0.45030
#
# Static dielectric constant tensor:
#      x y z
#    x 3.144650 0.000000 0.000000 
#    y 0.000000 3.144650 0.000000 
#    z 0.000000 0.000000 3.578200 
# 
# 
# High freq. dielectric constant tensor:
#      x y z
#    x 1.680080 0.000000 0.000000 
#    y 0.000000 1.680080 0.000000 
#    z 0.000000 0.000000 1.709060 
# 
# From -- ./inp_files/8503.got.cif
#   From: 2010.03.12/outbox.cif.g09.slc.cpg/sg123_5_cif.got.tgz:8503.got - 2010.04.06 16:26:55.
