data_PCOD8312820
_publ_section_title
;
Structure prediction by ZEFSAII (Michael W. Deem and Ramdas Pophale) SiO2 
 PCOD8312820
Probable space group: P 4/M M M
;
_chemical_formula_sum "Si O2"
_cell_formula_units_Z 84
_cell_length_a 12.625405
_cell_length_b 12.625405
_cell_length_c 29.100040
_cell_angle_alpha 90.000000
_cell_angle_beta 90.000000
_cell_angle_gamma 90.000000
_cell_volume 4638.571152
_symmetry_space_group_name_H-M "P 4/M M M"
_symmetry_group_IT_number 123
_symmetry_cell_setting 'tetragonal'
loop_
_space_group_symop_operation_xyz
x,y,z
-y,x,z
-x,-y,z
y,-x,z
x,-y,-z
-x,y,-z
y,x,-z
-y,-x,-z
-x,-y,-z
y,-x,-z
x,y,-z
-y,x,-z
-x,y,z
x,-y,z
-y,-x,z
y,x,z
loop_
_atom_site_type_symbol
_atom_site_label
_atom_site_fract_x
_atom_site_fract_y
_atom_site_fract_z
Si Si1 0.618566 0.791487 0.133610
Si Si2 0.708221 0.117105 0.500000
Si Si3 0.000000 0.815185 0.000000
Si Si4 0.880536 0.291013 0.674783
Si Si5 0.791259 0.616395 0.588322
Si Si6 0.623943 0.000000 0.073775
Si Si7 0.877476 0.708903 0.777119
O O1 0.500000 0.747808 0.125978
O O2 0.700379 0.700379 0.118226
O O3 0.630373 0.821267 0.187196
O O4 0.638842 0.895574 0.103850
O O5 0.808034 0.191967 0.500000
O O6 0.638345 0.132388 0.545474
O O7 0.754537 0.000000 0.500000
O O8 0.105924 0.894077 0.000000
O O9 0.000000 0.727903 0.959016
O O10 0.812132 0.187869 0.664454
O O11 0.855889 0.377842 0.636112
O O12 0.859528 0.338395 0.725846
O O13 0.000000 0.251803 0.670950
O O14 0.744310 0.500000 0.583525
O O15 0.691687 0.691687 0.588009
O O16 0.500000 0.000000 0.053218
O O17 0.825505 0.825505 0.780600
O O18 0.000000 0.721439 0.789615
#
# Coordination Sequence:
#
# PCOD8312820 Si02
#       7
#    16   8   4  16  16   8  16
#     4  10  20  34  53  77 107 142 181 225 270 318
#     4  10  21  36  54  76 102 128 157 194 238 294
#     4  11  23  38  58  86 121 153 180 220 274 327
#     4   9  18  31  48  72 101 132 168 209 253 305
#     4  10  21  36  52  72  96 124 162 207 254 304
#     4  10  20  37  60  83 109 145 189 229 267 314
#     4   9  17  30  48  72 103 137 174 216 261 313
#
# _framework density 18.109026
#
# number of rings (size 3 to 8) (size 9 to 14) (size 15 to 20)
#    0.000    2.333    0.952    1.571    0.000    3.524 
#    0.000    3.810    0.000    5.143    0.000    5.333 
#    0.000    6.857    0.000    0.000    0.000    0.000 
#
# Total GULP energy -1040838.595360 kJ/mol
# GULP energy per Si atom -12390.935659 kJ/mol
# Density = 1.806781 g / cm^3
# Si number density = 18.109026 Si / 1000 Ang^3
#
#
#
# Elastic Constant Matrix: (Units=GPa)
#
#
# Indices 1 2 3 4 5 6 
#
# 1 107.7366 52.0959 46.6084 0.0000 0.0000 0.0000
# 2 52.0959 107.7322 46.6073 0.0000 0.0000 0.0000
# 3 46.6084 46.6073 102.5360 0.0000 0.0000 0.0000
# 4 0.0000 0.0000 0.0000 17.9974 0.0000 0.0000
# 5 0.0000 0.0000 0.0000 0.0000 17.9978 0.0000
# 6 0.0000 0.0000 0.0000 0.0000 0.0000 13.7467
#
#
#
# Elastic Compliance Matrix: (Units=1/GPa)
#
#
# Indices 1 2 3 4 5 6 
#
# 1 0.013243 -0.004730 -0.003870 0.000000 0.000000 0.000000
# 2 -0.004730 0.013244 -0.003870 0.000000 0.000000 0.000000
# 3 -0.003870 -0.003870 0.013271 0.000000 0.000000 0.000000
# 4 0.000000 0.000000 0.000000 0.055563 0.000000 0.000000
# 5 0.000000 0.000000 0.000000 0.000000 0.055562 0.000000
# 6 0.000000 0.000000 0.000000 0.000000 0.000000 0.072745
#
#
# Mechanical properties :
#
#
# Convention : Reuss Voigt Hill
#
# Bulk Modulus (GPa) = 67.48313 67.62533 67.55423
# Shear Modulus (GPa) = 19.72335 21.46127 20.59231
#
# Velocity S-wave (km/s) = 3.30380 3.44628 3.37579
# Velocity P-wave (km/s) = 7.20411 7.29797 7.25119
#
# Compressibility (1/GPa) = 0.01481852
#
# Stress axis : x y z
#
# Youngs Moduli (GPa) = 75.51089 75.50790 75.35355
#
# Poissons Ratio (x) = 0.35714 0.29161
# Poissons Ratio (y) = 0.35715 0.29161
# Poissons Ratio (z) = 0.29222 0.29221
#
# Static dielectric constant tensor:
#      x y z
#    x 3.299660 0.000000 0.000000 
#    y 0.000000 3.299660 0.000000 
#    z 0.000000 0.000000 3.702040 
# 
# 
# High freq. dielectric constant tensor:
#      x y z
#    x 1.695300 0.000000 0.000000 
#    y 0.000000 1.695300 0.000000 
#    z 0.000000 0.000000 1.710870 
# 
# From -- ./inp_files/8557.got.cif
#   From: 2010.03.12/outbox.cif.g09.slc.cpg/sg123_5_cif.got.tgz:8557.got - 2010.04.06 16:26:55.
