data_PCOD8312420
_publ_section_title
;
Structure prediction by ZEFSAII (Michael W. Deem and Ramdas Pophale) SiO2 
 PCOD8312420
Probable space group: P 4/M M M
;
_chemical_formula_sum "Si O2"
_cell_formula_units_Z 96
_cell_length_a 14.134301
_cell_length_b 14.134301
_cell_length_c 31.026101
_cell_angle_alpha 90.000000
_cell_angle_beta 90.000000
_cell_angle_gamma 90.000000
_cell_volume 6198.346825
_symmetry_space_group_name_H-M "P 4/M M M"
_symmetry_group_IT_number 123
_symmetry_cell_setting 'tetragonal'
loop_
_space_group_symop_operation_xyz
x,y,z
-y,x,z
-x,-y,z
y,-x,z
x,-y,-z
-x,y,-z
y,x,-z
-y,-x,-z
-x,-y,-z
y,-x,-z
x,y,-z
-y,x,-z
-x,y,z
x,-y,z
-y,-x,z
y,x,z
loop_
_atom_site_type_symbol
_atom_site_label
_atom_site_fract_x
_atom_site_fract_y
_atom_site_fract_z
Si Si1 0.394556 0.888321 0.419881
Si Si2 0.741875 0.106666 0.000000
Si Si3 0.265866 0.889413 0.906626
Si Si4 0.891207 0.737187 0.656266
Si Si5 0.738541 0.891377 0.753910
Si Si6 0.887490 0.732498 0.500000
Si Si7 0.604746 0.112210 0.170737
O O1 0.500000 0.843131 0.423227
O O2 0.347275 0.856823 0.374776
O O3 0.328297 0.854417 0.458842
O O4 0.404714 0.000000 0.422079
O O5 0.687606 0.128019 0.045330
O O6 0.839439 0.160562 0.000000
O O7 0.775184 0.000000 0.000000
O O8 0.168800 0.831201 0.901106
O O9 0.341246 0.852022 0.871908
O O10 0.242317 0.000000 0.899051
O O11 0.831237 0.831237 0.647055
O O12 0.877733 0.700971 0.705196
O O13 0.000000 0.764409 0.646810
O O14 0.834828 0.834828 0.761827
O O15 0.658207 0.853205 0.786202
O O16 0.763294 0.000000 0.763750
O O17 0.832438 0.832438 0.500000
O O18 0.000000 0.753803 0.500000
O O19 0.500000 0.157262 0.170849
O O20 0.597511 0.000000 0.170391
#
# Coordination Sequence:
#
# PCOD8312420 Si02
#       7
#    16   8  16  16  16   8  16
#     4   9  17  29  44  61  83 113 147 180 211 239
#     4   8  14  23  35  53  77 105 134 162 193 229
#     4   9  16  26  40  58  81 107 134 164 197 235
#     4   9  17  28  42  62  88 115 141 169 201 241
#     4   9  17  28  42  61  85 112 140 169 201 239
#     4  10  19  30  45  65  90 118 145 173 206 247
#     4   9  17  28  40  54  75 105 139 172 205 239
#
# _framework density 15.488
#
# number of rings (size 3 to 8) (size 9 to 14) (size 15 to 20)
#    0.000    3.000    0.000    1.250    0.000    2.333 
#    0.000    7.083    0.000    8.500    0.000    0.000 
#    0.000   19.000    0.000   14.667    0.000   20.000 
#
# Total GULP energy -1189633.465408 kJ/mol
# GULP energy per Si atom -12392.015265 kJ/mol
# Density = 1.545275 g / cm^3
# Si number density = 15.488000 Si / 1000 Ang^3
#
#
#
# Elastic Constant Matrix: (Units=GPa)
#
#
# Indices 1 2 3 4 5 6 
#
# 1 69.5694 35.2461 52.1369 0.0000 0.0000 0.0000
# 2 35.2461 69.5694 52.1369 0.0000 0.0000 0.0000
# 3 52.1369 52.1369 137.0698 0.0000 0.0000 0.0000
# 4 0.0000 0.0000 0.0000 19.1211 0.0000 0.0000
# 5 0.0000 0.0000 0.0000 0.0000 19.1210 0.0000
# 6 0.0000 0.0000 0.0000 0.0000 0.0000 4.1572
#
#
#
# Elastic Compliance Matrix: (Units=1/GPa)
#
#
# Indices 1 2 3 4 5 6 
#
# 1 0.022242 -0.006893 -0.005838 0.000000 0.000000 0.000000
# 2 -0.006893 0.022242 -0.005838 0.000000 0.000000 0.000000
# 3 -0.005838 -0.005838 0.011737 0.000000 0.000000 0.000000
# 4 0.000000 0.000000 0.000000 0.052298 0.000000 0.000000
# 5 0.000000 0.000000 0.000000 0.000000 0.052299 0.000000
# 6 0.000000 0.000000 0.000000 0.000000 0.000000 0.240547
#
#
# Mechanical properties :
#
#
# Convention : Reuss Voigt Hill
#
# Bulk Modulus (GPa) = 52.40692 61.69428 57.05060
# Shear Modulus (GPa) = 11.23941 17.59244 14.41592
#
# Velocity S-wave (km/s) = 2.69678 3.37393 3.05418
# Velocity P-wave (km/s) = 6.60359 7.42280 7.02515
#
# Compressibility (1/GPa) = 0.01908145
#
# Stress axis : x y z
#
# Youngs Moduli (GPa) = 44.96086 44.96081 85.20242
#
# Poissons Ratio (x) = 0.30992 0.49741
# Poissons Ratio (y) = 0.30992 0.49742
# Poissons Ratio (z) = 0.26248 0.26248
#
# Static dielectric constant tensor:
#      x y z
#    x 2.786430 0.000000 0.000000 
#    y 0.000000 2.786430 0.000000 
#    z 0.000000 0.000000 3.402450 
# 
# 
# High freq. dielectric constant tensor:
#      x y z
#    x 1.558930 0.000000 0.000000 
#    y 0.000000 1.558930 0.000000 
#    z 0.000000 0.000000 1.621160 
# 
# From -- ./inp_files/8673.got.cif
#   From: 2010.03.12/outbox.cif.g09.slc.cpg/sg123_5_cif.got.tgz:8673.got - 2010.04.06 16:26:55.
