data_PCOD8312252
_publ_section_title
;
Structure prediction by ZEFSAII (Michael W. Deem and Ramdas Pophale) SiO2 
 PCOD8312252
Probable space group: P 4/M M M
;
_chemical_formula_sum "Si O2"
_cell_formula_units_Z 96
_cell_length_a 20.230721
_cell_length_b 20.230721
_cell_length_c 13.927615
_cell_angle_alpha 90.000000
_cell_angle_beta 90.000000
_cell_angle_gamma 90.000000
_cell_volume 5700.323128
_symmetry_space_group_name_H-M "P 4/M M M"
_symmetry_group_IT_number 123
_symmetry_cell_setting 'tetragonal'
loop_
_space_group_symop_operation_xyz
x,y,z
-y,x,z
-x,-y,z
y,-x,z
x,-y,-z
-x,y,-z
y,x,-z
-y,-x,-z
-x,-y,-z
y,-x,-z
x,y,-z
-y,x,-z
-x,y,z
x,-y,z
-y,-x,z
y,x,z
loop_
_atom_site_type_symbol
_atom_site_label
_atom_site_fract_x
_atom_site_fract_y
_atom_site_fract_z
Si Si1 0.673502 0.428284 0.387157
Si Si2 0.658730 0.765565 0.729403
Si Si3 0.851534 0.257088 0.392922
Si Si4 0.186147 0.077406 0.761696
Si Si5 0.925800 0.307370 0.110238
Si Si6 0.826964 0.423000 0.110316
O O1 0.679129 0.434369 0.500000
O O2 0.677529 0.500000 0.337982
O O3 0.603792 0.396209 0.356343
O O4 0.733011 0.382599 0.355064
O O5 0.720243 0.720243 0.763482
O O6 0.683035 0.834619 0.680990
O O7 0.609771 0.772754 0.820306
O O8 0.873525 0.280954 0.500000
O O9 0.784736 0.215265 0.402761
O O10 0.909763 0.212344 0.346776
O O11 0.120115 0.120115 0.782735
O O12 0.244551 0.103469 0.832201
O O13 0.169337 0.000000 0.775995
O O14 0.891355 0.377898 0.127695
O O15 0.000000 0.318929 0.145585
O O16 0.921199 0.286365 0.000000
O O17 0.841209 0.500000 0.136904
O O18 0.802680 0.418012 0.000000
#
# Coordination Sequence:
#
# PCOD8312252 Si02
#       6
#    16  16  16  16  16  16
#     4   9  17  28  43  64  90 122 159 200 247 296
#     4  10  18  30  47  68  96 128 164 203 245 295
#     4   9  17  30  49  72  96 125 164 209 253 296
#     4  10  20  34  52  76 104 134 169 207 249 298
#     4   9  18  33  52  73  97 127 164 203 245 296
#     4  10  20  32  48  73 102 128 158 200 248 295
#
# _framework density 16.841149999999999
#
# number of rings (size 3 to 8) (size 9 to 14) (size 15 to 20)
#    0.000    2.500    1.667    1.000    0.000    3.667 
#    0.000    4.167    0.000    0.000    0.000    4.667 
#    0.000    2.667    0.000   15.500    0.000    0.333 
#
# Total GULP energy -1189495.938314 kJ/mol
# GULP energy per Si atom -12390.582691 kJ/mol
# Density = 1.680282 g / cm^3
# Si number density = 16.841150 Si / 1000 Ang^3
#
#
#
# Elastic Constant Matrix: (Units=GPa)
#
#
# Indices 1 2 3 4 5 6 
#
# 1 88.0913 43.8315 32.0706 0.0000 0.0000 0.0000
# 2 43.8315 88.0913 32.0706 0.0000 0.0000 0.0000
# 3 32.0706 32.0706 58.9578 0.0000 0.0000 0.0000
# 4 0.0000 0.0000 0.0000 22.6098 0.0000 0.0000
# 5 0.0000 0.0000 0.0000 0.0000 22.6098 0.0000
# 6 0.0000 0.0000 0.0000 0.0000 0.0000 20.2178
#
#
#
# Elastic Compliance Matrix: (Units=1/GPa)
#
#
# Indices 1 2 3 4 5 6 
#
# 1 0.016450 -0.006144 -0.005606 0.000000 0.000000 0.000000
# 2 -0.006144 0.016450 -0.005606 0.000000 0.000000 0.000000
# 3 -0.005606 -0.005606 0.023060 0.000000 0.000000 0.000000
# 4 0.000000 0.000000 0.000000 0.044229 0.000000 0.000000
# 5 0.000000 0.000000 0.000000 0.000000 0.044229 0.000000
# 6 0.000000 0.000000 0.000000 0.000000 0.000000 0.049461
#
#
# Mechanical properties :
#
#
# Convention : Reuss Voigt Hill
#
# Bulk Modulus (GPa) = 47.06333 50.12065 48.59199
# Shear Modulus (GPa) = 21.21585 21.56532 21.39058
#
# Velocity S-wave (km/s) = 3.55316 3.58231 3.56777
# Velocity P-wave (km/s) = 6.69622 6.85099 6.77405
#
# Compressibility (1/GPa) = 0.02124796
#
# Stress axis : x y z
#
# Youngs Moduli (GPa) = 60.79084 60.79084 43.36494
#
# Poissons Ratio (x) = 0.37350 0.24310
# Poissons Ratio (y) = 0.37350 0.24310
# Poissons Ratio (z) = 0.34079 0.34079
#
# Static dielectric constant tensor:
#      x y z
#    x 3.162120 0.000000 0.000000 
#    y 0.000000 3.162120 0.000000 
#    z 0.000000 0.000000 3.235650 
# 
# 
# High freq. dielectric constant tensor:
#      x y z
#    x 1.638300 0.000000 0.000000 
#    y 0.000000 1.638300 0.000000 
#    z 0.000000 0.000000 1.648700 
# 
# From -- ./inp_files/4366.got.cif
#   From: 2010.03.12/outbox.cif.g09.slc.cpg/sg123_3_cif.got.tgz:4366.got - 2010.04.06 16:26:55.
