data_PCOD8312930
_publ_section_title
;
Structure prediction by ZEFSAII (Michael W. Deem and Ramdas Pophale) SiO2 
 PCOD8312930
Probable space group: P 4/M M M
;
_chemical_formula_sum "Si O2"
_cell_formula_units_Z 56
_cell_length_a 17.749179
_cell_length_b 17.749179
_cell_length_c 8.878591
_cell_angle_alpha 90.000000
_cell_angle_beta 90.000000
_cell_angle_gamma 90.000000
_cell_volume 2797.052312
_symmetry_space_group_name_H-M "P 4/M M M"
_symmetry_group_IT_number 123
_symmetry_cell_setting 'tetragonal'
loop_
_space_group_symop_operation_xyz
x,y,z
-y,x,z
-x,-y,z
y,-x,z
x,-y,-z
-x,y,-z
y,x,-z
-y,-x,-z
-x,-y,-z
y,-x,-z
x,y,-z
-y,x,-z
-x,y,z
x,-y,z
-y,-x,z
y,x,z
loop_
_atom_site_type_symbol
_atom_site_label
_atom_site_fract_x
_atom_site_fract_y
_atom_site_fract_z
Si Si1 0.290784 0.586737 0.674703
Si Si2 0.203091 0.914406 0.673990
Si Si3 0.654347 0.143826 0.822225
Si Si4 0.412579 0.000000 0.333950
O O1 0.268949 0.594470 0.500000
O O2 0.306740 0.500000 0.718058
O O3 0.365913 0.634088 0.712709
O O4 0.221758 0.618120 0.770494
O O5 0.227063 0.911267 0.500000
O O6 0.119450 0.880551 0.696294
O O7 0.259721 0.862298 0.768029
O O8 0.204249 0.000000 0.734526
O O9 0.608954 0.074056 0.755987
O O10 0.650660 0.140133 0.000000
O O11 0.500000 0.000000 0.357606
O O12 0.373438 0.000000 0.500000
#
# Coordination Sequence:
#
# PCOD8312930 Si02
#       4
#    16  16  16   8
#     4  10  22  41  65  92 123 162 208 257 309 365
#     4  10  21  38  61  87 118 159 205 251 300 356
#     4  12  24  38  59  90 125 161 201 247 302 365
#     4  11  23  39  61  87 118 157 198 245 301 360
#
# _framework density 20.021076999999998
#
# number of rings (size 3 to 8) (size 9 to 14) (size 15 to 20)
#    0.000    1.286    1.429    4.714    0.000   10.286 
#    0.000    2.857    0.000    0.000    0.000    4.000 
#    0.000    0.000    0.000    0.000    0.000    0.000 
#
# Total GULP energy -694517.027524 kJ/mol
# GULP energy per Si atom -12402.089777 kJ/mol
# Density = 1.997551 g / cm^3
# Si number density = 20.021077 Si / 1000 Ang^3
#
#
#
# Elastic Constant Matrix: (Units=GPa)
#
#
# Indices 1 2 3 4 5 6 
#
# 1 129.0130 85.5482 64.0023 0.0000 0.0000 0.0000
# 2 85.5482 129.0130 64.0023 0.0000 0.0000 0.0000
# 3 64.0023 64.0023 126.2713 0.0000 0.0000 0.0000
# 4 0.0000 0.0000 0.0000 -0.2287 0.0000 0.0000
# 5 0.0000 0.0000 0.0000 0.0000 -0.2287 0.0000
# 6 0.0000 0.0000 0.0000 0.0000 0.0000 193.9598
#
#
#
# Elastic Compliance Matrix: (Units=1/GPa)
#
#
# Indices 1 2 3 4 5 6 
#
# 1 0.014844 -0.008163 -0.003386 0.000000 0.000000 0.000000
# 2 -0.008163 0.014844 -0.003386 0.000000 0.000000 0.000000
# 3 -0.003386 -0.003386 0.011352 0.000000 0.000000 0.000000
# 4 0.000000 0.000000 0.000000 -4.371790 0.000000 0.000000
# 5 0.000000 0.000000 0.000000 0.000000 -4.371790 0.000000
# 6 0.000000 0.000000 0.000000 0.000000 0.000000 0.005156
#
#
# Mechanical properties :
#
#
# Convention : Reuss Voigt Hill
#
# Bulk Modulus (GPa) = 89.53490 90.15588 89.84539
# Shear Modulus (GPa) = -0.57711 50.08343 24.75316
#
# Velocity S-wave (km/s) = -0.53747 5.00696 3.52000
# Velocity P-wave (km/s) = 6.66575 8.86309 7.84177
#
# Compressibility (1/GPa) = 0.01116883
#
# Stress axis : x y z
#
# Youngs Moduli (GPa) = 67.36722 67.36722 88.08831
#
# Poissons Ratio (x) = 0.54993 0.29829
# Poissons Ratio (y) = 0.54993 0.29829
# Poissons Ratio (z) = 0.22813 0.22813
#
# Static dielectric constant tensor:
#      x y z
#    x 3.787330 0.000000 0.000000 
#    y 0.000000 3.787330 0.000000 
#    z 0.000000 0.000000 3.573240 
# 
# 
# High freq. dielectric constant tensor:
#      x y z
#    x 1.791340 0.000000 0.000000 
#    y 0.000000 1.791340 0.000000 
#    z 0.000000 0.000000 1.772740 
# 
# From -- ./inp_files/594.got.cif
#   From: 2010.03.12/outbox.cif.g09.slc.cpg/sg123_1_cif.got.tgz:594.got - 2010.04.06 16:26:55.
