data_PCOD8312602
_publ_section_title
;
Structure prediction by ZEFSAII (Michael W. Deem and Ramdas Pophale) SiO2 
 PCOD8312602
Probable space group: P 4/M M M
;
_chemical_formula_sum "Si O2"
_cell_formula_units_Z 72
_cell_length_a 21.344452
_cell_length_b 21.344452
_cell_length_c 8.824991
_cell_angle_alpha 90.000000
_cell_angle_beta 90.000000
_cell_angle_gamma 90.000000
_cell_volume 4020.539095
_symmetry_space_group_name_H-M "P 4/M M M"
_symmetry_group_IT_number 123
_symmetry_cell_setting 'tetragonal'
loop_
_space_group_symop_operation_xyz
x,y,z
-y,x,z
-x,-y,z
y,-x,z
x,-y,-z
-x,y,-z
y,x,-z
-y,-x,-z
-x,-y,-z
y,-x,-z
x,y,-z
-y,x,-z
-x,y,z
x,-y,z
-y,-x,z
y,x,z
loop_
_atom_site_type_symbol
_atom_site_label
_atom_site_fract_x
_atom_site_fract_y
_atom_site_fract_z
Si Si1 0.930894 0.500000 0.678656
Si Si2 0.828742 0.403547 0.678181
Si Si3 0.167579 0.270495 0.175146
Si Si4 0.930127 0.831983 0.819827
Si Si5 0.598530 0.500000 0.819877
Si Si6 0.500000 0.261071 0.820115
O O1 0.938604 0.500000 0.500000
O O2 0.893057 0.437862 0.729809
O O3 0.000000 0.500000 0.755206
O O4 0.818737 0.410896 0.500000
O O5 0.830697 0.331282 0.721391
O O6 0.771090 0.436885 0.760720
O O7 0.230557 0.230557 0.200516
O O8 0.107488 0.230196 0.228519
O O9 0.161322 0.290100 0.000000
O O10 0.893499 0.893499 0.758955
O O11 0.000000 0.830461 0.749746
O O12 0.932732 0.834930 0.000000
O O13 0.561945 0.561945 0.762354
O O14 0.668515 0.500000 0.754718
O O15 0.600318 0.500000 0.000000
O O16 0.500000 0.259122 0.000000
#
# Coordination Sequence:
#
# PCOD8312602 Si02
#       6
#     8  16  16  16   8   8
#     4   8  16  32  50  67  91 122 153 188 235 289
#     4  10  20  33  50  72  97 125 160 203 244 281
#     4   9  18  32  48  67  95 130 164 199 243 295
#     4   8  14  25  42  66  96 128 162 202 247 294
#     4   8  15  29  49  73  97 119 149 188 223 261
#     4  10  19  32  52  75 100 130 159 188 231 287
#
# _framework density 17.908047
#
# number of rings (size 3 to 8) (size 9 to 14) (size 15 to 20)
#    0.000    3.111    0.000    3.333    0.000    2.444 
#    0.000    3.333    0.000   13.333    0.000    3.111 
#    0.000    0.000    0.000    4.889    0.000    4.889 
#
# Total GULP energy -892509.218959 kJ/mol
# GULP energy per Si atom -12395.961374 kJ/mol
# Density = 1.786729 g / cm^3
# Si number density = 17.908047 Si / 1000 Ang^3
#
#
#
# Elastic Constant Matrix: (Units=GPa)
#
#
# Indices 1 2 3 4 5 6 
#
# 1 159.1366 73.1393 29.3158 0.0000 0.0000 0.0000
# 2 73.1393 159.1366 29.3158 0.0000 0.0000 0.0000
# 3 29.3158 29.3158 39.9381 0.0000 0.0000 0.0000
# 4 0.0000 0.0000 0.0000 16.2508 0.0000 0.0000
# 5 0.0000 0.0000 0.0000 0.0000 16.2508 0.0000
# 6 0.0000 0.0000 0.0000 0.0000 0.0000 12.4754
#
#
#
# Elastic Compliance Matrix: (Units=1/GPa)
#
#
# Indices 1 2 3 4 5 6 
#
# 1 0.008456 -0.003172 -0.003879 0.000000 0.000000 0.000000
# 2 -0.003172 0.008456 -0.003879 0.000000 0.000000 0.000000
# 3 -0.003879 -0.003879 0.030733 0.000000 0.000000 0.000000
# 4 0.000000 0.000000 0.000000 0.061535 0.000000 0.000000
# 5 0.000000 0.000000 0.000000 0.000000 0.061535 0.000000
# 6 0.000000 0.000000 0.000000 0.000000 0.000000 0.080158
#
#
# Mechanical properties :
#
#
# Convention : Reuss Voigt Hill
#
# Bulk Modulus (GPa) = 38.78017 69.08368 53.93192
# Shear Modulus (GPa) = 17.77278 24.09144 20.93211
#
# Velocity S-wave (km/s) = 3.15373 3.67179 3.42258
# Velocity P-wave (km/s) = 5.91300 7.52574 6.76758
#
# Compressibility (1/GPa) = 0.02578638
#
# Stress axis : x y z
#
# Youngs Moduli (GPa) = 118.25499 118.25499 32.53813
#
# Poissons Ratio (x) = 0.37510 0.12621
# Poissons Ratio (y) = 0.37510 0.12621
# Poissons Ratio (z) = 0.45870 0.45870
#
# Static dielectric constant tensor:
#      x y z
#    x 3.533080 0.000000 0.000000 
#    y 0.000000 3.533080 0.000000 
#    z 0.000000 0.000000 2.877260 
# 
# 
# High freq. dielectric constant tensor:
#      x y z
#    x 1.698720 0.000000 0.000000 
#    y 0.000000 1.698720 0.000000 
#    z 0.000000 0.000000 1.652840 
# 
# From -- ./inp_files/1196.got.cif
#   From: 2010.03.12/outbox.cif.g09.slc.cpg/sg123_1_cif.got.tgz:1196.got - 2010.04.06 16:26:55.
