data_PCOD8312997
_publ_section_title
;
Structure prediction by ZEFSAII (Michael W. Deem and Ramdas Pophale) SiO2 
 PCOD8312997
Probable space group: P 4/M M M
;
_chemical_formula_sum "Si O2"
_cell_formula_units_Z 88
_cell_length_a 14.282507
_cell_length_b 14.282507
_cell_length_c 27.565435
_cell_angle_alpha 90.000000
_cell_angle_beta 90.000000
_cell_angle_gamma 90.000000
_cell_volume 5623.073257
_symmetry_space_group_name_H-M "P 4/M M M"
_symmetry_group_IT_number 123
_symmetry_cell_setting 'tetragonal'
loop_
_space_group_symop_operation_xyz
x,y,z
-y,x,z
-x,-y,z
y,-x,z
x,-y,-z
-x,y,-z
y,x,-z
-y,-x,-z
-x,-y,-z
y,-x,-z
x,y,-z
-y,x,-z
-x,y,z
x,-y,z
-y,-x,z
y,x,z
loop_
_atom_site_type_symbol
_atom_site_label
_atom_site_fract_x
_atom_site_fract_y
_atom_site_fract_z
Si Si1 0.255571 0.105988 0.500000
Si Si2 0.737549 0.890677 0.604972
Si Si3 0.391103 0.238488 0.886694
Si Si4 0.892447 0.608125 0.691758
Si Si5 0.243290 0.393432 0.224325
Si Si6 0.741357 0.107360 0.943042
O O1 0.158077 0.158077 0.500000
O O2 0.308806 0.128283 0.551064
O O3 0.224435 0.000000 0.500000
O O4 0.833340 0.833340 0.611616
O O5 0.663528 0.855803 0.644758
O O6 0.761166 0.000000 0.612003
O O7 0.500000 0.253932 0.900537
O O8 0.335068 0.335068 0.897559
O O9 0.379476 0.208738 0.830692
O O10 0.348908 0.153173 0.917603
O O11 0.875061 0.500000 0.680208
O O12 0.838375 0.641065 0.739895
O O13 0.000000 0.629962 0.702482
O O14 0.270396 0.500000 0.234527
O O15 0.336292 0.336292 0.235510
O O16 0.835489 0.164512 0.928942
O O17 0.753751 0.000000 0.925776
O O18 0.722730 0.112371 0.000000
#
# Coordination Sequence:
#
# PCOD8312997 Si02
#       6
#     8  16  16  16  16  16
#     4   8  14  23  35  53  75  99 128 160 195 235
#     4   9  16  26  40  57  78 103 130 162 199 238
#     4   9  18  31  46  66  91 117 146 179 214 255
#     4   9  17  28  41  58  80 106 136 167 199 238
#     4   9  17  29  45  64  85 109 137 170 208 247
#     4   9  18  32  49  69  92 117 146 181 219 257
#
# _framework density 15.649806
#
# number of rings (size 3 to 8) (size 9 to 14) (size 15 to 20)
#    0.000    3.091    0.000    0.545    0.000    2.273 
#    0.000    7.727    0.000    2.727    0.000    2.545 
#    0.000    4.364    0.000    0.000    0.000   54.545 
#
# Total GULP energy -1090571.311402 kJ/mol
# GULP energy per Si atom -12392.855811 kJ/mol
# Density = 1.561419 g / cm^3
# Si number density = 15.649806 Si / 1000 Ang^3
#
#
#
# Elastic Constant Matrix: (Units=GPa)
#
#
# Indices 1 2 3 4 5 6 
#
# 1 83.2062 46.7430 49.6986 0.0000 0.0000 0.0000
# 2 46.7430 83.2062 49.6986 0.0000 0.0000 0.0000
# 3 49.6986 49.6986 75.9400 0.0000 0.0000 0.0000
# 4 0.0000 0.0000 0.0000 25.5120 0.0000 0.0000
# 5 0.0000 0.0000 0.0000 0.0000 25.5120 0.0000
# 6 0.0000 0.0000 0.0000 0.0000 0.0000 19.1692
#
#
#
# Elastic Compliance Matrix: (Units=1/GPa)
#
#
# Indices 1 2 3 4 5 6 
#
# 1 0.021417 -0.006008 -0.010084 0.000000 0.000000 0.000000
# 2 -0.006008 0.021417 -0.010084 0.000000 0.000000 0.000000
# 3 -0.010084 -0.010084 0.026367 0.000000 0.000000 0.000000
# 4 0.000000 0.000000 0.000000 0.039197 0.000000 0.000000
# 5 0.000000 0.000000 0.000000 0.000000 0.039197 0.000000
# 6 0.000000 0.000000 0.000000 0.000000 0.000000 0.052167
#
#
# Mechanical properties :
#
#
# Convention : Reuss Voigt Hill
#
# Bulk Modulus (GPa) = 59.35392 59.40365 59.37878
# Shear Modulus (GPa) = 19.40012 20.45281 19.92647
#
# Velocity S-wave (km/s) = 3.52467 3.61904 3.57217
# Velocity P-wave (km/s) = 7.38736 7.45008 7.41879
#
# Compressibility (1/GPa) = 0.01684809
#
# Stress axis : x y z
#
# Youngs Moduli (GPa) = 46.69251 46.69251 37.92596
#
# Poissons Ratio (x) = 0.28054 0.38245
# Poissons Ratio (y) = 0.28054 0.38245
# Poissons Ratio (z) = 0.47085 0.47085
#
# Static dielectric constant tensor:
#      x y z
#    x 2.929160 0.000000 0.000000 
#    y 0.000000 2.929160 0.000000 
#    z 0.000000 0.000000 3.284530 
# 
# 
# High freq. dielectric constant tensor:
#      x y z
#    x 1.588620 0.000000 0.000000 
#    y 0.000000 1.588620 0.000000 
#    z 0.000000 0.000000 1.611310 
# 
# From -- ./inp_files/7213.got.cif
#   From: 2010.03.12/outbox.cif.g09.slc.cpg/sg123_4_cif.got.tgz:7213.got - 2010.04.06 16:26:55.
