data_PCOD8312703
_publ_section_title
;
Structure prediction by ZEFSAII (Michael W. Deem and Ramdas Pophale) SiO2 
 PCOD8312703
Probable space group: P 4/M M M
;
_chemical_formula_sum "Si O2"
_cell_formula_units_Z 120
_cell_length_a 26.117780
_cell_length_b 26.117780
_cell_length_c 9.614159
_cell_angle_alpha 90.000000
_cell_angle_beta 90.000000
_cell_angle_gamma 90.000000
_cell_volume 6558.187346
_symmetry_space_group_name_H-M "P 4/M M M"
_symmetry_group_IT_number 123
_symmetry_cell_setting 'tetragonal'
loop_
_space_group_symop_operation_xyz
x,y,z
-y,x,z
-x,-y,z
y,-x,z
x,-y,-z
-x,y,-z
y,x,-z
-y,-x,-z
-x,-y,-z
y,-x,-z
x,y,-z
-y,x,-z
-x,y,z
x,-y,z
-y,-x,z
y,x,z
loop_
_atom_site_type_symbol
_atom_site_label
_atom_site_fract_x
_atom_site_fract_y
_atom_site_fract_z
Si Si1 0.920290 0.743309 0.160996
Si Si2 0.443328 0.363208 0.834686
Si Si3 0.278801 0.803151 0.154985
Si Si4 0.558369 0.000000 0.336229
Si Si5 0.927099 0.352553 0.659073
Si Si6 0.750474 0.439771 0.845483
Si Si7 0.141093 0.057822 0.164529
Si Si8 0.807634 0.631758 0.342021
O O1 0.860428 0.738162 0.182361
O O2 0.945647 0.696665 0.249740
O O3 0.934985 0.800097 0.218114
O O4 0.937311 0.737161 0.000000
O O5 0.500000 0.373798 0.773494
O O6 0.404310 0.404310 0.769125
O O7 0.424036 0.306452 0.795239
O O8 0.445367 0.367882 0.000000
O O9 0.227514 0.772487 0.178613
O O10 0.320594 0.781915 0.262759
O O11 0.301303 0.796187 0.000000
O O12 0.593623 0.951836 0.289572
O O13 0.500000 0.000000 0.269690
O O14 0.550322 0.000000 0.500000
O O15 0.943243 0.340978 0.500000
O O16 0.867645 0.362318 0.672750
O O17 0.755252 0.500000 0.850183
O O18 0.791167 0.419946 0.734142
O O19 0.761707 0.417594 0.000000
O O20 0.100445 0.100445 0.225061
O O21 0.123119 0.000000 0.206067
O O22 0.142022 0.064268 0.000000
O O23 0.788754 0.630709 0.500000
#
# Coordination Sequence:
#
# PCOD8312703 Si02
#       8
#    16  16  16   8  16  16  16  16
#     4   9  17  30  50  74 100 130 167 210 254 299
#     4   8  14  25  42  65  91 118 150 189 231 274
#     4   9  17  30  48  68  93 128 164 196 237 293
#     4   9  18  34  55  75  97 129 166 201 242 298
#     4   9  19  34  52  75 100 127 162 205 250 299
#     4   9  18  32  48  66  92 127 164 198 233 282
#     4   9  17  28  44  70 103 138 177 217 259 309
#     4  10  20  32  47  71  99 123 155 200 249 294
#
# _framework density 18.297739
#
# number of rings (size 3 to 8) (size 9 to 14) (size 15 to 20)
#    0.000    3.000    0.000    1.600    0.933    4.000 
#    0.000    4.000    0.000    2.000    0.000    0.000 
#    0.000    0.000    0.000    4.133    0.000    4.267 
#
# Total GULP energy -1486804.210233 kJ/mol
# GULP energy per Si atom -12390.035085 kJ/mol
# Density = 1.825609 g / cm^3
# Si number density = 18.297739 Si / 1000 Ang^3
#
#
#
# Elastic Constant Matrix: (Units=GPa)
#
#
# Indices 1 2 3 4 5 6 
#
# 1 91.9164 49.1569 40.7445 0.0000 0.0000 0.0000
# 2 49.1569 91.9164 40.7445 0.0000 0.0000 0.0000
# 3 40.7445 40.7445 68.0232 0.0000 0.0000 0.0000
# 4 0.0000 0.0000 0.0000 12.1392 0.0000 0.0000
# 5 0.0000 0.0000 0.0000 0.0000 12.1392 0.0000
# 6 0.0000 0.0000 0.0000 0.0000 0.0000 -0.9103
#
#
#
# Elastic Compliance Matrix: (Units=1/GPa)
#
#
# Indices 1 2 3 4 5 6 
#
# 1 0.017113 -0.006274 -0.006492 0.000000 0.000000 0.000000
# 2 -0.006274 0.017113 -0.006492 0.000000 0.000000 0.000000
# 3 -0.006492 -0.006492 0.022478 0.000000 0.000000 0.000000
# 4 0.000000 0.000000 0.000000 0.082378 0.000000 0.000000
# 5 0.000000 0.000000 0.000000 0.000000 0.082378 0.000000
# 6 0.000000 0.000000 0.000000 0.000000 0.000000 -1.098514
#
#
# Mechanical properties :
#
#
# Convention : Reuss Voigt Hill
#
# Bulk Modulus (GPa) = 54.98457 57.01646 56.00052
# Shear Modulus (GPa) = -6.00618 12.75429 3.37405
#
# Velocity S-wave (km/s) = -1.81372 2.64302 1.35940
# Velocity P-wave (km/s) = 5.07238 6.36727 5.75635
#
# Compressibility (1/GPa) = 0.01818692
#
# Stress axis : x y z
#
# Youngs Moduli (GPa) = 58.43651 58.43651 44.48768
#
# Poissons Ratio (x) = 0.36663 0.28882
# Poissons Ratio (y) = 0.36663 0.28882
# Poissons Ratio (z) = 0.37938 0.37938
#
# Static dielectric constant tensor:
#      x y z
#    x 3.625260 0.000000 0.000000 
#    y 0.000000 3.625260 0.000000 
#    z 0.000000 0.000000 3.214030 
# 
# 
# High freq. dielectric constant tensor:
#      x y z
#    x 1.714130 0.000000 0.000000 
#    y 0.000000 1.714130 0.000000 
#    z 0.000000 0.000000 1.663390 
# 
# From -- ./inp_files/1998.got.cif
#   From: 2010.03.12/outbox.cif.g09.slc.cpg/sg123_1_cif.got.tgz:1998.got - 2010.04.06 16:26:55.
