data_PCOD8312168
_publ_section_title
;
Structure prediction by ZEFSAII (Michael W. Deem and Ramdas Pophale) SiO2 
 PCOD8312168
Probable space group: P 4/M M M
;
_chemical_formula_sum "Si O2"
_cell_formula_units_Z 72
_cell_length_a 17.723432
_cell_length_b 17.723432
_cell_length_c 16.131297
_cell_angle_alpha 90.000000
_cell_angle_beta 90.000000
_cell_angle_gamma 90.000000
_cell_volume 5067.163689
_symmetry_space_group_name_H-M "P 4/M M M"
_symmetry_group_IT_number 123
_symmetry_cell_setting 'tetragonal'
loop_
_space_group_symop_operation_xyz
x,y,z
-y,x,z
-x,-y,z
y,-x,z
x,-y,-z
-x,y,-z
y,x,-z
-y,-x,-z
-x,-y,-z
y,-x,-z
x,y,-z
-y,x,-z
-x,y,z
x,-y,z
-y,-x,z
y,x,z
loop_
_atom_site_type_symbol
_atom_site_label
_atom_site_fract_x
_atom_site_fract_y
_atom_site_fract_z
Si Si1 0.352882 0.232272 0.169122
Si Si2 0.586140 0.705378 0.666804
Si Si3 0.411036 0.859606 0.410145
Si Si4 0.084345 0.411380 0.237496
Si Si5 0.290941 0.587739 0.000000
O O1 0.267176 0.267176 0.171705
O O2 0.403714 0.276120 0.236028
O O3 0.357058 0.142456 0.188319
O O4 0.388834 0.242583 0.079409
O O5 0.500000 0.686559 0.648430
O O6 0.632823 0.632823 0.639176
O O7 0.616271 0.775559 0.612945
O O8 0.375951 0.883690 0.500000
O O9 0.500000 0.859412 0.418570
O O10 0.388308 0.915298 0.335171
O O11 0.107478 0.500000 0.227417
O O12 0.000000 0.397334 0.203132
O O13 0.307840 0.500000 0.000000
O O14 0.371721 0.628280 0.000000
#
# Coordination Sequence:
#
# PCOD8312168 Si02
#       5
#    16  16  16  16   8
#     4   9  17  29  42  55  74 102 132 159 195 243
#     4   9  16  25  36  49  68  96 130 167 202 233
#     4   8  14  24  36  50  69  93 120 150 188 233
#     4   9  16  26  41  60  81 101 123 158 199 235
#     4  10  18  27  41  57  75 103 138 174 204 230
#
# _framework density 14.209133
#
# number of rings (size 3 to 8) (size 9 to 14) (size 15 to 20)
#    0.000    3.111    0.000    3.333    0.000    1.222 
#    0.000    2.778    0.000    6.000    0.000    3.111 
#    0.000    0.444    0.000    0.000    0.000    6.222 
#
# Total GULP energy -892061.065111 kJ/mol
# GULP energy per Si atom -12389.737015 kJ/mol
# Density = 1.417679 g / cm^3
# Si number density = 14.209133 Si / 1000 Ang^3
#
#
#
# Elastic Constant Matrix: (Units=GPa)
#
#
# Indices 1 2 3 4 5 6 
#
# 1 73.4577 35.0233 21.3581 0.0000 0.0000 0.0000
# 2 35.0233 73.4576 21.3582 0.0000 0.0000 0.0000
# 3 21.3581 21.3582 80.3993 0.0000 0.0000 0.0000
# 4 0.0000 0.0000 0.0000 0.9945 0.0000 0.0000
# 5 0.0000 0.0000 0.0000 0.0000 0.9973 0.0000
# 6 0.0000 0.0000 0.0000 0.0000 0.0000 12.4822
#
#
#
# Elastic Compliance Matrix: (Units=1/GPa)
#
#
# Indices 1 2 3 4 5 6 
#
# 1 0.018157 -0.007862 -0.002735 0.000000 0.000000 0.000000
# 2 -0.007862 0.018157 -0.002735 0.000000 0.000000 0.000000
# 3 -0.002735 -0.002735 0.013891 0.000000 0.000000 0.000000
# 4 0.000000 0.000000 0.000000 1.005485 0.000000 0.000000
# 5 0.000000 0.000000 0.000000 0.000000 1.002677 0.000000
# 6 0.000000 0.000000 0.000000 0.000000 0.000000 0.080114
#
#
# Mechanical properties :
#
#
# Convention : Reuss Voigt Hill
#
# Bulk Modulus (GPa) = 42.47801 42.53265 42.50533
# Shear Modulus (GPa) = 2.30098 12.86648 7.58373
#
# Velocity S-wave (km/s) = 1.27392 3.01243 2.31275
# Velocity P-wave (km/s) = 5.66777 6.48829 6.09186
#
# Compressibility (1/GPa) = 0.02354159
#
# Stress axis : x y z
#
# Youngs Moduli (GPa) = 55.07597 55.07579 71.98913
#
# Poissons Ratio (x) = 0.43299 0.19688
# Poissons Ratio (y) = 0.43299 0.19689
# Poissons Ratio (z) = 0.15063 0.15063
#
# Static dielectric constant tensor:
#      x y z
#    x 2.603430 0.000000 0.000000 
#    y 0.000000 2.603430 0.000000 
#    z 0.000000 0.000000 3.044260 
# 
# 
# High freq. dielectric constant tensor:
#      x y z
#    x 1.509470 0.000000 0.000000 
#    y 0.000000 1.509470 0.000000 
#    z 0.000000 0.000000 1.552080 
# 
# From -- ./inp_files/5289.got.cif
#   From: 2010.03.12/outbox.cif.g09.slc.cpg/sg123_3_cif.got.tgz:5289.got - 2010.04.06 16:26:55.
