data_PCOD8312527
_publ_section_title
;
Structure prediction by ZEFSAII (Michael W. Deem and Ramdas Pophale) SiO2 
 PCOD8312527
Probable space group: P 4/M M M
;
_chemical_formula_sum "Si O2"
_cell_formula_units_Z 120
_cell_length_a 18.027408
_cell_length_b 18.027408
_cell_length_c 21.961947
_cell_angle_alpha 90.000000
_cell_angle_beta 90.000000
_cell_angle_gamma 90.000000
_cell_volume 7137.356915
_symmetry_space_group_name_H-M "P 4/M M M"
_symmetry_group_IT_number 123
_symmetry_cell_setting 'tetragonal'
loop_
_space_group_symop_operation_xyz
x,y,z
-y,x,z
-x,-y,z
y,-x,z
x,-y,-z
-x,y,-z
y,x,-z
-y,-x,-z
-x,-y,-z
y,-x,-z
x,y,-z
-y,x,-z
-x,y,z
x,-y,z
-y,-x,z
y,x,z
loop_
_atom_site_type_symbol
_atom_site_label
_atom_site_fract_x
_atom_site_fract_y
_atom_site_fract_z
Si Si1 0.294414 0.585521 0.000000
Si Si2 0.586776 0.191251 0.114346
Si Si3 0.682420 0.805717 0.771091
Si Si4 0.416604 0.298238 0.572058
Si Si5 0.085885 0.792793 0.428798
Si Si6 0.914925 0.296707 0.066141
Si Si7 0.203837 0.085497 0.821962
Si Si8 0.685238 0.809575 0.634938
O O1 0.251219 0.605625 0.937789
O O2 0.315783 0.500000 0.000000
O O3 0.370418 0.629583 0.000000
O O4 0.500000 0.174941 0.118039
O O5 0.616120 0.212861 0.181703
O O6 0.629094 0.117297 0.095547
O O7 0.736108 0.736108 0.775805
O O8 0.727652 0.880871 0.784667
O O9 0.651978 0.818224 0.702920
O O10 0.416871 0.297328 0.500000
O O11 0.500000 0.307289 0.597683
O O12 0.367478 0.367478 0.596455
O O13 0.382282 0.220120 0.593834
O O14 0.094467 0.774835 0.500000
O O15 0.133619 0.866381 0.411852
O O16 0.114579 0.720128 0.392059
O O17 0.000000 0.807619 0.411324
O O18 0.902651 0.223557 0.106944
O O19 0.000000 0.315724 0.059726
O O20 0.879289 0.280110 0.000000
O O21 0.127085 0.127085 0.807215
O O22 0.193897 0.000000 0.803767
O O23 0.751193 0.751193 0.634750
#
# Coordination Sequence:
#
# PCOD8312527 Si02
#       8
#     8  16  16  16  16  16  16  16
#     4  10  20  33  49  69  93 119 148 184 226 274
#     4  10  19  31  47  71  94 115 149 191 233 278
#     4   9  18  32  48  66  90 123 158 194 237 279
#     4   9  17  29  47  72 100 128 158 193 233 279
#     4   9  17  29  47  72 100 130 165 206 251 296
#     4   9  17  30  46  65  90 118 146 177 221 275
#     4   9  18  31  46  66  91 119 153 190 228 272
#     4   9  17  30  48  68  92 125 166 203 236 281
#
# _framework density 16.812947000000001
#
# number of rings (size 3 to 8) (size 9 to 14) (size 15 to 20)
#    0.000    2.800    0.667    0.800    0.000    4.200 
#    0.000    2.000    0.000    0.400    0.000    9.333 
#    0.000    3.200    0.000    0.000    0.000    0.000 
#
# Total GULP energy -1487245.728045 kJ/mol
# GULP energy per Si atom -12393.714400 kJ/mol
# Density = 1.677468 g / cm^3
# Si number density = 16.812947 Si / 1000 Ang^3
#
#
#
# Elastic Constant Matrix: (Units=GPa)
#
#
# Indices 1 2 3 4 5 6 
#
# 1 78.1492 41.9549 22.7283 0.0000 0.0000 0.0000
# 2 41.9549 78.1498 22.7282 0.0000 0.0000 0.0000
# 3 22.7283 22.7282 60.4435 0.0000 0.0000 0.0000
# 4 0.0000 0.0000 0.0000 18.6984 0.0000 0.0000
# 5 0.0000 0.0000 0.0000 0.0000 18.6985 0.0000
# 6 0.0000 0.0000 0.0000 0.0000 0.0000 17.8174
#
#
#
# Elastic Compliance Matrix: (Units=1/GPa)
#
#
# Indices 1 2 3 4 5 6 
#
# 1 0.018668 -0.008960 -0.003650 0.000000 0.000000 0.000000
# 2 -0.008960 0.018668 -0.003650 0.000000 0.000000 0.000000
# 3 -0.003650 -0.003650 0.019290 0.000000 0.000000 0.000000
# 4 0.000000 0.000000 0.000000 0.053480 0.000000 0.000000
# 5 0.000000 0.000000 0.000000 0.000000 0.053480 0.000000
# 6 0.000000 0.000000 0.000000 0.000000 0.000000 0.056125
#
#
# Mechanical properties :
#
#
# Convention : Reuss Voigt Hill
#
# Bulk Modulus (GPa) = 41.48753 43.50725 42.49739
# Shear Modulus (GPa) = 19.21098 19.66494 19.43796
#
# Velocity S-wave (km/s) = 3.38395 3.42370 3.40388
# Velocity P-wave (km/s) = 6.32437 6.44689 6.38592
#
# Compressibility (1/GPa) = 0.02410363
#
# Stress axis : x y z
#
# Youngs Moduli (GPa) = 53.56724 53.56777 51.84138
#
# Poissons Ratio (x) = 0.47999 0.18924
# Poissons Ratio (y) = 0.47998 0.18923
# Poissons Ratio (z) = 0.19554 0.19554
#
# Static dielectric constant tensor:
#      x y z
#    x 3.065070 0.000000 0.000000 
#    y 0.000000 3.065060 0.000000 
#    z 0.000000 0.000000 3.380440 
# 
# 
# High freq. dielectric constant tensor:
#      x y z
#    x 1.633710 0.000000 0.000000 
#    y 0.000000 1.633710 0.000000 
#    z 0.000000 0.000000 1.652440 
# 
# From -- ./inp_files/6786.got.cif
#   From: 2010.03.12/outbox.cif.g09.slc.cpg/sg123_4_cif.got.tgz:6786.got - 2010.04.06 16:26:55.
