data_PCOD8312259
_publ_section_title
;
Structure prediction by ZEFSAII (Michael W. Deem and Ramdas Pophale) SiO2 
 PCOD8312259
Probable space group: P 4/M M M
;
_chemical_formula_sum "Si O2"
_cell_formula_units_Z 128
_cell_length_a 20.043775
_cell_length_b 20.043775
_cell_length_c 17.864859
_cell_angle_alpha 90.000000
_cell_angle_beta 90.000000
_cell_angle_gamma 90.000000
_cell_volume 7177.259202
_symmetry_space_group_name_H-M "P 4/M M M"
_symmetry_group_IT_number 123
_symmetry_cell_setting 'tetragonal'
loop_
_space_group_symop_operation_xyz
x,y,z
-y,x,z
-x,-y,z
y,-x,z
x,-y,-z
-x,y,-z
y,x,-z
-y,-x,-z
-x,-y,-z
y,-x,-z
x,y,-z
-y,x,-z
-x,y,z
x,-y,z
-y,-x,z
y,x,z
loop_
_atom_site_type_symbol
_atom_site_label
_atom_site_fract_x
_atom_site_fract_y
_atom_site_fract_z
Si Si1 0.246621 0.926250 0.806478
Si Si2 0.927322 0.611461 0.271227
Si Si3 0.322858 0.113855 0.585721
Si Si4 0.808451 0.425840 0.826534
Si Si5 0.369459 0.741370 0.581343
Si Si6 0.574317 0.314247 0.276603
Si Si7 0.290846 0.816030 0.086653
Si Si8 0.923637 0.182896 0.653444
O O1 0.317008 0.924925 0.766192
O O2 0.245741 0.871277 0.871593
O O3 0.193178 0.909727 0.741993
O O4 0.233171 0.000000 0.840927
O O5 0.919470 0.621405 0.360723
O O6 0.868291 0.568908 0.234125
O O7 0.000000 0.577653 0.256910
O O8 0.338931 0.094172 0.500000
O O9 0.327597 0.192728 0.600114
O O10 0.248730 0.090815 0.605435
O O11 0.804461 0.500000 0.863914
O O12 0.739213 0.407958 0.786691
O O13 0.818290 0.368050 0.887709
O O14 0.405125 0.747830 0.500000
O O15 0.317793 0.682208 0.579992
O O16 0.423679 0.724435 0.644207
O O17 0.500000 0.342936 0.266099
O O18 0.624823 0.375178 0.270041
O O19 0.256346 0.743655 0.100544
O O20 0.290190 0.834948 0.000000
O O21 0.876445 0.123556 0.624384
O O22 0.000000 0.161856 0.640151
#
# Coordination Sequence:
#
# PCOD8312259 Si02
#       8
#    16  16  16  16  16  16  16  16
#     4   8  16  31  50  73  99 128 162 201 249 302
#     4   9  17  30  48  72  99 127 163 208 255 298
#     4  10  18  30  48  71  97 128 168 217 268 312
#     4  10  20  35  53  73  99 135 173 206 245 296
#     4   9  17  29  47  72  98 124 159 205 254 303
#     4  10  20  34  53  76 101 131 167 206 251 302
#     4  10  20  33  52  79 107 133 162 201 249 298
#     4  10  20  32  47  68  96 133 176 220 265 314
#
# _framework density 17.834105999999998
#
# number of rings (size 3 to 8) (size 9 to 14) (size 15 to 20)
#    0.000    2.500    1.250    2.250    0.000    3.000 
#    0.000    0.000    0.000    0.375    0.000    7.000 
#    0.000    0.000    0.000   23.250    0.000    0.000 
#
# Total GULP energy -1586339.609228 kJ/mol
# GULP energy per Si atom -12393.278197 kJ/mol
# Density = 1.779351 g / cm^3
# Si number density = 17.834106 Si / 1000 Ang^3
#
#
#
# Elastic Constant Matrix: (Units=GPa)
#
#
# Indices 1 2 3 4 5 6 
#
# 1 68.0540 21.0647 23.8930 0.0000 0.0000 0.0000
# 2 21.0647 68.0540 23.8930 0.0000 0.0000 0.0000
# 3 23.8930 23.8930 81.6351 0.0000 0.0000 0.0000
# 4 0.0000 0.0000 0.0000 18.8727 0.0000 0.0000
# 5 0.0000 0.0000 0.0000 0.0000 18.8727 0.0000
# 6 0.0000 0.0000 0.0000 0.0000 0.0000 3.7626
#
#
#
# Elastic Compliance Matrix: (Units=1/GPa)
#
#
# Indices 1 2 3 4 5 6 
#
# 1 0.017296 -0.003986 -0.003896 0.000000 0.000000 0.000000
# 2 -0.003986 0.017296 -0.003896 0.000000 0.000000 0.000000
# 3 -0.003896 -0.003896 0.014530 0.000000 0.000000 0.000000
# 4 0.000000 0.000000 0.000000 0.052986 0.000000 0.000000
# 5 0.000000 0.000000 0.000000 0.000000 0.052986 0.000000
# 6 0.000000 0.000000 0.000000 0.000000 0.000000 0.265776
#
#
# Mechanical properties :
#
#
# Convention : Reuss Voigt Hill
#
# Bulk Modulus (GPa) = 39.11225 39.49383 39.30304
# Shear Modulus (GPa) = 11.03883 18.22776 14.63329
#
# Velocity S-wave (km/s) = 2.49062 3.20046 2.86758
# Velocity P-wave (km/s) = 5.49997 5.98752 5.74892
#
# Compressibility (1/GPa) = 0.02556744
#
# Stress axis : x y z
#
# Youngs Moduli (GPa) = 57.81811 57.81811 68.82348
#
# Poissons Ratio (x) = 0.23045 0.26810
# Poissons Ratio (y) = 0.23045 0.26810
# Poissons Ratio (z) = 0.22523 0.22523
#
# Static dielectric constant tensor:
#      x y z
#    x 3.241360 0.000000 0.000000 
#    y 0.000000 3.241360 0.000000 
#    z 0.000000 0.000000 3.307820 
# 
# 
# High freq. dielectric constant tensor:
#      x y z
#    x 1.682820 0.000000 0.000000 
#    y 0.000000 1.682820 0.000000 
#    z 0.000000 0.000000 1.674980 
# 
# From -- ./inp_files/5994.got.cif
#   From: 2010.03.12/outbox.cif.g09.slc.cpg/sg123_3_cif.got.tgz:5994.got - 2010.04.06 16:26:55.
