data_PCOD8312394
_publ_section_title
;
Structure prediction by ZEFSAII (Michael W. Deem and Ramdas Pophale) SiO2 
 PCOD8312394
Probable space group: P 4/M M M
;
_chemical_formula_sum "Si O2"
_cell_formula_units_Z 72
_cell_length_a 14.530426
_cell_length_b 14.530426
_cell_length_c 22.705049
_cell_angle_alpha 90.000000
_cell_angle_beta 90.000000
_cell_angle_gamma 90.000000
_cell_volume 4793.791462
_symmetry_space_group_name_H-M "P 4/M M M"
_symmetry_group_IT_number 123
_symmetry_cell_setting 'tetragonal'
loop_
_space_group_symop_operation_xyz
x,y,z
-y,x,z
-x,-y,z
y,-x,z
x,-y,-z
-x,y,-z
y,x,-z
-y,-x,-z
-x,-y,-z
y,-x,-z
x,y,-z
-y,x,-z
-x,y,z
x,-y,z
-y,-x,z
y,x,z
loop_
_atom_site_type_symbol
_atom_site_label
_atom_site_fract_x
_atom_site_fract_y
_atom_site_fract_z
Si Si1 0.891730 0.738026 0.000000
Si Si2 0.395251 0.754105 0.792321
Si Si3 0.395027 0.893957 0.893166
Si Si4 0.897782 0.609217 0.434492
Si Si5 0.246597 0.606073 0.658907
O O1 0.865853 0.675923 0.056043
O O2 0.831112 0.831112 0.000000
O O3 0.000000 0.764979 0.000000
O O4 0.500000 0.721914 0.801601
O O5 0.333249 0.666752 0.808013
O O6 0.369205 0.837848 0.834831
O O7 0.379637 0.789082 0.725587
O O8 0.500000 0.873842 0.914124
O O9 0.383580 0.000000 0.876302
O O10 0.864455 0.638480 0.500000
O O11 0.901024 0.500000 0.429577
O O12 0.829220 0.648975 0.385160
O O13 0.000000 0.648872 0.422648
O O14 0.265953 0.500000 0.644518
O O15 0.342537 0.657464 0.648806
#
# Coordination Sequence:
#
# PCOD8312394 Si02
#       5
#     8  16  16  16  16
#     4  10  19  30  45  63  84 110 135 161 196 239
#     4   9  17  28  41  58  81 108 137 167 197 232
#     4   9  17  29  45  64  83 103 131 168 207 242
#     4   8  14  25  40  56  74  98 129 165 203 238
#     4   9  17  27  39  57  81 109 138 165 194 231
#
# _framework density 15.019425999999999
#
# number of rings (size 3 to 8) (size 9 to 14) (size 15 to 20)
#    0.000    3.111    0.000    1.667    0.000    3.222 
#    0.000    6.667    0.000    0.000    0.000    3.111 
#    0.000    8.444    0.000    7.333    0.000    6.000 
#
# Total GULP energy -892496.402484 kJ/mol
# GULP energy per Si atom -12395.783368 kJ/mol
# Density = 1.498524 g / cm^3
# Si number density = 15.019426 Si / 1000 Ang^3
#
#
#
# Elastic Constant Matrix: (Units=GPa)
#
#
# Indices 1 2 3 4 5 6 
#
# 1 71.7988 46.0168 60.3141 0.0000 0.0000 0.0000
# 2 46.0168 71.7988 60.3141 0.0000 0.0000 0.0000
# 3 60.3141 60.3141 113.1298 0.0000 0.0000 0.0000
# 4 0.0000 0.0000 0.0000 23.6473 0.0000 0.0000
# 5 0.0000 0.0000 0.0000 0.0000 23.6473 0.0000
# 6 0.0000 0.0000 0.0000 0.0000 0.0000 17.6165
#
#
#
# Elastic Compliance Matrix: (Units=1/GPa)
#
#
# Indices 1 2 3 4 5 6 
#
# 1 0.028738 -0.010048 -0.009965 0.000000 0.000000 0.000000
# 2 -0.010048 0.028738 -0.009965 0.000000 0.000000 0.000000
# 3 -0.009965 -0.009965 0.019464 0.000000 0.000000 0.000000
# 4 0.000000 0.000000 0.000000 0.042288 0.000000 0.000000
# 5 0.000000 0.000000 0.000000 0.000000 0.042288 0.000000
# 6 0.000000 0.000000 0.000000 0.000000 0.000000 0.056765
#
#
# Mechanical properties :
#
#
# Convention : Reuss Voigt Hill
#
# Bulk Modulus (GPa) = 58.86937 65.55752 62.21344
# Shear Modulus (GPa) = 17.61187 18.98772 18.29980
#
# Velocity S-wave (km/s) = 3.42805 3.55943 3.49436
# Velocity P-wave (km/s) = 7.41278 7.78691 7.60215
#
# Compressibility (1/GPa) = 0.01698676
#
# Stress axis : x y z
#
# Youngs Moduli (GPa) = 34.79654 34.79654 51.37587
#
# Poissons Ratio (x) = 0.34964 0.51194
# Poissons Ratio (y) = 0.34964 0.51194
# Poissons Ratio (z) = 0.34673 0.34673
#
# Static dielectric constant tensor:
#      x y z
#    x 2.809100 0.000000 0.000000 
#    y 0.000000 2.809100 0.000000 
#    z 0.000000 0.000000 3.090230 
# 
# 
# High freq. dielectric constant tensor:
#      x y z
#    x 1.556550 0.000000 0.000000 
#    y 0.000000 1.556550 0.000000 
#    z 0.000000 0.000000 1.585700 
# 
# From -- ./inp_files/6256.got.cif
#   From: 2010.03.12/outbox.cif.g09.slc.cpg/sg123_4_cif.got.tgz:6256.got - 2010.04.06 16:26:55.
