data_PCOD8312865
_publ_section_title
;
Structure prediction by ZEFSAII (Michael W. Deem and Ramdas Pophale) SiO2 
 PCOD8312865
Probable space group: P 4/M M M
;
_chemical_formula_sum "Si O2"
_cell_formula_units_Z 72
_cell_length_a 21.329695
_cell_length_b 21.329695
_cell_length_c 9.090480
_cell_angle_alpha 90.000000
_cell_angle_beta 90.000000
_cell_angle_gamma 90.000000
_cell_volume 4135.767408
_symmetry_space_group_name_H-M "P 4/M M M"
_symmetry_group_IT_number 123
_symmetry_cell_setting 'tetragonal'
loop_
_space_group_symop_operation_xyz
x,y,z
-y,x,z
-x,-y,z
y,-x,z
x,-y,-z
-x,y,-z
y,x,-z
-y,-x,-z
-x,-y,-z
y,-x,-z
x,y,-z
-y,x,-z
-x,y,z
x,-y,z
-y,-x,z
y,x,z
loop_
_atom_site_type_symbol
_atom_site_label
_atom_site_fract_x
_atom_site_fract_y
_atom_site_fract_z
Si Si1 0.340221 0.095840 0.173969
Si Si2 0.000000 0.762740 0.827236
Si Si3 0.098884 0.000000 0.824711
Si Si4 0.238840 0.660504 0.827078
Si Si5 0.573504 0.000000 0.327836
Si Si6 0.671467 0.429076 0.327438
O O1 0.275684 0.061717 0.220630
O O2 0.333389 0.167393 0.226015
O O3 0.398081 0.062797 0.255595
O O4 0.352008 0.089903 0.000000
O O5 0.000000 0.831588 0.753247
O O6 0.000000 0.772375 0.000000
O O7 0.062017 0.062017 0.770550
O O8 0.101854 0.000000 0.000000
O O9 0.277005 0.722996 0.779751
O O10 0.267879 0.599380 0.751381
O O11 0.242697 0.650251 0.000000
O O12 0.500000 0.000000 0.296376
O O13 0.588930 0.000000 0.500000
O O14 0.683803 0.425653 0.500000
O O15 0.661639 0.500000 0.273414
O O16 0.609320 0.390681 0.282558
#
# Coordination Sequence:
#
# PCOD8312865 Si02
#       6
#    16   8   8  16   8  16
#     4   9  18  32  49  69  93 123 157 191 231 278
#     4   8  14  25  40  58  83 116 151 182 213 257
#     4   8  13  20  32  56  90 121 145 174 217 263
#     4   9  18  32  49  70  96 124 155 192 233 279
#     4  10  21  35  50  69  93 122 157 198 241 281
#     4   9  18  32  49  69  93 121 153 189 229 274
#
# _framework density 17.409103000000002
#
# number of rings (size 3 to 8) (size 9 to 14) (size 15 to 20)
#    0.000    3.111    0.000    1.333    0.000    4.222 
#    0.000   10.000    0.000    0.000    0.000    3.111 
#    0.000    0.000    0.000   19.556    0.000   17.778 
#
# Total GULP energy -892631.707145 kJ/mol
# GULP energy per Si atom -12397.662599 kJ/mol
# Density = 1.736948 g / cm^3
# Si number density = 17.409103 Si / 1000 Ang^3
#
#
#
# Elastic Constant Matrix: (Units=GPa)
#
#
# Indices 1 2 3 4 5 6 
#
# 1 169.1875 84.7515 35.2947 0.0000 0.0000 0.0000
# 2 84.7515 169.1875 35.2947 0.0000 0.0000 0.0000
# 3 35.2947 35.2947 27.8579 0.0000 0.0000 0.0000
# 4 0.0000 0.0000 0.0000 18.4375 0.0000 0.0000
# 5 0.0000 0.0000 0.0000 0.0000 18.4375 0.0000
# 6 0.0000 0.0000 0.0000 0.0000 0.0000 13.4405
#
#
#
# Elastic Compliance Matrix: (Units=1/GPa)
#
#
# Indices 1 2 3 4 5 6 
#
# 1 0.008961 -0.002882 -0.007702 0.000000 0.000000 0.000000
# 2 -0.002882 0.008961 -0.007702 0.000000 0.000000 0.000000
# 3 -0.007702 -0.007702 0.055412 0.000000 0.000000 0.000000
# 4 0.000000 0.000000 0.000000 0.054237 0.000000 0.000000
# 5 0.000000 0.000000 0.000000 0.000000 0.054237 0.000000
# 6 0.000000 0.000000 0.000000 0.000000 0.000000 0.074402
#
#
# Mechanical properties :
#
#
# Convention : Reuss Voigt Hill
#
# Bulk Modulus (GPa) = 27.20138 75.21275 51.20707
# Shear Modulus (GPa) = 16.39157 24.12259 20.25708
#
# Velocity S-wave (km/s) = 3.07180 3.72644 3.41485
# Velocity P-wave (km/s) = 5.31413 7.86207 6.71015
#
# Compressibility (1/GPa) = 0.03676284
#
# Stress axis : x y z
#
# Youngs Moduli (GPa) = 111.59397 111.59397 18.04678
#
# Poissons Ratio (x) = 0.32164 0.13899
# Poissons Ratio (y) = 0.32164 0.13899
# Poissons Ratio (z) = 0.85945 0.85945
#
# Static dielectric constant tensor:
#      x y z
#    x 3.481770 0.000000 0.000000 
#    y 0.000000 3.481770 0.000000 
#    z 0.000000 0.000000 2.954420 
# 
# 
# High freq. dielectric constant tensor:
#      x y z
#    x 1.676760 0.000000 0.000000 
#    y 0.000000 1.676760 0.000000 
#    z 0.000000 0.000000 1.641970 
# 
# From -- ./inp_files/1232.got.cif
#   From: 2010.03.12/outbox.cif.g09.slc.cpg/sg123_1_cif.got.tgz:1232.got - 2010.04.06 16:26:55.
