data_PCOD8312059
_publ_section_title
;
Structure prediction by ZEFSAII (Michael W. Deem and Ramdas Pophale) SiO2 
 PCOD8312059
Probable space group: I -4 2 D
;
_chemical_formula_sum "Si O2"
_cell_formula_units_Z 36
_cell_length_a 12.977664
_cell_length_b 12.977664
_cell_length_c 8.656095
_cell_angle_alpha 90.000000
_cell_angle_beta 90.000000
_cell_angle_gamma 90.000000
_cell_volume 1457.857468
_symmetry_space_group_name_H-M "I -4 2 D"
_symmetry_group_IT_number 122
_symmetry_cell_setting 'tetragonal'
loop_
_space_group_symop_operation_xyz
x,y,z
y,-x,-z
-x,-y,z
-y,x,-z
x,1/2-y,1/4-z
-x,1/2+y,1/4-z
-y,1/2-x,1/4+z
y,1/2+x,1/4+z
1/2+x,1/2+y,1/2+z
1/2+y,1/2-x,1/2-z
1/2-x,1/2-y,1/2+z
1/2-y,1/2+x,1/2-z
1/2+x,-y,3/4-z
1/2-x,y,3/4-z
1/2-y,-x,3/4+z
1/2+y,x,3/4+z
loop_
_atom_site_type_symbol
_atom_site_label
_atom_site_fract_x
_atom_site_fract_y
_atom_site_fract_z
Si Si1 0.640961 0.851343 0.814840
Si Si2 0.442228 0.363978 0.744988
Si Si3 0.500000 0.000000 0.250000
O O1 0.750000 0.807583 0.875000
O O2 0.560775 0.755741 0.799154
O O3 0.642979 0.892155 0.636115
O O4 0.607054 0.943205 0.929030
O O5 0.422819 0.432247 0.895816
#
# Coordination Sequence:
#
# PCOD8312059 Si02
#       3
#    16  16   4
#     4  11  23  51  78 106 151 216 267 340 415 498
#     4  11  26  47  79 111 161 206 274 340 418 505
#     4  12  28  42  72 124 160 210 268 344 420 498
#
# _framework density 24.693771999999999
#
# number of rings (size 3 to 8) (size 9 to 14) (size 15 to 20)
#    0.000    0.889    4.444    2.667    0.000    8.889 
#    0.000    0.000    0.000    0.000    0.000    0.000 
#    0.000    0.000    0.000    0.000    0.000    0.000 
#
# Total GULP energy -223002.209655 kJ/mol
# GULP energy per Si atom -12389.011648 kJ/mol
# Density = 2.463757 g / cm^3
# Si number density = 24.693772 Si / 1000 Ang^3
#
#
#
# Elastic Constant Matrix: (Units=GPa)
#
#
# Indices 1 2 3 4 5 6 
#
# 1 92.5954 27.7738 75.0847 0.0000 0.0000 0.0000
# 2 27.7738 92.5954 75.0847 0.0000 0.0000 0.0000
# 3 75.0847 75.0847 183.9923 0.0000 0.0000 0.0000
# 4 0.0000 0.0000 0.0000 50.1638 0.0000 0.0000
# 5 0.0000 0.0000 0.0000 0.0000 50.1638 0.0000
# 6 0.0000 0.0000 0.0000 0.0000 0.0000 21.5451
#
#
#
# Elastic Compliance Matrix: (Units=1/GPa)
#
#
# Indices 1 2 3 4 5 6 
#
# 1 0.016176 0.000749 -0.006907 0.000000 0.000000 0.000000
# 2 0.000749 0.016176 -0.006907 0.000000 0.000000 0.000000
# 3 -0.006907 -0.006907 0.011072 0.000000 0.000000 0.000000
# 4 0.000000 0.000000 0.000000 0.019935 0.000000 0.000000
# 5 0.000000 0.000000 0.000000 0.000000 0.019935 0.000000
# 6 0.000000 0.000000 0.000000 0.000000 0.000000 0.046414
#
#
# Mechanical properties :
#
#
# Convention : Reuss Voigt Hill
#
# Bulk Modulus (GPa) = 57.82292 80.56329 69.19311
# Shear Modulus (GPa) = 30.94053 37.12385 34.03219
#
# Velocity S-wave (km/s) = 3.54357 3.88154 3.71640
# Velocity P-wave (km/s) = 6.34108 7.26527 6.81885
#
# Compressibility (1/GPa) = 0.01729418
#
# Stress axis : x y z
#
# Youngs Moduli (GPa) = 61.82164 61.82164 90.31854
#
# Poissons Ratio (x) = -0.04628 0.62379
# Poissons Ratio (y) = -0.04628 0.62379
# Poissons Ratio (z) = 0.42697 0.42697
#
# Static dielectric constant tensor:
#      x y z
#    x 4.376930 0.000000 0.000000 
#    y 0.000000 4.376930 0.000000 
#    z 0.000000 0.000000 4.744150 
# 
# 
# High freq. dielectric constant tensor:
#      x y z
#    x 1.973970 0.000000 0.000000 
#    y 0.000000 1.973970 0.000000 
#    z 0.000000 0.000000 1.987460 
# 
# From -- ./inp_files/1750.got.cif
#   From: 2010.03.12/outbox.cif.g09.slc.cpg/sg122_1_cif.got.tgz:1750.got - 2010.04.06 16:17:16.
