data_PCOD8312565
_publ_section_title
;
Structure prediction by ZEFSAII (Michael W. Deem and Ramdas Pophale) SiO2 
 PCOD8312565
Probable space group: P 4/M M M
;
_chemical_formula_sum "Si O2"
_cell_formula_units_Z 76
_cell_length_a 12.237945
_cell_length_b 12.237945
_cell_length_c 30.465828
_cell_angle_alpha 90.000000
_cell_angle_beta 90.000000
_cell_angle_gamma 90.000000
_cell_volume 4562.784736
_symmetry_space_group_name_H-M "P 4/M M M"
_symmetry_group_IT_number 123
_symmetry_cell_setting 'tetragonal'
loop_
_space_group_symop_operation_xyz
x,y,z
-y,x,z
-x,-y,z
y,-x,z
x,-y,-z
-x,y,-z
y,x,-z
-y,-x,-z
-x,-y,-z
y,-x,-z
x,y,-z
-y,x,-z
-x,y,z
x,-y,z
-y,-x,z
y,x,z
loop_
_atom_site_type_symbol
_atom_site_label
_atom_site_fract_x
_atom_site_fract_y
_atom_site_fract_z
Si Si1 0.812776 0.000000 0.500000
Si Si2 0.000000 0.626516 0.426065
Si Si3 0.622397 0.198177 0.179299
Si Si4 0.000000 0.627395 0.116517
Si Si5 0.698401 0.125646 0.271116
Si Si6 0.176782 0.000000 0.051487
Si Si7 0.798343 0.378988 0.636854
O O1 0.727036 0.000000 0.459943
O O2 0.891493 0.108508 0.500000
O O3 0.895674 0.645228 0.396087
O O4 0.000000 0.500000 0.445363
O O5 0.500000 0.238299 0.170133
O O6 0.698993 0.301008 0.171876
O O7 0.656706 0.105012 0.145368
O O8 0.626988 0.151380 0.228440
O O9 0.000000 0.500000 0.101919
O O10 0.000000 0.705375 0.074402
O O11 0.813783 0.186218 0.268743
O O12 0.630111 0.162019 0.313235
O O13 0.727913 0.000000 0.274103
O O14 0.107504 0.107504 0.064848
O O15 0.199674 0.000000 0.000000
O O16 0.751926 0.500000 0.629928
O O17 0.702200 0.297801 0.624787
#
# Coordination Sequence:
#
# PCOD8312565 Si02
#       7
#     4   8  16   8  16   8  16
#     4  11  23  38  56  78 107 133 154 196 250 293
#     4  10  20  36  58  78  99 129 168 201 235 291
#     4  10  20  32  48  70  97 131 167 203 243 284
#     4  10  19  31  50  72  97 126 160 203 243 286
#     4  10  19  32  49  70 100 134 169 206 241 283
#     4   9  18  33  52  72  96 126 156 192 243 298
#     4  10  20  33  52  76 101 132 166 203 244 285
#
# _framework density 16.656493999999999
#
# number of rings (size 3 to 8) (size 9 to 14) (size 15 to 20)
#    0.000    2.053    2.105    2.368    0.000    1.684 
#    0.000    0.000    0.000    3.789    0.000    0.000 
#    0.000    7.579    0.000   19.579    0.000    0.000 
#
# Total GULP energy -942189.670875 kJ/mol
# GULP energy per Si atom -12397.232512 kJ/mol
# Density = 1.661858 g / cm^3
# Si number density = 16.656494 Si / 1000 Ang^3
#
#
#
# Elastic Constant Matrix: (Units=GPa)
#
#
# Indices 1 2 3 4 5 6 
#
# 1 117.5120 63.1722 41.8747 0.0000 0.0000 0.0000
# 2 63.1722 117.5117 41.8747 0.0000 0.0000 0.0000
# 3 41.8747 41.8747 74.2985 0.0000 0.0000 0.0000
# 4 0.0000 0.0000 0.0000 27.4234 0.0000 0.0000
# 5 0.0000 0.0000 0.0000 0.0000 27.4235 0.0000
# 6 0.0000 0.0000 0.0000 0.0000 0.0000 8.5167
#
#
#
# Elastic Compliance Matrix: (Units=1/GPa)
#
#
# Indices 1 2 3 4 5 6 
#
# 1 0.012947 -0.005456 -0.004222 0.000000 0.000000 0.000000
# 2 -0.005456 0.012947 -0.004222 0.000000 0.000000 0.000000
# 3 -0.004222 -0.004222 0.018219 0.000000 0.000000 0.000000
# 4 0.000000 0.000000 0.000000 0.036465 0.000000 0.000000
# 5 0.000000 0.000000 0.000000 0.000000 0.036465 0.000000
# 6 0.000000 0.000000 0.000000 0.000000 0.000000 0.117416
#
#
# Mechanical properties :
#
#
# Convention : Reuss Voigt Hill
#
# Bulk Modulus (GPa) = 61.30199 67.01839 64.16019
# Shear Modulus (GPa) = 18.67781 23.49942 21.08861
#
# Velocity S-wave (km/s) = 3.35229 3.76017 3.56208
# Velocity P-wave (km/s) = 7.20190 7.69252 7.45125
#
# Compressibility (1/GPa) = 0.01631268
#
# Stress axis : x y z
#
# Youngs Moduli (GPa) = 77.23690 77.23676 54.88903
#
# Poissons Ratio (x) = 0.42137 0.23176
# Poissons Ratio (y) = 0.42137 0.23176
# Poissons Ratio (z) = 0.32612 0.32611
#
# Static dielectric constant tensor:
#      x y z
#    x 3.143620 0.000000 0.000000 
#    y 0.000000 3.143620 0.000000 
#    z 0.000000 0.000000 3.080620 
# 
# 
# High freq. dielectric constant tensor:
#      x y z
#    x 1.647230 0.000000 0.000000 
#    y 0.000000 1.647230 0.000000 
#    z 0.000000 0.000000 1.635500 
# 
# From -- ./inp_files/8431.got.cif
#   From: 2010.03.12/outbox.cif.g09.slc.cpg/sg123_5_cif.got.tgz:8431.got - 2010.04.06 16:26:55.
