data_PCOD8312004
_publ_section_title
;
Structure prediction by ZEFSAII (Michael W. Deem and Ramdas Pophale) SiO2 
 PCOD8312004
Probable space group: I -4 2 D
;
_chemical_formula_sum "Si O2"
_cell_formula_units_Z 56
_cell_length_a 13.169312
_cell_length_b 13.169312
_cell_length_c 21.865277
_cell_angle_alpha 90.000000
_cell_angle_beta 90.000000
_cell_angle_gamma 90.000000
_cell_volume 3792.112013
_symmetry_space_group_name_H-M "I -4 2 D"
_symmetry_group_IT_number 122
_symmetry_cell_setting 'tetragonal'
loop_
_space_group_symop_operation_xyz
x,y,z
y,-x,-z
-x,-y,z
-y,x,-z
x,1/2-y,1/4-z
-x,1/2+y,1/4-z
-y,1/2-x,1/4+z
y,1/2+x,1/4+z
1/2+x,1/2+y,1/2+z
1/2+y,1/2-x,1/2-z
1/2-x,1/2-y,1/2+z
1/2-y,1/2+x,1/2-z
1/2+x,-y,3/4-z
1/2-x,y,3/4-z
1/2-y,-x,3/4+z
1/2+y,x,3/4+z
loop_
_atom_site_type_symbol
_atom_site_label
_atom_site_fract_x
_atom_site_fract_y
_atom_site_fract_z
Si Si1 0.908422 0.732239 0.285153
Si Si2 0.485924 0.119226 0.559668
Si Si3 0.598763 0.571728 0.571652
Si Si4 0.750000 0.656778 0.375000
O O1 0.932851 0.837939 0.251683
O O2 0.893961 0.645339 0.235178
O O3 0.812011 0.732747 0.330351
O O4 0.005790 0.701039 0.325440
O O5 0.408120 0.135441 0.615864
O O6 0.589070 0.177250 0.580844
O O7 0.500000 0.000000 0.546931
O O8 0.500000 0.500000 0.566126
#
# Coordination Sequence:
#
# PCOD8312004 Si02
#       4
#    16  16  16   8
#     4  12  18  29  47  76 111 128 158 203 251 305
#     4  11  20  30  48  77 107 130 161 202 256 299
#     4  11  15  27  48  75 106 131 150 198 256 301
#     4  12  20  28  52  76 100 142 160 198 264 292
#
# _framework density 14.767495
#
# number of rings (size 3 to 8) (size 9 to 14) (size 15 to 20)
#    0.000    0.571   14.286    0.000    0.000    0.000 
#    0.000    0.000    0.000    3.429    0.000    0.000 
#    0.000    0.000    0.000    0.000    0.000    0.000 
#
# Total GULP energy -346875.173824 kJ/mol
# GULP energy per Si atom -12388.399065 kJ/mol
# Density = 1.473388 g / cm^3
# Si number density = 14.767495 Si / 1000 Ang^3
#
#
#
# Elastic Constant Matrix: (Units=GPa)
#
#
# Indices 1 2 3 4 5 6 
#
# 1 65.1579 16.2164 32.9741 0.0000 0.0000 0.0000
# 2 16.2164 65.1579 32.9741 0.0000 0.0000 0.0000
# 3 32.9741 32.9741 85.6981 0.0000 0.0000 0.0000
# 4 0.0000 0.0000 0.0000 30.8822 0.0000 0.0000
# 5 0.0000 0.0000 0.0000 0.0000 30.8822 0.0000
# 6 0.0000 0.0000 0.0000 0.0000 0.0000 16.2727
#
#
#
# Elastic Compliance Matrix: (Units=1/GPa)
#
#
# Indices 1 2 3 4 5 6 
#
# 1 0.019145 -0.001288 -0.006871 0.000000 0.000000 0.000000
# 2 -0.001288 0.019145 -0.006871 0.000000 0.000000 0.000000
# 3 -0.006871 -0.006871 0.016956 0.000000 0.000000 0.000000
# 4 0.000000 0.000000 0.000000 0.032381 0.000000 0.000000
# 5 0.000000 0.000000 0.000000 0.000000 0.032381 0.000000
# 6 0.000000 0.000000 0.000000 0.000000 0.000000 0.061453
#
#
# Mechanical properties :
#
#
# Convention : Reuss Voigt Hill
#
# Bulk Modulus (GPa) = 39.70283 42.26036 40.98159
# Shear Modulus (GPa) = 22.73596 24.53071 23.63334
#
# Velocity S-wave (km/s) = 3.92802 4.08012 4.00479
# Velocity P-wave (km/s) = 6.89320 7.13272 7.01398
#
# Compressibility (1/GPa) = 0.02518712
#
# Stress axis : x y z
#
# Youngs Moduli (GPa) = 52.23308 52.23308 58.97484
#
# Poissons Ratio (x) = 0.06726 0.40522
# Poissons Ratio (y) = 0.06726 0.40522
# Poissons Ratio (z) = 0.35889 0.35889
#
# Static dielectric constant tensor:
#      x y z
#    x 2.911550 0.000000 0.000000 
#    y 0.000000 2.911550 0.000000 
#    z 0.000000 0.000000 3.203030 
# 
# 
# High freq. dielectric constant tensor:
#      x y z
#    x 1.540130 0.000000 0.000000 
#    y 0.000000 1.540130 0.000000 
#    z 0.000000 0.000000 1.563920 
# 
# From -- ./inp_files/5999.got.cif
#   From: 2010.03.12/outbox.cif.g09.slc.cpg/sg122_3_cif.got.tgz:5999.got - 2010.04.06 16:17:16.
