data_PCOD8312377
_publ_section_title
;
Structure prediction by ZEFSAII (Michael W. Deem and Ramdas Pophale) SiO2 
 PCOD8312377
Probable space group: P 4/M M M
;
_chemical_formula_sum "Si O2"
_cell_formula_units_Z 80
_cell_length_a 23.268996
_cell_length_b 23.268996
_cell_length_c 12.952255
_cell_angle_alpha 90.000000
_cell_angle_beta 90.000000
_cell_angle_gamma 90.000000
_cell_volume 7012.948925
_symmetry_space_group_name_H-M "P 4/M M M"
_symmetry_group_IT_number 123
_symmetry_cell_setting 'tetragonal'
loop_
_space_group_symop_operation_xyz
x,y,z
-y,x,z
-x,-y,z
y,-x,z
x,-y,-z
-x,y,-z
y,x,-z
-y,-x,-z
-x,-y,-z
y,-x,-z
x,y,-z
-y,x,-z
-x,y,z
x,-y,z
-y,-x,z
y,x,z
loop_
_atom_site_type_symbol
_atom_site_label
_atom_site_fract_x
_atom_site_fract_y
_atom_site_fract_z
Si Si1 0.435612 0.068332 0.385848
Si Si2 0.235224 0.067935 0.804607
Si Si3 0.161082 0.931880 0.000000
Si Si4 0.931550 0.435008 0.000000
Si Si5 0.066117 0.840649 0.383609
Si Si6 0.068686 0.636270 0.195405
O O1 0.416097 0.089075 0.500000
O O2 0.500000 0.090636 0.361785
O O3 0.391820 0.092963 0.300803
O O4 0.435633 0.000000 0.381515
O O5 0.196719 0.088747 0.900162
O O6 0.207477 0.088239 0.696327
O O7 0.299286 0.093974 0.813447
O O8 0.240181 0.000000 0.807807
O O9 0.099671 0.900330 0.000000
O O10 0.149369 0.000000 0.000000
O O11 0.908337 0.401530 0.100203
O O12 0.907327 0.500000 0.000000
O O13 0.000000 0.436252 0.000000
O O14 0.074523 0.816637 0.500000
O O15 0.100882 0.899119 0.366439
O O16 0.000000 0.856364 0.361706
O O17 0.000000 0.637248 0.195370
#
# Coordination Sequence:
#
# PCOD8312377 Si02
#       6
#    16  16   8   8  16  16
#     4   8  13  20  29  42  60  80 100 118 132 146
#     4   9  17  27  37  49  63  77  93 112 136 169
#     4  10  19  30  42  52  62  74  89 113 146 185
#     4   9  15  21  30  44  60  77  97 117 133 149
#     4   9  17  28  40  52  64  76  91 114 145 182
#     4   9  15  22  32  44  59  78  96 113 133 156
#
# _framework density 11.40747
#
# number of rings (size 3 to 8) (size 9 to 14) (size 15 to 20)
#    0.000    3.100    0.000    2.400    0.000    5.900 
#    0.000    5.000    0.000    3.600    0.000    0.000 
#    0.000    0.000    0.000    0.000    0.000    0.000 
#
# Total GULP energy -991558.031406 kJ/mol
# GULP energy per Si atom -12394.475393 kJ/mol
# Density = 1.138151 g / cm^3
# Si number density = 11.407470 Si / 1000 Ang^3
#
#
#
# Elastic Constant Matrix: (Units=GPa)
#
#
# Indices 1 2 3 4 5 6 
#
# 1 49.2552 20.9711 36.8603 0.0000 0.0000 0.0000
# 2 20.9711 49.2531 36.8593 0.0000 0.0000 0.0000
# 3 36.8603 36.8593 106.3424 0.0000 0.0000 0.0000
# 4 0.0000 0.0000 0.0000 13.9421 0.0000 0.0000
# 5 0.0000 0.0000 0.0000 0.0000 13.9423 0.0000
# 6 0.0000 0.0000 0.0000 0.0000 0.0000 0.6046
#
#
#
# Elastic Compliance Matrix: (Units=1/GPa)
#
#
# Indices 1 2 3 4 5 6 
#
# 1 0.028870 -0.006486 -0.007759 0.000000 0.000000 0.000000
# 2 -0.006486 0.028871 -0.007759 0.000000 0.000000 0.000000
# 3 -0.007759 -0.007759 0.014782 0.000000 0.000000 0.000000
# 4 0.000000 0.000000 0.000000 0.071725 0.000000 0.000000
# 5 0.000000 0.000000 0.000000 0.000000 0.071724 0.000000
# 6 0.000000 0.000000 0.000000 0.000000 0.000000 1.653937
#
#
# Mechanical properties :
#
#
# Convention : Reuss Voigt Hill
#
# Bulk Modulus (GPa) = 35.06756 43.80356 39.43556
# Shear Modulus (GPa) = 2.59953 13.04180 7.82067
#
# Velocity S-wave (km/s) = 1.51121 3.38489 2.62119
# Velocity P-wave (km/s) = 5.81830 7.33206 6.61860
#
# Compressibility (1/GPa) = 0.02851638
#
# Stress axis : x y z
#
# Youngs Moduli (GPa) = 34.63762 34.63630 67.64846
#
# Poissons Ratio (x) = 0.22465 0.52488
# Poissons Ratio (y) = 0.22466 0.52488
# Poissons Ratio (z) = 0.26875 0.26874
#
# Static dielectric constant tensor:
#      x y z
#    x 2.196240 0.000000 0.000000 
#    y 0.000000 2.196250 0.000000 
#    z 0.000000 0.000000 2.723530 
# 
# 
# High freq. dielectric constant tensor:
#      x y z
#    x 1.387610 0.000000 0.000000 
#    y 0.000000 1.387610 0.000000 
#    z 0.000000 0.000000 1.455760 
# 
# From -- ./inp_files/4266.got.cif
#   From: 2010.03.12/outbox.cif.g09.slc.cpg/sg123_3_cif.got.tgz:4266.got - 2010.04.06 16:26:55.
