data_PCOD8312956
_publ_section_title
;
Structure prediction by ZEFSAII (Michael W. Deem and Ramdas Pophale) SiO2 
 PCOD8312956
Probable space group: P 4/M M M
;
_chemical_formula_sum "Si O2"
_cell_formula_units_Z 96
_cell_length_a 23.983642
_cell_length_b 23.983642
_cell_length_c 9.309724
_cell_angle_alpha 90.000000
_cell_angle_beta 90.000000
_cell_angle_gamma 90.000000
_cell_volume 5355.093669
_symmetry_space_group_name_H-M "P 4/M M M"
_symmetry_group_IT_number 123
_symmetry_cell_setting 'tetragonal'
loop_
_space_group_symop_operation_xyz
x,y,z
-y,x,z
-x,-y,z
y,-x,z
x,-y,-z
-x,y,-z
y,x,-z
-y,-x,-z
-x,-y,-z
y,-x,-z
x,y,-z
-y,x,-z
-x,y,z
x,-y,z
-y,-x,z
y,x,z
loop_
_atom_site_type_symbol
_atom_site_label
_atom_site_fract_x
_atom_site_fract_y
_atom_site_fract_z
Si Si1 0.563361 0.241285 0.166548
Si Si2 0.437630 0.934169 0.337837
Si Si3 0.562966 0.348598 0.332431
Si Si4 0.849878 0.937517 0.329442
Si Si5 0.849958 0.241692 0.332563
Si Si6 0.140265 0.642869 0.830629
O O1 0.500000 0.225945 0.211628
O O2 0.585688 0.294520 0.251822
O O3 0.603701 0.191685 0.210009
O O4 0.566934 0.255540 0.000000
O O5 0.427287 0.912265 0.500000
O O6 0.500000 0.915630 0.286585
O O7 0.388877 0.912921 0.233700
O O8 0.433680 0.000000 0.334919
O O9 0.568455 0.336610 0.500000
O O10 0.500000 0.362027 0.286572
O O11 0.598655 0.401346 0.283361
O O12 0.853036 0.940218 0.500000
O O13 0.904469 0.904469 0.271470
O O14 0.794269 0.903978 0.285166
O O15 0.848456 0.000000 0.263496
O O16 0.853695 0.257736 0.500000
O O17 0.794016 0.205985 0.302760
O O18 0.849548 0.297016 0.238121
O O19 0.132058 0.650226 0.000000
#
# Coordination Sequence:
#
# PCOD8312956 Si02
#       6
#    16  16  16  16  16  16
#     4   9  19  35  51  68  94 126 158 197 247 297
#     4   9  19  36  56  78 105 136 169 206 250 302
#     4   9  18  32  50  73  99 126 158 197 242 293
#     4   8  14  26  46  72 100 129 161 199 244 291
#     4   9  19  35  51  69  99 138 175 210 251 301
#     4  11  22  34  52  77 102 131 170 213 257 306
#
# _framework density 17.926859
#
# number of rings (size 3 to 8) (size 9 to 14) (size 15 to 20)
#    0.000    2.833    0.000    2.500    0.000    5.000 
#    0.000    9.167    0.000    0.000    0.000    2.333 
#    0.000    0.000    0.000    3.667    0.000    3.667 
#
# Total GULP energy -1190168.588077 kJ/mol
# GULP energy per Si atom -12397.589459 kJ/mol
# Density = 1.788606 g / cm^3
# Si number density = 17.926859 Si / 1000 Ang^3
#
#
#
# Elastic Constant Matrix: (Units=GPa)
#
#
# Indices 1 2 3 4 5 6 
#
# 1 118.7276 61.0344 47.9999 0.0000 0.0000 0.0000
# 2 61.0344 118.7276 47.9999 0.0000 0.0000 0.0000
# 3 47.9999 47.9999 54.9644 0.0000 0.0000 0.0000
# 4 0.0000 0.0000 0.0000 21.1276 0.0000 0.0000
# 5 0.0000 0.0000 0.0000 0.0000 21.1276 0.0000
# 6 0.0000 0.0000 0.0000 0.0000 0.0000 -49.5047
#
#
#
# Elastic Compliance Matrix: (Units=1/GPa)
#
#
# Indices 1 2 3 4 5 6 
#
# 1 0.013879 -0.003454 -0.009104 0.000000 0.000000 0.000000
# 2 -0.003454 0.013879 -0.009104 0.000000 0.000000 0.000000
# 3 -0.009104 -0.009104 0.034094 0.000000 0.000000 0.000000
# 4 0.000000 0.000000 0.000000 0.047331 0.000000 0.000000
# 5 0.000000 0.000000 0.000000 0.000000 0.047331 0.000000
# 6 0.000000 0.000000 0.000000 0.000000 0.000000 -0.020200
#
#
# Mechanical properties :
#
#
# Convention : Reuss Voigt Hill
#
# Bulk Modulus (GPa) = 53.97138 67.38756 60.67947
# Shear Modulus (GPa) = 26.90858 7.57579 17.24219
#
# Velocity S-wave (km/s) = 3.87850 2.05794 3.10467
# Velocity P-wave (km/s) = 7.08723 6.58170 6.83914
#
# Compressibility (1/GPa) = 0.01852834
#
# Stress axis : x y z
#
# Youngs Moduli (GPa) = 72.05202 72.05202 29.33057
#
# Poissons Ratio (x) = 0.24888 0.26702
# Poissons Ratio (y) = 0.24888 0.26702
# Poissons Ratio (z) = 0.65595 0.65595
#
# Static dielectric constant tensor:
#      x y z
#    x 3.439970 0.000000 0.000000 
#    y 0.000000 3.439970 0.000000 
#    z 0.000000 0.000000 3.127500 
# 
# 
# High freq. dielectric constant tensor:
#      x y z
#    x 1.696980 0.000000 0.000000 
#    y 0.000000 1.696980 0.000000 
#    z 0.000000 0.000000 1.671770 
# 
# From -- ./inp_files/1624.got.cif
#   From: 2010.03.12/outbox.cif.g09.slc.cpg/sg123_1_cif.got.tgz:1624.got - 2010.04.06 16:26:55.
