data_PCOD8312551
_publ_section_title
;
Structure prediction by ZEFSAII (Michael W. Deem and Ramdas Pophale) SiO2 
 PCOD8312551
Probable space group: P 4/M M M
;
_chemical_formula_sum "Si O2"
_cell_formula_units_Z 64
_cell_length_a 22.049901
_cell_length_b 22.049901
_cell_length_c 7.521698
_cell_angle_alpha 90.000000
_cell_angle_beta 90.000000
_cell_angle_gamma 90.000000
_cell_volume 3657.035533
_symmetry_space_group_name_H-M "P 4/M M M"
_symmetry_group_IT_number 123
_symmetry_cell_setting 'tetragonal'
loop_
_space_group_symop_operation_xyz
x,y,z
-y,x,z
-x,-y,z
y,-x,z
x,-y,-z
-x,y,-z
y,x,-z
-y,-x,-z
-x,-y,-z
y,-x,-z
x,y,-z
-y,x,-z
-x,y,z
x,-y,z
-y,-x,z
y,x,z
loop_
_atom_site_type_symbol
_atom_site_label
_atom_site_fract_x
_atom_site_fract_y
_atom_site_fract_z
Si Si1 0.198350 0.571461 0.000000
Si Si2 0.250249 0.349048 0.299400
Si Si3 0.877076 0.285275 0.298021
Si Si4 0.363320 0.930048 0.000000
Si Si5 0.159485 0.840516 0.304733
Si Si6 0.931285 0.931285 0.203775
O O1 0.236664 0.594743 0.830211
O O2 0.126038 0.588588 0.000000
O O3 0.201204 0.500000 0.000000
O O4 0.260649 0.373527 0.500000
O O5 0.308271 0.308271 0.239257
O O6 0.191094 0.308293 0.290013
O O7 0.902724 0.286389 0.500000
O O8 0.871266 0.217882 0.212601
O O9 0.923360 0.323208 0.177428
O O10 0.390373 0.000000 0.000000
O O11 0.181619 0.818382 0.500000
O O12 0.108962 0.891039 0.330649
O O13 0.000000 0.916207 0.247950
O O14 0.916055 0.916055 0.000000
#
# Coordination Sequence:
#
# PCOD8312551 Si02
#       6
#     8  16  16   8   8   8
#     4  10  21  34  50  76 108 140 179 219 249 289
#     4   9  16  31  55  78 103 134 165 202 256 311
#     4   9  18  32  50  74  99 119 152 207 262 313
#     4  10  22  35  49  69  95 139 182 211 254 298
#     4  10  19  31  49  70  90 112 142 193 259 312
#     4   9  20  36  46  54  76 112 150 186 230 295
#
# _framework density 17.500512000000001
#
# number of rings (size 3 to 8) (size 9 to 14) (size 15 to 20)
#    0.000    2.625    1.250    0.750    1.750    2.750 
#    0.000    3.125    0.000    0.000    0.000    7.000 
#    0.000    4.000    0.000   11.000    0.000    0.000 
#
# Total GULP energy -792839.026515 kJ/mol
# GULP energy per Si atom -12388.109789 kJ/mol
# Density = 1.746068 g / cm^3
# Si number density = 17.500512 Si / 1000 Ang^3
#
#
#
# Elastic Constant Matrix: (Units=GPa)
#
#
# Indices 1 2 3 4 5 6 
#
# 1 71.3664 71.5093 41.8007 0.0000 0.0000 0.0000
# 2 71.5093 71.3666 41.8010 0.0000 0.0000 0.0000
# 3 41.8007 41.8010 90.8252 0.0000 0.0000 0.0000
# 4 0.0000 0.0000 0.0000 13.8536 0.0000 0.0000
# 5 0.0000 0.0000 0.0000 0.0000 13.8534 0.0000
# 6 0.0000 0.0000 0.0000 0.0000 0.0000 15.0921
#
#
#
# Elastic Compliance Matrix: (Units=1/GPa)
#
#
# Indices 1 2 3 4 5 6 
#
# 1 -3.496038 3.505618 -0.004420 0.000000 0.000000 0.000000
# 2 3.505618 -3.496040 -0.004397 0.000000 0.000000 0.000000
# 3 -0.004420 -0.004397 0.015068 0.000000 0.000000 0.000000
# 4 0.000000 0.000000 0.000000 0.072183 0.000000 0.000000
# 5 0.000000 0.000000 0.000000 0.000000 0.072184 0.000000
# 6 0.000000 0.000000 0.000000 0.000000 0.000000 0.066260
#
#
# Mechanical properties :
#
#
# Convention : Reuss Voigt Hill
#
# Bulk Modulus (GPa) = 60.27165 60.42004 60.34584
# Shear Modulus (GPa) = -0.36352 13.78962 6.71305
#
# Velocity S-wave (km/s) = -0.45626 2.81010 1.96067
# Velocity P-wave (km/s) = 5.85125 6.71778 6.29943
#
# Compressibility (1/GPa) = 0.01659155
#
# Stress axis : x y z
#
# Youngs Moduli (GPa) = -0.28604 -0.28604 66.36600
#
# Poissons Ratio (x) = 1.00274 0.29331
# Poissons Ratio (y) = 1.00274 0.29182
# Poissons Ratio (z) = -0.00126 -0.00126
#
# Static dielectric constant tensor:
#      x y z
#    x 3.015690 0.000000 0.000000 
#    y 0.000000 3.015690 0.000000 
#    z 0.000000 0.000000 3.683320 
# 
# 
# High freq. dielectric constant tensor:
#      x y z
#    x 1.648810 0.000000 0.000000 
#    y 0.000000 1.648810 0.000000 
#    z 0.000000 0.000000 1.686770 
# 
# From -- ./inp_files/1032.got.cif
#   From: 2010.03.12/outbox.cif.g09.slc.cpg/sg123_1_cif.got.tgz:1032.got - 2010.04.06 16:26:55.
