data_PCOD8312197
_publ_section_title
;
Structure prediction by ZEFSAII (Michael W. Deem and Ramdas Pophale) SiO2 
 PCOD8312197
Probable space group: P 4/M M M
;
_chemical_formula_sum "Si O2"
_cell_formula_units_Z 112
_cell_length_a 17.761471
_cell_length_b 17.761471
_cell_length_c 22.346444
_cell_angle_alpha 90.000000
_cell_angle_beta 90.000000
_cell_angle_gamma 90.000000
_cell_volume 7049.629383
_symmetry_space_group_name_H-M "P 4/M M M"
_symmetry_group_IT_number 123
_symmetry_cell_setting 'tetragonal'
loop_
_space_group_symop_operation_xyz
x,y,z
-y,x,z
-x,-y,z
y,-x,z
x,-y,-z
-x,y,-z
y,x,-z
-y,-x,-z
-x,-y,-z
y,-x,-z
x,y,-z
-y,x,-z
-x,y,z
x,-y,z
-y,-x,z
y,x,z
loop_
_atom_site_type_symbol
_atom_site_label
_atom_site_fract_x
_atom_site_fract_y
_atom_site_fract_z
Si Si1 0.413105 0.085475 0.625986
Si Si2 0.299760 0.582429 0.674181
Si Si3 0.583847 0.848826 0.749570
Si Si4 0.293419 0.585764 0.069139
Si Si5 0.340518 0.777898 0.431245
Si Si6 0.311442 0.811845 0.145623
Si Si7 0.085916 0.207042 0.069256
O O1 0.500000 0.111189 0.612743
O O2 0.398167 0.091395 0.697130
O O3 0.351988 0.135748 0.589993
O O4 0.400433 0.000000 0.605288
O O5 0.334939 0.500000 0.670500
O O6 0.363243 0.636758 0.699479
O O7 0.233417 0.586510 0.721452
O O8 0.272874 0.603678 0.607727
O O9 0.500000 0.864295 0.776309
O O10 0.648698 0.853914 0.799166
O O11 0.303059 0.500000 0.090563
O O12 0.372829 0.627172 0.080011
O O13 0.227947 0.624354 0.106878
O O14 0.269550 0.590703 0.000000
O O15 0.364713 0.770900 0.500000
O O16 0.254459 0.745542 0.422361
O O17 0.248728 0.751273 0.167029
O O18 0.274050 0.876954 0.106474
O O19 0.128544 0.128544 0.081427
O O20 0.000000 0.196039 0.089696
O O21 0.091755 0.229991 0.000000
#
# Coordination Sequence:
#
# PCOD8312197 Si02
#       7
#    16  16  16  16  16  16  16
#     4   9  18  31  46  66  91 116 144 182 223 258
#     4   9  17  28  41  58  82 112 147 186 221 252
#     4   9  17  29  44  61  83 113 146 179 217 259
#     4   9  17  28  42  61  85 113 146 185 226 264
#     4   9  17  29  45  64  87 116 146 174 209 256
#     4  10  18  28  45  66  86 112 146 180 214 255
#     4   9  18  32  49  69  91 112 135 166 205 251
#
# _framework density 15.887359
#
# number of rings (size 3 to 8) (size 9 to 14) (size 15 to 20)
#    0.000    2.857    0.000    2.571    0.000    4.714 
#    0.000    2.143    0.000    1.286    0.000    9.000 
#    0.000    0.286    0.000    1.571    0.000    0.286 
#
# Total GULP energy -1388255.396980 kJ/mol
# GULP energy per Si atom -12395.137473 kJ/mol
# Density = 1.585120 g / cm^3
# Si number density = 15.887359 Si / 1000 Ang^3
#
#
#
# Elastic Constant Matrix: (Units=GPa)
#
#
# Indices 1 2 3 4 5 6 
#
# 1 87.7851 37.1231 29.0021 0.0000 0.0000 0.0000
# 2 37.1231 87.7851 29.0021 0.0000 0.0000 0.0000
# 3 29.0021 29.0021 57.7963 0.0000 0.0000 0.0000
# 4 0.0000 0.0000 0.0000 16.3829 0.0000 0.0000
# 5 0.0000 0.0000 0.0000 0.0000 16.3829 0.0000
# 6 0.0000 0.0000 0.0000 0.0000 0.0000 19.3667
#
#
#
# Elastic Compliance Matrix: (Units=1/GPa)
#
#
# Indices 1 2 3 4 5 6 
#
# 1 0.015088 -0.004650 -0.005238 0.000000 0.000000 0.000000
# 2 -0.004650 0.015088 -0.005238 0.000000 0.000000 0.000000
# 3 -0.005238 -0.005238 0.022559 0.000000 0.000000 0.000000
# 4 0.000000 0.000000 0.000000 0.061039 0.000000 0.000000
# 5 0.000000 0.000000 0.000000 0.000000 0.061039 0.000000
# 6 0.000000 0.000000 0.000000 0.000000 0.000000 0.051635
#
#
# Mechanical properties :
#
#
# Convention : Reuss Voigt Hill
#
# Bulk Modulus (GPa) = 44.47653 47.06901 45.77277
# Shear Modulus (GPa) = 18.92534 19.64243 19.28388
#
# Velocity S-wave (km/s) = 3.45515 3.52000 3.48773
# Velocity P-wave (km/s) = 6.63122 6.79791 6.71508
#
# Compressibility (1/GPa) = 0.02248377
#
# Stress axis : x y z
#
# Youngs Moduli (GPa) = 66.27585 66.27585 44.32841
#
# Poissons Ratio (x) = 0.30820 0.23219
# Poissons Ratio (y) = 0.30820 0.23219
# Poissons Ratio (z) = 0.34715 0.34715
#
# Static dielectric constant tensor:
#      x y z
#    x 3.014150 0.000000 0.000000 
#    y 0.000000 3.014150 0.000000 
#    z 0.000000 0.000000 2.972840 
# 
# 
# High freq. dielectric constant tensor:
#      x y z
#    x 1.599390 0.000000 0.000000 
#    y 0.000000 1.599390 0.000000 
#    z 0.000000 0.000000 1.605460 
# 
# From -- ./inp_files/6656.got.cif
#   From: 2010.03.12/outbox.cif.g09.slc.cpg/sg123_4_cif.got.tgz:6656.got - 2010.04.06 16:26:55.
