data_PCOD8312753
_publ_section_title
;
Structure prediction by ZEFSAII (Michael W. Deem and Ramdas Pophale) SiO2 
 PCOD8312753
Probable space group: P 4/M M M
;
_chemical_formula_sum "Si O2"
_cell_formula_units_Z 104
_cell_length_a 13.955775
_cell_length_b 13.955775
_cell_length_c 33.436883
_cell_angle_alpha 90.000000
_cell_angle_beta 90.000000
_cell_angle_gamma 90.000000
_cell_volume 6512.289573
_symmetry_space_group_name_H-M "P 4/M M M"
_symmetry_group_IT_number 123
_symmetry_cell_setting 'tetragonal'
loop_
_space_group_symop_operation_xyz
x,y,z
-y,x,z
-x,-y,z
y,-x,z
x,-y,-z
-x,y,-z
y,x,-z
-y,-x,-z
-x,-y,-z
y,-x,-z
x,y,-z
-y,x,-z
-x,y,z
x,-y,z
-y,-x,z
y,x,z
loop_
_atom_site_type_symbol
_atom_site_label
_atom_site_fract_x
_atom_site_fract_y
_atom_site_fract_z
Si Si1 0.613614 0.106474 0.114025
Si Si2 0.388312 0.231436 0.638925
Si Si3 0.114337 0.272501 0.422518
Si Si4 0.613671 0.893579 0.798151
Si Si5 0.391952 0.887118 0.500000
Si Si6 0.391191 0.239899 0.270406
Si Si7 0.390075 0.762407 0.044371
O O1 0.500000 0.101895 0.109667
O O2 0.641302 0.148539 0.157936
O O3 0.656839 0.168993 0.077905
O O4 0.656425 0.000000 0.109863
O O5 0.500000 0.245656 0.626685
O O6 0.331576 0.331576 0.631345
O O7 0.338996 0.145389 0.614556
O O8 0.380253 0.197749 0.684979
O O9 0.170825 0.170825 0.422112
O O10 0.145987 0.332117 0.461497
O O11 0.000000 0.252244 0.420955
O O12 0.500000 0.898557 0.793831
O O13 0.657156 0.830888 0.762058
O O14 0.656690 0.000000 0.793895
O O15 0.500000 0.842072 0.500000
O O16 0.402665 0.000000 0.500000
O O17 0.500000 0.258892 0.258892
O O18 0.342431 0.342431 0.267468
O O19 0.500000 0.742315 0.054177
O O20 0.339773 0.660228 0.046574
O O21 0.377297 0.808544 0.000000
#
# Coordination Sequence:
#
# PCOD8312753 Si02
#       7
#    16  16  16  16   8  16  16
#     4   8  14  25  40  56  74  98 130 169 210 245
#     4   9  18  31  46  66  91 119 153 191 230 272
#     4  10  20  33  49  70  96 125 158 195 234 278
#     4   8  14  25  40  57  77 102 133 169 208 247
#     4   9  17  30  49  71  93 119 151 185 222 263
#     4   9  17  28  42  62  88 116 145 176 210 251
#     4   9  17  27  38  54  77 105 135 164 195 236
#
# _framework density 15.969804999999999
#
# number of rings (size 3 to 8) (size 9 to 14) (size 15 to 20)
#    0.000    3.154    0.000    1.615    0.000    3.077 
#    0.000    5.385    0.000    1.385    0.000    4.308 
#    0.000    6.154    0.000    5.077    0.000    2.923 
#
# Total GULP energy -1288666.337163 kJ/mol
# GULP energy per Si atom -12391.022473 kJ/mol
# Density = 1.593346 g / cm^3
# Si number density = 15.969805 Si / 1000 Ang^3
#
#
#
# Elastic Constant Matrix: (Units=GPa)
#
#
# Indices 1 2 3 4 5 6 
#
# 1 70.4289 33.9487 49.7661 0.0000 0.0000 0.0000
# 2 33.9487 70.4289 49.7661 0.0000 0.0000 0.0000
# 3 49.7661 49.7661 124.6797 0.0000 0.0000 0.0000
# 4 0.0000 0.0000 0.0000 23.5444 0.0000 0.0000
# 5 0.0000 0.0000 0.0000 0.0000 23.5444 0.0000
# 6 0.0000 0.0000 0.0000 0.0000 0.0000 9.8016
#
#
#
# Elastic Compliance Matrix: (Units=1/GPa)
#
#
# Indices 1 2 3 4 5 6 
#
# 1 0.021440 -0.005972 -0.006174 0.000000 0.000000 0.000000
# 2 -0.005972 0.021440 -0.006174 0.000000 0.000000 0.000000
# 3 -0.006174 -0.006174 0.012949 0.000000 0.000000 0.000000
# 4 0.000000 0.000000 0.000000 0.042473 0.000000 0.000000
# 5 0.000000 0.000000 0.000000 0.000000 0.042473 0.000000
# 6 0.000000 0.000000 0.000000 0.000000 0.000000 0.102024
#
#
# Mechanical properties :
#
#
# Convention : Reuss Voigt Hill
#
# Bulk Modulus (GPa) = 52.11293 59.16660 55.63977
# Shear Modulus (GPa) = 17.49254 20.18187 18.83721
#
# Velocity S-wave (km/s) = 3.31320 3.55879 3.43819
# Velocity P-wave (km/s) = 6.88036 7.34956 7.11883
#
# Compressibility (1/GPa) = 0.01918910
#
# Stress axis : x y z
#
# Youngs Moduli (GPa) = 46.64154 46.64154 77.22387
#
# Poissons Ratio (x) = 0.27854 0.47679
# Poissons Ratio (y) = 0.27854 0.47679
# Poissons Ratio (z) = 0.28797 0.28797
#
# Static dielectric constant tensor:
#      x y z
#    x 2.886920 0.000000 0.000000 
#    y 0.000000 2.886920 0.000000 
#    z 0.000000 0.000000 3.407070 
# 
# 
# High freq. dielectric constant tensor:
#      x y z
#    x 1.586190 0.000000 0.000000 
#    y 0.000000 1.586190 0.000000 
#    z 0.000000 0.000000 1.633490 
# 
# From -- ./inp_files/8784.got.cif
#   From: 2010.03.12/outbox.cif.g09.slc.cpg/sg123_5_cif.got.tgz:8784.got - 2010.04.06 16:26:55.
