data_PCOD8312515
_publ_section_title
;
Structure prediction by ZEFSAII (Michael W. Deem and Ramdas Pophale) SiO2 
 PCOD8312515
Probable space group: P 4/M M M
;
_chemical_formula_sum "Si O2"
_cell_formula_units_Z 96
_cell_length_a 17.625064
_cell_length_b 17.625064
_cell_length_c 18.878065
_cell_angle_alpha 90.000000
_cell_angle_beta 90.000000
_cell_angle_gamma 90.000000
_cell_volume 5864.336499
_symmetry_space_group_name_H-M "P 4/M M M"
_symmetry_group_IT_number 123
_symmetry_cell_setting 'tetragonal'
loop_
_space_group_symop_operation_xyz
x,y,z
-y,x,z
-x,-y,z
y,-x,z
x,-y,-z
-x,y,-z
y,x,-z
-y,-x,-z
-x,-y,-z
y,-x,-z
x,y,-z
-y,x,-z
-x,y,z
x,-y,z
-y,-x,z
y,x,z
loop_
_atom_site_type_symbol
_atom_site_label
_atom_site_fract_x
_atom_site_fract_y
_atom_site_fract_z
Si Si1 0.700287 0.583255 0.082980
Si Si2 0.410664 0.867502 0.923311
Si Si3 0.208200 0.913528 0.581327
Si Si4 0.586244 0.292253 0.581505
Si Si5 0.588458 0.915450 0.226627
Si Si6 0.687823 0.811847 0.324434
O O1 0.692408 0.500000 0.118581
O O2 0.638922 0.638922 0.119200
O O3 0.783258 0.619308 0.095399
O O4 0.684649 0.576297 0.000000
O O5 0.500000 0.860807 0.933036
O O6 0.390534 0.921076 0.857230
O O7 0.377218 0.896229 0.000000
O O8 0.234854 0.907322 0.500000
O O9 0.127860 0.872141 0.592481
O O10 0.272320 0.875813 0.628933
O O11 0.197112 0.000000 0.605233
O O12 0.591639 0.266552 0.500000
O O13 0.500000 0.302360 0.606400
O O14 0.627435 0.372565 0.593228
O O15 0.624976 0.227261 0.627287
O O16 0.500000 0.891508 0.236927
O O17 0.644092 0.853608 0.260901
O O18 0.601751 0.000000 0.258100
O O19 0.749835 0.749835 0.296748
#
# Coordination Sequence:
#
# PCOD8312515 Si02
#       6
#    16  16  16  16  16  16
#     4   8  13  21  34  53  78 108 140 173 207 245
#     4   8  15  28  43  59  80 105 135 174 222 271
#     4   9  17  29  46  67  90 117 147 179 215 254
#     4   9  17  29  46  67  90 118 152 189 225 257
#     4  10  20  32  47  67  89 113 143 182 224 263
#     4  10  19  31  46  64  90 121 151 179 211 259
#
# _framework density 16.370139000000002
#
# number of rings (size 3 to 8) (size 9 to 14) (size 15 to 20)
#    0.000    3.000    0.000    2.500    0.000    3.500 
#    0.000    4.167    0.000    0.000    0.000    7.000 
#    0.000    4.000    0.000    0.167    0.000    0.000 
#
# Total GULP energy -1189516.753447 kJ/mol
# GULP energy per Si atom -12390.799515 kJ/mol
# Density = 1.633288 g / cm^3
# Si number density = 16.370139 Si / 1000 Ang^3
#
#
#
# Elastic Constant Matrix: (Units=GPa)
#
#
# Indices 1 2 3 4 5 6 
#
# 1 92.1877 48.2599 44.2201 0.0000 0.0000 0.0000
# 2 48.2599 92.1877 44.2201 0.0000 0.0000 0.0000
# 3 44.2201 44.2201 70.8322 0.0000 0.0000 0.0000
# 4 0.0000 0.0000 0.0000 18.9252 0.0000 0.0000
# 5 0.0000 0.0000 0.0000 0.0000 18.9252 0.0000
# 6 0.0000 0.0000 0.0000 0.0000 0.0000 18.2021
#
#
#
# Elastic Compliance Matrix: (Units=1/GPa)
#
#
# Indices 1 2 3 4 5 6 
#
# 1 0.017248 -0.005516 -0.007324 0.000000 0.000000 0.000000
# 2 -0.005516 0.017248 -0.007324 0.000000 0.000000 0.000000
# 3 -0.007324 -0.007324 0.023263 0.000000 0.000000 0.000000
# 4 0.000000 0.000000 0.000000 0.052840 0.000000 0.000000
# 5 0.000000 0.000000 0.000000 0.000000 0.052840 0.000000
# 6 0.000000 0.000000 0.000000 0.000000 0.000000 0.054939
#
#
# Mechanical properties :
#
#
# Convention : Reuss Voigt Hill
#
# Bulk Modulus (GPa) = 57.37231 58.73423 58.05327
# Shear Modulus (GPa) = 18.90234 19.11102 19.00668
#
# Velocity S-wave (km/s) = 3.40175 3.42048 3.41113
# Velocity P-wave (km/s) = 7.11001 7.18027 7.14523
#
# Compressibility (1/GPa) = 0.01743001
#
# Stress axis : x y z
#
# Youngs Moduli (GPa) = 57.97623 57.97623 42.98667
#
# Poissons Ratio (x) = 0.31981 0.31485
# Poissons Ratio (y) = 0.31981 0.31485
# Poissons Ratio (z) = 0.42464 0.42464
#
# Static dielectric constant tensor:
#      x y z
#    x 3.107710 0.000000 0.000000 
#    y 0.000000 3.107710 0.000000 
#    z 0.000000 0.000000 3.000290 
# 
# 
# High freq. dielectric constant tensor:
#      x y z
#    x 1.619920 0.000000 0.000000 
#    y 0.000000 1.619920 0.000000 
#    z 0.000000 0.000000 1.611670 
# 
# From -- ./inp_files/5455.got.cif
#   From: 2010.03.12/outbox.cif.g09.slc.cpg/sg123_3_cif.got.tgz:5455.got - 2010.04.06 16:26:55.
