data_PCOD8312413
_publ_section_title
;
Structure prediction by ZEFSAII (Michael W. Deem and Ramdas Pophale) SiO2 
 PCOD8312413
Probable space group: P 4/M M M
;
_chemical_formula_sum "Si O2"
_cell_formula_units_Z 96
_cell_length_a 13.930994
_cell_length_b 13.930994
_cell_length_c 30.284176
_cell_angle_alpha 90.000000
_cell_angle_beta 90.000000
_cell_angle_gamma 90.000000
_cell_volume 5877.328588
_symmetry_space_group_name_H-M "P 4/M M M"
_symmetry_group_IT_number 123
_symmetry_cell_setting 'tetragonal'
loop_
_space_group_symop_operation_xyz
x,y,z
-y,x,z
-x,-y,z
y,-x,z
x,-y,-z
-x,y,-z
y,x,-z
-y,-x,-z
-x,-y,-z
y,-x,-z
x,y,-z
-y,x,-z
-x,y,z
x,-y,z
-y,-x,z
y,x,z
loop_
_atom_site_type_symbol
_atom_site_label
_atom_site_fract_x
_atom_site_fract_y
_atom_site_fract_z
Si Si1 0.764706 0.610435 0.950857
Si Si2 0.889964 0.735127 0.551416
Si Si3 0.610406 0.109399 0.701318
Si Si4 0.609726 0.887957 0.869115
Si Si5 0.769704 0.612653 0.384758
Si Si6 0.733023 0.887467 0.786209
O O1 0.738916 0.500000 0.943976
O O2 0.665981 0.665981 0.943906
O O3 0.841054 0.645766 0.914691
O O4 0.807640 0.628970 0.000000
O O5 0.883581 0.710019 0.500000
O O6 0.834044 0.834044 0.562397
O O7 0.841247 0.646463 0.576654
O O8 0.000000 0.748327 0.566642
O O9 0.500000 0.119855 0.715422
O O10 0.636399 0.179499 0.661411
O O11 0.673318 0.140312 0.742930
O O12 0.632617 0.000000 0.686845
O O13 0.500000 0.860642 0.858483
O O14 0.673513 0.851130 0.828517
O O15 0.622122 0.000000 0.875869
O O16 0.748919 0.500000 0.390628
O O17 0.668771 0.668771 0.387171
O O18 0.834806 0.834806 0.784933
O O19 0.753832 0.000000 0.788585
#
# Coordination Sequence:
#
# PCOD8312413 Si02
#       6
#    16  16  16  16  16  16
#     4   9  17  28  42  61  85 112 140 170 206 251
#     4   9  18  32  50  73  99 125 154 189 230 277
#     4   9  17  30  49  71  91 112 143 183 226 270
#     4   9  17  29  45  64  84 107 139 179 219 254
#     4  10  20  33  49  69  94 124 158 195 232 270
#     4  10  19  30  45  64  88 117 145 175 212 255
#
# _framework density 16.333950999999999
#
# number of rings (size 3 to 8) (size 9 to 14) (size 15 to 20)
#    0.000    2.667    0.000    2.000    0.000    4.333 
#    0.000    4.167    0.000    0.000    0.000    4.667 
#    0.000   12.000    0.000   15.500    0.000    0.333 
#
# Total GULP energy -1190378.223322 kJ/mol
# GULP energy per Si atom -12399.773160 kJ/mol
# Density = 1.629677 g / cm^3
# Si number density = 16.333951 Si / 1000 Ang^3
#
#
#
# Elastic Constant Matrix: (Units=GPa)
#
#
# Indices 1 2 3 4 5 6 
#
# 1 86.5820 54.0593 56.7853 0.0000 0.0000 0.0000
# 2 54.0593 86.5820 56.7853 0.0000 0.0000 0.0000
# 3 56.7853 56.7853 101.7476 0.0000 0.0000 0.0000
# 4 0.0000 0.0000 0.0000 25.2644 0.0000 0.0000
# 5 0.0000 0.0000 0.0000 0.0000 25.2644 0.0000
# 6 0.0000 0.0000 0.0000 0.0000 0.0000 24.4987
#
#
#
# Elastic Compliance Matrix: (Units=1/GPa)
#
#
# Indices 1 2 3 4 5 6 
#
# 1 0.021846 -0.008902 -0.007224 0.000000 0.000000 0.000000
# 2 -0.008902 0.021846 -0.007224 0.000000 0.000000 0.000000
# 3 -0.007224 -0.007224 0.017892 0.000000 0.000000 0.000000
# 4 0.000000 0.000000 0.000000 0.039581 0.000000 0.000000
# 5 0.000000 0.000000 0.000000 0.000000 0.039581 0.000000
# 6 0.000000 0.000000 0.000000 0.000000 0.000000 0.040818
#
#
# Mechanical properties :
#
#
# Convention : Reuss Voigt Hill
#
# Bulk Modulus (GPa) = 67.18879 67.79681 67.49280
# Shear Modulus (GPa) = 21.43854 22.15763 21.79808
#
# Velocity S-wave (km/s) = 3.62679 3.68712 3.65708
# Velocity P-wave (km/s) = 7.66563 7.72808 7.69692
#
# Compressibility (1/GPa) = 0.01488343
#
# Stress axis : x y z
#
# Youngs Moduli (GPa) = 45.77550 45.77550 55.89227
#
# Poissons Ratio (x) = 0.40749 0.40376
# Poissons Ratio (y) = 0.40749 0.40376
# Poissons Ratio (z) = 0.33068 0.33068
#
# Static dielectric constant tensor:
#      x y z
#    x 2.989370 0.000000 0.000000 
#    y 0.000000 2.989370 0.000000 
#    z 0.000000 0.000000 3.268450 
# 
# 
# High freq. dielectric constant tensor:
#      x y z
#    x 1.620110 0.000000 0.000000 
#    y 0.000000 1.620110 0.000000 
#    z 0.000000 0.000000 1.640910 
# 
# From -- ./inp_files/8589.got.cif
#   From: 2010.03.12/outbox.cif.g09.slc.cpg/sg123_5_cif.got.tgz:8589.got - 2010.04.06 16:26:55.
