data_PCOD8312802
_publ_section_title
;
Structure prediction by ZEFSAII (Michael W. Deem and Ramdas Pophale) SiO2 
 PCOD8312802
Probable space group: P 4/M M M
;
_chemical_formula_sum "Si O2"
_cell_formula_units_Z 68
_cell_length_a 12.368457
_cell_length_b 12.368457
_cell_length_c 25.746159
_cell_angle_alpha 90.000000
_cell_angle_beta 90.000000
_cell_angle_gamma 90.000000
_cell_volume 3938.614669
_symmetry_space_group_name_H-M "P 4/M M M"
_symmetry_group_IT_number 123
_symmetry_cell_setting 'tetragonal'
loop_
_space_group_symop_operation_xyz
x,y,z
-y,x,z
-x,-y,z
y,-x,z
x,-y,-z
-x,y,-z
y,x,-z
-y,-x,-z
-x,-y,-z
y,-x,-z
x,y,-z
-y,x,-z
-x,y,z
x,-y,z
-y,-x,z
y,x,z
loop_
_atom_site_type_symbol
_atom_site_label
_atom_site_fract_x
_atom_site_fract_y
_atom_site_fract_z
Si Si1 0.000000 0.371386 0.058536
Si Si2 0.500000 0.874889 0.414251
Si Si3 0.686259 0.500000 0.500000
Si Si4 0.376867 0.206044 0.757643
Si Si5 0.707564 0.118998 0.344511
Si Si6 0.199941 0.375524 0.125162
O O1 0.106360 0.329254 0.088030
O O2 0.000000 0.500000 0.059484
O O3 0.000000 0.325866 0.000000
O O4 0.500000 0.772570 0.452965
O O5 0.396852 0.858566 0.378513
O O6 0.500000 0.000000 0.437856
O O7 0.607601 0.607601 0.500000
O O8 0.500000 0.220253 0.741573
O O9 0.324966 0.324966 0.754868
O O10 0.319491 0.127344 0.716682
O O11 0.363360 0.157908 0.815550
O O12 0.797990 0.202011 0.362880
O O13 0.753866 0.000000 0.354602
O O14 0.227906 0.500000 0.112749
O O15 0.308109 0.308109 0.114562
#
# Coordination Sequence:
#
# PCOD8312802 Si02
#       6
#     8   8   4  16  16  16
#     4   9  18  32  48  69  95 127 165 204 249 299
#     4  10  20  37  58  81 105 139 181 224 257 302
#     4  11  23  38  58  82 113 149 180 216 260 307
#     4   9  17  29  46  71 102 134 169 206 251 306
#     4  10  20  33  51  75 104 137 173 217 261 305
#     4   9  18  31  49  73  98 129 165 206 254 303
#
# _framework density 17.264952999999998
#
# number of rings (size 3 to 8) (size 9 to 14) (size 15 to 20)
#    0.000    2.529    1.176    0.882    1.647    1.176 
#    0.000    2.353    0.000    0.353    0.000    4.118 
#    0.000    8.471    0.000    0.000    0.000    0.000 
#
# Total GULP energy -842715.970332 kJ/mol
# GULP energy per Si atom -12392.881917 kJ/mol
# Density = 1.722566 g / cm^3
# Si number density = 17.264953 Si / 1000 Ang^3
#
#
#
# Elastic Constant Matrix: (Units=GPa)
#
#
# Indices 1 2 3 4 5 6 
#
# 1 111.2870 65.9238 48.0954 0.0000 0.0000 0.0000
# 2 65.9238 111.2870 48.0954 0.0000 0.0000 0.0000
# 3 48.0954 48.0954 88.0243 0.0000 0.0000 0.0000
# 4 0.0000 0.0000 0.0000 23.6534 0.0000 0.0000
# 5 0.0000 0.0000 0.0000 0.0000 23.6534 0.0000
# 6 0.0000 0.0000 0.0000 0.0000 0.0000 22.0821
#
#
#
# Elastic Compliance Matrix: (Units=1/GPa)
#
#
# Indices 1 2 3 4 5 6 
#
# 1 0.015033 -0.007011 -0.004383 0.000000 0.000000 0.000000
# 2 -0.007011 0.015033 -0.004383 0.000000 0.000000 0.000000
# 3 -0.004383 -0.004383 0.016150 0.000000 0.000000 0.000000
# 4 0.000000 0.000000 0.000000 0.042277 0.000000 0.000000
# 5 0.000000 0.000000 0.000000 0.000000 0.042277 0.000000
# 6 0.000000 0.000000 0.000000 0.000000 0.000000 0.045286
#
#
# Mechanical properties :
#
#
# Convention : Reuss Voigt Hill
#
# Bulk Modulus (GPa) = 68.20405 70.53637 69.37021
# Shear Modulus (GPa) = 23.52949 23.77669 23.65309
#
# Velocity S-wave (km/s) = 3.69568 3.71504 3.70537
# Velocity P-wave (km/s) = 7.60269 7.70364 7.65333
#
# Compressibility (1/GPa) = 0.01466189
#
# Stress axis : x y z
#
# Youngs Moduli (GPa) = 66.51912 66.51912 61.91790
#
# Poissons Ratio (x) = 0.46637 0.27140
# Poissons Ratio (y) = 0.46637 0.27140
# Poissons Ratio (z) = 0.29157 0.29157
#
# Static dielectric constant tensor:
#      x y z
#    x 3.193640 0.000000 0.000000 
#    y 0.000000 3.193640 0.000000 
#    z 0.000000 0.000000 3.345190 
# 
# 
# High freq. dielectric constant tensor:
#      x y z
#    x 1.658740 0.000000 0.000000 
#    y 0.000000 1.658740 0.000000 
#    z 0.000000 0.000000 1.667230 
# 
# From -- ./inp_files/7903.got.cif
#   From: 2010.03.12/outbox.cif.g09.slc.cpg/sg123_4_cif.got.tgz:7903.got - 2010.04.06 16:26:55.
