data_PCOD8312778
_publ_section_title
;
Structure prediction by ZEFSAII (Michael W. Deem and Ramdas Pophale) SiO2 
 PCOD8312778
Probable space group: P 4/M M M
;
_chemical_formula_sum "Si O2"
_cell_formula_units_Z 56
_cell_length_a 13.547472
_cell_length_b 13.547472
_cell_length_c 18.061147
_cell_angle_alpha 90.000000
_cell_angle_beta 90.000000
_cell_angle_gamma 90.000000
_cell_volume 3314.834510
_symmetry_space_group_name_H-M "P 4/M M M"
_symmetry_group_IT_number 123
_symmetry_cell_setting 'tetragonal'
loop_
_space_group_symop_operation_xyz
x,y,z
-y,x,z
-x,-y,z
y,-x,z
x,-y,-z
-x,y,-z
y,x,-z
-y,-x,-z
-x,-y,-z
y,-x,-z
x,y,-z
-y,x,-z
-x,y,z
x,-y,z
-y,-x,z
y,x,z
loop_
_atom_site_type_symbol
_atom_site_label
_atom_site_fract_x
_atom_site_fract_y
_atom_site_fract_z
Si Si1 0.771736 0.386013 0.418462
Si Si2 0.116994 0.275943 0.129947
Si Si3 0.616552 0.779649 0.000000
Si Si4 0.610557 0.115708 0.275880
O O1 0.819067 0.365174 0.500000
O O2 0.747880 0.500000 0.408353
O O3 0.667959 0.332042 0.410129
O O4 0.844483 0.348366 0.354113
O O5 0.170878 0.170878 0.117308
O O6 0.154860 0.355887 0.071116
O O7 0.147615 0.316794 0.210282
O O8 0.000000 0.260012 0.121227
O O9 0.500000 0.756717 0.000000
O O10 0.675942 0.675942 0.000000
O O11 0.500000 0.155889 0.259334
O O12 0.607650 0.000000 0.283284
#
# Coordination Sequence:
#
# PCOD8312778 Si02
#       4
#    16  16   8  16
#     4   9  17  28  42  61  86 116 148 183 224 270
#     4  10  20  33  50  72  97 126 159 194 233 276
#     4  10  21  36  54  76 100 126 157 192 230 274
#     4   9  17  29  46  67  89 115 149 189 232 276
#
# _framework density 16.893754999999999
#
# number of rings (size 3 to 8) (size 9 to 14) (size 15 to 20)
#    0.000    2.571    0.000    2.143    0.000    3.571 
#    0.000    4.286    0.000    2.571    0.000    4.000 
#    0.000    0.000    0.000   26.571    0.000    0.571 
#
# Total GULP energy -694163.158086 kJ/mol
# GULP energy per Si atom -12395.770680 kJ/mol
# Density = 1.685530 g / cm^3
# Si number density = 16.893755 Si / 1000 Ang^3
#
#
#
# Elastic Constant Matrix: (Units=GPa)
#
#
# Indices 1 2 3 4 5 6 
#
# 1 70.3574 40.4509 46.5924 0.0000 0.0000 0.0000
# 2 40.4509 70.3574 46.5924 0.0000 0.0000 0.0000
# 3 46.5924 46.5924 136.2259 0.0000 0.0000 0.0000
# 4 0.0000 0.0000 0.0000 24.1224 0.0000 0.0000
# 5 0.0000 0.0000 0.0000 0.0000 24.1224 0.0000
# 6 0.0000 0.0000 0.0000 0.0000 0.0000 20.2879
#
#
#
# Elastic Compliance Matrix: (Units=1/GPa)
#
#
# Indices 1 2 3 4 5 6 
#
# 1 0.023053 -0.010385 -0.004333 0.000000 0.000000 0.000000
# 2 -0.010385 0.023053 -0.004333 0.000000 0.000000 0.000000
# 3 -0.004333 -0.004333 0.010305 0.000000 0.000000 0.000000
# 4 0.000000 0.000000 0.000000 0.041455 0.000000 0.000000
# 5 0.000000 0.000000 0.000000 0.000000 0.041455 0.000000
# 6 0.000000 0.000000 0.000000 0.000000 0.000000 0.049290
#
#
# Mechanical properties :
#
#
# Convention : Reuss Voigt Hill
#
# Bulk Modulus (GPa) = 54.61542 60.46802 57.54172
# Shear Modulus (GPa) = 21.47623 23.26019 22.36821
#
# Velocity S-wave (km/s) = 3.56933 3.71462 3.64270
# Velocity P-wave (km/s) = 7.02750 7.36673 7.19911
#
# Compressibility (1/GPa) = 0.01830985
#
# Stress axis : x y z
#
# Youngs Moduli (GPa) = 43.37834 43.37834 97.04374
#
# Poissons Ratio (x) = 0.45047 0.42048
# Poissons Ratio (y) = 0.45047 0.42048
# Poissons Ratio (z) = 0.18795 0.18795
#
# Static dielectric constant tensor:
#      x y z
#    x 3.038860 0.000000 0.000000 
#    y 0.000000 3.038860 0.000000 
#    z 0.000000 0.000000 3.567470 
# 
# 
# High freq. dielectric constant tensor:
#      x y z
#    x 1.638070 0.000000 0.000000 
#    y 0.000000 1.638070 0.000000 
#    z 0.000000 0.000000 1.673670 
# 
# From -- ./inp_files/3717.got.cif
#   From: 2010.03.12/outbox.cif.g09.slc.cpg/sg123_2_cif.got.tgz:3717.got - 2010.04.06 16:26:55.
