data_PCOD8312289
_publ_section_title
;
Structure prediction by ZEFSAII (Michael W. Deem and Ramdas Pophale) SiO2 
 PCOD8312289
Probable space group: P 4/M M M
;
_chemical_formula_sum "Si O2"
_cell_formula_units_Z 96
_cell_length_a 29.171385
_cell_length_b 29.171385
_cell_length_c 9.178281
_cell_angle_alpha 90.000000
_cell_angle_beta 90.000000
_cell_angle_gamma 90.000000
_cell_volume 7810.439055
_symmetry_space_group_name_H-M "P 4/M M M"
_symmetry_group_IT_number 123
_symmetry_cell_setting 'tetragonal'
loop_
_space_group_symop_operation_xyz
x,y,z
-y,x,z
-x,-y,z
y,-x,z
x,-y,-z
-x,y,-z
y,x,-z
-y,-x,-z
-x,-y,-z
y,-x,-z
x,y,-z
-y,x,-z
-x,y,z
x,-y,z
-y,-x,z
y,x,z
loop_
_atom_site_type_symbol
_atom_site_label
_atom_site_fract_x
_atom_site_fract_y
_atom_site_fract_z
Si Si1 0.247898 0.752102 0.163444
Si Si2 0.372859 0.894142 0.326656
Si Si3 0.108233 0.768665 0.663904
Si Si4 0.829465 0.829465 0.835079
Si Si5 0.946711 0.296573 0.838430
Si Si6 0.947823 0.446298 0.167530
Si Si7 0.184858 0.690517 0.337778
O O1 0.209313 0.790688 0.167424
O O2 0.228034 0.705701 0.238565
O O3 0.261409 0.738592 0.000000
O O4 0.371651 0.899790 0.500000
O O5 0.339567 0.930883 0.254744
O O6 0.422606 0.907996 0.264671
O O7 0.355980 0.842004 0.285229
O O8 0.094007 0.782205 0.500000
O O9 0.125755 0.813058 0.749314
O O10 0.064856 0.750015 0.752681
O O11 0.147157 0.730122 0.661877
O O12 0.842423 0.842423 0.000000
O O13 0.000000 0.300322 0.857823
O O14 0.923542 0.296337 0.000000
O O15 0.939618 0.500000 0.185231
O O16 0.000000 0.433908 0.217769
O O17 0.941522 0.431078 0.000000
O O18 0.204555 0.683345 0.500000
#
# Coordination Sequence:
#
# PCOD8312289 Si02
#       7
#     8  16  16   8  16  16  16
#     4   9  15  21  33  51  65  81 105 127 146 174
#     4  10  19  28  39  54  68  84 108 136 166 200
#     4   9  16  25  36  49  64  82 105 130 153 177
#     4   9  15  23  35  49  65  83 103 126 150 177
#     4  10  19  28  37  49  66  87 108 130 158 191
#     4   9  18  31  43  53  66  85 108 136 175 219
#     4   8  15  25  34  46  66  87 102 122 154 187
#
# _framework density 12.291242
#
# number of rings (size 3 to 8) (size 9 to 14) (size 15 to 20)
#    0.000    2.833    0.000    4.000    0.000   10.667 
#    0.000    0.833    0.000    0.000    0.000    0.000 
#    0.000    0.000    0.000    0.000    0.000    0.417 
#
# Total GULP energy -1189570.460319 kJ/mol
# GULP energy per Si atom -12391.358962 kJ/mol
# Density = 1.226327 g / cm^3
# Si number density = 12.291242 Si / 1000 Ang^3
#
#
#
# Elastic Constant Matrix: (Units=GPa)
#
#
# Indices 1 2 3 4 5 6 
#
# 1 35.2455 29.6645 30.7378 0.0000 0.0000 0.0000
# 2 29.6645 35.2455 30.7378 0.0000 0.0000 0.0000
# 3 30.7378 30.7378 92.9742 0.0000 0.0000 0.0000
# 4 0.0000 0.0000 0.0000 18.2173 0.0000 0.0000
# 5 0.0000 0.0000 0.0000 0.0000 18.2173 0.0000
# 6 0.0000 0.0000 0.0000 0.0000 0.0000 20.1063
#
#
#
# Elastic Compliance Matrix: (Units=1/GPa)
#
#
# Indices 1 2 3 4 5 6 
#
# 1 0.100805 -0.078377 -0.007415 0.000000 0.000000 0.000000
# 2 -0.078377 0.100805 -0.007415 0.000000 0.000000 0.000000
# 3 -0.007415 -0.007415 0.015659 0.000000 0.000000 0.000000
# 4 0.000000 0.000000 0.000000 0.054893 0.000000 0.000000
# 5 0.000000 0.000000 0.000000 0.000000 0.054893 0.000000
# 6 0.000000 0.000000 0.000000 0.000000 0.000000 0.049736
#
#
# Mechanical properties :
#
#
# Convention : Reuss Voigt Hill
#
# Bulk Modulus (GPa) = 32.40889 38.41615 35.41252
# Shear Modulus (GPa) = 8.71857 16.12986 12.42421
#
# Velocity S-wave (km/s) = 2.66622 3.62650 3.18279
# Velocity P-wave (km/s) = 5.99191 6.98986 6.51004
#
# Compressibility (1/GPa) = 0.03085573
#
# Stress axis : x y z
#
# Youngs Moduli (GPa) = 9.92012 9.92013 63.86279
#
# Poissons Ratio (x) = 0.77751 0.47355
# Poissons Ratio (y) = 0.77750 0.47354
# Poissons Ratio (z) = 0.07356 0.07356
#
# Static dielectric constant tensor:
#      x y z
#    x 2.399070 0.000000 0.000000 
#    y 0.000000 2.399070 0.000000 
#    z 0.000000 0.000000 2.773470 
# 
# 
# High freq. dielectric constant tensor:
#      x y z
#    x 1.426830 0.000000 0.000000 
#    y 0.000000 1.426830 0.000000 
#    z 0.000000 0.000000 1.485600 
# 
# From -- ./inp_files/2095.got.cif
#   From: 2010.03.12/outbox.cif.g09.slc.cpg/sg123_2_cif.got.tgz:2095.got - 2010.04.06 16:26:55.
