data_PCOD8312022
_publ_section_title
;
Structure prediction by ZEFSAII (Michael W. Deem and Ramdas Pophale) SiO2 
 PCOD8312022
Probable space group: I -4 2 D
;
_chemical_formula_sum "Si O2"
_cell_formula_units_Z 68
_cell_length_a 16.942291
_cell_length_b 16.942291
_cell_length_c 12.712550
_cell_angle_alpha 90.000000
_cell_angle_beta 90.000000
_cell_angle_gamma 90.000000
_cell_volume 3649.025916
_symmetry_space_group_name_H-M "I -4 2 D"
_symmetry_group_IT_number 122
_symmetry_cell_setting 'tetragonal'
loop_
_space_group_symop_operation_xyz
x,y,z
y,-x,-z
-x,-y,z
-y,x,-z
x,1/2-y,1/4-z
-x,1/2+y,1/4-z
-y,1/2-x,1/4+z
y,1/2+x,1/4+z
1/2+x,1/2+y,1/2+z
1/2+y,1/2-x,1/2-z
1/2-x,1/2-y,1/2+z
1/2-y,1/2+x,1/2-z
1/2+x,-y,3/4-z
1/2-x,y,3/4-z
1/2-y,-x,3/4+z
1/2+y,x,3/4+z
loop_
_atom_site_type_symbol
_atom_site_label
_atom_site_fract_x
_atom_site_fract_y
_atom_site_fract_z
Si Si1 0.776989 0.367769 0.600329
Si Si2 0.407828 0.635999 0.592867
Si Si3 0.779685 0.545333 0.545018
Si Si4 0.500000 0.000000 0.750000
Si Si5 0.769313 0.819255 0.543106
O O1 0.685028 0.354406 0.576003
O O2 0.800685 0.457458 0.581209
O O3 0.826411 0.311686 0.522559
O O4 0.798872 0.343970 0.719328
O O5 0.451182 0.695135 0.512418
O O6 0.427353 0.653637 0.713729
O O7 0.438179 0.547844 0.571646
O O8 0.783205 0.598143 0.649188
O O9 0.758549 0.750000 0.625000
#
# Coordination Sequence:
#
# PCOD8312022 Si02
#       5
#    16  16  16   4  16
#     4  11  23  39  62  90 119 163 201 246 305 351
#     4  11  22  36  60  94 120 151 197 244 312 351
#     4  11  23  38  62  88 120 160 195 250 299 358
#     4  12  24  36  56 100 130 144 188 268 300 360
#     4  11  21  41  62  87 122 157 212 248 287 375
#
# _framework density 18.635110000000001
#
# number of rings (size 3 to 8) (size 9 to 14) (size 15 to 20)
#    0.000    0.941    7.059    1.412    6.588    0.000 
#    4.235    2.353    0.000    0.000    0.000    0.000 
#    0.000    0.000    0.000    0.000    0.000    0.000 
#
# Total GULP energy -421723.879574 kJ/mol
# GULP energy per Si atom -12403.643517 kJ/mol
# Density = 1.859270 g / cm^3
# Si number density = 18.635110 Si / 1000 Ang^3
#
#
#
# Elastic Constant Matrix: (Units=GPa)
#
#
# Indices 1 2 3 4 5 6 
#
# 1 101.5856 17.5534 37.9933 0.0000 0.0000 0.0000
# 2 17.5534 101.5856 37.9933 0.0000 0.0000 0.0000
# 3 37.9933 37.9933 98.3740 0.0000 0.0000 0.0000
# 4 0.0000 0.0000 0.0000 21.4029 0.0000 0.0000
# 5 0.0000 0.0000 0.0000 0.0000 21.4029 0.0000
# 6 0.0000 0.0000 0.0000 0.0000 0.0000 21.7898
#
#
#
# Elastic Compliance Matrix: (Units=1/GPa)
#
#
# Indices 1 2 3 4 5 6 
#
# 1 0.011519 -0.000382 -0.004301 0.000000 0.000000 0.000000
# 2 -0.000382 0.011519 -0.004301 0.000000 0.000000 0.000000
# 3 -0.004301 -0.004301 0.013488 0.000000 0.000000 0.000000
# 4 0.000000 0.000000 0.000000 0.046723 0.000000 0.000000
# 5 0.000000 0.000000 0.000000 0.000000 0.046723 0.000000
# 6 0.000000 0.000000 0.000000 0.000000 0.000000 0.045893
#
#
# Mechanical properties :
#
#
# Convention : Reuss Voigt Hill
#
# Bulk Modulus (GPa) = 53.88931 54.29171 54.09051
# Shear Modulus (GPa) = 24.99795 26.78616 25.89206
#
# Velocity S-wave (km/s) = 3.66655 3.79542 3.73154
# Velocity P-wave (km/s) = 6.84877 6.95732 6.90326
#
# Compressibility (1/GPa) = 0.01855656
#
# Stress axis : x y z
#
# Youngs Moduli (GPa) = 86.81667 86.81667 74.14188
#
# Poissons Ratio (x) = 0.03314 0.31890
# Poissons Ratio (y) = 0.03314 0.31890
# Poissons Ratio (z) = 0.37342 0.37342
#
# Static dielectric constant tensor:
#      x y z
#    x 3.385790 0.000000 0.000000 
#    y 0.000000 3.385790 0.000000 
#    z 0.000000 0.000000 3.633440 
# 
# 
# High freq. dielectric constant tensor:
#      x y z
#    x 1.718270 0.000000 0.000000 
#    y 0.000000 1.718270 0.000000 
#    z 0.000000 0.000000 1.727960 
# 
# From -- ./inp_files/4155.got.cif
#   From: 2010.03.12/outbox.cif.g09.slc.cpg/sg122_3_cif.got.tgz:4155.got - 2010.04.06 16:17:16.
