data_PCOD8312016
_publ_section_title
;
Structure prediction by ZEFSAII (Michael W. Deem and Ramdas Pophale) SiO2 
 PCOD8312016
Probable space group: I -4 2 D
;
_chemical_formula_sum "Si O2"
_cell_formula_units_Z 108
_cell_length_a 14.496509
_cell_length_b 14.496509
_cell_length_c 23.758273
_cell_angle_alpha 90.000000
_cell_angle_beta 90.000000
_cell_angle_gamma 90.000000
_cell_volume 4992.771924
_symmetry_space_group_name_H-M "I -4 2 D"
_symmetry_group_IT_number 122
_symmetry_cell_setting 'tetragonal'
loop_
_space_group_symop_operation_xyz
x,y,z
y,-x,-z
-x,-y,z
-y,x,-z
x,1/2-y,1/4-z
-x,1/2+y,1/4-z
-y,1/2-x,1/4+z
y,1/2+x,1/4+z
1/2+x,1/2+y,1/2+z
1/2+y,1/2-x,1/2-z
1/2-x,1/2-y,1/2+z
1/2-y,1/2+x,1/2-z
1/2+x,-y,3/4-z
1/2-x,y,3/4-z
1/2-y,-x,3/4+z
1/2+y,x,3/4+z
loop_
_atom_site_type_symbol
_atom_site_label
_atom_site_fract_x
_atom_site_fract_y
_atom_site_fract_z
Si Si1 0.884173 0.716225 0.779854
Si Si2 0.024607 0.684666 0.307368
Si Si3 0.125354 0.194565 0.340281
Si Si4 0.500000 0.000000 0.750000
Si Si5 0.770214 0.577091 0.989060
Si Si6 0.910804 0.934637 0.163894
Si Si7 0.240639 0.355929 0.287025
Si Si8 0.250000 0.991030 0.875000
O O1 0.897845 0.680734 0.843925
O O2 0.810912 0.650581 0.747631
O O3 0.845235 0.820443 0.779472
O O4 0.977756 0.721110 0.743350
O O5 0.022935 0.668417 0.374406
O O6 0.122521 0.698441 0.275242
O O7 0.965557 0.780137 0.302981
O O8 0.974088 0.590986 0.285774
O O9 0.181098 0.102649 0.320787
O O10 0.190197 0.282297 0.326738
O O11 0.858760 0.587475 0.028862
O O12 0.932226 0.841925 0.129718
O O13 0.000000 0.000000 0.172923
O O14 0.241165 0.453153 0.317549
#
# Coordination Sequence:
#
# PCOD8312016 Si02
#       8
#    16  16  16   4  16  16  16   8
#     4  11  24  48  73  95 132 181 243 298 358 404
#     4  12  22  36  60 101 145 183 217 264 332 427
#     4  11  22  44  67  97 135 180 232 282 354 424
#     4  12  20  32  60 104 152 184 216 248 316 430
#     4  11  25  45  74  98 126 184 237 296 357 418
#     4  12  25  40  63 102 147 180 224 278 352 423
#     4  11  21  37  65  99 135 184 221 266 343 421
#     4  12  22  36  62 100 138 188 222 272 340 420
#
# _framework density 21.631270000000001
#
# number of rings (size 3 to 8) (size 9 to 14) (size 15 to 20)
#    0.000    0.593    5.185    4.889    4.148    0.296 
#    0.000    2.963    9.778    0.000    0.000    0.000 
#    0.000    0.000    0.000    0.000    0.000    0.000 
#
# Total GULP energy -669029.471221 kJ/mol
# GULP energy per Si atom -12389.434652 kJ/mol
# Density = 2.158204 g / cm^3
# Si number density = 21.631270 Si / 1000 Ang^3
#
#
#
# Elastic Constant Matrix: (Units=GPa)
#
#
# Indices 1 2 3 4 5 6 
#
# 1 107.6910 42.6302 34.3378 0.0000 0.0000 0.0000
# 2 42.6302 107.6910 34.3378 0.0000 0.0000 0.0000
# 3 34.3378 34.3378 81.0388 0.0000 0.0000 0.0000
# 4 0.0000 0.0000 0.0000 26.8485 0.0000 0.0000
# 5 0.0000 0.0000 0.0000 0.0000 26.8485 0.0000
# 6 0.0000 0.0000 0.0000 0.0000 0.0000 38.5806
#
#
#
# Elastic Compliance Matrix: (Units=1/GPa)
#
#
# Indices 1 2 3 4 5 6 
#
# 1 0.011810 -0.003560 -0.003495 0.000000 0.000000 0.000000
# 2 -0.003560 0.011810 -0.003495 0.000000 0.000000 0.000000
# 3 -0.003495 -0.003495 0.015302 0.000000 0.000000 0.000000
# 4 0.000000 0.000000 0.000000 0.037246 0.000000 0.000000
# 5 0.000000 0.000000 0.000000 0.000000 0.037246 0.000000
# 6 0.000000 0.000000 0.000000 0.000000 0.000000 0.025920
#
#
# Mechanical properties :
#
#
# Convention : Reuss Voigt Hill
#
# Bulk Modulus (GPa) = 56.12006 57.67027 56.89516
# Shear Modulus (GPa) = 30.05250 30.79652 30.42451
#
# Velocity S-wave (km/s) = 3.73139 3.77729 3.75441
# Velocity P-wave (km/s) = 6.67567 6.76331 6.71964
#
# Compressibility (1/GPa) = 0.01781894
#
# Stress axis : x y z
#
# Youngs Moduli (GPa) = 84.67555 84.67555 65.35128
#
# Poissons Ratio (x) = 0.30148 0.22843
# Poissons Ratio (y) = 0.30148 0.22843
# Poissons Ratio (z) = 0.29598 0.29598
#
# Static dielectric constant tensor:
#      x y z
#    x 4.028100 0.000000 0.000000 
#    y 0.000000 4.028100 0.000000 
#    z 0.000000 0.000000 3.792280 
# 
# 
# High freq. dielectric constant tensor:
#      x y z
#    x 1.843520 0.000000 0.000000 
#    y 0.000000 1.843520 0.000000 
#    z 0.000000 0.000000 1.842690 
# 
# From -- ./inp_files/8152.got.cif
#   From: 2010.03.12/outbox.cif.g09.slc.cpg/sg122_5_cif.got.tgz:8152.got - 2010.04.06 16:17:16.
