data_PCOD8312444
_publ_section_title
;
Structure prediction by ZEFSAII (Michael W. Deem and Ramdas Pophale) SiO2 
 PCOD8312444
Probable space group: P 4/M M M
;
_chemical_formula_sum "Si O2"
_cell_formula_units_Z 64
_cell_length_a 13.848514
_cell_length_b 13.848514
_cell_length_c 20.964303
_cell_angle_alpha 90.000000
_cell_angle_beta 90.000000
_cell_angle_gamma 90.000000
_cell_volume 4020.562122
_symmetry_space_group_name_H-M "P 4/M M M"
_symmetry_group_IT_number 123
_symmetry_cell_setting 'tetragonal'
loop_
_space_group_symop_operation_xyz
x,y,z
-y,x,z
-x,-y,z
y,-x,z
x,-y,-z
-x,y,-z
y,x,-z
-y,-x,-z
-x,-y,-z
y,-x,-z
x,y,-z
-y,x,-z
-x,y,z
x,-y,z
-y,-x,z
y,x,z
loop_
_atom_site_type_symbol
_atom_site_label
_atom_site_fract_x
_atom_site_fract_y
_atom_site_fract_z
Si Si1 0.107167 0.614346 0.756931
Si Si2 0.608960 0.763681 0.500000
Si Si3 0.770271 0.614291 0.878060
Si Si4 0.385808 0.108043 0.000000
Si Si5 0.387263 0.228888 0.361926
O O1 0.099252 0.500000 0.758635
O O2 0.173718 0.649111 0.814988
O O3 0.152096 0.649572 0.689971
O O4 0.000000 0.659517 0.763530
O O5 0.500000 0.729822 0.500000
O O6 0.664154 0.664154 0.500000
O O7 0.630745 0.819087 0.432878
O O8 0.749997 0.500000 0.878844
O O9 0.667119 0.667119 0.880878
O O10 0.834947 0.648440 0.937501
O O11 0.500000 0.099313 0.000000
O O12 0.340822 0.000000 0.000000
O O13 0.500000 0.253687 0.350996
O O14 0.328030 0.328030 0.354078
#
# Coordination Sequence:
#
# PCOD8312444 Si02
#       5
#    16   8  16   8  16
#     4   9  17  29  43  58  79 109 144 181 216 247
#     4   8  14  23  35  53  79 111 142 170 201 239
#     4  10  19  30  45  66  92 119 145 173 206 248
#     4   9  17  30  47  65  87 117 151 183 209 234
#     4   9  16  26  40  59  84 112 141 172 206 248
#
# _framework density 15.918172999999999
#
# number of rings (size 3 to 8) (size 9 to 14) (size 15 to 20)
#    0.000    2.875    0.000    1.875    0.000    3.625 
#    0.000    3.125    0.000   10.500    0.000    0.000 
#    0.000   38.000    0.000    0.000    0.000   28.000 
#
# Total GULP energy -792977.136487 kJ/mol
# GULP energy per Si atom -12390.267758 kJ/mol
# Density = 1.588194 g / cm^3
# Si number density = 15.918173 Si / 1000 Ang^3
#
#
#
# Elastic Constant Matrix: (Units=GPa)
#
#
# Indices 1 2 3 4 5 6 
#
# 1 64.0280 34.5653 44.2244 0.0000 0.0000 0.0000
# 2 34.5653 64.0280 44.2244 0.0000 0.0000 0.0000
# 3 44.2244 44.2244 157.8632 0.0000 0.0000 0.0000
# 4 0.0000 0.0000 0.0000 18.1757 0.0000 0.0000
# 5 0.0000 0.0000 0.0000 0.0000 18.1757 0.0000
# 6 0.0000 0.0000 0.0000 0.0000 0.0000 5.4606
#
#
#
# Elastic Compliance Matrix: (Units=1/GPa)
#
#
# Indices 1 2 3 4 5 6 
#
# 1 0.023744 -0.010197 -0.003795 0.000000 0.000000 0.000000
# 2 -0.010197 0.023744 -0.003795 0.000000 0.000000 0.000000
# 3 -0.003795 -0.003795 0.008461 0.000000 0.000000 0.000000
# 4 0.000000 0.000000 0.000000 0.055018 0.000000 0.000000
# 5 0.000000 0.000000 0.000000 0.000000 0.055018 0.000000
# 6 0.000000 0.000000 0.000000 0.000000 0.000000 0.183131
#
#
# Mechanical properties :
#
#
# Convention : Reuss Voigt Hill
#
# Bulk Modulus (GPa) = 49.07994 59.10527 54.09261
# Shear Modulus (GPa) = 12.77192 19.22275 15.99733
#
# Velocity S-wave (km/s) = 2.83565 3.47882 3.17357
# Velocity P-wave (km/s) = 6.45142 7.30394 6.89088
#
# Compressibility (1/GPa) = 0.02037492
#
# Stress axis : x y z
#
# Youngs Moduli (GPa) = 42.11533 42.11533 118.18926
#
# Poissons Ratio (x) = 0.42945 0.44855
# Poissons Ratio (y) = 0.42945 0.44855
# Poissons Ratio (z) = 0.15984 0.15984
#
# Static dielectric constant tensor:
#      x y z
#    x 2.789060 0.000000 0.000000 
#    y 0.000000 2.789060 0.000000 
#    z 0.000000 0.000000 3.584980 
# 
# 
# High freq. dielectric constant tensor:
#      x y z
#    x 1.574440 0.000000 0.000000 
#    y 0.000000 1.574440 0.000000 
#    z 0.000000 0.000000 1.643130 
# 
# From -- ./inp_files/7066.got.cif
#   From: 2010.03.12/outbox.cif.g09.slc.cpg/sg123_4_cif.got.tgz:7066.got - 2010.04.06 16:26:55.
