data_PCOD8312374
_publ_section_title
;
Structure prediction by ZEFSAII (Michael W. Deem and Ramdas Pophale) SiO2 
 PCOD8312374
Probable space group: P 4/M M M
;
_chemical_formula_sum "Si O2"
_cell_formula_units_Z 80
_cell_length_a 22.956750
_cell_length_b 22.956750
_cell_length_c 9.876789
_cell_angle_alpha 90.000000
_cell_angle_beta 90.000000
_cell_angle_gamma 90.000000
_cell_volume 5205.189984
_symmetry_space_group_name_H-M "P 4/M M M"
_symmetry_group_IT_number 123
_symmetry_cell_setting 'tetragonal'
loop_
_space_group_symop_operation_xyz
x,y,z
-y,x,z
-x,-y,z
y,-x,z
x,-y,-z
-x,y,-z
y,x,-z
-y,-x,-z
-x,-y,-z
y,-x,-z
x,y,-z
-y,x,-z
-x,y,z
x,-y,z
-y,-x,z
y,x,z
loop_
_atom_site_type_symbol
_atom_site_label
_atom_site_fract_x
_atom_site_fract_y
_atom_site_fract_z
Si Si1 0.772216 0.641415 0.346222
Si Si2 0.335189 0.934294 0.843838
Si Si3 0.735043 0.824999 0.844787
Si Si4 0.432631 0.118734 0.656703
Si Si5 0.359536 0.640465 0.653207
Si Si6 0.432822 0.432822 0.851978
O O1 0.777838 0.664738 0.500000
O O2 0.786603 0.693977 0.247805
O O3 0.813932 0.585760 0.323189
O O4 0.706761 0.623250 0.313545
O O5 0.278806 0.893043 0.810977
O O6 0.391022 0.920634 0.750273
O O7 0.314494 0.000000 0.814450
O O8 0.354741 0.926611 0.000000
O O9 0.802305 0.802305 0.819722
O O10 0.718047 0.813043 0.000000
O O11 0.424547 0.099735 0.500000
O O12 0.500000 0.111217 0.701061
O O13 0.374149 0.625852 0.500000
O O14 0.399531 0.600470 0.739061
O O15 0.500000 0.419250 0.833454
O O16 0.411962 0.411962 0.000000
#
# Coordination Sequence:
#
# PCOD8312374 Si02
#       6
#    16  16  16  16   8   8
#     4   9  17  29  44  65  90 112 136 170 214 260
#     4   9  18  31  45  63  88 115 144 181 220 253
#     4   9  16  27  45  66  86 112 143 174 209 251
#     4   9  18  31  45  61  85 118 151 181 212 250
#     4  10  19  29  47  72  90 106 132 170 217 267
#     4   9  20  38  52  60  76 104 136 170 212 263
#
# _framework density 15.369275999999999
#
# number of rings (size 3 to 8) (size 9 to 14) (size 15 to 20)
#    0.000    2.900    1.000    0.300    0.000    3.200 
#    0.000    4.500    0.000    0.000    0.000    0.000 
#    0.000    0.400    0.000    5.600    0.000    0.000 
#
# Total GULP energy -991221.096990 kJ/mol
# GULP energy per Si atom -12390.263712 kJ/mol
# Density = 1.533429 g / cm^3
# Si number density = 15.369276 Si / 1000 Ang^3
#
#
#
# Elastic Constant Matrix: (Units=GPa)
#
#
# Indices 1 2 3 4 5 6 
#
# 1 79.6921 71.9541 39.4766 0.0000 0.0000 0.0000
# 2 71.9541 79.6968 39.4805 0.0000 0.0000 0.0000
# 3 39.4766 39.4805 48.8882 0.0000 0.0000 0.0000
# 4 0.0000 0.0000 0.0000 20.9472 0.0000 0.0000
# 5 0.0000 0.0000 0.0000 0.0000 20.9472 0.0000
# 6 0.0000 0.0000 0.0000 0.0000 0.0000 18.5156
#
#
#
# Elastic Compliance Matrix: (Units=1/GPa)
#
#
# Indices 1 2 3 4 5 6 
#
# 1 0.070284 -0.058908 -0.009182 0.000000 0.000000 0.000000
# 2 -0.058908 0.070287 -0.009194 0.000000 0.000000 0.000000
# 3 -0.009182 -0.009194 0.035294 0.000000 0.000000 0.000000
# 4 0.000000 0.000000 0.000000 0.047739 0.000000 0.000000
# 5 0.000000 0.000000 0.000000 0.000000 0.047739 0.000000
# 6 0.000000 0.000000 0.000000 0.000000 0.000000 0.054008
#
#
# Mechanical properties :
#
#
# Convention : Reuss Voigt Hill
#
# Bulk Modulus (GPa) = 46.95312 56.67773 51.81543
# Shear Modulus (GPa) = 10.26654 15.90641 13.08647
#
# Velocity S-wave (km/s) = 2.58736 3.22055 2.92116
# Velocity P-wave (km/s) = 6.28826 7.12647 6.72045
#
# Compressibility (1/GPa) = 0.02129784
#
# Stress axis : x y z
#
# Youngs Moduli (GPa) = 14.22789 14.22738 28.33340
#
# Poissons Ratio (x) = 0.83810 0.26015
# Poissons Ratio (y) = 0.83813 0.26051
# Poissons Ratio (z) = 0.13064 0.13081
#
# Static dielectric constant tensor:
#      x y z
#    x 2.953000 0.000000 0.000000 
#    y 0.000000 2.953000 0.000000 
#    z 0.000000 0.000000 3.075000 
# 
# 
# High freq. dielectric constant tensor:
#      x y z
#    x 1.573600 0.000000 0.000000 
#    y 0.000000 1.573600 0.000000 
#    z 0.000000 0.000000 1.599640 
# 
# From -- ./inp_files/1448.got.cif
#   From: 2010.03.12/outbox.cif.g09.slc.cpg/sg123_1_cif.got.tgz:1448.got - 2010.04.06 16:26:55.
