data_PCOD8312452
_publ_section_title
;
Structure prediction by ZEFSAII (Michael W. Deem and Ramdas Pophale) SiO2 
 PCOD8312452
Probable space group: P 4/M M M
;
_chemical_formula_sum "Si O2"
_cell_formula_units_Z 88
_cell_length_a 13.731461
_cell_length_b 13.731461
_cell_length_c 27.965678
_cell_angle_alpha 90.000000
_cell_angle_beta 90.000000
_cell_angle_gamma 90.000000
_cell_volume 5273.013077
_symmetry_space_group_name_H-M "P 4/M M M"
_symmetry_group_IT_number 123
_symmetry_cell_setting 'tetragonal'
loop_
_space_group_symop_operation_xyz
x,y,z
-y,x,z
-x,-y,z
y,-x,z
x,-y,-z
-x,y,-z
y,x,-z
-y,-x,-z
-x,-y,-z
y,-x,-z
x,y,-z
-y,x,-z
-x,y,z
x,-y,z
-y,-x,z
y,x,z
loop_
_atom_site_type_symbol
_atom_site_label
_atom_site_fract_x
_atom_site_fract_y
_atom_site_fract_z
Si Si1 0.229235 0.385718 0.683546
Si Si2 0.384588 0.108737 0.407546
Si Si3 0.887772 0.388709 0.777640
Si Si4 0.228115 0.384937 0.500000
Si Si5 0.271796 0.113653 0.871791
Si Si6 0.388420 0.231001 0.055154
O O1 0.249923 0.500000 0.679556
O O2 0.333008 0.333008 0.681763
O O3 0.162888 0.347810 0.639976
O O4 0.175295 0.357385 0.732302
O O5 0.500000 0.101246 0.406960
O O6 0.350193 0.167551 0.453988
O O7 0.339590 0.000000 0.408940
O O8 0.866678 0.500000 0.792361
O O9 0.858088 0.321115 0.821725
O O10 0.000000 0.374913 0.763464
O O11 0.248299 0.500000 0.500000
O O12 0.332542 0.332542 0.500000
O O13 0.170143 0.170143 0.876728
O O14 0.345244 0.142462 0.914184
O O15 0.248989 0.000000 0.875638
O O16 0.500000 0.249769 0.069354
O O17 0.330498 0.330498 0.066390
O O18 0.377972 0.200663 0.000000
#
# Coordination Sequence:
#
# PCOD8312452 Si02
#       6
#    16  16  16   8  16  16
#     4  10  19  30  45  66  94 125 153 182 218 266
#     4   9  17  30  47  65  86 114 150 193 233 260
#     4   9  17  30  49  71  92 116 150 193 238 278
#     4  10  19  30  45  67  96 126 153 181 216 265
#     4  10  20  33  49  69  94 124 159 199 240 282
#     4   9  18  32  50  73  99 125 154 189 230 278
#
# _framework density 16.688749999999999
#
# number of rings (size 3 to 8) (size 9 to 14) (size 15 to 20)
#    0.000    2.545    0.000    2.455    0.000    5.364 
#    0.000    1.818    0.000    3.273    0.000    5.091 
#    0.000   26.545    0.000    0.000    0.000    0.000 
#
# Total GULP energy -1091319.174863 kJ/mol
# GULP energy per Si atom -12401.354260 kJ/mol
# Density = 1.665077 g / cm^3
# Si number density = 16.688750 Si / 1000 Ang^3
#
#
#
# Elastic Constant Matrix: (Units=GPa)
#
#
# Indices 1 2 3 4 5 6 
#
# 1 90.0272 51.2854 56.7245 0.0000 0.0000 0.0000
# 2 51.2854 90.0272 56.7245 0.0000 0.0000 0.0000
# 3 56.7245 56.7245 115.2718 0.0000 0.0000 0.0000
# 4 0.0000 0.0000 0.0000 22.3455 0.0000 0.0000
# 5 0.0000 0.0000 0.0000 0.0000 22.3455 0.0000
# 6 0.0000 0.0000 0.0000 0.0000 0.0000 18.0435
#
#
#
# Elastic Compliance Matrix: (Units=1/GPa)
#
#
# Indices 1 2 3 4 5 6 
#
# 1 0.018755 -0.007057 -0.005756 0.000000 0.000000 0.000000
# 2 -0.007057 0.018755 -0.005756 0.000000 0.000000 0.000000
# 3 -0.005756 -0.005756 0.014341 0.000000 0.000000 0.000000
# 4 0.000000 0.000000 0.000000 0.044752 0.000000 0.000000
# 5 0.000000 0.000000 0.000000 0.000000 0.044752 0.000000
# 6 0.000000 0.000000 0.000000 0.000000 0.000000 0.055422
#
#
# Mechanical properties :
#
#
# Convention : Reuss Voigt Hill
#
# Bulk Modulus (GPa) = 67.97835 69.42166 68.70000
# Shear Modulus (GPa) = 20.93635 21.25301 21.09468
#
# Velocity S-wave (km/s) = 3.54576 3.57248 3.55914
# Velocity P-wave (km/s) = 7.58846 7.66192 7.62528
#
# Compressibility (1/GPa) = 0.01471057
#
# Stress axis : x y z
#
# Youngs Moduli (GPa) = 53.31933 53.31933 69.73202
#
# Poissons Ratio (x) = 0.37627 0.40141
# Poissons Ratio (y) = 0.37627 0.40141
# Poissons Ratio (z) = 0.30693 0.30693
#
# Static dielectric constant tensor:
#      x y z
#    x 2.992050 0.000000 0.000000 
#    y 0.000000 2.992050 0.000000 
#    z 0.000000 0.000000 3.316320 
# 
# 
# High freq. dielectric constant tensor:
#      x y z
#    x 1.629120 0.000000 0.000000 
#    y 0.000000 1.629120 0.000000 
#    z 0.000000 0.000000 1.659660 
# 
# From -- ./inp_files/7159.got.cif
#   From: 2010.03.12/outbox.cif.g09.slc.cpg/sg123_4_cif.got.tgz:7159.got - 2010.04.06 16:26:55.
