data_PCOD8312163
_publ_section_title
;
Structure prediction by ZEFSAII (Michael W. Deem and Ramdas Pophale) SiO2 
 PCOD8312163
Probable space group: P 4/M M M
;
_chemical_formula_sum "Si O2"
_cell_formula_units_Z 96
_cell_length_a 28.813704
_cell_length_b 28.813704
_cell_length_c 9.185132
_cell_angle_alpha 90.000000
_cell_angle_beta 90.000000
_cell_angle_gamma 90.000000
_cell_volume 7625.767899
_symmetry_space_group_name_H-M "P 4/M M M"
_symmetry_group_IT_number 123
_symmetry_cell_setting 'tetragonal'
loop_
_space_group_symop_operation_xyz
x,y,z
-y,x,z
-x,-y,z
y,-x,z
x,-y,-z
-x,y,-z
y,x,-z
-y,-x,-z
-x,-y,-z
y,-x,-z
x,y,-z
-y,x,-z
-x,y,z
x,-y,z
-y,-x,z
y,x,z
loop_
_atom_site_type_symbol
_atom_site_label
_atom_site_fract_x
_atom_site_fract_y
_atom_site_fract_z
Si Si1 0.295341 0.051572 0.837219
Si Si2 0.114880 0.762275 0.662038
Si Si3 0.120127 0.380094 0.832429
Si Si4 0.947602 0.445264 0.666627
Si Si5 0.255769 0.255769 0.166439
Si Si6 0.177541 0.177541 0.837630
Si Si7 0.319526 0.189376 0.333604
O O1 0.255179 0.066418 0.726774
O O2 0.339355 0.083561 0.820020
O O3 0.311360 0.000000 0.797508
O O4 0.275108 0.055197 0.000000
O O5 0.106469 0.780206 0.500000
O O6 0.131666 0.805283 0.757205
O O7 0.152285 0.721415 0.666610
O O8 0.094143 0.423898 0.761553
O O9 0.167221 0.364606 0.747603
O O10 0.133097 0.391206 0.000000
O O11 0.941342 0.428823 0.500000
O O12 0.941856 0.500000 0.679310
O O13 0.000000 0.431299 0.719826
O O14 0.216705 0.216705 0.164776
O O15 0.301376 0.235605 0.249432
O O16 0.269107 0.269107 0.000000
O O17 0.163808 0.163808 0.000000
O O18 0.332964 0.202460 0.500000
#
# Coordination Sequence:
#
# PCOD8312163 Si02
#       7
#    16  16  16  16   8   8  16
#     4   9  17  27  36  47  65  86 105 126 154 187
#     4   9  16  24  34  48  63  79 102 128 149 172
#     4  10  18  27  39  54  69  85 108 138 169 200
#     4   9  18  31  43  53  66  85 109 139 178 222
#     4   9  15  23  35  51  69  87 107 131 156 182
#     4   9  15  23  35  47  61  81 101 122 148 175
#     4   9  16  25  36  50  68  89 109 129 156 191
#
# _framework density 12.588896
#
# number of rings (size 3 to 8) (size 9 to 14) (size 15 to 20)
#    0.000    2.833    0.000    3.000    0.000    8.333 
#    0.000    0.833    0.000    0.000    0.000    0.000 
#    0.000    0.000    0.000    0.000    0.000    0.417 
#
# Total GULP energy -1189776.100243 kJ/mol
# GULP energy per Si atom -12393.501044 kJ/mol
# Density = 1.256024 g / cm^3
# Si number density = 12.588896 Si / 1000 Ang^3
#
#
#
# Elastic Constant Matrix: (Units=GPa)
#
#
# Indices 1 2 3 4 5 6 
#
# 1 29.3389 20.0216 26.9944 0.0000 0.0000 0.0000
# 2 20.0216 29.3389 26.9944 0.0000 0.0000 0.0000
# 3 26.9944 26.9944 99.8121 0.0000 0.0000 0.0000
# 4 0.0000 0.0000 0.0000 18.0963 0.0000 0.0000
# 5 0.0000 0.0000 0.0000 0.0000 18.0963 0.0000
# 6 0.0000 0.0000 0.0000 0.0000 0.0000 23.8440
#
#
#
# Elastic Compliance Matrix: (Units=1/GPa)
#
#
# Indices 1 2 3 4 5 6 
#
# 1 0.068048 -0.039279 -0.007781 0.000000 0.000000 0.000000
# 2 -0.039279 0.068048 -0.007781 0.000000 0.000000 0.000000
# 3 -0.007781 -0.007781 0.014227 0.000000 0.000000 0.000000
# 4 0.000000 0.000000 0.000000 0.055260 0.000000 0.000000
# 5 0.000000 0.000000 0.000000 0.000000 0.055260 0.000000
# 6 0.000000 0.000000 0.000000 0.000000 0.000000 0.041939
#
#
# Mechanical properties :
#
#
# Convention : Reuss Voigt Hill
#
# Bulk Modulus (GPa) = 24.60433 34.05678 29.33055
# Shear Modulus (GPa) = 11.73677 17.63929 14.68803
#
# Velocity S-wave (km/s) = 3.05669 3.74729 3.41947
# Velocity P-wave (km/s) = 5.66080 6.77013 6.24017
#
# Compressibility (1/GPa) = 0.04064325
#
# Stress axis : x y z
#
# Youngs Moduli (GPa) = 14.69545 14.69545 70.28648
#
# Poissons Ratio (x) = 0.57722 0.54688
# Poissons Ratio (y) = 0.57722 0.54688
# Poissons Ratio (z) = 0.11434 0.11434
#
# Static dielectric constant tensor:
#      x y z
#    x 2.353900 0.000000 0.000000 
#    y 0.000000 2.353900 0.000000 
#    z 0.000000 0.000000 2.815450 
# 
# 
# High freq. dielectric constant tensor:
#      x y z
#    x 1.436920 0.000000 0.000000 
#    y 0.000000 1.436920 0.000000 
#    z 0.000000 0.000000 1.497740 
# 
# From -- ./inp_files/2115.got.cif
#   From: 2010.03.12/outbox.cif.g09.slc.cpg/sg123_2_cif.got.tgz:2115.got - 2010.04.06 16:26:55.
