data_PCOD8312181
_publ_section_title
;
Structure prediction by ZEFSAII (Michael W. Deem and Ramdas Pophale) SiO2 
 PCOD8312181
Probable space group: P 4/M M M
;
_chemical_formula_sum "Si O2"
_cell_formula_units_Z 104
_cell_length_a 22.729297
_cell_length_b 22.729297
_cell_length_c 16.093079
_cell_angle_alpha 90.000000
_cell_angle_beta 90.000000
_cell_angle_gamma 90.000000
_cell_volume 8314.021634
_symmetry_space_group_name_H-M "P 4/M M M"
_symmetry_group_IT_number 123
_symmetry_cell_setting 'tetragonal'
loop_
_space_group_symop_operation_xyz
x,y,z
-y,x,z
-x,-y,z
y,-x,z
x,-y,-z
-x,y,-z
y,x,-z
-y,-x,-z
-x,-y,-z
y,-x,-z
x,y,-z
-y,x,-z
-x,y,z
x,-y,z
-y,-x,z
y,x,z
loop_
_atom_site_type_symbol
_atom_site_label
_atom_site_fract_x
_atom_site_fract_y
_atom_site_fract_z
Si Si1 0.122326 0.215872 0.838177
Si Si2 0.677294 0.932486 0.094939
Si Si3 0.160055 0.067504 0.000000
Si Si4 0.767836 0.930581 0.332974
Si Si5 0.433607 0.929807 0.500000
Si Si6 0.931225 0.435415 0.182123
Si Si7 0.930908 0.835817 0.500000
Si Si8 0.634333 0.070098 0.659633
O O1 0.188640 0.188640 0.845796
O O2 0.115256 0.286514 0.849872
O O3 0.083387 0.192947 0.914689
O O4 0.097624 0.199160 0.747021
O O5 0.607717 0.918568 0.104224
O O6 0.689468 0.000000 0.126450
O O7 0.696064 0.926232 0.000000
O O8 0.096850 0.096850 0.000000
O O9 0.147836 0.000000 0.000000
O O10 0.799745 0.911923 0.418081
O O11 0.701107 0.906451 0.338034
O O12 0.769436 0.000000 0.321383
O O13 0.500000 0.905027 0.500000
O O14 0.398702 0.905142 0.579058
O O15 0.434834 0.000000 0.500000
O O16 0.901825 0.500000 0.168626
O O17 0.905193 0.402697 0.262748
O O18 0.000000 0.444965 0.194895
O O19 0.898041 0.898041 0.500000
O O20 0.000000 0.849120 0.500000
O O21 0.635609 0.000000 0.658925
#
# Coordination Sequence:
#
# PCOD8312181 Si02
#       8
#    16  16   8  16   8  16   8  16
#     4  11  20  29  43  60  75  94 122 155 190 228
#     4  10  18  28  42  55  73  99 122 149 185 224
#     4  10  20  31  44  60  75  91 115 147 189 243
#     4  10  18  30  46  59  74  94 119 150 187 233
#     4   9  15  21  30  48  74  97 117 140 164 198
#     4   9  16  25  37  55  77  99 122 144 169 209
#     4  10  21  34  46  60  74  90 117 154 195 244
#     4   9  15  23  36  53  71  95 119 140 170 210
#
# _framework density 12.508989
#
# number of rings (size 3 to 8) (size 9 to 14) (size 15 to 20)
#    0.000    2.231    2.308    2.769    0.000    4.154 
#    0.000    1.538    0.000    0.000    0.000    2.154 
#    0.000    0.000    0.000    0.000    0.000    0.000 
#
# Total GULP energy -1288570.445814 kJ/mol
# GULP energy per Si atom -12390.100441 kJ/mol
# Density = 1.248052 g / cm^3
# Si number density = 12.508989 Si / 1000 Ang^3
#
#
#
# Elastic Constant Matrix: (Units=GPa)
#
#
# Indices 1 2 3 4 5 6 
#
# 1 56.0957 29.7997 24.8751 0.0000 0.0000 0.0000
# 2 29.7997 56.0957 24.8751 0.0000 0.0000 0.0000
# 3 24.8751 24.8751 87.5278 0.0000 0.0000 0.0000
# 4 0.0000 0.0000 0.0000 12.8983 0.0000 0.0000
# 5 0.0000 0.0000 0.0000 0.0000 12.8983 0.0000
# 6 0.0000 0.0000 0.0000 0.0000 0.0000 3.6983
#
#
#
# Elastic Compliance Matrix: (Units=1/GPa)
#
#
# Indices 1 2 3 4 5 6 
#
# 1 0.025982 -0.012046 -0.003961 0.000000 0.000000 0.000000
# 2 -0.012046 0.025982 -0.003961 0.000000 0.000000 0.000000
# 3 -0.003961 -0.003961 0.013676 0.000000 0.000000 0.000000
# 4 0.000000 0.000000 0.000000 0.077530 0.000000 0.000000
# 5 0.000000 0.000000 0.000000 0.000000 0.077530 0.000000
# 6 0.000000 0.000000 0.000000 0.000000 0.000000 0.270391
#
#
# Mechanical properties :
#
#
# Convention : Reuss Voigt Hill
#
# Bulk Modulus (GPa) = 38.90163 39.86876 39.38519
# Shear Modulus (GPa) = 9.26620 13.91025 11.58823
#
# Velocity S-wave (km/s) = 2.72465 3.33832 3.04697
# Velocity P-wave (km/s) = 6.40818 6.84108 6.62817
#
# Compressibility (1/GPa) = 0.02570587
#
# Stress axis : x y z
#
# Youngs Moduli (GPa) = 38.48772 38.48772 73.12020
#
# Poissons Ratio (x) = 0.46363 0.28960
# Poissons Ratio (y) = 0.46363 0.28960
# Poissons Ratio (z) = 0.15243 0.15243
#
# Static dielectric constant tensor:
#      x y z
#    x 2.430020 0.000000 0.000000 
#    y 0.000000 2.430020 0.000000 
#    z 0.000000 0.000000 2.854890 
# 
# 
# High freq. dielectric constant tensor:
#      x y z
#    x 1.437060 0.000000 0.000000 
#    y 0.000000 1.437060 0.000000 
#    z 0.000000 0.000000 1.498950 
# 
# From -- ./inp_files/4697.got.cif
#   From: 2010.03.12/outbox.cif.g09.slc.cpg/sg123_3_cif.got.tgz:4697.got - 2010.04.06 16:26:55.
