data_PCOD8312050
_publ_section_title
;
Structure prediction by ZEFSAII (Michael W. Deem and Ramdas Pophale) SiO2 
 PCOD8312050
Probable space group: I -4 2 D
;
_chemical_formula_sum "Si O2"
_cell_formula_units_Z 88
_cell_length_a 11.325288
_cell_length_b 11.325288
_cell_length_c 31.540975
_cell_angle_alpha 90.000000
_cell_angle_beta 90.000000
_cell_angle_gamma 90.000000
_cell_volume 4045.513212
_symmetry_space_group_name_H-M "I -4 2 D"
_symmetry_group_IT_number 122
_symmetry_cell_setting 'tetragonal'
loop_
_space_group_symop_operation_xyz
x,y,z
y,-x,-z
-x,-y,z
-y,x,-z
x,1/2-y,1/4-z
-x,1/2+y,1/4-z
-y,1/2-x,1/4+z
y,1/2+x,1/4+z
1/2+x,1/2+y,1/2+z
1/2+y,1/2-x,1/2-z
1/2-x,1/2-y,1/2+z
1/2-y,1/2+x,1/2-z
1/2+x,-y,3/4-z
1/2-x,y,3/4-z
1/2-y,-x,3/4+z
1/2+y,x,3/4+z
loop_
_atom_site_type_symbol
_atom_site_label
_atom_site_fract_x
_atom_site_fract_y
_atom_site_fract_z
Si Si1 0.206702 0.702608 0.577373
Si Si2 0.280930 0.250000 0.125000
Si Si3 0.373749 0.446950 0.185476
Si Si4 0.611766 0.150124 0.941591
Si Si5 0.150242 0.401490 0.466008
Si Si6 0.671658 0.916433 0.258894
O O1 0.214833 0.750000 0.625000
O O2 0.210925 0.559667 0.574838
O O3 0.316926 0.746072 0.549323
O O4 0.091041 0.765289 0.555211
O O5 0.357705 0.331073 0.156421
O O6 0.198105 0.346948 0.103251
O O7 0.500000 0.500000 0.174937
O O8 0.365158 0.401314 0.233420
O O9 0.471434 0.132780 0.942743
O O10 0.684671 0.032162 0.951325
O O11 0.651768 0.243701 0.976865
O O12 0.549081 0.845465 0.257891
#
# Coordination Sequence:
#
# PCOD8312050 Si02
#       6
#    16   8  16  16  16  16
#     4  12  26  45  71 111 145 187 248 310 364 439
#     4  12  30  46  72 110 146 182 254 310 368 438
#     4  12  27  47  74 110 149 198 239 310 381 458
#     4  11  23  46  71 100 137 194 236 298 366 436
#     4  11  23  48  76  96 145 198 245 293 377 449
#     4  11  23  42  73 105 145 195 239 292 374 458
#
# _framework density 21.752493000000001
#
# number of rings (size 3 to 8) (size 9 to 14) (size 15 to 20)
#    0.000    0.545    5.455    2.182    5.091    0.000 
#    0.000    0.000    0.000    0.000    0.000    0.000 
#    0.000    0.000    0.000    0.000    0.000    0.000 
#
# Total GULP energy -545409.686046 kJ/mol
# GULP energy per Si atom -12395.674683 kJ/mol
# Density = 2.170298 g / cm^3
# Si number density = 21.752493 Si / 1000 Ang^3
#
#
#
# Elastic Constant Matrix: (Units=GPa)
#
#
# Indices 1 2 3 4 5 6 
#
# 1 119.2830 42.3958 50.6023 0.0000 0.0000 0.0000
# 2 42.3958 119.2830 50.6023 0.0000 0.0000 0.0000
# 3 50.6023 50.6023 133.1265 0.0000 0.0000 0.0000
# 4 0.0000 0.0000 0.0000 37.2123 0.0000 0.0000
# 5 0.0000 0.0000 0.0000 0.0000 37.2123 0.0000
# 6 0.0000 0.0000 0.0000 0.0000 0.0000 24.9529
#
#
#
# Elastic Compliance Matrix: (Units=1/GPa)
#
#
# Indices 1 2 3 4 5 6 
#
# 1 0.010561 -0.002445 -0.003085 0.000000 0.000000 0.000000
# 2 -0.002445 0.010561 -0.003085 0.000000 0.000000 0.000000
# 3 -0.003085 -0.003085 0.009857 0.000000 0.000000 0.000000
# 4 0.000000 0.000000 0.000000 0.026873 0.000000 0.000000
# 5 0.000000 0.000000 0.000000 0.000000 0.026873 0.000000
# 6 0.000000 0.000000 0.000000 0.000000 0.000000 0.040076
#
#
# Mechanical properties :
#
#
# Convention : Reuss Voigt Hill
#
# Bulk Modulus (GPa) = 72.73128 73.21037 72.97083
# Shear Modulus (GPa) = 34.10329 35.08164 34.59247
#
# Velocity S-wave (km/s) = 3.96383 4.02028 3.99215
# Velocity P-wave (km/s) = 7.37954 7.43501 7.40733
#
# Compressibility (1/GPa) = 0.01374924
#
# Stress axis : x y z
#
# Youngs Moduli (GPa) = 94.68676 94.68676 101.45145
#
# Poissons Ratio (x) = 0.23150 0.31298
# Poissons Ratio (y) = 0.23150 0.31298
# Poissons Ratio (z) = 0.29211 0.29211
#
# Static dielectric constant tensor:
#      x y z
#    x 4.175370 0.000000 0.000000 
#    y 0.000000 4.175370 0.000000 
#    z 0.000000 0.000000 4.046670 
# 
# 
# High freq. dielectric constant tensor:
#      x y z
#    x 1.860150 0.000000 0.000000 
#    y 0.000000 1.860150 0.000000 
#    z 0.000000 0.000000 1.856920 
# 
# From -- ./inp_files/9504.got.cif
#   From: 2010.03.12/outbox.cif.g09.slc.cpg/sg122_5_cif.got.tgz:9504.got - 2010.04.06 16:17:16.
