data_PCOD8312494
_publ_section_title
;
Structure prediction by ZEFSAII (Michael W. Deem and Ramdas Pophale) SiO2 
 PCOD8312494
Probable space group: P 4/M M M
;
_chemical_formula_sum "Si O2"
_cell_formula_units_Z 96
_cell_length_a 24.247463
_cell_length_b 24.247463
_cell_length_c 9.233368
_cell_angle_alpha 90.000000
_cell_angle_beta 90.000000
_cell_angle_gamma 90.000000
_cell_volume 5428.661414
_symmetry_space_group_name_H-M "P 4/M M M"
_symmetry_group_IT_number 123
_symmetry_cell_setting 'tetragonal'
loop_
_space_group_symop_operation_xyz
x,y,z
-y,x,z
-x,-y,z
y,-x,z
x,-y,-z
-x,y,-z
y,x,-z
-y,-x,-z
-x,-y,-z
y,-x,-z
x,y,-z
-y,x,-z
-x,y,z
x,-y,z
-y,-x,z
y,x,z
loop_
_atom_site_type_symbol
_atom_site_label
_atom_site_fract_x
_atom_site_fract_y
_atom_site_fract_z
Si Si1 0.061061 0.731518 0.172108
Si Si2 0.360781 0.142390 0.171983
Si Si3 0.146406 0.939037 0.172412
Si Si4 0.357973 0.731207 0.170398
Si Si5 0.434963 0.061558 0.663754
Si Si6 0.563118 0.347992 0.330955
O O1 0.108329 0.691583 0.232409
O O2 0.074351 0.792541 0.230850
O O3 0.000000 0.712861 0.225519
O O4 0.061822 0.731663 0.000000
O O5 0.354723 0.205577 0.225215
O O6 0.413549 0.111185 0.236062
O O7 0.365167 0.140416 0.000000
O O8 0.104378 0.895623 0.242990
O O9 0.128219 0.000000 0.221626
O O10 0.145757 0.935019 0.000000
O O11 0.301414 0.698587 0.210948
O O12 0.410246 0.703145 0.246521
O O13 0.368427 0.728825 0.000000
O O14 0.413636 0.070301 0.500000
O O15 0.500000 0.065721 0.668854
O O16 0.416799 0.000000 0.718243
O O17 0.566873 0.334248 0.500000
O O18 0.500000 0.355651 0.280692
O O19 0.595578 0.404423 0.293927
#
# Coordination Sequence:
#
# PCOD8312494 Si02
#       6
#    16  16  16  16  16  16
#     4   8  14  24  37  55  79 105 138 184 230 264
#     4  10  19  30  48  71  91 118 159 199 231 269
#     4   8  13  20  30  47  74 108 143 178 218 264
#     4   9  19  34  48  66  96 129 158 191 232 276
#     4   9  19  35  51  68  94 125 153 186 234 288
#     4   9  18  33  53  75  97 122 152 186 225 268
#
# _framework density 17.683917000000001
#
# number of rings (size 3 to 8) (size 9 to 14) (size 15 to 20)
#    0.000    3.167    0.000    2.000    0.000    4.000 
#    0.000    9.167    0.000    0.000    0.000    2.333 
#    0.000    0.000    0.000    0.000    0.000    0.167 
#
# Total GULP energy -1189777.482121 kJ/mol
# GULP energy per Si atom -12393.515439 kJ/mol
# Density = 1.764367 g / cm^3
# Si number density = 17.683917 Si / 1000 Ang^3
#
#
#
# Elastic Constant Matrix: (Units=GPa)
#
#
# Indices 1 2 3 4 5 6 
#
# 1 142.9995 80.1824 29.3291 0.0000 0.0000 0.0000
# 2 80.1824 142.9995 29.3291 0.0000 0.0000 0.0000
# 3 29.3291 29.3291 19.9888 0.0000 0.0000 0.0000
# 4 0.0000 0.0000 0.0000 17.1618 0.0000 0.0000
# 5 0.0000 0.0000 0.0000 0.0000 17.1618 0.0000
# 6 0.0000 0.0000 0.0000 0.0000 0.0000 17.5954
#
#
#
# Elastic Compliance Matrix: (Units=1/GPa)
#
#
# Indices 1 2 3 4 5 6 
#
# 1 0.011606 -0.004313 -0.010701 0.000000 0.000000 0.000000
# 2 -0.004313 0.011606 -0.010701 0.000000 0.000000 0.000000
# 3 -0.010701 -0.010701 0.081431 0.000000 0.000000 0.000000
# 4 0.000000 0.000000 0.000000 0.058269 0.000000 0.000000
# 5 0.000000 0.000000 0.000000 0.000000 0.058269 0.000000
# 6 0.000000 0.000000 0.000000 0.000000 0.000000 0.056833
#
#
# Mechanical properties :
#
#
# Convention : Reuss Voigt Hill
#
# Bulk Modulus (GPa) = 18.79237 64.85210 41.82223
# Shear Modulus (GPa) = 14.40163 21.52695 17.96429
#
# Velocity S-wave (km/s) = 2.85685 3.49279 3.19071
# Velocity P-wave (km/s) = 4.64026 7.28139 6.10535
#
# Compressibility (1/GPa) = 0.05321309
#
# Stress axis : x y z
#
# Youngs Moduli (GPa) = 86.16068 86.16068 12.28028
#
# Poissons Ratio (x) = 0.37161 0.13141
# Poissons Ratio (y) = 0.37161 0.13141
# Poissons Ratio (z) = 0.92202 0.92202
#
# Static dielectric constant tensor:
#      x y z
#    x 3.487630 0.000000 0.000000 
#    y 0.000000 3.487630 0.000000 
#    z 0.000000 0.000000 2.880320 
# 
# 
# High freq. dielectric constant tensor:
#      x y z
#    x 1.688950 0.000000 0.000000 
#    y 0.000000 1.688950 0.000000 
#    z 0.000000 0.000000 1.638750 
# 
# From -- ./inp_files/1552.got.cif
#   From: 2010.03.12/outbox.cif.g09.slc.cpg/sg123_1_cif.got.tgz:1552.got - 2010.04.06 16:26:55.
