data_PCOD8312173
_publ_section_title
;
Structure prediction by ZEFSAII (Michael W. Deem and Ramdas Pophale) SiO2 
 PCOD8312173
Probable space group: P 4/M M M
;
_chemical_formula_sum "Si O2"
_cell_formula_units_Z 128
_cell_length_a 18.224599
_cell_length_b 18.224599
_cell_length_c 24.000690
_cell_angle_alpha 90.000000
_cell_angle_beta 90.000000
_cell_angle_gamma 90.000000
_cell_volume 7971.493383
_symmetry_space_group_name_H-M "P 4/M M M"
_symmetry_group_IT_number 123
_symmetry_cell_setting 'tetragonal'
loop_
_space_group_symop_operation_xyz
x,y,z
-y,x,z
-x,-y,z
y,-x,z
x,-y,-z
-x,y,-z
y,x,-z
-y,-x,-z
-x,-y,-z
y,-x,-z
x,y,-z
-y,x,-z
-x,y,z
x,-y,z
-y,-x,z
y,x,z
loop_
_atom_site_type_symbol
_atom_site_label
_atom_site_fract_x
_atom_site_fract_y
_atom_site_fract_z
Si Si1 0.584998 0.297806 0.247771
Si Si2 0.087261 0.796919 0.673216
Si Si3 0.721350 0.913926 0.439204
Si Si4 0.416834 0.915713 0.171458
Si Si5 0.651339 0.850015 0.724020
Si Si6 0.417202 0.699983 0.118176
Si Si7 0.913247 0.580031 0.379971
Si Si8 0.586851 0.153676 0.060960
O O1 0.500000 0.301198 0.267982
O O2 0.623312 0.376689 0.259105
O O3 0.632075 0.236394 0.281141
O O4 0.588971 0.277570 0.182738
O O5 0.124329 0.875672 0.687151
O O6 0.102185 0.782166 0.607587
O O7 0.129355 0.735095 0.709001
O O8 0.000000 0.798510 0.686827
O O9 0.743591 0.880969 0.500000
O O10 0.642884 0.879547 0.420095
O O11 0.710755 0.000000 0.444911
O O12 0.500000 0.883929 0.177488
O O13 0.362729 0.873967 0.212778
O O14 0.388639 0.905047 0.107813
O O15 0.415163 0.000000 0.187112
O O16 0.596224 0.893381 0.683842
O O17 0.500000 0.680482 0.102147
O O18 0.371232 0.628768 0.103097
O O19 0.386516 0.766661 0.081294
O O20 0.882363 0.500000 0.397465
O O21 0.000000 0.580707 0.384331
O O22 0.500000 0.152685 0.055652
O O23 0.621436 0.135322 0.000000
#
# Coordination Sequence:
#
# PCOD8312173 Si02
#       8
#    16  16  16  16  16  16  16  16
#     4  10  19  30  46  66  90 121 154 189 227 268
#     4  10  21  35  51  71  94 121 154 193 236 284
#     4   8  15  28  44  63  89 120 154 192 231 269
#     4  10  18  27  43  65  88 117 149 183 225 272
#     4  11  18  30  47  67  93 119 151 191 233 277
#     4   9  17  29  43  60  81 108 144 184 226 268
#     4   9  16  24  38  63  93 125 157 190 229 273
#     4   9  17  29  42  57  81 111 144 184 227 271
#
# _framework density 16.057217000000001
#
# number of rings (size 3 to 8) (size 9 to 14) (size 15 to 20)
#    0.000    2.500    1.250    3.375    0.000    2.375 
#    0.000    3.750    0.000    0.000    0.000    3.500 
#    0.000    0.000    0.000    0.000    0.000    2.375 
#
# Total GULP energy -1586158.456263 kJ/mol
# GULP energy per Si atom -12391.862940 kJ/mol
# Density = 1.602067 g / cm^3
# Si number density = 16.057217 Si / 1000 Ang^3
#
#
#
# Elastic Constant Matrix: (Units=GPa)
#
#
# Indices 1 2 3 4 5 6 
#
# 1 63.2973 42.2840 22.8170 0.0000 0.0000 0.0000
# 2 42.2840 63.2973 22.8170 0.0000 0.0000 0.0000
# 3 22.8170 22.8170 66.6938 0.0000 0.0000 0.0000
# 4 0.0000 0.0000 0.0000 13.3844 0.0000 0.0000
# 5 0.0000 0.0000 0.0000 0.0000 13.3844 0.0000
# 6 0.0000 0.0000 0.0000 0.0000 0.0000 23.1753
#
#
#
# Elastic Compliance Matrix: (Units=1/GPa)
#
#
# Indices 1 2 3 4 5 6 
#
# 1 0.029352 -0.018237 -0.003803 0.000000 0.000000 0.000000
# 2 -0.018237 0.029352 -0.003803 0.000000 0.000000 0.000000
# 3 -0.003803 -0.003803 0.017596 0.000000 0.000000 0.000000
# 4 0.000000 0.000000 0.000000 0.074714 0.000000 0.000000
# 5 0.000000 0.000000 0.000000 0.000000 0.074714 0.000000
# 6 0.000000 0.000000 0.000000 0.000000 0.000000 0.043149
#
#
# Mechanical properties :
#
#
# Convention : Reuss Voigt Hill
#
# Bulk Modulus (GPa) = 40.62529 41.01385 40.81957
# Shear Modulus (GPa) = 15.20839 17.01352 16.11096
#
# Velocity S-wave (km/s) = 3.08090 3.25861 3.17100
# Velocity P-wave (km/s) = 6.16532 6.30522 6.23566
#
# Compressibility (1/GPa) = 0.02461521
#
# Stress axis : x y z
#
# Youngs Moduli (GPa) = 34.06929 34.06929 56.83190
#
# Poissons Ratio (x) = 0.62132 0.21611
# Poissons Ratio (y) = 0.62132 0.21611
# Poissons Ratio (z) = 0.12955 0.12955
#
# Static dielectric constant tensor:
#      x y z
#    x 2.920090 0.000000 0.000000 
#    y 0.000000 2.920090 0.000000 
#    z 0.000000 0.000000 3.253590 
# 
# 
# High freq. dielectric constant tensor:
#      x y z
#    x 1.595950 0.000000 0.000000 
#    y 0.000000 1.595950 0.000000 
#    z 0.000000 0.000000 1.609250 
# 
# From -- ./inp_files/7641.got.cif
#   From: 2010.03.12/outbox.cif.g09.slc.cpg/sg123_4_cif.got.tgz:7641.got - 2010.04.06 16:26:55.
