data_PCOD8312290
_publ_section_title
;
Structure prediction by ZEFSAII (Michael W. Deem and Ramdas Pophale) SiO2 
 PCOD8312290
Probable space group: P 4/M M M
;
_chemical_formula_sum "Si O2"
_cell_formula_units_Z 60
_cell_length_a 18.186019
_cell_length_b 18.186019
_cell_length_c 12.734700
_cell_angle_alpha 90.000000
_cell_angle_beta 90.000000
_cell_angle_gamma 90.000000
_cell_volume 4211.763721
_symmetry_space_group_name_H-M "P 4/M M M"
_symmetry_group_IT_number 123
_symmetry_cell_setting 'tetragonal'
loop_
_space_group_symop_operation_xyz
x,y,z
-y,x,z
-x,-y,z
y,-x,z
x,-y,-z
-x,y,-z
y,x,-z
-y,-x,-z
-x,-y,-z
y,-x,-z
x,y,-z
-y,x,-z
-x,y,z
x,-y,z
-y,-x,z
y,x,z
loop_
_atom_site_type_symbol
_atom_site_label
_atom_site_fract_x
_atom_site_fract_y
_atom_site_fract_z
Si Si1 0.299404 0.299404 0.125527
Si Si2 0.000000 0.878513 0.274427
Si Si3 0.653310 0.859735 0.124710
Si Si4 0.121249 0.000000 0.500000
Si Si5 0.082907 0.500000 0.125180
Si Si6 0.417320 0.417320 0.124776
Si Si7 0.000000 0.745642 0.124635
O O1 0.318784 0.218326 0.169288
O O2 0.358560 0.358560 0.169872
O O3 0.300310 0.300310 0.000000
O O4 0.000000 0.824484 0.177045
O O5 0.072324 0.927677 0.265308
O O6 0.000000 0.835040 0.388266
O O7 0.571028 0.873526 0.166928
O O8 0.703635 0.926982 0.163574
O O9 0.653607 0.857729 0.000000
O O10 0.071628 0.071628 0.500000
O O11 0.000000 0.500000 0.169853
O O12 0.079291 0.500000 0.000000
O O13 0.500000 0.396733 0.163101
O O14 0.415165 0.415165 0.000000
O O15 0.000000 0.755798 0.000000
#
# Coordination Sequence:
#
# PCOD8312290 Si02
#       7
#     8   8  16   4   8   8   8
#     4   9  17  24  33  46  61  89 123 153 196 238
#     4   9  18  30  45  60  74 100 132 163 198 232
#     4   9  17  26  35  48  69  97 129 163 192 224
#     4   7  12  28  48  62  72  85 124 174 202 223
#     4   9  14  24  38  48  59  87 133 171 192 212
#     4   8  14  23  32  44  62  81 111 162 210 237
#     4  10  19  28  37  54  83 110 129 155 191 233
#
# _framework density 14.245813999999999
#
# number of rings (size 3 to 8) (size 9 to 14) (size 15 to 20)
#    0.000    3.133    1.333    1.200    3.733    0.533 
#    0.000    0.667    0.000    0.000    0.000    0.000 
#    0.000    2.133    0.000    0.000    0.000    0.000 
#
# Total GULP energy -743406.931328 kJ/mol
# GULP energy per Si atom -12390.115522 kJ/mol
# Density = 1.421339 g / cm^3
# Si number density = 14.245814 Si / 1000 Ang^3
#
#
#
# Elastic Constant Matrix: (Units=GPa)
#
#
# Indices 1 2 3 4 5 6 
#
# 1 125.8369 68.8940 16.8270 0.0000 0.0000 0.0000
# 2 68.8940 125.8369 16.8270 0.0000 0.0000 0.0000
# 3 16.8270 16.8270 19.1372 0.0000 0.0000 0.0000
# 4 0.0000 0.0000 0.0000 2.2331 0.0000 0.0000
# 5 0.0000 0.0000 0.0000 0.0000 2.2331 0.0000
# 6 0.0000 0.0000 0.0000 0.0000 0.0000 1.2429
#
#
#
# Elastic Compliance Matrix: (Units=1/GPa)
#
#
# Indices 1 2 3 4 5 6 
#
# 1 0.011808 -0.005753 -0.005324 0.000000 0.000000 0.000000
# 2 -0.005753 0.011808 -0.005324 0.000000 0.000000 0.000000
# 3 -0.005324 -0.005324 0.061617 0.000000 0.000000 0.000000
# 4 0.000000 0.000000 0.000000 0.447814 0.000000 0.000000
# 5 0.000000 0.000000 0.000000 0.000000 0.447814 0.000000
# 6 0.000000 0.000000 0.000000 0.000000 0.000000 0.804575
#
#
# Mechanical properties :
#
#
# Convention : Reuss Voigt Hill
#
# Bulk Modulus (GPa) = 19.07283 52.87854 35.97568
# Shear Modulus (GPa) = 2.72373 12.35935 7.54154
#
# Velocity S-wave (km/s) = 1.38423 2.94866 2.30334
# Velocity P-wave (km/s) = 3.99653 6.98513 5.69053
#
# Compressibility (1/GPa) = 0.05243062
#
# Stress axis : x y z
#
# Youngs Moduli (GPa) = 84.68501 84.68501 16.22916
#
# Poissons Ratio (x) = 0.48719 0.08641
# Poissons Ratio (y) = 0.48719 0.08641
# Poissons Ratio (z) = 0.45090 0.45090
#
# Static dielectric constant tensor:
#      x y z
#    x 2.963390 0.000000 0.000000 
#    y 0.000000 2.963390 0.000000 
#    z 0.000000 0.000000 2.233480 
# 
# 
# High freq. dielectric constant tensor:
#      x y z
#    x 1.552290 0.000000 0.000000 
#    y 0.000000 1.552290 0.000000 
#    z 0.000000 0.000000 1.454290 
# 
# From -- ./inp_files/2708.got.cif
#   From: 2010.03.12/outbox.cif.g09.slc.cpg/sg123_2_cif.got.tgz:2708.got - 2010.04.06 16:26:55.
