data_PCOD8312785
_publ_section_title
;
Structure prediction by ZEFSAII (Michael W. Deem and Ramdas Pophale) SiO2 
 PCOD8312785
Probable space group: P 4/M M M
;
_chemical_formula_sum "Si O2"
_cell_formula_units_Z 88
_cell_length_a 13.590750
_cell_length_b 13.590750
_cell_length_c 28.013252
_cell_angle_alpha 90.000000
_cell_angle_beta 90.000000
_cell_angle_gamma 90.000000
_cell_volume 5174.285353
_symmetry_space_group_name_H-M "P 4/M M M"
_symmetry_group_IT_number 123
_symmetry_cell_setting 'tetragonal'
loop_
_space_group_symop_operation_xyz
x,y,z
-y,x,z
-x,-y,z
y,-x,z
x,-y,-z
-x,y,-z
y,x,-z
-y,-x,-z
-x,-y,-z
y,-x,-z
x,y,-z
-y,x,-z
-x,y,z
x,-y,z
-y,-x,z
y,x,z
loop_
_atom_site_type_symbol
_atom_site_label
_atom_site_fract_x
_atom_site_fract_y
_atom_site_fract_z
Si Si1 0.223986 0.383096 0.916118
Si Si2 0.108357 0.383737 0.822580
Si Si3 0.227501 0.387854 0.373544
Si Si4 0.887859 0.728585 0.445834
Si Si5 0.883281 0.720423 0.000000
Si Si6 0.612995 0.229074 0.733789
O O1 0.240351 0.500000 0.921573
O O2 0.328911 0.328911 0.923507
O O3 0.181449 0.352220 0.864713
O O4 0.144921 0.345096 0.954327
O O5 0.098010 0.500000 0.822109
O O6 0.149935 0.346182 0.771722
O O7 0.000000 0.336546 0.830012
O O8 0.257785 0.500000 0.382021
O O9 0.324731 0.324731 0.383811
O O10 0.141707 0.359089 0.410279
O O11 0.187201 0.371366 0.319702
O O12 0.869895 0.692300 0.500000
O O13 0.825752 0.825752 0.434039
O O14 0.000000 0.757599 0.437023
O O15 0.824136 0.824136 0.000000
O O16 0.000000 0.742244 0.000000
O O17 0.500000 0.253466 0.744412
O O18 0.668430 0.331571 0.740406
#
# Coordination Sequence:
#
# PCOD8312785 Si02
#       6
#    16  16  16  16   8  16
#     4  10  20  33  50  73 100 130 164 201 242 290
#     4   9  17  29  45  65  90 121 156 193 232 274
#     4   9  18  31  46  66  93 124 158 195 232 273
#     4   9  18  32  49  69  92 117 147 186 232 281
#     4  10  21  36  54  76 100 128 165 206 246 288
#     4   9  17  29  45  66  92 121 153 189 230 277
#
# _framework density 17.007179000000001
#
# number of rings (size 3 to 8) (size 9 to 14) (size 15 to 20)
#    0.000    2.727    0.000    1.364    0.000    3.727 
#    0.000    5.455    0.000    4.909    0.000    2.545 
#    0.000    3.273    0.000    0.727    0.000    0.182 
#
# Total GULP energy -1091014.334334 kJ/mol
# GULP energy per Si atom -12397.890163 kJ/mol
# Density = 1.696847 g / cm^3
# Si number density = 17.007179 Si / 1000 Ang^3
#
#
#
# Elastic Constant Matrix: (Units=GPa)
#
#
# Indices 1 2 3 4 5 6 
#
# 1 91.4336 38.7179 48.9761 0.0000 0.0000 0.0000
# 2 38.7179 91.4336 48.9761 0.0000 0.0000 0.0000
# 3 48.9761 48.9761 112.4387 0.0000 0.0000 0.0000
# 4 0.0000 0.0000 0.0000 23.4842 0.0000 0.0000
# 5 0.0000 0.0000 0.0000 0.0000 23.4842 0.0000
# 6 0.0000 0.0000 0.0000 0.0000 0.0000 13.0178
#
#
#
# Elastic Compliance Matrix: (Units=1/GPa)
#
#
# Indices 1 2 3 4 5 6 
#
# 1 0.015200 -0.003770 -0.004979 0.000000 0.000000 0.000000
# 2 -0.003770 0.015200 -0.004979 0.000000 0.000000 0.000000
# 3 -0.004979 -0.004979 0.013231 0.000000 0.000000 0.000000
# 4 0.000000 0.000000 0.000000 0.042582 0.000000 0.000000
# 5 0.000000 0.000000 0.000000 0.000000 0.042582 0.000000
# 6 0.000000 0.000000 0.000000 0.000000 0.000000 0.076818
#
#
# Mechanical properties :
#
#
# Convention : Reuss Voigt Hill
#
# Bulk Modulus (GPa) = 61.81796 63.18291 62.50044
# Shear Modulus (GPa) = 20.96791 22.57297 21.77044
#
# Velocity S-wave (km/s) = 3.51506 3.64711 3.58169
# Velocity P-wave (km/s) = 7.27332 7.41395 7.34397
#
# Compressibility (1/GPa) = 0.01617653
#
# Stress axis : x y z
#
# Youngs Moduli (GPa) = 65.78917 65.78917 75.57919
#
# Poissons Ratio (x) = 0.24800 0.37630
# Poissons Ratio (y) = 0.24800 0.37630
# Poissons Ratio (z) = 0.32756 0.32756
#
# Static dielectric constant tensor:
#      x y z
#    x 3.077340 0.000000 0.000000 
#    y 0.000000 3.077340 0.000000 
#    z 0.000000 0.000000 3.484550 
# 
# 
# High freq. dielectric constant tensor:
#      x y z
#    x 1.640650 0.000000 0.000000 
#    y 0.000000 1.640650 0.000000 
#    z 0.000000 0.000000 1.673550 
# 
# From -- ./inp_files/8514.got.cif
#   From: 2010.03.12/outbox.cif.g09.slc.cpg/sg123_5_cif.got.tgz:8514.got - 2010.04.06 16:26:55.
