data_PCOD8312809
_publ_section_title
;
Structure prediction by ZEFSAII (Michael W. Deem and Ramdas Pophale) SiO2 
 PCOD8312809
Probable space group: P 4/M M M
;
_chemical_formula_sum "Si O2"
_cell_formula_units_Z 80
_cell_length_a 12.634120
_cell_length_b 12.634120
_cell_length_c 28.691300
_cell_angle_alpha 90.000000
_cell_angle_beta 90.000000
_cell_angle_gamma 90.000000
_cell_volume 4579.733658
_symmetry_space_group_name_H-M "P 4/M M M"
_symmetry_group_IT_number 123
_symmetry_cell_setting 'tetragonal'
loop_
_space_group_symop_operation_xyz
x,y,z
-y,x,z
-x,-y,z
y,-x,z
x,-y,-z
-x,y,-z
y,x,-z
-y,-x,-z
-x,-y,-z
y,-x,-z
x,y,-z
-y,x,-z
-x,y,z
x,-y,z
-y,-x,z
y,x,z
loop_
_atom_site_type_symbol
_atom_site_label
_atom_site_fract_x
_atom_site_fract_y
_atom_site_fract_z
Si Si1 0.874264 0.500000 0.892394
Si Si2 0.292800 0.878667 0.054381
Si Si3 0.210618 0.619720 0.359197
Si Si4 0.125629 0.500000 0.212828
Si Si5 0.705896 0.122283 0.268065
Si Si6 0.292483 0.878724 0.551966
O O1 0.833447 0.394642 0.918303
O O2 0.830396 0.500000 0.839782
O O3 0.000000 0.500000 0.893719
O O4 0.190912 0.809089 0.068195
O O5 0.267326 0.000000 0.068304
O O6 0.319031 0.869701 0.000000
O O7 0.228252 0.500000 0.343540
O O8 0.324862 0.675139 0.360340
O O9 0.133983 0.678330 0.322625
O O10 0.156722 0.621171 0.410142
O O11 0.165699 0.393917 0.238449
O O12 0.000000 0.500000 0.214020
O O13 0.808145 0.191856 0.254409
O O14 0.731905 0.000000 0.257101
O O15 0.338406 0.857061 0.500000
O O16 0.184370 0.815631 0.560738
O O17 0.262614 0.000000 0.558662
#
# Coordination Sequence:
#
# PCOD8312809 Si02
#       6
#     8  16  16   8  16  16
#     4   9  17  30  49  71  96 131 174 214 249 290
#     4   9  17  29  47  73 104 137 172 210 253 301
#     4  10  20  34  52  72  96 127 163 205 250 297
#     4   9  18  33  52  72  96 130 171 210 248 297
#     4  10  20  34  53  77 103 131 164 203 250 303
#     4   9  18  31  47  70  98 127 160 197 240 294
#
# _framework density 17.468266
#
# number of rings (size 3 to 8) (size 9 to 14) (size 15 to 20)
#    0.000    2.600    1.000    0.900    0.000    4.400 
#    0.000    3.000    0.000    4.200    0.000   11.200 
#    0.000    0.000    0.000    0.000    0.000    0.000 
#
# Total GULP energy -991935.085414 kJ/mol
# GULP energy per Si atom -12399.188568 kJ/mol
# Density = 1.742851 g / cm^3
# Si number density = 17.468266 Si / 1000 Ang^3
#
#
#
# Elastic Constant Matrix: (Units=GPa)
#
#
# Indices 1 2 3 4 5 6 
#
# 1 96.0234 53.5925 39.1332 0.0000 0.0000 0.0000
# 2 53.5925 96.0234 39.1332 0.0000 0.0000 0.0000
# 3 39.1332 39.1332 87.7952 0.0000 0.0000 0.0000
# 4 0.0000 0.0000 0.0000 20.5497 0.0000 0.0000
# 5 0.0000 0.0000 0.0000 0.0000 20.5497 0.0000
# 6 0.0000 0.0000 0.0000 0.0000 0.0000 14.1273
#
#
#
# Elastic Compliance Matrix: (Units=1/GPa)
#
#
# Indices 1 2 3 4 5 6 
#
# 1 0.016142 -0.007426 -0.003885 0.000000 0.000000 0.000000
# 2 -0.007426 0.016142 -0.003885 0.000000 0.000000 0.000000
# 3 -0.003885 -0.003885 0.014854 0.000000 0.000000 0.000000
# 4 0.000000 0.000000 0.000000 0.048662 0.000000 0.000000
# 5 0.000000 0.000000 0.000000 0.000000 0.048662 0.000000
# 6 0.000000 0.000000 0.000000 0.000000 0.000000 0.070785
#
#
# Mechanical properties :
#
#
# Convention : Reuss Voigt Hill
#
# Bulk Modulus (GPa) = 59.71741 60.39554 60.05648
# Shear Modulus (GPa) = 19.90278 20.91088 20.40683
#
# Velocity S-wave (km/s) = 3.37911 3.46363 3.42164
# Velocity P-wave (km/s) = 7.03456 7.11654 7.07567
#
# Compressibility (1/GPa) = 0.01674553
#
# Stress axis : x y z
#
# Youngs Moduli (GPa) = 61.95048 61.95048 67.32402
#
# Poissons Ratio (x) = 0.46003 0.26156
# Poissons Ratio (y) = 0.46003 0.26156
# Poissons Ratio (z) = 0.24068 0.24068
#
# Static dielectric constant tensor:
#      x y z
#    x 3.106790 0.000000 0.000000 
#    y 0.000000 3.106790 0.000000 
#    z 0.000000 0.000000 3.412280 
# 
# 
# High freq. dielectric constant tensor:
#      x y z
#    x 1.659590 0.000000 0.000000 
#    y 0.000000 1.659590 0.000000 
#    z 0.000000 0.000000 1.681570 
# 
# From -- ./inp_files/8362.got.cif
#   From: 2010.03.12/outbox.cif.g09.slc.cpg/sg123_5_cif.got.tgz:8362.got - 2010.04.06 16:26:55.
