data_PCOD8312587
_publ_section_title
;
Structure prediction by ZEFSAII (Michael W. Deem and Ramdas Pophale) SiO2 
 PCOD8312587
Probable space group: P 4/M M M
;
_chemical_formula_sum "Si O2"
_cell_formula_units_Z 68
_cell_length_a 17.753989
_cell_length_b 17.753989
_cell_length_c 11.792742
_cell_angle_alpha 90.000000
_cell_angle_beta 90.000000
_cell_angle_gamma 90.000000
_cell_volume 3717.120928
_symmetry_space_group_name_H-M "P 4/M M M"
_symmetry_group_IT_number 123
_symmetry_cell_setting 'tetragonal'
loop_
_space_group_symop_operation_xyz
x,y,z
-y,x,z
-x,-y,z
y,-x,z
x,-y,-z
-x,y,-z
y,x,-z
-y,-x,-z
-x,-y,-z
y,-x,-z
x,y,-z
-y,x,-z
-x,y,z
x,-y,z
-y,-x,z
y,x,z
loop_
_atom_site_type_symbol
_atom_site_label
_atom_site_fract_x
_atom_site_fract_y
_atom_site_fract_z
Si Si1 0.107718 0.500000 0.129706
Si Si2 0.500000 0.622266 0.000000
Si Si3 0.916874 0.647423 0.733072
Si Si4 0.270963 0.500000 0.789028
Si Si5 0.796367 0.084674 0.867293
Si Si6 0.241398 0.363059 0.628886
O O1 0.075744 0.573114 0.191598
O O2 0.196992 0.500000 0.135101
O O3 0.080373 0.500000 0.000000
O O4 0.424830 0.575171 0.000000
O O5 0.500000 0.664661 0.881205
O O6 0.895861 0.716490 0.813772
O O7 0.849312 0.642975 0.642428
O O8 0.000000 0.659276 0.675281
O O9 0.275909 0.426106 0.710825
O O10 0.859726 0.140275 0.817146
O O11 0.822392 0.000000 0.838490
O O12 0.786761 0.096819 0.000000
O O13 0.256398 0.388153 0.500000
O O14 0.283674 0.283674 0.654611
#
# Coordination Sequence:
#
# PCOD8312587 Si02
#       6
#     8   4  16   8  16  16
#     4  10  19  32  50  73 102 139 174 202 246 307
#     4  11  22  36  58  86 115 144 172 212 263 316
#     4  10  20  32  49  73 102 135 173 219 264 309
#     4  10  20  37  56  81 109 138 172 214 259 309
#     4   9  17  29  45  67  97 132 171 216 265 318
#     4  10  21  37  57  78 104 140 180 221 264 314
#
# _framework density 18.293727000000001
#
# number of rings (size 3 to 8) (size 9 to 14) (size 15 to 20)
#    0.000    2.176    0.588    2.824    0.000    2.588 
#    0.000    1.176    0.000    4.235    0.000    4.941 
#    0.000    0.000    0.000   21.882    0.000    0.235 
#
# Total GULP energy -842914.733979 kJ/mol
# GULP energy per Si atom -12395.804911 kJ/mol
# Density = 1.825209 g / cm^3
# Si number density = 18.293727 Si / 1000 Ang^3
#
#
#
# Elastic Constant Matrix: (Units=GPa)
#
#
# Indices 1 2 3 4 5 6 
#
# 1 116.3136 59.6614 48.5802 0.0000 0.0000 0.0000
# 2 59.6614 116.3128 48.5801 0.0000 0.0000 0.0000
# 3 48.5802 48.5801 84.3330 0.0000 0.0000 0.0000
# 4 0.0000 0.0000 0.0000 20.9137 0.0000 0.0000
# 5 0.0000 0.0000 0.0000 0.0000 20.9133 0.0000
# 6 0.0000 0.0000 0.0000 0.0000 0.0000 26.5762
#
#
#
# Elastic Compliance Matrix: (Units=1/GPa)
#
#
# Indices 1 2 3 4 5 6 
#
# 1 0.012992 -0.004659 -0.004800 0.000000 0.000000 0.000000
# 2 -0.004659 0.012992 -0.004800 0.000000 0.000000 0.000000
# 3 -0.004800 -0.004800 0.017388 0.000000 0.000000 0.000000
# 4 0.000000 0.000000 0.000000 0.047816 0.000000 0.000000
# 5 0.000000 0.000000 0.000000 0.000000 0.047816 0.000000
# 6 0.000000 0.000000 0.000000 0.000000 0.000000 0.037628
#
#
# Mechanical properties :
#
#
# Convention : Reuss Voigt Hill
#
# Bulk Modulus (GPa) = 67.32571 70.06697 68.69634
# Shear Modulus (GPa) = 23.79784 24.35648 24.07716
#
# Velocity S-wave (km/s) = 3.61068 3.65281 3.63180
# Velocity P-wave (km/s) = 7.36649 7.49499 7.43102
#
# Compressibility (1/GPa) = 0.01485317
#
# Stress axis : x y z
#
# Youngs Moduli (GPa) = 76.96879 76.96814 57.51056
#
# Poissons Ratio (x) = 0.35862 0.27606
# Poissons Ratio (y) = 0.35863 0.27606
# Poissons Ratio (z) = 0.36947 0.36947
#
# Static dielectric constant tensor:
#      x y z
#    x 3.511110 0.000000 0.000000 
#    y 0.000000 3.511110 0.000000 
#    z 0.000000 0.000000 3.107590 
# 
# 
# High freq. dielectric constant tensor:
#      x y z
#    x 1.719890 0.000000 0.000000 
#    y 0.000000 1.719890 0.000000 
#    z 0.000000 0.000000 1.688420 
# 
# From -- ./inp_files/2774.got.cif
#   From: 2010.03.12/outbox.cif.g09.slc.cpg/sg123_2_cif.got.tgz:2774.got - 2010.04.06 16:26:55.
