data_PCOD8312985
_publ_section_title
;
Structure prediction by ZEFSAII (Michael W. Deem and Ramdas Pophale) SiO2 
 PCOD8312985
Probable space group: P 4/M M M
;
_chemical_formula_sum "Si O2"
_cell_formula_units_Z 120
_cell_length_a 18.324255
_cell_length_b 18.324255
_cell_length_c 28.216177
_cell_angle_alpha 90.000000
_cell_angle_beta 90.000000
_cell_angle_gamma 90.000000
_cell_volume 9474.380547
_symmetry_space_group_name_H-M "P 4/M M M"
_symmetry_group_IT_number 123
_symmetry_cell_setting 'tetragonal'
loop_
_space_group_symop_operation_xyz
x,y,z
-y,x,z
-x,-y,z
y,-x,z
x,-y,-z
-x,y,-z
y,x,-z
-y,-x,-z
-x,-y,-z
y,-x,-z
x,y,-z
-y,x,-z
-x,y,z
x,-y,z
-y,-x,z
y,x,z
loop_
_atom_site_type_symbol
_atom_site_label
_atom_site_fract_x
_atom_site_fract_y
_atom_site_fract_z
Si Si1 0.580370 0.087363 0.198603
Si Si2 0.084399 0.797583 0.052860
Si Si3 0.913675 0.285392 0.857118
Si Si4 0.796674 0.083911 0.555881
Si Si5 0.086914 0.500000 0.446337
Si Si6 0.341500 0.915132 0.290431
Si Si7 0.199126 0.083716 0.234231
Si Si8 0.913049 0.353645 0.604594
O O1 0.500000 0.116867 0.186787
O O2 0.634591 0.116786 0.157371
O O3 0.605035 0.118041 0.250123
O O4 0.583208 0.000000 0.200239
O O5 0.126559 0.873442 0.058770
O O6 0.115000 0.739091 0.091084
O O7 0.000000 0.815751 0.062591
O O8 0.095836 0.764868 0.000000
O O9 0.889456 0.228308 0.816879
O O10 0.000000 0.290067 0.857894
O O11 0.785117 0.088312 0.500000
O O12 0.863731 0.136270 0.571984
O O13 0.721132 0.112231 0.579183
O O14 0.814562 0.000000 0.571078
O O15 0.115759 0.500000 0.500000
O O16 0.117113 0.426301 0.421393
O O17 0.000000 0.500000 0.444772
O O18 0.258443 0.901946 0.274864
O O19 0.354862 0.879951 0.342010
O O20 0.358650 0.000000 0.294433
O O21 0.127829 0.127829 0.248430
O O22 0.176205 0.000000 0.231977
O O23 0.000000 0.355170 0.604823
#
# Coordination Sequence:
#
# PCOD8312985 Si02
#       8
#    16  16  16  16   8  16  16  16
#     4   8  13  21  35  50  63  78  98 125 158 203
#     4   9  16  24  34  47  63  85 113 145 180 215
#     4   8  14  24  34  46  63  82 104 134 175 213
#     4   9  17  28  40  52  67  90 122 158 190 216
#     4   9  16  24  36  54  72  88 104 127 168 222
#     4   8  15  24  33  48  65  81 102 130 166 202
#     4   9  16  25  35  46  63  87 115 147 179 211
#     4   9  16  25  37  52  70  89 108 137 177 219
#
# _framework density 12.665736000000001
#
# number of rings (size 3 to 8) (size 9 to 14) (size 15 to 20)
#    0.000    3.400    0.000    2.400    0.933    2.533 
#    0.000    1.333    0.000    2.800    0.000    6.533 
#    0.000    0.000    0.000    0.000    0.000    0.333 
#
# Total GULP energy -1486808.429669 kJ/mol
# GULP energy per Si atom -12390.070247 kJ/mol
# Density = 1.263691 g / cm^3
# Si number density = 12.665736 Si / 1000 Ang^3
#
#
#
# Elastic Constant Matrix: (Units=GPa)
#
#
# Indices 1 2 3 4 5 6 
#
# 1 54.6915 29.6190 32.5595 0.0000 0.0000 0.0000
# 2 29.6190 54.6915 32.5595 0.0000 0.0000 0.0000
# 3 32.5595 32.5595 96.6576 0.0000 0.0000 0.0000
# 4 0.0000 0.0000 0.0000 11.0129 0.0000 0.0000
# 5 0.0000 0.0000 0.0000 0.0000 11.0129 0.0000
# 6 0.0000 0.0000 0.0000 0.0000 0.0000 1.0359
#
#
#
# Elastic Compliance Matrix: (Units=1/GPa)
#
#
# Indices 1 2 3 4 5 6 
#
# 1 0.027958 -0.011926 -0.005400 0.000000 0.000000 0.000000
# 2 -0.011926 0.027958 -0.005400 0.000000 0.000000 0.000000
# 3 -0.005400 -0.005400 0.013984 0.000000 0.000000 0.000000
# 4 0.000000 0.000000 0.000000 0.090803 0.000000 0.000000
# 5 0.000000 0.000000 0.000000 0.000000 0.090803 0.000000
# 6 0.000000 0.000000 0.000000 0.000000 0.000000 0.965338
#
#
# Mechanical properties :
#
#
# Convention : Reuss Voigt Hill
#
# Bulk Modulus (GPa) = 40.90578 43.94630 42.42604
# Shear Modulus (GPa) = 3.93562 12.03250 7.98406
#
# Velocity S-wave (km/s) = 1.76467 3.08556 2.51344
# Velocity P-wave (km/s) = 6.04306 6.88960 6.48017
#
# Compressibility (1/GPa) = 0.02444642
#
# Stress axis : x y z
#
# Youngs Moduli (GPa) = 35.76769 35.76769 71.50951
#
# Poissons Ratio (x) = 0.42657 0.38619
# Poissons Ratio (y) = 0.42657 0.38619
# Poissons Ratio (z) = 0.19316 0.19316
#
# Static dielectric constant tensor:
#      x y z
#    x 2.401140 0.000000 0.000000 
#    y 0.000000 2.401140 0.000000 
#    z 0.000000 0.000000 2.933130 
# 
# 
# High freq. dielectric constant tensor:
#      x y z
#    x 1.442380 0.000000 0.000000 
#    y 0.000000 1.442380 0.000000 
#    z 0.000000 0.000000 1.492510 
# 
# From -- ./inp_files/8253.got.cif
#   From: 2010.03.12/outbox.cif.g09.slc.cpg/sg123_5_cif.got.tgz:8253.got - 2010.04.06 16:26:55.
