data_PCOD8312708
_publ_section_title
;
Structure prediction by ZEFSAII (Michael W. Deem and Ramdas Pophale) SiO2 
 PCOD8312708
Probable space group: P 4/M M M
;
_chemical_formula_sum "Si O2"
_cell_formula_units_Z 64
_cell_length_a 15.428583
_cell_length_b 15.428583
_cell_length_c 14.529294
_cell_angle_alpha 90.000000
_cell_angle_beta 90.000000
_cell_angle_gamma 90.000000
_cell_volume 3458.570192
_symmetry_space_group_name_H-M "P 4/M M M"
_symmetry_group_IT_number 123
_symmetry_cell_setting 'tetragonal'
loop_
_space_group_symop_operation_xyz
x,y,z
-y,x,z
-x,-y,z
y,-x,z
x,-y,-z
-x,y,-z
y,x,-z
-y,-x,-z
-x,-y,-z
y,-x,-z
x,y,-z
-y,x,-z
-x,y,z
x,-y,z
-y,-x,z
y,x,z
loop_
_atom_site_type_symbol
_atom_site_label
_atom_site_fract_x
_atom_site_fract_y
_atom_site_fract_z
Si Si1 0.230355 0.905655 0.607881
Si Si2 0.736309 0.598410 0.789670
Si Si3 0.596093 0.815403 0.396953
Si Si4 0.602750 0.095558 0.103702
O O1 0.212920 0.908177 0.500000
O O2 0.167711 0.832290 0.652745
O O3 0.331398 0.886423 0.626410
O O4 0.209016 0.000000 0.650943
O O5 0.719276 0.500000 0.823569
O O6 0.657759 0.657759 0.825646
O O7 0.739232 0.602767 0.678382
O O8 0.827500 0.635451 0.829604
O O9 0.611037 0.776720 0.500000
O O10 0.500000 0.858722 0.390065
O O11 0.500000 0.093310 0.106524
O O12 0.637660 0.000000 0.135160
O O13 0.634964 0.115073 0.000000
#
# Coordination Sequence:
#
# PCOD8312708 Si02
#       4
#    16  16  16  16
#     4   9  17  28  42  61  86 116 148 184 230 286
#     4  10  20  32  48  71  98 130 165 200 243 295
#     4   9  18  32  48  65  88 122 165 212 257 294
#     4   8  15  30  51  72  94 121 154 194 239 285
#
# _framework density 18.504757000000001
#
# number of rings (size 3 to 8) (size 9 to 14) (size 15 to 20)
#    0.000    3.000    0.000    1.500    0.000    4.000 
#    0.000    6.250    0.000    0.000    0.000    7.000 
#    0.000    0.500    0.000    2.750    0.000    0.250 
#
# Total GULP energy -792836.296148 kJ/mol
# GULP energy per Si atom -12388.067127 kJ/mol
# Density = 1.846264 g / cm^3
# Si number density = 18.504757 Si / 1000 Ang^3
#
#
#
# Elastic Constant Matrix: (Units=GPa)
#
#
# Indices 1 2 3 4 5 6 
#
# 1 113.6732 75.8341 25.1792 0.0000 0.0000 0.0000
# 2 75.8341 113.6732 25.1792 0.0000 0.0000 0.0000
# 3 25.1792 25.1792 62.6504 0.0000 0.0000 0.0000
# 4 0.0000 0.0000 0.0000 13.2790 0.0000 0.0000
# 5 0.0000 0.0000 0.0000 0.0000 13.2790 0.0000
# 6 0.0000 0.0000 0.0000 0.0000 0.0000 18.1949
#
#
#
# Elastic Compliance Matrix: (Units=1/GPa)
#
#
# Indices 1 2 3 4 5 6 
#
# 1 0.016168 -0.010260 -0.002374 0.000000 0.000000 0.000000
# 2 -0.010260 0.016168 -0.002374 0.000000 0.000000 0.000000
# 3 -0.002374 -0.002374 0.017870 0.000000 0.000000 0.000000
# 4 0.000000 0.000000 0.000000 0.075307 0.000000 0.000000
# 5 0.000000 0.000000 0.000000 0.000000 0.075307 0.000000
# 6 0.000000 0.000000 0.000000 0.000000 0.000000 0.054961
#
#
# Mechanical properties :
#
#
# Convention : Reuss Voigt Hill
#
# Bulk Modulus (GPa) = 49.53365 60.26463 54.89914
# Shear Modulus (GPa) = 17.09246 19.87085 18.48166
#
# Velocity S-wave (km/s) = 3.04251 3.28048 3.16373
# Velocity P-wave (km/s) = 6.25849 6.85467 6.56335
#
# Compressibility (1/GPa) = 0.02018829
#
# Stress axis : x y z
#
# Youngs Moduli (GPa) = 61.85157 61.85157 55.95945
#
# Poissons Ratio (x) = 0.63459 0.13287
# Poissons Ratio (y) = 0.63459 0.13287
# Poissons Ratio (z) = 0.14686 0.14686
#
# Static dielectric constant tensor:
#      x y z
#    x 3.418470 0.000000 0.000000 
#    y 0.000000 3.418470 0.000000 
#    z 0.000000 0.000000 3.348130 
# 
# 
# High freq. dielectric constant tensor:
#      x y z
#    x 1.695960 0.000000 0.000000 
#    y 0.000000 1.695960 0.000000 
#    z 0.000000 0.000000 1.694760 
# 
# From -- ./inp_files/3777.got.cif
#   From: 2010.03.12/outbox.cif.g09.slc.cpg/sg123_2_cif.got.tgz:3777.got - 2010.04.06 16:26:55.
