data_PCOD8312506
_publ_section_title
;
Structure prediction by ZEFSAII (Michael W. Deem and Ramdas Pophale) SiO2 
 PCOD8312506
Probable space group: P 4/M M M
;
_chemical_formula_sum "Si O2"
_cell_formula_units_Z 72
_cell_length_a 15.994625
_cell_length_b 15.994625
_cell_length_c 15.586651
_cell_angle_alpha 90.000000
_cell_angle_beta 90.000000
_cell_angle_gamma 90.000000
_cell_volume 3987.502202
_symmetry_space_group_name_H-M "P 4/M M M"
_symmetry_group_IT_number 123
_symmetry_cell_setting 'tetragonal'
loop_
_space_group_symop_operation_xyz
x,y,z
-y,x,z
-x,-y,z
y,-x,z
x,-y,-z
-x,y,-z
y,x,-z
-y,-x,-z
-x,-y,-z
y,-x,-z
x,y,-z
-y,x,-z
-x,y,z
x,-y,z
-y,-x,z
y,x,z
loop_
_atom_site_type_symbol
_atom_site_label
_atom_site_fract_x
_atom_site_fract_y
_atom_site_fract_z
Si Si1 0.500000 0.804453 0.844890
Si Si2 0.347424 0.095385 0.096005
Si Si3 0.359495 0.500000 0.749999
Si Si4 0.771167 0.095830 0.750000
Si Si5 0.347423 0.904615 0.403995
Si Si6 0.500000 0.804453 0.655108
O O1 0.420746 0.837067 0.896992
O O2 0.500000 0.702382 0.833891
O O3 0.500000 0.846320 0.749999
O O4 0.278474 0.121710 0.164751
O O5 0.379036 0.000000 0.113792
O O6 0.309850 0.101589 0.000000
O O7 0.417029 0.417029 0.749999
O O8 0.297618 0.500000 0.666107
O O9 0.858411 0.141590 0.750001
O O10 0.721525 0.121712 0.664751
O O11 0.794319 0.000000 0.749998
O O12 0.309849 0.898411 0.500000
O O13 0.420746 0.837068 0.396994
O O14 0.379033 0.000000 0.386207
#
# Coordination Sequence:
#
# PCOD8312506 Si02
#       6
#     8  16   8  16  16   8
#     4  10  19  30  55  85 107 136 180 214 257 316
#     4  10  20  34  54  82 116 146 170 209 269 329
#     4   9  20  38  55  72 100 140 183 226 270 309
#     4  10  21  37  55  77 107 143 185 228 270 316
#     4  10  20  34  54  82 116 146 170 209 269 329
#     4  10  19  30  55  85 107 136 180 214 257 316
#
# _framework density 18.056417
#
# number of rings (size 3 to 8) (size 9 to 14) (size 15 to 20)
#    0.667    1.444    2.222    1.333    0.000    7.333 
#    0.000    0.000    0.000    4.000    0.000   12.444 
#    0.000    0.000    0.000    0.000    0.000    0.000 
#
# Total GULP energy -892370.595428 kJ/mol
# GULP energy per Si atom -12394.036048 kJ/mol
# Density = 1.801532 g / cm^3
# Si number density = 18.056417 Si / 1000 Ang^3
#
#
#
# Elastic Constant Matrix: (Units=GPa)
#
#
# Indices 1 2 3 4 5 6 
#
# 1 99.3411 68.3309 37.6511 0.0000 0.0000 0.0000
# 2 68.3309 99.3411 37.6511 0.0000 0.0000 0.0000
# 3 37.6511 37.6511 128.8133 0.0000 0.0000 0.0000
# 4 0.0000 0.0000 0.0000 18.4502 0.0000 0.0000
# 5 0.0000 0.0000 0.0000 0.0000 18.4502 0.0000
# 6 0.0000 0.0000 0.0000 0.0000 0.0000 20.0988
#
#
#
# Elastic Compliance Matrix: (Units=1/GPa)
#
#
# Indices 1 2 3 4 5 6 
#
# 1 0.019556 -0.012691 -0.002007 0.000000 0.000000 0.000000
# 2 -0.012691 0.019556 -0.002007 0.000000 0.000000 0.000000
# 3 -0.002007 -0.002007 0.008936 0.000000 0.000000 0.000000
# 4 0.000000 0.000000 0.000000 0.054200 0.000000 0.000000
# 5 0.000000 0.000000 0.000000 0.000000 0.054200 0.000000
# 6 0.000000 0.000000 0.000000 0.000000 0.000000 0.049754
#
#
# Mechanical properties :
#
#
# Convention : Reuss Voigt Hill
#
# Bulk Modulus (GPa) = 68.30569 68.30687 68.30628
# Shear Modulus (GPa) = 20.45057 23.65733 22.05395
#
# Velocity S-wave (km/s) = 3.36905 3.62358 3.49863
# Velocity P-wave (km/s) = 7.28321 7.44439 7.36424
#
# Compressibility (1/GPa) = 0.01464007
#
# Stress axis : x y z
#
# Youngs Moduli (GPa) = 51.13427 51.13427 111.90405
#
# Poissons Ratio (x) = 0.64895 0.22455
# Poissons Ratio (y) = 0.64895 0.22455
# Poissons Ratio (z) = 0.10261 0.10261
#
# Static dielectric constant tensor:
#      x y z
#    x 3.143640 0.000000 0.000000 
#    y 0.000000 3.143640 0.000000 
#    z 0.000000 0.000000 3.485470 
# 
# 
# High freq. dielectric constant tensor:
#      x y z
#    x 1.683070 0.000000 0.000000 
#    y 0.000000 1.683070 0.000000 
#    z 0.000000 0.000000 1.705510 
# 
# From -- ./inp_files/5244.got.cif
#   From: 2010.03.12/outbox.cif.g09.slc.cpg/sg123_3_cif.got.tgz:5244.got - 2010.04.06 16:26:55.
