data_PCOD8312651
_publ_section_title
;
Structure prediction by ZEFSAII (Michael W. Deem and Ramdas Pophale) SiO2 
 PCOD8312651
Probable space group: P 4/M M M
;
_chemical_formula_sum "Si O2"
_cell_formula_units_Z 88
_cell_length_a 16.916293
_cell_length_b 16.916293
_cell_length_c 17.207195
_cell_angle_alpha 90.000000
_cell_angle_beta 90.000000
_cell_angle_gamma 90.000000
_cell_volume 4924.027593
_symmetry_space_group_name_H-M "P 4/M M M"
_symmetry_group_IT_number 123
_symmetry_cell_setting 'tetragonal'
loop_
_space_group_symop_operation_xyz
x,y,z
-y,x,z
-x,-y,z
y,-x,z
x,-y,-z
-x,y,-z
y,x,-z
-y,-x,-z
-x,-y,-z
y,-x,-z
x,y,-z
-y,x,-z
-x,y,z
x,-y,z
-y,-x,z
y,x,z
loop_
_atom_site_type_symbol
_atom_site_label
_atom_site_fract_x
_atom_site_fract_y
_atom_site_fract_z
Si Si1 0.280740 0.410471 0.228018
Si Si2 0.086033 0.206314 0.705642
Si Si3 0.086709 0.788876 0.112043
Si Si4 0.905293 0.594385 0.500000
Si Si5 0.801063 0.672885 0.634186
Si Si6 0.793583 0.661765 0.086053
O O1 0.309624 0.500000 0.231425
O O2 0.357722 0.357722 0.214211
O O3 0.240675 0.390882 0.310616
O O4 0.220115 0.401068 0.155207
O O5 0.127697 0.127697 0.671091
O O6 0.079264 0.198878 0.796905
O O7 0.139078 0.281617 0.689429
O O8 0.000000 0.214455 0.666256
O O9 0.143235 0.856766 0.076087
O O10 0.120279 0.701744 0.092883
O O11 0.000000 0.795709 0.073834
O O12 0.898691 0.500000 0.500000
O O13 0.856199 0.629423 0.571911
O O14 0.000000 0.618220 0.500000
O O15 0.734228 0.734228 0.599361
O O16 0.731017 0.731017 0.098888
O O17 0.784557 0.622549 0.000000
#
# Coordination Sequence:
#
# PCOD8312651 Si02
#       6
#    16  16  16   8  16  16
#     4  10  20  35  56  80 104 130 161 202 253 310
#     4   9  16  27  46  70  98 131 166 205 246 289
#     4   9  16  27  44  68  97 131 171 213 256 297
#     4  11  23  36  52  78 109 135 166 214 264 303
#     4  10  19  35  56  76 101 136 175 207 243 300
#     4   9  17  31  50  71  97 133 175 209 242 296
#
# _framework density 17.871549000000002
#
# number of rings (size 3 to 8) (size 9 to 14) (size 15 to 20)
#    0.000    2.455    1.818    1.364    0.000    1.273 
#    0.000    1.818    0.000    1.636    0.000    6.364 
#    0.000   13.091    0.000    0.000    0.000    0.000 
#
# Total GULP energy -1090240.167744 kJ/mol
# GULP energy per Si atom -12389.092815 kJ/mol
# Density = 1.783087 g / cm^3
# Si number density = 17.871549 Si / 1000 Ang^3
#
#
#
# Elastic Constant Matrix: (Units=GPa)
#
#
# Indices 1 2 3 4 5 6 
#
# 1 105.6429 47.7953 36.8609 0.0000 0.0000 0.0000
# 2 47.7953 105.6429 36.8609 0.0000 0.0000 0.0000
# 3 36.8609 36.8609 77.9671 0.0000 0.0000 0.0000
# 4 0.0000 0.0000 0.0000 -10.7268 0.0000 0.0000
# 5 0.0000 0.0000 0.0000 0.0000 -10.7268 0.0000
# 6 0.0000 0.0000 0.0000 0.0000 0.0000 19.2489
#
#
#
# Elastic Compliance Matrix: (Units=1/GPa)
#
#
# Indices 1 2 3 4 5 6 
#
# 1 0.012860 -0.004427 -0.003987 0.000000 0.000000 0.000000
# 2 -0.004427 0.012860 -0.003987 0.000000 0.000000 0.000000
# 3 -0.003987 -0.003987 0.016596 0.000000 0.000000 0.000000
# 4 0.000000 0.000000 0.000000 -0.093224 0.000000 0.000000
# 5 0.000000 0.000000 0.000000 0.000000 -0.093224 0.000000
# 6 0.000000 0.000000 0.000000 0.000000 0.000000 0.051951
#
#
# Mechanical properties :
#
#
# Convention : Reuss Voigt Hill
#
# Bulk Modulus (GPa) = 57.09721 59.14303 58.12012
# Shear Modulus (GPa) = -81.24468 10.74142 -35.25163
#
# Velocity S-wave (km/s) = -6.74974 2.45426 -4.44610
# Velocity P-wave (km/s) = 5.35979 6.41845 2.49691
#
# Compressibility (1/GPa) = 0.01751399
#
# Stress axis : x y z
#
# Youngs Moduli (GPa) = 77.76160 77.76160 60.25669
#
# Poissons Ratio (x) = 0.34425 0.24023
# Poissons Ratio (y) = 0.34425 0.24023
# Poissons Ratio (z) = 0.31002 0.31002
#
# Static dielectric constant tensor:
#      x y z
#    x 3.348370 0.000000 0.000000 
#    y 0.000000 3.348370 0.000000 
#    z 0.000000 0.000000 3.285980 
# 
# 
# High freq. dielectric constant tensor:
#      x y z
#    x 1.680170 0.000000 0.000000 
#    y 0.000000 1.680170 0.000000 
#    z 0.000000 0.000000 1.688570 
# 
# From -- ./inp_files/4111.got.cif
#   From: 2010.03.12/outbox.cif.g09.slc.cpg/sg123_3_cif.got.tgz:4111.got - 2010.04.06 16:26:55.
