data_PCOD8312219
_publ_section_title
;
Structure prediction by ZEFSAII (Michael W. Deem and Ramdas Pophale) SiO2 
 PCOD8312219
Probable space group: P 4/M M M
;
_chemical_formula_sum "Si O2"
_cell_formula_units_Z 72
_cell_length_a 15.286295
_cell_length_b 15.286295
_cell_length_c 17.532445
_cell_angle_alpha 90.000000
_cell_angle_beta 90.000000
_cell_angle_gamma 90.000000
_cell_volume 4096.820709
_symmetry_space_group_name_H-M "P 4/M M M"
_symmetry_group_IT_number 123
_symmetry_cell_setting 'tetragonal'
loop_
_space_group_symop_operation_xyz
x,y,z
-y,x,z
-x,-y,z
y,-x,z
x,-y,-z
-x,y,-z
y,x,-z
-y,-x,-z
-x,-y,-z
y,-x,-z
x,y,-z
-y,x,-z
-x,y,z
x,-y,z
-y,-x,z
y,x,z
loop_
_atom_site_type_symbol
_atom_site_label
_atom_site_fract_x
_atom_site_fract_y
_atom_site_fract_z
Si Si1 0.097099 0.396214 0.914226
Si Si2 0.591425 0.732907 0.500000
Si Si3 0.601411 0.255142 0.808944
Si Si4 0.903548 0.761804 0.587650
Si Si5 0.404263 0.161036 0.653620
O O1 0.096631 0.500000 0.912074
O O2 0.173112 0.361991 0.858304
O O3 0.000000 0.362826 0.888330
O O4 0.116846 0.363063 0.000000
O O5 0.500000 0.679346 0.500000
O O6 0.672815 0.672815 0.500000
O O7 0.594564 0.789774 0.574708
O O8 0.500000 0.276787 0.828690
O O9 0.659239 0.340762 0.827159
O O10 0.612418 0.229952 0.720830
O O11 0.883681 0.733707 0.500000
O O12 0.832985 0.832985 0.615661
O O13 0.904461 0.677561 0.644432
O O14 0.000000 0.804033 0.593137
O O15 0.500000 0.114461 0.666721
#
# Coordination Sequence:
#
# PCOD8312219 Si02
#       5
#    16   8  16  16  16
#     4   8  15  30  51  72  94 122 158 201 247 290
#     4  10  18  29  45  61  84 120 160 206 253 294
#     4  10  20  32  48  72 102 135 169 204 244 295
#     4  10  20  33  50  70  94 125 158 197 247 304
#     4  10  20  33  49  69  93 126 167 211 255 296
#
# _framework density 17.574604000000001
#
# number of rings (size 3 to 8) (size 9 to 14) (size 15 to 20)
#    0.000    2.444    1.111    2.667    0.000    2.333 
#    0.000    4.444    0.000    4.000    0.000    3.111 
#    0.000    0.444    0.000    2.444    0.000    0.222 
#
# Total GULP energy -891971.353642 kJ/mol
# GULP energy per Si atom -12388.491023 kJ/mol
# Density = 1.753460 g / cm^3
# Si number density = 17.574604 Si / 1000 Ang^3
#
#
#
# Elastic Constant Matrix: (Units=GPa)
#
#
# Indices 1 2 3 4 5 6 
#
# 1 94.7791 54.1541 32.1520 0.0000 0.0000 0.0000
# 2 54.1541 94.7791 32.1520 0.0000 0.0000 0.0000
# 3 32.1520 32.1520 80.5905 0.0000 0.0000 0.0000
# 4 0.0000 0.0000 0.0000 -40.3009 0.0000 0.0000
# 5 0.0000 0.0000 0.0000 0.0000 -40.3009 0.0000
# 6 0.0000 0.0000 0.0000 0.0000 0.0000 -63.5931
#
#
#
# Elastic Compliance Matrix: (Units=1/GPa)
#
#
# Indices 1 2 3 4 5 6 
#
# 1 0.016364 -0.008252 -0.003236 0.000000 0.000000 0.000000
# 2 -0.008252 0.016364 -0.003236 0.000000 0.000000 0.000000
# 3 -0.003236 -0.003236 0.014991 0.000000 0.000000 0.000000
# 4 0.000000 0.000000 0.000000 -0.024813 0.000000 0.000000
# 5 0.000000 0.000000 0.000000 0.000000 -0.024813 0.000000
# 6 0.000000 0.000000 0.000000 0.000000 0.000000 -0.015725
#
#
# Mechanical properties :
#
#
# Convention : Reuss Voigt Hill
#
# Bulk Modulus (GPa) = 54.73696 56.34053 55.53874
# Shear Modulus (GPa) = 279.26181 -18.72629 130.26776
#
# Velocity S-wave (km/s) = 12.61926 -3.26779 8.61880
# Velocity P-wave (km/s) = 15.60579 4.22961 11.43307
#
# Compressibility (1/GPa) = 0.01826919
#
# Stress axis : x y z
#
# Youngs Moduli (GPa) = 61.11145 61.11145 66.70835
#
# Poissons Ratio (x) = 0.50428 0.21588
# Poissons Ratio (y) = 0.50428 0.21588
# Poissons Ratio (z) = 0.19777 0.19777
#
# Static dielectric constant tensor:
#      x y z
#    x 3.372630 0.000000 0.000000 
#    y 0.000000 3.372630 0.000000 
#    z 0.000000 0.000000 3.466320 
# 
# 
# High freq. dielectric constant tensor:
#      x y z
#    x 1.662140 0.000000 0.000000 
#    y 0.000000 1.662140 0.000000 
#    z 0.000000 0.000000 1.672370 
# 
# From -- ./inp_files/5138.got.cif
#   From: 2010.03.12/outbox.cif.g09.slc.cpg/sg123_3_cif.got.tgz:5138.got - 2010.04.06 16:26:55.
