data_PCOD8312270
_publ_section_title
;
Structure prediction by ZEFSAII (Michael W. Deem and Ramdas Pophale) SiO2 
 PCOD8312270
Probable space group: P 4/M M M
;
_chemical_formula_sum "Si O2"
_cell_formula_units_Z 56
_cell_length_a 17.904552
_cell_length_b 17.904552
_cell_length_c 9.280402
_cell_angle_alpha 90.000000
_cell_angle_beta 90.000000
_cell_angle_gamma 90.000000
_cell_volume 2975.046146
_symmetry_space_group_name_H-M "P 4/M M M"
_symmetry_group_IT_number 123
_symmetry_cell_setting 'tetragonal'
loop_
_space_group_symop_operation_xyz
x,y,z
-y,x,z
-x,-y,z
y,-x,z
x,-y,-z
-x,y,-z
y,x,-z
-y,-x,-z
-x,-y,-z
y,-x,-z
x,y,-z
-y,x,-z
-x,y,z
x,-y,z
-y,-x,z
y,x,z
loop_
_atom_site_type_symbol
_atom_site_label
_atom_site_fract_x
_atom_site_fract_y
_atom_site_fract_z
Si Si1 0.500000 0.082123 0.328990
Si Si2 0.646613 0.833145 0.328863
Si Si3 0.796275 0.084493 0.328622
Si Si4 0.584349 0.700893 0.835091
O O1 0.500000 0.078821 0.500000
O O2 0.425714 0.122202 0.273659
O O3 0.500000 0.000000 0.261678
O O4 0.648806 0.823421 0.500000
O O5 0.720514 0.875908 0.273647
O O6 0.640068 0.752453 0.257087
O O7 0.794884 0.081647 0.500000
O O8 0.867696 0.132304 0.274464
O O9 0.801548 0.000000 0.266619
O O10 0.500000 0.701352 0.772615
O O11 0.616957 0.616957 0.823860
O O12 0.584640 0.728522 0.000000
#
# Coordination Sequence:
#
# PCOD8312270 Si02
#       4
#     8  16  16  16
#     4   9  16  26  45  73 102 131 160 194 241 297
#     4  10  18  31  51  76 102 129 165 207 249 295
#     4   9  17  28  44  69 100 133 169 208 248 292
#     4  10  21  36  53  73  99 131 166 205 249 298
#
# _framework density 18.823238
#
# number of rings (size 3 to 8) (size 9 to 14) (size 15 to 20)
#    0.000    2.429    1.429    1.714    0.000    5.714 
#    0.000    2.857    0.000    4.286    0.000    2.000 
#    0.000    0.000    0.000    6.000    0.000    5.714 
#
# Total GULP energy -694232.871092 kJ/mol
# GULP energy per Si atom -12397.015555 kJ/mol
# Density = 1.878040 g / cm^3
# Si number density = 18.823238 Si / 1000 Ang^3
#
#
#
# Elastic Constant Matrix: (Units=GPa)
#
#
# Indices 1 2 3 4 5 6 
#
# 1 143.0360 86.8572 21.4867 0.0000 0.0000 0.0000
# 2 86.8572 143.0360 21.4867 0.0000 0.0000 0.0000
# 3 21.4867 21.4867 20.0865 0.0000 0.0000 0.0000
# 4 0.0000 0.0000 0.0000 13.4021 0.0000 0.0000
# 5 0.0000 0.0000 0.0000 0.0000 13.4021 0.0000
# 6 0.0000 0.0000 0.0000 0.0000 0.0000 33.8646
#
#
#
# Elastic Compliance Matrix: (Units=1/GPa)
#
#
# Indices 1 2 3 4 5 6 
#
# 1 0.011619 -0.006182 -0.005816 0.000000 0.000000 0.000000
# 2 -0.006182 0.011619 -0.005816 0.000000 0.000000 0.000000
# 3 -0.005816 -0.005816 0.062228 0.000000 0.000000 0.000000
# 4 0.000000 0.000000 0.000000 0.074615 0.000000 0.000000
# 5 0.000000 0.000000 0.000000 0.000000 0.074615 0.000000
# 6 0.000000 0.000000 0.000000 0.000000 0.000000 0.029529
#
#
# Mechanical properties :
#
#
# Convention : Reuss Voigt Hill
#
# Bulk Modulus (GPa) = 20.06515 62.86885 41.46700
# Shear Modulus (GPa) = 15.79954 23.88896 19.84425
#
# Velocity S-wave (km/s) = 2.90032 3.56634 3.25043
# Velocity P-wave (km/s) = 4.67961 7.10144 6.01370
#
# Compressibility (1/GPa) = 0.04983764
#
# Stress axis : x y z
#
# Youngs Moduli (GPa) = 86.06845 86.06845 16.07001
#
# Poissons Ratio (x) = 0.53204 0.09346
# Poissons Ratio (y) = 0.53204 0.09346
# Poissons Ratio (z) = 0.50058 0.50058
#
# Static dielectric constant tensor:
#      x y z
#    x 3.644060 0.000000 0.000000 
#    y 0.000000 3.644060 0.000000 
#    z 0.000000 0.000000 2.866860 
# 
# 
# High freq. dielectric constant tensor:
#      x y z
#    x 1.742630 0.000000 0.000000 
#    y 0.000000 1.742630 0.000000 
#    z 0.000000 0.000000 1.668810 
# 
# From -- ./inp_files/573.got.cif
#   From: 2010.03.12/outbox.cif.g09.slc.cpg/sg123_1_cif.got.tgz:573.got - 2010.04.06 16:26:55.
