data_PCOD8312700
_publ_section_title
;
Structure prediction by ZEFSAII (Michael W. Deem and Ramdas Pophale) SiO2 
 PCOD8312700
Probable space group: P 4/M M M
;
_chemical_formula_sum "Si O2"
_cell_formula_units_Z 72
_cell_length_a 13.120751
_cell_length_b 13.120751
_cell_length_c 23.260426
_cell_angle_alpha 90.000000
_cell_angle_beta 90.000000
_cell_angle_gamma 90.000000
_cell_volume 4004.377862
_symmetry_space_group_name_H-M "P 4/M M M"
_symmetry_group_IT_number 123
_symmetry_cell_setting 'tetragonal'
loop_
_space_group_symop_operation_xyz
x,y,z
-y,x,z
-x,-y,z
y,-x,z
x,-y,-z
-x,y,-z
y,x,-z
-y,-x,-z
-x,-y,-z
y,-x,-z
x,y,-z
-y,x,-z
-x,y,z
x,-y,z
-y,-x,z
y,x,z
loop_
_atom_site_type_symbol
_atom_site_label
_atom_site_fract_x
_atom_site_fract_y
_atom_site_fract_z
Si Si1 0.214350 0.381827 0.500000
Si Si2 0.285368 0.118450 0.390997
Si Si3 0.382130 0.785388 0.718393
Si Si4 0.879220 0.613622 0.062914
Si Si5 0.719626 0.880373 0.823044
O O1 0.243681 0.500000 0.500000
O O2 0.319939 0.319939 0.500000
O O3 0.147395 0.356282 0.555568
O O4 0.179173 0.179173 0.393323
O O5 0.347321 0.142902 0.333518
O O6 0.257670 0.000000 0.392881
O O7 0.500000 0.757093 0.712023
O O8 0.320300 0.679701 0.718450
O O9 0.365505 0.848439 0.776974
O O10 0.833968 0.500000 0.070719
O O11 0.840054 0.684827 0.114254
O O12 0.000000 0.607223 0.066582
O O13 0.846099 0.657026 0.000000
O O14 0.826247 0.826247 0.807591
O O15 0.738812 0.000000 0.821316
#
# Coordination Sequence:
#
# PCOD8312700 Si02
#       5
#     8  16  16  16  16
#     4  10  21  36  54  78 106 136 173 214 256 304
#     4  10  21  36  54  78 106 136 172 210 248 294
#     4  10  21  36  54  77 102 128 162 203 248 300
#     4   8  14  26  45  67  89 116 154 200 247 291
#     4  10  20  32  47  69  97 130 168 207 246 291
#
# _framework density 17.980319999999999
#
# number of rings (size 3 to 8) (size 9 to 14) (size 15 to 20)
#    0.000    2.444    0.000    3.000    0.000    5.667 
#    0.000    0.000    0.000   10.000    0.000    3.111 
#    0.000    0.000    0.000   20.667    0.000    1.111 
#
# Total GULP energy -892728.516477 kJ/mol
# GULP energy per Si atom -12399.007173 kJ/mol
# Density = 1.793940 g / cm^3
# Si number density = 17.980320 Si / 1000 Ang^3
#
#
#
# Elastic Constant Matrix: (Units=GPa)
#
#
# Indices 1 2 3 4 5 6 
#
# 1 108.1117 43.4755 42.8110 0.0000 0.0000 0.0000
# 2 43.4755 108.1117 42.8110 0.0000 0.0000 0.0000
# 3 42.8110 42.8110 134.5375 0.0000 0.0000 0.0000
# 4 0.0000 0.0000 0.0000 15.3532 0.0000 0.0000
# 5 0.0000 0.0000 0.0000 0.0000 15.3532 0.0000
# 6 0.0000 0.0000 0.0000 0.0000 0.0000 11.6910
#
#
#
# Elastic Compliance Matrix: (Units=1/GPa)
#
#
# Indices 1 2 3 4 5 6 
#
# 1 0.011757 -0.003714 -0.002559 0.000000 0.000000 0.000000
# 2 -0.003714 0.011757 -0.002559 0.000000 0.000000 0.000000
# 3 -0.002559 -0.002559 0.009062 0.000000 0.000000 0.000000
# 4 0.000000 0.000000 0.000000 0.065133 0.000000 0.000000
# 5 0.000000 0.000000 0.000000 0.000000 0.065133 0.000000
# 6 0.000000 0.000000 0.000000 0.000000 0.000000 0.085536
#
#
# Mechanical properties :
#
#
# Convention : Reuss Voigt Hill
#
# Bulk Modulus (GPa) = 67.07050 67.66178 67.36614
# Shear Modulus (GPa) = 18.44935 23.25703 20.85319
#
# Velocity S-wave (km/s) = 3.20673 3.60039 3.40925
# Velocity P-wave (km/s) = 7.14801 7.41596 7.28321
#
# Compressibility (1/GPa) = 0.01490968
#
# Stress axis : x y z
#
# Youngs Moduli (GPa) = 85.05721 85.05721 110.35624
#
# Poissons Ratio (x) = 0.31594 0.28242
# Poissons Ratio (y) = 0.31594 0.28242
# Poissons Ratio (z) = 0.21767 0.21767
#
# Static dielectric constant tensor:
#      x y z
#    x 3.093770 0.000000 0.000000 
#    y 0.000000 3.093770 0.000000 
#    z 0.000000 0.000000 3.744800 
# 
# 
# High freq. dielectric constant tensor:
#      x y z
#    x 1.680180 0.000000 0.000000 
#    y 0.000000 1.680180 0.000000 
#    z 0.000000 0.000000 1.722200 
# 
# From -- ./inp_files/7855.got.cif
#   From: 2010.03.12/outbox.cif.g09.slc.cpg/sg123_4_cif.got.tgz:7855.got - 2010.04.06 16:26:55.
