data_PCOD8312867
_publ_section_title
;
Structure prediction by ZEFSAII (Michael W. Deem and Ramdas Pophale) SiO2 
 PCOD8312867
Probable space group: P 4/M M M
;
_chemical_formula_sum "Si O2"
_cell_formula_units_Z 64
_cell_length_a 19.866268
_cell_length_b 19.866268
_cell_length_c 9.246227
_cell_angle_alpha 90.000000
_cell_angle_beta 90.000000
_cell_angle_gamma 90.000000
_cell_volume 3649.195505
_symmetry_space_group_name_H-M "P 4/M M M"
_symmetry_group_IT_number 123
_symmetry_cell_setting 'tetragonal'
loop_
_space_group_symop_operation_xyz
x,y,z
-y,x,z
-x,-y,z
y,-x,z
x,-y,-z
-x,y,-z
y,x,-z
-y,-x,-z
-x,-y,-z
y,-x,-z
x,y,-z
-y,x,-z
-x,y,z
x,-y,z
-y,-x,z
y,x,z
loop_
_atom_site_type_symbol
_atom_site_label
_atom_site_fract_x
_atom_site_fract_y
_atom_site_fract_z
Si Si1 0.421707 0.818477 0.831756
Si Si2 0.576860 0.314535 0.331664
Si Si3 0.332369 0.921308 0.665787
Si Si4 0.180741 0.074625 0.671955
O O1 0.500000 0.830636 0.800515
O O2 0.397080 0.750032 0.755907
O O3 0.382738 0.881836 0.768257
O O4 0.405753 0.812185 0.000000
O O5 0.584394 0.297418 0.500000
O O6 0.500000 0.332336 0.291250
O O7 0.621509 0.378492 0.286892
O O8 0.343285 0.898874 0.500000
O O9 0.256297 0.904892 0.716700
O O10 0.347470 0.000000 0.683238
O O11 0.176017 0.073610 0.500000
O O12 0.128193 0.128193 0.738835
O O13 0.163183 0.000000 0.731527
#
# Coordination Sequence:
#
# PCOD8312867 Si02
#       4
#    16  16  16  16
#     4  10  21  35  50  70  97 127 160 201 245 289
#     4   9  18  33  53  76 101 129 161 197 238 286
#     4   9  18  32  49  70  97 128 162 201 244 290
#     4   8  14  25  42  66  95 124 154 189 229 274
#
# _framework density 17.538111000000001
#
# number of rings (size 3 to 8) (size 9 to 14) (size 15 to 20)
#    0.000    3.000    0.000    2.250    0.000    4.500 
#    0.000    7.500    0.000    0.000    0.000    3.500 
#    0.000    0.000    0.000    5.500    0.000    5.500 
#
# Total GULP energy -793555.732443 kJ/mol
# GULP energy per Si atom -12399.308319 kJ/mol
# Density = 1.749819 g / cm^3
# Si number density = 17.538111 Si / 1000 Ang^3
#
#
#
# Elastic Constant Matrix: (Units=GPa)
#
#
# Indices 1 2 3 4 5 6 
#
# 1 98.0528 72.3787 46.1572 0.0000 0.0000 0.0000
# 2 72.3787 98.0528 46.1572 0.0000 0.0000 0.0000
# 3 46.1572 46.1572 54.9591 0.0000 0.0000 0.0000
# 4 0.0000 0.0000 0.0000 14.0322 0.0000 0.0000
# 5 0.0000 0.0000 0.0000 0.0000 14.0322 0.0000
# 6 0.0000 0.0000 0.0000 0.0000 0.0000 36.3919
#
#
#
# Elastic Compliance Matrix: (Units=1/GPa)
#
#
# Indices 1 2 3 4 5 6 
#
# 1 0.024857 -0.014093 -0.009040 0.000000 0.000000 0.000000
# 2 -0.014093 0.024857 -0.009040 0.000000 0.000000 0.000000
# 3 -0.009040 -0.009040 0.033380 0.000000 0.000000 0.000000
# 4 0.000000 0.000000 0.000000 0.071265 0.000000 0.000000
# 5 0.000000 0.000000 0.000000 0.000000 0.071265 0.000000
# 6 0.000000 0.000000 0.000000 0.000000 0.000000 0.027479
#
#
# Mechanical properties :
#
#
# Convention : Reuss Voigt Hill
#
# Bulk Modulus (GPa) = 53.34040 64.49457 58.91748
# Shear Modulus (GPa) = 15.44651 18.64935 17.04793
#
# Velocity S-wave (km/s) = 2.97095 3.26446 3.12116
# Velocity P-wave (km/s) = 6.49990 7.14582 6.83050
#
# Compressibility (1/GPa) = 0.01874752
#
# Stress axis : x y z
#
# Youngs Moduli (GPa) = 40.23019 40.23019 29.95800
#
# Poissons Ratio (x) = 0.56696 0.27083
# Poissons Ratio (y) = 0.56696 0.27083
# Poissons Ratio (z) = 0.36369 0.36369
#
# Static dielectric constant tensor:
#      x y z
#    x 3.373570 0.000000 0.000000 
#    y 0.000000 3.373570 0.000000 
#    z 0.000000 0.000000 2.995340 
# 
# 
# High freq. dielectric constant tensor:
#      x y z
#    x 1.681020 0.000000 0.000000 
#    y 0.000000 1.681020 0.000000 
#    z 0.000000 0.000000 1.647630 
# 
# From -- ./inp_files/869.got.cif
#   From: 2010.03.12/outbox.cif.g09.slc.cpg/sg123_1_cif.got.tgz:869.got - 2010.04.06 16:26:55.
