data_PCOD8312083
_publ_section_title
;
Structure prediction by ZEFSAII (Michael W. Deem and Ramdas Pophale) SiO2 
 PCOD8312083
Probable space group: I -4 2 D
;
_chemical_formula_sum "Si O2"
_cell_formula_units_Z 32
_cell_length_a 9.825591
_cell_length_b 9.825591
_cell_length_c 13.010694
_cell_angle_alpha 90.000000
_cell_angle_beta 90.000000
_cell_angle_gamma 90.000000
_cell_volume 1256.081523
_symmetry_space_group_name_H-M "I -4 2 D"
_symmetry_group_IT_number 122
_symmetry_cell_setting 'tetragonal'
loop_
_space_group_symop_operation_xyz
x,y,z
y,-x,-z
-x,-y,z
-y,x,-z
x,1/2-y,1/4-z
-x,1/2+y,1/4-z
-y,1/2-x,1/4+z
y,1/2+x,1/4+z
1/2+x,1/2+y,1/2+z
1/2+y,1/2-x,1/2-z
1/2-x,1/2-y,1/2+z
1/2-y,1/2+x,1/2-z
1/2+x,-y,3/4-z
1/2-x,y,3/4-z
1/2-y,-x,3/4+z
1/2+y,x,3/4+z
loop_
_atom_site_type_symbol
_atom_site_label
_atom_site_fract_x
_atom_site_fract_y
_atom_site_fract_z
Si Si1 0.264493 0.181397 0.489391
Si Si2 0.546788 0.154902 0.434559
O O1 0.250000 0.117582 0.375000
O O2 0.423617 0.226088 0.498355
O O3 0.170637 0.314567 0.501576
O O4 0.222834 0.066869 0.572000
O O5 0.500000 0.000000 0.420849
#
# Coordination Sequence:
#
# PCOD8312083 Si02
#       2
#    16  16
#     4  11  27  48  82 117 163 217 266 354 398 511
#     4  11  27  50  79 124 161 216 279 335 425 484
#
# _framework density 25.476054000000001
#
# number of rings (size 3 to 8) (size 9 to 14) (size 15 to 20)
#    0.000    1.000    0.000    3.000   21.000    1.000 
#    0.000    0.000    0.000    0.000    0.000    0.000 
#    0.000    0.000    0.000    0.000    0.000    0.000 
#
# Total GULP energy -198272.366548 kJ/mol
# GULP energy per Si atom -12392.022909 kJ/mol
# Density = 2.541807 g / cm^3
# Si number density = 25.476054 Si / 1000 Ang^3
#
#
#
# Elastic Constant Matrix: (Units=GPa)
#
#
# Indices 1 2 3 4 5 6 
#
# 1 173.0050 65.5264 54.6417 0.0000 0.0000 0.0000
# 2 65.5264 173.0050 54.6417 0.0000 0.0000 0.0000
# 3 54.6417 54.6417 149.7040 0.0000 0.0000 0.0000
# 4 0.0000 0.0000 0.0000 51.7449 0.0000 0.0000
# 5 0.0000 0.0000 0.0000 0.0000 51.7449 0.0000
# 6 0.0000 0.0000 0.0000 0.0000 0.0000 54.2859
#
#
#
# Elastic Compliance Matrix: (Units=1/GPa)
#
#
# Indices 1 2 3 4 5 6 
#
# 1 0.007169 -0.002135 -0.001837 0.000000 0.000000 0.000000
# 2 -0.002135 0.007169 -0.001837 0.000000 0.000000 0.000000
# 3 -0.001837 -0.001837 0.008021 0.000000 0.000000 0.000000
# 4 0.000000 0.000000 0.000000 0.019326 0.000000 0.000000
# 5 0.000000 0.000000 0.000000 0.000000 0.019326 0.000000
# 6 0.000000 0.000000 0.000000 0.000000 0.000000 0.018421
#
#
# Mechanical properties :
#
#
# Convention : Reuss Voigt Hill
#
# Bulk Modulus (GPa) = 93.11279 93.92595 93.51937
# Shear Modulus (GPa) = 52.83659 52.94876 52.89267
#
# Velocity S-wave (km/s) = 4.55903 4.56386 4.56145
# Velocity P-wave (km/s) = 8.02131 8.04488 8.03311
#
# Compressibility (1/GPa) = 0.01073966
#
# Stress axis : x y z
#
# Youngs Moduli (GPa) = 139.48618 139.48618 124.66986
#
# Poissons Ratio (x) = 0.29781 0.22908
# Poissons Ratio (y) = 0.29781 0.22908
# Poissons Ratio (z) = 0.25630 0.25630
#
# Static dielectric constant tensor:
#      x y z
#    x 5.232210 0.000000 0.000000 
#    y 0.000000 5.232210 0.000000 
#    z 0.000000 0.000000 4.560180 
# 
# 
# High freq. dielectric constant tensor:
#      x y z
#    x 2.029510 0.000000 0.000000 
#    y 0.000000 2.029510 0.000000 
#    z 0.000000 0.000000 2.015360 
# 
# From -- ./inp_files/4815.got.cif
#   From: 2010.03.12/outbox.cif.g09.slc.cpg/sg122_3_cif.got.tgz:4815.got - 2010.04.06 16:17:16.
