data_PCOD8312348
_publ_section_title
;
Structure prediction by ZEFSAII (Michael W. Deem and Ramdas Pophale) SiO2 
 PCOD8312348
Probable space group: P 4/M M M
;
_chemical_formula_sum "Si O2"
_cell_formula_units_Z 128
_cell_length_a 19.506159
_cell_length_b 19.506159
_cell_length_c 20.390005
_cell_angle_alpha 90.000000
_cell_angle_beta 90.000000
_cell_angle_gamma 90.000000
_cell_volume 7758.197874
_symmetry_space_group_name_H-M "P 4/M M M"
_symmetry_group_IT_number 123
_symmetry_cell_setting 'tetragonal'
loop_
_space_group_symop_operation_xyz
x,y,z
-y,x,z
-x,-y,z
y,-x,z
x,-y,-z
-x,y,-z
y,x,-z
-y,-x,-z
-x,-y,-z
y,-x,-z
x,y,-z
-y,x,-z
-x,y,z
x,-y,z
-y,-x,z
y,x,z
loop_
_atom_site_type_symbol
_atom_site_label
_atom_site_fract_x
_atom_site_fract_y
_atom_site_fract_z
Si Si1 0.188627 0.077643 0.927308
Si Si2 0.865318 0.249644 0.194881
Si Si3 0.165890 0.723124 0.575399
Si Si4 0.079426 0.806717 0.324695
Si Si5 0.421178 0.690485 0.925831
Si Si6 0.687536 0.576076 0.305973
Si Si7 0.241834 0.356884 0.192195
Si Si8 0.423326 0.219021 0.425176
O O1 0.121238 0.121238 0.912054
O O2 0.246371 0.093116 0.873293
O O3 0.164279 0.000000 0.922018
O O4 0.218385 0.094088 0.000000
O O5 0.803668 0.196333 0.194854
O O6 0.914464 0.233519 0.255963
O O7 0.834612 0.326249 0.198744
O O8 0.145770 0.735132 0.500000
O O9 0.238726 0.761275 0.591409
O O10 0.106043 0.755975 0.618702
O O11 0.169545 0.641340 0.591001
O O12 0.122602 0.877399 0.324498
O O13 0.000000 0.824842 0.337445
O O14 0.500000 0.671576 0.913715
O O15 0.378694 0.621307 0.912049
O O16 0.398042 0.750408 0.876114
O O17 0.408801 0.717231 0.000000
O O18 0.662037 0.500000 0.291740
O O19 0.622474 0.622474 0.294000
O O20 0.747706 0.594026 0.254593
O O21 0.714693 0.583688 0.379746
O O22 0.296014 0.296014 0.194311
O O23 0.416229 0.244361 0.500000
O O24 0.500000 0.185028 0.414335
#
# Coordination Sequence:
#
# PCOD8312348 Si02
#       8
#    16  16  16  16  16  16  16  16
#     4   9  17  28  42  62  89 119 147 172 199 238
#     4   9  17  29  45  64  86 113 145 181 222 265
#     4   9  17  30  49  71  95 125 160 196 234 278
#     4  10  20  33  50  72  97 125 156 189 228 277
#     4   9  17  28  42  62  89 120 153 189 230 278
#     4  10  19  29  42  61  87 119 152 185 222 265
#     4   9  17  29  44  61  82 110 146 187 228 267
#     4   9  17  29  47  71  95 119 152 195 237 274
#
# _framework density 16.498678000000002
#
# number of rings (size 3 to 8) (size 9 to 14) (size 15 to 20)
#    0.000    2.750    0.000    1.875    0.000    4.000 
#    0.000    3.750    0.000    4.875    0.000    5.250 
#    0.000    6.000    0.000   11.000    0.000    1.000 
#
# Total GULP energy -1586496.129588 kJ/mol
# GULP energy per Si atom -12394.501012 kJ/mol
# Density = 1.646113 g / cm^3
# Si number density = 16.498678 Si / 1000 Ang^3
#
#
#
# Elastic Constant Matrix: (Units=GPa)
#
#
# Indices 1 2 3 4 5 6 
#
# 1 84.8320 52.4080 48.6719 0.0000 0.0000 0.0000
# 2 52.4080 84.8320 48.6719 0.0000 0.0000 0.0000
# 3 48.6719 48.6719 105.8146 0.0000 0.0000 0.0000
# 4 0.0000 0.0000 0.0000 23.6039 0.0000 0.0000
# 5 0.0000 0.0000 0.0000 0.0000 23.6039 0.0000
# 6 0.0000 0.0000 0.0000 0.0000 0.0000 15.6681
#
#
#
# Elastic Compliance Matrix: (Units=1/GPa)
#
#
# Indices 1 2 3 4 5 6 
#
# 1 0.020828 -0.010013 -0.004975 0.000000 0.000000 0.000000
# 2 -0.010013 0.020828 -0.004975 0.000000 0.000000 0.000000
# 3 -0.004975 -0.004975 0.014027 0.000000 0.000000 0.000000
# 4 0.000000 0.000000 0.000000 0.042366 0.000000 0.000000
# 5 0.000000 0.000000 0.000000 0.000000 0.042366 0.000000
# 6 0.000000 0.000000 0.000000 0.000000 0.000000 0.063824
#
#
# Mechanical properties :
#
#
# Convention : Reuss Voigt Hill
#
# Bulk Modulus (GPa) = 63.45818 63.88689 63.67253
# Shear Modulus (GPa) = 20.04681 20.95698 20.50190
#
# Velocity S-wave (km/s) = 3.48955 3.56788 3.52893
# Velocity P-wave (km/s) = 7.40149 7.46857 7.43510
#
# Compressibility (1/GPa) = 0.01575841
#
# Stress axis : x y z
#
# Youngs Moduli (GPa) = 48.01197 48.01197 71.29191
#
# Poissons Ratio (x) = 0.48075 0.35465
# Poissons Ratio (y) = 0.48075 0.35465
# Poissons Ratio (z) = 0.23884 0.23884
#
# Static dielectric constant tensor:
#      x y z
#    x 2.978000 0.000000 0.000000 
#    y 0.000000 2.978000 0.000000 
#    z 0.000000 0.000000 3.402710 
# 
# 
# High freq. dielectric constant tensor:
#      x y z
#    x 1.608260 0.000000 0.000000 
#    y 0.000000 1.608260 0.000000 
#    z 0.000000 0.000000 1.657330 
# 
# From -- ./inp_files/5999.got.cif
#   From: 2010.03.12/outbox.cif.g09.slc.cpg/sg123_3_cif.got.tgz:5999.got - 2010.04.06 16:26:55.
