data_PCOD8312671
_publ_section_title
;
Structure prediction by ZEFSAII (Michael W. Deem and Ramdas Pophale) SiO2 
 PCOD8312671
Probable space group: P 4/M M M
;
_chemical_formula_sum "Si O2"
_cell_formula_units_Z 56
_cell_length_a 13.685936
_cell_length_b 13.685936
_cell_length_c 18.030611
_cell_angle_alpha 90.000000
_cell_angle_beta 90.000000
_cell_angle_gamma 90.000000
_cell_volume 3377.220784
_symmetry_space_group_name_H-M "P 4/M M M"
_symmetry_group_IT_number 123
_symmetry_cell_setting 'tetragonal'
loop_
_space_group_symop_operation_xyz
x,y,z
-y,x,z
-x,-y,z
y,-x,z
x,-y,-z
-x,y,-z
y,x,-z
-y,-x,-z
-x,-y,-z
y,-x,-z
x,y,-z
-y,x,-z
-x,y,z
x,-y,z
-y,-x,z
y,x,z
loop_
_atom_site_type_symbol
_atom_site_label
_atom_site_fract_x
_atom_site_fract_y
_atom_site_fract_z
Si Si1 0.770306 0.612042 0.414595
Si Si2 0.883234 0.609280 0.158803
Si Si3 0.107011 0.383962 0.000000
Si Si4 0.271645 0.114614 0.300330
O O1 0.801310 0.623408 0.500000
O O2 0.750339 0.500000 0.393599
O O3 0.671151 0.671151 0.396998
O O4 0.859561 0.653758 0.366341
O O5 0.844719 0.500000 0.176962
O O6 0.848436 0.681968 0.222985
O O7 0.000000 0.607138 0.154268
O O8 0.840681 0.645784 0.078102
O O9 0.095929 0.500000 0.000000
O O10 0.000000 0.334765 0.000000
O O11 0.168793 0.168793 0.311900
O O12 0.251061 0.000000 0.301070
#
# Coordination Sequence:
#
# PCOD8312671 Si02
#       4
#    16  16   8  16
#     4   9  18  32  50  73  98 120 142 171 212 266
#     4   8  13  23  41  63  84 106 135 175 224 273
#     4   7  10  18  35  60  85 105 129 167 217 271
#     4  10  20  32  45  62  86 118 157 198 235 268
#
# _framework density 16.581681
#
# number of rings (size 3 to 8) (size 9 to 14) (size 15 to 20)
#    0.000    3.286    0.000    2.571    0.000    2.857 
#    0.000    3.571    0.000    0.000    0.000    4.000 
#    0.000    5.714    0.000    0.000    0.000   85.714 
#
# Total GULP energy -693831.778671 kJ/mol
# GULP energy per Si atom -12389.853191 kJ/mol
# Density = 1.654394 g / cm^3
# Si number density = 16.581681 Si / 1000 Ang^3
#
#
#
# Elastic Constant Matrix: (Units=GPa)
#
#
# Indices 1 2 3 4 5 6 
#
# 1 68.8125 28.7927 44.1296 0.0000 0.0000 0.0000
# 2 28.7927 68.8125 44.1296 0.0000 0.0000 0.0000
# 3 44.1296 44.1296 113.4654 0.0000 0.0000 0.0000
# 4 0.0000 0.0000 0.0000 18.4811 0.0000 0.0000
# 5 0.0000 0.0000 0.0000 0.0000 18.4811 0.0000
# 6 0.0000 0.0000 0.0000 0.0000 0.0000 9.0633
#
#
#
# Elastic Compliance Matrix: (Units=1/GPa)
#
#
# Indices 1 2 3 4 5 6 
#
# 1 0.020395 -0.004592 -0.006146 0.000000 0.000000 0.000000
# 2 -0.004592 0.020395 -0.006146 0.000000 0.000000 0.000000
# 3 -0.006146 -0.006146 0.013594 0.000000 0.000000 0.000000
# 4 0.000000 0.000000 0.000000 0.054109 0.000000 0.000000
# 5 0.000000 0.000000 0.000000 0.000000 0.054109 0.000000
# 6 0.000000 0.000000 0.000000 0.000000 0.000000 0.110335
#
#
# Mechanical properties :
#
#
# Convention : Reuss Voigt Hill
#
# Bulk Modulus (GPa) = 48.50757 53.91047 51.20902
# Shear Modulus (GPa) = 15.94492 18.14101 17.04297
#
# Velocity S-wave (km/s) = 3.10433 3.31121 3.20944
# Velocity P-wave (km/s) = 6.49356 6.87034 6.68460
#
# Compressibility (1/GPa) = 0.02061534
#
# Stress axis : x y z
#
# Youngs Moduli (GPa) = 49.03085 49.03085 73.56139
#
# Poissons Ratio (x) = 0.22516 0.45212
# Poissons Ratio (y) = 0.22516 0.45212
# Poissons Ratio (z) = 0.30135 0.30135
#
# Static dielectric constant tensor:
#      x y z
#    x 2.792980 0.000000 0.000000 
#    y 0.000000 2.792980 0.000000 
#    z 0.000000 0.000000 3.639250 
# 
# 
# High freq. dielectric constant tensor:
#      x y z
#    x 1.604740 0.000000 0.000000 
#    y 0.000000 1.604740 0.000000 
#    z 0.000000 0.000000 1.663350 
# 
# From -- ./inp_files/4861.got.cif
#   From: 2010.03.12/outbox.cif.g09.slc.cpg/sg123_3_cif.got.tgz:4861.got - 2010.04.06 16:26:55.
