data_PCOD8312942
_publ_section_title
;
Structure prediction by ZEFSAII (Michael W. Deem and Ramdas Pophale) SiO2 
 PCOD8312942
Probable space group: P 4/M M M
;
_chemical_formula_sum "Si O2"
_cell_formula_units_Z 56
_cell_length_a 19.623490
_cell_length_b 19.623490
_cell_length_c 7.535941
_cell_angle_alpha 90.000000
_cell_angle_beta 90.000000
_cell_angle_gamma 90.000000
_cell_volume 2901.950408
_symmetry_space_group_name_H-M "P 4/M M M"
_symmetry_group_IT_number 123
_symmetry_cell_setting 'tetragonal'
loop_
_space_group_symop_operation_xyz
x,y,z
-y,x,z
-x,-y,z
y,-x,z
x,-y,-z
-x,y,-z
y,x,-z
-y,-x,-z
-x,-y,-z
y,-x,-z
x,y,-z
-y,x,-z
-x,y,z
x,-y,z
-y,-x,z
y,x,z
loop_
_atom_site_type_symbol
_atom_site_label
_atom_site_fract_x
_atom_site_fract_y
_atom_site_fract_z
Si Si1 0.807980 0.920583 0.000000
Si Si2 0.575217 0.834052 0.295976
Si Si3 0.699828 0.079103 0.295550
Si Si4 0.682818 0.424199 0.789798
O O1 0.764924 0.902172 0.176067
O O2 0.876751 0.876751 0.000000
O O3 0.828828 0.000000 0.000000
O O4 0.568086 0.853180 0.500000
O O5 0.500000 0.844308 0.205402
O O6 0.633631 0.882313 0.214984
O O7 0.600218 0.756734 0.273150
O O8 0.715408 0.100060 0.500000
O O9 0.682576 0.000000 0.279575
O O10 0.667520 0.500000 0.716681
O O11 0.626951 0.373050 0.708231
O O12 0.679830 0.423321 0.000000
#
# Coordination Sequence:
#
# PCOD8312942 Si02
#       4
#     8  16  16  16
#     4  10  22  39  59  83 109 139 176 218 266 320
#     4   9  18  32  50  73 102 136 172 212 258 308
#     4   9  19  36  56  80 111 143 176 215 258 308
#     4   9  18  31  46  65  91 125 166 213 260 305
#
# _framework density 19.297366
#
# number of rings (size 3 to 8) (size 9 to 14) (size 15 to 20)
#    0.000    2.857    0.000    0.000    2.000    3.286 
#    0.000    7.143    0.000    2.571    0.000    8.000 
#    0.000    0.000    0.000    0.000    0.000    0.000 
#
# Total GULP energy -694148.516659 kJ/mol
# GULP energy per Si atom -12395.509226 kJ/mol
# Density = 1.925344 g / cm^3
# Si number density = 19.297366 Si / 1000 Ang^3
#
#
#
# Elastic Constant Matrix: (Units=GPa)
#
#
# Indices 1 2 3 4 5 6 
#
# 1 137.4305 76.2739 31.6921 0.0000 0.0000 0.0000
# 2 76.2739 137.4305 31.6921 0.0000 0.0000 0.0000
# 3 31.6921 31.6921 57.7751 0.0000 0.0000 0.0000
# 4 0.0000 0.0000 0.0000 19.4495 0.0000 0.0000
# 5 0.0000 0.0000 0.0000 0.0000 19.4495 0.0000
# 6 0.0000 0.0000 0.0000 0.0000 0.0000 40.6985
#
#
#
# Elastic Compliance Matrix: (Units=1/GPa)
#
#
# Indices 1 2 3 4 5 6 
#
# 1 0.010970 -0.005381 -0.003066 0.000000 0.000000 0.000000
# 2 -0.005381 0.010970 -0.003066 0.000000 0.000000 0.000000
# 3 -0.003066 -0.003066 0.020672 0.000000 0.000000 0.000000
# 4 0.000000 0.000000 0.000000 0.051415 0.000000 0.000000
# 5 0.000000 0.000000 0.000000 0.000000 0.051415 0.000000
# 6 0.000000 0.000000 0.000000 0.000000 0.000000 0.024571
#
#
# Mechanical properties :
#
#
# Convention : Reuss Voigt Hill
#
# Bulk Modulus (GPa) = 51.05540 67.99468 59.52504
# Shear Modulus (GPa) = 25.05421 28.78469 26.91945
#
# Velocity S-wave (km/s) = 3.60713 3.86636 3.73900
# Velocity P-wave (km/s) = 6.62293 7.43259 7.03941
#
# Compressibility (1/GPa) = 0.01958657
#
# Stress axis : x y z
#
# Youngs Moduli (GPa) = 91.15738 91.15738 48.37534
#
# Poissons Ratio (x) = 0.49056 0.14830
# Poissons Ratio (y) = 0.49056 0.14830
# Poissons Ratio (z) = 0.27945 0.27945
#
# Static dielectric constant tensor:
#      x y z
#    x 3.572940 0.000000 0.000000 
#    y 0.000000 3.572940 0.000000 
#    z 0.000000 0.000000 3.543970 
# 
# 
# High freq. dielectric constant tensor:
#      x y z
#    x 1.743750 0.000000 0.000000 
#    y 0.000000 1.743750 0.000000 
#    z 0.000000 0.000000 1.747070 
# 
# From -- ./inp_files/580.got.cif
#   From: 2010.03.12/outbox.cif.g09.slc.cpg/sg123_1_cif.got.tgz:580.got - 2010.04.06 16:26:55.
