data_PCOD8312398
_publ_section_title
;
Structure prediction by ZEFSAII (Michael W. Deem and Ramdas Pophale) SiO2 
 PCOD8312398
Probable space group: P 4/M M M
;
_chemical_formula_sum "Si O2"
_cell_formula_units_Z 112
_cell_length_a 14.203054
_cell_length_b 14.203054
_cell_length_c 34.926554
_cell_angle_alpha 90.000000
_cell_angle_beta 90.000000
_cell_angle_gamma 90.000000
_cell_volume 7045.619980
_symmetry_space_group_name_H-M "P 4/M M M"
_symmetry_group_IT_number 123
_symmetry_cell_setting 'tetragonal'
loop_
_space_group_symop_operation_xyz
x,y,z
-y,x,z
-x,-y,z
y,-x,z
x,-y,-z
-x,y,-z
y,x,-z
-y,-x,-z
-x,-y,-z
y,-x,-z
x,y,-z
-y,x,-z
-x,y,z
x,-y,z
-y,-x,z
y,x,z
loop_
_atom_site_type_symbol
_atom_site_label
_atom_site_fract_x
_atom_site_fract_y
_atom_site_fract_z
Si Si1 0.240321 0.392063 0.457036
Si Si2 0.392473 0.890939 0.246399
Si Si3 0.735298 0.888958 0.682678
Si Si4 0.607640 0.109122 0.611536
Si Si5 0.606880 0.757934 0.821460
Si Si6 0.609369 0.237420 0.908831
Si Si7 0.107860 0.739977 0.044793
O O1 0.201568 0.373612 0.500000
O O2 0.268492 0.500000 0.451248
O O3 0.334422 0.334422 0.448837
O O4 0.160593 0.360764 0.427244
O O5 0.500000 0.867778 0.258180
O O6 0.324813 0.857988 0.280475
O O7 0.362429 0.840430 0.207201
O O8 0.379440 0.000000 0.238012
O O9 0.833936 0.833936 0.682508
O O10 0.674636 0.858684 0.645920
O O11 0.757297 0.000000 0.682801
O O12 0.500000 0.132789 0.622944
O O13 0.619950 0.000000 0.602902
O O14 0.500000 0.727625 0.814720
O O15 0.665931 0.665931 0.811942
O O16 0.622630 0.793312 0.864747
O O17 0.500000 0.253970 0.919229
O O18 0.665612 0.334389 0.917423
O O19 0.650145 0.152142 0.933919
O O20 0.165213 0.834787 0.055463
O O21 0.000000 0.754294 0.057881
O O22 0.114311 0.718576 0.000000
#
# Coordination Sequence:
#
# PCOD8312398 Si02
#       7
#    16  16  16  16  16  16  16
#     4   9  17  28  42  61  85 112 140 169 201 240
#     4   9  17  29  45  65  87 110 139 175 213 252
#     4  10  19  30  45  63  84 111 140 171 208 249
#     4   9  17  29  45  64  84 106 135 172 212 250
#     4   9  17  29  45  65  89 116 145 177 213 253
#     4   9  18  31  46  66  92 121 153 187 221 259
#     4   9  18  32  49  69  92 117 146 182 224 269
#
# _framework density 15.896400999999999
#
# number of rings (size 3 to 8) (size 9 to 14) (size 15 to 20)
#    0.000    2.857    0.000    1.286    0.000    3.857 
#    0.000    6.429    0.000    0.000    0.000    2.000 
#    0.000   13.714    0.000   13.286    0.000    0.286 
#
# Total GULP energy -1388709.157376 kJ/mol
# GULP energy per Si atom -12399.188905 kJ/mol
# Density = 1.586022 g / cm^3
# Si number density = 15.896401 Si / 1000 Ang^3
#
#
#
# Elastic Constant Matrix: (Units=GPa)
#
#
# Indices 1 2 3 4 5 6 
#
# 1 87.9114 53.9191 55.4759 0.0000 0.0000 0.0000
# 2 53.9191 87.9114 55.4759 0.0000 0.0000 0.0000
# 3 55.4759 55.4759 85.2562 0.0000 0.0000 0.0000
# 4 0.0000 0.0000 0.0000 26.2478 0.0000 0.0000
# 5 0.0000 0.0000 0.0000 0.0000 26.2478 0.0000
# 6 0.0000 0.0000 0.0000 0.0000 0.0000 24.9764
#
#
#
# Elastic Compliance Matrix: (Units=1/GPa)
#
#
# Indices 1 2 3 4 5 6 
#
# 1 0.021890 -0.007529 -0.009344 0.000000 0.000000 0.000000
# 2 -0.007529 0.021890 -0.009344 0.000000 0.000000 0.000000
# 3 -0.009344 -0.009344 0.023890 0.000000 0.000000 0.000000
# 4 0.000000 0.000000 0.000000 0.038098 0.000000 0.000000
# 5 0.000000 0.000000 0.000000 0.000000 0.038098 0.000000
# 6 0.000000 0.000000 0.000000 0.000000 0.000000 0.040038
#
#
# Mechanical properties :
#
#
# Convention : Reuss Voigt Hill
#
# Bulk Modulus (GPa) = 65.64376 65.64673 65.64525
# Shear Modulus (GPa) = 20.71102 21.90827 21.30965
#
# Velocity S-wave (km/s) = 3.61345 3.71643 3.66530
# Velocity P-wave (km/s) = 7.66771 7.73318 7.70051
#
# Compressibility (1/GPa) = 0.01523374
#
# Stress axis : x y z
#
# Youngs Moduli (GPa) = 45.68387 45.68387 41.85829
#
# Poissons Ratio (x) = 0.34395 0.39114
# Poissons Ratio (y) = 0.34395 0.39114
# Poissons Ratio (z) = 0.42689 0.42689
#
# Static dielectric constant tensor:
#      x y z
#    x 2.969450 0.000000 0.000000 
#    y 0.000000 2.969450 0.000000 
#    z 0.000000 0.000000 3.166150 
# 
# 
# High freq. dielectric constant tensor:
#      x y z
#    x 1.603930 0.000000 0.000000 
#    y 0.000000 1.603930 0.000000 
#    z 0.000000 0.000000 1.617700 
# 
# From -- ./inp_files/8164.got.cif
#   From: 2010.03.12/outbox.cif.g09.slc.cpg/sg123_5_cif.got.tgz:8164.got - 2010.04.06 16:26:55.
