data_PCOD8312124
_publ_section_title
;
Structure prediction by ZEFSAII (Michael W. Deem and Ramdas Pophale) SiO2 
 PCOD8312124
Probable space group: P 4/M M M
;
_chemical_formula_sum "Si O2"
_cell_formula_units_Z 92
_cell_length_a 22.606115
_cell_length_b 22.606115
_cell_length_c 9.303613
_cell_angle_alpha 90.000000
_cell_angle_beta 90.000000
_cell_angle_gamma 90.000000
_cell_volume 4754.485224
_symmetry_space_group_name_H-M "P 4/M M M"
_symmetry_group_IT_number 123
_symmetry_cell_setting 'tetragonal'
loop_
_space_group_symop_operation_xyz
x,y,z
-y,x,z
-x,-y,z
y,-x,z
x,-y,-z
-x,y,-z
y,x,-z
-y,-x,-z
-x,-y,-z
y,-x,-z
x,y,-z
-y,x,-z
-x,y,z
x,-y,z
-y,-x,z
y,x,z
loop_
_atom_site_type_symbol
_atom_site_label
_atom_site_fract_x
_atom_site_fract_y
_atom_site_fract_z
Si Si1 0.138923 0.402846 0.166905
Si Si2 0.568232 0.252488 0.661834
Si Si3 0.066197 0.838948 0.171336
Si Si4 0.429167 0.570834 0.000000
Si Si5 0.930776 0.500000 0.333022
Si Si6 0.357943 0.642058 0.239397
Si Si7 0.273454 0.134138 0.165766
Si Si8 0.737443 0.737443 0.163922
O O1 0.206085 0.403316 0.226760
O O2 0.096921 0.443440 0.259409
O O3 0.107434 0.338949 0.183096
O O4 0.141768 0.422286 0.000000
O O5 0.575371 0.227968 0.500000
O O6 0.500000 0.260271 0.703605
O O7 0.598236 0.317211 0.667779
O O8 0.106083 0.893918 0.224009
O O9 0.093762 0.777836 0.236254
O O10 0.000000 0.846544 0.233721
O O11 0.063777 0.836751 0.000000
O O12 0.417054 0.500000 0.000000
O O13 0.398032 0.601969 0.135374
O O14 0.914129 0.500000 0.500000
O O15 0.000000 0.500000 0.306100
O O16 0.312402 0.687599 0.167068
O O17 0.279158 0.199652 0.236524
O O18 0.255901 0.139618 0.000000
O O19 0.750296 0.750296 0.000000
#
# Coordination Sequence:
#
# PCOD8312124 Si02
#       8
#    16  16  16   4   8   8  16   8
#     4  11  22  36  61  91 116 149 197 254 303 352
#     4  11  24  40  59  85 121 156 195 245 304 373
#     4   9  16  26  41  63  99 146 191 235 285 339
#     4  11  26  44  60  90 128 158 198 272 333 376
#     4  11  25  45  63  81 119 169 203 234 291 364
#     4  12  22  38  61  87 112 157 201 249 304 380
#     4   9  17  29  47  75 107 142 179 236 300 351
#     4  10  16  28  49  78 110 137 181 236 292 347
#
# _framework density 19.350149999999999
#
# number of rings (size 3 to 8) (size 9 to 14) (size 15 to 20)
#    0.000    1.696    3.913    1.565    1.217    1.565 
#    0.000    2.609    0.000    0.000    0.000    3.652 
#    0.000    0.000    0.000    0.000    0.000    1.565 
#
# Total GULP energy -1139874.353632 kJ/mol
# GULP energy per Si atom -12389.938626 kJ/mol
# Density = 1.930611 g / cm^3
# Si number density = 19.350150 Si / 1000 Ang^3
#
#
#
# Elastic Constant Matrix: (Units=GPa)
#
#
# Indices 1 2 3 4 5 6 
#
# 1 143.4528 77.1043 35.2529 0.0000 0.0000 0.0000
# 2 77.1043 143.4521 35.2529 0.0000 0.0000 0.0000
# 3 35.2529 35.2529 62.1801 0.0000 0.0000 0.0000
# 4 0.0000 0.0000 0.0000 24.2108 0.0000 0.0000
# 5 0.0000 0.0000 0.0000 0.0000 24.2088 0.0000
# 6 0.0000 0.0000 0.0000 0.0000 0.0000 25.0286
#
#
#
# Elastic Compliance Matrix: (Units=1/GPa)
#
#
# Indices 1 2 3 4 5 6 
#
# 1 0.010305 -0.004767 -0.003140 0.000000 0.000000 0.000000
# 2 -0.004767 0.010305 -0.003140 0.000000 0.000000 0.000000
# 3 -0.003140 -0.003140 0.019642 0.000000 0.000000 0.000000
# 4 0.000000 0.000000 0.000000 0.041304 0.000000 0.000000
# 5 0.000000 0.000000 0.000000 0.000000 0.041307 0.000000
# 6 0.000000 0.000000 0.000000 0.000000 0.000000 0.039954
#
#
# Mechanical properties :
#
#
# Convention : Reuss Voigt Hill
#
# Bulk Modulus (GPa) = 55.06824 71.58945 63.32884
# Shear Modulus (GPa) = 26.18311 28.12132 27.15221
#
# Velocity S-wave (km/s) = 3.68247 3.81634 3.75000
# Velocity P-wave (km/s) = 6.82652 7.51641 7.17976
#
# Compressibility (1/GPa) = 0.01815929
#
# Stress axis : x y z
#
# Youngs Moduli (GPa) = 97.04238 97.04190 50.91080
#
# Poissons Ratio (x) = 0.46262 0.15984
# Poissons Ratio (y) = 0.46262 0.15984
# Poissons Ratio (z) = 0.30467 0.30467
#
# Static dielectric constant tensor:
#      x y z
#    x 3.718330 0.000000 0.000000 
#    y 0.000000 3.718350 0.000000 
#    z 0.000000 0.000000 3.084680 
# 
# 
# High freq. dielectric constant tensor:
#      x y z
#    x 1.764240 0.000000 0.000000 
#    y 0.000000 1.764240 0.000000 
#    z 0.000000 0.000000 1.701440 
# 
# From -- ./inp_files/1755.got.cif
#   From: 2010.03.12/outbox.cif.g09.slc.cpg/sg123_1_cif.got.tgz:1755.got - 2010.04.06 16:26:55.
