data_PCOD8312910
_publ_section_title
;
Structure prediction by ZEFSAII (Michael W. Deem and Ramdas Pophale) SiO2 
 PCOD8312910
Probable space group: P 4/M M M
;
_chemical_formula_sum "Si O2"
_cell_formula_units_Z 72
_cell_length_a 20.181124
_cell_length_b 20.181124
_cell_length_c 8.918433
_cell_angle_alpha 90.000000
_cell_angle_beta 90.000000
_cell_angle_gamma 90.000000
_cell_volume 3632.279468
_symmetry_space_group_name_H-M "P 4/M M M"
_symmetry_group_IT_number 123
_symmetry_cell_setting 'tetragonal'
loop_
_space_group_symop_operation_xyz
x,y,z
-y,x,z
-x,-y,z
y,-x,z
x,-y,-z
-x,y,-z
y,x,-z
-y,-x,-z
-x,-y,-z
y,-x,-z
x,y,-z
-y,x,-z
-x,y,z
x,-y,z
-y,-x,z
y,x,z
loop_
_atom_site_type_symbol
_atom_site_label
_atom_site_fract_x
_atom_site_fract_y
_atom_site_fract_z
Si Si1 0.177878 0.926652 0.177856
Si Si2 0.500000 0.730821 0.328055
Si Si3 0.678366 0.891839 0.823086
Si Si4 0.253181 0.360680 0.176779
Si Si5 0.607538 0.500000 0.837962
Si Si6 0.000000 0.424419 0.821340
O O1 0.126994 0.873006 0.247451
O O2 0.251870 0.917056 0.244123
O O3 0.152707 0.000000 0.221453
O O4 0.180456 0.917736 0.000000
O O5 0.500000 0.752526 0.500000
O O6 0.432865 0.754359 0.249483
O O7 0.500000 0.651952 0.308883
O O8 0.674725 0.814944 0.778317
O O9 0.616003 0.935144 0.762085
O O10 0.678719 0.901319 0.000000
O O11 0.315346 0.315346 0.234815
O O12 0.259924 0.370024 0.000000
O O13 0.565495 0.565495 0.831048
O O14 0.645987 0.500000 0.000000
O O15 0.000000 0.500000 0.756087
O O16 0.000000 0.428647 0.000000
#
# Coordination Sequence:
#
# PCOD8312910 Si02
#       6
#    16   8  16  16   8   8
#     4   9  15  23  36  57  91 133 171 208 251 302
#     4  12  25  37  51  73 103 136 170 212 269 326
#     4   9  16  28  45  68  98 132 169 212 264 313
#     4  10  21  36  55  78 103 136 180 226 268 313
#     4   9  18  34  56  78  99 127 165 208 254 307
#     4   9  16  24  40  68  99 127 161 211 266 311
#
# _framework density 19.822263
#
# number of rings (size 3 to 8) (size 9 to 14) (size 15 to 20)
#    0.000    2.444    1.111    2.667    1.556    6.444 
#    0.000    1.667    0.000    0.000    0.000    1.556 
#    0.000    0.000    0.000    0.000    0.000    0.222 
#
# Total GULP energy -891971.235150 kJ/mol
# GULP energy per Si atom -12388.489377 kJ/mol
# Density = 1.977715 g / cm^3
# Si number density = 19.822263 Si / 1000 Ang^3
#
#
#
# Elastic Constant Matrix: (Units=GPa)
#
#
# Indices 1 2 3 4 5 6 
#
# 1 149.3900 72.6828 15.2459 0.0000 0.0000 0.0000
# 2 72.6828 149.3900 15.2459 0.0000 0.0000 0.0000
# 3 15.2459 15.2459 23.3283 0.0000 0.0000 0.0000
# 4 0.0000 0.0000 0.0000 -2.8604 0.0000 0.0000
# 5 0.0000 0.0000 0.0000 0.0000 -2.8604 0.0000
# 6 0.0000 0.0000 0.0000 0.0000 0.0000 60.4189
#
#
#
# Elastic Compliance Matrix: (Units=1/GPa)
#
#
# Indices 1 2 3 4 5 6 
#
# 1 0.008992 -0.004045 -0.003233 0.000000 0.000000 0.000000
# 2 -0.004045 0.008992 -0.003233 0.000000 0.000000 0.000000
# 3 -0.003233 -0.003233 0.047092 0.000000 0.000000 0.000000
# 4 0.000000 0.000000 0.000000 -0.349598 0.000000 0.000000
# 5 0.000000 0.000000 0.000000 0.000000 -0.349598 0.000000
# 6 0.000000 0.000000 0.000000 0.000000 0.000000 0.016551
#
#
# Mechanical properties :
#
#
# Convention : Reuss Voigt Hill
#
# Bulk Modulus (GPa) = 22.69940 58.71752 40.70846
# Shear Modulus (GPa) = -8.59310 25.53517 8.47104
#
# Velocity S-wave (km/s) = -2.08434 3.59305 2.06949
# Velocity P-wave (km/s) = 2.38405 6.84833 5.12754
#
# Compressibility (1/GPa) = 0.04405403
#
# Stress axis : x y z
#
# Youngs Moduli (GPa) = 111.21282 111.21282 21.23493
#
# Poissons Ratio (x) = 0.44984 0.06865
# Poissons Ratio (y) = 0.44984 0.06865
# Poissons Ratio (z) = 0.35955 0.35955
#
# Static dielectric constant tensor:
#      x y z
#    x 3.867010 0.000000 0.000000 
#    y 0.000000 3.867010 0.000000 
#    z 0.000000 0.000000 2.855930 
# 
# 
# High freq. dielectric constant tensor:
#      x y z
#    x 1.788010 0.000000 0.000000 
#    y 0.000000 1.788010 0.000000 
#    z 0.000000 0.000000 1.683350 
# 
# From -- ./inp_files/1166.got.cif
#   From: 2010.03.12/outbox.cif.g09.slc.cpg/sg123_1_cif.got.tgz:1166.got - 2010.04.06 16:26:55.
