data_PCOD8312385
_publ_section_title
;
Structure prediction by ZEFSAII (Michael W. Deem and Ramdas Pophale) SiO2 
 PCOD8312385
Probable space group: P 4/M M M
;
_chemical_formula_sum "Si O2"
_cell_formula_units_Z 76
_cell_length_a 18.019074
_cell_length_b 18.019074
_cell_length_c 15.711133
_cell_angle_alpha 90.000000
_cell_angle_beta 90.000000
_cell_angle_gamma 90.000000
_cell_volume 5101.201077
_symmetry_space_group_name_H-M "P 4/M M M"
_symmetry_group_IT_number 123
_symmetry_cell_setting 'tetragonal'
loop_
_space_group_symop_operation_xyz
x,y,z
-y,x,z
-x,-y,z
y,-x,z
x,-y,-z
-x,y,-z
y,x,-z
-y,-x,-z
-x,-y,-z
y,-x,-z
x,y,-z
-y,x,-z
-x,y,z
x,-y,z
-y,-x,z
y,x,z
loop_
_atom_site_type_symbol
_atom_site_label
_atom_site_fract_x
_atom_site_fract_y
_atom_site_fract_z
Si Si1 0.417876 0.912827 0.754559
Si Si2 0.915800 0.084201 0.500000
Si Si3 0.083666 0.916334 0.758512
Si Si4 0.914350 0.683637 0.597550
Si Si5 0.309542 0.086817 0.097436
Si Si6 0.830463 0.169538 0.635723
Si Si7 0.848570 0.151431 0.903293
O O1 0.500000 0.876321 0.756514
O O2 0.381077 0.893301 0.663424
O O3 0.371267 0.883646 0.835805
O O4 0.425493 0.000000 0.763615
O O5 0.883859 0.116142 0.584807
O O6 0.000000 0.104664 0.500000
O O7 0.145166 0.854835 0.729794
O O8 0.094137 0.905864 0.859032
O O9 0.000000 0.896891 0.729858
O O10 0.906305 0.655468 0.500000
O O11 0.852269 0.746628 0.613673
O O12 0.000000 0.710974 0.612999
O O13 0.236841 0.134107 0.118909
O O14 0.292114 0.000000 0.112579
O O15 0.336741 0.100148 0.000000
O O16 0.864966 0.135035 0.000000
#
# Coordination Sequence:
#
# PCOD8312385 Si02
#       7
#    16   4   8  16  16   8   8
#     4   9  18  31  45  61  80 102 133 176 221 261
#     4  11  20  28  40  56  78 110 142 178 220 251
#     4  11  22  30  38  54  76 108 148 184 218 252
#     4  10  19  30  44  61  81 108 141 176 216 257
#     4   9  17  29  45  64  84 108 139 174 213 254
#     4  12  20  31  44  58  82 108 140 182 218 258
#     4  10  19  31  45  60  82 110 140 176 214 254
#
# _framework density 14.898452000000001
#
# number of rings (size 3 to 8) (size 9 to 14) (size 15 to 20)
#    0.000    2.053    1.053    3.789    0.000    4.632 
#    0.000    4.737    0.000    0.000    0.000    0.000 
#    0.000    0.000    0.000    0.000    0.000    8.421 
#
# Total GULP energy -941765.536292 kJ/mol
# GULP energy per Si atom -12391.651793 kJ/mol
# Density = 1.486454 g / cm^3
# Si number density = 14.898452 Si / 1000 Ang^3
#
#
#
# Elastic Constant Matrix: (Units=GPa)
#
#
# Indices 1 2 3 4 5 6 
#
# 1 59.9149 34.9173 40.2096 0.0000 0.0000 0.0000
# 2 34.9173 59.9144 40.2100 0.0000 0.0000 0.0000
# 3 40.2096 40.2100 101.9469 0.0000 0.0000 0.0000
# 4 0.0000 0.0000 0.0000 20.4621 0.0000 0.0000
# 5 0.0000 0.0000 0.0000 0.0000 20.4618 0.0000
# 6 0.0000 0.0000 0.0000 0.0000 0.0000 8.3429
#
#
#
# Elastic Compliance Matrix: (Units=1/GPa)
#
#
# Indices 1 2 3 4 5 6 
#
# 1 0.027924 -0.012080 -0.006249 0.000000 0.000000 0.000000
# 2 -0.012080 0.027925 -0.006250 0.000000 0.000000 0.000000
# 3 -0.006249 -0.006250 0.014739 0.000000 0.000000 0.000000
# 4 0.000000 0.000000 0.000000 0.048871 0.000000 0.000000
# 5 0.000000 0.000000 0.000000 0.000000 0.048872 0.000000
# 6 0.000000 0.000000 0.000000 0.000000 0.000000 0.119863
#
#
# Mechanical properties :
#
#
# Convention : Reuss Voigt Hill
#
# Bulk Modulus (GPa) = 46.66277 50.27223 48.46750
# Shear Modulus (GPa) = 14.51406 16.94932 15.73169
#
# Velocity S-wave (km/s) = 3.12460 3.37658 3.25303
# Velocity P-wave (km/s) = 6.66379 7.00130 6.83463
#
# Compressibility (1/GPa) = 0.02143036
#
# Stress axis : x y z
#
# Youngs Moduli (GPa) = 35.81130 35.81056 67.84817
#
# Poissons Ratio (x) = 0.43259 0.42400
# Poissons Ratio (y) = 0.43259 0.42402
# Poissons Ratio (z) = 0.22379 0.22380
#
# Static dielectric constant tensor:
#      x y z
#    x 2.809410 0.000000 0.000000 
#    y 0.000000 2.809420 0.000000 
#    z 0.000000 0.000000 3.211170 
# 
# 
# High freq. dielectric constant tensor:
#      x y z
#    x 1.530760 0.000000 0.000000 
#    y 0.000000 1.530760 0.000000 
#    z 0.000000 0.000000 1.600070 
# 
# From -- ./inp_files/4009.got.cif
#   From: 2010.03.12/outbox.cif.g09.slc.cpg/sg123_3_cif.got.tgz:4009.got - 2010.04.06 16:26:55.
