data_PCOD8312993
_publ_section_title
;
Structure prediction by ZEFSAII (Michael W. Deem and Ramdas Pophale) SiO2 
 PCOD8312993
Probable space group: P 4/M M M
;
_chemical_formula_sum "Si O2"
_cell_formula_units_Z 112
_cell_length_a 27.144910
_cell_length_b 27.144910
_cell_length_c 9.550945
_cell_angle_alpha 90.000000
_cell_angle_beta 90.000000
_cell_angle_gamma 90.000000
_cell_volume 7037.576946
_symmetry_space_group_name_H-M "P 4/M M M"
_symmetry_group_IT_number 123
_symmetry_cell_setting 'tetragonal'
loop_
_space_group_symop_operation_xyz
x,y,z
-y,x,z
-x,-y,z
y,-x,z
x,-y,-z
-x,y,-z
y,x,-z
-y,-x,-z
-x,-y,-z
y,-x,-z
x,y,-z
-y,x,-z
-x,y,z
x,-y,z
-y,-x,z
y,x,z
loop_
_atom_site_type_symbol
_atom_site_label
_atom_site_fract_x
_atom_site_fract_y
_atom_site_fract_z
Si Si1 0.198672 0.677220 0.335973
Si Si2 0.943291 0.743470 0.162260
Si Si3 0.776215 0.854409 0.660950
Si Si4 0.361795 0.557185 0.836446
Si Si5 0.622446 0.703208 0.345149
Si Si6 0.643706 0.888574 0.837829
Si Si7 0.553017 0.054189 0.834995
O O1 0.191747 0.668882 0.500000
O O2 0.186031 0.734235 0.297759
O O3 0.252347 0.657448 0.288366
O O4 0.160652 0.645312 0.249927
O O5 0.904664 0.776499 0.249117
O O6 0.927556 0.687237 0.187083
O O7 0.000000 0.750798 0.213002
O O8 0.938635 0.758224 0.000000
O O9 0.769349 0.869963 0.500000
O O10 0.828660 0.828660 0.687186
O O11 0.371013 0.500000 0.793501
O O12 0.410934 0.589067 0.799329
O O13 0.312708 0.577744 0.757397
O O14 0.349970 0.561492 0.000000
O O15 0.601315 0.716559 0.500000
O O16 0.656043 0.656043 0.358437
O O17 0.595357 0.912641 0.771148
O O18 0.639595 0.874128 0.000000
O O19 0.500000 0.078288 0.801281
O O20 0.555791 0.000000 0.768005
O O21 0.561490 0.049672 0.000000
#
# Coordination Sequence:
#
# PCOD8312993 Si02
#       7
#    16  16  16  16  16  16  16
#     4   9  17  29  44  62  85 113 143 174 211 253
#     4   9  17  28  42  62  89 119 148 179 217 260
#     4   9  17  29  45  65  89 116 147 183 219 255
#     4   9  18  32  49  69  91 112 135 167 209 257
#     4   9  17  30  48  66  84 110 143 174 203 241
#     4   9  16  26  41  61  84 109 140 178 216 253
#     4   8  13  22  38  58  76  97 131 174 214 249
#
# _framework density 15.914567999999999
#
# number of rings (size 3 to 8) (size 9 to 14) (size 15 to 20)
#    0.000    3.143    0.000    1.286    0.000    5.000 
#    0.000    1.429    0.000    6.857    0.000    3.000 
#    0.000    0.286    0.000    3.143    0.000    2.286 
#
# Total GULP energy -1387543.877531 kJ/mol
# GULP energy per Si atom -12388.784621 kJ/mol
# Density = 1.587835 g / cm^3
# Si number density = 15.914568 Si / 1000 Ang^3
#
#
#
# Elastic Constant Matrix: (Units=GPa)
#
#
# Indices 1 2 3 4 5 6 
#
# 1 91.7369 39.5119 36.5937 0.0000 0.0000 0.0000
# 2 39.5119 91.7369 36.5937 0.0000 0.0000 0.0000
# 3 36.5937 36.5937 37.1484 0.0000 0.0000 0.0000
# 4 0.0000 0.0000 0.0000 20.6535 0.0000 0.0000
# 5 0.0000 0.0000 0.0000 0.0000 20.6535 0.0000
# 6 0.0000 0.0000 0.0000 0.0000 0.0000 25.5385
#
#
#
# Elastic Compliance Matrix: (Units=1/GPa)
#
#
# Indices 1 2 3 4 5 6 
#
# 1 0.018026 -0.001121 -0.016652 0.000000 0.000000 0.000000
# 2 -0.001121 0.018026 -0.016652 0.000000 0.000000 0.000000
# 3 -0.016652 -0.016652 0.059727 0.000000 0.000000 0.000000
# 4 0.000000 0.000000 0.000000 0.048418 0.000000 0.000000
# 5 0.000000 0.000000 0.000000 0.000000 0.048418 0.000000
# 6 0.000000 0.000000 0.000000 0.000000 0.000000 0.039157
#
#
# Mechanical properties :
#
#
# Convention : Reuss Voigt Hill
#
# Bulk Modulus (GPa) = 37.13802 49.55785 43.34793
# Shear Modulus (GPa) = 16.14985 20.56396 18.35691
#
# Velocity S-wave (km/s) = 3.18902 3.59854 3.39996
# Velocity P-wave (km/s) = 6.07835 6.96230 6.53529
#
# Compressibility (1/GPa) = 0.02692659
#
# Stress axis : x y z
#
# Youngs Moduli (GPa) = 55.47419 55.47419 16.74296
#
# Poissons Ratio (x) = 0.06221 0.27881
# Poissons Ratio (y) = 0.06221 0.27881
# Poissons Ratio (z) = 0.92378 0.92378
#
# Static dielectric constant tensor:
#      x y z
#    x 3.050160 0.000000 0.000000 
#    y 0.000000 3.050160 0.000000 
#    z 0.000000 0.000000 2.976550 
# 
# 
# High freq. dielectric constant tensor:
#      x y z
#    x 1.599490 0.000000 0.000000 
#    y 0.000000 1.599490 0.000000 
#    z 0.000000 0.000000 1.594430 
# 
# From -- ./inp_files/3405.got.cif
#   From: 2010.03.12/outbox.cif.g09.slc.cpg/sg123_2_cif.got.tgz:3405.got - 2010.04.06 16:26:55.
