data_PCOD8312704
_publ_section_title
;
Structure prediction by ZEFSAII (Michael W. Deem and Ramdas Pophale) SiO2 
 PCOD8312704
Probable space group: P 4/M M M
;
_chemical_formula_sum "Si O2"
_cell_formula_units_Z 64
_cell_length_a 21.908278
_cell_length_b 21.908278
_cell_length_c 7.448496
_cell_angle_alpha 90.000000
_cell_angle_beta 90.000000
_cell_angle_gamma 90.000000
_cell_volume 3575.074326
_symmetry_space_group_name_H-M "P 4/M M M"
_symmetry_group_IT_number 123
_symmetry_cell_setting 'tetragonal'
loop_
_space_group_symop_operation_xyz
x,y,z
-y,x,z
-x,-y,z
y,-x,z
x,-y,-z
-x,y,-z
y,x,-z
-y,-x,-z
-x,-y,-z
y,-x,-z
x,y,-z
-y,x,-z
-x,y,z
x,-y,z
-y,-x,z
y,x,z
loop_
_atom_site_type_symbol
_atom_site_label
_atom_site_fract_x
_atom_site_fract_y
_atom_site_fract_z
Si Si1 0.115292 0.431791 0.500000
Si Si2 0.205846 0.606977 0.794337
Si Si3 0.260269 0.161457 0.794714
Si Si4 0.337251 0.432412 0.213512
Si Si5 0.069649 0.701303 0.500000
O O1 0.083820 0.500000 0.500000
O O2 0.155221 0.427560 0.320601
O O3 0.070118 0.373194 0.500000
O O4 0.203083 0.679874 0.772736
O O5 0.270941 0.586956 0.717306
O O6 0.196085 0.586705 0.000000
O O7 0.202055 0.202055 0.734073
O O8 0.268795 0.101576 0.673707
O O9 0.252398 0.139686 0.000000
O O10 0.352552 0.500000 0.282605
O O11 0.387449 0.387449 0.297647
O O12 0.338301 0.428815 0.000000
O O13 0.000000 0.722814 0.500000
#
# Coordination Sequence:
#
# PCOD8312704 Si02
#       5
#     8  16  16  16   8
#     4  10  20  32  48  69  91 124 169 206 240 284
#     4   9  17  30  48  69  91 113 146 200 257 297
#     4   9  17  31  53  77  99 125 159 201 247 291
#     4   9  16  25  38  56  80 111 144 182 233 291
#     4  10  21  34  48  71 105 140 169 199 237 284
#
# _framework density 17.901727000000001
#
# number of rings (size 3 to 8) (size 9 to 14) (size 15 to 20)
#    0.000    2.750    0.000    1.875    0.000    5.500 
#    0.000    3.125    0.000    0.000    0.000    7.000 
#    0.000    7.000    0.000   11.250    0.000    0.000 
#
# Total GULP energy -793308.044115 kJ/mol
# GULP energy per Si atom -12395.438189 kJ/mol
# Density = 1.786098 g / cm^3
# Si number density = 17.901727 Si / 1000 Ang^3
#
#
#
# Elastic Constant Matrix: (Units=GPa)
#
#
# Indices 1 2 3 4 5 6 
#
# 1 86.3201 31.5305 27.3134 0.0000 0.0000 0.0000
# 2 31.5305 86.3201 27.3134 0.0000 0.0000 0.0000
# 3 27.3134 27.3134 74.1404 0.0000 0.0000 0.0000
# 4 0.0000 0.0000 0.0000 6.1447 0.0000 0.0000
# 5 0.0000 0.0000 0.0000 0.0000 6.1447 0.0000
# 6 0.0000 0.0000 0.0000 0.0000 0.0000 11.5487
#
#
#
# Elastic Compliance Matrix: (Units=1/GPa)
#
#
# Indices 1 2 3 4 5 6 
#
# 1 0.014242 -0.004009 -0.003770 0.000000 0.000000 0.000000
# 2 -0.004009 0.014242 -0.003770 0.000000 0.000000 0.000000
# 3 -0.003770 -0.003770 0.016265 0.000000 0.000000 0.000000
# 4 0.000000 0.000000 0.000000 0.162743 0.000000 0.000000
# 5 0.000000 0.000000 0.000000 0.000000 0.162743 0.000000
# 6 0.000000 0.000000 0.000000 0.000000 0.000000 0.086590
#
#
# Mechanical properties :
#
#
# Convention : Reuss Voigt Hill
#
# Bulk Modulus (GPa) = 46.18528 46.56612 46.37570
# Shear Modulus (GPa) = 10.26398 15.47583 12.86991
#
# Velocity S-wave (km/s) = 2.39707 2.94341 2.68418
# Velocity P-wave (km/s) = 5.78936 6.13352 5.96392
#
# Compressibility (1/GPa) = 0.02165192
#
# Stress axis : x y z
#
# Youngs Moduli (GPa) = 70.21401 70.21401 61.47997
#
# Poissons Ratio (x) = 0.28152 0.23176
# Poissons Ratio (y) = 0.28152 0.23176
# Poissons Ratio (z) = 0.26469 0.26469
#
# Static dielectric constant tensor:
#      x y z
#    x 3.108420 0.000000 0.000000 
#    y 0.000000 3.108420 0.000000 
#    z 0.000000 0.000000 3.412840 
# 
# 
# High freq. dielectric constant tensor:
#      x y z
#    x 1.667390 0.000000 0.000000 
#    y 0.000000 1.667390 0.000000 
#    z 0.000000 0.000000 1.697390 
# 
# From -- ./inp_files/928.got.cif
#   From: 2010.03.12/outbox.cif.g09.slc.cpg/sg123_1_cif.got.tgz:928.got - 2010.04.06 16:26:55.
