data_PCOD8312981
_publ_section_title
;
Structure prediction by ZEFSAII (Michael W. Deem and Ramdas Pophale) SiO2 
 PCOD8312981
Probable space group: P 4/M M M
;
_chemical_formula_sum "Si O2"
_cell_formula_units_Z 96
_cell_length_a 29.208166
_cell_length_b 29.208166
_cell_length_c 9.268053
_cell_angle_alpha 90.000000
_cell_angle_beta 90.000000
_cell_angle_gamma 90.000000
_cell_volume 7906.733211
_symmetry_space_group_name_H-M "P 4/M M M"
_symmetry_group_IT_number 123
_symmetry_cell_setting 'tetragonal'
loop_
_space_group_symop_operation_xyz
x,y,z
-y,x,z
-x,-y,z
y,-x,z
x,-y,-z
-x,y,-z
y,x,-z
-y,-x,-z
-x,-y,-z
y,-x,-z
x,y,-z
-y,x,-z
-x,y,z
x,-y,z
-y,-x,z
y,x,z
loop_
_atom_site_type_symbol
_atom_site_label
_atom_site_fract_x
_atom_site_fract_y
_atom_site_fract_z
Si Si1 0.887106 0.233586 0.660994
Si Si2 0.448152 0.051158 0.171411
Si Si3 0.825652 0.174349 0.161505
Si Si4 0.289952 0.050977 0.839598
Si Si5 0.686199 0.186912 0.335616
Si Si6 0.879928 0.627240 0.164722
Si Si7 0.251517 0.748483 0.164884
O O1 0.895655 0.215913 0.500000
O O2 0.870637 0.191421 0.757068
O O3 0.934648 0.251314 0.726046
O O4 0.849814 0.273557 0.663886
O O5 0.500000 0.061739 0.219814
O O6 0.416628 0.092842 0.230920
O O7 0.433970 0.000000 0.227988
O O8 0.443496 0.050723 0.000000
O O9 0.787012 0.212989 0.162402
O O10 0.839208 0.160793 0.000000
O O11 0.333086 0.083244 0.828604
O O12 0.306444 0.000000 0.802690
O O13 0.268761 0.054171 0.000000
O O14 0.673698 0.201010 0.500000
O O15 0.641207 0.164597 0.259440
O O16 0.703608 0.231789 0.247867
O O17 0.863459 0.618744 0.000000
O O18 0.264777 0.735224 0.000000
#
# Coordination Sequence:
#
# PCOD8312981 Si02
#       7
#    16  16   8  16  16  16   8
#     4   9  16  24  33  45  60  77  97 119 142 168
#     4   8  13  21  34  51  66  79 101 137 177 210
#     4   9  15  23  35  47  59  75  95 118 140 163
#     4   9  16  24  33  45  61  80 101 124 149 177
#     4   9  16  24  33  46  64  83 100 120 148 181
#     4   9  15  23  35  49  63  80 104 132 160 191
#     4   9  15  23  35  49  63  79  99 121 144 172
#
# _framework density 12.141550000000001
#
# number of rings (size 3 to 8) (size 9 to 14) (size 15 to 20)
#    0.000    3.167    0.000    2.500    0.000    8.333 
#    0.000    0.000    0.000    2.000    0.000    1.167 
#    0.000    0.000    0.000    0.000    0.000    0.417 
#
# Total GULP energy -1189544.426564 kJ/mol
# GULP energy per Si atom -12391.087777 kJ/mol
# Density = 1.211392 g / cm^3
# Si number density = 12.141550 Si / 1000 Ang^3
#
#
#
# Elastic Constant Matrix: (Units=GPa)
#
#
# Indices 1 2 3 4 5 6 
#
# 1 38.6987 28.9219 25.8157 0.0000 0.0000 0.0000
# 2 28.9219 38.6987 25.8156 0.0000 0.0000 0.0000
# 3 25.8157 25.8156 79.3103 0.0000 0.0000 0.0000
# 4 0.0000 0.0000 0.0000 8.2595 0.0000 0.0000
# 5 0.0000 0.0000 0.0000 0.0000 8.2595 0.0000
# 6 0.0000 0.0000 0.0000 0.0000 0.0000 22.2747
#
#
#
# Elastic Compliance Matrix: (Units=1/GPa)
#
#
# Indices 1 2 3 4 5 6 
#
# 1 0.060981 -0.041302 -0.006406 0.000000 0.000000 0.000000
# 2 -0.041302 0.060981 -0.006406 0.000000 0.000000 0.000000
# 3 -0.006406 -0.006406 0.016779 0.000000 0.000000 0.000000
# 4 0.000000 0.000000 0.000000 0.121072 0.000000 0.000000
# 5 0.000000 0.000000 0.000000 0.000000 0.121073 0.000000
# 6 0.000000 0.000000 0.000000 0.000000 0.000000 0.044894
#
#
# Mechanical properties :
#
#
# Convention : Reuss Voigt Hill
#
# Bulk Modulus (GPa) = 32.77085 35.31267 34.04176
# Shear Modulus (GPa) = 9.18817 12.83571 11.01194
#
# Velocity S-wave (km/s) = 2.75390 3.25495 3.01485
# Velocity P-wave (km/s) = 6.09600 6.57826 6.34172
#
# Compressibility (1/GPa) = 0.03051493
#
# Stress axis : x y z
#
# Youngs Moduli (GPa) = 16.39849 16.39853 59.59888
#
# Poissons Ratio (x) = 0.67729 0.38178
# Poissons Ratio (y) = 0.67729 0.38177
# Poissons Ratio (z) = 0.10504 0.10504
#
# Static dielectric constant tensor:
#      x y z
#    x 2.377870 0.000000 0.000000 
#    y 0.000000 2.377870 0.000000 
#    z 0.000000 0.000000 2.620690 
# 
# 
# High freq. dielectric constant tensor:
#      x y z
#    x 1.422050 0.000000 0.000000 
#    y 0.000000 1.422050 0.000000 
#    z 0.000000 0.000000 1.461820 
# 
# From -- ./inp_files/2089.got.cif
#   From: 2010.03.12/outbox.cif.g09.slc.cpg/sg123_2_cif.got.tgz:2089.got - 2010.04.06 16:26:55.
