data_PCOD8312509
_publ_section_title
;
Structure prediction by ZEFSAII (Michael W. Deem and Ramdas Pophale) SiO2 
 PCOD8312509
Probable space group: P 4/M M M
;
_chemical_formula_sum "Si O2"
_cell_formula_units_Z 72
_cell_length_a 19.331709
_cell_length_b 19.331709
_cell_length_c 12.630243
_cell_angle_alpha 90.000000
_cell_angle_beta 90.000000
_cell_angle_gamma 90.000000
_cell_volume 4720.110920
_symmetry_space_group_name_H-M "P 4/M M M"
_symmetry_group_IT_number 123
_symmetry_cell_setting 'tetragonal'
loop_
_space_group_symop_operation_xyz
x,y,z
-y,x,z
-x,-y,z
y,-x,z
x,-y,-z
-x,y,-z
y,x,-z
-y,-x,-z
-x,-y,-z
y,-x,-z
x,y,-z
-y,x,-z
-x,y,z
x,-y,z
-y,-x,z
y,x,z
loop_
_atom_site_type_symbol
_atom_site_label
_atom_site_fract_x
_atom_site_fract_y
_atom_site_fract_z
Si Si1 0.081822 0.195619 0.500000
Si Si2 0.840407 0.421147 0.375740
Si Si3 0.191630 0.920801 0.120979
Si Si4 0.080438 0.708553 0.694718
Si Si5 0.424152 0.316331 0.374268
O O1 0.123505 0.123505 0.500000
O O2 0.104614 0.240156 0.398319
O O3 0.000000 0.178284 0.500000
O O4 0.851088 0.408031 0.500000
O O5 0.862317 0.500000 0.347615
O O6 0.884852 0.366560 0.310073
O O7 0.761695 0.407633 0.340735
O O8 0.125194 0.874807 0.149548
O O9 0.256462 0.899638 0.193666
O O10 0.169710 0.000000 0.143235
O O11 0.215082 0.909873 0.000000
O O12 0.000000 0.694252 0.683945
O O13 0.423157 0.321409 0.500000
O O14 0.500000 0.338214 0.332352
O O15 0.367389 0.367389 0.323254
#
# Coordination Sequence:
#
# PCOD8312509 Si02
#       5
#     8  16  16  16  16
#     4  10  20  31  43  63  89 117 148 180 218 268
#     4   9  17  29  43  62  88 115 146 183 220 261
#     4   9  18  32  49  68  90 117 150 189 230 271
#     4  10  19  31  45  64  88 113 145 185 224 265
#     4   8  14  23  34  51  76 105 137 170 204 245
#
# _framework density 15.253880000000001
#
# number of rings (size 3 to 8) (size 9 to 14) (size 15 to 20)
#    0.000    2.889    1.111    2.000    0.000    2.778 
#    0.000    3.333    0.000    4.667    0.000    3.111 
#    0.000    0.000    0.000    0.000    0.000    0.000 
#
# Total GULP energy -892554.500133 kJ/mol
# GULP energy per Si atom -12396.590280 kJ/mol
# Density = 1.521916 g / cm^3
# Si number density = 15.253880 Si / 1000 Ang^3
#
#
#
# Elastic Constant Matrix: (Units=GPa)
#
#
# Indices 1 2 3 4 5 6 
#
# 1 97.8253 73.2642 42.8696 0.0000 0.0000 0.0000
# 2 73.2642 97.8253 42.8696 0.0000 0.0000 0.0000
# 3 42.8696 42.8696 60.0553 0.0000 0.0000 0.0000
# 4 0.0000 0.0000 0.0000 16.5237 0.0000 0.0000
# 5 0.0000 0.0000 0.0000 0.0000 16.5237 0.0000
# 6 0.0000 0.0000 0.0000 0.0000 0.0000 34.9906
#
#
#
# Elastic Compliance Matrix: (Units=1/GPa)
#
#
# Indices 1 2 3 4 5 6 
#
# 1 0.024908 -0.015807 -0.006496 0.000000 0.000000 0.000000
# 2 -0.015807 0.024908 -0.006496 0.000000 0.000000 0.000000
# 3 -0.006496 -0.006496 0.025926 0.000000 0.000000 0.000000
# 4 0.000000 0.000000 0.000000 0.060519 0.000000 0.000000
# 5 0.000000 0.000000 0.000000 0.000000 0.060519 0.000000
# 6 0.000000 0.000000 0.000000 0.000000 0.000000 0.028579
#
#
# Mechanical properties :
#
#
# Convention : Reuss Voigt Hill
#
# Bulk Modulus (GPa) = 55.12137 63.74586 59.43362
# Shear Modulus (GPa) = 17.30075 20.05442 18.67759
#
# Velocity S-wave (km/s) = 3.37142 3.62983 3.50301
# Velocity P-wave (km/s) = 7.16727 7.71026 7.44372
#
# Compressibility (1/GPa) = 0.01814178
#
# Stress axis : x y z
#
# Youngs Moduli (GPa) = 40.14840 40.14840 38.57170
#
# Poissons Ratio (x) = 0.63463 0.25057
# Poissons Ratio (y) = 0.63463 0.25057
# Poissons Ratio (z) = 0.26081 0.26081
#
# Static dielectric constant tensor:
#      x y z
#    x 3.016350 0.000000 0.000000 
#    y 0.000000 3.016350 0.000000 
#    z 0.000000 0.000000 2.692930 
# 
# 
# High freq. dielectric constant tensor:
#      x y z
#    x 1.586440 0.000000 0.000000 
#    y 0.000000 1.586440 0.000000 
#    z 0.000000 0.000000 1.541210 
# 
# From -- ./inp_files/2750.got.cif
#   From: 2010.03.12/outbox.cif.g09.slc.cpg/sg123_2_cif.got.tgz:2750.got - 2010.04.06 16:26:55.
