data_PCOD8312615
_publ_section_title
;
Structure prediction by ZEFSAII (Michael W. Deem and Ramdas Pophale) SiO2 
 PCOD8312615
Probable space group: P 4/M M M
;
_chemical_formula_sum "Si O2"
_cell_formula_units_Z 72
_cell_length_a 12.481588
_cell_length_b 12.481588
_cell_length_c 26.479115
_cell_angle_alpha 90.000000
_cell_angle_beta 90.000000
_cell_angle_gamma 90.000000
_cell_volume 4125.182359
_symmetry_space_group_name_H-M "P 4/M M M"
_symmetry_group_IT_number 123
_symmetry_cell_setting 'tetragonal'
loop_
_space_group_symop_operation_xyz
x,y,z
-y,x,z
-x,-y,z
y,-x,z
x,-y,-z
-x,y,-z
y,x,-z
-y,-x,-z
-x,-y,-z
y,-x,-z
x,y,-z
-y,x,-z
-x,y,z
x,-y,z
-y,-x,z
y,x,z
loop_
_atom_site_type_symbol
_atom_site_label
_atom_site_fract_x
_atom_site_fract_y
_atom_site_fract_z
Si Si1 0.000000 0.627480 0.783418
Si Si2 0.000000 0.627263 0.330541
Si Si3 0.705174 0.123423 0.943617
Si Si4 0.378563 0.204872 0.155935
Si Si5 0.200959 0.623509 0.394705
Si Si6 0.701419 0.125718 0.500000
O O1 0.000000 0.672001 0.726428
O O2 0.893994 0.669133 0.811865
O O3 0.000000 0.500000 0.784930
O O4 0.106752 0.668393 0.358605
O O5 0.000000 0.500000 0.331719
O O6 0.820767 0.179234 0.938807
O O7 0.623906 0.175232 0.903473
O O8 0.723076 0.000000 0.930992
O O9 0.656984 0.139493 0.000000
O O10 0.500000 0.231604 0.171307
O O11 0.308866 0.308866 0.168553
O O12 0.228953 0.500000 0.382888
O O13 0.307152 0.692849 0.384648
O O14 0.160859 0.632289 0.451966
O O15 0.816955 0.183046 0.500000
O O16 0.722895 0.000000 0.500000
#
# Coordination Sequence:
#
# PCOD8312615 Si02
#       6
#     8   8  16  16  16   8
#     4   9  18  34  54  75  97 127 169 217 260 295
#     4   9  18  33  54  75  98 131 173 215 253 299
#     4   9  17  29  47  73 103 134 168 206 250 301
#     4  10  20  34  52  75 103 134 169 208 252 303
#     4  10  20  33  52  79 108 140 175 211 254 303
#     4  10  19  32  52  78 108 141 176 215 258 306
#
# _framework density 17.453772000000001
#
# number of rings (size 3 to 8) (size 9 to 14) (size 15 to 20)
#    0.000    2.444    2.222    0.333    0.000    2.556 
#    0.000    2.222    0.000    2.667    0.000   10.889 
#    0.000    0.000    0.000    0.000    0.000    0.000 
#
# Total GULP energy -892752.811944 kJ/mol
# GULP energy per Si atom -12399.344610 kJ/mol
# Density = 1.741405 g / cm^3
# Si number density = 17.453772 Si / 1000 Ang^3
#
#
#
# Elastic Constant Matrix: (Units=GPa)
#
#
# Indices 1 2 3 4 5 6 
#
# 1 98.6869 53.3505 36.2836 0.0000 0.0000 0.0000
# 2 53.3505 98.6868 36.2838 0.0000 0.0000 0.0000
# 3 36.2836 36.2838 108.0124 0.0000 0.0000 0.0000
# 4 0.0000 0.0000 0.0000 16.6294 0.0000 0.0000
# 5 0.0000 0.0000 0.0000 0.0000 16.6293 0.0000
# 6 0.0000 0.0000 0.0000 0.0000 0.0000 14.5438
#
#
#
# Elastic Compliance Matrix: (Units=1/GPa)
#
#
# Indices 1 2 3 4 5 6 
#
# 1 0.014945 -0.007112 -0.002631 0.000000 0.000000 0.000000
# 2 -0.007112 0.014945 -0.002631 0.000000 0.000000 0.000000
# 3 -0.002631 -0.002631 0.011026 0.000000 0.000000 0.000000
# 4 0.000000 0.000000 0.000000 0.060134 0.000000 0.000000
# 5 0.000000 0.000000 0.000000 0.000000 0.060135 0.000000
# 6 0.000000 0.000000 0.000000 0.000000 0.000000 0.068758
#
#
# Mechanical properties :
#
#
# Convention : Reuss Voigt Hill
#
# Bulk Modulus (GPa) = 61.85383 61.91357 61.88370
# Shear Modulus (GPa) = 19.22469 21.52506 20.37487
#
# Velocity S-wave (km/s) = 3.32243 3.51559 3.42037
# Velocity P-wave (km/s) = 7.08757 7.21312 7.15062
#
# Compressibility (1/GPa) = 0.01616715
#
# Stress axis : x y z
#
# Youngs Moduli (GPa) = 66.91069 66.91047 90.69423
#
# Poissons Ratio (x) = 0.47587 0.23865
# Poissons Ratio (y) = 0.47587 0.23865
# Poissons Ratio (z) = 0.17606 0.17607
#
# Static dielectric constant tensor:
#      x y z
#    x 3.078460 0.000000 0.000000 
#    y 0.000000 3.078460 0.000000 
#    z 0.000000 0.000000 3.453990 
# 
# 
# High freq. dielectric constant tensor:
#      x y z
#    x 1.660050 0.000000 0.000000 
#    y 0.000000 1.660050 0.000000 
#    z 0.000000 0.000000 1.682810 
# 
# From -- ./inp_files/7928.got.cif
#   From: 2010.03.12/outbox.cif.g09.slc.cpg/sg123_4_cif.got.tgz:7928.got - 2010.04.06 16:26:55.
