data_PCOD8312376
_publ_section_title
;
Structure prediction by ZEFSAII (Michael W. Deem and Ramdas Pophale) SiO2 
 PCOD8312376
Probable space group: P 4/M M M
;
_chemical_formula_sum "Si O2"
_cell_formula_units_Z 104
_cell_length_a 26.141925
_cell_length_b 26.141925
_cell_length_c 8.034936
_cell_angle_alpha 90.000000
_cell_angle_beta 90.000000
_cell_angle_gamma 90.000000
_cell_volume 5491.077213
_symmetry_space_group_name_H-M "P 4/M M M"
_symmetry_group_IT_number 123
_symmetry_cell_setting 'tetragonal'
loop_
_space_group_symop_operation_xyz
x,y,z
-y,x,z
-x,-y,z
y,-x,z
x,-y,-z
-x,y,-z
y,x,-z
-y,-x,-z
-x,-y,-z
y,-x,-z
x,y,-z
-y,x,-z
-x,y,z
x,-y,z
-y,-x,z
y,x,z
loop_
_atom_site_type_symbol
_atom_site_label
_atom_site_fract_x
_atom_site_fract_y
_atom_site_fract_z
Si Si1 0.652783 0.789147 0.307256
Si Si2 0.836647 0.243101 0.193393
Si Si3 0.643856 0.442702 0.000000
Si Si4 0.444295 0.152246 0.309291
Si Si5 0.607006 0.942365 0.808940
Si Si6 0.397220 0.314925 0.317506
Si Si7 0.722760 0.943898 0.801529
O O1 0.659668 0.803953 0.500000
O O2 0.703279 0.807479 0.213504
O O3 0.602265 0.815986 0.227253
O O4 0.644592 0.728932 0.280394
O O5 0.802943 0.197058 0.276372
O O6 0.894972 0.244895 0.267818
O O7 0.841346 0.231772 0.000000
O O8 0.679711 0.436684 0.164401
O O9 0.621340 0.500000 0.000000
O O10 0.597093 0.402908 0.000000
O O11 0.448122 0.168460 0.500000
O O12 0.500000 0.163678 0.225593
O O13 0.431652 0.092301 0.295310
O O14 0.664700 0.936486 0.739097
O O15 0.587758 0.000000 0.787696
O O16 0.605243 0.924913 0.000000
O O17 0.423853 0.304343 0.500000
O O18 0.368139 0.368139 0.330238
O O19 0.743526 0.000000 0.739045
O O20 0.722867 0.944047 0.000000
#
# Coordination Sequence:
#
# PCOD8312376 Si02
#       7
#    16  16   8  16  16  16  16
#     4  10  20  34  51  70  97 132 165 200 250 304
#     4  10  19  29  48  77 102 125 160 207 252 299
#     4  10  22  39  60  86 110 134 169 209 255 315
#     4  10  21  34  46  64  91 122 159 203 247 289
#     4   9  17  31  50  66  83 116 162 204 241 286
#     4   9  19  36  57  79 105 138 172 205 244 301
#     4   8  14  27  46  66  93 128 161 196 242 293
#
# _framework density 18.939817000000001
#
# number of rings (size 3 to 8) (size 9 to 14) (size 15 to 20)
#    0.000    2.615    1.538    1.385    1.077    2.846 
#    0.000    3.077    0.000    0.462    0.000    2.154 
#    0.000    0.308    0.000    4.308    0.000    0.000 
#
# Total GULP energy -1288394.620855 kJ/mol
# GULP energy per Si atom -12388.409816 kJ/mol
# Density = 1.889671 g / cm^3
# Si number density = 18.939817 Si / 1000 Ang^3
#
#
#
# Elastic Constant Matrix: (Units=GPa)
#
#
# Indices 1 2 3 4 5 6 
#
# 1 102.7329 41.6845 17.8291 0.0000 0.0000 0.0000
# 2 41.6845 102.7340 17.8292 0.0000 0.0000 0.0000
# 3 17.8291 17.8292 46.3853 0.0000 0.0000 0.0000
# 4 0.0000 0.0000 0.0000 12.7018 0.0000 0.0000
# 5 0.0000 0.0000 0.0000 0.0000 12.7021 0.0000
# 6 0.0000 0.0000 0.0000 0.0000 0.0000 25.0646
#
#
#
# Elastic Compliance Matrix: (Units=1/GPa)
#
#
# Indices 1 2 3 4 5 6 
#
# 1 0.012015 -0.004365 -0.002941 0.000000 0.000000 0.000000
# 2 -0.004365 0.012015 -0.002941 0.000000 0.000000 0.000000
# 3 -0.002941 -0.002941 0.023819 0.000000 0.000000 0.000000
# 4 0.000000 0.000000 0.000000 0.078729 0.000000 0.000000
# 5 0.000000 0.000000 0.000000 0.000000 0.078727 0.000000
# 6 0.000000 0.000000 0.000000 0.000000 0.000000 0.039897
#
#
# Mechanical properties :
#
#
# Convention : Reuss Voigt Hill
#
# Bulk Modulus (GPa) = 36.55298 45.17087 40.86192
# Shear Modulus (GPa) = 18.19409 21.72765 19.96087
#
# Velocity S-wave (km/s) = 3.10276 3.39070 3.24992
# Velocity P-wave (km/s) = 5.67253 6.26343 5.97529
#
# Compressibility (1/GPa) = 0.02735755
#
# Stress axis : x y z
#
# Youngs Moduli (GPa) = 83.22640 83.22729 41.98311
#
# Poissons Ratio (x) = 0.36328 0.12346
# Poissons Ratio (y) = 0.36328 0.12346
# Poissons Ratio (z) = 0.24473 0.24474
#
# Static dielectric constant tensor:
#      x y z
#    x 3.604330 0.000000 0.000000 
#    y 0.000000 3.604330 0.000000 
#    z 0.000000 0.000000 3.362890 
# 
# 
# High freq. dielectric constant tensor:
#      x y z
#    x 1.718340 0.000000 0.000000 
#    y 0.000000 1.718340 0.000000 
#    z 0.000000 0.000000 1.715160 
# 
# From -- ./inp_files/1967.got.cif
#   From: 2010.03.12/outbox.cif.g09.slc.cpg/sg123_1_cif.got.tgz:1967.got - 2010.04.06 16:26:55.
