data_PCOD8312771
_publ_section_title
;
Structure prediction by ZEFSAII (Michael W. Deem and Ramdas Pophale) SiO2 
 PCOD8312771
Probable space group: P 4/M M M
;
_chemical_formula_sum "Si O2"
_cell_formula_units_Z 104
_cell_length_a 17.945276
_cell_length_b 17.945276
_cell_length_c 17.342454
_cell_angle_alpha 90.000000
_cell_angle_beta 90.000000
_cell_angle_gamma 90.000000
_cell_volume 5584.841287
_symmetry_space_group_name_H-M "P 4/M M M"
_symmetry_group_IT_number 123
_symmetry_cell_setting 'tetragonal'
loop_
_space_group_symop_operation_xyz
x,y,z
-y,x,z
-x,-y,z
y,-x,z
x,-y,-z
-x,y,-z
y,x,-z
-y,-x,-z
-x,-y,-z
y,-x,-z
x,y,-z
-y,x,-z
-x,y,z
x,-y,z
-y,-x,z
y,x,z
loop_
_atom_site_type_symbol
_atom_site_label
_atom_site_fract_x
_atom_site_fract_y
_atom_site_fract_z
Si Si1 0.587777 0.700532 0.500000
Si Si2 0.685551 0.189439 0.913037
Si Si3 0.916993 0.201821 0.648064
Si Si4 0.414443 0.773898 0.653388
Si Si5 0.083998 0.360993 0.412242
Si Si6 0.290063 0.410901 0.814155
Si Si7 0.913350 0.792071 0.826559
O O1 0.500000 0.702645 0.500000
O O2 0.615075 0.615075 0.500000
O O3 0.622077 0.739667 0.423952
O O4 0.748222 0.251779 0.910868
O O5 0.611940 0.224210 0.873113
O O6 0.718451 0.116580 0.870422
O O7 0.664089 0.166923 0.000000
O O8 0.861565 0.138436 0.619246
O O9 0.904078 0.272745 0.594179
O O10 0.902859 0.224795 0.736429
O O11 0.000000 0.169765 0.638330
O O12 0.500000 0.753059 0.654646
O O13 0.402998 0.862835 0.648369
O O14 0.381282 0.738256 0.730814
O O15 0.101237 0.386001 0.500000
O O16 0.000000 0.383004 0.389319
O O17 0.303379 0.500000 0.819195
O O18 0.368007 0.368007 0.832292
O O19 0.866268 0.866268 0.849791
O O20 0.000000 0.805411 0.848417
#
# Coordination Sequence:
#
# PCOD8312771 Si02
#       7
#     8  16  16  16  16  16  16
#     4  10  20  33  49  71  99 131 168 208 250 304
#     4   9  18  33  53  77 105 138 175 213 258 315
#     4   9  18  31  46  67  96 129 168 213 259 307
#     4  10  20  35  52  74 103 134 169 207 252 309
#     4  10  20  33  49  72 100 130 171 222 268 307
#     4  10  21  37  58  82 108 137 170 214 265 321
#     4   9  17  30  50  76 107 144 184 226 271 318
#
# _framework density 18.621835999999998
#
# number of rings (size 3 to 8) (size 9 to 14) (size 15 to 20)
#    0.000    2.462    0.769    1.385    0.000    4.231 
#    0.000    2.308    0.000    4.154    0.000    7.538 
#    0.000    0.000    0.000    0.000    0.000    0.000 
#
# Total GULP energy -1289145.008406 kJ/mol
# GULP energy per Si atom -12395.625081 kJ/mol
# Density = 1.857945 g / cm^3
# Si number density = 18.621836 Si / 1000 Ang^3
#
#
#
# Elastic Constant Matrix: (Units=GPa)
#
#
# Indices 1 2 3 4 5 6 
#
# 1 62.6496 37.0763 20.4850 0.0000 0.0000 0.0000
# 2 37.0763 62.6496 20.4850 0.0000 0.0000 0.0000
# 3 20.4850 20.4850 58.4180 0.0000 0.0000 0.0000
# 4 0.0000 0.0000 0.0000 21.5203 0.0000 0.0000
# 5 0.0000 0.0000 0.0000 0.0000 21.5203 0.0000
# 6 0.0000 0.0000 0.0000 0.0000 0.0000 29.8800
#
#
#
# Elastic Compliance Matrix: (Units=1/GPa)
#
#
# Indices 1 2 3 4 5 6 
#
# 1 0.025409 -0.013694 -0.004108 0.000000 0.000000 0.000000
# 2 -0.013694 0.025409 -0.004108 0.000000 0.000000 0.000000
# 3 -0.004108 -0.004108 0.019999 0.000000 0.000000 0.000000
# 4 0.000000 0.000000 0.000000 0.046468 0.000000 0.000000
# 5 0.000000 0.000000 0.000000 0.000000 0.046468 0.000000
# 6 0.000000 0.000000 0.000000 0.000000 0.000000 0.033467
#
#
# Mechanical properties :
#
#
# Convention : Reuss Voigt Hill
#
# Bulk Modulus (GPa) = 37.04092 37.75666 37.39879
# Shear Modulus (GPa) = 19.99682 21.62884 20.81283
#
# Velocity S-wave (km/s) = 3.28050 3.41174 3.34677
# Velocity P-wave (km/s) = 5.85519 5.98661 5.92126
#
# Compressibility (1/GPa) = 0.02699717
#
# Stress axis : x y z
#
# Youngs Moduli (GPa) = 39.35584 39.35584 50.00220
#
# Poissons Ratio (x) = 0.53894 0.20541
# Poissons Ratio (y) = 0.53894 0.20541
# Poissons Ratio (z) = 0.16168 0.16168
#
# Static dielectric constant tensor:
#      x y z
#    x 3.296790 0.000000 0.000000 
#    y 0.000000 3.296790 0.000000 
#    z 0.000000 0.000000 3.597160 
# 
# 
# High freq. dielectric constant tensor:
#      x y z
#    x 1.712120 0.000000 0.000000 
#    y 0.000000 1.712120 0.000000 
#    z 0.000000 0.000000 1.718110 
# 
# From -- ./inp_files/5607.got.cif
#   From: 2010.03.12/outbox.cif.g09.slc.cpg/sg123_3_cif.got.tgz:5607.got - 2010.04.06 16:26:55.
