data_PCOD8312293
_publ_section_title
;
Structure prediction by ZEFSAII (Michael W. Deem and Ramdas Pophale) SiO2 
 PCOD8312293
Probable space group: P 4/M M M
;
_chemical_formula_sum "Si O2"
_cell_formula_units_Z 56
_cell_length_a 14.440015
_cell_length_b 14.440015
_cell_length_c 17.942398
_cell_angle_alpha 90.000000
_cell_angle_beta 90.000000
_cell_angle_gamma 90.000000
_cell_volume 3741.241772
_symmetry_space_group_name_H-M "P 4/M M M"
_symmetry_group_IT_number 123
_symmetry_cell_setting 'tetragonal'
loop_
_space_group_symop_operation_xyz
x,y,z
-y,x,z
-x,-y,z
y,-x,z
x,-y,-z
-x,y,-z
y,x,-z
-y,-x,-z
-x,-y,-z
y,-x,-z
x,y,-z
-y,x,-z
-x,y,z
x,-y,z
-y,-x,z
y,x,z
loop_
_atom_site_type_symbol
_atom_site_label
_atom_site_fract_x
_atom_site_fract_y
_atom_site_fract_z
Si Si1 0.397728 0.109669 0.795333
Si Si2 0.609922 0.897021 0.369370
Si Si3 0.610342 0.761762 0.500000
Si Si4 0.744620 0.893621 0.915862
O O1 0.500000 0.153410 0.806615
O O2 0.357752 0.134705 0.713275
O O3 0.330965 0.149357 0.859461
O O4 0.405228 0.000000 0.802857
O O5 0.500000 0.903852 0.370226
O O6 0.643162 0.821027 0.428564
O O7 0.649482 0.000000 0.388864
O O8 0.500000 0.742146 0.500000
O O9 0.663819 0.663819 0.500000
O O10 0.840696 0.840696 0.905091
O O11 0.765665 0.000000 0.896858
O O12 0.706290 0.882231 0.000000
#
# Coordination Sequence:
#
# PCOD8312293 Si02
#       4
#    16  16   8  16
#     4   8  14  25  41  60  79  97 119 153 199 240
#     4   8  14  26  43  60  77  96 121 158 199 231
#     4  10  19  28  39  57  80 106 133 155 180 219
#     4   9  17  27  38  54  77 105 134 159 183 216
#
# _framework density 14.968292
#
# number of rings (size 3 to 8) (size 9 to 14) (size 15 to 20)
#    0.000    3.429    0.000    2.143    0.000    3.857 
#    0.000    4.286    0.000    0.000    0.000    0.000 
#    0.000    5.143    0.000    3.143    0.000    1.143 
#
# Total GULP energy -693949.559131 kJ/mol
# GULP energy per Si atom -12391.956413 kJ/mol
# Density = 1.493422 g / cm^3
# Si number density = 14.968292 Si / 1000 Ang^3
#
#
#
# Elastic Constant Matrix: (Units=GPa)
#
#
# Indices 1 2 3 4 5 6 
#
# 1 55.0316 31.2966 46.8485 0.0000 0.0000 0.0000
# 2 31.2966 55.0316 46.8485 0.0000 0.0000 0.0000
# 3 46.8485 46.8485 120.1216 0.0000 0.0000 0.0000
# 4 0.0000 0.0000 0.0000 15.4838 0.0000 0.0000
# 5 0.0000 0.0000 0.0000 0.0000 15.4838 0.0000
# 6 0.0000 0.0000 0.0000 0.0000 0.0000 14.5830
#
#
#
# Elastic Compliance Matrix: (Units=1/GPa)
#
#
# Indices 1 2 3 4 5 6 
#
# 1 0.031109 -0.011023 -0.007834 0.000000 0.000000 0.000000
# 2 -0.011023 0.031109 -0.007834 0.000000 0.000000 0.000000
# 3 -0.007834 -0.007834 0.014435 0.000000 0.000000 0.000000
# 4 0.000000 0.000000 0.000000 0.064584 0.000000 0.000000
# 5 0.000000 0.000000 0.000000 0.000000 0.064584 0.000000
# 6 0.000000 0.000000 0.000000 0.000000 0.000000 0.068573
#
#
# Mechanical properties :
#
#
# Convention : Reuss Voigt Hill
#
# Bulk Modulus (GPa) = 42.96902 53.35243 48.16073
# Shear Modulus (GPa) = 14.90172 16.12288 15.51230
#
# Velocity S-wave (km/s) = 3.15866 3.28554 3.22272
# Velocity P-wave (km/s) = 6.48628 7.07912 6.78918
#
# Compressibility (1/GPa) = 0.02327258
#
# Stress axis : x y z
#
# Youngs Moduli (GPa) = 32.14500 32.14500 69.27427
#
# Poissons Ratio (x) = 0.35433 0.54268
# Poissons Ratio (y) = 0.35433 0.54268
# Poissons Ratio (z) = 0.25182 0.25182
#
# Static dielectric constant tensor:
#      x y z
#    x 2.700030 0.000000 0.000000 
#    y 0.000000 2.700030 0.000000 
#    z 0.000000 0.000000 3.345420 
# 
# 
# High freq. dielectric constant tensor:
#      x y z
#    x 1.538130 0.000000 0.000000 
#    y 0.000000 1.538130 0.000000 
#    z 0.000000 0.000000 1.590990 
# 
# From -- ./inp_files/3670.got.cif
#   From: 2010.03.12/outbox.cif.g09.slc.cpg/sg123_2_cif.got.tgz:3670.got - 2010.04.06 16:26:55.
