data_PCOD8312578
_publ_section_title
;
Structure prediction by ZEFSAII (Michael W. Deem and Ramdas Pophale) SiO2 
 PCOD8312578
Probable space group: P 4/M M M
;
_chemical_formula_sum "Si O2"
_cell_formula_units_Z 120
_cell_length_a 23.083822
_cell_length_b 23.083822
_cell_length_c 13.787755
_cell_angle_alpha 90.000000
_cell_angle_beta 90.000000
_cell_angle_gamma 90.000000
_cell_volume 7346.982261
_symmetry_space_group_name_H-M "P 4/M M M"
_symmetry_group_IT_number 123
_symmetry_cell_setting 'tetragonal'
loop_
_space_group_symop_operation_xyz
x,y,z
-y,x,z
-x,-y,z
y,-x,z
x,-y,-z
-x,y,-z
y,x,-z
-y,-x,-z
-x,-y,-z
y,-x,-z
x,y,-z
-y,x,-z
-x,y,z
x,-y,z
-y,-x,z
y,x,z
loop_
_atom_site_type_symbol
_atom_site_label
_atom_site_fract_x
_atom_site_fract_y
_atom_site_fract_z
Si Si1 0.658022 0.565912 0.884813
Si Si2 0.380102 0.779412 0.889064
Si Si3 0.622733 0.933245 0.609850
Si Si4 0.000000 0.430867 0.889831
Si Si5 0.259617 0.168116 0.889159
Si Si6 0.934074 0.158752 0.390700
Si Si7 0.566463 0.113279 0.215908
Si Si8 0.066322 0.266331 0.739603
O O1 0.655008 0.500000 0.843671
O O2 0.603253 0.603253 0.845282
O O3 0.717154 0.597597 0.851296
O O4 0.655977 0.564502 0.000000
O O5 0.310935 0.784456 0.880327
O O6 0.406325 0.827802 0.820079
O O7 0.400673 0.789718 0.000000
O O8 0.625857 0.909911 0.500000
O O9 0.576012 0.894993 0.668927
O O10 0.684266 0.924495 0.660238
O O11 0.603050 0.000000 0.611031
O O12 0.057203 0.404925 0.837722
O O13 0.000000 0.500000 0.881905
O O14 0.000000 0.409360 0.000000
O O15 0.200921 0.200921 0.855259
O O16 0.273469 0.110758 0.827882
O O17 0.253520 0.147408 0.000000
O O18 0.922020 0.181304 0.500000
O O19 0.897268 0.102733 0.364770
O O20 0.917355 0.207862 0.315082
O O21 0.000000 0.139579 0.378705
O O22 0.500000 0.116192 0.189262
O O23 0.000000 0.265950 0.778500
#
# Coordination Sequence:
#
# PCOD8312578 Si02
#       8
#    16  16  16   8  16  16  16  16
#     4   9  17  29  46  69  97 129 164 199 237 285
#     4  10  19  32  48  69  97 131 165 200 242 289
#     4  10  20  34  50  67  91 123 161 207 252 292
#     4   9  18  30  43  63  93 125 158 202 246 281
#     4  10  20  33  50  72  97 126 160 198 241 289
#     4   9  17  29  47  71  96 122 152 189 237 291
#     4  11  20  31  46  67  92 123 165 205 247 292
#     4  10  19  33  50  69  94 124 161 201 243 286
#
# _framework density 16.333237
#
# number of rings (size 3 to 8) (size 9 to 14) (size 15 to 20)
#    0.000    2.200    2.000    2.000    0.000    5.333 
#    0.000    2.000    0.000    0.000    0.000    0.000 
#    0.000    0.000    0.000   12.400    0.000    0.267 
#
# Total GULP energy -1487736.619417 kJ/mol
# GULP energy per Si atom -12397.805162 kJ/mol
# Density = 1.629606 g / cm^3
# Si number density = 16.333237 Si / 1000 Ang^3
#
#
#
# Elastic Constant Matrix: (Units=GPa)
#
#
# Indices 1 2 3 4 5 6 
#
# 1 76.2407 33.9134 29.0163 0.0000 0.0000 0.0000
# 2 33.9134 76.2407 29.0163 0.0000 0.0000 0.0000
# 3 29.0163 29.0163 75.6011 0.0000 0.0000 0.0000
# 4 0.0000 0.0000 0.0000 18.7396 0.0000 0.0000
# 5 0.0000 0.0000 0.0000 0.0000 18.7396 0.0000
# 6 0.0000 0.0000 0.0000 0.0000 0.0000 27.3045
#
#
#
# Elastic Compliance Matrix: (Units=1/GPa)
#
#
# Indices 1 2 3 4 5 6 
#
# 1 0.017502 -0.006123 -0.004367 0.000000 0.000000 0.000000
# 2 -0.006123 0.017502 -0.004367 0.000000 0.000000 0.000000
# 3 -0.004367 -0.004367 0.016580 0.000000 0.000000 0.000000
# 4 0.000000 0.000000 0.000000 0.053363 0.000000 0.000000
# 5 0.000000 0.000000 0.000000 0.000000 0.053363 0.000000
# 6 0.000000 0.000000 0.000000 0.000000 0.000000 0.036624
#
#
# Mechanical properties :
#
#
# Convention : Reuss Voigt Hill
#
# Bulk Modulus (GPa) = 45.72807 45.77496 45.75151
# Shear Modulus (GPa) = 21.55736 22.03252 21.79494
#
# Velocity S-wave (km/s) = 3.63691 3.67677 3.65690
# Velocity P-wave (km/s) = 6.75972 6.79054 6.77515
#
# Compressibility (1/GPa) = 0.02186841
#
# Stress axis : x y z
#
# Youngs Moduli (GPa) = 57.13553 57.13553 60.31444
#
# Poissons Ratio (x) = 0.34985 0.26342
# Poissons Ratio (y) = 0.34985 0.26342
# Poissons Ratio (z) = 0.24953 0.24953
#
# Static dielectric constant tensor:
#      x y z
#    x 3.148080 0.000000 0.000000 
#    y 0.000000 3.148080 0.000000 
#    z 0.000000 0.000000 2.946330 
# 
# 
# High freq. dielectric constant tensor:
#      x y z
#    x 1.627510 0.000000 0.000000 
#    y 0.000000 1.627510 0.000000 
#    z 0.000000 0.000000 1.600310 
# 
# From -- ./inp_files/3483.got.cif
#   From: 2010.03.12/outbox.cif.g09.slc.cpg/sg123_2_cif.got.tgz:3483.got - 2010.04.06 16:26:55.
