data_PCOD8312855
_publ_section_title
;
Structure prediction by ZEFSAII (Michael W. Deem and Ramdas Pophale) SiO2 
 PCOD8312855
Probable space group: P 4/M M M
;
_chemical_formula_sum "Si O2"
_cell_formula_units_Z 120
_cell_length_a 21.984170
_cell_length_b 21.984170
_cell_length_c 15.240905
_cell_angle_alpha 90.000000
_cell_angle_beta 90.000000
_cell_angle_gamma 90.000000
_cell_volume 7365.986244
_symmetry_space_group_name_H-M "P 4/M M M"
_symmetry_group_IT_number 123
_symmetry_cell_setting 'tetragonal'
loop_
_space_group_symop_operation_xyz
x,y,z
-y,x,z
-x,-y,z
y,-x,z
x,-y,-z
-x,y,-z
y,x,-z
-y,-x,-z
-x,-y,-z
y,-x,-z
x,y,-z
-y,x,-z
-x,y,z
x,-y,z
-y,-x,z
y,x,z
loop_
_atom_site_type_symbol
_atom_site_label
_atom_site_fract_x
_atom_site_fract_y
_atom_site_fract_z
Si Si1 0.570903 0.932934 0.500000
Si Si2 0.893752 0.430645 0.690628
Si Si3 0.754651 0.565931 0.741595
Si Si4 0.255232 0.842283 0.897993
Si Si5 0.929571 0.699981 0.749063
Si Si6 0.251827 0.649408 0.593091
Si Si7 0.154243 0.745452 0.397564
Si Si8 0.257845 0.645243 0.902931
O O1 0.500000 0.942443 0.500000
O O2 0.589453 0.897101 0.588191
O O3 0.602272 0.000000 0.500000
O O4 0.922734 0.500000 0.705299
O O5 0.824961 0.435632 0.718579
O O6 0.923707 0.374477 0.744689
O O7 0.724855 0.500000 0.736404
O O8 0.721844 0.606061 0.668074
O O9 0.743707 0.588648 0.838968
O O10 0.189390 0.810611 0.878390
O O11 0.270701 0.898957 0.835798
O O12 0.306237 0.792718 0.876238
O O13 0.257904 0.862715 0.000000
O O14 0.903970 0.737688 0.665144
O O15 0.000000 0.716045 0.755440
O O16 0.239560 0.614712 0.500000
O O17 0.300895 0.699106 0.572338
O O18 0.191662 0.684381 0.625274
O O19 0.134789 0.746840 0.500000
O O20 0.194129 0.805872 0.375250
O O21 0.323703 0.676298 0.897844
O O22 0.245384 0.619730 0.000000
#
# Coordination Sequence:
#
# PCOD8312855 Si02
#       8
#     8  16  16  16  16  16  16  16
#     4   9  18  32  44  52  73 122 182 220 231 248
#     4  10  21  33  43  60  92 138 178 205 237 267
#     4  11  20  28  44  68  97 127 154 194 238 282
#     4   9  18  35  56  72  89 118 156 197 245 296
#     4  12  22  30  48  73  99 128 162 208 240 272
#     4   9  17  30  48  66  87 121 163 203 242 285
#     4   9  18  33  50  67  92 126 161 199 246 294
#     4   9  17  32  54  72  86 113 155 198 240 288
#
# _framework density 16.291097000000001
#
# number of rings (size 3 to 8) (size 9 to 14) (size 15 to 20)
#    0.000    2.200    2.667    2.800    1.867    4.000 
#    0.000    0.000    0.000    0.400    0.000    0.933 
#    0.000    8.533    0.000   23.467    0.000    0.000 
#
# Total GULP energy -1486638.612431 kJ/mol
# GULP energy per Si atom -12388.655104 kJ/mol
# Density = 1.625402 g / cm^3
# Si number density = 16.291097 Si / 1000 Ang^3
#
#
#
# Elastic Constant Matrix: (Units=GPa)
#
#
# Indices 1 2 3 4 5 6 
#
# 1 57.5567 11.5599 34.3396 0.0000 0.0000 0.0000
# 2 11.5599 57.5567 34.3396 0.0000 0.0000 0.0000
# 3 34.3396 34.3396 101.4147 0.0000 0.0000 0.0000
# 4 0.0000 0.0000 0.0000 17.6070 0.0000 0.0000
# 5 0.0000 0.0000 0.0000 0.0000 17.6070 0.0000
# 6 0.0000 0.0000 0.0000 0.0000 0.0000 11.8337
#
#
#
# Elastic Compliance Matrix: (Units=1/GPa)
#
#
# Indices 1 2 3 4 5 6 
#
# 1 0.021773 0.000032 -0.007383 0.000000 0.000000 0.000000
# 2 0.000032 0.021773 -0.007383 0.000000 0.000000 0.000000
# 3 -0.007383 -0.007383 0.014861 0.000000 0.000000 0.000000
# 4 0.000000 0.000000 0.000000 0.056796 0.000000 0.000000
# 5 0.000000 0.000000 0.000000 0.000000 0.056796 0.000000
# 6 0.000000 0.000000 0.000000 0.000000 0.000000 0.084504
#
#
# Mechanical properties :
#
#
# Convention : Reuss Voigt Hill
#
# Bulk Modulus (GPa) = 34.55757 41.88961 38.22359
# Shear Modulus (GPa) = 16.91382 18.49546 17.70464
#
# Velocity S-wave (km/s) = 3.22565 3.37309 3.30019
# Velocity P-wave (km/s) = 5.92720 6.39839 6.16729
#
# Compressibility (1/GPa) = 0.02893722
#
# Stress axis : x y z
#
# Youngs Moduli (GPa) = 45.92894 45.92894 67.29232
#
# Poissons Ratio (x) = -0.00147 0.49684
# Poissons Ratio (y) = -0.00147 0.49684
# Poissons Ratio (z) = 0.33911 0.33911
#
# Static dielectric constant tensor:
#      x y z
#    x 3.001250 0.000000 0.000000 
#    y 0.000000 3.001250 0.000000 
#    z 0.000000 0.000000 3.198330 
# 
# 
# High freq. dielectric constant tensor:
#      x y z
#    x 1.600380 0.000000 0.000000 
#    y 0.000000 1.600380 0.000000 
#    z 0.000000 0.000000 1.637320 
# 
# From -- ./inp_files/4596.got.cif
#   From: 2010.03.12/outbox.cif.g09.slc.cpg/sg123_3_cif.got.tgz:4596.got - 2010.04.06 16:26:55.
