data_PCOD8312164
_publ_section_title
;
Structure prediction by ZEFSAII (Michael W. Deem and Ramdas Pophale) SiO2 
 PCOD8312164
Probable space group: P 4/M M M
;
_chemical_formula_sum "Si O2"
_cell_formula_units_Z 80
_cell_length_a 27.060113
_cell_length_b 27.060113
_cell_length_c 7.802754
_cell_angle_alpha 90.000000
_cell_angle_beta 90.000000
_cell_angle_gamma 90.000000
_cell_volume 5713.564397
_symmetry_space_group_name_H-M "P 4/M M M"
_symmetry_group_IT_number 123
_symmetry_cell_setting 'tetragonal'
loop_
_space_group_symop_operation_xyz
x,y,z
-y,x,z
-x,-y,z
y,-x,z
x,-y,-z
-x,y,-z
y,x,-z
-y,-x,-z
-x,-y,-z
y,-x,-z
x,y,-z
-y,x,-z
-x,y,z
x,-y,z
-y,-x,z
y,x,z
loop_
_atom_site_type_symbol
_atom_site_label
_atom_site_fract_x
_atom_site_fract_y
_atom_site_fract_z
Si Si1 0.231235 0.602902 0.190570
Si Si2 0.649501 0.725463 0.500000
Si Si3 0.918198 0.500000 0.309570
Si Si4 0.676289 0.142408 0.806189
Si Si5 0.189149 0.269897 0.500000
Si Si6 0.500000 0.813583 0.192502
Si Si7 0.056357 0.607101 0.699422
O O1 0.271986 0.617748 0.327842
O O2 0.180842 0.632325 0.221619
O O3 0.221240 0.546075 0.224492
O O4 0.251994 0.612958 0.000000
O O5 0.671215 0.671215 0.500000
O O6 0.691638 0.766652 0.500000
O O7 0.941185 0.500000 0.500000
O O8 0.859055 0.500000 0.322028
O O9 0.935368 0.551694 0.219570
O O10 0.720358 0.154885 0.669739
O O11 0.650480 0.089123 0.782791
O O12 0.698207 0.145515 0.000000
O O13 0.214390 0.214390 0.500000
O O14 0.500000 0.835738 0.000000
O O15 0.070464 0.604672 0.500000
O O16 0.000000 0.622982 0.731007
#
# Coordination Sequence:
#
# PCOD8312164 Si02
#       7
#    16   8   8  16   8   8  16
#     4   9  18  28  41  59  79  99 126 162 196 234
#     4   9  18  29  43  58  73  96 125 153 196 246
#     4  10  19  26  42  58  74 108 145 181 212 242
#     4  10  18  29  45  62  79 103 132 164 207 250
#     4   9  18  32  46  60  78  96 120 163 212 258
#     4  10  18  27  39  57  78 102 132 165 202 238
#     4  10  19  30  41  57  83 112 144 178 213 252
#
# _framework density 14.001766
#
# number of rings (size 3 to 8) (size 9 to 14) (size 15 to 20)
#    0.000    2.400    3.000    0.300    1.400    2.400 
#    0.000    4.000    0.000    1.800    0.000    0.000 
#    0.000    0.000    0.000    0.000    0.000    4.000 
#
# Total GULP energy -991370.519159 kJ/mol
# GULP energy per Si atom -12392.131489 kJ/mol
# Density = 1.396990 g / cm^3
# Si number density = 14.001766 Si / 1000 Ang^3
#
#
#
# Elastic Constant Matrix: (Units=GPa)
#
#
# Indices 1 2 3 4 5 6 
#
# 1 53.1922 38.6907 36.4283 0.0000 0.0000 0.0000
# 2 38.6907 53.1922 36.4283 0.0000 0.0000 0.0000
# 3 36.4283 36.4283 89.8309 0.0000 0.0000 0.0000
# 4 0.0000 0.0000 0.0000 11.1495 0.0000 0.0000
# 5 0.0000 0.0000 0.0000 0.0000 11.1495 0.0000
# 6 0.0000 0.0000 0.0000 0.0000 0.0000 -4.8312
#
#
#
# Elastic Compliance Matrix: (Units=1/GPa)
#
#
# Indices 1 2 3 4 5 6 
#
# 1 0.042500 -0.026458 -0.006505 0.000000 0.000000 0.000000
# 2 -0.026458 0.042500 -0.006505 0.000000 0.000000 0.000000
# 3 -0.006505 -0.006505 0.016408 0.000000 0.000000 0.000000
# 4 0.000000 0.000000 0.000000 0.089690 0.000000 0.000000
# 5 0.000000 0.000000 0.000000 0.000000 0.089690 0.000000
# 6 0.000000 0.000000 0.000000 0.000000 0.000000 -0.206988
#
#
# Mechanical properties :
#
#
# Convention : Reuss Voigt Hill
#
# Bulk Modulus (GPa) = 44.50302 46.58999 45.54651
# Shear Modulus (GPa) = 31.20572 9.13811 20.17191
#
# Velocity S-wave (km/s) = 4.72603 2.55745 3.79973
# Velocity P-wave (km/s) = 7.85069 6.48594 7.20072
#
# Compressibility (1/GPa) = 0.02247039
#
# Stress axis : x y z
#
# Youngs Moduli (GPa) = 23.52941 23.52941 60.94583
#
# Poissons Ratio (x) = 0.62255 0.39646
# Poissons Ratio (y) = 0.62255 0.39646
# Poissons Ratio (z) = 0.15306 0.15306
#
# Static dielectric constant tensor:
#      x y z
#    x 2.566520 0.000000 0.000000 
#    y 0.000000 2.566520 0.000000 
#    z 0.000000 0.000000 2.948620 
# 
# 
# High freq. dielectric constant tensor:
#      x y z
#    x 1.495100 0.000000 0.000000 
#    y 0.000000 1.495100 0.000000 
#    z 0.000000 0.000000 1.547310 
# 
# From -- ./inp_files/1541.got.cif
#   From: 2010.03.12/outbox.cif.g09.slc.cpg/sg123_1_cif.got.tgz:1541.got - 2010.04.06 16:26:55.
