data_PCOD8312643
_publ_section_title
;
Structure prediction by ZEFSAII (Michael W. Deem and Ramdas Pophale) SiO2 
 PCOD8312643
Probable space group: P 4/M M M
;
_chemical_formula_sum "Si O2"
_cell_formula_units_Z 76
_cell_length_a 12.722274
_cell_length_b 12.722274
_cell_length_c 25.896371
_cell_angle_alpha 90.000000
_cell_angle_beta 90.000000
_cell_angle_gamma 90.000000
_cell_volume 4191.489647
_symmetry_space_group_name_H-M "P 4/M M M"
_symmetry_group_IT_number 123
_symmetry_cell_setting 'tetragonal'
loop_
_space_group_symop_operation_xyz
x,y,z
-y,x,z
-x,-y,z
y,-x,z
x,-y,-z
-x,y,-z
y,x,-z
-y,-x,-z
-x,-y,-z
y,-x,-z
x,y,-z
-y,x,-z
-x,y,z
x,-y,z
-y,-x,z
y,x,z
loop_
_atom_site_type_symbol
_atom_site_label
_atom_site_fract_x
_atom_site_fract_y
_atom_site_fract_z
Si Si1 0.875286 0.500000 0.441734
Si Si2 0.121366 0.707166 0.382002
Si Si3 0.123854 0.876147 0.000000
Si Si4 0.619566 0.619566 0.941179
Si Si5 0.215154 0.621050 0.715532
Si Si6 0.617574 0.880264 0.174562
Si Si7 0.776652 0.223349 0.102698
O O1 0.831555 0.500000 0.500000
O O2 0.835923 0.393832 0.413715
O O3 0.000000 0.500000 0.440404
O O4 0.191882 0.808118 0.397202
O O5 0.131616 0.680081 0.321206
O O6 0.000000 0.733768 0.394577
O O7 0.174349 0.825652 0.051069
O O8 0.000000 0.852901 0.000000
O O9 0.500000 0.645611 0.928501
O O10 0.689311 0.689311 0.905285
O O11 0.645877 0.645877 0.000000
O O12 0.217591 0.500000 0.700520
O O13 0.330571 0.669430 0.705985
O O14 0.187382 0.640264 0.774952
O O15 0.500000 0.853502 0.152049
O O16 0.713046 0.865163 0.134038
O O17 0.619911 0.000000 0.192088
#
# Coordination Sequence:
#
# PCOD8312643 Si02
#       7
#     8  16   4   8  16  16   8
#     4   9  18  34  56  83 113 149 199 245 280 333
#     4  10  20  34  56  84 114 154 195 239 294 347
#     4  11  26  44  60  77 100 140 190 233 272 318
#     4   9  18  33  54  79 106 134 162 198 250 315
#     4  10  19  34  55  81 113 149 187 227 279 341
#     4  10  21  35  54  81 110 138 172 220 271 324
#     4  12  20  38  58  80 105 138 178 220 266 318
#
# _framework density 18.131976999999999
#
# number of rings (size 3 to 8) (size 9 to 14) (size 15 to 20)
#    0.000    1.947    2.632    2.211    0.000    1.684 
#    0.000    0.000    0.000    2.842    0.000    3.684 
#    0.000    0.000    0.000    0.000    0.000    0.000 
#
# Total GULP energy -942103.209093 kJ/mol
# GULP energy per Si atom -12396.094856 kJ/mol
# Density = 1.809071 g / cm^3
# Si number density = 18.131977 Si / 1000 Ang^3
#
#
#
# Elastic Constant Matrix: (Units=GPa)
#
#
# Indices 1 2 3 4 5 6 
#
# 1 106.1547 36.4169 31.5790 0.0000 0.0000 0.0000
# 2 36.4169 106.1563 31.5794 0.0000 0.0000 0.0000
# 3 31.5790 31.5794 80.2545 0.0000 0.0000 0.0000
# 4 0.0000 0.0000 0.0000 22.4820 0.0000 0.0000
# 5 0.0000 0.0000 0.0000 0.0000 22.4819 0.0000
# 6 0.0000 0.0000 0.0000 0.0000 0.0000 26.8886
#
#
#
# Elastic Compliance Matrix: (Units=1/GPa)
#
#
# Indices 1 2 3 4 5 6 
#
# 1 0.011417 -0.002922 -0.003343 0.000000 0.000000 0.000000
# 2 -0.002922 0.011417 -0.003343 0.000000 0.000000 0.000000
# 3 -0.003343 -0.003343 0.015091 0.000000 0.000000 0.000000
# 4 0.000000 0.000000 0.000000 0.044480 0.000000 0.000000
# 5 0.000000 0.000000 0.000000 0.000000 0.044480 0.000000
# 6 0.000000 0.000000 0.000000 0.000000 0.000000 0.037191
#
#
# Mechanical properties :
#
#
# Convention : Reuss Voigt Hill
#
# Bulk Modulus (GPa) = 53.44726 54.63512 54.04119
# Shear Modulus (GPa) = 26.38147 27.23653 26.80900
#
# Velocity S-wave (km/s) = 3.81854 3.87993 3.84936
# Velocity P-wave (km/s) = 6.99875 7.09008 7.04456
#
# Compressibility (1/GPa) = 0.01871003
#
# Stress axis : x y z
#
# Youngs Moduli (GPa) = 87.58824 87.58945 66.26524
#
# Poissons Ratio (x) = 0.25596 0.22150
# Poissons Ratio (y) = 0.25596 0.22150
# Poissons Ratio (z) = 0.29277 0.29277
#
# Static dielectric constant tensor:
#      x y z
#    x 3.215460 0.000000 0.000000 
#    y 0.000000 3.215440 0.000000 
#    z 0.000000 0.000000 3.313080 
# 
# 
# High freq. dielectric constant tensor:
#      x y z
#    x 1.698950 0.000000 0.000000 
#    y 0.000000 1.698950 0.000000 
#    z 0.000000 0.000000 1.700780 
# 
# From -- ./inp_files/8429.got.cif
#   From: 2010.03.12/outbox.cif.g09.slc.cpg/sg123_5_cif.got.tgz:8429.got - 2010.04.06 16:26:55.
