data_PCOD8312729
_publ_section_title
;
Structure prediction by ZEFSAII (Michael W. Deem and Ramdas Pophale) SiO2 
 PCOD8312729
Probable space group: P 4/M M M
;
_chemical_formula_sum "Si O2"
_cell_formula_units_Z 96
_cell_length_a 14.037558
_cell_length_b 14.037558
_cell_length_c 30.497966
_cell_angle_alpha 90.000000
_cell_angle_beta 90.000000
_cell_angle_gamma 90.000000
_cell_volume 6009.716750
_symmetry_space_group_name_H-M "P 4/M M M"
_symmetry_group_IT_number 123
_symmetry_cell_setting 'tetragonal'
loop_
_space_group_symop_operation_xyz
x,y,z
-y,x,z
-x,-y,z
y,-x,z
x,-y,-z
-x,y,-z
y,x,-z
-y,-x,-z
-x,-y,-z
y,-x,-z
x,y,-z
-y,x,-z
-x,y,z
x,-y,z
-y,-x,z
y,x,z
loop_
_atom_site_type_symbol
_atom_site_label
_atom_site_fract_x
_atom_site_fract_y
_atom_site_fract_z
Si Si1 0.392041 0.889344 0.370823
Si Si2 0.390650 0.762576 0.451079
Si Si3 0.894223 0.387004 0.951749
Si Si4 0.269517 0.113065 0.286839
Si Si5 0.391711 0.241057 0.877447
Si Si6 0.389101 0.766857 0.777871
O O1 0.500000 0.859291 0.357683
O O2 0.358086 0.840218 0.415667
O O3 0.319860 0.860383 0.332513
O O4 0.387076 0.000000 0.380494
O O5 0.371355 0.803798 0.500000
O O6 0.500000 0.735089 0.444833
O O7 0.334040 0.665961 0.442815
O O8 0.899091 0.500000 0.947068
O O9 0.830692 0.344001 0.912552
O O10 0.000000 0.344295 0.946536
O O11 0.853341 0.359311 0.000000
O O12 0.168830 0.168830 0.283886
O O13 0.341862 0.147196 0.249113
O O14 0.250929 0.000000 0.281962
O O15 0.500000 0.260104 0.889970
O O16 0.342623 0.342623 0.881395
O O17 0.380655 0.200125 0.828393
O O18 0.500000 0.751760 0.764668
O O19 0.332180 0.667821 0.769234
#
# Coordination Sequence:
#
# PCOD8312729 Si02
#       6
#    16  16  16  16  16  16
#     4   9  17  29  46  67  88 111 141 177 218 262
#     4   9  17  28  42  61  86 116 147 178 212 250
#     4   8  14  25  40  57  78 106 141 180 218 250
#     4  10  20  33  49  68  90 116 146 182 224 269
#     4   9  17  28  42  62  88 116 144 173 207 251
#     4   9  18  31  46  66  91 118 149 183 219 262
#
# _framework density 15.974131
#
# number of rings (size 3 to 8) (size 9 to 14) (size 15 to 20)
#    0.000    3.000    0.000    1.500    0.000    3.000 
#    0.000    5.833    0.000    0.000    0.000    4.667 
#    0.000    0.333    0.000   17.333    0.000    0.500 
#
# Total GULP energy -1189867.502764 kJ/mol
# GULP energy per Si atom -12394.453154 kJ/mol
# Density = 1.593777 g / cm^3
# Si number density = 15.974131 Si / 1000 Ang^3
#
#
#
# Elastic Constant Matrix: (Units=GPa)
#
#
# Indices 1 2 3 4 5 6 
#
# 1 75.4389 41.2924 55.0285 0.0000 0.0000 0.0000
# 2 41.2924 75.4389 55.0285 0.0000 0.0000 0.0000
# 3 55.0285 55.0285 115.0684 0.0000 0.0000 0.0000
# 4 0.0000 0.0000 0.0000 25.4700 0.0000 0.0000
# 5 0.0000 0.0000 0.0000 0.0000 25.4700 0.0000
# 6 0.0000 0.0000 0.0000 0.0000 0.0000 15.9650
#
#
#
# Elastic Compliance Matrix: (Units=1/GPa)
#
#
# Indices 1 2 3 4 5 6 
#
# 1 0.022443 -0.006842 -0.007461 0.000000 0.000000 0.000000
# 2 -0.006842 0.022443 -0.007461 0.000000 0.000000 0.000000
# 3 -0.007461 -0.007461 0.015826 0.000000 0.000000 0.000000
# 4 0.000000 0.000000 0.000000 0.039262 0.000000 0.000000
# 5 0.000000 0.000000 0.000000 0.000000 0.039262 0.000000
# 6 0.000000 0.000000 0.000000 0.000000 0.000000 0.062637
#
#
# Mechanical properties :
#
#
# Convention : Reuss Voigt Hill
#
# Bulk Modulus (GPa) = 58.18993 63.18276 60.68635
# Shear Modulus (GPa) = 19.91008 21.02081 20.46545
#
# Velocity S-wave (km/s) = 3.53426 3.63151 3.58322
# Velocity P-wave (km/s) = 7.29118 7.56458 7.42914
#
# Compressibility (1/GPa) = 0.01718510
#
# Stress axis : x y z
#
# Youngs Moduli (GPa) = 44.55694 44.55694 63.18630
#
# Poissons Ratio (x) = 0.30488 0.47141
# Poissons Ratio (y) = 0.30488 0.47141
# Poissons Ratio (z) = 0.33242 0.33242
#
# Static dielectric constant tensor:
#      x y z
#    x 2.929230 0.000000 0.000000 
#    y 0.000000 2.929230 0.000000 
#    z 0.000000 0.000000 3.300910 
# 
# 
# High freq. dielectric constant tensor:
#      x y z
#    x 1.595900 0.000000 0.000000 
#    y 0.000000 1.595900 0.000000 
#    z 0.000000 0.000000 1.628550 
# 
# From -- ./inp_files/8581.got.cif
#   From: 2010.03.12/outbox.cif.g09.slc.cpg/sg123_5_cif.got.tgz:8581.got - 2010.04.06 16:26:55.
