data_PCOD8312701
_publ_section_title
;
Structure prediction by ZEFSAII (Michael W. Deem and Ramdas Pophale) SiO2 
 PCOD8312701
Probable space group: P 4/M M M
;
_chemical_formula_sum "Si O2"
_cell_formula_units_Z 104
_cell_length_a 26.661374
_cell_length_b 26.661374
_cell_length_c 9.118029
_cell_angle_alpha 90.000000
_cell_angle_beta 90.000000
_cell_angle_gamma 90.000000
_cell_volume 6481.358192
_symmetry_space_group_name_H-M "P 4/M M M"
_symmetry_group_IT_number 123
_symmetry_cell_setting 'tetragonal'
loop_
_space_group_symop_operation_xyz
x,y,z
-y,x,z
-x,-y,z
y,-x,z
x,-y,-z
-x,y,-z
y,x,-z
-y,-x,-z
-x,-y,-z
y,-x,-z
x,y,-z
-y,x,-z
-x,y,z
x,-y,z
-y,-x,z
y,x,z
loop_
_atom_site_type_symbol
_atom_site_label
_atom_site_fract_x
_atom_site_fract_y
_atom_site_fract_z
Si Si1 0.553967 0.234259 0.674354
Si Si2 0.689753 0.153306 0.329615
Si Si3 0.862049 0.057198 0.669934
Si Si4 0.058523 0.500000 0.171182
Si Si5 0.123342 0.579704 0.329303
Si Si6 0.263506 0.658402 0.325571
Si Si7 0.209871 0.871183 0.827195
O O1 0.556203 0.234556 0.500000
O O2 0.500000 0.255360 0.730520
O O3 0.559774 0.177071 0.726609
O O4 0.600768 0.267533 0.733406
O O5 0.704663 0.152062 0.500000
O O6 0.639586 0.120564 0.301596
O O7 0.681255 0.210412 0.276991
O O8 0.734327 0.130477 0.235460
O O9 0.847301 0.061886 0.500000
O O10 0.913426 0.086575 0.704321
O O11 0.816540 0.079555 0.763433
O O12 0.870702 0.000000 0.717343
O O13 0.080884 0.550902 0.239485
O O14 0.000000 0.500000 0.205660
O O15 0.070224 0.500000 0.000000
O O16 0.115801 0.567430 0.500000
O O17 0.266798 0.658885 0.500000
O O18 0.308573 0.691428 0.256772
O O19 0.178429 0.821572 0.780915
O O20 0.212818 0.876671 0.000000
#
# Coordination Sequence:
#
# PCOD8312701 Si02
#       7
#    16  16  16   8  16  16  16
#     4   8  12  20  37  58  80 107 138 174 215 257
#     4   9  17  29  48  70  89 115 151 190 231 271
#     4   9  18  33  53  75  96 118 146 182 223 266
#     4  11  23  35  47  65  89 115 143 181 230 275
#     4   9  17  31  50  68  84 108 147 188 228 272
#     4   8  13  20  33  58  88 112 137 175 222 266
#     4  10  20  32  47  69  98 130 158 182 216 268
#
# _framework density 16.046019999999999
#
# number of rings (size 3 to 8) (size 9 to 14) (size 15 to 20)
#    0.000    3.000    0.769    3.000    0.000    3.231 
#    0.000    1.538    0.000    0.923    0.000    2.154 
#    0.000    0.308    0.000    4.308    0.000    0.000 
#
# Total GULP energy -1288994.927926 kJ/mol
# GULP energy per Si atom -12394.181999 kJ/mol
# Density = 1.600950 g / cm^3
# Si number density = 16.046020 Si / 1000 Ang^3
#
#
#
# Elastic Constant Matrix: (Units=GPa)
#
#
# Indices 1 2 3 4 5 6 
#
# 1 124.9390 67.8163 39.6835 0.0000 0.0000 0.0000
# 2 67.8163 124.9390 39.6835 0.0000 0.0000 0.0000
# 3 39.6835 39.6835 43.5037 0.0000 0.0000 0.0000
# 4 0.0000 0.0000 0.0000 13.3009 0.0000 0.0000
# 5 0.0000 0.0000 0.0000 0.0000 13.3009 0.0000
# 6 0.0000 0.0000 0.0000 0.0000 0.0000 24.0687
#
#
#
# Elastic Compliance Matrix: (Units=1/GPa)
#
#
# Indices 1 2 3 4 5 6 
#
# 1 0.012907 -0.004599 -0.007579 0.000000 0.000000 0.000000
# 2 -0.004599 0.012907 -0.007579 0.000000 0.000000 0.000000
# 3 -0.007579 -0.007579 0.036813 0.000000 0.000000 0.000000
# 4 0.000000 0.000000 0.000000 0.075183 0.000000 0.000000
# 5 0.000000 0.000000 0.000000 0.000000 0.075183 0.000000
# 6 0.000000 0.000000 0.000000 0.000000 0.000000 0.041548
#
#
# Mechanical properties :
#
#
# Convention : Reuss Voigt Hill
#
# Bulk Modulus (GPa) = 43.26254 65.30538 54.28396
# Shear Modulus (GPa) = 16.56948 19.88066 18.22507
#
# Velocity S-wave (km/s) = 3.21693 3.52373 3.37382
# Velocity P-wave (km/s) = 6.38892 7.57250 7.00575
#
# Compressibility (1/GPa) = 0.02311468
#
# Stress axis : x y z
#
# Youngs Moduli (GPa) = 77.47508 77.47508 27.16401
#
# Poissons Ratio (x) = 0.35629 0.20588
# Poissons Ratio (y) = 0.35629 0.20588
# Poissons Ratio (z) = 0.58718 0.58718
#
# Static dielectric constant tensor:
#      x y z
#    x 3.170750 0.000000 0.000000 
#    y 0.000000 3.170750 0.000000 
#    z 0.000000 0.000000 2.720820 
# 
# 
# High freq. dielectric constant tensor:
#      x y z
#    x 1.609020 0.000000 0.000000 
#    y 0.000000 1.609020 0.000000 
#    z 0.000000 0.000000 1.586270 
# 
# From -- ./inp_files/1947.got.cif
#   From: 2010.03.12/outbox.cif.g09.slc.cpg/sg123_1_cif.got.tgz:1947.got - 2010.04.06 16:26:55.
