data_PCOD8312803
_publ_section_title
;
Structure prediction by ZEFSAII (Michael W. Deem and Ramdas Pophale) SiO2 
 PCOD8312803
Probable space group: P 4/M M M
;
_chemical_formula_sum "Si O2"
_cell_formula_units_Z 96
_cell_length_a 24.502460
_cell_length_b 24.502460
_cell_length_c 8.823391
_cell_angle_alpha 90.000000
_cell_angle_beta 90.000000
_cell_angle_gamma 90.000000
_cell_volume 5297.304073
_symmetry_space_group_name_H-M "P 4/M M M"
_symmetry_group_IT_number 123
_symmetry_cell_setting 'tetragonal'
loop_
_space_group_symop_operation_xyz
x,y,z
-y,x,z
-x,-y,z
y,-x,z
x,-y,-z
-x,y,-z
y,x,-z
-y,-x,-z
-x,-y,-z
y,-x,-z
x,y,-z
-y,x,-z
-x,y,z
x,-y,z
-y,-x,z
y,x,z
loop_
_atom_site_type_symbol
_atom_site_label
_atom_site_fract_x
_atom_site_fract_y
_atom_site_fract_z
Si Si1 0.648941 0.264503 0.179100
Si Si2 0.000000 0.234609 0.678922
Si Si3 0.437406 0.908468 0.821075
Si Si4 0.206561 0.437185 0.330003
Si Si5 0.892780 0.804090 0.821688
Si Si6 0.184064 0.274615 0.667562
Si Si7 0.000000 0.638222 0.680271
O O1 0.681727 0.318273 0.234750
O O2 0.588748 0.260769 0.250141
O O3 0.674195 0.208667 0.244901
O O4 0.648328 0.262427 0.000000
O O5 0.049919 0.197880 0.737591
O O6 0.000000 0.298088 0.736296
O O7 0.000000 0.234549 0.500000
O O8 0.500000 0.925096 0.777973
O O9 0.425315 0.847317 0.767540
O O10 0.393410 0.947062 0.740967
O O11 0.428974 0.912540 0.000000
O O12 0.198498 0.414129 0.500000
O O13 0.220666 0.500000 0.334997
O O14 0.857325 0.857325 0.772160
O O15 0.863425 0.748309 0.772938
O O16 0.901789 0.803838 0.000000
O O17 0.161477 0.290735 0.500000
O O18 0.230362 0.230362 0.647133
O O19 0.000000 0.635805 0.500000
#
# Coordination Sequence:
#
# PCOD8312803 Si02
#       7
#    16   8  16  16  16  16   8
#     4  10  20  33  51  76 105 138 177 220 265 314
#     4  11  25  40  56  82 111 140 174 213 262 316
#     4  10  21  37  56  76 100 137 183 227 271 316
#     4  10  21  36  54  76 104 140 181 224 269 316
#     4  10  21  38  59  81 107 138 171 210 259 315
#     4   9  17  30  50  75 103 136 171 208 252 305
#     4  11  24  38  53  76 107 139 176 225 269 310
#
# _framework density 18.122426999999998
#
# number of rings (size 3 to 8) (size 9 to 14) (size 15 to 20)
#    0.000    2.000    0.000    3.250    2.333    8.333 
#    0.000    0.000    0.000    0.250    0.000    1.750 
#    0.000    0.333    0.000    3.667    0.000    2.667 
#
# Total GULP energy -1189932.830609 kJ/mol
# GULP energy per Si atom -12395.133652 kJ/mol
# Density = 1.808118 g / cm^3
# Si number density = 18.122427 Si / 1000 Ang^3
#
#
#
# Elastic Constant Matrix: (Units=GPa)
#
#
# Indices 1 2 3 4 5 6 
#
# 1 80.6463 45.9201 38.8951 0.0000 0.0000 0.0000
# 2 45.9201 80.6463 38.8951 0.0000 0.0000 0.0000
# 3 38.8951 38.8951 86.9402 0.0000 0.0000 0.0000
# 4 0.0000 0.0000 0.0000 29.1820 0.0000 0.0000
# 5 0.0000 0.0000 0.0000 0.0000 29.1820 0.0000
# 6 0.0000 0.0000 0.0000 0.0000 0.0000 30.7780
#
#
#
# Elastic Compliance Matrix: (Units=1/GPa)
#
#
# Indices 1 2 3 4 5 6 
#
# 1 0.019847 -0.008950 -0.004875 0.000000 0.000000 0.000000
# 2 -0.008950 0.019847 -0.004875 0.000000 0.000000 0.000000
# 3 -0.004875 -0.004875 0.015864 0.000000 0.000000 0.000000
# 4 0.000000 0.000000 0.000000 0.034268 0.000000 0.000000
# 5 0.000000 0.000000 0.000000 0.000000 0.034268 0.000000
# 6 0.000000 0.000000 0.000000 0.000000 0.000000 0.032491
#
#
# Mechanical properties :
#
#
# Convention : Reuss Voigt Hill
#
# Bulk Modulus (GPa) = 55.07179 55.07261 55.07220
# Shear Modulus (GPa) = 24.99529 26.12988 25.56259
#
# Velocity S-wave (km/s) = 3.71785 3.80129 3.75980
# Velocity P-wave (km/s) = 6.99175 7.05136 7.02162
#
# Compressibility (1/GPa) = 0.01815812
#
# Stress axis : x y z
#
# Youngs Moduli (GPa) = 50.38531 50.38531 63.03449
#
# Poissons Ratio (x) = 0.45093 0.30731
# Poissons Ratio (y) = 0.45093 0.30731
# Poissons Ratio (z) = 0.24564 0.24564
#
# Static dielectric constant tensor:
#      x y z
#    x 3.385940 0.000000 0.000000 
#    y 0.000000 3.385940 0.000000 
#    z 0.000000 0.000000 3.505810 
# 
# 
# High freq. dielectric constant tensor:
#      x y z
#    x 1.687440 0.000000 0.000000 
#    y 0.000000 1.687440 0.000000 
#    z 0.000000 0.000000 1.719890 
# 
# From -- ./inp_files/1689.got.cif
#   From: 2010.03.12/outbox.cif.g09.slc.cpg/sg123_1_cif.got.tgz:1689.got - 2010.04.06 16:26:55.
