data_PCOD8312955
_publ_section_title
;
Structure prediction by ZEFSAII (Michael W. Deem and Ramdas Pophale) SiO2 
 PCOD8312955
Probable space group: P 4/M M M
;
_chemical_formula_sum "Si O2"
_cell_formula_units_Z 96
_cell_length_a 24.442196
_cell_length_b 24.442196
_cell_length_c 8.746061
_cell_angle_alpha 90.000000
_cell_angle_beta 90.000000
_cell_angle_gamma 90.000000
_cell_volume 5225.080030
_symmetry_space_group_name_H-M "P 4/M M M"
_symmetry_group_IT_number 123
_symmetry_cell_setting 'tetragonal'
loop_
_space_group_symop_operation_xyz
x,y,z
-y,x,z
-x,-y,z
y,-x,z
x,-y,-z
-x,y,-z
y,x,-z
-y,-x,-z
-x,-y,-z
y,-x,-z
x,y,-z
-y,x,-z
-x,y,z
x,-y,z
-y,-x,z
y,x,z
loop_
_atom_site_type_symbol
_atom_site_label
_atom_site_fract_x
_atom_site_fract_y
_atom_site_fract_z
Si Si1 0.731822 0.645897 0.318110
Si Si2 0.560082 0.645537 0.318043
Si Si3 0.437745 0.062408 0.180521
Si Si4 0.350555 0.146120 0.319367
Si Si5 0.233987 0.145999 0.179710
Si Si6 0.060066 0.855503 0.818413
O O1 0.732990 0.646820 0.500000
O O2 0.702031 0.702031 0.260906
O O3 0.697575 0.594020 0.257694
O O4 0.792867 0.638736 0.253085
O O5 0.556863 0.647626 0.500000
O O6 0.500000 0.647002 0.243941
O O7 0.589878 0.589878 0.265520
O O8 0.500000 0.077502 0.231189
O O9 0.394314 0.103593 0.253741
O O10 0.424526 0.000000 0.231959
O O11 0.432440 0.067263 0.000000
O O12 0.356143 0.144038 0.500000
O O13 0.288753 0.133496 0.272341
O O14 0.203542 0.203542 0.221898
O O15 0.195806 0.096193 0.232139
O O16 0.246620 0.144655 0.000000
O O17 0.088718 0.911283 0.760427
O O18 0.000000 0.851118 0.744010
O O19 0.056403 0.856391 0.000000
#
# Coordination Sequence:
#
# PCOD8312955 Si02
#       6
#    16  16  16  16  16  16
#     4   8  15  27  40  58  90 128 158 187 231 283
#     4   8  13  21  33  50  76 112 151 188 224 263
#     4   9  20  40  60  74  94 127 162 196 241 301
#     4  11  21  31  50  78 101 123 158 205 251 296
#     4   9  18  32  48  68  99 138 175 207 241 289
#     4   8  14  25  42  65  92 122 157 197 239 281
#
# _framework density 18.372924999999999
#
# number of rings (size 3 to 8) (size 9 to 14) (size 15 to 20)
#    0.000    3.167    0.000    3.500    0.000    3.333 
#    0.000    5.833    0.000    0.000    0.000    0.000 
#    0.000    0.000    0.000    3.667    0.000    4.167 
#
# Total GULP energy -1189506.795470 kJ/mol
# GULP energy per Si atom -12390.695786 kJ/mol
# Density = 1.833111 g / cm^3
# Si number density = 18.372925 Si / 1000 Ang^3
#
#
#
# Elastic Constant Matrix: (Units=GPa)
#
#
# Indices 1 2 3 4 5 6 
#
# 1 154.4746 112.3096 25.7331 0.0000 0.0000 0.0000
# 2 112.3096 154.4746 25.7331 0.0000 0.0000 0.0000
# 3 25.7331 25.7331 21.9099 0.0000 0.0000 0.0000
# 4 0.0000 0.0000 0.0000 14.7262 0.0000 0.0000
# 5 0.0000 0.0000 0.0000 0.0000 14.7262 0.0000
# 6 0.0000 0.0000 0.0000 0.0000 0.0000 28.4040
#
#
#
# Elastic Compliance Matrix: (Units=1/GPa)
#
#
# Indices 1 2 3 4 5 6 
#
# 1 0.014281 -0.009435 -0.005692 0.000000 0.000000 0.000000
# 2 -0.009435 0.014281 -0.005692 0.000000 0.000000 0.000000
# 3 -0.005692 -0.005692 0.059012 0.000000 0.000000 0.000000
# 4 0.000000 0.000000 0.000000 0.067906 0.000000 0.000000
# 5 0.000000 0.000000 0.000000 0.000000 0.067906 0.000000
# 6 0.000000 0.000000 0.000000 0.000000 0.000000 0.035206
#
#
# Mechanical properties :
#
#
# Convention : Reuss Voigt Hill
#
# Bulk Modulus (GPa) = 21.76911 73.15674 47.46292
# Shear Modulus (GPa) = 15.84562 22.71016 19.27789
#
# Velocity S-wave (km/s) = 2.93993 3.51959 3.24274
# Velocity P-wave (km/s) = 4.83719 7.51138 6.31740
#
# Compressibility (1/GPa) = 0.04593665
#
# Stress axis : x y z
#
# Youngs Moduli (GPa) = 70.02123 70.02123 16.94562
#
# Poissons Ratio (x) = 0.66065 0.09646
# Poissons Ratio (y) = 0.66065 0.09646
# Poissons Ratio (z) = 0.39857 0.39857
#
# Static dielectric constant tensor:
#      x y z
#    x 3.731030 0.000000 0.000000 
#    y 0.000000 3.731030 0.000000 
#    z 0.000000 0.000000 2.826840 
# 
# 
# High freq. dielectric constant tensor:
#      x y z
#    x 1.720790 0.000000 0.000000 
#    y 0.000000 1.720790 0.000000 
#    z 0.000000 0.000000 1.658090 
# 
# From -- ./inp_files/1653.got.cif
#   From: 2010.03.12/outbox.cif.g09.slc.cpg/sg123_1_cif.got.tgz:1653.got - 2010.04.06 16:26:55.
