data_PCOD8312619
_publ_section_title
;
Structure prediction by ZEFSAII (Michael W. Deem and Ramdas Pophale) SiO2 
 PCOD8312619
Probable space group: P 4/M M M
;
_chemical_formula_sum "Si O2"
_cell_formula_units_Z 72
_cell_length_a 20.314145
_cell_length_b 20.314145
_cell_length_c 9.661812
_cell_angle_alpha 90.000000
_cell_angle_beta 90.000000
_cell_angle_gamma 90.000000
_cell_volume 3987.086693
_symmetry_space_group_name_H-M "P 4/M M M"
_symmetry_group_IT_number 123
_symmetry_cell_setting 'tetragonal'
loop_
_space_group_symop_operation_xyz
x,y,z
-y,x,z
-x,-y,z
y,-x,z
x,-y,-z
-x,y,-z
y,x,-z
-y,-x,-z
-x,-y,-z
y,-x,-z
x,y,-z
-y,x,-z
-x,y,z
x,-y,z
-y,-x,z
y,x,z
loop_
_atom_site_type_symbol
_atom_site_label
_atom_site_fract_x
_atom_site_fract_y
_atom_site_fract_z
Si Si1 0.263520 0.846687 0.843859
Si Si2 0.500000 0.606387 0.335518
Si Si3 0.500000 0.242404 0.338069
Si Si4 0.000000 0.572925 0.336120
Si Si5 0.854405 0.616977 0.336366
Si Si6 0.073694 0.180015 0.345665
O O1 0.211915 0.788086 0.841993
O O2 0.324322 0.823801 0.752071
O O3 0.234617 0.911186 0.768991
O O4 0.284181 0.865002 0.000000
O O5 0.434335 0.565666 0.286746
O O6 0.500000 0.609554 0.500000
O O7 0.500000 0.682281 0.274593
O O8 0.500000 0.252637 0.500000
O O9 0.560522 0.196621 0.292939
O O10 0.068970 0.606415 0.288909
O O11 0.000000 0.500000 0.272245
O O12 0.000000 0.568743 0.500000
O O13 0.851673 0.630773 0.500000
O O14 0.086379 0.209526 0.500000
O O15 0.115726 0.115726 0.318670
O O16 0.000000 0.156210 0.327663
#
# Coordination Sequence:
#
# PCOD8312619 Si02
#       6
#    16   8   8   8  16  16
#     4  10  22  38  52  70 102 140 175 213 258 307
#     4   8  14  25  41  65 101 138 166 200 252 306
#     4   9  17  29  48  76 105 134 170 210 252 302
#     4   9  16  30  51  75 105 137 164 203 262 317
#     4  10  19  32  53  78 102 132 173 215 258 310
#     4   9  18  33  53  76 100 127 163 208 257 309
#
# _framework density 18.058298000000001
#
# number of rings (size 3 to 8) (size 9 to 14) (size 15 to 20)
#    0.000    2.667    1.111    1.000    1.556    2.889 
#    0.000    3.889    0.000    0.667    0.000    3.111 
#    0.000    0.000    0.000    4.889    0.000    4.000 
#
# Total GULP energy -891942.931953 kJ/mol
# GULP energy per Si atom -12388.096277 kJ/mol
# Density = 1.801720 g / cm^3
# Si number density = 18.058298 Si / 1000 Ang^3
#
#
#
# Elastic Constant Matrix: (Units=GPa)
#
#
# Indices 1 2 3 4 5 6 
#
# 1 113.0633 33.3323 38.7259 0.0000 0.0000 0.0000
# 2 33.3323 113.0633 38.7259 0.0000 0.0000 0.0000
# 3 38.7259 38.7259 75.5140 0.0000 0.0000 0.0000
# 4 0.0000 0.0000 0.0000 9.3842 0.0000 0.0000
# 5 0.0000 0.0000 0.0000 0.0000 9.3842 0.0000
# 6 0.0000 0.0000 0.0000 0.0000 0.0000 4.1495
#
#
#
# Elastic Compliance Matrix: (Units=1/GPa)
#
#
# Indices 1 2 3 4 5 6 
#
# 1 0.010958 -0.001584 -0.004807 0.000000 0.000000 0.000000
# 2 -0.001584 0.010958 -0.004807 0.000000 0.000000 0.000000
# 3 -0.004807 -0.004807 0.018173 0.000000 0.000000 0.000000
# 4 0.000000 0.000000 0.000000 0.106562 0.000000 0.000000
# 5 0.000000 0.000000 0.000000 0.000000 0.106562 0.000000
# 6 0.000000 0.000000 0.000000 0.000000 0.000000 0.240994
#
#
# Mechanical properties :
#
#
# Convention : Reuss Voigt Hill
#
# Bulk Modulus (GPa) = 56.52205 58.13428 57.32816
# Shear Modulus (GPa) = 9.56934 17.30735 13.43835
#
# Velocity S-wave (km/s) = 2.30448 3.09919 2.73090
# Velocity P-wave (km/s) = 6.20069 6.71335 6.46211
#
# Compressibility (1/GPa) = 0.01769221
#
# Stress axis : x y z
#
# Youngs Moduli (GPa) = 91.25607 91.25607 55.02578
#
# Poissons Ratio (x) = 0.14455 0.26453
# Poissons Ratio (y) = 0.14455 0.26453
# Poissons Ratio (z) = 0.43870 0.43870
#
# Static dielectric constant tensor:
#      x y z
#    x 3.553800 0.000000 0.000000 
#    y 0.000000 3.553800 0.000000 
#    z 0.000000 0.000000 3.148880 
# 
# 
# High freq. dielectric constant tensor:
#      x y z
#    x 1.703450 0.000000 0.000000 
#    y 0.000000 1.703450 0.000000 
#    z 0.000000 0.000000 1.657410 
# 
# From -- ./inp_files/1175.got.cif
#   From: 2010.03.12/outbox.cif.g09.slc.cpg/sg123_1_cif.got.tgz:1175.got - 2010.04.06 16:26:55.
