data_PCOD8312025
_publ_section_title
;
Structure prediction by ZEFSAII (Michael W. Deem and Ramdas Pophale) SiO2 
 PCOD8312025
Probable space group: I -4 2 D
;
_chemical_formula_sum "Si O2"
_cell_formula_units_Z 88
_cell_length_a 11.594820
_cell_length_b 11.594820
_cell_length_c 29.399198
_cell_angle_alpha 90.000000
_cell_angle_beta 90.000000
_cell_angle_gamma 90.000000
_cell_volume 3952.423794
_symmetry_space_group_name_H-M "I -4 2 D"
_symmetry_group_IT_number 122
_symmetry_cell_setting 'tetragonal'
loop_
_space_group_symop_operation_xyz
x,y,z
y,-x,-z
-x,-y,z
-y,x,-z
x,1/2-y,1/4-z
-x,1/2+y,1/4-z
-y,1/2-x,1/4+z
y,1/2+x,1/4+z
1/2+x,1/2+y,1/2+z
1/2+y,1/2-x,1/2-z
1/2-x,1/2-y,1/2+z
1/2-y,1/2+x,1/2-z
1/2+x,-y,3/4-z
1/2-x,y,3/4-z
1/2-y,-x,3/4+z
1/2+y,x,3/4+z
loop_
_atom_site_type_symbol
_atom_site_label
_atom_site_fract_x
_atom_site_fract_y
_atom_site_fract_z
Si Si1 0.273674 0.486900 0.157757
Si Si2 0.215761 0.118397 0.560337
Si Si3 0.410408 0.225244 0.994260
Si Si4 0.500000 0.500000 0.213078
Si Si5 0.151700 0.680885 0.197316
Si Si6 0.802935 0.109728 0.955320
O O1 0.307077 0.423241 0.111278
O O2 0.390485 0.523620 0.182070
O O3 0.206889 0.611037 0.154280
O O4 0.195758 0.398669 0.186007
O O5 0.126792 0.215438 0.541902
O O6 0.342789 0.175361 0.556872
O O7 0.196751 0.006350 0.529378
O O8 0.304456 0.208690 0.958931
O O9 0.471925 0.105483 0.004179
O O10 0.176696 0.598770 0.240696
O O11 0.017539 0.690833 0.184617
#
# Coordination Sequence:
#
# PCOD8312025 Si02
#       6
#    16  16  16   8  16  16
#     4  12  25  42  71 109 140 187 245 305 366 441
#     4  11  26  46  67 106 140 191 250 301 370 436
#     4  11  24  46  73  97 148 196 243 296 375 445
#     4  12  22  44  72  97 134 196 235 290 354 442
#     4  11  21  42  72 105 140 189 235 289 372 461
#     4  11  21  42  71 102 148 187 235 298 377 448
#
# _framework density 22.264817000000001
#
# number of rings (size 3 to 8) (size 9 to 14) (size 15 to 20)
#    0.000    0.727    5.455    4.364    0.000    2.545 
#   13.091    1.818    0.000    0.000    0.000    0.000 
#    0.000    0.000    0.000    0.000    0.000    0.000 
#
# Total GULP energy -545413.719890 kJ/mol
# GULP energy per Si atom -12395.766361 kJ/mol
# Density = 2.221414 g / cm^3
# Si number density = 22.264817 Si / 1000 Ang^3
#
#
#
# Elastic Constant Matrix: (Units=GPa)
#
#
# Indices 1 2 3 4 5 6 
#
# 1 100.4912 46.0999 22.1930 0.0000 0.0000 0.0000
# 2 46.0999 100.4912 22.1930 0.0000 0.0000 0.0000
# 3 22.1930 22.1930 74.2563 0.0000 0.0000 0.0000
# 4 0.0000 0.0000 0.0000 -71.4477 -0.0001 0.0000
# 5 0.0000 0.0000 0.0000 -0.0001 -71.4477 0.0000
# 6 0.0000 0.0000 0.0000 0.0000 0.0000 27.6810
#
#
#
# Elastic Compliance Matrix: (Units=1/GPa)
#
#
# Indices 1 2 3 4 5 6 
#
# 1 0.012943 -0.005442 -0.002242 0.000000 0.000000 0.000000
# 2 -0.005442 0.012943 -0.002242 0.000000 0.000000 0.000000
# 3 -0.002242 -0.002242 0.014807 0.000000 0.000000 0.000000
# 4 0.000000 0.000000 0.000000 -0.013996 0.000000 0.000000
# 5 0.000000 0.000000 0.000000 0.000000 -0.013996 0.000000
# 6 0.000000 0.000000 0.000000 0.000000 0.000000 0.036126
#
#
# Mechanical properties :
#
#
# Convention : Reuss Voigt Hill
#
# Bulk Modulus (GPa) = 47.98225 50.69008 49.33616
# Shear Modulus (GPa) = 66.11622 -10.72604 27.69509
#
# Velocity S-wave (km/s) = 5.45526 -2.19726 3.53072
# Velocity P-wave (km/s) = 7.82798 4.04711 6.23123
#
# Compressibility (1/GPa) = 0.02084104
#
# Stress axis : x y z
#
# Youngs Moduli (GPa) = 77.26260 77.26260 67.53650
#
# Poissons Ratio (x) = 0.42050 0.15139
# Poissons Ratio (y) = 0.42050 0.15139
# Poissons Ratio (z) = 0.17320 0.17320
#
# Static dielectric constant tensor:
#      x y z
#    x 4.289270 0.000000 0.000000 
#    y 0.000000 4.289270 0.000000 
#    z 0.000000 0.000000 3.875970 
# 
# 
# High freq. dielectric constant tensor:
#      x y z
#    x 1.885920 0.000000 0.000000 
#    y 0.000000 1.885920 0.000000 
#    z 0.000000 0.000000 1.853420 
# 
# From -- ./inp_files/9519.got.cif
#   From: 2010.03.12/outbox.cif.g09.slc.cpg/sg122_5_cif.got.tgz:9519.got - 2010.04.06 16:17:16.
