data_PCOD8312986
_publ_section_title
;
Structure prediction by ZEFSAII (Michael W. Deem and Ramdas Pophale) SiO2 
 PCOD8312986
Probable space group: P 4/M M M
;
_chemical_formula_sum "Si O2"
_cell_formula_units_Z 96
_cell_length_a 25.259212
_cell_length_b 25.259212
_cell_length_c 9.764101
_cell_angle_alpha 90.000000
_cell_angle_beta 90.000000
_cell_angle_gamma 90.000000
_cell_volume 6229.767791
_symmetry_space_group_name_H-M "P 4/M M M"
_symmetry_group_IT_number 123
_symmetry_cell_setting 'tetragonal'
loop_
_space_group_symop_operation_xyz
x,y,z
-y,x,z
-x,-y,z
y,-x,z
x,-y,-z
-x,y,-z
y,x,-z
-y,-x,-z
-x,-y,-z
y,-x,-z
x,y,-z
-y,x,-z
-x,y,z
x,-y,z
-y,-x,z
y,x,z
loop_
_atom_site_type_symbol
_atom_site_label
_atom_site_fract_x
_atom_site_fract_y
_atom_site_fract_z
Si Si1 0.061372 0.646358 0.339970
Si Si2 0.646624 0.439090 0.841652
Si Si3 0.941049 0.142232 0.836982
Si Si4 0.937195 0.258783 0.848238
Si Si5 0.441390 0.857772 0.662577
Si Si6 0.258700 0.562950 0.347402
O O1 0.070519 0.657028 0.500000
O O2 0.082515 0.697693 0.259544
O O3 0.095904 0.597157 0.285051
O O4 0.000000 0.633893 0.308314
O O5 0.633940 0.500000 0.804215
O O6 0.594512 0.405489 0.805087
O O7 0.696037 0.416380 0.755077
O O8 0.662154 0.433201 0.000000
O O9 0.901537 0.098464 0.774170
O O10 0.919448 0.200576 0.796329
O O11 0.000000 0.132082 0.777339
O O12 0.943024 0.138368 0.000000
O O13 0.000000 0.258727 0.857152
O O14 0.913956 0.271109 0.000000
O O15 0.445414 0.859123 0.500000
O O16 0.500000 0.867939 0.725142
O O17 0.419207 0.799631 0.705743
O O18 0.270087 0.585454 0.500000
O O19 0.258732 0.500000 0.351960
#
# Coordination Sequence:
#
# PCOD8312986 Si02
#       6
#    16  16  16  16  16  16
#     4   9  16  25  40  62  83 103 130 163 195 229
#     4   9  17  28  42  61  84 107 130 159 195 233
#     4   8  13  21  35  56  79 102 129 161 197 236
#     4   8  14  25  39  54  76 107 137 161 189 229
#     4   8  14  25  41  61  83 104 127 159 199 238
#     4   8  14  26  43  59  76 103 137 165 189 225
#
# _framework density 15.409884999999999
#
# number of rings (size 3 to 8) (size 9 to 14) (size 15 to 20)
#    0.000    3.667    0.000    2.000    0.000    1.000 
#    0.000    4.167    0.000    3.000    0.000    9.333 
#    0.000    0.000    0.000    6.500    0.000    6.667 
#
# Total GULP energy -1189606.362438 kJ/mol
# GULP energy per Si atom -12391.732942 kJ/mol
# Density = 1.537481 g / cm^3
# Si number density = 15.409885 Si / 1000 Ang^3
#
#
#
# Elastic Constant Matrix: (Units=GPa)
#
#
# Indices 1 2 3 4 5 6 
#
# 1 100.2537 64.4472 37.4877 0.0000 0.0000 0.0000
# 2 64.4472 100.2537 37.4877 0.0000 0.0000 0.0000
# 3 37.4877 37.4877 41.4022 0.0000 0.0000 0.0000
# 4 0.0000 0.0000 0.0000 16.8803 0.0000 0.0000
# 5 0.0000 0.0000 0.0000 0.0000 16.8803 0.0000
# 6 0.0000 0.0000 0.0000 0.0000 0.0000 6.2097
#
#
#
# Elastic Compliance Matrix: (Units=1/GPa)
#
#
# Indices 1 2 3 4 5 6 
#
# 1 0.019128 -0.008799 -0.009352 0.000000 0.000000 0.000000
# 2 -0.008799 0.019128 -0.009352 0.000000 0.000000 0.000000
# 3 -0.009352 -0.009352 0.041090 0.000000 0.000000 0.000000
# 4 0.000000 0.000000 0.000000 0.059241 0.000000 0.000000
# 5 0.000000 0.000000 0.000000 0.000000 0.059241 0.000000
# 6 0.000000 0.000000 0.000000 0.000000 0.000000 0.161038
#
#
# Mechanical properties :
#
#
# Convention : Reuss Voigt Hill
#
# Bulk Modulus (GPa) = 41.08801 57.86164 49.47483
# Shear Modulus (GPa) = 11.84870 14.82653 13.33761
#
# Velocity S-wave (km/s) = 2.77592 3.10521 2.94517
# Velocity P-wave (km/s) = 6.08240 7.10537 6.61370
#
# Compressibility (1/GPa) = 0.02433800
#
# Stress axis : x y z
#
# Youngs Moduli (GPa) = 52.27814 52.27814 24.33695
#
# Poissons Ratio (x) = 0.46002 0.22761
# Poissons Ratio (y) = 0.46002 0.22761
# Poissons Ratio (z) = 0.48893 0.48893
#
# Static dielectric constant tensor:
#      x y z
#    x 3.111480 0.000000 0.000000 
#    y 0.000000 3.111480 0.000000 
#    z 0.000000 0.000000 2.826680 
# 
# 
# High freq. dielectric constant tensor:
#      x y z
#    x 1.577830 0.000000 0.000000 
#    y 0.000000 1.577830 0.000000 
#    z 0.000000 0.000000 1.558800 
# 
# From -- ./inp_files/1868.got.cif
#   From: 2010.03.12/outbox.cif.g09.slc.cpg/sg123_1_cif.got.tgz:1868.got - 2010.04.06 16:26:55.
