data_PCOD8312906
_publ_section_title
;
Structure prediction by ZEFSAII (Michael W. Deem and Ramdas Pophale) SiO2 
 PCOD8312906
Probable space group: P 4/M M M
;
_chemical_formula_sum "Si O2"
_cell_formula_units_Z 104
_cell_length_a 17.917031
_cell_length_b 17.917031
_cell_length_c 17.869497
_cell_angle_alpha 90.000000
_cell_angle_beta 90.000000
_cell_angle_gamma 90.000000
_cell_volume 5736.465924
_symmetry_space_group_name_H-M "P 4/M M M"
_symmetry_group_IT_number 123
_symmetry_cell_setting 'tetragonal'
loop_
_space_group_symop_operation_xyz
x,y,z
-y,x,z
-x,-y,z
y,-x,z
x,-y,-z
-x,y,-z
y,x,-z
-y,-x,-z
-x,-y,-z
y,-x,-z
x,y,-z
-y,x,-z
-x,y,z
x,-y,z
-y,-x,z
y,x,z
loop_
_atom_site_type_symbol
_atom_site_label
_atom_site_fract_x
_atom_site_fract_y
_atom_site_fract_z
Si Si1 0.300058 0.417103 0.172286
Si Si2 0.201364 0.083381 0.587714
Si Si3 0.148356 0.351341 0.648225
Si Si4 0.417050 0.302146 0.350395
Si Si5 0.180864 0.303877 0.190108
Si Si6 0.500000 0.086339 0.582945
Si Si7 0.794086 0.914815 0.913437
O O1 0.298233 0.500000 0.136659
O O2 0.373834 0.373834 0.142979
O O3 0.301789 0.422238 0.261374
O O4 0.225740 0.371225 0.149453
O O5 0.188689 0.078712 0.500000
O O6 0.138574 0.138574 0.623394
O O7 0.283770 0.114826 0.601078
O O8 0.192972 0.000000 0.622651
O O9 0.234013 0.364694 0.623971
O O10 0.139504 0.332785 0.735852
O O11 0.105625 0.427504 0.631278
O O12 0.500000 0.295911 0.385439
O O13 0.378528 0.378528 0.378685
O O14 0.239198 0.239198 0.213364
O O15 0.118691 0.274514 0.133178
O O16 0.500000 0.125123 0.500000
O O17 0.500000 0.000000 0.568848
O O18 0.870131 0.870131 0.896398
O O19 0.807904 0.000000 0.889351
O O20 0.771790 0.908324 0.000000
#
# Coordination Sequence:
#
# PCOD8312906 Si02
#       7
#    16  16  16  16  16   8  16
#     4   8  14  24  41  66  97 128 160 203 249 293
#     4  10  21  36  54  75  99 129 165 208 260 318
#     4  11  19  34  53  76 102 136 173 217 264 316
#     4   9  16  27  44  70  99 128 164 206 253 301
#     4   9  18  31  51  76 103 137 174 214 255 305
#     4  11  24  38  52  74 104 134 170 222 278 329
#     4   9  18  33  53  78 108 141 178 220 266 317
#
# _framework density 18.129629000000001
#
# number of rings (size 3 to 8) (size 9 to 14) (size 15 to 20)
#    0.000    2.538    0.769    3.231    1.077    3.077 
#    0.000    3.077    0.000    0.462    0.000    3.231 
#    0.000    0.615    0.000    6.000    0.000    4.769 
#
# Total GULP energy -1289194.351721 kJ/mol
# GULP energy per Si atom -12396.099536 kJ/mol
# Density = 1.808837 g / cm^3
# Si number density = 18.129629 Si / 1000 Ang^3
#
#
#
# Elastic Constant Matrix: (Units=GPa)
#
#
# Indices 1 2 3 4 5 6 
#
# 1 140.2676 71.1564 34.6264 0.0000 0.0000 0.0000
# 2 71.1564 140.2676 34.6264 0.0000 0.0000 0.0000
# 3 34.6264 34.6264 46.6863 0.0000 0.0000 0.0000
# 4 0.0000 0.0000 0.0000 28.7280 0.0000 0.0000
# 5 0.0000 0.0000 0.0000 0.0000 28.7280 0.0000
# 6 0.0000 0.0000 0.0000 0.0000 0.0000 21.8061
#
#
#
# Elastic Compliance Matrix: (Units=1/GPa)
#
#
# Indices 1 2 3 4 5 6 
#
# 1 0.010359 -0.004111 -0.004634 0.000000 0.000000 0.000000
# 2 -0.004111 0.010359 -0.004634 0.000000 0.000000 0.000000
# 3 -0.004634 -0.004634 0.028293 0.000000 0.000000 0.000000
# 4 0.000000 0.000000 0.000000 0.034809 0.000000 0.000000
# 5 0.000000 0.000000 0.000000 0.000000 0.034809 0.000000
# 6 0.000000 0.000000 0.000000 0.000000 0.000000 0.045859
#
#
# Mechanical properties :
#
#
# Convention : Reuss Voigt Hill
#
# Bulk Modulus (GPa) = 44.93708 67.55997 56.24852
# Shear Modulus (GPa) = 25.16839 28.30660 26.73749
#
# Velocity S-wave (km/s) = 3.72996 3.95567 3.84447
# Velocity P-wave (km/s) = 6.58715 7.62948 7.12739
#
# Compressibility (1/GPa) = 0.02225334
#
# Stress axis : x y z
#
# Youngs Moduli (GPa) = 96.53878 96.53878 35.34434
#
# Poissons Ratio (x) = 0.39686 0.16378
# Poissons Ratio (y) = 0.39686 0.16378
# Poissons Ratio (z) = 0.44734 0.44734
#
# Static dielectric constant tensor:
#      x y z
#    x 3.579900 0.000000 0.000000 
#    y 0.000000 3.579900 0.000000 
#    z 0.000000 0.000000 2.974980 
# 
# 
# High freq. dielectric constant tensor:
#      x y z
#    x 1.708960 0.000000 0.000000 
#    y 0.000000 1.708960 0.000000 
#    z 0.000000 0.000000 1.656420 
# 
# From -- ./inp_files/5651.got.cif
#   From: 2010.03.12/outbox.cif.g09.slc.cpg/sg123_3_cif.got.tgz:5651.got - 2010.04.06 16:26:55.
