data_PCOD8312697
_publ_section_title
;
Structure prediction by ZEFSAII (Michael W. Deem and Ramdas Pophale) SiO2 
 PCOD8312697
Probable space group: P 4/M M M
;
_chemical_formula_sum "Si O2"
_cell_formula_units_Z 64
_cell_length_a 13.384496
_cell_length_b 13.384496
_cell_length_c 20.407967
_cell_angle_alpha 90.000000
_cell_angle_beta 90.000000
_cell_angle_gamma 90.000000
_cell_volume 3655.979803
_symmetry_space_group_name_H-M "P 4/M M M"
_symmetry_group_IT_number 123
_symmetry_cell_setting 'tetragonal'
loop_
_space_group_symop_operation_xyz
x,y,z
-y,x,z
-x,-y,z
y,-x,z
x,-y,-z
-x,y,-z
y,x,-z
-y,-x,-z
-x,-y,-z
y,-x,-z
x,y,-z
-y,x,-z
-x,y,z
x,-y,z
-y,-x,z
y,x,z
loop_
_atom_site_type_symbol
_atom_site_label
_atom_site_fract_x
_atom_site_fract_y
_atom_site_fract_z
Si Si1 0.881555 0.388575 0.572040
Si Si2 0.114498 0.724539 0.075066
Si Si3 0.882676 0.723623 0.300764
Si Si4 0.615780 0.220057 0.186892
O O1 0.848519 0.348376 0.500000
O O2 0.837775 0.500000 0.582757
O O3 0.842809 0.316118 0.629094
O O4 0.000000 0.394283 0.576083
O O5 0.170306 0.829695 0.087138
O O6 0.164366 0.638500 0.118654
O O7 0.000000 0.741063 0.095662
O O8 0.124057 0.689478 0.000000
O O9 0.828061 0.828061 0.285574
O O10 0.855127 0.642581 0.245780
O O11 0.000000 0.744133 0.300189
O O12 0.500000 0.248006 0.189698
O O13 0.677403 0.322598 0.193272
#
# Coordination Sequence:
#
# PCOD8312697 Si02
#       4
#    16  16  16  16
#     4   8  14  26  45  67  89 116 154 199 242 280
#     4   9  18  32  50  74 103 133 165 199 234 275
#     4  10  20  32  47  69  97 129 164 200 238 283
#     4  10  21  36  53  73  96 122 156 199 245 293
#
# _framework density 17.505569000000001
#
# number of rings (size 3 to 8) (size 9 to 14) (size 15 to 20)
#    0.000    2.750    0.000    2.250    0.000    4.750 
#    0.000    2.500    0.000    4.500    0.000    7.000 
#    0.000    0.000    0.000   23.250    0.000    1.250 
#
# Total GULP energy -793456.339780 kJ/mol
# GULP energy per Si atom -12397.755309 kJ/mol
# Density = 1.746573 g / cm^3
# Si number density = 17.505569 Si / 1000 Ang^3
#
#
#
# Elastic Constant Matrix: (Units=GPa)
#
#
# Indices 1 2 3 4 5 6 
#
# 1 94.8549 35.2334 40.7127 0.0000 0.0000 0.0000
# 2 35.2334 94.8549 40.7127 0.0000 0.0000 0.0000
# 3 40.7127 40.7127 105.1687 0.0000 0.0000 0.0000
# 4 0.0000 0.0000 0.0000 24.5512 0.0000 0.0000
# 5 0.0000 0.0000 0.0000 0.0000 24.5512 0.0000
# 6 0.0000 0.0000 0.0000 0.0000 0.0000 11.2540
#
#
#
# Elastic Compliance Matrix: (Units=1/GPa)
#
#
# Indices 1 2 3 4 5 6 
#
# 1 0.013459 -0.003314 -0.003927 0.000000 0.000000 0.000000
# 2 -0.003314 0.013459 -0.003927 0.000000 0.000000 0.000000
# 3 -0.003927 -0.003927 0.012549 0.000000 0.000000 0.000000
# 4 0.000000 0.000000 0.000000 0.040731 0.000000 0.000000
# 5 0.000000 0.000000 0.000000 0.000000 0.040731 0.000000
# 6 0.000000 0.000000 0.000000 0.000000 0.000000 0.088857
#
#
# Mechanical properties :
#
#
# Convention : Reuss Voigt Hill
#
# Bulk Modulus (GPa) = 58.37634 58.68848 58.53241
# Shear Modulus (GPa) = 21.02310 23.95261 22.48786
#
# Velocity S-wave (km/s) = 3.46921 3.70305 3.58804
# Velocity P-wave (km/s) = 7.03328 7.20290 7.11859
#
# Compressibility (1/GPa) = 0.01713023
#
# Stress axis : x y z
#
# Youngs Moduli (GPa) = 74.30017 74.30017 79.68571
#
# Poissons Ratio (x) = 0.24620 0.31296
# Poissons Ratio (y) = 0.24620 0.31296
# Poissons Ratio (z) = 0.29181 0.29181
#
# Static dielectric constant tensor:
#      x y z
#    x 3.024060 0.000000 0.000000 
#    y 0.000000 3.024060 0.000000 
#    z 0.000000 0.000000 3.637470 
# 
# 
# High freq. dielectric constant tensor:
#      x y z
#    x 1.655990 0.000000 0.000000 
#    y 0.000000 1.655990 0.000000 
#    z 0.000000 0.000000 1.698370 
# 
# From -- ./inp_files/4937.got.cif
#   From: 2010.03.12/outbox.cif.g09.slc.cpg/sg123_3_cif.got.tgz:4937.got - 2010.04.06 16:26:55.
