data_PCOD8312232
_publ_section_title
;
Structure prediction by ZEFSAII (Michael W. Deem and Ramdas Pophale) SiO2 
 PCOD8312232
Probable space group: P 4/M M M
;
_chemical_formula_sum "Si O2"
_cell_formula_units_Z 104
_cell_length_a 20.652841
_cell_length_b 20.652841
_cell_length_c 13.955944
_cell_angle_alpha 90.000000
_cell_angle_beta 90.000000
_cell_angle_gamma 90.000000
_cell_volume 5952.766140
_symmetry_space_group_name_H-M "P 4/M M M"
_symmetry_group_IT_number 123
_symmetry_cell_setting 'tetragonal'
loop_
_space_group_symop_operation_xyz
x,y,z
-y,x,z
-x,-y,z
y,-x,z
x,-y,-z
-x,y,-z
y,x,-z
-y,-x,-z
-x,-y,-z
y,-x,-z
x,y,-z
-y,x,-z
-x,y,z
x,-y,z
-y,-x,z
y,x,z
loop_
_atom_site_type_symbol
_atom_site_label
_atom_site_fract_x
_atom_site_fract_y
_atom_site_fract_z
Si Si1 0.684751 0.575321 0.216099
Si Si2 0.167962 0.070507 0.611178
Si Si3 0.120397 0.303796 0.390570
Si Si4 0.184474 0.575996 0.890214
Si Si5 0.923472 0.500000 0.393311
Si Si6 0.391877 0.927186 0.750922
Si Si7 0.635926 0.257222 0.605618
O O1 0.663635 0.500000 0.200645
O O2 0.622699 0.622699 0.198092
O O3 0.743700 0.595622 0.145912
O O4 0.713644 0.582397 0.322857
O O5 0.154985 0.059373 0.500000
O O6 0.105548 0.105548 0.658396
O O7 0.227093 0.120550 0.622428
O O8 0.179240 0.000000 0.659779
O O9 0.099860 0.322414 0.500000
O O10 0.068837 0.325905 0.309791
O O11 0.188258 0.336306 0.361766
O O12 0.173954 0.500000 0.876347
O O13 0.124540 0.611091 0.836943
O O14 0.180023 0.597524 0.000000
O O15 0.891646 0.500000 0.500000
O O16 0.899712 0.439575 0.331453
O O17 0.000000 0.500000 0.404052
O O18 0.409731 0.000000 0.788674
O O19 0.603952 0.253499 0.500000
O O20 0.697807 0.302194 0.604124
#
# Coordination Sequence:
#
# PCOD8312232 Si02
#       7
#    16  16  16  16   8  16  16
#     4  10  21  38  59  83 109 135 168 212 264 323
#     4   9  17  28  42  62  91 130 175 219 261 304
#     4  10  18  29  46  70 102 139 175 212 258 308
#     4  10  21  38  57  75  98 130 170 216 264 310
#     4   9  18  30  43  65 101 139 171 206 248 296
#     4  11  20  31  47  72 104 137 176 214 254 303
#     4   9  17  30  50  76 105 138 174 212 255 308
#
# _framework density 17.470870000000001
#
# number of rings (size 3 to 8) (size 9 to 14) (size 15 to 20)
#    0.000    2.231    2.308    1.385    0.000    4.615 
#    0.000    1.538    0.000    0.000    0.000    4.308 
#    0.000    0.000    0.000    0.000    0.000    0.154 
#
# Total GULP energy -1288360.726599 kJ/mol
# GULP energy per Si atom -12388.083910 kJ/mol
# Density = 1.743111 g / cm^3
# Si number density = 17.470870 Si / 1000 Ang^3
#
#
#
# Elastic Constant Matrix: (Units=GPa)
#
#
# Indices 1 2 3 4 5 6 
#
# 1 88.3257 43.9908 37.5346 0.0000 0.0000 0.0000
# 2 43.9908 88.3257 37.5346 0.0000 0.0000 0.0000
# 3 37.5346 37.5346 94.0482 0.0000 0.0000 0.0000
# 4 0.0000 0.0000 0.0000 14.1611 0.0000 0.0000
# 5 0.0000 0.0000 0.0000 0.0000 14.1611 0.0000
# 6 0.0000 0.0000 0.0000 0.0000 0.0000 16.8011
#
#
#
# Elastic Compliance Matrix: (Units=1/GPa)
#
#
# Indices 1 2 3 4 5 6 
#
# 1 0.016163 -0.006393 -0.003899 0.000000 0.000000 0.000000
# 2 -0.006393 0.016163 -0.003899 0.000000 0.000000 0.000000
# 3 -0.003899 -0.003899 0.013745 0.000000 0.000000 0.000000
# 4 0.000000 0.000000 0.000000 0.070616 0.000000 0.000000
# 5 0.000000 0.000000 0.000000 0.000000 0.070616 0.000000
# 6 0.000000 0.000000 0.000000 0.000000 0.000000 0.059520
#
#
# Mechanical properties :
#
#
# Convention : Reuss Voigt Hill
#
# Bulk Modulus (GPa) = 56.53482 56.53552 56.53517
# Shear Modulus (GPa) = 17.78719 19.13394 18.46057
#
# Velocity S-wave (km/s) = 3.19424 3.31296 3.25414
# Velocity P-wave (km/s) = 6.78483 6.86035 6.82269
#
# Compressibility (1/GPa) = 0.01768822
#
# Stress axis : x y z
#
# Youngs Moduli (GPa) = 61.87090 61.87090 72.75311
#
# Poissons Ratio (x) = 0.39553 0.28367
# Poissons Ratio (y) = 0.39553 0.28367
# Poissons Ratio (z) = 0.24124 0.24124
#
# Static dielectric constant tensor:
#      x y z
#    x 3.299980 0.000000 0.000000 
#    y 0.000000 3.299980 0.000000 
#    z 0.000000 0.000000 3.156340 
# 
# 
# High freq. dielectric constant tensor:
#      x y z
#    x 1.671330 0.000000 0.000000 
#    y 0.000000 1.671330 0.000000 
#    z 0.000000 0.000000 1.639120 
# 
# From -- ./inp_files/4514.got.cif
#   From: 2010.03.12/outbox.cif.g09.slc.cpg/sg123_3_cif.got.tgz:4514.got - 2010.04.06 16:26:55.
