data_PCOD8312342
_publ_section_title
;
Structure prediction by ZEFSAII (Michael W. Deem and Ramdas Pophale) SiO2 
 PCOD8312342
Probable space group: P 4/M M M
;
_chemical_formula_sum "Si O2"
_cell_formula_units_Z 96
_cell_length_a 14.204342
_cell_length_b 14.204342
_cell_length_c 30.821371
_cell_angle_alpha 90.000000
_cell_angle_beta 90.000000
_cell_angle_gamma 90.000000
_cell_volume 6218.622499
_symmetry_space_group_name_H-M "P 4/M M M"
_symmetry_group_IT_number 123
_symmetry_cell_setting 'tetragonal'
loop_
_space_group_symop_operation_xyz
x,y,z
-y,x,z
-x,-y,z
y,-x,z
x,-y,-z
-x,y,-z
y,x,-z
-y,-x,-z
-x,-y,-z
y,-x,-z
x,y,-z
-y,x,-z
-x,y,z
x,-y,z
-y,-x,z
y,x,z
loop_
_atom_site_type_symbol
_atom_site_label
_atom_site_fract_x
_atom_site_fract_y
_atom_site_fract_z
Si Si1 0.108352 0.737848 0.718273
Si Si2 0.107882 0.742109 0.620460
Si Si3 0.111945 0.265007 0.126015
Si Si4 0.395176 0.888358 0.951675
Si Si5 0.888865 0.395008 0.794418
Si Si6 0.111677 0.395380 0.547930
O O1 0.168861 0.831140 0.727282
O O2 0.120688 0.700947 0.668983
O O3 0.142795 0.653845 0.749475
O O4 0.000000 0.765203 0.727897
O O5 0.158089 0.841912 0.616071
O O6 0.153504 0.670099 0.585851
O O7 0.000000 0.761763 0.609334
O O8 0.165129 0.165129 0.129029
O O9 0.146968 0.318183 0.082622
O O10 0.144680 0.330860 0.165690
O O11 0.000000 0.245093 0.126463
O O12 0.500000 0.849914 0.940065
O O13 0.398878 0.000000 0.949885
O O14 0.366015 0.854334 0.000000
O O15 0.843886 0.500000 0.797135
O O16 0.000000 0.405036 0.796203
O O17 0.139778 0.356992 0.500000
O O18 0.153288 0.500000 0.554269
O O19 0.000000 0.399613 0.552313
#
# Coordination Sequence:
#
# PCOD8312342 Si02
#       6
#    16  16  16  16  16  16
#     4   9  17  28  41  59  84 112 140 167 195 233
#     4   9  17  27  39  57  82 112 142 168 194 229
#     4  10  19  29  42  61  87 118 147 172 199 237
#     4   8  14  26  44  63  82 107 141 180 218 249
#     4   9  17  29  44  60  78 102 134 174 217 250
#     4   8  14  25  40  56  74  99 133 172 212 249
#
# _framework density 15.437502
#
# number of rings (size 3 to 8) (size 9 to 14) (size 15 to 20)
#    0.000    3.167    0.000    2.000    0.000    3.833 
#    0.000    5.000    0.000    3.000    0.000    4.667 
#    0.000   16.000    0.000   16.500    0.000    5.500 
#
# Total GULP energy -1189736.952446 kJ/mol
# GULP energy per Si atom -12393.093255 kJ/mol
# Density = 1.540237 g / cm^3
# Si number density = 15.437502 Si / 1000 Ang^3
#
#
#
# Elastic Constant Matrix: (Units=GPa)
#
#
# Indices 1 2 3 4 5 6 
#
# 1 63.2863 34.3672 49.0136 0.0000 0.0000 0.0000
# 2 34.3672 63.2863 49.0136 0.0000 0.0000 0.0000
# 3 49.0136 49.0136 124.6138 0.0000 0.0000 0.0000
# 4 0.0000 0.0000 0.0000 20.9092 0.0000 0.0000
# 5 0.0000 0.0000 0.0000 0.0000 20.9092 0.0000
# 6 0.0000 0.0000 0.0000 0.0000 0.0000 4.0681
#
#
#
# Elastic Compliance Matrix: (Units=1/GPa)
#
#
# Indices 1 2 3 4 5 6 
#
# 1 0.025750 -0.008829 -0.006656 0.000000 0.000000 0.000000
# 2 -0.008829 0.025750 -0.006656 0.000000 0.000000 0.000000
# 3 -0.006656 -0.006656 0.013260 0.000000 0.000000 0.000000
# 4 0.000000 0.000000 0.000000 0.047826 0.000000 0.000000
# 5 0.000000 0.000000 0.000000 0.000000 0.047826 0.000000
# 6 0.000000 0.000000 0.000000 0.000000 0.000000 0.245814
#
#
# Mechanical properties :
#
#
# Convention : Reuss Voigt Hill
#
# Bulk Modulus (GPa) = 48.82630 57.33057 53.07844
# Shear Modulus (GPa) = 10.93295 17.09679 14.01487
#
# Velocity S-wave (km/s) = 2.66410 3.33150 3.01632
# Velocity P-wave (km/s) = 6.41563 7.21224 6.82556
#
# Compressibility (1/GPa) = 0.02048076
#
# Stress axis : x y z
#
# Youngs Moduli (GPa) = 38.83460 38.83460 75.41272
#
# Poissons Ratio (x) = 0.34287 0.50191
# Poissons Ratio (y) = 0.34287 0.50191
# Poissons Ratio (z) = 0.25847 0.25847
#
# Static dielectric constant tensor:
#      x y z
#    x 2.768770 0.000000 0.000000 
#    y 0.000000 2.768770 0.000000 
#    z 0.000000 0.000000 3.339040 
# 
# 
# High freq. dielectric constant tensor:
#      x y z
#    x 1.557280 0.000000 0.000000 
#    y 0.000000 1.557280 0.000000 
#    z 0.000000 0.000000 1.613460 
# 
# From -- ./inp_files/8585.got.cif
#   From: 2010.03.12/outbox.cif.g09.slc.cpg/sg123_5_cif.got.tgz:8585.got - 2010.04.06 16:26:55.
