data_PCOD8312575
_publ_section_title
;
Structure prediction by ZEFSAII (Michael W. Deem and Ramdas Pophale) SiO2 
 PCOD8312575
Probable space group: P 4/M M M
;
_chemical_formula_sum "Si O2"
_cell_formula_units_Z 80
_cell_length_a 23.013580
_cell_length_b 23.013580
_cell_length_c 9.182761
_cell_angle_alpha 90.000000
_cell_angle_beta 90.000000
_cell_angle_gamma 90.000000
_cell_volume 4863.418550
_symmetry_space_group_name_H-M "P 4/M M M"
_symmetry_group_IT_number 123
_symmetry_cell_setting 'tetragonal'
loop_
_space_group_symop_operation_xyz
x,y,z
-y,x,z
-x,-y,z
y,-x,z
x,-y,-z
-x,y,-z
y,x,-z
-y,-x,-z
-x,-y,-z
y,-x,-z
x,y,-z
-y,x,-z
-x,y,z
x,-y,z
-y,-x,z
y,x,z
loop_
_atom_site_type_symbol
_atom_site_label
_atom_site_fract_x
_atom_site_fract_y
_atom_site_fract_z
Si Si1 0.633587 0.065979 0.331078
Si Si2 0.819568 0.565522 0.329174
Si Si3 0.729911 0.872045 0.834701
Si Si4 0.845264 0.845264 0.672989
Si Si5 0.339334 0.246550 0.164834
Si Si6 0.063784 0.063784 0.326897
O O1 0.651086 0.072769 0.500000
O O2 0.585693 0.114694 0.288829
O O3 0.689576 0.077527 0.231618
O O4 0.610603 0.000000 0.300848
O O5 0.809917 0.569195 0.500000
O O6 0.812941 0.500000 0.270995
O O7 0.767726 0.603640 0.259236
O O8 0.784994 0.867593 0.733301
O O9 0.700844 0.809453 0.829609
O O10 0.746219 0.888813 0.000000
O O11 0.841356 0.841356 0.500000
O O12 0.890979 0.890979 0.735619
O O13 0.302176 0.302176 0.224597
O O14 0.359157 0.259338 0.000000
O O15 0.064527 0.064527 0.500000
O O16 0.000000 0.080956 0.269674
#
# Coordination Sequence:
#
# PCOD8312575 Si02
#       6
#    16  16  16   8  16   8
#     4   9  18  32  48  67  93 127 166 203 238 281
#     4   9  18  31  47  71 100 128 161 201 242 282
#     4  10  19  32  47  66  94 122 151 191 238 285
#     4  11  20  29  48  74  92 112 144 186 239 295
#     4   9  17  31  49  68  92 125 161 194 231 275
#     4   8  16  32  49  62  78 102 134 174 222 277
#
# _framework density 16.449334
#
# number of rings (size 3 to 8) (size 9 to 14) (size 15 to 20)
#    0.000    2.700    1.000    1.200    0.000    3.200 
#    0.000    4.000    0.000    1.800    0.000    8.400 
#    0.000    0.400    0.000    4.400    0.000    3.200 
#
# Total GULP energy -991507.483235 kJ/mol
# GULP energy per Si atom -12393.843540 kJ/mol
# Density = 1.641189 g / cm^3
# Si number density = 16.449334 Si / 1000 Ang^3
#
#
#
# Elastic Constant Matrix: (Units=GPa)
#
#
# Indices 1 2 3 4 5 6 
#
# 1 94.6037 60.1168 38.2595 0.0000 0.0000 0.0000
# 2 60.1168 94.6037 38.2595 0.0000 0.0000 0.0000
# 3 38.2595 38.2595 62.6559 0.0000 0.0000 0.0000
# 4 0.0000 0.0000 0.0000 18.2740 0.0000 0.0000
# 5 0.0000 0.0000 0.0000 0.0000 18.2740 0.0000
# 6 0.0000 0.0000 0.0000 0.0000 0.0000 19.2693
#
#
#
# Elastic Compliance Matrix: (Units=1/GPa)
#
#
# Indices 1 2 3 4 5 6 
#
# 1 0.019128 -0.009868 -0.005654 0.000000 0.000000 0.000000
# 2 -0.009868 0.019128 -0.005654 0.000000 0.000000 0.000000
# 3 -0.005654 -0.005654 0.022865 0.000000 0.000000 0.000000
# 4 0.000000 0.000000 0.000000 0.054722 0.000000 0.000000
# 5 0.000000 0.000000 0.000000 0.000000 0.054722 0.000000
# 6 0.000000 0.000000 0.000000 0.000000 0.000000 0.051896
#
#
# Mechanical properties :
#
#
# Convention : Reuss Voigt Hill
#
# Bulk Modulus (GPa) = 53.28253 58.34834 55.81543
# Shear Modulus (GPa) = 18.44528 18.84531 18.64530
#
# Velocity S-wave (km/s) = 3.35227 3.38843 3.37040
# Velocity P-wave (km/s) = 6.88810 7.13142 7.01081
#
# Compressibility (1/GPa) = 0.01876788
#
# Stress axis : x y z
#
# Youngs Moduli (GPa) = 52.27914 52.27914 43.73418
#
# Poissons Ratio (x) = 0.51591 0.24728
# Poissons Ratio (y) = 0.51591 0.24728
# Poissons Ratio (z) = 0.29560 0.29560
#
# Static dielectric constant tensor:
#      x y z
#    x 3.124280 0.000000 0.000000 
#    y 0.000000 3.124280 0.000000 
#    z 0.000000 0.000000 3.108870 
# 
# 
# High freq. dielectric constant tensor:
#      x y z
#    x 1.618560 0.000000 0.000000 
#    y 0.000000 1.618560 0.000000 
#    z 0.000000 0.000000 1.627740 
# 
# From -- ./inp_files/1450.got.cif
#   From: 2010.03.12/outbox.cif.g09.slc.cpg/sg123_1_cif.got.tgz:1450.got - 2010.04.06 16:26:55.
