data_PCOD8312840
_publ_section_title
;
Structure prediction by ZEFSAII (Michael W. Deem and Ramdas Pophale) SiO2 
 PCOD8312840
Probable space group: P 4/M M M
;
_chemical_formula_sum "Si O2"
_cell_formula_units_Z 60
_cell_length_a 13.497309
_cell_length_b 13.497309
_cell_length_c 19.400745
_cell_angle_alpha 90.000000
_cell_angle_beta 90.000000
_cell_angle_gamma 90.000000
_cell_volume 3534.376317
_symmetry_space_group_name_H-M "P 4/M M M"
_symmetry_group_IT_number 123
_symmetry_cell_setting 'tetragonal'
loop_
_space_group_symop_operation_xyz
x,y,z
-y,x,z
-x,-y,z
y,-x,z
x,-y,-z
-x,y,-z
y,x,-z
-y,-x,-z
-x,-y,-z
y,-x,-z
x,y,-z
-y,x,-z
-x,y,z
x,-y,z
-y,-x,z
y,x,z
loop_
_atom_site_type_symbol
_atom_site_label
_atom_site_fract_x
_atom_site_fract_y
_atom_site_fract_z
Si Si1 0.254542 0.745459 0.576765
Si Si2 0.775948 0.386868 0.192006
Si Si3 0.613839 0.613839 0.500000
Si Si4 0.886656 0.272828 0.920981
Si Si5 0.612999 0.883776 0.334319
O O1 0.219524 0.780477 0.500000
O O2 0.339028 0.660973 0.569010
O O3 0.304465 0.837043 0.615863
O O4 0.742328 0.500000 0.185422
O O5 0.676621 0.323380 0.198631
O O6 0.839177 0.359016 0.124824
O O7 0.844451 0.368571 0.257860
O O8 0.500000 0.638843 0.500000
O O9 0.830758 0.169243 0.907702
O O10 0.000000 0.255582 0.899883
O O11 0.876464 0.307175 0.000000
O O12 0.500000 0.859887 0.358575
O O13 0.632206 0.000000 0.334558
#
# Coordination Sequence:
#
# PCOD8312840 Si02
#       5
#     8  16   4  16  16
#     4  10  21  34  52  77 107 137 171 213 261 315
#     4  10  20  35  54  77 106 138 173 214 258 310
#     4   9  18  32  50  74 108 141 166 204 258 313
#     4   9  18  32  51  77 108 141 177 218 262 306
#     4  10  20  35  56  80 106 138 175 216 263 312
#
# _framework density 16.976120999999999
#
# number of rings (size 3 to 8) (size 9 to 14) (size 15 to 20)
#    0.400    1.933    1.333    1.600    0.000    3.200 
#    0.000    4.000    0.000    0.400    0.000    4.667 
#    0.000    0.000    0.000    0.000    0.000    0.000 
#
# Total GULP energy -743902.510274 kJ/mol
# GULP energy per Si atom -12398.375171 kJ/mol
# Density = 1.693748 g / cm^3
# Si number density = 16.976121 Si / 1000 Ang^3
#
#
#
# Elastic Constant Matrix: (Units=GPa)
#
#
# Indices 1 2 3 4 5 6 
#
# 1 123.1148 61.1842 61.3642 0.0000 0.0000 0.0000
# 2 61.1842 123.1146 61.3641 0.0000 0.0000 0.0000
# 3 61.3642 61.3641 93.6149 0.0000 0.0000 0.0000
# 4 0.0000 0.0000 0.0000 18.5218 0.0000 0.0000
# 5 0.0000 0.0000 0.0000 0.0000 18.5214 0.0000
# 6 0.0000 0.0000 0.0000 0.0000 0.0000 23.3995
#
#
#
# Elastic Compliance Matrix: (Units=1/GPa)
#
#
# Indices 1 2 3 4 5 6 
#
# 1 0.012888 -0.003259 -0.006312 0.000000 0.000000 0.000000
# 2 -0.003259 0.012888 -0.006312 0.000000 0.000000 0.000000
# 3 -0.006312 -0.006312 0.018957 0.000000 0.000000 0.000000
# 4 0.000000 0.000000 0.000000 0.053990 0.000000 0.000000
# 5 0.000000 0.000000 0.000000 0.000000 0.053992 0.000000
# 6 0.000000 0.000000 0.000000 0.000000 0.000000 0.042736
#
#
# Mechanical properties :
#
#
# Convention : Reuss Voigt Hill
#
# Bulk Modulus (GPa) = 77.11464 78.62993 77.87229
# Shear Modulus (GPa) = 21.59463 22.48401 22.03932
#
# Velocity S-wave (km/s) = 3.57046 3.64325 3.60704
# Velocity P-wave (km/s) = 7.90706 8.00726 7.95732
#
# Compressibility (1/GPa) = 0.01296771
#
# Stress axis : x y z
#
# Youngs Moduli (GPa) = 77.59072 77.59060 52.75129
#
# Poissons Ratio (x) = 0.25287 0.33296
# Poissons Ratio (y) = 0.25287 0.33296
# Poissons Ratio (z) = 0.48974 0.48974
#
# Static dielectric constant tensor:
#      x y z
#    x 3.120680 0.000000 0.000000 
#    y 0.000000 3.120680 0.000000 
#    z 0.000000 0.000000 3.241710 
# 
# 
# High freq. dielectric constant tensor:
#      x y z
#    x 1.651650 0.000000 0.000000 
#    y 0.000000 1.651650 0.000000 
#    z 0.000000 0.000000 1.659910 
# 
# From -- ./inp_files/7013.got.cif
#   From: 2010.03.12/outbox.cif.g09.slc.cpg/sg123_4_cif.got.tgz:7013.got - 2010.04.06 16:26:55.
