data_PCOD8312136
_publ_section_title
;
Structure prediction by ZEFSAII (Michael W. Deem and Ramdas Pophale) SiO2 
 PCOD8312136
Probable space group: P 4/M M M
;
_chemical_formula_sum "Si O2"
_cell_formula_units_Z 128
_cell_length_a 18.726975
_cell_length_b 18.726975
_cell_length_c 24.057693
_cell_angle_alpha 90.000000
_cell_angle_beta 90.000000
_cell_angle_gamma 90.000000
_cell_volume 8437.023135
_symmetry_space_group_name_H-M "P 4/M M M"
_symmetry_group_IT_number 123
_symmetry_cell_setting 'tetragonal'
loop_
_space_group_symop_operation_xyz
x,y,z
-y,x,z
-x,-y,z
y,-x,z
x,-y,-z
-x,y,-z
y,x,-z
-y,-x,-z
-x,-y,-z
y,-x,-z
x,y,-z
-y,x,-z
-x,y,z
x,-y,z
-y,-x,z
y,x,z
loop_
_atom_site_type_symbol
_atom_site_label
_atom_site_fract_x
_atom_site_fract_y
_atom_site_fract_z
Si Si1 0.848081 0.581362 0.379221
Si Si2 0.305892 0.580549 0.212776
Si Si3 0.420202 0.306765 0.659207
Si Si4 0.292285 0.082549 0.437650
Si Si5 0.415354 0.079995 0.060694
Si Si6 0.916811 0.799189 0.333237
Si Si7 0.653021 0.916703 0.275579
Si Si8 0.416602 0.848028 0.171722
O O1 0.869604 0.500000 0.393622
O O2 0.762924 0.589900 0.377995
O O3 0.875909 0.634094 0.426788
O O4 0.879171 0.600995 0.319243
O O5 0.333137 0.500000 0.204522
O O6 0.368274 0.631727 0.191006
O O7 0.286711 0.595756 0.276873
O O8 0.236100 0.595663 0.176555
O O9 0.500000 0.337540 0.653423
O O10 0.366756 0.366756 0.636747
O O11 0.265421 0.099305 0.500000
O O12 0.230035 0.103793 0.394617
O O13 0.311111 0.000000 0.429115
O O14 0.500000 0.078803 0.059997
O O15 0.389169 0.131089 0.110240
O O16 0.386532 0.000000 0.071732
O O17 0.387619 0.107107 0.000000
O O18 0.867620 0.867620 0.319640
O O19 0.900281 0.736260 0.289020
O O20 0.000000 0.822600 0.330570
O O21 0.633642 0.889820 0.214524
O O22 0.638276 0.000000 0.280175
O O23 0.500000 0.868062 0.181957
#
# Coordination Sequence:
#
# PCOD8312136 Si02
#       8
#    16  16  16  16  16  16  16  16
#     4  10  18  28  42  63  89 115 144 177 207 243
#     4   9  17  28  41  59  82 108 142 181 221 264
#     4   9  17  29  43  60  83 108 137 176 218 258
#     4   9  19  34  48  64  88 116 144 173 207 249
#     4   8  14  24  38  58  84 114 148 183 215 246
#     4   9  19  34  50  68  88 110 138 174 213 255
#     4  10  19  28  40  62  90 118 144 169 205 253
#     4  10  17  26  41  62  88 118 151 183 213 251
#
# _framework density 15.171227999999999
#
# number of rings (size 3 to 8) (size 9 to 14) (size 15 to 20)
#    0.000    2.750    1.250    2.250    0.000    5.625 
#    0.000    1.875    0.000    0.375    0.000    1.750 
#    0.000    0.000    0.000    7.625    0.000    0.375 
#
# Total GULP energy -1586798.853602 kJ/mol
# GULP energy per Si atom -12396.866044 kJ/mol
# Density = 1.513670 g / cm^3
# Si number density = 15.171228 Si / 1000 Ang^3
#
#
#
# Elastic Constant Matrix: (Units=GPa)
#
#
# Indices 1 2 3 4 5 6 
#
# 1 68.6462 44.4570 22.0583 0.0000 0.0000 0.0000
# 2 44.4570 68.6462 22.0583 0.0000 0.0000 0.0000
# 3 22.0583 22.0583 67.7063 0.0000 0.0000 0.0000
# 4 0.0000 0.0000 0.0000 14.3227 0.0000 0.0000
# 5 0.0000 0.0000 0.0000 0.0000 14.3227 0.0000
# 6 0.0000 0.0000 0.0000 0.0000 0.0000 27.6798
#
#
#
# Elastic Compliance Matrix: (Units=1/GPa)
#
#
# Indices 1 2 3 4 5 6 
#
# 1 0.025735 -0.015606 -0.003300 0.000000 0.000000 0.000000
# 2 -0.015606 0.025735 -0.003300 0.000000 0.000000 0.000000
# 3 -0.003300 -0.003300 0.016920 0.000000 0.000000 0.000000
# 4 0.000000 0.000000 0.000000 0.069819 0.000000 0.000000
# 5 0.000000 0.000000 0.000000 0.000000 0.069819 0.000000
# 6 0.000000 0.000000 0.000000 0.000000 0.000000 0.036127
#
#
# Mechanical properties :
#
#
# Convention : Reuss Voigt Hill
#
# Bulk Modulus (GPa) = 41.70547 42.46065 42.08306
# Shear Modulus (GPa) = 16.86005 19.02672 17.94339
#
# Velocity S-wave (km/s) = 3.33726 3.54521 3.44281
# Velocity P-wave (km/s) = 6.51147 6.69376 6.60325
#
# Compressibility (1/GPa) = 0.02397767
#
# Stress axis : x y z
#
# Youngs Moduli (GPa) = 38.85809 38.85809 59.10234
#
# Poissons Ratio (x) = 0.60642 0.19503
# Poissons Ratio (y) = 0.60642 0.19503
# Poissons Ratio (z) = 0.12823 0.12823
#
# Static dielectric constant tensor:
#      x y z
#    x 2.826640 0.000000 0.000000 
#    y 0.000000 2.826640 0.000000 
#    z 0.000000 0.000000 2.963630 
# 
# 
# High freq. dielectric constant tensor:
#      x y z
#    x 1.570250 0.000000 0.000000 
#    y 0.000000 1.570250 0.000000 
#    z 0.000000 0.000000 1.559740 
# 
# From -- ./inp_files/7647.got.cif
#   From: 2010.03.12/outbox.cif.g09.slc.cpg/sg123_4_cif.got.tgz:7647.got - 2010.04.06 16:26:55.
