data_PCOD8312462
_publ_section_title
;
Structure prediction by ZEFSAII (Michael W. Deem and Ramdas Pophale) SiO2 
 PCOD8312462
Probable space group: P 4/M M M
;
_chemical_formula_sum "Si O2"
_cell_formula_units_Z 72
_cell_length_a 13.362907
_cell_length_b 13.362907
_cell_length_c 22.998028
_cell_angle_alpha 90.000000
_cell_angle_beta 90.000000
_cell_angle_gamma 90.000000
_cell_volume 4106.695386
_symmetry_space_group_name_H-M "P 4/M M M"
_symmetry_group_IT_number 123
_symmetry_cell_setting 'tetragonal'
loop_
_space_group_symop_operation_xyz
x,y,z
-y,x,z
-x,-y,z
y,-x,z
x,-y,-z
-x,y,-z
y,x,-z
-y,-x,-z
-x,-y,-z
y,-x,-z
x,y,-z
-y,x,-z
-x,y,z
x,-y,z
-y,-x,z
y,x,z
loop_
_atom_site_type_symbol
_atom_site_label
_atom_site_fract_x
_atom_site_fract_y
_atom_site_fract_z
Si Si1 0.223275 0.381994 0.500000
Si Si2 0.381367 0.111349 0.384636
Si Si3 0.382586 0.778442 0.731142
Si Si4 0.775909 0.614709 0.066595
Si Si5 0.719685 0.884006 0.833759
O O1 0.240870 0.500000 0.500000
O O2 0.332326 0.332326 0.500000
O O3 0.162883 0.344493 0.556257
O O4 0.500000 0.104216 0.384466
O O5 0.344894 0.174654 0.329428
O O6 0.335007 0.000000 0.381345
O O7 0.500000 0.756040 0.731117
O O8 0.326511 0.673490 0.741359
O O9 0.356199 0.855901 0.782107
O O10 0.759254 0.500000 0.084706
O O11 0.670564 0.670564 0.077364
O O12 0.862019 0.664600 0.105367
O O13 0.811091 0.624548 0.000000
O O14 0.822513 0.822513 0.828023
O O15 0.747361 0.000000 0.830545
#
# Coordination Sequence:
#
# PCOD8312462 Si02
#       5
#     8  16  16  16  16
#     4  10  19  30  45  67  96 128 161 197 240 295
#     4   9  17  30  48  68  91 122 160 201 242 280
#     4  10  20  33  50  74 103 133 164 197 236 287
#     4   9  18  32  50  74 103 133 165 200 239 287
#     4  10  21  36  53  73  97 126 163 207 252 296
#
# _framework density 17.532346
#
# number of rings (size 3 to 8) (size 9 to 14) (size 15 to 20)
#    0.000    2.444    0.000    2.333    0.000    5.222 
#    0.000    2.222    0.000    8.000    0.000    3.111 
#    0.000   16.889    0.000    0.000    0.000    0.000 
#
# Total GULP energy -892902.420451 kJ/mol
# GULP energy per Si atom -12401.422506 kJ/mol
# Density = 1.749244 g / cm^3
# Si number density = 17.532346 Si / 1000 Ang^3
#
#
#
# Elastic Constant Matrix: (Units=GPa)
#
#
# Indices 1 2 3 4 5 6 
#
# 1 101.2453 42.7813 41.2832 0.0000 0.0000 0.0000
# 2 42.7813 101.2453 41.2832 0.0000 0.0000 0.0000
# 3 41.2832 41.2832 113.6743 0.0000 0.0000 0.0000
# 4 0.0000 0.0000 0.0000 23.0642 0.0000 0.0000
# 5 0.0000 0.0000 0.0000 0.0000 23.0642 0.0000
# 6 0.0000 0.0000 0.0000 0.0000 0.0000 12.0167
#
#
#
# Elastic Compliance Matrix: (Units=1/GPa)
#
#
# Indices 1 2 3 4 5 6 
#
# 1 0.012937 -0.004168 -0.003185 0.000000 0.000000 0.000000
# 2 -0.004168 0.012937 -0.003185 0.000000 0.000000 0.000000
# 3 -0.003185 -0.003185 0.011110 0.000000 0.000000 0.000000
# 4 0.000000 0.000000 0.000000 0.043357 0.000000 0.000000
# 5 0.000000 0.000000 0.000000 0.000000 0.043357 0.000000
# 6 0.000000 0.000000 0.000000 0.000000 0.000000 0.083217
#
#
# Mechanical properties :
#
#
# Convention : Reuss Voigt Hill
#
# Bulk Modulus (GPa) = 62.85576 62.98451 62.92013
# Shear Modulus (GPa) = 21.43234 24.35018 22.89126
#
# Velocity S-wave (km/s) = 3.50014 3.73080 3.61731
# Velocity P-wave (km/s) = 7.22937 7.38656 7.30839
#
# Compressibility (1/GPa) = 0.01590944
#
# Stress axis : x y z
#
# Youngs Moduli (GPa) = 77.29971 77.29971 90.00775
#
# Poissons Ratio (x) = 0.32218 0.28664
# Poissons Ratio (y) = 0.32218 0.28664
# Poissons Ratio (z) = 0.24617 0.24617
#
# Static dielectric constant tensor:
#      x y z
#    x 3.078580 0.000000 0.000000 
#    y 0.000000 3.078580 0.000000 
#    z 0.000000 0.000000 3.551350 
# 
# 
# High freq. dielectric constant tensor:
#      x y z
#    x 1.661720 0.000000 0.000000 
#    y 0.000000 1.661720 0.000000 
#    z 0.000000 0.000000 1.699270 
# 
# From -- ./inp_files/7856.got.cif
#   From: 2010.03.12/outbox.cif.g09.slc.cpg/sg123_4_cif.got.tgz:7856.got - 2010.04.06 16:26:55.
