data_PCOD8312831
_publ_section_title
;
Structure prediction by ZEFSAII (Michael W. Deem and Ramdas Pophale) SiO2 
 PCOD8312831
Probable space group: P 4/M M M
;
_chemical_formula_sum "Si O2"
_cell_formula_units_Z 56
_cell_length_a 19.286144
_cell_length_b 19.286144
_cell_length_c 7.818665
_cell_angle_alpha 90.000000
_cell_angle_beta 90.000000
_cell_angle_gamma 90.000000
_cell_volume 2908.194280
_symmetry_space_group_name_H-M "P 4/M M M"
_symmetry_group_IT_number 123
_symmetry_cell_setting 'tetragonal'
loop_
_space_group_symop_operation_xyz
x,y,z
-y,x,z
-x,-y,z
y,-x,z
x,-y,-z
-x,y,-z
y,x,-z
-y,-x,-z
-x,-y,-z
y,-x,-z
x,y,-z
-y,x,-z
-x,y,z
x,-y,z
-y,-x,z
y,x,z
loop_
_atom_site_type_symbol
_atom_site_label
_atom_site_fract_x
_atom_site_fract_y
_atom_site_fract_z
Si Si1 0.839684 0.577926 0.194088
Si Si2 0.082080 0.804523 0.000000
Si Si3 0.920530 0.293403 0.309349
Si Si4 0.577981 0.311705 0.699350
O O1 0.853236 0.500000 0.266590
O O2 0.880203 0.634072 0.304704
O O3 0.758237 0.594710 0.199212
O O4 0.865842 0.583161 0.000000
O O5 0.105456 0.761544 0.168168
O O6 0.122727 0.877274 0.000000
O O7 0.000000 0.820895 0.000000
O O8 0.910533 0.261586 0.500000
O O9 0.000000 0.311066 0.271402
O O10 0.589515 0.296615 0.500000
O O11 0.500000 0.337261 0.735855
O O12 0.628855 0.371146 0.767842
#
# Coordination Sequence:
#
# PCOD8312831 Si02
#       4
#    16   8  16  16
#     4  10  20  34  53  78 111 150 190 232 278 331
#     4  10  22  41  63  89 119 149 186 232 282 338
#     4  10  21  38  60  86 117 152 189 228 273 329
#     4   9  18  32  49  70  98 134 179 231 283 333
#
# _framework density 19.255935000000001
#
# number of rings (size 3 to 8) (size 9 to 14) (size 15 to 20)
#    0.000    2.286    1.429    0.857    0.000    5.000 
#    0.000    4.286    0.000    0.000    0.000    8.000 
#    0.000    0.000    0.000    0.000    0.000    0.000 
#
# Total GULP energy -694402.256591 kJ/mol
# GULP energy per Si atom -12400.040296 kJ/mol
# Density = 1.921211 g / cm^3
# Si number density = 19.255935 Si / 1000 Ang^3
#
#
#
# Elastic Constant Matrix: (Units=GPa)
#
#
# Indices 1 2 3 4 5 6 
#
# 1 84.9641 60.4201 34.1950 0.0000 0.0000 0.0000
# 2 60.4201 84.9600 34.1942 0.0000 0.0000 0.0000
# 3 34.1950 34.1942 94.8903 0.0000 0.0000 0.0000
# 4 0.0000 0.0000 0.0000 21.5910 0.0000 0.0000
# 5 0.0000 0.0000 0.0000 0.0000 21.5908 0.0000
# 6 0.0000 0.0000 0.0000 0.0000 0.0000 39.6397
#
#
#
# Elastic Compliance Matrix: (Units=1/GPa)
#
#
# Indices 1 2 3 4 5 6 
#
# 1 0.024514 -0.016232 -0.002985 0.000000 0.000000 0.000000
# 2 -0.016232 0.024515 -0.002985 0.000000 0.000000 0.000000
# 3 -0.002985 -0.002985 0.012690 0.000000 0.000000 0.000000
# 4 0.000000 0.000000 0.000000 0.046316 0.000000 0.000000
# 5 0.000000 0.000000 0.000000 0.000000 0.046316 0.000000
# 6 0.000000 0.000000 0.000000 0.000000 0.000000 0.025227
#
#
# Mechanical properties :
#
#
# Convention : Reuss Voigt Hill
#
# Bulk Modulus (GPa) = 57.75058 58.04810 57.89934
# Shear Modulus (GPa) = 21.76259 25.63131 23.69695
#
# Velocity S-wave (km/s) = 3.36546 3.65236 3.51184
# Velocity P-wave (km/s) = 6.71996 6.92801 6.82478
#
# Compressibility (1/GPa) = 0.01731584
#
# Stress axis : x y z
#
# Youngs Moduli (GPa) = 40.79316 40.79116 78.80480
#
# Poissons Ratio (x) = 0.66213 0.23520
# Poissons Ratio (y) = 0.66216 0.23521
# Poissons Ratio (z) = 0.12175 0.12175
#
# Static dielectric constant tensor:
#      x y z
#    x 3.408330 0.000000 0.000000 
#    y 0.000000 3.408330 0.000000 
#    z 0.000000 0.000000 3.574960 
# 
# 
# High freq. dielectric constant tensor:
#      x y z
#    x 1.737760 0.000000 0.000000 
#    y 0.000000 1.737760 0.000000 
#    z 0.000000 0.000000 1.756470 
# 
# From -- ./inp_files/576.got.cif
#   From: 2010.03.12/outbox.cif.g09.slc.cpg/sg123_1_cif.got.tgz:576.got - 2010.04.06 16:26:55.
