data_PCOD8312746
_publ_section_title
;
Structure prediction by ZEFSAII (Michael W. Deem and Ramdas Pophale) SiO2 
 PCOD8312746
Probable space group: P 4/M M M
;
_chemical_formula_sum "Si O2"
_cell_formula_units_Z 104
_cell_length_a 13.912171
_cell_length_b 13.912171
_cell_length_c 33.408295
_cell_angle_alpha 90.000000
_cell_angle_beta 90.000000
_cell_angle_gamma 90.000000
_cell_volume 6466.125449
_symmetry_space_group_name_H-M "P 4/M M M"
_symmetry_group_IT_number 123
_symmetry_cell_setting 'tetragonal'
loop_
_space_group_symop_operation_xyz
x,y,z
-y,x,z
-x,-y,z
y,-x,z
x,-y,-z
-x,y,-z
y,x,-z
-y,-x,-z
-x,-y,-z
y,-x,-z
x,y,-z
-y,x,-z
-x,y,z
x,-y,z
-y,-x,z
y,x,z
loop_
_atom_site_type_symbol
_atom_site_label
_atom_site_fract_x
_atom_site_fract_y
_atom_site_fract_z
Si Si1 0.115352 0.607175 0.414366
Si Si2 0.262333 0.110000 0.343800
Si Si3 0.105819 0.385345 0.500000
Si Si4 0.110675 0.732814 0.254386
Si Si5 0.886443 0.393360 0.181539
Si Si6 0.729149 0.114076 0.894546
Si Si7 0.765654 0.610348 0.953358
O O1 0.153600 0.500000 0.406861
O O2 0.156019 0.669153 0.377547
O O3 0.155663 0.646018 0.457765
O O4 0.000000 0.607742 0.415371
O O5 0.159300 0.159300 0.345840
O O6 0.308031 0.123990 0.299540
O O7 0.243156 0.000000 0.353660
O O8 0.097568 0.500000 0.500000
O O9 0.000000 0.339178 0.500000
O O10 0.170338 0.829663 0.247418
O O11 0.146860 0.650880 0.223964
O O12 0.000000 0.760164 0.246010
O O13 0.840513 0.500000 0.177087
O O14 0.852399 0.324042 0.145950
O O15 0.000000 0.402840 0.180086
O O16 0.831621 0.168380 0.896993
O O17 0.660030 0.144960 0.930951
O O18 0.748015 0.000000 0.896486
O O19 0.753331 0.500000 0.939388
O O20 0.666665 0.666665 0.943408
O O21 0.790273 0.616126 0.000000
#
# Coordination Sequence:
#
# PCOD8312746 Si02
#       7
#    16  16   8  16  16  16  16
#     4   8  13  22  37  55  73  94 123 162 207 248
#     4   9  17  27  38  54  78 108 140 171 201 237
#     4   7  10  18  33  52  71  91 119 157 201 247
#     4   9  17  28  41  58  81 109 141 175 208 244
#     4   9  17  29  45  64  85 109 137 171 215 264
#     4  10  20  33  49  69  94 124 158 194 229 268
#     4   9  18  32  50  73  99 126 158 196 237 281
#
# _framework density 16.083821
#
# number of rings (size 3 to 8) (size 9 to 14) (size 15 to 20)
#    0.000    3.154    0.000    1.846    0.000    2.462 
#    0.000    6.538    0.000    2.769    0.000    2.154 
#    0.000    6.154    0.000    6.769    0.000    4.923 
#
# Total GULP energy -1288655.205707 kJ/mol
# GULP energy per Si atom -12390.915439 kJ/mol
# Density = 1.604721 g / cm^3
# Si number density = 16.083821 Si / 1000 Ang^3
#
#
#
# Elastic Constant Matrix: (Units=GPa)
#
#
# Indices 1 2 3 4 5 6 
#
# 1 73.1614 36.0257 46.2354 0.0000 0.0000 0.0000
# 2 36.0257 73.1614 46.2354 0.0000 0.0000 0.0000
# 3 46.2354 46.2354 108.7533 0.0000 0.0000 0.0000
# 4 0.0000 0.0000 0.0000 20.8888 0.0000 0.0000
# 5 0.0000 0.0000 0.0000 0.0000 20.8888 0.0000
# 6 0.0000 0.0000 0.0000 0.0000 0.0000 7.2940
#
#
#
# Elastic Compliance Matrix: (Units=1/GPa)
#
#
# Indices 1 2 3 4 5 6 
#
# 1 0.020620 -0.006308 -0.006084 0.000000 0.000000 0.000000
# 2 -0.006308 0.020620 -0.006084 0.000000 0.000000 0.000000
# 3 -0.006084 -0.006084 0.014369 0.000000 0.000000 0.000000
# 4 0.000000 0.000000 0.000000 0.047873 0.000000 0.000000
# 5 0.000000 0.000000 0.000000 0.000000 0.047873 0.000000
# 6 0.000000 0.000000 0.000000 0.000000 0.000000 0.137098
#
#
# Mechanical properties :
#
#
# Convention : Reuss Voigt Hill
#
# Bulk Modulus (GPa) = 53.60790 56.89657 55.25223
# Shear Modulus (GPa) = 15.07731 18.25296 16.66513
#
# Velocity S-wave (km/s) = 3.06505 3.37243 3.22241
# Velocity P-wave (km/s) = 6.77708 7.11451 6.94784
#
# Compressibility (1/GPa) = 0.01865397
#
# Stress axis : x y z
#
# Youngs Moduli (GPa) = 48.49685 48.49685 69.59633
#
# Poissons Ratio (x) = 0.30594 0.42345
# Poissons Ratio (y) = 0.30594 0.42345
# Poissons Ratio (z) = 0.29507 0.29507
#
# Static dielectric constant tensor:
#      x y z
#    x 2.844790 0.000000 0.000000 
#    y 0.000000 2.844790 0.000000 
#    z 0.000000 0.000000 3.465360 
# 
# 
# High freq. dielectric constant tensor:
#      x y z
#    x 1.587580 0.000000 0.000000 
#    y 0.000000 1.587580 0.000000 
#    z 0.000000 0.000000 1.640630 
# 
# From -- ./inp_files/8770.got.cif
#   From: 2010.03.12/outbox.cif.g09.slc.cpg/sg123_5_cif.got.tgz:8770.got - 2010.04.06 16:26:55.
