data_PCOD8312139
_publ_section_title
;
Structure prediction by ZEFSAII (Michael W. Deem and Ramdas Pophale) SiO2 
 PCOD8312139
Probable space group: P 4/M M M
;
_chemical_formula_sum "Si O2"
_cell_formula_units_Z 80
_cell_length_a 20.154347
_cell_length_b 20.154347
_cell_length_c 12.882722
_cell_angle_alpha 90.000000
_cell_angle_beta 90.000000
_cell_angle_gamma 90.000000
_cell_volume 5232.932085
_symmetry_space_group_name_H-M "P 4/M M M"
_symmetry_group_IT_number 123
_symmetry_cell_setting 'tetragonal'
loop_
_space_group_symop_operation_xyz
x,y,z
-y,x,z
-x,-y,z
y,-x,z
x,-y,-z
-x,y,-z
y,x,-z
-y,-x,-z
-x,-y,-z
y,-x,-z
x,y,-z
-y,x,-z
-x,y,z
x,-y,z
-y,-x,z
y,x,z
loop_
_atom_site_type_symbol
_atom_site_label
_atom_site_fract_x
_atom_site_fract_y
_atom_site_fract_z
Si Si1 0.181201 0.074461 0.882784
Si Si2 0.316392 0.575764 0.623407
Si Si3 0.831007 0.382893 0.623299
Si Si4 0.180591 0.072524 0.500000
Si Si5 0.274043 0.925069 0.694280
Si Si6 0.074129 0.500000 0.622320
O O1 0.121936 0.121936 0.848004
O O2 0.243167 0.084290 0.807431
O O3 0.153275 0.000000 0.873636
O O4 0.205343 0.089804 0.000000
O O5 0.316722 0.575436 0.500000
O O6 0.328841 0.500000 0.663523
O O7 0.374570 0.625430 0.664754
O O8 0.243984 0.601205 0.661587
O O9 0.831518 0.371857 0.500000
O O10 0.861411 0.320794 0.682607
O O11 0.882571 0.438461 0.658859
O O12 0.120238 0.120238 0.500000
O O13 0.221938 0.083761 0.396650
O O14 0.149435 0.000000 0.500000
O O15 0.306208 0.000000 0.684990
O O16 0.066040 0.500000 0.500000
O O17 0.000000 0.500000 0.672761
#
# Coordination Sequence:
#
# PCOD8312139 Si02
#       6
#    16  16  16   8  16   8
#     4   9  18  32  48  65  85 111 148 194 237 275
#     4   9  17  28  40  56  81 113 149 187 223 261
#     4  10  17  28  42  62  90 117 150 181 216 265
#     4  10  20  31  42  59  85 115 150 186 220 268
#     4  10  19  30  44  63  89 118 147 180 224 275
#     4   9  16  24  40  60  84 116 146 182 220 250
#
# _framework density 15.287796
#
# number of rings (size 3 to 8) (size 9 to 14) (size 15 to 20)
#    0.000    2.500    2.000    1.200    0.000    2.900 
#    0.000    2.000    0.000    3.600    0.000    0.700 
#    0.000    4.000    0.000    0.000    0.000    0.200 
#
# Total GULP energy -991193.875640 kJ/mol
# GULP energy per Si atom -12389.923446 kJ/mol
# Density = 1.525300 g / cm^3
# Si number density = 15.287796 Si / 1000 Ang^3
#
#
#
# Elastic Constant Matrix: (Units=GPa)
#
#
# Indices 1 2 3 4 5 6 
#
# 1 114.1038 79.3371 22.1276 0.0000 0.0000 0.0000
# 2 79.3371 114.1038 22.1276 0.0000 0.0000 0.0000
# 3 22.1276 22.1276 41.6918 0.0000 0.0000 0.0000
# 4 0.0000 0.0000 0.0000 11.9268 0.0000 0.0000
# 5 0.0000 0.0000 0.0000 0.0000 11.9268 0.0000
# 6 0.0000 0.0000 0.0000 0.0000 0.0000 41.6596
#
#
#
# Elastic Compliance Matrix: (Units=1/GPa)
#
#
# Indices 1 2 3 4 5 6 
#
# 1 0.017324 -0.011440 -0.003123 0.000000 0.000000 0.000000
# 2 -0.011440 0.017324 -0.003123 0.000000 0.000000 0.000000
# 3 -0.003123 -0.003123 0.027300 0.000000 0.000000 0.000000
# 4 0.000000 0.000000 0.000000 0.083845 0.000000 0.000000
# 5 0.000000 0.000000 0.000000 0.000000 0.083845 0.000000
# 6 0.000000 0.000000 0.000000 0.000000 0.000000 0.024004
#
#
# Mechanical properties :
#
#
# Convention : Reuss Voigt Hill
#
# Bulk Modulus (GPa) = 37.62670 57.45375 47.54022
# Shear Modulus (GPa) = 16.78577 22.85645 19.82111
#
# Velocity S-wave (km/s) = 3.31718 3.87082 3.60464
# Velocity P-wave (km/s) = 6.27194 7.59215 6.96340
#
# Compressibility (1/GPa) = 0.02657687
#
# Stress axis : x y z
#
# Youngs Moduli (GPa) = 57.72485 57.72485 36.62951
#
# Poissons Ratio (x) = 0.66035 0.11439
# Poissons Ratio (y) = 0.66035 0.11439
# Poissons Ratio (z) = 0.18027 0.18027
#
# Static dielectric constant tensor:
#      x y z
#    x 3.091540 0.000000 0.000000 
#    y 0.000000 3.091540 0.000000 
#    z 0.000000 0.000000 2.572880 
# 
# 
# High freq. dielectric constant tensor:
#      x y z
#    x 1.590770 0.000000 0.000000 
#    y 0.000000 1.590770 0.000000 
#    z 0.000000 0.000000 1.532520 
# 
# From -- ./inp_files/4290.got.cif
#   From: 2010.03.12/outbox.cif.g09.slc.cpg/sg123_3_cif.got.tgz:4290.got - 2010.04.06 16:26:55.
