data_PCOD8312568
_publ_section_title
;
Structure prediction by ZEFSAII (Michael W. Deem and Ramdas Pophale) SiO2 
 PCOD8312568
Probable space group: P 4/M M M
;
_chemical_formula_sum "Si O2"
_cell_formula_units_Z 96
_cell_length_a 24.215992
_cell_length_b 24.215992
_cell_length_c 9.020328
_cell_angle_alpha 90.000000
_cell_angle_beta 90.000000
_cell_angle_gamma 90.000000
_cell_volume 5289.649046
_symmetry_space_group_name_H-M "P 4/M M M"
_symmetry_group_IT_number 123
_symmetry_cell_setting 'tetragonal'
loop_
_space_group_symop_operation_xyz
x,y,z
-y,x,z
-x,-y,z
y,-x,z
x,-y,-z
-x,y,-z
y,x,-z
-y,-x,-z
-x,-y,-z
y,-x,-z
x,y,-z
-y,x,-z
-x,y,z
x,-y,z
-y,-x,z
y,x,z
loop_
_atom_site_type_symbol
_atom_site_label
_atom_site_fract_x
_atom_site_fract_y
_atom_site_fract_z
Si Si1 0.438897 0.938814 0.323838
Si Si2 0.856684 0.232888 0.674182
Si Si3 0.438099 0.349469 0.667457
Si Si4 0.936866 0.847829 0.174624
Si Si5 0.641657 0.845848 0.676223
Si Si6 0.562435 0.237944 0.173261
O O1 0.437610 0.939280 0.500000
O O2 0.500000 0.919231 0.270549
O O3 0.391247 0.899142 0.261945
O O4 0.426794 0.000000 0.262076
O O5 0.867930 0.232644 0.500000
O O6 0.801884 0.198117 0.715087
O O7 0.910296 0.206174 0.750511
O O8 0.848256 0.295241 0.733494
O O9 0.425371 0.328349 0.500000
O O10 0.500000 0.372454 0.676991
O O11 0.398942 0.398942 0.715409
O O12 0.428874 0.301223 0.784908
O O13 0.902692 0.902692 0.221264
O O14 0.000000 0.854943 0.229213
O O15 0.934344 0.838813 0.000000
O O16 0.640426 0.842371 0.500000
O O17 0.609970 0.793525 0.739058
O O18 0.500000 0.219046 0.219109
O O19 0.571717 0.229547 0.000000
#
# Coordination Sequence:
#
# PCOD8312568 Si02
#       6
#    16  16  16  16  16  16
#     4   8  14  25  42  66  93 116 144 190 243 289
#     4   9  19  34  49  69  99 131 163 203 249 293
#     4   9  18  33  53  76 101 129 162 202 249 301
#     4   9  18  33  53  76 102 133 168 206 248 293
#     4  10  19  31  51  74  94 125 169 209 245 290
#     4  10  21  35  50  71 101 134 167 206 251 297
#
# _framework density 18.148651999999998
#
# number of rings (size 3 to 8) (size 9 to 14) (size 15 to 20)
#    0.000    2.833    0.000    1.500    0.000    4.667 
#    0.000    5.000    0.000    0.500    0.000    7.000 
#    0.000    0.000    0.000    0.000    0.000    0.000 
#
# Total GULP energy -1190089.955517 kJ/mol
# GULP energy per Si atom -12396.770370 kJ/mol
# Density = 1.810735 g / cm^3
# Si number density = 18.148652 Si / 1000 Ang^3
#
#
#
# Elastic Constant Matrix: (Units=GPa)
#
#
# Indices 1 2 3 4 5 6 
#
# 1 140.6009 79.3045 26.2337 0.0000 0.0000 0.0000
# 2 79.3045 140.6009 26.2337 0.0000 0.0000 0.0000
# 3 26.2337 26.2337 21.0170 0.0000 0.0000 0.0000
# 4 0.0000 0.0000 0.0000 20.3574 0.0000 0.0000
# 5 0.0000 0.0000 0.0000 0.0000 20.3574 0.0000
# 6 0.0000 0.0000 0.0000 0.0000 0.0000 14.5132
#
#
#
# Elastic Compliance Matrix: (Units=1/GPa)
#
#
# Indices 1 2 3 4 5 6 
#
# 1 0.011395 -0.004919 -0.008083 0.000000 0.000000 0.000000
# 2 -0.004919 0.011395 -0.008083 0.000000 0.000000 0.000000
# 3 -0.008083 -0.008083 0.067760 0.000000 0.000000 0.000000
# 4 0.000000 0.000000 0.000000 0.049122 0.000000 0.000000
# 5 0.000000 0.000000 0.000000 0.000000 0.049122 0.000000
# 6 0.000000 0.000000 0.000000 0.000000 0.000000 0.068903
#
#
# Mechanical properties :
#
#
# Convention : Reuss Voigt Hill
#
# Bulk Modulus (GPa) = 20.67037 62.86251 41.76644
# Shear Modulus (GPa) = 15.82300 22.40874 19.11587
#
# Velocity S-wave (km/s) = 2.95592 3.51769 3.24897
# Velocity P-wave (km/s) = 4.80252 7.15623 6.09409
#
# Compressibility (1/GPa) = 0.04837842
#
# Stress axis : x y z
#
# Youngs Moduli (GPa) = 87.75698 87.75698 14.75792
#
# Poissons Ratio (x) = 0.43168 0.11930
# Poissons Ratio (y) = 0.43168 0.11930
# Poissons Ratio (z) = 0.70938 0.70938
#
# Static dielectric constant tensor:
#      x y z
#    x 3.485520 0.000000 0.000000 
#    y 0.000000 3.485520 0.000000 
#    z 0.000000 0.000000 3.077460 
# 
# 
# High freq. dielectric constant tensor:
#      x y z
#    x 1.705780 0.000000 0.000000 
#    y 0.000000 1.705780 0.000000 
#    z 0.000000 0.000000 1.676130 
# 
# From -- ./inp_files/1607.got.cif
#   From: 2010.03.12/outbox.cif.g09.slc.cpg/sg123_1_cif.got.tgz:1607.got - 2010.04.06 16:26:55.
