data_PCOD8312709
_publ_section_title
;
Structure prediction by ZEFSAII (Michael W. Deem and Ramdas Pophale) SiO2 
 PCOD8312709
Probable space group: P 4/M M M
;
_chemical_formula_sum "Si O2"
_cell_formula_units_Z 64
_cell_length_a 12.703167
_cell_length_b 12.703167
_cell_length_c 22.109538
_cell_angle_alpha 90.000000
_cell_angle_beta 90.000000
_cell_angle_gamma 90.000000
_cell_volume 3567.826137
_symmetry_space_group_name_H-M "P 4/M M M"
_symmetry_group_IT_number 123
_symmetry_cell_setting 'tetragonal'
loop_
_space_group_symop_operation_xyz
x,y,z
-y,x,z
-x,-y,z
y,-x,z
x,-y,-z
-x,y,-z
y,x,-z
-y,-x,-z
-x,-y,-z
y,-x,-z
x,y,-z
-y,x,-z
-x,y,z
x,-y,z
-y,-x,z
y,x,z
loop_
_atom_site_type_symbol
_atom_site_label
_atom_site_fract_x
_atom_site_fract_y
_atom_site_fract_z
Si Si1 0.875130 0.500000 0.431820
Si Si2 0.209407 0.379498 0.240031
Si Si3 0.125101 0.616343 0.000000
Si Si4 0.877587 0.294544 0.359838
Si Si5 0.877810 0.287763 0.874886
O O1 0.830861 0.500000 0.500000
O O2 0.835772 0.393870 0.398859
O O3 0.000000 0.500000 0.430578
O O4 0.229476 0.500000 0.257301
O O5 0.322346 0.322346 0.236834
O O6 0.135310 0.324104 0.289591
O O7 0.149259 0.374213 0.175880
O O8 0.164810 0.674314 0.939843
O O9 0.174121 0.500000 0.000000
O O10 0.000000 0.609840 0.000000
O O11 0.807381 0.192620 0.376964
O O12 0.000000 0.268104 0.372941
O O13 0.820822 0.179179 0.857471
O O14 0.000000 0.263646 0.877018
#
# Coordination Sequence:
#
# PCOD8312709 Si02
#       5
#     8  16   8  16  16
#     4   9  18  34  56  79 105 140 180 219 255 301
#     4  10  20  34  53  77 103 134 173 217 265 315
#     4   9  17  30  47  67  91 123 165 211 256 301
#     4  10  20  34  54  81 111 143 179 219 265 317
#     4  10  20  32  48  71  99 133 172 213 258 309
#
# _framework density 17.938094
#
# number of rings (size 3 to 8) (size 9 to 14) (size 15 to 20)
#    0.000    2.250    1.250    1.875    0.000    3.750 
#    0.000    0.000    0.000    7.125    0.000    4.375 
#    0.000    9.000    0.000    0.000    0.000    0.000 
#
# Total GULP energy -793587.189178 kJ/mol
# GULP energy per Si atom -12399.799831 kJ/mol
# Density = 1.789727 g / cm^3
# Si number density = 17.938094 Si / 1000 Ang^3
#
#
#
# Elastic Constant Matrix: (Units=GPa)
#
#
# Indices 1 2 3 4 5 6 
#
# 1 97.4550 52.3234 27.7473 0.0000 0.0000 0.0000
# 2 52.3234 97.4550 27.7473 0.0000 0.0000 0.0000
# 3 27.7473 27.7473 106.5898 0.0000 0.0000 0.0000
# 4 0.0000 0.0000 0.0000 22.0174 0.0000 0.0000
# 5 0.0000 0.0000 0.0000 0.0000 22.0174 0.0000
# 6 0.0000 0.0000 0.0000 0.0000 0.0000 18.2070
#
#
#
# Elastic Compliance Matrix: (Units=1/GPa)
#
#
# Indices 1 2 3 4 5 6 
#
# 1 0.014773 -0.007384 -0.001924 0.000000 0.000000 0.000000
# 2 -0.007384 0.014773 -0.001924 0.000000 0.000000 0.000000
# 3 -0.001924 -0.001924 0.010383 0.000000 0.000000 0.000000
# 4 0.000000 0.000000 0.000000 0.045419 0.000000 0.000000
# 5 0.000000 0.000000 0.000000 0.000000 0.045419 0.000000
# 6 0.000000 0.000000 0.000000 0.000000 0.000000 0.054924
#
#
# Mechanical properties :
#
#
# Convention : Reuss Voigt Hill
#
# Bulk Modulus (GPa) = 57.24923 57.45952 57.35437
# Shear Modulus (GPa) = 23.36711 25.36048 24.36379
#
# Velocity S-wave (km/s) = 3.61314 3.76410 3.68940
# Velocity P-wave (km/s) = 7.02784 7.14093 7.08461
#
# Compressibility (1/GPa) = 0.01746748
#
# Stress axis : x y z
#
# Youngs Moduli (GPa) = 67.68955 67.68955 96.30912
#
# Poissons Ratio (x) = 0.49983 0.18526
# Poissons Ratio (y) = 0.49983 0.18526
# Poissons Ratio (z) = 0.13020 0.13020
#
# Static dielectric constant tensor:
#      x y z
#    x 3.147870 0.000000 0.000000 
#    y 0.000000 3.147870 0.000000 
#    z 0.000000 0.000000 3.533740 
# 
# 
# High freq. dielectric constant tensor:
#      x y z
#    x 1.680500 0.000000 0.000000 
#    y 0.000000 1.680500 0.000000 
#    z 0.000000 0.000000 1.706080 
# 
# From -- ./inp_files/7003.got.cif
#   From: 2010.03.12/outbox.cif.g09.slc.cpg/sg123_4_cif.got.tgz:7003.got - 2010.04.06 16:26:55.
