data_PCOD8312618
_publ_section_title
;
Structure prediction by ZEFSAII (Michael W. Deem and Ramdas Pophale) SiO2 
 PCOD8312618
Probable space group: P 4/M M M
;
_chemical_formula_sum "Si O2"
_cell_formula_units_Z 72
_cell_length_a 12.899933
_cell_length_b 12.899933
_cell_length_c 24.726603
_cell_angle_alpha 90.000000
_cell_angle_beta 90.000000
_cell_angle_gamma 90.000000
_cell_volume 4114.711263
_symmetry_space_group_name_H-M "P 4/M M M"
_symmetry_group_IT_number 123
_symmetry_cell_setting 'tetragonal'
loop_
_space_group_symop_operation_xyz
x,y,z
-y,x,z
-x,-y,z
y,-x,z
x,-y,-z
-x,y,-z
y,x,-z
-y,-x,-z
-x,-y,-z
y,-x,-z
x,y,-z
-y,x,-z
-x,y,z
x,-y,z
-y,-x,z
y,x,z
loop_
_atom_site_type_symbol
_atom_site_label
_atom_site_fract_x
_atom_site_fract_y
_atom_site_fract_z
Si Si1 0.286218 0.117975 0.060359
Si Si2 0.208944 0.377474 0.378169
Si Si3 0.617812 0.782874 0.842878
Si Si4 0.885770 0.621810 0.265289
Si Si5 0.377277 0.000000 0.439083
O O1 0.184207 0.184207 0.073058
O O2 0.374068 0.143596 0.104503
O O3 0.251695 0.000000 0.065891
O O4 0.329867 0.141206 0.000000
O O5 0.232755 0.500000 0.388480
O O6 0.308050 0.308050 0.396853
O O7 0.189637 0.353637 0.315171
O O8 0.105554 0.340191 0.409862
O O9 0.500000 0.753246 0.832046
O O10 0.676225 0.676225 0.854336
O O11 0.666970 0.838598 0.790201
O O12 0.899212 0.500000 0.259017
O O13 0.000000 0.670905 0.275056
O O14 0.500000 0.000000 0.438057
O O15 0.333353 0.000000 0.500000
#
# Coordination Sequence:
#
# PCOD8312618 Si02
#       5
#    16  16  16  16   8
#     4   9  18  32  49  70  95 122 155 197 246 299
#     4  10  19  32  52  79 109 140 174 213 258 307
#     4  10  20  32  47  69  96 128 165 204 247 294
#     4   9  16  29  49  72  98 128 166 207 245 290
#     4   9  18  34  54  75 101 137 180 217 250 297
#
# _framework density 17.498190000000001
#
# number of rings (size 3 to 8) (size 9 to 14) (size 15 to 20)
#    0.000    2.556    1.111    1.333    0.000    2.889 
#    0.000    2.222    0.000    4.333    0.000    7.000 
#    0.000    0.000    0.000    0.000    0.000    0.000 
#
# Total GULP energy -892445.749771 kJ/mol
# GULP energy per Si atom -12395.079858 kJ/mol
# Density = 1.745836 g / cm^3
# Si number density = 17.498190 Si / 1000 Ang^3
#
#
#
# Elastic Constant Matrix: (Units=GPa)
#
#
# Indices 1 2 3 4 5 6 
#
# 1 78.9765 40.3387 32.1970 0.0000 0.0000 0.0000
# 2 40.3387 78.9765 32.1970 0.0000 0.0000 0.0000
# 3 32.1970 32.1970 116.4755 0.0000 0.0000 0.0000
# 4 0.0000 0.0000 0.0000 19.9156 0.0000 0.0000
# 5 0.0000 0.0000 0.0000 0.0000 19.9156 0.0000
# 6 0.0000 0.0000 0.0000 0.0000 0.0000 15.7384
#
#
#
# Elastic Compliance Matrix: (Units=1/GPa)
#
#
# Indices 1 2 3 4 5 6 
#
# 1 0.017866 -0.008015 -0.002723 0.000000 0.000000 0.000000
# 2 -0.008015 0.017866 -0.002723 0.000000 0.000000 0.000000
# 3 -0.002723 -0.002723 0.010091 0.000000 0.000000 0.000000
# 4 0.000000 0.000000 0.000000 0.050212 0.000000 0.000000
# 5 0.000000 0.000000 0.000000 0.000000 0.050212 0.000000
# 6 0.000000 0.000000 0.000000 0.000000 0.000000 0.063539
#
#
# Mechanical properties :
#
#
# Convention : Reuss Voigt Hill
#
# Bulk Modulus (GPa) = 52.90896 53.76596 53.33746
# Shear Modulus (GPa) = 20.57537 22.42695 21.50116
#
# Velocity S-wave (km/s) = 3.43280 3.58393 3.50918
# Velocity P-wave (km/s) = 6.78341 6.92238 6.85325
#
# Compressibility (1/GPa) = 0.01890039
#
# Stress axis : x y z
#
# Youngs Moduli (GPa) = 55.97195 55.97195 99.09892
#
# Poissons Ratio (x) = 0.44863 0.26985
# Poissons Ratio (y) = 0.44863 0.26985
# Poissons Ratio (z) = 0.15241 0.15241
#
# Static dielectric constant tensor:
#      x y z
#    x 3.051290 0.000000 0.000000 
#    y 0.000000 3.051290 0.000000 
#    z 0.000000 0.000000 3.569240 
# 
# 
# High freq. dielectric constant tensor:
#      x y z
#    x 1.653970 0.000000 0.000000 
#    y 0.000000 1.653970 0.000000 
#    z 0.000000 0.000000 1.689990 
# 
# From -- ./inp_files/7790.got.cif
#   From: 2010.03.12/outbox.cif.g09.slc.cpg/sg123_4_cif.got.tgz:7790.got - 2010.04.06 16:26:55.
