data_PCOD8312483
_publ_section_title
;
Structure prediction by ZEFSAII (Michael W. Deem and Ramdas Pophale) SiO2 
 PCOD8312483
Probable space group: P 4/M M M
;
_chemical_formula_sum "Si O2"
_cell_formula_units_Z 72
_cell_length_a 22.994562
_cell_length_b 22.994562
_cell_length_c 8.993377
_cell_angle_alpha 90.000000
_cell_angle_beta 90.000000
_cell_angle_gamma 90.000000
_cell_volume 4755.247024
_symmetry_space_group_name_H-M "P 4/M M M"
_symmetry_group_IT_number 123
_symmetry_cell_setting 'tetragonal'
loop_
_space_group_symop_operation_xyz
x,y,z
-y,x,z
-x,-y,z
y,-x,z
x,-y,-z
-x,y,-z
y,x,-z
-y,-x,-z
-x,-y,-z
y,-x,-z
x,y,-z
-y,x,-z
-x,y,z
x,-y,z
-y,-x,z
y,x,z
loop_
_atom_site_type_symbol
_atom_site_label
_atom_site_fract_x
_atom_site_fract_y
_atom_site_fract_z
Si Si1 0.826416 0.662095 0.824465
Si Si2 0.353817 0.353817 0.333704
Si Si3 0.933259 0.383628 0.675292
Si Si4 0.500000 0.931758 0.835389
Si Si5 0.256356 0.743644 0.332435
Si Si6 0.732009 0.433179 0.825733
O O1 0.890358 0.662190 0.751056
O O2 0.798534 0.720234 0.758348
O O3 0.788170 0.605303 0.779372
O O4 0.832537 0.667644 0.000000
O O5 0.372139 0.372139 0.500000
O O6 0.305078 0.305078 0.336561
O O7 0.327062 0.410138 0.251648
O O8 0.924462 0.385211 0.500000
O O9 0.912281 0.444682 0.742280
O O10 0.000000 0.368872 0.716935
O O11 0.500000 0.000000 0.857130
O O12 0.500000 0.901860 0.000000
O O13 0.238423 0.761577 0.500000
O O14 0.743497 0.500000 0.777901
O O15 0.721055 0.427557 0.000000
#
# Coordination Sequence:
#
# PCOD8312483 Si02
#       6
#    16   8  16   8   8  16
#     4  10  19  30  47  67  88 112 145 183 217 256
#     4   9  17  29  45  64  84 105 129 163 207 253
#     4  10  20  32  44  61  87 118 149 180 218 261
#     4   9  17  29  43  57  77 109 147 183 216 251
#     4   9  17  31  47  63  86 112 141 176 220 262
#     4   9  18  31  46  64  84 107 134 166 207 256
#
# _framework density 15.141170000000001
#
# number of rings (size 3 to 8) (size 9 to 14) (size 15 to 20)
#    0.000    2.556    0.000    2.333    1.556    6.667 
#    0.000    0.000    0.000    0.333    0.000    2.333 
#    0.000    0.000    0.000    0.000    0.000    0.556 
#
# Total GULP energy -892592.680844 kJ/mol
# GULP energy per Si atom -12397.120567 kJ/mol
# Density = 1.510671 g / cm^3
# Si number density = 15.141170 Si / 1000 Ang^3
#
#
#
# Elastic Constant Matrix: (Units=GPa)
#
#
# Indices 1 2 3 4 5 6 
#
# 1 77.5492 44.4102 44.7470 0.0000 0.0000 0.0000
# 2 44.4102 77.5492 44.7470 0.0000 0.0000 0.0000
# 3 44.7470 44.7470 91.5515 0.0000 0.0000 0.0000
# 4 0.0000 0.0000 0.0000 23.9058 0.0000 0.0000
# 5 0.0000 0.0000 0.0000 0.0000 23.9058 0.0000
# 6 0.0000 0.0000 0.0000 0.0000 0.0000 84.8141
#
#
#
# Elastic Compliance Matrix: (Units=1/GPa)
#
#
# Indices 1 2 3 4 5 6 
#
# 1 0.021480 -0.008696 -0.006249 0.000000 0.000000 0.000000
# 2 -0.008696 0.021480 -0.006249 0.000000 0.000000 0.000000
# 3 -0.006249 -0.006249 0.017031 0.000000 0.000000 0.000000
# 4 0.000000 0.000000 0.000000 0.041831 0.000000 0.000000
# 5 0.000000 0.000000 0.000000 0.000000 0.041831 0.000000
# 6 0.000000 0.000000 0.000000 0.000000 0.000000 0.011790
#
#
# Mechanical properties :
#
#
# Convention : Reuss Voigt Hill
#
# Bulk Modulus (GPa) = 56.79962 57.16203 56.98083
# Shear Modulus (GPa) = 24.54604 34.04149 29.29376
#
# Velocity S-wave (km/s) = 4.03071 4.74674 4.40330
# Velocity P-wave (km/s) = 7.69786 8.23873 7.97288
#
# Compressibility (1/GPa) = 0.01760575
#
# Stress axis : x y z
#
# Youngs Moduli (GPa) = 46.55415 46.55415 58.71605
#
# Poissons Ratio (x) = 0.40482 0.36690
# Poissons Ratio (y) = 0.40482 0.36690
# Poissons Ratio (z) = 0.29090 0.29090
#
# Static dielectric constant tensor:
#      x y z
#    x 2.705940 0.000000 0.000000 
#    y 0.000000 2.705940 0.000000 
#    z 0.000000 0.000000 3.068520 
# 
# 
# High freq. dielectric constant tensor:
#      x y z
#    x 1.550840 0.000000 0.000000 
#    y 0.000000 1.550840 0.000000 
#    z 0.000000 0.000000 1.597350 
# 
# From -- ./inp_files/1160.got.cif
#   From: 2010.03.12/outbox.cif.g09.slc.cpg/sg123_1_cif.got.tgz:1160.got - 2010.04.06 16:26:55.
