data_PCOD8312234
_publ_section_title
;
Structure prediction by ZEFSAII (Michael W. Deem and Ramdas Pophale) SiO2 
 PCOD8312234
Probable space group: P 4/M M M
;
_chemical_formula_sum "Si O2"
_cell_formula_units_Z 88
_cell_length_a 18.120631
_cell_length_b 18.120631
_cell_length_c 16.119302
_cell_angle_alpha 90.000000
_cell_angle_beta 90.000000
_cell_angle_gamma 90.000000
_cell_volume 5292.889964
_symmetry_space_group_name_H-M "P 4/M M M"
_symmetry_group_IT_number 123
_symmetry_cell_setting 'tetragonal'
loop_
_space_group_symop_operation_xyz
x,y,z
-y,x,z
-x,-y,z
y,-x,z
x,-y,-z
-x,y,-z
y,x,-z
-y,-x,-z
-x,-y,-z
y,-x,-z
x,y,-z
-y,x,-z
-x,y,z
x,-y,z
-y,-x,z
y,x,z
loop_
_atom_site_type_symbol
_atom_site_label
_atom_site_fract_x
_atom_site_fract_y
_atom_site_fract_z
Si Si1 0.085667 0.579816 0.749934
Si Si2 0.583019 0.301384 0.098127
Si Si3 0.086204 0.202841 0.162522
Si Si4 0.145697 0.350603 0.904751
Si Si5 0.087811 0.204043 0.500000
Si Si6 0.085559 0.277648 0.333723
O O1 0.122941 0.500000 0.732046
O O2 0.092605 0.600853 0.846817
O O3 0.122387 0.643585 0.692295
O O4 0.000000 0.574934 0.729738
O O5 0.500000 0.299075 0.136284
O O6 0.627146 0.372855 0.132808
O O7 0.630176 0.229210 0.122477
O O8 0.577197 0.306597 0.000000
O O9 0.124109 0.124109 0.143415
O O10 0.127861 0.264391 0.107911
O O11 0.097139 0.219413 0.259933
O O12 0.000000 0.199203 0.138148
O O13 0.131202 0.372629 0.000000
O O14 0.122459 0.122459 0.500000
O O15 0.118713 0.247588 0.419574
O O16 0.000000 0.193748 0.500000
O O17 0.000000 0.291761 0.348564
#
# Coordination Sequence:
#
# PCOD8312234 Si02
#       6
#    16  16  16  16   8  16
#     4   9  17  29  45  65  90 118 148 185 227 272
#     4   9  17  28  42  61  84 109 138 172 211 260
#     4  10  20  33  48  65  88 119 156 199 243 286
#     4  10  19  31  46  64  87 116 151 190 234 280
#     4  10  18  29  47  67  89 117 149 187 230 278
#     4   8  16  30  45  64  89 115 143 178 225 277
#
# _framework density 16.626076999999999
#
# number of rings (size 3 to 8) (size 9 to 14) (size 15 to 20)
#    0.000    2.727    0.000    3.273    0.000    4.091 
#    0.000    2.273    0.000    6.000    0.000    1.273 
#    0.000    0.000    0.000    0.000    0.000    0.000 
#
# Total GULP energy -1090478.272822 kJ/mol
# GULP energy per Si atom -12391.798555 kJ/mol
# Density = 1.658824 g / cm^3
# Si number density = 16.626077 Si / 1000 Ang^3
#
#
#
# Elastic Constant Matrix: (Units=GPa)
#
#
# Indices 1 2 3 4 5 6 
#
# 1 94.7262 61.4354 20.3671 0.0000 0.0000 0.0000
# 2 61.4354 94.7262 20.3671 0.0000 0.0000 0.0000
# 3 20.3671 20.3671 65.5004 0.0000 0.0000 0.0000
# 4 0.0000 0.0000 0.0000 11.6488 0.0000 0.0000
# 5 0.0000 0.0000 0.0000 0.0000 11.6488 0.0000
# 6 0.0000 0.0000 0.0000 0.0000 0.0000 23.1337
#
#
#
# Elastic Compliance Matrix: (Units=1/GPa)
#
#
# Indices 1 2 3 4 5 6 
#
# 1 0.018504 -0.011535 -0.002167 0.000000 0.000000 0.000000
# 2 -0.011535 0.018504 -0.002167 0.000000 0.000000 0.000000
# 3 -0.002167 -0.002167 0.016615 0.000000 0.000000 0.000000
# 4 0.000000 0.000000 0.000000 0.085846 0.000000 0.000000
# 5 0.000000 0.000000 0.000000 0.000000 0.085846 0.000000
# 6 0.000000 0.000000 0.000000 0.000000 0.000000 0.043227
#
#
# Mechanical properties :
#
#
# Convention : Reuss Voigt Hill
#
# Bulk Modulus (GPa) = 45.69416 51.03246 48.36331
# Shear Modulus (GPa) = 16.25635 19.47182 17.86409
#
# Velocity S-wave (km/s) = 3.13031 3.42594 3.28145
# Velocity P-wave (km/s) = 6.37246 6.81251 6.59615
#
# Compressibility (1/GPa) = 0.02188463
#
# Stress axis : x y z
#
# Youngs Moduli (GPa) = 54.04353 54.04353 60.18772
#
# Poissons Ratio (x) = 0.62338 0.13042
# Poissons Ratio (y) = 0.62338 0.13042
# Poissons Ratio (z) = 0.11711 0.11711
#
# Static dielectric constant tensor:
#      x y z
#    x 3.249730 0.000000 0.000000 
#    y 0.000000 3.249730 0.000000 
#    z 0.000000 0.000000 3.085930 
# 
# 
# High freq. dielectric constant tensor:
#      x y z
#    x 1.631000 0.000000 0.000000 
#    y 0.000000 1.631000 0.000000 
#    z 0.000000 0.000000 1.608790 
# 
# From -- ./inp_files/4074.got.cif
#   From: 2010.03.12/outbox.cif.g09.slc.cpg/sg123_3_cif.got.tgz:4074.got - 2010.04.06 16:26:55.
