data_PCOD8312769
_publ_section_title
;
Structure prediction by ZEFSAII (Michael W. Deem and Ramdas Pophale) SiO2 
 PCOD8312769
Probable space group: P 4/M M M
;
_chemical_formula_sum "Si O2"
_cell_formula_units_Z 120
_cell_length_a 22.130107
_cell_length_b 22.130107
_cell_length_c 13.780561
_cell_angle_alpha 90.000000
_cell_angle_beta 90.000000
_cell_angle_gamma 90.000000
_cell_volume 6748.914487
_symmetry_space_group_name_H-M "P 4/M M M"
_symmetry_group_IT_number 123
_symmetry_cell_setting 'tetragonal'
loop_
_space_group_symop_operation_xyz
x,y,z
-y,x,z
-x,-y,z
y,-x,z
x,-y,-z
-x,y,-z
y,x,-z
-y,-x,-z
-x,-y,-z
y,-x,-z
x,y,-z
-y,x,-z
-x,y,z
x,-y,z
-y,-x,z
y,x,z
loop_
_atom_site_type_symbol
_atom_site_label
_atom_site_fract_x
_atom_site_fract_y
_atom_site_fract_z
Si Si1 0.711142 0.892353 0.389239
Si Si2 0.106745 0.644373 0.201310
Si Si3 0.168867 0.070155 0.712216
Si Si4 0.663668 0.567920 0.886466
Si Si5 0.759987 0.666816 0.610268
Si Si6 0.430080 0.778045 0.759848
Si Si7 0.869627 0.772485 0.111483
Si Si8 0.431345 0.000000 0.113960
O O1 0.694707 0.912854 0.500000
O O2 0.663826 0.918268 0.308842
O O3 0.778830 0.913345 0.364981
O O4 0.706536 0.820383 0.378113
O O5 0.160058 0.596557 0.201913
O O6 0.131506 0.702945 0.144131
O O7 0.056151 0.608715 0.144844
O O8 0.109707 0.109707 0.687569
O O9 0.191604 0.082618 0.821754
O O10 0.151596 0.000000 0.702358
O O11 0.642987 0.500000 0.860842
O O12 0.612209 0.612209 0.845300
O O13 0.727527 0.583275 0.839481
O O14 0.672628 0.576774 0.000000
O O15 0.746153 0.652340 0.500000
O O16 0.706906 0.706906 0.656994
O O17 0.760942 0.602071 0.659981
O O18 0.500000 0.786369 0.737010
O O19 0.803046 0.803046 0.124168
O O20 0.891277 0.777250 0.000000
O O21 0.500000 0.000000 0.158808
O O22 0.437969 0.000000 0.000000
#
# Coordination Sequence:
#
# PCOD8312769 Si02
#       8
#    16  16  16  16  16  16  16   8
#     4   9  19  35  56  80 104 131 169 220 272 316
#     4  10  21  36  56  79 104 138 180 221 268 321
#     4  10  21  35  52  77 107 141 178 215 260 318
#     4   9  18  31  47  69  97 131 170 208 249 300
#     4   9  17  31  53  78 101 129 167 211 260 312
#     4  10  20  33  49  71 103 137 168 209 259 310
#     4   9  19  35  55  81 109 134 170 225 283 330
#     4  11  24  40  57  79 109 147 189 226 262 316
#
# _framework density 17.780636999999999
#
# number of rings (size 3 to 8) (size 9 to 14) (size 15 to 20)
#    0.000    2.467    0.000    1.600    3.733    6.667 
#    0.000    3.333    0.000    1.600    0.000    2.800 
#    0.000    0.000    0.000   12.400    0.000    0.133 
#
# Total GULP energy -1487465.878194 kJ/mol
# GULP energy per Si atom -12395.548985 kJ/mol
# Density = 1.774017 g / cm^3
# Si number density = 17.780637 Si / 1000 Ang^3
#
#
#
# Elastic Constant Matrix: (Units=GPa)
#
#
# Indices 1 2 3 4 5 6 
#
# 1 106.9190 73.0876 35.3359 0.0000 0.0000 0.0000
# 2 73.0876 106.9190 35.3359 0.0000 0.0000 0.0000
# 3 35.3359 35.3359 84.4056 0.0000 0.0000 0.0000
# 4 0.0000 0.0000 0.0000 21.4982 0.0000 0.0000
# 5 0.0000 0.0000 0.0000 0.0000 21.4982 0.0000
# 6 0.0000 0.0000 0.0000 0.0000 0.0000 158.4575
#
#
#
# Elastic Compliance Matrix: (Units=1/GPa)
#
#
# Indices 1 2 3 4 5 6 
#
# 1 0.018103 -0.011455 -0.002783 0.000000 0.000000 0.000000
# 2 -0.011455 0.018103 -0.002783 0.000000 0.000000 0.000000
# 3 -0.002783 -0.002783 0.014178 0.000000 0.000000 0.000000
# 4 0.000000 0.000000 0.000000 0.046516 0.000000 0.000000
# 5 0.000000 0.000000 0.000000 0.000000 0.046516 0.000000
# 6 0.000000 0.000000 0.000000 0.000000 0.000000 0.006311
#
#
# Mechanical properties :
#
#
# Convention : Reuss Voigt Hill
#
# Bulk Modulus (GPa) = 61.19467 65.08471 63.13969
# Shear Modulus (GPa) = 26.42477 50.58970 38.50724
#
# Velocity S-wave (km/s) = 3.85925 5.33984 4.65874
# Velocity P-wave (km/s) = 7.37222 8.64305 8.03280
#
# Compressibility (1/GPa) = 0.01634129
#
# Stress axis : x y z
#
# Youngs Moduli (GPa) = 55.23889 55.23889 70.53244
#
# Poissons Ratio (x) = 0.63277 0.19630
# Poissons Ratio (y) = 0.63277 0.19630
# Poissons Ratio (z) = 0.15374 0.15374
#
# Static dielectric constant tensor:
#      x y z
#    x 3.383280 0.000000 0.000000 
#    y 0.000000 3.383280 0.000000 
#    z 0.000000 0.000000 3.488250 
# 
# 
# High freq. dielectric constant tensor:
#      x y z
#    x 1.685050 0.000000 0.000000 
#    y 0.000000 1.685050 0.000000 
#    z 0.000000 0.000000 1.689390 
# 
# From -- ./inp_files/4595.got.cif
#   From: 2010.03.12/outbox.cif.g09.slc.cpg/sg123_3_cif.got.tgz:4595.got - 2010.04.06 16:26:55.
