data_PCOD8312689
_publ_section_title
;
Structure prediction by ZEFSAII (Michael W. Deem and Ramdas Pophale) SiO2 
 PCOD8312689
Probable space group: P 4/M M M
;
_chemical_formula_sum "Si O2"
_cell_formula_units_Z 80
_cell_length_a 13.685377
_cell_length_b 13.685377
_cell_length_c 25.726643
_cell_angle_alpha 90.000000
_cell_angle_beta 90.000000
_cell_angle_gamma 90.000000
_cell_volume 4818.331227
_symmetry_space_group_name_H-M "P 4/M M M"
_symmetry_group_IT_number 123
_symmetry_cell_setting 'tetragonal'
loop_
_space_group_symop_operation_xyz
x,y,z
-y,x,z
-x,-y,z
y,-x,z
x,-y,-z
-x,y,-z
y,x,-z
-y,-x,-z
-x,-y,-z
y,-x,-z
x,y,-z
-y,x,-z
-x,y,z
x,-y,z
-y,-x,z
y,x,z
loop_
_atom_site_type_symbol
_atom_site_label
_atom_site_fract_x
_atom_site_fract_y
_atom_site_fract_z
Si Si1 0.615751 0.226798 0.156317
Si Si2 0.390069 0.885527 0.343667
Si Si3 0.115506 0.725832 0.757861
Si Si4 0.108793 0.384219 0.057439
Si Si5 0.769168 0.612651 0.557444
O O1 0.500000 0.245001 0.159125
O O2 0.670173 0.329828 0.165801
O O3 0.646755 0.147484 0.199243
O O4 0.651506 0.185004 0.100704
O O5 0.500000 0.848372 0.331069
O O6 0.318154 0.853488 0.297697
O O7 0.350981 0.843302 0.398236
O O8 0.389957 0.000000 0.350317
O O9 0.171694 0.828307 0.766069
O O10 0.000000 0.744975 0.762209
O O11 0.103080 0.500000 0.059300
O O12 0.000000 0.342159 0.068862
O O13 0.143775 0.349549 0.000000
O O14 0.814926 0.632869 0.500000
O O15 0.744239 0.500000 0.564700
O O16 0.667327 0.667327 0.564272
#
# Coordination Sequence:
#
# PCOD8312689 Si02
#       5
#    16  16  16  16  16
#     4  10  20  32  47  68  94 125 160 196 233 275
#     4   9  17  29  46  67  89 114 145 181 221 266
#     4  10  20  33  50  71  93 118 149 186 230 279
#     4   8  14  26  45  67  89 115 150 192 233 269
#     4   9  17  28  42  61  86 116 148 182 219 258
#
# _framework density 16.603259000000001
#
# number of rings (size 3 to 8) (size 9 to 14) (size 15 to 20)
#    0.000    2.800    0.000    2.400    0.000    3.400 
#    0.000    3.000    0.000    0.000    0.000    5.600 
#    0.000    0.000    0.000   37.200    0.000    1.400 
#
# Total GULP energy -991597.179071 kJ/mol
# GULP energy per Si atom -12394.964738 kJ/mol
# Density = 1.656547 g / cm^3
# Si number density = 16.603259 Si / 1000 Ang^3
#
#
#
# Elastic Constant Matrix: (Units=GPa)
#
#
# Indices 1 2 3 4 5 6 
#
# 1 62.6447 33.7183 42.3535 0.0000 0.0000 0.0000
# 2 33.7183 62.6447 42.3535 0.0000 0.0000 0.0000
# 3 42.3535 42.3535 125.3208 0.0000 0.0000 0.0000
# 4 0.0000 0.0000 0.0000 24.0782 0.0000 0.0000
# 5 0.0000 0.0000 0.0000 0.0000 24.0782 0.0000
# 6 0.0000 0.0000 0.0000 0.0000 0.0000 17.1641
#
#
#
# Elastic Compliance Matrix: (Units=1/GPa)
#
#
# Indices 1 2 3 4 5 6 
#
# 1 0.024667 -0.009904 -0.004989 0.000000 0.000000 0.000000
# 2 -0.009904 0.024667 -0.004989 0.000000 0.000000 0.000000
# 3 -0.004989 -0.004989 0.011352 0.000000 0.000000 0.000000
# 4 0.000000 0.000000 0.000000 0.041531 0.000000 0.000000
# 5 0.000000 0.000000 0.000000 0.000000 0.041531 0.000000
# 6 0.000000 0.000000 0.000000 0.000000 0.000000 0.058261
#
#
# Mechanical properties :
#
#
# Convention : Reuss Voigt Hill
#
# Bulk Modulus (GPa) = 47.79897 54.16230 50.98064
# Shear Modulus (GPa) = 20.10064 21.87642 20.98853
#
# Velocity S-wave (km/s) = 3.48321 3.63381 3.55931
# Velocity P-wave (km/s) = 6.71032 7.09214 6.90387
#
# Compressibility (1/GPa) = 0.02092095
#
# Stress axis : x y z
#
# Youngs Moduli (GPa) = 40.54010 40.54010 88.09027
#
# Poissons Ratio (x) = 0.40149 0.43952
# Poissons Ratio (y) = 0.40149 0.43952
# Poissons Ratio (z) = 0.20227 0.20227
#
# Static dielectric constant tensor:
#      x y z
#    x 2.933900 0.000000 0.000000 
#    y 0.000000 2.933900 0.000000 
#    z 0.000000 0.000000 3.521660 
# 
# 
# High freq. dielectric constant tensor:
#      x y z
#    x 1.620180 0.000000 0.000000 
#    y 0.000000 1.620180 0.000000 
#    z 0.000000 0.000000 1.659400 
# 
# From -- ./inp_files/6312.got.cif
#   From: 2010.03.12/outbox.cif.g09.slc.cpg/sg123_4_cif.got.tgz:6312.got - 2010.04.06 16:26:55.
