data_PCOD8312268
_publ_section_title
;
Structure prediction by ZEFSAII (Michael W. Deem and Ramdas Pophale) SiO2 
 PCOD8312268
Probable space group: P 4/M M M
;
_chemical_formula_sum "Si O2"
_cell_formula_units_Z 80
_cell_length_a 24.558366
_cell_length_b 24.558366
_cell_length_c 9.234253
_cell_angle_alpha 90.000000
_cell_angle_beta 90.000000
_cell_angle_gamma 90.000000
_cell_volume 5569.301175
_symmetry_space_group_name_H-M "P 4/M M M"
_symmetry_group_IT_number 123
_symmetry_cell_setting 'tetragonal'
loop_
_space_group_symop_operation_xyz
x,y,z
-y,x,z
-x,-y,z
y,-x,z
x,-y,-z
-x,y,-z
y,x,-z
-y,-x,-z
-x,-y,-z
y,-x,-z
x,y,-z
-y,x,-z
-x,y,z
x,-y,z
-y,-x,z
y,x,z
loop_
_atom_site_type_symbol
_atom_site_label
_atom_site_fract_x
_atom_site_fract_y
_atom_site_fract_z
Si Si1 0.807553 0.654806 0.168373
Si Si2 0.110970 0.437955 0.166869
Si Si3 0.179841 0.179841 0.660303
Si Si4 0.407361 0.000000 0.327201
Si Si5 0.750934 0.112025 0.839662
Si Si6 0.728363 0.271638 0.333544
Si Si7 0.000000 0.300939 0.160883
O O1 0.836840 0.598259 0.219697
O O2 0.854880 0.697294 0.201404
O O3 0.752848 0.673357 0.256734
O O4 0.790648 0.651904 0.000000
O O5 0.130674 0.500000 0.179383
O O6 0.055570 0.432022 0.260233
O O7 0.097229 0.421925 0.000000
O O8 0.164785 0.164785 0.500000
O O9 0.124712 0.199724 0.733566
O O10 0.225802 0.225802 0.677540
O O11 0.343935 0.000000 0.289803
O O12 0.416805 0.000000 0.500000
O O13 0.739273 0.049493 0.821350
O O14 0.769671 0.128189 0.000000
O O15 0.714202 0.285799 0.500000
O O16 0.000000 0.328859 0.000000
#
# Coordination Sequence:
#
# PCOD8312268 Si02
#       7
#    16  16   8   8  16   8   8
#     4   9  16  28  45  62  79 102 136 174 208 246
#     4  10  20  34  49  61  78 110 150 186 217 250
#     4   9  17  27  39  57  83 104 124 155 198 248
#     4  12  23  31  42  59  84 112 143 183 221 252
#     4   9  16  27  44  60  77 101 132 165 200 241
#     4   9  17  27  41  61  83 105 128 161 208 257
#     4  10  18  31  47  62  80 106 139 172 205 246
#
# _framework density 14.364459
#
# number of rings (size 3 to 8) (size 9 to 14) (size 15 to 20)
#    0.000    2.400    2.000    1.800    0.000    5.600 
#    0.000    0.000    0.000    0.000    0.000    0.000 
#    0.000    0.400    0.000    4.600    0.000    2.300 
#
# Total GULP energy -991193.763260 kJ/mol
# GULP energy per Si atom -12389.922041 kJ/mol
# Density = 1.433177 g / cm^3
# Si number density = 14.364459 Si / 1000 Ang^3
#
#
#
# Elastic Constant Matrix: (Units=GPa)
#
#
# Indices 1 2 3 4 5 6 
#
# 1 67.0980 47.9259 40.3278 0.0000 0.0000 0.0000
# 2 47.9259 67.0980 40.3279 0.0000 0.0000 0.0000
# 3 40.3278 40.3279 80.3288 0.0000 0.0000 0.0000
# 4 0.0000 0.0000 0.0000 8.9690 0.0000 0.0000
# 5 0.0000 0.0000 0.0000 0.0000 8.9690 0.0000
# 6 0.0000 0.0000 0.0000 0.0000 0.0000 44.8943
#
#
#
# Elastic Compliance Matrix: (Units=1/GPa)
#
#
# Indices 1 2 3 4 5 6 
#
# 1 0.032788 -0.019371 -0.006736 0.000000 0.000000 0.000000
# 2 -0.019371 0.032788 -0.006736 0.000000 0.000000 0.000000
# 3 -0.006736 -0.006736 0.019212 0.000000 0.000000 0.000000
# 4 0.000000 0.000000 0.000000 0.111495 0.000000 0.000000
# 5 0.000000 0.000000 0.000000 0.000000 0.111495 0.000000
# 6 0.000000 0.000000 0.000000 0.000000 0.000000 0.022275
#
#
# Mechanical properties :
#
#
# Convention : Reuss Voigt Hill
#
# Bulk Modulus (GPa) = 52.34813 52.40978 52.37895
# Shear Modulus (GPa) = 12.43454 18.29600 15.36527
#
# Velocity S-wave (km/s) = 2.94538 3.57276 3.27413
# Velocity P-wave (km/s) = 6.93462 7.32014 7.12999
#
# Compressibility (1/GPa) = 0.01910288
#
# Stress axis : x y z
#
# Youngs Moduli (GPa) = 30.49890 30.49884 52.05058
#
# Poissons Ratio (x) = 0.59079 0.35060
# Poissons Ratio (y) = 0.59079 0.35061
# Poissons Ratio (z) = 0.20543 0.20544
#
# Static dielectric constant tensor:
#      x y z
#    x 2.739910 0.000000 0.000000 
#    y 0.000000 2.739910 0.000000 
#    z 0.000000 0.000000 2.920480 
# 
# 
# High freq. dielectric constant tensor:
#      x y z
#    x 1.521850 0.000000 0.000000 
#    y 0.000000 1.521850 0.000000 
#    z 0.000000 0.000000 1.550430 
# 
# From -- ./inp_files/1518.got.cif
#   From: 2010.03.12/outbox.cif.g09.slc.cpg/sg123_1_cif.got.tgz:1518.got - 2010.04.06 16:26:55.
