data_PCOD8312337
_publ_section_title
;
Structure prediction by ZEFSAII (Michael W. Deem and Ramdas Pophale) SiO2 
 PCOD8312337
Probable space group: P 4/M M M
;
_chemical_formula_sum "Si O2"
_cell_formula_units_Z 112
_cell_length_a 18.485840
_cell_length_b 18.485840
_cell_length_c 21.165645
_cell_angle_alpha 90.000000
_cell_angle_beta 90.000000
_cell_angle_gamma 90.000000
_cell_volume 7232.857140
_symmetry_space_group_name_H-M "P 4/M M M"
_symmetry_group_IT_number 123
_symmetry_cell_setting 'tetragonal'
loop_
_space_group_symop_operation_xyz
x,y,z
-y,x,z
-x,-y,z
y,-x,z
x,-y,-z
-x,y,-z
y,x,-z
-y,-x,-z
-x,-y,-z
y,-x,-z
x,y,-z
-y,x,-z
-x,y,z
x,-y,z
-y,-x,z
y,x,z
loop_
_atom_site_type_symbol
_atom_site_label
_atom_site_fract_x
_atom_site_fract_y
_atom_site_fract_z
Si Si1 0.300205 0.584203 0.109341
Si Si2 0.695602 0.419089 0.255632
Si Si3 0.156034 0.651878 0.071603
Si Si4 0.842944 0.586210 0.307389
Si Si5 0.584498 0.921076 0.815321
Si Si6 0.081703 0.413989 0.569020
Si Si7 0.802479 0.082913 0.925298
O O1 0.301489 0.500000 0.085649
O O2 0.379319 0.620682 0.097964
O O3 0.279556 0.586796 0.183026
O O4 0.241942 0.634932 0.073410
O O5 0.674257 0.500000 0.272905
O O6 0.625727 0.374274 0.272306
O O7 0.759937 0.390652 0.299973
O O8 0.121064 0.595484 0.119559
O O9 0.131379 0.732301 0.093606
O O10 0.128574 0.638321 0.000000
O O11 0.850515 0.500000 0.306648
O O12 0.885158 0.619584 0.247131
O O13 0.871459 0.619107 0.373581
O O14 0.500000 0.926308 0.803775
O O15 0.619822 0.000000 0.822493
O O16 0.111118 0.388381 0.500000
O O17 0.083714 0.500000 0.572120
O O18 0.000000 0.386538 0.577990
O O19 0.873707 0.126294 0.900029
O O20 0.799785 0.000000 0.897836
O O21 0.806561 0.077918 0.000000
#
# Coordination Sequence:
#
# PCOD8312337 Si02
#       7
#    16  16  16  16  16  16  16
#     4  10  20  34  50  67  86 110 145 189 237 285
#     4   9  17  29  45  63  83 108 142 186 232 276
#     4  11  21  33  47  63  87 116 146 182 224 270
#     4   9  15  26  42  59  83 111 138 172 211 253
#     4  10  19  29  42  61  85 116 151 182 216 259
#     4   8  13  21  36  61  89 113 136 161 193 238
#     4   9  18  32  49  68  88 110 138 174 216 261
#
# _framework density 15.484890999999999
#
# number of rings (size 3 to 8) (size 9 to 14) (size 15 to 20)
#    0.000    2.571    1.429    2.143    0.000    5.000 
#    0.000    2.857    0.000    0.429    0.000    1.000 
#    0.000    0.000    0.000    5.571    0.000    0.143 
#
# Total GULP energy -1387685.887312 kJ/mol
# GULP energy per Si atom -12390.052565 kJ/mol
# Density = 1.544965 g / cm^3
# Si number density = 15.484891 Si / 1000 Ang^3
#
#
#
# Elastic Constant Matrix: (Units=GPa)
#
#
# Indices 1 2 3 4 5 6 
#
# 1 74.4911 46.2160 25.6653 0.0000 0.0000 0.0000
# 2 46.2160 74.4911 25.6653 0.0000 0.0000 0.0000
# 3 25.6653 25.6653 87.0124 0.0000 0.0000 0.0000
# 4 0.0000 0.0000 0.0000 15.0541 0.0000 0.0000
# 5 0.0000 0.0000 0.0000 0.0000 15.0541 0.0000
# 6 0.0000 0.0000 0.0000 0.0000 0.0000 18.0373
#
#
#
# Elastic Compliance Matrix: (Units=1/GPa)
#
#
# Indices 1 2 3 4 5 6 
#
# 1 0.022420 -0.012947 -0.002794 0.000000 0.000000 0.000000
# 2 -0.012947 0.022420 -0.002794 0.000000 0.000000 0.000000
# 3 -0.002794 -0.002794 0.013141 0.000000 0.000000 0.000000
# 4 0.000000 0.000000 0.000000 0.066427 0.000000 0.000000
# 5 0.000000 0.000000 0.000000 0.000000 0.066427 0.000000
# 6 0.000000 0.000000 0.000000 0.000000 0.000000 0.055441
#
#
# Mechanical properties :
#
#
# Convention : Reuss Voigt Hill
#
# Bulk Modulus (GPa) = 47.82408 47.89867 47.86137
# Shear Modulus (GPa) = 17.22261 18.85895 18.04078
#
# Velocity S-wave (km/s) = 3.33861 3.49362 3.41700
# Velocity P-wave (km/s) = 6.76854 6.87557 6.82227
#
# Compressibility (1/GPa) = 0.02090997
#
# Stress axis : x y z
#
# Youngs Moduli (GPa) = 44.60347 44.60347 76.09827
#
# Poissons Ratio (x) = 0.57748 0.21262
# Poissons Ratio (y) = 0.57748 0.21262
# Poissons Ratio (z) = 0.12463 0.12463
#
# Static dielectric constant tensor:
#      x y z
#    x 2.925320 0.000000 0.000000 
#    y 0.000000 2.925320 0.000000 
#    z 0.000000 0.000000 3.048940 
# 
# 
# High freq. dielectric constant tensor:
#      x y z
#    x 1.574750 0.000000 0.000000 
#    y 0.000000 1.574750 0.000000 
#    z 0.000000 0.000000 1.571590 
# 
# From -- ./inp_files/6678.got.cif
#   From: 2010.03.12/outbox.cif.g09.slc.cpg/sg123_4_cif.got.tgz:6678.got - 2010.04.06 16:26:55.
