data_PCOD8312415
_publ_section_title
;
Structure prediction by ZEFSAII (Michael W. Deem and Ramdas Pophale) SiO2 
 PCOD8312415
Probable space group: P 4/M M M
;
_chemical_formula_sum "Si O2"
_cell_formula_units_Z 96
_cell_length_a 18.134011
_cell_length_b 18.134011
_cell_length_c 18.395656
_cell_angle_alpha 90.000000
_cell_angle_beta 90.000000
_cell_angle_gamma 90.000000
_cell_volume 6049.270840
_symmetry_space_group_name_H-M "P 4/M M M"
_symmetry_group_IT_number 123
_symmetry_cell_setting 'tetragonal'
loop_
_space_group_symop_operation_xyz
x,y,z
-y,x,z
-x,-y,z
y,-x,z
x,-y,-z
-x,y,-z
y,x,-z
-y,-x,-z
-x,-y,-z
y,-x,-z
x,y,-z
-y,x,-z
-x,y,z
x,-y,z
-y,-x,z
y,x,z
loop_
_atom_site_type_symbol
_atom_site_label
_atom_site_fract_x
_atom_site_fract_y
_atom_site_fract_z
Si Si1 0.914144 0.346612 0.921846
Si Si2 0.083879 0.305481 0.288133
Si Si3 0.796574 0.916496 0.843385
Si Si4 0.084554 0.795088 0.416826
Si Si5 0.295229 0.585433 0.082854
Si Si6 0.832373 0.583346 0.193829
O O1 0.882683 0.268341 0.893703
O O2 0.898565 0.411765 0.864628
O O3 0.000000 0.337558 0.928496
O O4 0.878849 0.365778 0.000000
O O5 0.087528 0.232372 0.239010
O O6 0.103637 0.277541 0.369056
O O7 0.145654 0.365357 0.262722
O O8 0.000000 0.338700 0.284410
O O9 0.869754 0.869754 0.854005
O O10 0.816569 0.000000 0.865246
O O11 0.097236 0.771287 0.500000
O O12 0.136182 0.863819 0.395543
O O13 0.000000 0.819749 0.403045
O O14 0.314196 0.500000 0.093653
O O15 0.369863 0.630138 0.096501
O O16 0.237606 0.610808 0.145650
O O17 0.265568 0.599397 0.000000
O O18 0.822535 0.500000 0.222160
#
# Coordination Sequence:
#
# PCOD8312415 Si02
#       6
#    16  16  16  16  16  16
#     4   9  18  30  41  55  77 105 136 171 214 260
#     4   9  18  31  44  60  85 114 142 172 210 259
#     4   9  17  28  41  57  78 106 141 179 216 255
#     4   9  17  29  46  68  93 120 149 181 215 251
#     4   9  18  31  45  63  87 112 139 172 210 254
#     4  10  19  30  45  65  86 107 137 177 213 246
#
# _framework density 15.869681999999999
#
# number of rings (size 3 to 8) (size 9 to 14) (size 15 to 20)
#    0.000    2.833    0.000    2.500    0.000    6.500 
#    0.000    2.500    0.000    3.500    0.000    4.667 
#    0.000    0.000    0.000    0.000    0.000    0.000 
#
# Total GULP energy -1189367.552690 kJ/mol
# GULP energy per Si atom -12389.245341 kJ/mol
# Density = 1.583356 g / cm^3
# Si number density = 15.869682 Si / 1000 Ang^3
#
#
#
# Elastic Constant Matrix: (Units=GPa)
#
#
# Indices 1 2 3 4 5 6 
#
# 1 67.0191 46.8630 32.3066 0.0000 0.0000 0.0000
# 2 46.8630 67.0191 32.3066 0.0000 0.0000 0.0000
# 3 32.3066 32.3066 81.5523 0.0000 0.0000 0.0000
# 4 0.0000 0.0000 0.0000 18.8984 0.0000 0.0000
# 5 0.0000 0.0000 0.0000 0.0000 18.8984 0.0000
# 6 0.0000 0.0000 0.0000 0.0000 0.0000 26.2028
#
#
#
# Elastic Compliance Matrix: (Units=1/GPa)
#
#
# Indices 1 2 3 4 5 6 
#
# 1 0.030470 -0.019143 -0.004487 0.000000 0.000000 0.000000
# 2 -0.019143 0.030470 -0.004487 0.000000 0.000000 0.000000
# 3 -0.004487 -0.004487 0.015817 0.000000 0.000000 0.000000
# 4 0.000000 0.000000 0.000000 0.052914 0.000000 0.000000
# 5 0.000000 0.000000 0.000000 0.000000 0.052914 0.000000
# 6 0.000000 0.000000 0.000000 0.000000 0.000000 0.038164
#
#
# Mechanical properties :
#
#
# Convention : Reuss Voigt Hill
#
# Bulk Modulus (GPa) = 48.72698 48.72698 48.72698
# Shear Modulus (GPa) = 17.61650 19.74087 18.67869
#
# Velocity S-wave (km/s) = 3.33539 3.53077 3.43447
# Velocity P-wave (km/s) = 6.75309 6.88425 6.81899
#
# Compressibility (1/GPa) = 0.02052251
#
# Stress axis : x y z
#
# Youngs Moduli (GPa) = 32.81935 32.81935 63.22246
#
# Poissons Ratio (x) = 0.62826 0.28368
# Poissons Ratio (y) = 0.62826 0.28368
# Poissons Ratio (z) = 0.14726 0.14726
#
# Static dielectric constant tensor:
#      x y z
#    x 2.895650 0.000000 0.000000 
#    y 0.000000 2.895650 0.000000 
#    z 0.000000 0.000000 3.169030 
# 
# 
# High freq. dielectric constant tensor:
#      x y z
#    x 1.594650 0.000000 0.000000 
#    y 0.000000 1.594650 0.000000 
#    z 0.000000 0.000000 1.594140 
# 
# From -- ./inp_files/5494.got.cif
#   From: 2010.03.12/outbox.cif.g09.slc.cpg/sg123_3_cif.got.tgz:5494.got - 2010.04.06 16:26:55.
