data_PCOD8312099
_publ_section_title
;
Structure prediction by ZEFSAII (Michael W. Deem and Ramdas Pophale) SiO2 
 PCOD8312099
Probable space group: I -4 2 D
;
_chemical_formula_sum "Si O2"
_cell_formula_units_Z 112
_cell_length_a 14.632649
_cell_length_b 14.632649
_cell_length_c 23.241211
_cell_angle_alpha 90.000000
_cell_angle_beta 90.000000
_cell_angle_gamma 90.000000
_cell_volume 4976.278338
_symmetry_space_group_name_H-M "I -4 2 D"
_symmetry_group_IT_number 122
_symmetry_cell_setting 'tetragonal'
loop_
_space_group_symop_operation_xyz
x,y,z
y,-x,-z
-x,-y,z
-y,x,-z
x,1/2-y,1/4-z
-x,1/2+y,1/4-z
-y,1/2-x,1/4+z
y,1/2+x,1/4+z
1/2+x,1/2+y,1/2+z
1/2+y,1/2-x,1/2-z
1/2-x,1/2-y,1/2+z
1/2-y,1/2+x,1/2-z
1/2+x,-y,3/4-z
1/2-x,y,3/4-z
1/2-y,-x,3/4+z
1/2+y,x,3/4+z
loop_
_atom_site_type_symbol
_atom_site_label
_atom_site_fract_x
_atom_site_fract_y
_atom_site_fract_z
Si Si1 0.698895 0.319701 0.717781
Si Si2 0.258226 0.168170 0.655787
Si Si3 0.000000 0.000000 0.665033
Si Si4 0.087626 0.114462 0.581440
Si Si5 0.976074 0.362441 0.487138
Si Si6 0.181581 0.406159 0.782547
Si Si7 0.937985 0.581231 0.129407
Si Si8 0.436301 0.750000 0.625000
O O1 0.691685 0.277293 0.781169
O O2 0.665564 0.423106 0.718917
O O3 0.802539 0.317000 0.692056
O O4 0.629599 0.264692 0.678801
O O5 0.315381 0.250000 0.625000
O O6 0.172041 0.165219 0.611254
O O7 0.334220 0.086144 0.656680
O O8 0.971820 0.085848 0.702520
O O9 0.082428 0.024835 0.621760
O O10 0.101861 0.089878 0.515078
O O11 0.987867 0.168326 0.580105
O O12 0.915778 0.273665 0.496028
O O13 0.931986 0.427326 0.439205
O O14 0.000000 0.500000 0.155958
O O15 0.998546 0.668250 0.142713
#
# Coordination Sequence:
#
# PCOD8312099 Si02
#       8
#    16  16   8  16  16  16  16   8
#     4  12  26  51  76 110 157 204 252 325 393 465
#     4  12  23  49  80 110 151 206 257 315 394 472
#     4  12  26  39  68 106 148 203 254 312 372 474
#     4  12  25  42  70 113 154 203 254 310 385 477
#     4  12  23  47  74 102 149 200 258 312 391 465
#     4  12  25  45  73 109 159 199 245 315 387 468
#     4  12  25  49  80 104 143 202 258 325 388 445
#     4  12  28  52  76 108 150 198 264 324 378 452
#
# _framework density 22.506778000000001
#
# number of rings (size 3 to 8) (size 9 to 14) (size 15 to 20)
#    0.000    0.000    8.571    0.857    0.000    1.143 
#    5.143    0.000    0.000    0.000    0.000    0.000 
#    0.000    0.000    0.000    0.000    0.000    0.000 
#
# Total GULP energy -693821.437892 kJ/mol
# GULP energy per Si atom -12389.668534 kJ/mol
# Density = 2.245555 g / cm^3
# Si number density = 22.506778 Si / 1000 Ang^3
#
#
#
# Elastic Constant Matrix: (Units=GPa)
#
#
# Indices 1 2 3 4 5 6 
#
# 1 137.2303 55.2298 29.9167 0.0000 0.0000 0.0000
# 2 55.2298 137.2303 29.9167 0.0000 0.0000 0.0000
# 3 29.9167 29.9167 66.3185 0.0000 0.0000 0.0000
# 4 0.0000 0.0000 0.0000 -9.1604 0.0000 0.0000
# 5 0.0000 0.0000 0.0000 0.0000 -9.1604 0.0000
# 6 0.0000 0.0000 0.0000 0.0000 0.0000 38.3638
#
#
#
# Elastic Compliance Matrix: (Units=1/GPa)
#
#
# Indices 1 2 3 4 5 6 
#
# 1 0.009119 -0.003076 -0.002726 0.000000 0.000000 0.000000
# 2 -0.003076 0.009119 -0.002726 0.000000 0.000000 0.000000
# 3 -0.002726 -0.002726 0.017538 0.000000 0.000000 0.000000
# 4 0.000000 0.000000 0.000000 -0.109165 0.000000 0.000000
# 5 0.000000 0.000000 0.000000 0.000000 -0.109165 0.000000
# 6 0.000000 0.000000 0.000000 0.000000 0.000000 0.026066
#
#
# Mechanical properties :
#
#
# Convention : Reuss Voigt Hill
#
# Bulk Modulus (GPa) = 53.41786 63.43394 58.42590
# Shear Modulus (GPa) = -37.54022 19.05632 -9.24195
#
# Velocity S-wave (km/s) = -4.08849 2.91295 -2.02860
# Velocity P-wave (km/s) = 1.22393 6.28962 4.53086
#
# Compressibility (1/GPa) = 0.01872033
#
# Stress axis : x y z
#
# Youngs Moduli (GPa) = 109.65835 109.65835 57.01777
#
# Poissons Ratio (x) = 0.33729 0.15544
# Poissons Ratio (y) = 0.33729 0.15544
# Poissons Ratio (z) = 0.29895 0.29895
#
# Static dielectric constant tensor:
#      x y z
#    x 4.477900 0.000000 0.000000 
#    y 0.000000 4.477900 0.000000 
#    z 0.000000 0.000000 8.044920 
# 
# 
# High freq. dielectric constant tensor:
#      x y z
#    x 1.898020 0.000000 0.000000 
#    y 0.000000 1.898020 0.000000 
#    z 0.000000 0.000000 1.874950 
# 
# From -- ./inp_files/8840.got.cif
#   From: 2010.03.12/outbox.cif.g09.slc.cpg/sg122_5_cif.got.tgz:8840.got - 2010.04.06 16:17:16.
