data_PCOD8312431
_publ_section_title
;
Structure prediction by ZEFSAII (Michael W. Deem and Ramdas Pophale) SiO2 
 PCOD8312431
Probable space group: P 4/M M M
;
_chemical_formula_sum "Si O2"
_cell_formula_units_Z 64
_cell_length_a 13.812894
_cell_length_b 13.812894
_cell_length_c 20.615886
_cell_angle_alpha 90.000000
_cell_angle_beta 90.000000
_cell_angle_gamma 90.000000
_cell_volume 3933.429423
_symmetry_space_group_name_H-M "P 4/M M M"
_symmetry_group_IT_number 123
_symmetry_cell_setting 'tetragonal'
loop_
_space_group_symop_operation_xyz
x,y,z
-y,x,z
-x,-y,z
y,-x,z
x,-y,-z
-x,y,-z
y,x,-z
-y,-x,-z
-x,-y,-z
y,-x,-z
x,y,-z
-y,x,-z
-x,y,z
x,-y,z
-y,-x,z
y,x,z
loop_
_atom_site_type_symbol
_atom_site_label
_atom_site_fract_x
_atom_site_fract_y
_atom_site_fract_z
Si Si1 0.611732 0.888887 0.625038
Si Si2 0.385470 0.771350 0.000000
Si Si3 0.385381 0.108280 0.124944
Si Si4 0.268386 0.886687 0.500000
Si Si5 0.770153 0.613769 0.248108
O O1 0.500000 0.874757 0.607074
O O2 0.672079 0.854395 0.563115
O O3 0.641838 0.824317 0.685932
O O4 0.633535 0.000000 0.643076
O O5 0.351531 0.832389 0.062208
O O6 0.500000 0.750234 0.000000
O O7 0.331885 0.668116 0.000000
O O8 0.500000 0.100013 0.125614
O O9 0.349467 0.162810 0.189288
O O10 0.340493 0.000000 0.123094
O O11 0.165389 0.834612 0.500000
O O12 0.247964 0.000000 0.500000
O O13 0.748609 0.500000 0.243024
O O14 0.667565 0.667565 0.245344
#
# Coordination Sequence:
#
# PCOD8312431 Si02
#       5
#    16   8  16   8  16
#     4   9  17  30  48  68  88 112 146 189 231 263
#     4  10  19  30  45  67  96 126 153 181 216 265
#     4   9  17  30  47  65  86 114 149 190 229 256
#     4  10  19  30  45  65  90 118 147 181 222 271
#     4  10  19  30  45  66  93 122 149 178 214 262
#
# _framework density 16.270790000000002
#
# number of rings (size 3 to 8) (size 9 to 14) (size 15 to 20)
#    0.000    2.500    0.000    3.000    0.000    6.500 
#    0.000    0.000    0.000    4.500    0.000    0.000 
#    0.000   45.500    0.000    0.000    0.000    0.000 
#
# Total GULP energy -793643.474394 kJ/mol
# GULP energy per Si atom -12400.679287 kJ/mol
# Density = 1.623376 g / cm^3
# Si number density = 16.270790 Si / 1000 Ang^3
#
#
#
# Elastic Constant Matrix: (Units=GPa)
#
#
# Indices 1 2 3 4 5 6 
#
# 1 75.2191 51.2022 55.2717 0.0000 0.0000 0.0000
# 2 51.2022 75.2186 55.2718 0.0000 0.0000 0.0000
# 3 55.2717 55.2718 148.8446 0.0000 0.0000 0.0000
# 4 0.0000 0.0000 0.0000 15.1677 0.0000 0.0000
# 5 0.0000 0.0000 0.0000 0.0000 15.1667 0.0000
# 6 0.0000 0.0000 0.0000 0.0000 0.0000 23.2343
#
#
#
# Elastic Compliance Matrix: (Units=1/GPa)
#
#
# Indices 1 2 3 4 5 6 
#
# 1 0.026676 -0.014962 -0.004350 0.000000 0.000000 0.000000
# 2 -0.014962 0.026676 -0.004350 0.000000 0.000000 0.000000
# 3 -0.004350 -0.004350 0.009949 0.000000 0.000000 0.000000
# 4 0.000000 0.000000 0.000000 0.065930 0.000000 0.000000
# 5 0.000000 0.000000 0.000000 0.000000 0.065934 0.000000
# 6 0.000000 0.000000 0.000000 0.000000 0.000000 0.043040
#
#
# Mechanical properties :
#
#
# Convention : Reuss Voigt Hill
#
# Bulk Modulus (GPa) = 62.58967 69.19709 65.89338
# Shear Modulus (GPa) = 17.19086 19.88284 18.53685
#
# Velocity S-wave (km/s) = 3.25398 3.49950 3.37897
# Velocity P-wave (km/s) = 7.25733 7.67785 7.47055
#
# Compressibility (1/GPa) = 0.01597708
#
# Stress axis : x y z
#
# Youngs Moduli (GPa) = 37.48757 37.48715 100.51452
#
# Poissons Ratio (x) = 0.56089 0.43720
# Poissons Ratio (y) = 0.56090 0.43721
# Poissons Ratio (z) = 0.16306 0.16306
#
# Static dielectric constant tensor:
#      x y z
#    x 2.899720 0.000000 0.000000 
#    y 0.000000 2.899720 0.000000 
#    z 0.000000 0.000000 3.309530 
# 
# 
# High freq. dielectric constant tensor:
#      x y z
#    x 1.606860 0.000000 0.000000 
#    y 0.000000 1.606860 0.000000 
#    z 0.000000 0.000000 1.647120 
# 
# From -- ./inp_files/5029.got.cif
#   From: 2010.03.12/outbox.cif.g09.slc.cpg/sg123_3_cif.got.tgz:5029.got - 2010.04.06 16:26:55.
