data_PCOD8312597
_publ_section_title
;
Structure prediction by ZEFSAII (Michael W. Deem and Ramdas Pophale) SiO2 
 PCOD8312597
Probable space group: P 4/M M M
;
_chemical_formula_sum "Si O2"
_cell_formula_units_Z 120
_cell_length_a 18.514501
_cell_length_b 18.514501
_cell_length_c 21.100825
_cell_angle_alpha 90.000000
_cell_angle_beta 90.000000
_cell_angle_gamma 90.000000
_cell_volume 7233.083167
_symmetry_space_group_name_H-M "P 4/M M M"
_symmetry_group_IT_number 123
_symmetry_cell_setting 'tetragonal'
loop_
_space_group_symop_operation_xyz
x,y,z
-y,x,z
-x,-y,z
y,-x,z
x,-y,-z
-x,y,-z
y,x,-z
-y,-x,-z
-x,-y,-z
y,-x,-z
x,y,-z
-y,x,-z
-x,y,z
x,-y,z
-y,-x,z
y,x,z
loop_
_atom_site_type_symbol
_atom_site_label
_atom_site_fract_x
_atom_site_fract_y
_atom_site_fract_z
Si Si1 0.165732 0.581271 0.321243
Si Si2 0.919616 0.803365 0.244824
Si Si3 0.304234 0.419535 0.758918
Si Si4 0.081691 0.194126 0.608812
Si Si5 0.916156 0.354335 0.202199
Si Si6 0.191352 0.306561 0.429086
Si Si7 0.584795 0.791016 0.126791
Si Si8 0.707517 0.414352 0.000000
O O1 0.141096 0.500000 0.338473
O O2 0.247601 0.581206 0.297672
O O3 0.111690 0.610663 0.267603
O O4 0.166479 0.628574 0.384397
O O5 0.863252 0.863252 0.221521
O O6 0.909775 0.782287 0.318094
O O7 0.906827 0.731638 0.204339
O O8 0.000000 0.834482 0.233586
O O9 0.333442 0.500000 0.771864
O O10 0.371586 0.371586 0.738844
O O11 0.266873 0.387637 0.821855
O O12 0.113804 0.113804 0.599824
O O13 0.125199 0.250818 0.566843
O O14 0.000000 0.193135 0.585176
O O15 0.869143 0.379893 0.141479
O O16 0.000000 0.376177 0.192408
O O17 0.204886 0.336660 0.500000
O O18 0.263173 0.263173 0.404835
O O19 0.500000 0.802796 0.134482
O O20 0.605625 0.758790 0.058851
O O21 0.685636 0.500000 0.000000
O O22 0.634289 0.365712 0.000000
#
# Coordination Sequence:
#
# PCOD8312597 Si02
#       8
#    16  16  16  16  16  16  16   8
#     4  10  20  32  48  69  91 118 153 197 245 288
#     4   9  17  28  45  69  95 123 154 190 232 279
#     4   9  17  29  46  69  95 122 153 189 232 282
#     4   9  17  30  46  66  91 117 147 182 222 269
#     4  10  19  32  51  74  98 126 164 204 242 291
#     4  10  20  33  49  67  89 121 157 193 238 290
#     4   9  19  33  48  70  99 131 165 201 240 281
#     4  10  20  35  53  75 105 137 172 208 244 290
#
# _framework density 16.590436
#
# number of rings (size 3 to 8) (size 9 to 14) (size 15 to 20)
#    0.000    2.533    1.333    2.000    0.000    4.733 
#    0.000    1.667    0.000    3.600    0.000    3.733 
#    0.000    0.000    0.000   12.400    0.000   10.667 
#
# Total GULP energy -1487563.964549 kJ/mol
# GULP energy per Si atom -12396.366371 kJ/mol
# Density = 1.655268 g / cm^3
# Si number density = 16.590436 Si / 1000 Ang^3
#
#
#
# Elastic Constant Matrix: (Units=GPa)
#
#
# Indices 1 2 3 4 5 6 
#
# 1 94.9791 51.6062 31.5516 0.0000 0.0000 0.0000
# 2 51.6062 94.9784 31.5514 0.0000 0.0000 0.0000
# 3 31.5516 31.5514 70.5256 0.0000 0.0000 0.0000
# 4 0.0000 0.0000 0.0000 16.0230 0.0000 0.0000
# 5 0.0000 0.0000 0.0000 0.0000 16.0233 0.0000
# 6 0.0000 0.0000 0.0000 0.0000 0.0000 26.2841
#
#
#
# Elastic Compliance Matrix: (Units=1/GPa)
#
#
# Indices 1 2 3 4 5 6 
#
# 1 0.015753 -0.007303 -0.003780 0.000000 0.000000 0.000000
# 2 -0.007303 0.015753 -0.003780 0.000000 0.000000 0.000000
# 3 -0.003780 -0.003780 0.017561 0.000000 0.000000 0.000000
# 4 0.000000 0.000000 0.000000 0.062410 0.000000 0.000000
# 5 0.000000 0.000000 0.000000 0.000000 0.062409 0.000000
# 6 0.000000 0.000000 0.000000 0.000000 0.000000 0.038046
#
#
# Mechanical properties :
#
#
# Convention : Reuss Voigt Hill
#
# Bulk Modulus (GPa) = 51.70653 54.43347 53.07000
# Shear Modulus (GPa) = 20.15273 21.38434 20.76853
#
# Velocity S-wave (km/s) = 3.48906 3.59410 3.54197
# Velocity P-wave (km/s) = 6.88952 7.07847 6.98464
#
# Compressibility (1/GPa) = 0.01933992
#
# Stress axis : x y z
#
# Youngs Moduli (GPa) = 63.48161 63.48120 56.94310
#
# Poissons Ratio (x) = 0.46363 0.21524
# Poissons Ratio (y) = 0.46363 0.21524
# Poissons Ratio (z) = 0.23996 0.23996
#
# Static dielectric constant tensor:
#      x y z
#    x 3.116090 0.000000 0.000000 
#    y 0.000000 3.116090 0.000000 
#    z 0.000000 0.000000 2.925380 
# 
# 
# High freq. dielectric constant tensor:
#      x y z
#    x 1.637100 0.000000 0.000000 
#    y 0.000000 1.637100 0.000000 
#    z 0.000000 0.000000 1.613660 
# 
# From -- ./inp_files/6772.got.cif
#   From: 2010.03.12/outbox.cif.g09.slc.cpg/sg123_4_cif.got.tgz:6772.got - 2010.04.06 16:26:55.
